REMARK  Name = 
REMARK  5 active torsions:
REMARK  status: ('A' for Active; 'I' for Inactive)
REMARK    1  A    between atoms: C_2  and  C_24
REMARK    2  A    between atoms: N_3  and  C_4
REMARK    3  A    between atoms: C_4  and  C_5
REMARK    4  A    between atoms: C_12  and  C_13
REMARK    5  A    between atoms: C_13  and  N_14
REMARK                            x       y       z     vdW  Elec       q    Type
REMARK                         _______ _______ _______ _____ _____    ______ ____
ROOT
ATOM      5  C   UNL     1      -3.827  -0.469   0.000  0.00  0.00    +0.079 C 
ATOM      6  C   UNL     1      -3.686  -1.234   0.000  0.00  0.00    +0.018 C 
ATOM      7  C   UNL     1      -2.952  -1.577   0.000  0.00  0.00    +0.005 C 
ATOM      8  C   UNL     1      -3.004  -2.473   0.000  0.00  0.00    +0.017 C 
ATOM      9  C   UNL     1      -3.239  -1.863   0.000  0.00  0.00    +0.072 C 
ATOM     10  N   UNL     1      -3.084  -0.827   0.000  0.00  0.00    -0.272 NA
ATOM     11  C   UNL     1      -2.239  -0.481   0.000  0.00  0.00    +0.073 C 
ATOM     12  C   UNL     1      -2.143  -1.238   0.000  0.00  0.00    +0.032 C 
ENDROOT
BRANCH   5   4
ATOM      4  C   UNL     1      -4.328   0.187   0.000  0.00  0.00    +0.131 C 
BRANCH   4   3
ATOM      1  O   UNL     1      -5.329   1.498   0.000  0.00  0.00    -0.268 OA
ATOM      2  C   UNL     1      -4.511   1.604   0.000  0.00  0.00    +0.265 C 
ATOM      3  N   UNL     1      -4.010   0.948   0.000  0.00  0.00    -0.200 NA
BRANCH   2  24
ATOM     24  C   UNL     1      -4.193   2.366   0.000  0.00  0.00    +0.058 A 
ATOM     25  C   UNL     1      -4.694   3.021   0.000  0.00  0.00    +0.008 A 
ATOM     26  C   UNL     1      -4.376   3.783   0.000  0.00  0.00    +0.040 A 
ATOM     27  C   UNL     1      -3.558   3.889   0.000  0.00  0.00    +0.176 A 
ATOM     28  O   UNL     1      -3.089   4.567   0.000  0.00  0.00    -0.435 OA
ATOM     29  C   UNL     1      -2.299   4.331   0.000  0.00  0.00    +0.429 C 
ATOM     30  O   UNL     1      -2.279   3.506   0.000  0.00  0.00    -0.435 OA
ATOM     31  C   UNL     1      -3.058   3.233   0.000  0.00  0.00    +0.177 A 
ATOM     32  C   UNL     1      -3.375   2.471   0.000  0.00  0.00    +0.045 A 
ENDBRANCH   2  24
ENDBRANCH   4   3
ENDBRANCH   5   4
BRANCH  12  13
ATOM     13  C   UNL     1      -1.429  -1.650   0.000  0.00  0.00    +0.074 C 
BRANCH  13  14
ATOM     14  N   UNL     1      -0.715  -1.238   0.000  0.00  0.00    -0.269 NA
ATOM     15  C   UNL     1       0.000  -1.650   0.000  0.00  0.00    +0.077 C 
ATOM     16  C   UNL     1       0.715  -1.238   0.000  0.00  0.00    +0.043 C 
ATOM     17  C   UNL     1       0.715  -0.412   0.000  0.00  0.00    -0.023 A 
ATOM     18  C   UNL     1       0.000   0.000   0.000  0.00  0.00    -0.010 A 
ATOM     19  C   UNL     1      -0.715  -0.412   0.000  0.00  0.00    +0.099 C 
ATOM     20  C   UNL     1       0.000   0.825   0.000  0.00  0.00    -0.003 A 
ATOM     21  C   UNL     1       0.715   1.238   0.000  0.00  0.00    -0.000 A 
ATOM     22  C   UNL     1       1.429   0.825   0.000  0.00  0.00    -0.000 A 
ATOM     23  C   UNL     1       1.429   0.000   0.000  0.00  0.00    -0.004 A 
ENDBRANCH  13  14
ENDBRANCH  12  13
TORSDOF 5
