REMARK  Name = 
REMARK  5 active torsions:
REMARK  status: ('A' for Active; 'I' for Inactive)
REMARK    1  A    between atoms: O_2  and  C_3
REMARK    2  A    between atoms: C_3  and  C_5
REMARK    3  A    between atoms: N_10  and  S_11
REMARK    4  A    between atoms: S_11  and  C_14
REMARK    5  A    between atoms: C_20  and  C_22
REMARK                            x       y       z     vdW  Elec       q    Type
REMARK                         _______ _______ _______ _____ _____    ______ ____
ROOT
ATOM      5  C   UNL     1       2.143  -1.238   0.000  0.00  0.00    +0.198 C 
ATOM      6  C   UNL     1       2.858  -1.650   0.000  0.00  0.00    +0.123 C 
ATOM      7  N   UNL     1       2.858  -2.475   0.000  0.00  0.00    -0.273 N 
ATOM      8  C   UNL     1       2.143  -2.888   0.000  0.00  0.00    +0.113 C 
ATOM      9  C   UNL     1       1.429  -2.475   0.000  0.00  0.00    +0.118 C 
ATOM     10  N   UNL     1       1.429  -1.650   0.000  0.00  0.00    -0.143 NA
ATOM     20  C   UNL     1       3.572  -2.888   0.000  0.00  0.00    +0.249 C 
ATOM     21  O   UNL     1       4.287  -2.475   0.000  0.00  0.00    -0.270 OA
ENDROOT
BRANCH  20  22
ATOM     22  C   UNL     1       3.572  -3.712   0.000  0.00  0.00    +0.056 A 
ATOM     23  C   UNL     1       4.287  -4.125   0.000  0.00  0.00    +0.005 A 
ATOM     24  C   UNL     1       4.287  -4.950   0.000  0.00  0.00    +0.002 A 
ATOM     25  C   UNL     1       3.572  -5.362   0.000  0.00  0.00    +0.030 A 
ATOM     26  C   UNL     1       2.858  -4.950   0.000  0.00  0.00    +0.140 A 
ATOM     27  F   UNL     1       2.143  -5.362   0.000  0.00  0.00    -0.204 F 
ATOM     28  C   UNL     1       2.858  -4.125   0.000  0.00  0.00    +0.034 A 
ENDBRANCH  20  22
BRANCH  10  11
ATOM     11  S   UNL     1       0.715  -1.238   0.000  0.00  0.00    +0.064 S 
ATOM     12  O   UNL     1       0.302  -1.952   0.000  0.00  0.00    -0.153 OA
ATOM     13  O   UNL     1       1.127  -0.523   0.000  0.00  0.00    -0.153 OA
BRANCH  11  14
ATOM     14  C   UNL     1       0.000  -0.825   0.000  0.00  0.00    +0.122 A 
ATOM     15  C   UNL     1      -0.715  -1.238   0.000  0.00  0.00    +0.020 A 
ATOM     16  C   UNL     1      -1.429  -0.825   0.000  0.00  0.00    +0.001 A 
ATOM     17  C   UNL     1      -1.429   0.000   0.000  0.00  0.00    +0.000 A 
ATOM     18  C   UNL     1      -0.715   0.412   0.000  0.00  0.00    +0.001 A 
ATOM     19  C   UNL     1       0.000   0.000   0.000  0.00  0.00    +0.020 A 
ENDBRANCH  11  14
ENDBRANCH  10  11
BRANCH   5   3
ATOM      3  C   UNL     1       2.143  -0.412   0.000  0.00  0.00    +0.335 C 
ATOM      4  O   UNL     1       2.858   0.000   0.000  0.00  0.00    -0.248 OA
BRANCH   3   2
ATOM      1  C   UNL     1       1.429   0.825   0.000  0.00  0.00    +0.256 C 
ATOM      2  O   UNL     1       1.429   0.000   0.000  0.00  0.00    -0.443 OA
ENDBRANCH   3   2
ENDBRANCH   5   3
TORSDOF 5
