REMARK  Name = 
REMARK  5 active torsions:
REMARK  status: ('A' for Active; 'I' for Inactive)
REMARK    1  A    between atoms: C_2  and  N_3
REMARK    2  A    between atoms: C_4  and  O_6
REMARK    3  A    between atoms: O_6  and  C_7
REMARK    4  A    between atoms: C_11  and  N_15
REMARK    5  A    between atoms: N_18  and  C_19
REMARK                            x       y       z     vdW  Elec       q    Type
REMARK                         _______ _______ _______ _____ _____    ______ ____
ROOT
ATOM      7  C   UNL     1       6.286   1.204   0.000  0.00  0.00    +0.229 C 
ATOM      8  C   UNL     1       6.372   2.025   0.000  0.00  0.00    +0.188 C 
ATOM      9  O   UNL     1       7.179   2.196   0.000  0.00  0.00    -0.348 OA
ATOM     10  C   UNL     1       7.592   1.482   0.000  0.00  0.00    +0.168 C 
ATOM     11  C   UNL     1       8.345   1.146   0.000  0.00  0.00    +0.156 C 
ATOM     12  C   UNL     1       8.259   0.326   0.000  0.00  0.00    +0.166 C 
ATOM     13  O   UNL     1       7.452   0.154   0.000  0.00  0.00    -0.348 OA
ATOM     14  C   UNL     1       7.040   0.869   0.000  0.00  0.00    +0.186 C 
ENDROOT
BRANCH  11  15
ATOM     15  N   UNL     1       9.060   1.559   0.000  0.00  0.00    -0.184 NA
ATOM     16  C   UNL     1       9.774   1.146   0.000  0.00  0.00    +0.344 C 
ATOM     17  O   UNL     1       9.774   0.321   0.000  0.00  0.00    -0.249 OA
ATOM     18  N   UNL     1      10.489   1.559   0.000  0.00  0.00    -0.161 NA
BRANCH  18  19
ATOM     19  C   UNL     1      11.203   1.146   0.000  0.00  0.00    +0.075 A 
ATOM     20  C   UNL     1      11.918   1.559   0.000  0.00  0.00    +0.017 A 
ATOM     21  C   UNL     1      12.632   1.146   0.000  0.00  0.00    +0.001 A 
ATOM     22  C   UNL     1      12.632   0.321   0.000  0.00  0.00    +0.000 A 
ATOM     23  C   UNL     1      11.918  -0.091   0.000  0.00  0.00    +0.001 A 
ATOM     24  C   UNL     1      11.203   0.321   0.000  0.00  0.00    +0.017 A 
ENDBRANCH  18  19
ENDBRANCH  11  15
BRANCH   7   6
ATOM      6  O   UNL     1       5.572   0.792   0.000  0.00  0.00    -0.432 OA
BRANCH   6   4
ATOM      3  N   UNL     1       4.143   0.792   0.000  0.00  0.00    -0.169 NA
ATOM      4  C   UNL     1       4.857   1.204   0.000  0.00  0.00    +0.421 C 
ATOM      5  O   UNL     1       4.857   2.029   0.000  0.00  0.00    -0.225 OA
BRANCH   3   2
ATOM      1  C   UNL     1       2.714   0.792   0.000  0.00  0.00    +0.025 C 
ATOM      2  C   UNL     1       3.428   1.204   0.000  0.00  0.00    +0.119 C 
ENDBRANCH   3   2
ENDBRANCH   6   4
ENDBRANCH   7   6
TORSDOF 5
