REMARK  Name = 
REMARK  6 active torsions:
REMARK  status: ('A' for Active; 'I' for Inactive)
REMARK    1  A    between atoms: C_2  and  C_4
REMARK    2  A    between atoms: C_4  and  C_5
REMARK    3  A    between atoms: C_5  and  C_6
REMARK    4  A    between atoms: C_6  and  C_7
REMARK    5  A    between atoms: C_12  and  C_14
REMARK    6  A    between atoms: C_17  and  C_19
REMARK                            x       y       z     vdW  Elec       q    Type
REMARK                         _______ _______ _______ _____ _____    ______ ____
ROOT
ATOM      7  C   UNL     1       8.247  -6.338   0.000  0.00  0.00    +0.226 C 
ATOM      8  O   UNL     1       8.247  -7.163   0.000  0.00  0.00    -0.275 OA
ATOM      9  N   UNL     1       8.961  -5.925   0.000  0.00  0.00    -0.279 N 
ATOM     10  C   UNL     1       9.047  -5.105   0.000  0.00  0.00    +0.094 C 
ATOM     11  C   UNL     1       9.854  -4.933   0.000  0.00  0.00    +0.033 C 
ATOM     12  C   UNL     1      10.267  -5.648   0.000  0.00  0.00    +0.100 C 
ATOM     13  C   UNL     1       9.715  -6.261   0.000  0.00  0.00    +0.103 C 
ENDROOT
BRANCH  12  14
ATOM     14  C   UNL     1      11.087  -5.734   0.000  0.00  0.00    +0.228 A 
ATOM     15  N   UNL     1      11.639  -5.121   0.000  0.00  0.00    -0.111 NA
ATOM     16  N   UNL     1      12.393  -5.457   0.000  0.00  0.00    -0.107 NA
ATOM     17  C   UNL     1      12.307  -6.277   0.000  0.00  0.00    +0.250 A 
ATOM     18  O   UNL     1      11.500  -6.449   0.000  0.00  0.00    -0.419 OA
BRANCH  17  19
ATOM     19  C   UNL     1      12.920  -6.829   0.000  0.00  0.00    +0.055 A 
ATOM     20  C   UNL     1      13.704  -6.574   0.000  0.00  0.00    +0.005 A 
ATOM     21  C   UNL     1      14.318  -7.126   0.000  0.00  0.00    +0.000 A 
ATOM     22  C   UNL     1      14.146  -7.933   0.000  0.00  0.00    +0.000 A 
ATOM     23  C   UNL     1      13.361  -8.188   0.000  0.00  0.00    +0.000 A 
ATOM     24  C   UNL     1      12.748  -7.636   0.000  0.00  0.00    +0.005 A 
ENDBRANCH  17  19
ENDBRANCH  12  14
BRANCH   7   6
ATOM      6  C   UNL     1       7.532  -5.925   0.000  0.00  0.00    +0.086 C 
BRANCH   6   5
ATOM      5  C   UNL     1       6.818  -6.338   0.000  0.00  0.00    +0.021 C 
BRANCH   5   4
ATOM      4  C   UNL     1       6.103  -5.925   0.000  0.00  0.00    +0.115 C 
BRANCH   4   2
ATOM      1  O   UNL     1       4.674  -5.925   0.000  0.00  0.00    -0.246 OA
ATOM      2  C   UNL     1       5.389  -6.338   0.000  0.00  0.00    +0.365 C 
ATOM      3  O   UNL     1       5.389  -7.163   0.000  0.00  0.00    -0.246 OA
ENDBRANCH   4   2
ENDBRANCH   5   4
ENDBRANCH   6   5
ENDBRANCH   7   6
TORSDOF 6
