REMARK  Name = 
REMARK  7 active torsions:
REMARK  status: ('A' for Active; 'I' for Inactive)
REMARK    1  A    between atoms: O_2  and  C_3
REMARK    2  A    between atoms: C_3  and  C_5
REMARK    3  A    between atoms: C_11  and  C_13
REMARK    4  A    between atoms: C_13  and  C_14
REMARK    5  A    between atoms: C_14  and  C_15
REMARK    6  A    between atoms: N_24  and  C_25
REMARK    7  A    between atoms: C_25  and  C_26
REMARK                            x       y       z     vdW  Elec       q    Type
REMARK                         _______ _______ _______ _____ _____    ______ ____
ROOT
ATOM     15  C   UNL     1       4.157   1.774   0.000  0.00  0.00    +0.080 C 
ATOM     16  C   UNL     1       4.515   1.030   0.000  0.00  0.00    +0.131 C 
ATOM     17  N   UNL     1       4.157   0.287   0.000  0.00  0.00    -0.203 NA
ATOM     18  C   UNL     1       3.353   0.104   0.000  0.00  0.00    +0.257 C 
ATOM     19  O   UNL     1       3.169  -0.701   0.000  0.00  0.00    -0.272 OA
ATOM     20  C   UNL     1       2.708   0.618   0.000  0.00  0.00    +0.151 C 
ATOM     21  C   UNL     1       2.708   1.443   0.000  0.00  0.00    +0.083 C 
ATOM     22  C   UNL     1       1.923   1.698   0.000  0.00  0.00    +0.035 C 
ATOM     23  C   UNL     1       1.438   1.030   0.000  0.00  0.00    +0.074 C 
ATOM     24  N   UNL     1       1.923   0.363   0.000  0.00  0.00    -0.262 NA
ATOM     32  N   UNL     1       3.353   1.957   0.000  0.00  0.00    -0.271 NA
ATOM     33  C   UNL     1       3.169   2.762   0.000  0.00  0.00    +0.090 C 
ENDROOT
BRANCH  15  14
ATOM     14  C   UNL     1       4.671   2.419   0.000  0.00  0.00    +0.027 C 
BRANCH  14  13
ATOM     13  C   UNL     1       5.487   2.296   0.000  0.00  0.00    +0.087 C 
BRANCH  13  11
ATOM      5  C   UNL     1       8.449   2.572   0.000  0.00  0.00    +0.102 C 
ATOM      6  C   UNL     1       7.934   1.927   0.000  0.00  0.00    +0.033 C 
ATOM      7  C   UNL     1       7.119   2.050   0.000  0.00  0.00    +0.094 C 
ATOM      8  N   UNL     1       6.817   2.818   0.000  0.00  0.00    -0.280 N 
ATOM      9  C   UNL     1       7.332   3.463   0.000  0.00  0.00    +0.094 C 
ATOM     10  C   UNL     1       8.147   3.340   0.000  0.00  0.00    +0.033 C 
ATOM     11  C   UNL     1       6.002   2.941   0.000  0.00  0.00    +0.226 C 
ATOM     12  O   UNL     1       5.700   3.709   0.000  0.00  0.00    -0.275 OA
BRANCH   5   3
ATOM      3  C   UNL     1       9.265   2.449   0.000  0.00  0.00    +0.317 C 
ATOM      4  O   UNL     1       9.566   1.681   0.000  0.00  0.00    -0.250 OA
BRANCH   3   2
ATOM      1  C   UNL     1      10.595   2.971   0.000  0.00  0.00    +0.256 C 
ATOM      2  O   UNL     1       9.779   3.094   0.000  0.00  0.00    -0.444 OA
ENDBRANCH   3   2
ENDBRANCH   5   3
ENDBRANCH  13  11
ENDBRANCH  14  13
ENDBRANCH  15  14
BRANCH  24  25
ATOM     25  C   UNL     1       1.668  -0.422   0.000  0.00  0.00    +0.100 C 
BRANCH  25  26
ATOM     26  C   UNL     1       0.861  -0.593   0.000  0.00  0.00    -0.006 A 
ATOM     27  C   UNL     1       0.606  -1.378   0.000  0.00  0.00    -0.003 A 
ATOM     28  C   UNL     1      -0.201  -1.549   0.000  0.00  0.00    -0.000 A 
ATOM     29  C   UNL     1      -0.753  -0.936   0.000  0.00  0.00    -0.000 A 
ATOM     30  C   UNL     1      -0.498  -0.151   0.000  0.00  0.00    -0.000 A 
ATOM     31  C   UNL     1       0.309   0.020   0.000  0.00  0.00    -0.003 A 
ENDBRANCH  25  26
ENDBRANCH  24  25
TORSDOF 7
