REMARK  Name = 
REMARK  4 active torsions:
REMARK  status: ('A' for Active; 'I' for Inactive)
REMARK    1  A    between atoms: C_5  and  N_8
REMARK    2  A    between atoms: C_17  and  C_22
REMARK    3  A    between atoms: C_25  and  O_26
REMARK    4  A    between atoms: O_26  and  C_27
REMARK                            x       y       z     vdW  Elec       q    Type
REMARK                         _______ _______ _______ _____ _____    ______ ____
ROOT
ATOM      8  N   UNL     1       0.813  -2.091   0.000  0.00  0.00    -0.273 NA
ATOM      9  C   UNL     1       1.629  -1.912   0.000  0.00  0.00    +0.074 C 
ATOM     10  C   UNL     1       1.582  -0.925   0.000  0.00  0.00    +0.039 C 
ATOM     11  C   UNL     1       1.713  -0.121   0.000  0.00  0.00    +0.011 C 
ATOM     12  C   UNL     1       1.163  -0.557   0.000  0.00  0.00    +0.054 C 
ATOM     13  C   UNL     1       1.225  -1.510   0.000  0.00  0.00    +0.078 C 
ATOM     14  C   UNL     1       0.244  -0.558   0.000  0.00  0.00    +0.041 A 
ATOM     15  C   UNL     1      -0.397  -0.039   0.000  0.00  0.00    +0.013 A 
ATOM     16  C   UNL     1      -1.167  -0.335   0.000  0.00  0.00    +0.006 A 
ATOM     17  C   UNL     1      -1.296  -1.150   0.000  0.00  0.00    +0.056 A 
ATOM     18  C   UNL     1      -0.655  -1.669   0.000  0.00  0.00    +0.261 A 
ATOM     19  O   UNL     1      -1.238  -2.252   0.000  0.00  0.00    -0.267 OA
ATOM     20  N   UNL     1       0.115  -1.373   0.000  0.00  0.00    -0.299 N 
ATOM     21  C   UNL     1       0.622  -0.936   0.000  0.00  0.00    +0.110 C 
ENDROOT
BRANCH   8   5
ATOM      1  C   UNL     1      -1.938  -3.914   0.000  0.00  0.00    +0.090 C 
ATOM      2  N   UNL     1      -1.251  -3.458   0.000  0.00  0.00    -0.271 NA
ATOM      3  C   UNL     1      -1.301  -2.635   0.000  0.00  0.00    +0.074 C 
ATOM      4  C   UNL     1      -0.614  -2.179   0.000  0.00  0.00    +0.033 C 
ATOM      5  C   UNL     1       0.125  -2.547   0.000  0.00  0.00    +0.060 C 
ATOM      6  C   UNL     1       0.176  -3.370   0.000  0.00  0.00    +0.033 C 
ATOM      7  C   UNL     1      -0.512  -3.826   0.000  0.00  0.00    +0.074 C 
ENDBRANCH   8   5
BRANCH  17  22
ATOM     22  C   UNL     1      -2.066  -1.445   0.000  0.00  0.00    +0.005 A 
ATOM     23  C   UNL     1      -2.195  -2.260   0.000  0.00  0.00    +0.003 A 
ATOM     24  C   UNL     1      -2.965  -2.556   0.000  0.00  0.00    +0.037 A 
ATOM     25  C   UNL     1      -3.606  -2.037   0.000  0.00  0.00    +0.147 A 
ATOM     31  C   UNL     1      -3.478  -1.222   0.000  0.00  0.00    +0.037 A 
ATOM     32  C   UNL     1      -2.707  -0.926   0.000  0.00  0.00    +0.003 A 
BRANCH  25  26
ATOM     26  O   UNL     1      -4.377  -2.333   0.000  0.00  0.00    -0.404 OA
BRANCH  26  27
ATOM     27  C   UNL     1      -4.505  -3.147   0.000  0.00  0.00    +0.575 C 
ATOM     28  F   UNL     1      -4.635  -3.962   0.000  0.00  0.00    -0.133 F 
ATOM     29  F   UNL     1      -5.320  -3.018   0.000  0.00  0.00    -0.133 F 
ATOM     30  F   UNL     1      -3.691  -3.276   0.000  0.00  0.00    -0.133 F 
ENDBRANCH  26  27
ENDBRANCH  25  26
ENDBRANCH  17  22
TORSDOF 4
