REMARK  Name = 
REMARK  3 active torsions:
REMARK  status: ('A' for Active; 'I' for Inactive)
REMARK    1  A    between atoms: C_2  and  C_3
REMARK    2  A    between atoms: C_9  and  C_11
REMARK    3  A    between atoms: C_14  and  C_16
REMARK                            x       y       z     vdW  Elec       q    Type
REMARK                         _______ _______ _______ _____ _____    ______ ____
ROOT
ATOM     11  C   UNL     1       1.804  -2.027   0.000  0.00  0.00    +0.228 A 
ATOM     12  N   UNL     1       0.997  -1.856   0.000  0.00  0.00    -0.111 NA
ATOM     13  N   UNL     1       0.911  -1.035   0.000  0.00  0.00    -0.107 NA
ATOM     14  C   UNL     1       1.664  -0.700   0.000  0.00  0.00    +0.250 A 
ATOM     15  O   UNL     1       2.216  -1.313   0.000  0.00  0.00    -0.419 OA
ENDROOT
BRANCH  11   9
ATOM      1  O   UNL     1       4.462  -3.773   0.000  0.00  0.00    -0.275 OA
ATOM      2  C   UNL     1       3.747  -4.186   0.000  0.00  0.00    +0.225 C 
ATOM      6  N   UNL     1       3.033  -3.773   0.000  0.00  0.00    -0.279 N 
ATOM      7  C   UNL     1       2.279  -4.109   0.000  0.00  0.00    +0.094 C 
ATOM      8  C   UNL     1       1.727  -3.496   0.000  0.00  0.00    +0.033 C 
ATOM      9  C   UNL     1       2.139  -2.781   0.000  0.00  0.00    +0.100 C 
ATOM     10  C   UNL     1       2.946  -2.953   0.000  0.00  0.00    +0.103 C 
BRANCH   2   3
ATOM      3  C   UNL     1       3.747  -5.011   0.000  0.00  0.00    +0.077 C 
ATOM      4  C   UNL     1       4.160  -5.725   0.000  0.00  0.00    +0.010 C 
ATOM      5  C   UNL     1       3.334  -5.725   0.000  0.00  0.00    +0.010 C 
ENDBRANCH   2   3
ENDBRANCH  11   9
BRANCH  14  16
ATOM     16  C   UNL     1       1.836   0.107   0.000  0.00  0.00    +0.055 A 
ATOM     17  C   UNL     1       1.223   0.659   0.000  0.00  0.00    +0.005 A 
ATOM     18  C   UNL     1       1.394   1.466   0.000  0.00  0.00    +0.000 A 
ATOM     19  C   UNL     1       2.179   1.721   0.000  0.00  0.00    +0.000 A 
ATOM     20  C   UNL     1       2.792   1.169   0.000  0.00  0.00    +0.000 A 
ATOM     21  C   UNL     1       2.620   0.362   0.000  0.00  0.00    +0.005 A 
ENDBRANCH  14  16
TORSDOF 3
