REMARK  Name = 
REMARK  3 active torsions:
REMARK  status: ('A' for Active; 'I' for Inactive)
REMARK    1  A    between atoms: C_7  and  C_9
REMARK    2  A    between atoms: N_12  and  C_13
REMARK    3  A    between atoms: C_13  and  C_14
REMARK                            x       y       z     vdW  Elec       q    Type
REMARK                         _______ _______ _______ _____ _____    ______ ____
ROOT
ATOM      9  C   UNL     1       3.654   4.442   0.000  0.00  0.00    +0.094 C 
ATOM     10  C   UNL     1       4.479   4.442   0.000  0.00  0.00    +0.028 C 
ATOM     11  C   UNL     1       4.734   3.658   0.000  0.00  0.00    +0.073 C 
ATOM     12  N   UNL     1       4.067   3.173   0.000  0.00  0.00    -0.268 NA
ATOM     23  C   UNL     1       3.399   3.658   0.000  0.00  0.00    +0.082 C 
ENDROOT
BRANCH   9   7
ATOM      1  C   UNL     1       1.831   8.356   0.000  0.00  0.00    +0.031 C 
ATOM      2  C   UNL     1       1.917   7.535   0.000  0.00  0.00    -0.020 A 
ATOM      3  C   UNL     1       2.671   7.200   0.000  0.00  0.00    +0.018 A 
ATOM      4  C   UNL     1       2.757   6.380   0.000  0.00  0.00    +0.118 A 
ATOM      5  C   UNL     1       2.089   5.894   0.000  0.00  0.00    +0.164 A 
ATOM      6  O   UNL     1       2.344   5.110   0.000  0.00  0.00    -0.438 OA
ATOM      7  C   UNL     1       3.169   5.110   0.000  0.00  0.00    +0.207 A 
ATOM      8  N   UNL     1       3.424   5.894   0.000  0.00  0.00    -0.212 NA
ATOM     24  C   UNL     1       1.336   6.230   0.000  0.00  0.00    +0.039 A 
ATOM     25  C   UNL     1       1.250   7.051   0.000  0.00  0.00    -0.001 A 
ENDBRANCH   9   7
BRANCH  12  13
ATOM     13  C   UNL     1       4.067   2.348   0.000  0.00  0.00    +0.099 C 
BRANCH  13  14
ATOM     14  C   UNL     1       3.352   1.935   0.000  0.00  0.00    -0.003 A 
ATOM     15  C   UNL     1       3.352   1.110   0.000  0.00  0.00    +0.000 A 
ATOM     16  C   UNL     1       2.638   0.698   0.000  0.00  0.00    +0.040 A 
ATOM     17  C   UNL     1       1.923   1.110   0.000  0.00  0.00    +0.176 A 
ATOM     18  O   UNL     1       1.139   0.856   0.000  0.00  0.00    -0.435 OA
ATOM     19  C   UNL     1       0.654   1.523   0.000  0.00  0.00    +0.429 C 
ATOM     20  O   UNL     1       1.139   2.190   0.000  0.00  0.00    -0.435 OA
ATOM     21  C   UNL     1       1.923   1.935   0.000  0.00  0.00    +0.176 A 
ATOM     22  C   UNL     1       2.638   2.348   0.000  0.00  0.00    +0.037 A 
ENDBRANCH  13  14
ENDBRANCH  12  13
TORSDOF 3
