REMARK  Name = 
REMARK  6 active torsions:
REMARK  status: ('A' for Active; 'I' for Inactive)
REMARK    1  A    between atoms: O_2  and  C_3
REMARK    2  A    between atoms: C_3  and  C_4
REMARK    3  A    between atoms: C_10  and  C_13
REMARK    4  A    between atoms: C_16  and  C_18
REMARK    5  A    between atoms: N_22  and  C_23
REMARK    6  A    between atoms: C_23  and  C_24
REMARK                            x       y       z     vdW  Elec       q    Type
REMARK                         _______ _______ _______ _____ _____    ______ ____
ROOT
ATOM     13  C   UNL     1      -2.099   2.649   0.000  0.00  0.00    +0.205 A 
ATOM     14  N   UNL     1      -1.764   3.403   0.000  0.00  0.00    -0.056 NA
ATOM     15  O   UNL     1      -0.943   3.317   0.000  0.00  0.00    -0.336 OA
ATOM     16  C   UNL     1      -0.772   2.510   0.000  0.00  0.00    +0.251 A 
ATOM     17  N   UNL     1      -1.486   2.097   0.000  0.00  0.00    -0.190 NA
ENDROOT
BRANCH  13  10
ATOM      4  C   UNL     1      -5.582   1.179   0.000  0.00  0.00    +0.277 C 
ATOM      5  O   UNL     1      -5.030   0.566   0.000  0.00  0.00    -0.270 OA
ATOM      6  N   UNL     1      -5.327   1.963   0.000  0.00  0.00    -0.158 NA
ATOM      7  C   UNL     1      -4.520   2.135   0.000  0.00  0.00    +0.155 A 
ATOM      8  N   UNL     1      -4.265   2.919   0.000  0.00  0.00    -0.227 NA
ATOM      9  C   UNL     1      -3.458   3.091   0.000  0.00  0.00    +0.103 A 
ATOM     10  C   UNL     1      -2.906   2.478   0.000  0.00  0.00    +0.058 A 
ATOM     11  C   UNL     1      -3.161   1.693   0.000  0.00  0.00    +0.008 A 
ATOM     12  C   UNL     1      -3.968   1.522   0.000  0.00  0.00    +0.036 A 
BRANCH   4   3
ATOM      3  C   UNL     1      -6.389   1.007   0.000  0.00  0.00    +0.229 C 
BRANCH   3   2
ATOM      1  C   UNL     1      -7.451   0.051   0.000  0.00  0.00    +0.175 C 
ATOM      2  O   UNL     1      -6.644   0.222   0.000  0.00  0.00    -0.342 OA
ENDBRANCH   3   2
ENDBRANCH   4   3
ENDBRANCH  13  10
BRANCH  16  18
ATOM     18  C   UNL     1      -0.018   2.174   0.000  0.00  0.00    +0.138 C 
ATOM     19  C   UNL     1       0.697   2.587   0.000  0.00  0.00    +0.027 C 
ATOM     20  C   UNL     1       1.310   2.035   0.000  0.00  0.00    +0.019 C 
ATOM     21  C   UNL     1       0.974   1.281   0.000  0.00  0.00    +0.073 C 
ATOM     22  N   UNL     1       0.154   1.367   0.000  0.00  0.00    -0.263 NA
BRANCH  22  23
ATOM     23  C   UNL     1      -0.398   0.754   0.000  0.00  0.00    +0.101 C 
BRANCH  23  24
ATOM     24  C   UNL     1      -0.143  -0.030   0.000  0.00  0.00    +0.012 A 
ATOM     25  C   UNL     1      -0.628  -0.698   0.000  0.00  0.00    +0.073 A 
ATOM     26  N   UNL     1      -0.143  -1.365   0.000  0.00  0.00    -0.324 N 
ATOM     27  C   UNL     1      -0.398  -2.150   0.000  0.00  0.00    +0.130 C 
ATOM     28  C   UNL     1       0.641  -1.110   0.000  0.00  0.00    +0.060 A 
ATOM     29  C   UNL     1       0.641  -0.285   0.000  0.00  0.00    +0.015 A 
ATOM     30  C   UNL     1       1.356   0.127   0.000  0.00  0.00    +0.001 A 
ATOM     31  C   UNL     1       2.070  -0.285   0.000  0.00  0.00    +0.000 A 
ATOM     32  C   UNL     1       2.070  -1.110   0.000  0.00  0.00    +0.001 A 
ATOM     33  C   UNL     1       1.356  -1.523   0.000  0.00  0.00    +0.017 A 
ENDBRANCH  23  24
ENDBRANCH  22  23
ENDBRANCH  16  18
TORSDOF 6
