REMARK  Name = 
REMARK  5 active torsions:
REMARK  status: ('A' for Active; 'I' for Inactive)
REMARK    1  A    between atoms: O_2  and  C_3
REMARK    2  A    between atoms: C_5  and  C_13
REMARK    3  A    between atoms: C_7  and  O_8
REMARK    4  A    between atoms: C_10  and  O_11
REMARK    5  A    between atoms: N_15  and  C_16
REMARK                            x       y       z     vdW  Elec       q    Type
REMARK                         _______ _______ _______ _____ _____    ______ ____
ROOT
ATOM      3  C   UNL     1      -1.109  -3.619   0.000  0.00  0.00    +0.176 A 
ATOM      4  C   UNL     1      -0.854  -2.835   0.000  0.00  0.00    +0.045 A 
ATOM      5  C   UNL     1      -0.047  -2.663   0.000  0.00  0.00    +0.061 A 
ATOM      6  C   UNL     1       0.505  -3.276   0.000  0.00  0.00    +0.045 A 
ATOM      7  C   UNL     1       0.250  -4.061   0.000  0.00  0.00    +0.176 A 
ATOM     10  C   UNL     1      -0.557  -4.232   0.000  0.00  0.00    +0.206 A 
ENDROOT
BRANCH   5  13
ATOM     13  C   UNL     1       0.208  -1.879   0.000  0.00  0.00    +0.265 C 
ATOM     14  O   UNL     1      -0.344  -1.265   0.000  0.00  0.00    -0.268 OA
ATOM     15  N   UNL     1       1.015  -1.707   0.000  0.00  0.00    -0.198 NA
BRANCH  15  16
ATOM     16  C   UNL     1       1.270  -0.922   0.000  0.00  0.00    +0.155 C 
ATOM     17  C   UNL     1       0.785  -0.255   0.000  0.00  0.00    +0.166 C 
ATOM     18  O   UNL     1       1.270   0.412   0.000  0.00  0.00    -0.349 OA
ATOM     19  C   UNL     1       2.054   0.158   0.000  0.00  0.00    +0.177 C 
ATOM     20  C   UNL     1       2.839   0.412   0.000  0.00  0.00    +0.211 C 
ATOM     21  O   UNL     1       3.094   1.197   0.000  0.00  0.00    -0.218 OA
ATOM     22  C   UNL     1       3.324  -0.255   0.000  0.00  0.00    +0.178 C 
ATOM     23  O   UNL     1       2.839  -0.922   0.000  0.00  0.00    -0.349 OA
ATOM     24  C   UNL     1       2.054  -0.667   0.000  0.00  0.00    +0.167 C 
ENDBRANCH  15  16
ENDBRANCH   5  13
BRANCH   3   2
ATOM      1  C   UNL     1      -2.171  -4.575   0.000  0.00  0.00    +0.253 C 
ATOM      2  O   UNL     1      -1.916  -3.791   0.000  0.00  0.00    -0.468 OA
ENDBRANCH   3   2
BRANCH   7   8
ATOM      8  O   UNL     1       0.802  -4.674   0.000  0.00  0.00    -0.468 OA
ATOM      9  C   UNL     1       0.547  -5.459   0.000  0.00  0.00    +0.253 C 
ENDBRANCH   7   8
BRANCH  10  11
ATOM     11  O   UNL     1      -0.812  -5.017   0.000  0.00  0.00    -0.465 OA
ATOM     12  C   UNL     1      -0.260  -5.630   0.000  0.00  0.00    +0.253 C 
ENDBRANCH  10  11
TORSDOF 5
