REMARK  Name = 
REMARK  9 active torsions:
REMARK  status: ('A' for Active; 'I' for Inactive)
REMARK    1  A    between atoms: C_2  and  C_3
REMARK    2  A    between atoms: C_3  and  C_4
REMARK    3  A    between atoms: C_9  and  C_10
REMARK    4  A    between atoms: C_10  and  C_11
REMARK    5  A    between atoms: C_14  and  C_15
REMARK    6  A    between atoms: C_15  and  S_16
REMARK    7  A    between atoms: S_16  and  C_17
REMARK    8  A    between atoms: N_24  and  C_25
REMARK    9  A    between atoms: C_25  and  C_26
REMARK                            x       y       z     vdW  Elec       q    Type
REMARK                         _______ _______ _______ _____ _____    ______ ____
ROOT
ATOM      4  C   UNL     1       4.067   4.823   0.000  0.00  0.00    +0.012 C 
ATOM      5  C   UNL     1       3.352   4.410   0.000  0.00  0.00    +0.019 C 
ATOM      6  C   UNL     1       2.638   4.823   0.000  0.00  0.00    +0.089 C 
ATOM      7  N   UNL     1       2.638   5.648   0.000  0.00  0.00    -0.218 NA
ATOM      8  C   UNL     1       3.352   6.060   0.000  0.00  0.00    +0.089 C 
ATOM      9  C   UNL     1       4.067   5.648   0.000  0.00  0.00    +0.024 C 
ENDROOT
BRANCH   4   3
ATOM      3  C   UNL     1       4.781   4.410   0.000  0.00  0.00    +0.087 C 
BRANCH   3   2
ATOM      1  O   UNL     1       5.496   3.173   0.000  0.00  0.00    -0.273 OA
ATOM      2  C   UNL     1       4.781   3.585   0.000  0.00  0.00    +0.242 C 
ATOM     24  N   UNL     1       4.067   3.173   0.000  0.00  0.00    -0.201 NA
BRANCH  24  25
ATOM     25  C   UNL     1       4.067   2.348   0.000  0.00  0.00    +0.142 C 
BRANCH  25  26
ATOM     26  C   UNL     1       3.352   1.935   0.000  0.00  0.00    +0.003 A 
ATOM     27  C   UNL     1       3.352   1.110   0.000  0.00  0.00    +0.001 A 
ATOM     28  C   UNL     1       2.638   0.698   0.000  0.00  0.00    +0.040 A 
ATOM     29  C   UNL     1       1.923   1.110   0.000  0.00  0.00    +0.176 A 
ATOM     30  O   UNL     1       1.139   0.856   0.000  0.00  0.00    -0.435 OA
ATOM     31  C   UNL     1       0.654   1.523   0.000  0.00  0.00    +0.429 C 
ATOM     32  O   UNL     1       1.139   2.190   0.000  0.00  0.00    -0.435 OA
ATOM     33  C   UNL     1       1.923   1.935   0.000  0.00  0.00    +0.176 A 
ATOM     34  C   UNL     1       2.638   2.348   0.000  0.00  0.00    +0.038 A 
ENDBRANCH  25  26
ENDBRANCH  24  25
ENDBRANCH   3   2
ENDBRANCH   4   3
BRANCH   9  10
ATOM     10  C   UNL     1       4.781   6.060   0.000  0.00  0.00    +0.051 C 
BRANCH  10  11
ATOM     11  C   UNL     1       4.781   6.885   0.000  0.00  0.00    +0.100 A 
ATOM     12  N   UNL     1       4.114   7.370   0.000  0.00  0.00    -0.082 NA
ATOM     13  O   UNL     1       4.369   8.155   0.000  0.00  0.00    -0.357 OA
ATOM     14  C   UNL     1       5.194   8.155   0.000  0.00  0.00    +0.165 A 
ATOM     23  C   UNL     1       5.449   7.370   0.000  0.00  0.00    +0.054 A 
BRANCH  14  15
ATOM     15  C   UNL     1       5.679   8.822   0.000  0.00  0.00    +0.129 C 
BRANCH  15  16
ATOM     16  S   UNL     1       5.343   9.576   0.000  0.00  0.00    -0.105 S 
BRANCH  16  17
ATOM     17  C   UNL     1       5.828  10.243   0.000  0.00  0.00    +0.026 A 
ATOM     18  C   UNL     1       5.492  10.997   0.000  0.00  0.00    +0.006 A 
ATOM     19  C   UNL     1       5.977  11.665   0.000  0.00  0.00    +0.001 A 
ATOM     20  C   UNL     1       6.798  11.578   0.000  0.00  0.00    +0.000 A 
ATOM     21  C   UNL     1       7.133  10.825   0.000  0.00  0.00    +0.001 A 
ATOM     22  C   UNL     1       6.649  10.157   0.000  0.00  0.00    +0.006 A 
ENDBRANCH  16  17
ENDBRANCH  15  16
ENDBRANCH  14  15
ENDBRANCH  10  11
ENDBRANCH   9  10
TORSDOF 9
