REMARK  Name = 
REMARK  3 active torsions:
REMARK  status: ('A' for Active; 'I' for Inactive)
REMARK    1  A    between atoms: C_7  and  C_9
REMARK    2  A    between atoms: N_12  and  C_13
REMARK    3  A    between atoms: C_13  and  C_14
REMARK                            x       y       z     vdW  Elec       q    Type
REMARK                         _______ _______ _______ _____ _____    ______ ____
ROOT
ATOM      9  C   UNL     1      -2.143  -2.718   0.000  0.00  0.00    +0.094 C 
ATOM     10  C   UNL     1      -2.858  -2.306   0.000  0.00  0.00    +0.028 C 
ATOM     11  C   UNL     1      -2.686  -1.499   0.000  0.00  0.00    +0.073 C 
ATOM     12  N   UNL     1      -1.866  -1.412   0.000  0.00  0.00    -0.266 NA
ATOM     23  C   UNL     1      -1.530  -2.166   0.000  0.00  0.00    +0.082 C 
ENDROOT
BRANCH   9   7
ATOM      1  C   UNL     1      -2.521  -7.019   0.000  0.00  0.00    +0.031 C 
ATOM      2  C   UNL     1      -2.185  -6.265   0.000  0.00  0.00    -0.020 A 
ATOM      3  C   UNL     1      -2.670  -5.598   0.000  0.00  0.00    +0.018 A 
ATOM      4  C   UNL     1      -2.335  -4.844   0.000  0.00  0.00    +0.118 A 
ATOM      5  C   UNL     1      -1.514  -4.758   0.000  0.00  0.00    +0.164 A 
ATOM      6  O   UNL     1      -1.343  -3.951   0.000  0.00  0.00    -0.438 OA
ATOM      7  C   UNL     1      -2.057  -3.539   0.000  0.00  0.00    +0.207 A 
ATOM      8  N   UNL     1      -2.670  -4.091   0.000  0.00  0.00    -0.212 NA
ATOM     24  C   UNL     1      -1.029  -5.426   0.000  0.00  0.00    +0.039 A 
ATOM     25  C   UNL     1      -1.365  -6.179   0.000  0.00  0.00    -0.001 A 
ENDBRANCH   9   7
BRANCH  12  13
ATOM     13  C   UNL     1      -1.453  -0.698   0.000  0.00  0.00    +0.138 C 
BRANCH  13  14
ATOM     14  C   UNL     1      -0.628  -0.698   0.000  0.00  0.00    +0.139 A 
ATOM     15  C   UNL     1      -0.143  -1.365   0.000  0.00  0.00    +0.037 A 
ATOM     16  C   UNL     1       0.641  -1.110   0.000  0.00  0.00    +0.037 A 
ATOM     17  C   UNL     1       0.641  -0.285   0.000  0.00  0.00    +0.145 A 
ATOM     18  O   UNL     1      -0.143  -0.030   0.000  0.00  0.00    -0.456 OA
ATOM     19  C   UNL     1       1.356   0.127   0.000  0.00  0.00    +0.037 A 
ATOM     20  C   UNL     1       2.070  -0.285   0.000  0.00  0.00    +0.003 A 
ATOM     21  C   UNL     1       2.070  -1.110   0.000  0.00  0.00    +0.000 A 
ATOM     22  C   UNL     1       1.356  -1.523   0.000  0.00  0.00    +0.003 A 
ENDBRANCH  13  14
ENDBRANCH  12  13
TORSDOF 3
