REMARK  Name = 
REMARK  5 active torsions:
REMARK  status: ('A' for Active; 'I' for Inactive)
REMARK    1  A    between atoms: C_3  and  C_11
REMARK    2  A    between atoms: C_16  and  C_18
REMARK    3  A    between atoms: C_18  and  O_19
REMARK    4  A    between atoms: O_19  and  C_20
REMARK    5  A    between atoms: C_20  and  C_21
REMARK                            x       y       z     vdW  Elec       q    Type
REMARK                         _______ _______ _______ _____ _____    ______ ____
ROOT
ATOM     11  C   UNL     1      -4.456  -2.559   0.000  0.00  0.00    +0.078 C 
ATOM     12  C   UNL     1      -4.043  -1.844   0.000  0.00  0.00    +0.031 C 
ATOM     13  C   UNL     1      -3.236  -2.016   0.000  0.00  0.00    +0.094 C 
ATOM     14  N   UNL     1      -3.150  -2.836   0.000  0.00  0.00    -0.277 N 
ATOM     15  C   UNL     1      -3.904  -3.172   0.000  0.00  0.00    +0.101 C 
ATOM     16  C   UNL     1      -2.436  -3.249   0.000  0.00  0.00    +0.256 C 
ATOM     17  O   UNL     1      -2.436  -4.074   0.000  0.00  0.00    -0.272 OA
ENDROOT
BRANCH  11   3
ATOM      1  C   UNL     1      -5.353  -4.113   0.000  0.00  0.00    +0.132 C 
ATOM      2  N   UNL     1      -5.689  -3.360   0.000  0.00  0.00    -0.313 N 
ATOM      3  C   UNL     1      -5.276  -2.645   0.000  0.00  0.00    +0.122 A 
ATOM      4  N   UNL     1      -5.828  -2.032   0.000  0.00  0.00    -0.231 NA
ATOM      5  C   UNL     1      -6.582  -2.368   0.000  0.00  0.00    +0.098 A 
ATOM      6  C   UNL     1      -6.496  -3.188   0.000  0.00  0.00    +0.079 A 
ATOM      7  C   UNL     1      -7.163  -3.673   0.000  0.00  0.00    +0.019 A 
ATOM      8  C   UNL     1      -7.917  -3.337   0.000  0.00  0.00    +0.002 A 
ATOM      9  C   UNL     1      -8.003  -2.517   0.000  0.00  0.00    +0.002 A 
ATOM     10  C   UNL     1      -7.336  -2.032   0.000  0.00  0.00    +0.021 A 
ENDBRANCH  11   3
BRANCH  16  18
ATOM     18  C   UNL     1      -1.721  -2.836   0.000  0.00  0.00    +0.228 C 
BRANCH  18  19
ATOM     19  O   UNL     1      -1.007  -3.249   0.000  0.00  0.00    -0.333 OA
BRANCH  19  20
ATOM     20  C   UNL     1      -0.292  -2.836   0.000  0.00  0.00    +0.257 C 
BRANCH  20  21
ATOM     21  C   UNL     1       0.422  -3.249   0.000  0.00  0.00    +0.394 C 
ATOM     22  O   UNL     1       1.137  -2.836   0.000  0.00  0.00    -0.243 OA
ATOM     23  O   UNL     1       0.422  -4.074   0.000  0.00  0.00    -0.243 OA
ENDBRANCH  20  21
ENDBRANCH  19  20
ENDBRANCH  18  19
ENDBRANCH  16  18
TORSDOF 5
