REMARK  Name = 
REMARK  7 active torsions:
REMARK  status: ('A' for Active; 'I' for Inactive)
REMARK    1  A    between atoms: C_2  and  N_4
REMARK    2  A    between atoms: C_5  and  C_7
REMARK    3  A    between atoms: C_7  and  C_8
REMARK    4  A    between atoms: C_13  and  C_14
REMARK    5  A    between atoms: C_14  and  C_15
REMARK    6  A    between atoms: C_18  and  C_20
REMARK    7  A    between atoms: C_23  and  C_26
REMARK                            x       y       z     vdW  Elec       q    Type
REMARK                         _______ _______ _______ _____ _____    ______ ____
ROOT
ATOM     15  C   UNL     1       7.460  -6.328   0.000  0.00  0.00    +0.101 A 
ATOM     16  N   UNL     1       8.213  -5.992   0.000  0.00  0.00    -0.081 NA
ATOM     17  O   UNL     1       8.765  -6.606   0.000  0.00  0.00    -0.354 OA
ATOM     18  C   UNL     1       8.353  -7.320   0.000  0.00  0.00    +0.177 A 
ATOM     19  C   UNL     1       7.546  -7.149   0.000  0.00  0.00    +0.058 A 
ENDROOT
BRANCH  18  20
ATOM     20  C   UNL     1       8.688  -8.074   0.000  0.00  0.00    +0.037 A 
ATOM     21  C   UNL     1       9.509  -8.160   0.000  0.00  0.00    +0.003 A 
ATOM     22  C   UNL     1       9.844  -8.914   0.000  0.00  0.00    -0.004 A 
ATOM     23  C   UNL     1       9.359  -9.581   0.000  0.00  0.00    -0.023 A 
ATOM     24  C   UNL     1       8.539  -9.495   0.000  0.00  0.00    -0.004 A 
ATOM     25  C   UNL     1       8.203  -8.741   0.000  0.00  0.00    +0.003 A 
BRANCH  23  26
ATOM     26  C   UNL     1       9.695 -10.335   0.000  0.00  0.00    +0.019 C 
ATOM     27  C   UNL     1      10.030 -11.088   0.000  0.00  0.00    +0.004 C 
ATOM     28  C   UNL     1       8.941 -10.670   0.000  0.00  0.00    +0.004 C 
ATOM     29  C   UNL     1      10.449  -9.999   0.000  0.00  0.00    +0.004 C 
ENDBRANCH  23  26
ENDBRANCH  18  20
BRANCH  15  14
ATOM     14  C   UNL     1       6.745  -5.916   0.000  0.00  0.00    +0.051 C 
BRANCH  14  13
ATOM      8  C   UNL     1       6.031  -4.678   0.000  0.00  0.00    +0.012 C 
ATOM      9  C   UNL     1       6.031  -3.853   0.000  0.00  0.00    +0.019 C 
ATOM     10  C   UNL     1       6.745  -3.441   0.000  0.00  0.00    +0.089 C 
ATOM     11  N   UNL     1       7.460  -3.853   0.000  0.00  0.00    -0.218 NA
ATOM     12  C   UNL     1       7.460  -4.678   0.000  0.00  0.00    +0.089 C 
ATOM     13  C   UNL     1       6.745  -5.091   0.000  0.00  0.00    +0.024 C 
BRANCH   8   7
ATOM      7  C   UNL     1       5.316  -5.091   0.000  0.00  0.00    +0.087 C 
BRANCH   7   5
ATOM      4  N   UNL     1       3.887  -5.091   0.000  0.00  0.00    -0.207 NA
ATOM      5  C   UNL     1       4.602  -4.678   0.000  0.00  0.00    +0.241 C 
ATOM      6  O   UNL     1       4.602  -3.853   0.000  0.00  0.00    -0.273 OA
BRANCH   4   2
ATOM      1  C   UNL     1       2.458  -5.091   0.000  0.00  0.00    +0.023 C 
ATOM      2  C   UNL     1       3.173  -4.678   0.000  0.00  0.00    +0.095 C 
ATOM      3  C   UNL     1       3.173  -3.853   0.000  0.00  0.00    +0.023 C 
ENDBRANCH   4   2
ENDBRANCH   7   5
ENDBRANCH   8   7
ENDBRANCH  14  13
ENDBRANCH  15  14
TORSDOF 7
