REMARK  Name = 
REMARK  7 active torsions:
REMARK  status: ('A' for Active; 'I' for Inactive)
REMARK    1  A    between atoms: C_5  and  C_6
REMARK    2  A    between atoms: C_6  and  C_7
REMARK    3  A    between atoms: N_9  and  C_10
REMARK    4  A    between atoms: C_14  and  C_15
REMARK    5  A    between atoms: C_15  and  N_16
REMARK    6  A    between atoms: N_16  and  C_17
REMARK    7  A    between atoms: C_17  and  C_18
REMARK                            x       y       z     vdW  Elec       q    Type
REMARK                         _______ _______ _______ _____ _____    ______ ____
ROOT
ATOM      1  O   UNL     1       9.377  -2.466   0.000  0.00  0.00    -0.218 OA
ATOM      2  C   UNL     1       8.557  -2.380   0.000  0.00  0.00    +0.213 C 
ATOM      3  C   UNL     1       8.005  -2.993   0.000  0.00  0.00    +0.212 C 
ATOM      4  O   UNL     1       8.177  -3.800   0.000  0.00  0.00    -0.218 OA
ATOM      5  C   UNL     1       7.251  -2.658   0.000  0.00  0.00    +0.157 C 
ATOM     13  O   UNL     1       7.338  -1.837   0.000  0.00  0.00    -0.351 OA
ATOM     14  C   UNL     1       8.145  -1.666   0.000  0.00  0.00    +0.165 C 
ENDROOT
BRANCH   5   6
ATOM      6  C   UNL     1       6.537  -3.070   0.000  0.00  0.00    +0.119 C 
BRANCH   6   7
ATOM      7  C   UNL     1       6.537  -3.895   0.000  0.00  0.00    +0.244 C 
ATOM      8  O   UNL     1       7.251  -4.308   0.000  0.00  0.00    -0.273 OA
ATOM      9  N   UNL     1       5.822  -4.308   0.000  0.00  0.00    -0.207 NA
BRANCH   9  10
ATOM     10  C   UNL     1       5.822  -5.133   0.000  0.00  0.00    +0.095 C 
ATOM     11  C   UNL     1       6.235  -5.847   0.000  0.00  0.00    +0.023 C 
ATOM     12  C   UNL     1       5.410  -5.847   0.000  0.00  0.00    +0.023 C 
ENDBRANCH   9  10
ENDBRANCH   6   7
ENDBRANCH   5   6
BRANCH  14  15
ATOM     15  C   UNL     1       8.480  -0.912   0.000  0.00  0.00    +0.121 C 
BRANCH  15  16
ATOM     16  N   UNL     1       9.301  -0.826   0.000  0.00  0.00    -0.211 NA
BRANCH  16  17
ATOM     17  C   UNL     1       9.636  -0.072   0.000  0.00  0.00    +0.115 C 
BRANCH  17  18
ATOM     18  C   UNL     1      10.457   0.014   0.000  0.00  0.00    -0.005 A 
ATOM     19  C   UNL     1      10.792   0.768   0.000  0.00  0.00    -0.001 A 
ATOM     20  C   UNL     1      11.613   0.854   0.000  0.00  0.00    +0.029 A 
ATOM     21  C   UNL     1      12.098   0.186   0.000  0.00  0.00    +0.140 A 
ATOM     22  F   UNL     1      12.918   0.273   0.000  0.00  0.00    -0.204 F 
ATOM     23  C   UNL     1      11.762  -0.567   0.000  0.00  0.00    +0.029 A 
ATOM     24  C   UNL     1      10.942  -0.653   0.000  0.00  0.00    -0.001 A 
ENDBRANCH  17  18
ENDBRANCH  16  17
ENDBRANCH  15  16
ENDBRANCH  14  15
TORSDOF 7
