REMARK  Name = 
REMARK  3 active torsions:
REMARK  status: ('A' for Active; 'I' for Inactive)
REMARK    1  A    between atoms: C_2  and  C_19
REMARK    2  A    between atoms: C_6  and  C_8
REMARK    3  A    between atoms: C_11  and  C_13
REMARK                            x       y       z     vdW  Elec       q    Type
REMARK                         _______ _______ _______ _____ _____    ______ ____
ROOT
ATOM      1  O   UNL     1       1.322  -0.062   0.000  0.00  0.00    -0.270 OA
ATOM      2  C   UNL     1       2.037  -0.474   0.000  0.00  0.00    +0.251 C 
ATOM      3  N   UNL     1       2.037  -1.299   0.000  0.00  0.00    -0.276 N 
ATOM      4  C   UNL     1       2.704  -1.784   0.000  0.00  0.00    +0.094 C 
ATOM      5  C   UNL     1       2.449  -2.569   0.000  0.00  0.00    +0.033 C 
ATOM      6  C   UNL     1       1.624  -2.569   0.000  0.00  0.00    +0.100 C 
ATOM      7  C   UNL     1       1.369  -1.784   0.000  0.00  0.00    +0.103 C 
ENDROOT
BRANCH   2  19
ATOM     19  C   UNL     1       2.751  -0.062   0.000  0.00  0.00    +0.073 A 
ATOM     20  C   UNL     1       2.751   0.763   0.000  0.00  0.00    +0.008 A 
ATOM     21  C   UNL     1       3.466   1.176   0.000  0.00  0.00    +0.021 A 
ATOM     22  C   UNL     1       4.180   0.763   0.000  0.00  0.00    +0.099 A 
ATOM     23  N   UNL     1       4.180  -0.062   0.000  0.00  0.00    -0.242 NA
ATOM     24  C   UNL     1       3.466  -0.474   0.000  0.00  0.00    +0.103 A 
ENDBRANCH   2  19
BRANCH   6   8
ATOM      8  C   UNL     1       1.139  -3.236   0.000  0.00  0.00    +0.228 A 
ATOM      9  N   UNL     1       1.394  -4.021   0.000  0.00  0.00    -0.111 NA
ATOM     10  N   UNL     1       0.727  -4.506   0.000  0.00  0.00    -0.107 NA
ATOM     11  C   UNL     1       0.059  -4.021   0.000  0.00  0.00    +0.250 A 
ATOM     12  O   UNL     1       0.314  -3.236   0.000  0.00  0.00    -0.419 OA
BRANCH  11  13
ATOM     13  C   UNL     1      -0.725  -4.276   0.000  0.00  0.00    +0.058 A 
ATOM     14  C   UNL     1      -0.897  -5.083   0.000  0.00  0.00    +0.025 A 
ATOM     15  C   UNL     1      -1.681  -5.338   0.000  0.00  0.00    +0.099 A 
ATOM     16  N   UNL     1      -2.295  -4.785   0.000  0.00  0.00    -0.242 NA
ATOM     17  C   UNL     1      -2.123  -3.979   0.000  0.00  0.00    +0.099 A 
ATOM     18  C   UNL     1      -1.338  -3.724   0.000  0.00  0.00    +0.025 A 
ENDBRANCH  11  13
ENDBRANCH   6   8
TORSDOF 3
