REMARK  Name = 
REMARK  6 active torsions:
REMARK  status: ('A' for Active; 'I' for Inactive)
REMARK    1  A    between atoms: O_2  and  C_3
REMARK    2  A    between atoms: C_4  and  C_10
REMARK    3  A    between atoms: C_18  and  N_24
REMARK    4  A    between atoms: C_25  and  C_27
REMARK    5  A    between atoms: C_27  and  C_28
REMARK    6  A    between atoms: C_28  and  C_29
REMARK                            x       y       z     vdW  Elec       q    Type
REMARK                         _______ _______ _______ _____ _____    ______ ____
ROOT
ATOM     10  C   UNL     1      -0.787  -1.301   0.000  0.00  0.00    +0.003 A 
ATOM     11  C   UNL     1       0.015  -1.105   0.000  0.00  0.00    +0.006 A 
ATOM     12  C   UNL     1       0.246  -0.314   0.000  0.00  0.00    +0.069 A 
ATOM     13  C   UNL     1      -0.324   0.283   0.000  0.00  0.00    +0.078 A 
ATOM     14  N   UNL     1      -0.213   1.100   0.000  0.00  0.00    -0.178 NA
ATOM     15  C   UNL     1       0.495   1.523   0.000  0.00  0.00    +0.265 C 
ATOM     16  O   UNL     1       0.421   2.345   0.000  0.00  0.00    -0.271 OA
ATOM     17  C   UNL     1       1.268   1.234   0.000  0.00  0.00    +0.174 C 
ATOM     18  C   UNL     1       1.935   1.718   0.000  0.00  0.00    +0.124 C 
ATOM     19  C   UNL     1       2.602   1.234   0.000  0.00  0.00    +0.045 C 
ATOM     20  C   UNL     1       2.347   0.449   0.000  0.00  0.00    +0.096 C 
ATOM     21  N   UNL     1       1.522   0.449   0.000  0.00  0.00    -0.268 N 
ATOM     22  C   UNL     1       1.068  -0.240   0.000  0.00  0.00    +0.251 C 
ATOM     23  O   UNL     1       1.491  -0.948   0.000  0.00  0.00    -0.270 OA
ATOM     32  C   UNL     1      -1.125   0.087   0.000  0.00  0.00    +0.017 A 
ATOM     33  C   UNL     1      -1.357  -0.705   0.000  0.00  0.00    +0.001 A 
ENDROOT
BRANCH  10   4
ATOM      3  C   UNL     1      -0.448  -2.689   0.000  0.00  0.00    +0.139 A 
ATOM      4  C   UNL     1      -1.018  -2.093   0.000  0.00  0.00    +0.035 A 
ATOM      5  C   UNL     1      -1.819  -2.288   0.000  0.00  0.00    +0.014 A 
ATOM      6  C   UNL     1      -2.051  -3.080   0.000  0.00  0.00    +0.058 A 
ATOM      7 CL   UNL     1      -2.852  -3.276   0.000  0.00  0.00    -0.082 Cl
ATOM      8  C   UNL     1      -1.481  -3.677   0.000  0.00  0.00    +0.015 A 
ATOM      9  C   UNL     1      -0.679  -3.481   0.000  0.00  0.00    +0.038 A 
BRANCH   3   2
ATOM      1  C   UNL     1       0.924  -3.090   0.000  0.00  0.00    +0.252 C 
ATOM      2  O   UNL     1       0.354  -2.494   0.000  0.00  0.00    -0.471 OA
ENDBRANCH   3   2
ENDBRANCH  10   4
BRANCH  18  24
ATOM     24  N   UNL     1       1.935   2.543   0.000  0.00  0.00    -0.205 NA
ATOM     25  C   UNL     1       2.649   2.956   0.000  0.00  0.00    +0.242 C 
ATOM     26  O   UNL     1       2.649   3.781   0.000  0.00  0.00    -0.273 OA
BRANCH  25  27
ATOM     27  C   UNL     1       3.364   2.543   0.000  0.00  0.00    +0.099 C 
BRANCH  27  28
ATOM     28  C   UNL     1       4.078   2.956   0.000  0.00  0.00    +0.124 C 
BRANCH  28  29
ATOM     29  C   UNL     1       4.793   2.543   0.000  0.00  0.00    +0.365 C 
ATOM     30  O   UNL     1       5.507   2.956   0.000  0.00  0.00    -0.246 OA
ATOM     31  O   UNL     1       4.793   1.718   0.000  0.00  0.00    -0.246 OA
ENDBRANCH  28  29
ENDBRANCH  27  28
ENDBRANCH  25  27
ENDBRANCH  18  24
TORSDOF 6
