REMARK  Name = 
REMARK  7 active torsions:
REMARK  status: ('A' for Active; 'I' for Inactive)
REMARK    1  A    between atoms: C_3  and  C_4
REMARK    2  A    between atoms: C_4  and  N_5
REMARK    3  A    between atoms: C_9  and  C_22
REMARK    4  A    between atoms: C_11  and  C_12
REMARK    5  A    between atoms: C_12  and  C_13
REMARK    6  A    between atoms: N_24  and  C_25
REMARK    7  A    between atoms: C_25  and  C_26
REMARK                            x       y       z     vdW  Elec       q    Type
REMARK                         _______ _______ _______ _____ _____    ______ ____
ROOT
ATOM      5  N   UNL     1      -5.901   3.506   0.000  0.00  0.00    -0.315 N 
ATOM      6  C   UNL     1      -5.206   3.950   0.000  0.00  0.00    +0.072 A 
ATOM      7  C   UNL     1      -4.569   3.426   0.000  0.00  0.00    -0.002 A 
ATOM      8  C   UNL     1      -3.781   3.670   0.000  0.00  0.00    +0.055 C 
ATOM      9  C   UNL     1      -3.099   3.205   0.000  0.00  0.00    +0.155 C 
ATOM     10  N   UNL     1      -3.037   2.382   0.000  0.00  0.00    -0.207 NA
ATOM     11  C   UNL     1      -3.642   1.821   0.000  0.00  0.00    +0.095 C 
ATOM     16  C   UNL     1      -4.458   1.944   0.000  0.00  0.00    -0.005 A 
ATOM     17  C   UNL     1      -4.956   1.232   0.000  0.00  0.00    -0.003 A 
ATOM     18  C   UNL     1      -5.779   1.282   0.000  0.00  0.00    +0.001 A 
ATOM     19  C   UNL     1      -6.148   2.019   0.000  0.00  0.00    +0.017 A 
ATOM     20  C   UNL     1      -5.694   2.708   0.000  0.00  0.00    +0.060 A 
ATOM     21  C   UNL     1      -4.870   2.659   0.000  0.00  0.00    +0.011 A 
ENDROOT
BRANCH   9  22
ATOM     22  C   UNL     1      -2.385   3.617   0.000  0.00  0.00    +0.258 C 
ATOM     23  O   UNL     1      -2.385   4.442   0.000  0.00  0.00    -0.272 OA
ATOM     24  N   UNL     1      -1.670   3.205   0.000  0.00  0.00    -0.199 NA
BRANCH  24  25
ATOM     25  C   UNL     1      -0.956   3.617   0.000  0.00  0.00    +0.141 C 
BRANCH  25  26
ATOM     26  C   UNL     1      -0.241   3.205   0.000  0.00  0.00    -0.003 C 
ATOM     27  C   UNL     1       0.473   3.617   0.000  0.00  0.00    -0.003 C 
ENDBRANCH  25  26
ENDBRANCH  24  25
ENDBRANCH   9  22
BRANCH   5   4
ATOM      4  C   UNL     1      -6.669   3.808   0.000  0.00  0.00    +0.183 C 
BRANCH   4   3
ATOM      1  C   UNL     1      -8.604   2.265   0.000  0.00  0.00    +0.090 C 
ATOM      2  C   UNL     1      -7.959   2.779   0.000  0.00  0.00    -0.088 C 
ATOM      3  C   UNL     1      -7.314   3.293   0.000  0.00  0.00    -0.066 C 
ENDBRANCH   4   3
ENDBRANCH   5   4
BRANCH  11  12
ATOM     12  C   UNL     1      -3.399   1.033   0.000  0.00  0.00    +0.022 C 
BRANCH  12  13
ATOM     13  C   UNL     1      -2.595   0.849   0.000  0.00  0.00    +0.002 C 
ATOM     14  C   UNL     1      -2.033   1.454   0.000  0.00  0.00    +0.000 C 
ATOM     15  C   UNL     1      -2.351   0.061   0.000  0.00  0.00    +0.000 C 
ENDBRANCH  12  13
ENDBRANCH  11  12
TORSDOF 7
