REMARK  Name = 
REMARK  3 active torsions:
REMARK  status: ('A' for Active; 'I' for Inactive)
REMARK    1  A    between atoms: C_4  and  C_20
REMARK    2  A    between atoms: C_5  and  N_6
REMARK    3  A    between atoms: C_7  and  C_9
REMARK                            x       y       z     vdW  Elec       q    Type
REMARK                         _______ _______ _______ _____ _____    ______ ____
ROOT
ATOM      1  O   UNL     1      -4.628  -0.881   0.000  0.00  0.00    -0.220 OA
ATOM      2  C   UNL     1      -3.961  -0.396   0.000  0.00  0.00    +0.184 C 
ATOM      3  C   UNL     1      -3.961   0.429   0.000  0.00  0.00    +0.042 C 
ATOM      4  C   UNL     1      -3.176   0.684   0.000  0.00  0.00    +0.049 C 
ATOM      5  C   UNL     1      -2.691   0.017   0.000  0.00  0.00    +0.133 C 
ATOM     18  C   UNL     1      -3.176  -0.651   0.000  0.00  0.00    +0.202 C 
ATOM     19  O   UNL     1      -2.921  -1.435   0.000  0.00  0.00    -0.219 OA
ENDROOT
BRANCH   4  20
ATOM     20  C   UNL     1      -2.921   1.469   0.000  0.00  0.00    -0.002 A 
ATOM     21  C   UNL     1      -3.473   2.082   0.000  0.00  0.00    -0.001 A 
ATOM     22  C   UNL     1      -3.218   2.866   0.000  0.00  0.00    +0.020 A 
ATOM     23  C   UNL     1      -2.411   3.038   0.000  0.00  0.00    +0.099 A 
ATOM     24  N   UNL     1      -1.859   2.425   0.000  0.00  0.00    -0.243 NA
ATOM     25  C   UNL     1      -2.114   1.640   0.000  0.00  0.00    +0.095 A 
ENDBRANCH   4  20
BRANCH   5   6
ATOM      6  N   UNL     1      -1.866   0.017   0.000  0.00  0.00    -0.200 NA
ATOM      7  C   UNL     1      -1.453  -0.698   0.000  0.00  0.00    +0.271 C 
ATOM      8  O   UNL     1      -1.866  -1.412   0.000  0.00  0.00    -0.268 OA
BRANCH   7   9
ATOM      9  C   UNL     1      -0.628  -0.698   0.000  0.00  0.00    +0.084 A 
ATOM     10  C   UNL     1      -0.143  -1.365   0.000  0.00  0.00    +0.012 A 
ATOM     11  C   UNL     1       0.641  -1.110   0.000  0.00  0.00    +0.007 A 
ATOM     12  C   UNL     1       0.641  -0.285   0.000  0.00  0.00    +0.030 A 
ATOM     13  S   UNL     1      -0.143  -0.030   0.000  0.00  0.00    -0.082 S 
ATOM     14  C   UNL     1       1.356   0.127   0.000  0.00  0.00    +0.006 A 
ATOM     15  C   UNL     1       2.070  -0.285   0.000  0.00  0.00    +0.001 A 
ATOM     16  C   UNL     1       2.070  -1.110   0.000  0.00  0.00    +0.000 A 
ATOM     17  C   UNL     1       1.356  -1.523   0.000  0.00  0.00    +0.001 A 
ENDBRANCH   7   9
ENDBRANCH   5   6
TORSDOF 3
