REMARK  Name = 
REMARK  3 active torsions:
REMARK  status: ('A' for Active; 'I' for Inactive)
REMARK    1  A    between atoms: C_2  and  C_20
REMARK    2  A    between atoms: N_9  and  C_10
REMARK    3  A    between atoms: C_10  and  C_11
REMARK                            x       y       z     vdW  Elec       q    Type
REMARK                         _______ _______ _______ _____ _____    ______ ____
ROOT
ATOM      1  O   UNL     1       4.067   3.173   0.000  0.00  0.00    -0.270 OA
ATOM      2  C   UNL     1       4.067   2.348   0.000  0.00  0.00    +0.249 C 
ATOM      3  N   UNL     1       3.352   1.935   0.000  0.00  0.00    -0.273 N 
ATOM      4  C   UNL     1       3.352   1.110   0.000  0.00  0.00    +0.115 C 
ATOM      5  C   UNL     1       2.638   0.698   0.000  0.00  0.00    +0.116 C 
ATOM      6  N   UNL     1       1.923   1.110   0.000  0.00  0.00    -0.261 N 
ATOM      7  C   UNL     1       1.923   1.935   0.000  0.00  0.00    +0.116 C 
ATOM      8  C   UNL     1       1.139   2.190   0.000  0.00  0.00    +0.117 C 
ATOM      9  N   UNL     1       0.654   1.523   0.000  0.00  0.00    -0.258 N 
ATOM     17  C   UNL     1       1.139   0.856   0.000  0.00  0.00    +0.308 C 
ATOM     18  O   UNL     1       0.884   0.071   0.000  0.00  0.00    -0.252 OA
ATOM     19  C   UNL     1       2.638   2.348   0.000  0.00  0.00    +0.115 C 
ENDROOT
BRANCH   2  20
ATOM     20  C   UNL     1       4.781   1.935   0.000  0.00  0.00    +0.054 A 
ATOM     21  C   UNL     1       5.496   2.348   0.000  0.00  0.00    +0.005 A 
ATOM     22  C   UNL     1       6.210   1.935   0.000  0.00  0.00    +0.000 A 
ATOM     23  C   UNL     1       6.210   1.110   0.000  0.00  0.00    +0.000 A 
ATOM     24  C   UNL     1       5.496   0.698   0.000  0.00  0.00    +0.000 A 
ATOM     25  C   UNL     1       4.781   1.110   0.000  0.00  0.00    +0.005 A 
ENDBRANCH   2  20
BRANCH   9  10
ATOM     10  C   UNL     1      -0.171   1.523   0.000  0.00  0.00    +0.123 C 
BRANCH  10  11
ATOM     11  C   UNL     1      -0.584   0.808   0.000  0.00  0.00    +0.017 A 
ATOM     12  C   UNL     1      -0.171   0.094   0.000  0.00  0.00    +0.001 A 
ATOM     13  C   UNL     1      -0.584  -0.621   0.000  0.00  0.00    +0.020 A 
ATOM     14  C   UNL     1      -1.409  -0.621   0.000  0.00  0.00    +0.099 A 
ATOM     15  N   UNL     1      -1.821   0.094   0.000  0.00  0.00    -0.243 NA
ATOM     16  C   UNL     1      -1.409   0.808   0.000  0.00  0.00    +0.096 A 
ENDBRANCH  10  11
ENDBRANCH   9  10
TORSDOF 3
