REMARK  Name = 
REMARK  6 active torsions:
REMARK  status: ('A' for Active; 'I' for Inactive)
REMARK    1  A    between atoms: O_2  and  C_3
REMARK    2  A    between atoms: C_6  and  C_9
REMARK    3  A    between atoms: C_15  and  C_18
REMARK    4  A    between atoms: C_21  and  C_23
REMARK    5  A    between atoms: N_27  and  C_28
REMARK    6  A    between atoms: C_28  and  C_29
REMARK                            x       y       z     vdW  Elec       q    Type
REMARK                         _______ _______ _______ _____ _____    ______ ____
ROOT
ATOM      9  C   UNL     1      -0.334   0.922   0.000  0.00  0.00    +0.270 C 
ATOM     10  O   UNL     1      -1.048   0.510   0.000  0.00  0.00    -0.268 OA
ATOM     11  N   UNL     1       0.381   0.510   0.000  0.00  0.00    -0.157 NA
ATOM     12  C   UNL     1       0.381  -0.315   0.000  0.00  0.00    +0.155 A 
ATOM     13  N   UNL     1       1.095  -0.728   0.000  0.00  0.00    -0.227 NA
ATOM     14  C   UNL     1       1.095  -1.553   0.000  0.00  0.00    +0.103 A 
ATOM     15  C   UNL     1       0.381  -1.965   0.000  0.00  0.00    +0.058 A 
ATOM     16  C   UNL     1      -0.334  -1.553   0.000  0.00  0.00    +0.008 A 
ATOM     17  C   UNL     1      -0.334  -0.728   0.000  0.00  0.00    +0.036 A 
ENDROOT
BRANCH   9   6
ATOM      3  C   UNL     1      -0.334   3.397   0.000  0.00  0.00    +0.139 A 
ATOM      4  C   UNL     1       0.381   2.985   0.000  0.00  0.00    +0.037 A 
ATOM      5  C   UNL     1       0.381   2.160   0.000  0.00  0.00    +0.008 A 
ATOM      6  C   UNL     1      -0.334   1.747   0.000  0.00  0.00    +0.056 A 
ATOM      7  C   UNL     1      -1.048   2.160   0.000  0.00  0.00    +0.008 A 
ATOM      8  C   UNL     1      -1.048   2.985   0.000  0.00  0.00    +0.037 A 
BRANCH   3   2
ATOM      1  C   UNL     1      -1.048   4.635   0.000  0.00  0.00    +0.252 C 
ATOM      2  O   UNL     1      -0.334   4.222   0.000  0.00  0.00    -0.471 OA
ENDBRANCH   3   2
ENDBRANCH   9   6
BRANCH  15  18
ATOM     18  C   UNL     1       0.381  -2.790   0.000  0.00  0.00    +0.205 A 
ATOM     19  N   UNL     1      -0.287  -3.275   0.000  0.00  0.00    -0.056 NA
ATOM     20  O   UNL     1      -0.032  -4.060   0.000  0.00  0.00    -0.336 OA
ATOM     21  C   UNL     1       0.793  -4.060   0.000  0.00  0.00    +0.251 A 
ATOM     22  N   UNL     1       1.048  -3.275   0.000  0.00  0.00    -0.190 NA
BRANCH  21  23
ATOM     23  C   UNL     1       1.278  -4.727   0.000  0.00  0.00    +0.138 C 
ATOM     24  C   UNL     1       1.023  -5.512   0.000  0.00  0.00    +0.027 C 
ATOM     25  C   UNL     1       1.690  -5.997   0.000  0.00  0.00    +0.019 C 
ATOM     26  C   UNL     1       2.358  -5.512   0.000  0.00  0.00    +0.073 C 
ATOM     27  N   UNL     1       2.103  -4.727   0.000  0.00  0.00    -0.263 NA
BRANCH  27  28
ATOM     28  C   UNL     1       2.588  -4.060   0.000  0.00  0.00    +0.101 C 
BRANCH  28  29
ATOM     29  C   UNL     1       3.408  -4.146   0.000  0.00  0.00    +0.013 A 
ATOM     30  C   UNL     1       3.893  -3.479   0.000  0.00  0.00    +0.000 A 
ATOM     31  C   UNL     1       4.714  -3.565   0.000  0.00  0.00    +0.020 A 
ATOM     32  C   UNL     1       5.049  -4.319   0.000  0.00  0.00    +0.099 A 
ATOM     33  N   UNL     1       4.564  -4.986   0.000  0.00  0.00    -0.243 NA
ATOM     34  C   UNL     1       3.744  -4.900   0.000  0.00  0.00    +0.096 A 
ENDBRANCH  28  29
ENDBRANCH  27  28
ENDBRANCH  21  23
ENDBRANCH  15  18
TORSDOF 6
