REMARK  Name = 
REMARK  6 active torsions:
REMARK  status: ('A' for Active; 'I' for Inactive)
REMARK    1  A    between atoms: C_3  and  C_4
REMARK    2  A    between atoms: C_4  and  N_5
REMARK    3  A    between atoms: N_5  and  S_6
REMARK    4  A    between atoms: S_6  and  C_9
REMARK    5  A    between atoms: C_17  and  N_18
REMARK    6  A    between atoms: N_18  and  C_19
REMARK                            x       y       z     vdW  Elec       q    Type
REMARK                         _______ _______ _______ _____ _____    ______ ____
ROOT
ATOM      1  O   UNL     1       2.037  -0.474   0.000  0.00  0.00    -0.219 OA
ATOM      2  C   UNL     1       2.037  -1.299   0.000  0.00  0.00    +0.199 C 
ATOM      3  C   UNL     1       2.704  -1.784   0.000  0.00  0.00    +0.166 C 
ATOM     15  O   UNL     1       2.449  -2.569   0.000  0.00  0.00    -0.350 OA
ATOM     16  C   UNL     1       1.624  -2.569   0.000  0.00  0.00    +0.162 C 
ATOM     17  C   UNL     1       1.369  -1.784   0.000  0.00  0.00    +0.135 C 
ENDROOT
BRANCH   3   4
ATOM      4  C   UNL     1       3.489  -1.529   0.000  0.00  0.00    +0.148 C 
BRANCH   4   5
ATOM      5  N   UNL     1       4.102  -2.081   0.000  0.00  0.00    -0.075 NA
BRANCH   5   6
ATOM      6  S   UNL     1       4.886  -1.826   0.000  0.00  0.00    +0.077 S 
ATOM      7  O   UNL     1       4.631  -1.042   0.000  0.00  0.00    -0.152 OA
ATOM      8  O   UNL     1       5.141  -2.611   0.000  0.00  0.00    -0.152 OA
BRANCH   6   9
ATOM      9  C   UNL     1       5.671  -1.571   0.000  0.00  0.00    +0.124 A 
ATOM     10  C   UNL     1       5.843  -0.764   0.000  0.00  0.00    +0.020 A 
ATOM     11  C   UNL     1       6.627  -0.509   0.000  0.00  0.00    +0.001 A 
ATOM     12  C   UNL     1       7.240  -1.061   0.000  0.00  0.00    +0.000 A 
ATOM     13  C   UNL     1       7.069  -1.868   0.000  0.00  0.00    +0.001 A 
ATOM     14  C   UNL     1       6.284  -2.123   0.000  0.00  0.00    +0.020 A 
ENDBRANCH   6   9
ENDBRANCH   5   6
ENDBRANCH   4   5
ENDBRANCH   3   4
BRANCH  17  18
ATOM     18  N   UNL     1       0.585  -1.529   0.000  0.00  0.00    -0.216 NA
BRANCH  18  19
ATOM     19  C   UNL     1       0.413  -0.722   0.000  0.00  0.00    +0.073 C 
ATOM     20  C   UNL     1      -0.371  -0.467   0.000  0.00  0.00    +0.023 C 
ATOM     21  C   UNL     1      -0.543   0.340   0.000  0.00  0.00    +0.068 C 
ATOM     22  C   UNL     1       0.070   0.892   0.000  0.00  0.00    +0.264 C 
ATOM     23  F   UNL     1      -0.580   1.400   0.000  0.00  0.00    -0.204 F 
ATOM     24  F   UNL     1       0.457   1.620   0.000  0.00  0.00    -0.204 F 
ATOM     25  C   UNL     1       0.855   0.637   0.000  0.00  0.00    +0.068 C 
ATOM     26  C   UNL     1       1.026  -0.170   0.000  0.00  0.00    +0.023 C 
ENDBRANCH  18  19
ENDBRANCH  17  18
TORSDOF 6
