REMARK  Name = 
REMARK  5 active torsions:
REMARK  status: ('A' for Active; 'I' for Inactive)
REMARK    1  A    between atoms: C_2  and  O_10
REMARK    2  A    between atoms: N_3  and  C_4
REMARK    3  A    between atoms: O_10  and  C_11
REMARK    4  A    between atoms: C_15  and  N_19
REMARK    5  A    between atoms: C_22  and  C_26
REMARK                            x       y       z     vdW  Elec       q    Type
REMARK                         _______ _______ _______ _____ _____    ______ ____
ROOT
ATOM     11  C   UNL     1       1.270  -0.922   0.000  0.00  0.00    +0.229 C 
ATOM     12  C   UNL     1       0.785  -0.255   0.000  0.00  0.00    +0.188 C 
ATOM     13  O   UNL     1       1.270   0.412   0.000  0.00  0.00    -0.348 OA
ATOM     14  C   UNL     1       2.054   0.158   0.000  0.00  0.00    +0.168 C 
ATOM     15  C   UNL     1       2.839   0.412   0.000  0.00  0.00    +0.155 C 
ATOM     16  C   UNL     1       3.324  -0.255   0.000  0.00  0.00    +0.166 C 
ATOM     17  O   UNL     1       2.839  -0.922   0.000  0.00  0.00    -0.348 OA
ATOM     18  C   UNL     1       2.054  -0.667   0.000  0.00  0.00    +0.186 C 
ENDROOT
BRANCH  15  19
ATOM     19  N   UNL     1       3.094   1.197   0.000  0.00  0.00    -0.200 NA
ATOM     20  C   UNL     1       3.901   1.369   0.000  0.00  0.00    +0.237 A 
ATOM     21  N   UNL     1       4.156   2.153   0.000  0.00  0.00    -0.209 NA
ATOM     22  C   UNL     1       4.963   2.325   0.000  0.00  0.00    +0.120 A 
ATOM     23  C   UNL     1       5.515   1.712   0.000  0.00  0.00    +0.043 A 
ATOM     24  C   UNL     1       5.260   0.927   0.000  0.00  0.00    +0.104 A 
ATOM     25  N   UNL     1       4.453   0.756   0.000  0.00  0.00    -0.211 NA
BRANCH  22  26
ATOM     26  C   UNL     1       5.218   3.109   0.000  0.00  0.00    +0.163 A 
ATOM     27  C   UNL     1       4.733   3.777   0.000  0.00  0.00    +0.042 A 
ATOM     28  C   UNL     1       5.218   4.444   0.000  0.00  0.00    +0.044 A 
ATOM     29  C   UNL     1       6.002   4.189   0.000  0.00  0.00    +0.180 A 
ATOM     30  O   UNL     1       6.002   3.364   0.000  0.00  0.00    -0.449 OA
ENDBRANCH  22  26
ENDBRANCH  15  19
BRANCH  11  10
ATOM     10  O   UNL     1       1.015  -1.707   0.000  0.00  0.00    -0.432 OA
BRANCH  10   2
ATOM      1  O   UNL     1      -0.344  -1.265   0.000  0.00  0.00    -0.225 OA
ATOM      2  C   UNL     1       0.208  -1.879   0.000  0.00  0.00    +0.421 C 
ATOM      3  N   UNL     1      -0.047  -2.663   0.000  0.00  0.00    -0.170 NA
BRANCH   3   4
ATOM      4  C   UNL     1      -0.854  -2.835   0.000  0.00  0.00    +0.099 C 
ATOM      5  C   UNL     1      -1.109  -3.619   0.000  0.00  0.00    +0.022 C 
ATOM      6  C   UNL     1      -1.916  -3.791   0.000  0.00  0.00    +0.002 C 
ATOM      7  C   UNL     1      -2.468  -3.178   0.000  0.00  0.00    +0.000 C 
ATOM      8  C   UNL     1      -2.213  -2.393   0.000  0.00  0.00    +0.002 C 
ATOM      9  C   UNL     1      -1.406  -2.222   0.000  0.00  0.00    +0.022 C 
ENDBRANCH   3   4
ENDBRANCH  10   2
ENDBRANCH  11  10
TORSDOF 5
