REMARK  Name = 
REMARK  9 active torsions:
REMARK  status: ('A' for Active; 'I' for Inactive)
REMARK    1  A    between atoms: C_2  and  C_4
REMARK    2  A    between atoms: C_4  and  C_5
REMARK    3  A    between atoms: C_5  and  N_6
REMARK    4  A    between atoms: C_5  and  C_32
REMARK    5  A    between atoms: C_7  and  C_9
REMARK    6  A    between atoms: C_16  and  N_18
REMARK    7  A    between atoms: N_18  and  S_19
REMARK    8  A    between atoms: S_19  and  C_22
REMARK    9  A    between atoms: C_24  and  C_28
REMARK                            x       y       z     vdW  Elec       q    Type
REMARK                         _______ _______ _______ _____ _____    ______ ____
ROOT
ATOM      9  C   UNL     1       9.928  -2.053   0.000  0.00  0.00    +0.200 C 
ATOM     10  O   UNL     1       9.398  -2.685   0.000  0.00  0.00    -0.216 OA
ATOM     11  C   UNL     1      10.210  -1.278   0.000  0.00  0.00    +0.075 C 
ATOM     12  C   UNL     1      11.023  -1.135   0.000  0.00  0.00    +0.187 C 
ATOM     13  O   UNL     1      11.305  -0.360   0.000  0.00  0.00    -0.220 OA
ATOM     14  C   UNL     1      11.553  -1.767   0.000  0.00  0.00    +0.200 C 
ATOM     15  O   UNL     1      12.366  -1.623   0.000  0.00  0.00    -0.219 OA
ATOM     16  C   UNL     1      11.271  -2.542   0.000  0.00  0.00    +0.133 C 
ATOM     17  C   UNL     1      10.459  -2.685   0.000  0.00  0.00    +0.062 C 
ENDROOT
BRANCH   9   7
ATOM      6  N   UNL     1       8.499  -2.053   0.000  0.00  0.00    -0.196 NA
ATOM      7  C   UNL     1       9.214  -1.641   0.000  0.00  0.00    +0.269 C 
ATOM      8  O   UNL     1       9.214  -0.816   0.000  0.00  0.00    -0.271 OA
BRANCH   6   5
ATOM      5  C   UNL     1       7.785  -1.641   0.000  0.00  0.00    +0.174 C 
BRANCH   5  32
ATOM     32  C   UNL     1       7.785  -0.816   0.000  0.00  0.00    +0.281 C 
ATOM     33  N   UNL     1       8.499  -0.403   0.000  0.00  0.00    -0.086 NA
ATOM     34  O   UNL     1       7.070  -0.403   0.000  0.00  0.00    -0.270 OA
ENDBRANCH   5  32
BRANCH   5   4
ATOM      4  C   UNL     1       7.070  -2.053   0.000  0.00  0.00    +0.031 C 
BRANCH   4   2
ATOM      1  C   UNL     1       5.641  -2.053   0.000  0.00  0.00    +0.000 C 
ATOM      2  C   UNL     1       6.356  -1.641   0.000  0.00  0.00    +0.002 C 
ATOM      3  C   UNL     1       6.356  -0.816   0.000  0.00  0.00    +0.000 C 
ENDBRANCH   4   2
ENDBRANCH   5   4
ENDBRANCH   6   5
ENDBRANCH   9   7
BRANCH  16  18
ATOM     18  N   UNL     1      11.801  -3.174   0.000  0.00  0.00    -0.076 NA
BRANCH  18  19
ATOM     19  S   UNL     1      11.519  -3.949   0.000  0.00  0.00    +0.077 S 
ATOM     20  O   UNL     1      10.744  -3.667   0.000  0.00  0.00    -0.152 OA
ATOM     21  O   UNL     1      12.294  -4.231   0.000  0.00  0.00    -0.152 OA
BRANCH  19  22
ATOM     22  C   UNL     1      11.237  -4.724   0.000  0.00  0.00    +0.124 A 
ATOM     23  C   UNL     1      11.767  -5.356   0.000  0.00  0.00    +0.024 A 
ATOM     24  C   UNL     1      11.485  -6.132   0.000  0.00  0.00    +0.073 A 
ATOM     25  C   UNL     1      10.673  -6.275   0.000  0.00  0.00    +0.004 A 
ATOM     26  C   UNL     1      10.142  -5.643   0.000  0.00  0.00    +0.001 A 
ATOM     27  C   UNL     1      10.425  -4.868   0.000  0.00  0.00    +0.020 A 
BRANCH  24  28
ATOM     28  C   UNL     1      12.015  -6.764   0.000  0.00  0.00    +0.419 C 
ATOM     29  F   UNL     1      12.546  -7.396   0.000  0.00  0.00    -0.166 F 
ATOM     30  F   UNL     1      11.383  -7.294   0.000  0.00  0.00    -0.166 F 
ATOM     31  F   UNL     1      12.647  -6.233   0.000  0.00  0.00    -0.166 F 
ENDBRANCH  24  28
ENDBRANCH  19  22
ENDBRANCH  18  19
ENDBRANCH  16  18
TORSDOF 9
