REMARK  Name = 
REMARK  2 active torsions:
REMARK  status: ('A' for Active; 'I' for Inactive)
REMARK    1  A    between atoms: C_5  and  C_8
REMARK    2  A    between atoms: N_27  and  C_28
REMARK                            x       y       z     vdW  Elec       q    Type
REMARK                         _______ _______ _______ _____ _____    ______ ____
ROOT
ATOM      8  C   UNL     1       0.601  -1.680   0.000  0.00  0.00    +0.000 A 
ATOM      9  C   UNL     1       0.418  -0.876   0.000  0.00  0.00    +0.001 A 
ATOM     10  C   UNL     1       1.023  -0.315   0.000  0.00  0.00    +0.017 A 
ATOM     11  C   UNL     1       1.811  -0.558   0.000  0.00  0.00    +0.078 A 
ATOM     12  N   UNL     1       2.325   0.087   0.000  0.00  0.00    -0.178 NA
ATOM     13  C   UNL     1       3.150   0.087   0.000  0.00  0.00    +0.265 C 
ATOM     14  O   UNL     1       3.508   0.830   0.000  0.00  0.00    -0.271 OA
ATOM     15  C   UNL     1       3.665  -0.558   0.000  0.00  0.00    +0.174 C 
ATOM     16  C   UNL     1       4.453  -0.315   0.000  0.00  0.00    +0.124 C 
ATOM     17  N   UNL     1       5.058  -0.876   0.000  0.00  0.00    -0.259 N 
ATOM     18  C   UNL     1       4.874  -1.680   0.000  0.00  0.00    +0.117 C 
ATOM     19  C   UNL     1       4.086  -1.923   0.000  0.00  0.00    +0.116 C 
ATOM     20  N   UNL     1       3.481  -1.362   0.000  0.00  0.00    -0.266 N 
ATOM     21  C   UNL     1       2.738  -1.720   0.000  0.00  0.00    +0.251 C 
ATOM     22  O   UNL     1       2.738  -2.545   0.000  0.00  0.00    -0.270 OA
ATOM     23  C   UNL     1       1.994  -1.362   0.000  0.00  0.00    +0.069 A 
ATOM     24  C   UNL     1       1.390  -1.923   0.000  0.00  0.00    +0.006 A 
ATOM     25  C   UNL     1       5.846  -0.633   0.000  0.00  0.00    +0.323 C 
ATOM     26  O   UNL     1       6.451  -1.194   0.000  0.00  0.00    -0.251 OA
ATOM     27  N   UNL     1       6.030   0.172   0.000  0.00  0.00    -0.190 NA
ENDROOT
BRANCH   8   5
ATOM      1 CL   UNL     1      -1.818  -3.925   0.000  0.00  0.00    -0.082 Cl
ATOM      2  C   UNL     1      -1.213  -3.364   0.000  0.00  0.00    +0.058 A 
ATOM      3  C   UNL     1      -1.397  -2.559   0.000  0.00  0.00    +0.011 A 
ATOM      4  C   UNL     1      -0.792  -1.998   0.000  0.00  0.00    +0.001 A 
ATOM      5  C   UNL     1      -0.003  -2.241   0.000  0.00  0.00    +0.000 A 
ATOM      6  C   UNL     1       0.180  -3.046   0.000  0.00  0.00    +0.001 A 
ATOM      7  C   UNL     1      -0.425  -3.607   0.000  0.00  0.00    +0.011 A 
ENDBRANCH   8   5
BRANCH  27  28
ATOM     28  C   UNL     1       6.818   0.415   0.000  0.00  0.00    +0.097 C 
ATOM     29  C   UNL     1       7.002   1.219   0.000  0.00  0.00    +0.022 C 
ATOM     30  C   UNL     1       7.790   1.462   0.000  0.00  0.00    +0.002 C 
ATOM     31  C   UNL     1       8.395   0.901   0.000  0.00  0.00    +0.000 C 
ATOM     32  C   UNL     1       8.211   0.097   0.000  0.00  0.00    +0.002 C 
ATOM     33  C   UNL     1       7.423  -0.146   0.000  0.00  0.00    +0.022 C 
ENDBRANCH  27  28
TORSDOF 2
