REMARK  Name = 
REMARK  8 active torsions:
REMARK  status: ('A' for Active; 'I' for Inactive)
REMARK    1  A    between atoms: C_2  and  N_4
REMARK    2  A    between atoms: N_10  and  S_27
REMARK    3  A    between atoms: C_11  and  C_13
REMARK    4  A    between atoms: N_15  and  C_16
REMARK    5  A    between atoms: C_16  and  C_17
REMARK    6  A    between atoms: C_16  and  C_24
REMARK    7  A    between atoms: C_17  and  C_18
REMARK    8  A    between atoms: S_27  and  C_30
REMARK                            x       y       z     vdW  Elec       q    Type
REMARK                         _______ _______ _______ _____ _____    ______ ____
ROOT
ATOM      4  N   UNL     1      -1.429  -6.379   0.000  0.00  0.00    -0.190 NA
ATOM      5  C   UNL     1      -0.715  -5.966   0.000  0.00  0.00    +0.323 C 
ATOM      6  O   UNL     1       0.000  -6.379   0.000  0.00  0.00    -0.251 OA
ATOM      7  N   UNL     1      -0.715  -5.141   0.000  0.00  0.00    -0.259 N 
ATOM      8  C   UNL     1      -1.429  -4.729   0.000  0.00  0.00    +0.114 C 
ATOM      9  C   UNL     1      -1.429  -3.904   0.000  0.00  0.00    +0.118 C 
ATOM     10  N   UNL     1      -0.715  -3.491   0.000  0.00  0.00    -0.145 NA
ATOM     11  C   UNL     1       0.000  -3.904   0.000  0.00  0.00    +0.177 C 
ATOM     12  C   UNL     1       0.000  -4.729   0.000  0.00  0.00    +0.122 C 
ENDROOT
BRANCH   4   2
ATOM      1  C   UNL     1      -2.143  -7.616   0.000  0.00  0.00    +0.023 C 
ATOM      2  C   UNL     1      -1.429  -7.204   0.000  0.00  0.00    +0.097 C 
ATOM      3  C   UNL     1      -0.715  -7.616   0.000  0.00  0.00    +0.023 C 
ENDBRANCH   4   2
BRANCH  11  13
ATOM     13  C   UNL     1       0.715  -3.491   0.000  0.00  0.00    +0.260 C 
ATOM     14  O   UNL     1       1.429  -3.904   0.000  0.00  0.00    -0.272 OA
ATOM     15  N   UNL     1       0.715  -2.666   0.000  0.00  0.00    -0.197 NA
BRANCH  15  16
ATOM     16  C   UNL     1       1.429  -2.254   0.000  0.00  0.00    +0.174 C 
BRANCH  16  24
ATOM     24  C   UNL     1       2.143  -2.666   0.000  0.00  0.00    +0.281 C 
ATOM     25  N   UNL     1       2.858  -2.254   0.000  0.00  0.00    -0.086 NA
ATOM     26  O   UNL     1       2.143  -3.491   0.000  0.00  0.00    -0.270 OA
ENDBRANCH  16  24
BRANCH  16  17
ATOM     17  C   UNL     1       1.429  -1.429   0.000  0.00  0.00    +0.031 C 
BRANCH  17  18
ATOM     18  C   UNL     1       2.143  -1.016   0.000  0.00  0.00    +0.002 C 
ATOM     19  C   UNL     1       2.143  -0.191   0.000  0.00  0.00    +0.000 C 
ATOM     20  C   UNL     1       2.858   0.221   0.000  0.00  0.00    +0.000 C 
ATOM     21  C   UNL     1       3.572  -0.191   0.000  0.00  0.00    +0.000 C 
ATOM     22  C   UNL     1       3.572  -1.016   0.000  0.00  0.00    +0.000 C 
ATOM     23  C   UNL     1       2.858  -1.429   0.000  0.00  0.00    +0.000 C 
ENDBRANCH  17  18
ENDBRANCH  16  17
ENDBRANCH  15  16
ENDBRANCH  11  13
BRANCH  10  27
ATOM     27  S   UNL     1      -0.715  -2.666   0.000  0.00  0.00    +0.064 S 
ATOM     28  O   UNL     1      -0.715  -1.841   0.000  0.00  0.00    -0.153 OA
ATOM     29  O   UNL     1       0.111  -2.666   0.000  0.00  0.00    -0.153 OA
BRANCH  27  30
ATOM     30  C   UNL     1      -1.540  -2.666   0.000  0.00  0.00    +0.122 A 
ATOM     31  C   UNL     1      -1.952  -3.381   0.000  0.00  0.00    +0.020 A 
ATOM     32  C   UNL     1      -2.777  -3.381   0.000  0.00  0.00    +0.001 A 
ATOM     33  C   UNL     1      -3.189  -2.666   0.000  0.00  0.00    +0.000 A 
ATOM     34  C   UNL     1      -2.777  -1.952   0.000  0.00  0.00    +0.001 A 
ATOM     35  C   UNL     1      -1.952  -1.952   0.000  0.00  0.00    +0.020 A 
ENDBRANCH  27  30
ENDBRANCH  10  27
TORSDOF 8
