REMARK  Name = 
REMARK  6 active torsions:
REMARK  status: ('A' for Active; 'I' for Inactive)
REMARK    1  A    between atoms: C_3  and  C_4
REMARK    2  A    between atoms: C_4  and  N_5
REMARK    3  A    between atoms: C_6  and  C_8
REMARK    4  A    between atoms: C_17  and  N_18
REMARK    5  A    between atoms: N_18  and  C_19
REMARK    6  A    between atoms: C_19  and  C_20
REMARK                            x       y       z     vdW  Elec       q    Type
REMARK                         _______ _______ _______ _____ _____    ______ ____
ROOT
ATOM      1  O   UNL     1       2.555  -3.139   0.000  0.00  0.00    -0.219 OA
ATOM      2  C   UNL     1       3.340  -2.885   0.000  0.00  0.00    +0.199 C 
ATOM      3  C   UNL     1       3.595  -2.100   0.000  0.00  0.00    +0.169 C 
ATOM     15  O   UNL     1       4.420  -2.100   0.000  0.00  0.00    -0.350 OA
ATOM     16  C   UNL     1       4.675  -2.885   0.000  0.00  0.00    +0.162 C 
ATOM     17  C   UNL     1       4.008  -3.369   0.000  0.00  0.00    +0.135 C 
ENDROOT
BRANCH   3   4
ATOM      4  C   UNL     1       3.110  -1.432   0.000  0.00  0.00    +0.148 C 
BRANCH   4   5
ATOM      5  N   UNL     1       3.446  -0.679   0.000  0.00  0.00    -0.199 NA
ATOM      6  C   UNL     1       2.961  -0.011   0.000  0.00  0.00    +0.265 C 
ATOM      7  O   UNL     1       2.140  -0.098   0.000  0.00  0.00    -0.268 OA
BRANCH   6   8
ATOM      8  C   UNL     1       3.296   0.742   0.000  0.00  0.00    +0.055 A 
ATOM      9  C   UNL     1       2.811   1.410   0.000  0.00  0.00    +0.007 A 
ATOM     10  C   UNL     1       3.147   2.163   0.000  0.00  0.00    +0.030 A 
ATOM     11  C   UNL     1       3.967   2.250   0.000  0.00  0.00    +0.140 A 
ATOM     12  F   UNL     1       4.303   3.003   0.000  0.00  0.00    -0.204 F 
ATOM     13  C   UNL     1       4.452   1.582   0.000  0.00  0.00    +0.030 A 
ATOM     14  C   UNL     1       4.117   0.829   0.000  0.00  0.00    +0.007 A 
ENDBRANCH   6   8
ENDBRANCH   4   5
ENDBRANCH   3   4
BRANCH  17  18
ATOM     18  N   UNL     1       4.008  -4.194   0.000  0.00  0.00    -0.214 NA
BRANCH  18  19
ATOM     19  C   UNL     1       4.722  -4.607   0.000  0.00  0.00    +0.089 C 
BRANCH  19  20
ATOM     20  C   UNL     1       4.722  -5.432   0.000  0.00  0.00    +0.017 C 
ATOM     21  C   UNL     1       5.135  -6.146   0.000  0.00  0.00    +0.001 C 
ATOM     22  C   UNL     1       4.309  -6.146   0.000  0.00  0.00    +0.001 C 
ENDBRANCH  19  20
ENDBRANCH  18  19
ENDBRANCH  17  18
TORSDOF 6
