REMARK  Name = 
REMARK  8 active torsions:
REMARK  status: ('A' for Active; 'I' for Inactive)
REMARK    1  A    between atoms: O_2  and  C_3
REMARK    2  A    between atoms: C_8  and  N_9
REMARK    3  A    between atoms: C_15  and  C_17
REMARK    4  A    between atoms: C_17  and  C_18
REMARK    5  A    between atoms: C_20  and  C_21
REMARK    6  A    between atoms: C_21  and  N_22
REMARK    7  A    between atoms: C_23  and  C_25
REMARK    8  A    between atoms: C_28  and  N_31
REMARK                            x       y       z     vdW  Elec       q    Type
REMARK                         _______ _______ _______ _____ _____    ______ ____
ROOT
ATOM     18  C   UNL     1       2.751  -2.537   0.000  0.00  0.00    +0.157 C 
ATOM     19  O   UNL     1       3.419  -3.022   0.000  0.00  0.00    -0.351 OA
ATOM     20  C   UNL     1       3.164  -3.806   0.000  0.00  0.00    +0.170 C 
ATOM     34  C   UNL     1       2.339  -3.806   0.000  0.00  0.00    +0.213 C 
ATOM     35  O   UNL     1       1.854  -4.474   0.000  0.00  0.00    -0.218 OA
ATOM     36  C   UNL     1       2.084  -3.022   0.000  0.00  0.00    +0.212 C 
ATOM     37  O   UNL     1       1.299  -2.767   0.000  0.00  0.00    -0.218 OA
ENDROOT
BRANCH  18  17
ATOM     17  C   UNL     1       2.751  -1.712   0.000  0.00  0.00    +0.117 C 
BRANCH  17  15
ATOM      9  N   UNL     1       2.037   1.176   0.000  0.00  0.00    -0.302 N 
ATOM     10  C   UNL     1       2.751   0.763   0.000  0.00  0.00    +0.112 C 
ATOM     11  C   UNL     1       2.751  -0.062   0.000  0.00  0.00    +0.115 C 
ATOM     12  N   UNL     1       2.037  -0.474   0.000  0.00  0.00    -0.276 N 
ATOM     13  C   UNL     1       1.322  -0.062   0.000  0.00  0.00    +0.115 C 
ATOM     14  C   UNL     1       1.322   0.763   0.000  0.00  0.00    +0.112 C 
ATOM     15  C   UNL     1       2.037  -1.299   0.000  0.00  0.00    +0.228 C 
ATOM     16  O   UNL     1       1.322  -1.712   0.000  0.00  0.00    -0.275 OA
BRANCH   9   8
ATOM      3  C   UNL     1       1.322   2.413   0.000  0.00  0.00    +0.152 A 
ATOM      4  C   UNL     1       1.322   3.238   0.000  0.00  0.00    +0.038 A 
ATOM      5  C   UNL     1       2.037   3.651   0.000  0.00  0.00    +0.003 A 
ATOM      6  C   UNL     1       2.751   3.238   0.000  0.00  0.00    +0.001 A 
ATOM      7  C   UNL     1       2.751   2.413   0.000  0.00  0.00    +0.018 A 
ATOM      8  C   UNL     1       2.037   2.001   0.000  0.00  0.00    +0.082 A 
BRANCH   3   2
ATOM      1  C   UNL     1      -0.107   2.413   0.000  0.00  0.00    +0.253 C 
ATOM      2  O   UNL     1       0.608   2.001   0.000  0.00  0.00    -0.470 OA
ENDBRANCH   3   2
ENDBRANCH   9   8
ENDBRANCH  17  15
ENDBRANCH  18  17
BRANCH  20  21
ATOM     21  C   UNL     1       3.649  -4.474   0.000  0.00  0.00    +0.148 C 
BRANCH  21  22
ATOM     22  N   UNL     1       3.313  -5.227   0.000  0.00  0.00    -0.199 NA
ATOM     23  C   UNL     1       3.798  -5.895   0.000  0.00  0.00    +0.265 C 
ATOM     24  O   UNL     1       4.618  -5.809   0.000  0.00  0.00    -0.268 OA
BRANCH  23  25
ATOM     25  C   UNL     1       3.462  -6.648   0.000  0.00  0.00    +0.055 A 
ATOM     26  C   UNL     1       3.947  -7.316   0.000  0.00  0.00    +0.006 A 
ATOM     27  C   UNL     1       3.612  -8.069   0.000  0.00  0.00    +0.015 A 
ATOM     28  C   UNL     1       2.791  -8.156   0.000  0.00  0.00    +0.048 A 
ATOM     29  C   UNL     1       2.306  -7.488   0.000  0.00  0.00    +0.015 A 
ATOM     30  C   UNL     1       2.642  -6.735   0.000  0.00  0.00    +0.006 A 
BRANCH  28  31
ATOM     31  N   UNL     1       2.456  -8.909   0.000  0.00  0.00    -0.304 N 
ATOM     32  C   UNL     1       2.941  -9.577   0.000  0.00  0.00    +0.112 C 
ATOM     33  C   UNL     1       1.635  -8.996   0.000  0.00  0.00    +0.112 C 
ENDBRANCH  28  31
ENDBRANCH  23  25
ENDBRANCH  21  22
ENDBRANCH  20  21
TORSDOF 8
