REMARK  Name = 
REMARK  6 active torsions:
REMARK  status: ('A' for Active; 'I' for Inactive)
REMARK    1  A    between atoms: C_4  and  C_8
REMARK    2  A    between atoms: C_11  and  C_13
REMARK    3  A    between atoms: N_18  and  C_19
REMARK    4  A    between atoms: C_19  and  C_20
REMARK    5  A    between atoms: C_24  and  O_25
REMARK    6  A    between atoms: O_25  and  C_26
REMARK                            x       y       z     vdW  Elec       q    Type
REMARK                         _______ _______ _______ _____ _____    ______ ____
ROOT
ATOM     13  C   UNL     1       0.151  -4.727   0.000  0.00  0.00    +0.140 C 
ATOM     14  C   UNL     1       0.406  -5.512   0.000  0.00  0.00    +0.060 C 
ATOM     15  C   UNL     1      -0.262  -5.997   0.000  0.00  0.00    +0.170 C 
ATOM     16  O   UNL     1      -0.262  -6.822   0.000  0.00  0.00    -0.222 OA
ATOM     17  C   UNL     1      -0.929  -5.512   0.000  0.00  0.00    +0.106 C 
ATOM     18  N   UNL     1      -0.674  -4.727   0.000  0.00  0.00    -0.260 NA
ENDROOT
BRANCH  13  11
ATOM      8  C   UNL     1       1.048  -2.790   0.000  0.00  0.00    +0.203 A 
ATOM      9  N   UNL     1       1.716  -3.275   0.000  0.00  0.00    -0.056 NA
ATOM     10  O   UNL     1       1.461  -4.060   0.000  0.00  0.00    -0.336 OA
ATOM     11  C   UNL     1       0.636  -4.060   0.000  0.00  0.00    +0.251 A 
ATOM     12  N   UNL     1       0.381  -3.275   0.000  0.00  0.00    -0.190 NA
BRANCH   8   4
ATOM      1  C   UNL     1       2.477  -0.315   0.000  0.00  0.00    +0.031 C 
ATOM      2  C   UNL     1       1.763  -0.728   0.000  0.00  0.00    -0.022 A 
ATOM      3  C   UNL     1       1.763  -1.553   0.000  0.00  0.00    -0.001 A 
ATOM      4  C   UNL     1       1.048  -1.965   0.000  0.00  0.00    +0.039 A 
ATOM      5  C   UNL     1       0.334  -1.553   0.000  0.00  0.00    +0.003 A 
ATOM      6  C   UNL     1       0.334  -0.728   0.000  0.00  0.00    -0.000 A 
ATOM      7  C   UNL     1       1.048  -0.315   0.000  0.00  0.00    -0.004 A 
ENDBRANCH   8   4
ENDBRANCH  13  11
BRANCH  18  19
ATOM     19  C   UNL     1      -1.159  -4.060   0.000  0.00  0.00    +0.100 C 
BRANCH  19  20
ATOM     20  C   UNL     1      -1.979  -4.146   0.000  0.00  0.00    -0.003 A 
ATOM     21  C   UNL     1      -2.315  -4.900   0.000  0.00  0.00    -0.003 A 
ATOM     22  C   UNL     1      -3.135  -4.986   0.000  0.00  0.00    +0.003 A 
ATOM     23  C   UNL     1      -3.620  -4.319   0.000  0.00  0.00    +0.037 A 
ATOM     24  C   UNL     1      -3.285  -3.565   0.000  0.00  0.00    +0.147 A 
ATOM     30  C   UNL     1      -2.464  -3.479   0.000  0.00  0.00    +0.034 A 
BRANCH  24  25
ATOM     25  O   UNL     1      -3.770  -2.897   0.000  0.00  0.00    -0.404 OA
BRANCH  25  26
ATOM     26  C   UNL     1      -4.590  -2.984   0.000  0.00  0.00    +0.575 C 
ATOM     27  F   UNL     1      -5.411  -3.070   0.000  0.00  0.00    -0.133 F 
ATOM     28  F   UNL     1      -4.676  -2.163   0.000  0.00  0.00    -0.133 F 
ATOM     29  F   UNL     1      -4.504  -3.804   0.000  0.00  0.00    -0.133 F 
ENDBRANCH  25  26
ENDBRANCH  24  25
ENDBRANCH  19  20
ENDBRANCH  18  19
TORSDOF 6
