REMARK  Name = 
REMARK  5 active torsions:
REMARK  status: ('A' for Active; 'I' for Inactive)
REMARK    1  A    between atoms: C_2  and  N_4
REMARK    2  A    between atoms: N_7  and  C_8
REMARK    3  A    between atoms: C_8  and  C_9
REMARK    4  A    between atoms: C_12  and  N_13
REMARK    5  A    between atoms: N_13  and  C_14
REMARK                            x       y       z     vdW  Elec       q    Type
REMARK                         _______ _______ _______ _____ _____    ______ ____
ROOT
ATOM      9  C   UNL     1      10.342  -0.622   0.000  0.00  0.00    +0.169 C 
ATOM     10  O   UNL     1      10.429   0.198   0.000  0.00  0.00    -0.350 OA
ATOM     11  C   UNL     1      11.236   0.370   0.000  0.00  0.00    +0.162 C 
ATOM     12  C   UNL     1      11.648  -0.345   0.000  0.00  0.00    +0.135 C 
ATOM     19  C   UNL     1      11.096  -0.958   0.000  0.00  0.00    +0.199 C 
ATOM     20  O   UNL     1      11.268  -1.765   0.000  0.00  0.00    -0.219 OA
ENDROOT
BRANCH   9   8
ATOM      8  C   UNL     1       9.628  -1.035   0.000  0.00  0.00    +0.149 C 
BRANCH   8   7
ATOM      4  N   UNL     1       7.484  -0.622   0.000  0.00  0.00    -0.189 NA
ATOM      5  C   UNL     1       8.199  -1.035   0.000  0.00  0.00    +0.339 C 
ATOM      6  O   UNL     1       8.199  -1.860   0.000  0.00  0.00    -0.249 OA
ATOM      7  N   UNL     1       8.913  -0.622   0.000  0.00  0.00    -0.185 NA
BRANCH   4   2
ATOM      1  C   UNL     1       6.056  -0.622   0.000  0.00  0.00    +0.023 C 
ATOM      2  C   UNL     1       6.770  -1.035   0.000  0.00  0.00    +0.097 C 
ATOM      3  C   UNL     1       6.770  -1.860   0.000  0.00  0.00    +0.023 C 
ENDBRANCH   4   2
ENDBRANCH   8   7
ENDBRANCH   9   8
BRANCH  12  13
ATOM     13  N   UNL     1      12.469  -0.431   0.000  0.00  0.00    -0.216 NA
BRANCH  13  14
ATOM     14  C   UNL     1      12.804  -1.185   0.000  0.00  0.00    +0.073 C 
ATOM     15  C   UNL     1      13.611  -1.356   0.000  0.00  0.00    +0.017 C 
ATOM     16  C   UNL     1      13.697  -2.177   0.000  0.00  0.00    +0.001 C 
ATOM     17  C   UNL     1      12.944  -2.512   0.000  0.00  0.00    +0.001 C 
ATOM     18  C   UNL     1      12.392  -1.899   0.000  0.00  0.00    +0.017 C 
ENDBRANCH  13  14
ENDBRANCH  12  13
TORSDOF 5
