REMARK  Name = 
REMARK  3 active torsions:
REMARK  status: ('A' for Active; 'I' for Inactive)
REMARK    1  A    between atoms: C_2  and  C_4
REMARK    2  A    between atoms: C_4  and  N_5
REMARK    3  A    between atoms: N_8  and  C_15
REMARK                            x       y       z     vdW  Elec       q    Type
REMARK                         _______ _______ _______ _____ _____    ______ ____
ROOT
ATOM      5  N   UNL     1       0.715  -0.412   0.000  0.00  0.00    -0.267 N 
ATOM      6  C   UNL     1       0.000   0.000   0.000  0.00  0.00    +0.120 C 
ATOM      7  C   UNL     1      -0.785  -0.255   0.000  0.00  0.00    +0.095 C 
ATOM      8  N   UNL     1      -1.270   0.412   0.000  0.00  0.00    -0.270 NA
ATOM      9  C   UNL     1      -0.785   1.080   0.000  0.00  0.00    +0.104 C 
ATOM     10  C   UNL     1       0.000   0.825   0.000  0.00  0.00    +0.151 C 
ATOM     11  O   UNL     1       0.715   1.238   0.000  0.00  0.00    -0.344 OA
ATOM     12  C   UNL     1       1.429   0.825   0.000  0.00  0.00    +0.227 C 
ATOM     13  C   UNL     1       1.429   0.000   0.000  0.00  0.00    +0.256 C 
ATOM     14  O   UNL     1       2.143  -0.412   0.000  0.00  0.00    -0.272 OA
ENDROOT
BRANCH   8  15
ATOM     15  C   UNL     1      -2.095   0.412   0.000  0.00  0.00    +0.063 C 
ATOM     16  C   UNL     1      -2.507  -0.302   0.000  0.00  0.00    +0.048 C 
ATOM     17  C   UNL     1      -3.332  -0.302   0.000  0.00  0.00    +0.144 C 
ATOM     18  O   UNL     1      -3.744   0.412   0.000  0.00  0.00    -0.354 OA
ATOM     19  C   UNL     1      -3.332   1.127   0.000  0.00  0.00    +0.144 C 
ATOM     20  C   UNL     1      -2.507   1.127   0.000  0.00  0.00    +0.048 C 
ENDBRANCH   8  15
BRANCH   5   4
ATOM      4  C   UNL     1       0.715  -1.238   0.000  0.00  0.00    +0.183 C 
BRANCH   4   2
ATOM      1  N   UNL     1       1.429  -2.475   0.000  0.00  0.00    -0.086 NA
ATOM      2  C   UNL     1       1.429  -1.650   0.000  0.00  0.00    +0.281 C 
ATOM      3  O   UNL     1       2.143  -1.238   0.000  0.00  0.00    -0.270 OA
ENDBRANCH   4   2
ENDBRANCH   5   4
TORSDOF 3
