REMARK  Name = 
REMARK  4 active torsions:
REMARK  status: ('A' for Active; 'I' for Inactive)
REMARK    1  A    between atoms: O_2  and  C_3
REMARK    2  A    between atoms: C_3  and  C_4
REMARK    3  A    between atoms: C_4  and  O_5
REMARK    4  A    between atoms: O_5  and  C_6
REMARK                            x       y       z     vdW  Elec       q    Type
REMARK                         _______ _______ _______ _____ _____    ______ ____
ROOT
ATOM      6  C   UNL     1       3.026  -3.097   0.000  0.00  0.00    +0.162 C 
ATOM      7  C   UNL     1       3.708  -2.632   0.000  0.00  0.00    +0.121 C 
ATOM      8  N   UNL     1       4.496  -2.875   0.000  0.00  0.00    -0.213 NA
ATOM      9  C   UNL     1       4.797  -3.643   0.000  0.00  0.00    +0.121 C 
ATOM     10  C   UNL     1       4.385  -4.357   0.000  0.00  0.00    +0.161 C 
ATOM     11  O   UNL     1       3.569  -4.481   0.000  0.00  0.00    -0.350 OA
ATOM     12  C   UNL     1       2.964  -3.919   0.000  0.00  0.00    +0.173 C 
ENDROOT
BRANCH   6   5
ATOM      5  O   UNL     1       2.312  -2.684   0.000  0.00  0.00    -0.350 OA
BRANCH   5   4
ATOM      4  C   UNL     1       1.597  -3.097   0.000  0.00  0.00    +0.174 C 
BRANCH   4   3
ATOM      3  C   UNL     1       0.883  -2.684   0.000  0.00  0.00    +0.174 C 
BRANCH   3   2
ATOM      1  C   UNL     1      -0.546  -2.684   0.000  0.00  0.00    +0.174 C 
ATOM      2  O   UNL     1       0.168  -3.097   0.000  0.00  0.00    -0.348 OA
ENDBRANCH   3   2
ENDBRANCH   4   3
ENDBRANCH   5   4
ENDBRANCH   6   5
TORSDOF 4
