REMARK  Name = 
REMARK  2 active torsions:
REMARK  status: ('A' for Active; 'I' for Inactive)
REMARK    1  A    between atoms: C_7  and  C_8
REMARK    2  A    between atoms: C_10  and  C_13
REMARK                            x       y       z     vdW  Elec       q    Type
REMARK                         _______ _______ _______ _____ _____    ______ ____
ROOT
ATOM      8  C   UNL     1       2.751  -0.062   0.000  0.00  0.00    +0.156 A 
ATOM      9  N   UNL     1       3.419  -0.546   0.000  0.00  0.00    -0.232 NA
ATOM     10  C   UNL     1       3.164  -1.331   0.000  0.00  0.00    +0.079 A 
ATOM     11  C   UNL     1       2.339  -1.331   0.000  0.00  0.00    +0.115 A 
ATOM     12  N   UNL     1       2.084  -0.546   0.000  0.00  0.00    -0.227 NA
ENDROOT
BRANCH   8   7
ATOM      1  C   UNL     1       1.322   0.763   0.000  0.00  0.00    +0.090 C 
ATOM      2  N   UNL     1       2.037   1.176   0.000  0.00  0.00    -0.262 NA
ATOM      3  C   UNL     1       2.037   2.001   0.000  0.00  0.00    +0.105 C 
ATOM      4  C   UNL     1       2.751   2.413   0.000  0.00  0.00    +0.160 C 
ATOM      5  O   UNL     1       3.466   2.001   0.000  0.00  0.00    -0.350 OA
ATOM      6  C   UNL     1       3.466   1.176   0.000  0.00  0.00    +0.166 C 
ATOM      7  C   UNL     1       2.751   0.763   0.000  0.00  0.00    +0.147 C 
ENDBRANCH   8   7
BRANCH  10  13
ATOM     13  C   UNL     1       3.649  -1.999   0.000  0.00  0.00    +0.037 C 
ATOM     14  C   UNL     1       4.133  -2.666   0.000  0.00  0.00    +0.006 C 
ATOM     15  C   UNL     1       2.981  -2.483   0.000  0.00  0.00    +0.006 C 
ATOM     16  C   UNL     1       4.316  -1.514   0.000  0.00  0.00    +0.006 C 
ENDBRANCH  10  13
TORSDOF 2
