REMARK  Name = 
REMARK  7 active torsions:
REMARK  status: ('A' for Active; 'I' for Inactive)
REMARK    1  A    between atoms: O_2  and  C_3
REMARK    2  A    between atoms: C_6  and  N_7
REMARK    3  A    between atoms: C_8  and  O_10
REMARK    4  A    between atoms: O_10  and  C_11
REMARK    5  A    between atoms: C_15  and  N_19
REMARK    6  A    between atoms: N_22  and  C_23
REMARK    7  A    between atoms: C_26  and  C_29
REMARK                            x       y       z     vdW  Elec       q    Type
REMARK                         _______ _______ _______ _____ _____    ______ ____
ROOT
ATOM     11  C   UNL     1       1.270  -0.922   0.000  0.00  0.00    +0.229 C 
ATOM     12  C   UNL     1       0.785  -0.255   0.000  0.00  0.00    +0.188 C 
ATOM     13  O   UNL     1       1.270   0.412   0.000  0.00  0.00    -0.348 OA
ATOM     14  C   UNL     1       2.054   0.158   0.000  0.00  0.00    +0.168 C 
ATOM     15  C   UNL     1       2.839   0.412   0.000  0.00  0.00    +0.156 C 
ATOM     16  C   UNL     1       3.324  -0.255   0.000  0.00  0.00    +0.166 C 
ATOM     17  O   UNL     1       2.839  -0.922   0.000  0.00  0.00    -0.348 OA
ATOM     18  C   UNL     1       2.054  -0.667   0.000  0.00  0.00    +0.186 C 
ENDROOT
BRANCH  15  19
ATOM     19  N   UNL     1       3.094   1.197   0.000  0.00  0.00    -0.184 NA
ATOM     20  C   UNL     1       3.901   1.369   0.000  0.00  0.00    +0.344 C 
ATOM     21  O   UNL     1       4.453   0.756   0.000  0.00  0.00    -0.249 OA
ATOM     22  N   UNL     1       4.156   2.153   0.000  0.00  0.00    -0.161 NA
BRANCH  22  23
ATOM     23  C   UNL     1       4.963   2.325   0.000  0.00  0.00    +0.075 A 
ATOM     24  C   UNL     1       5.218   3.109   0.000  0.00  0.00    +0.017 A 
ATOM     25  C   UNL     1       6.024   3.281   0.000  0.00  0.00    +0.004 A 
ATOM     26  C   UNL     1       6.577   2.668   0.000  0.00  0.00    +0.035 A 
ATOM     27  C   UNL     1       6.322   1.883   0.000  0.00  0.00    +0.004 A 
ATOM     28  C   UNL     1       5.515   1.712   0.000  0.00  0.00    +0.017 A 
BRANCH  26  29
ATOM     29  C   UNL     1       7.383   2.839   0.000  0.00  0.00    +0.173 C 
ATOM     30  C   UNL     1       7.638   3.624   0.000  0.00  0.00    +0.077 C 
ATOM     31  O   UNL     1       7.936   2.226   0.000  0.00  0.00    -0.291 OA
ENDBRANCH  26  29
ENDBRANCH  22  23
ENDBRANCH  15  19
BRANCH  11  10
ATOM     10  O   UNL     1       1.015  -1.707   0.000  0.00  0.00    -0.432 OA
BRANCH  10   8
ATOM      7  N   UNL     1      -0.047  -2.663   0.000  0.00  0.00    -0.142 NA
ATOM      8  C   UNL     1       0.208  -1.879   0.000  0.00  0.00    +0.425 C 
ATOM      9  O   UNL     1      -0.344  -1.265   0.000  0.00  0.00    -0.224 OA
BRANCH   7   6
ATOM      3  C   UNL     1      -2.468  -3.178   0.000  0.00  0.00    +0.139 A 
ATOM      4  C   UNL     1      -2.213  -2.393   0.000  0.00  0.00    +0.038 A 
ATOM      5  C   UNL     1      -1.406  -2.222   0.000  0.00  0.00    +0.020 A 
ATOM      6  C   UNL     1      -0.854  -2.835   0.000  0.00  0.00    +0.077 A 
ATOM     32  C   UNL     1      -1.109  -3.619   0.000  0.00  0.00    +0.020 A 
ATOM     33  C   UNL     1      -1.916  -3.791   0.000  0.00  0.00    +0.038 A 
BRANCH   3   2
ATOM      1  C   UNL     1      -3.530  -4.134   0.000  0.00  0.00    +0.252 C 
ATOM      2  O   UNL     1      -3.275  -3.349   0.000  0.00  0.00    -0.471 OA
ENDBRANCH   3   2
ENDBRANCH   7   6
ENDBRANCH  10   8
ENDBRANCH  11  10
TORSDOF 7
