REMARK  Name = 
REMARK  9 active torsions:
REMARK  status: ('A' for Active; 'I' for Inactive)
REMARK    1  A    between atoms: O_2  and  C_3
REMARK    2  A    between atoms: C_3  and  C_4
REMARK    3  A    between atoms: C_4  and  O_5
REMARK    4  A    between atoms: O_5  and  C_6
REMARK    5  A    between atoms: C_9  and  C_12
REMARK    6  A    between atoms: C_15  and  C_17
REMARK    7  A    between atoms: N_21  and  C_22
REMARK    8  A    between atoms: C_22  and  C_23
REMARK    9  A    between atoms: C_27  and  O_28
REMARK                            x       y       z     vdW  Elec       q    Type
REMARK                         _______ _______ _______ _____ _____    ______ ____
ROOT
ATOM     12  C   UNL     1       0.381  -2.790   0.000  0.00  0.00    +0.205 A 
ATOM     13  N   UNL     1      -0.287  -3.275   0.000  0.00  0.00    -0.056 NA
ATOM     14  O   UNL     1      -0.032  -4.060   0.000  0.00  0.00    -0.336 OA
ATOM     15  C   UNL     1       0.793  -4.060   0.000  0.00  0.00    +0.251 A 
ATOM     16  N   UNL     1       1.048  -3.275   0.000  0.00  0.00    -0.190 NA
ENDROOT
BRANCH  12   9
ATOM      6  C   UNL     1       0.381  -0.315   0.000  0.00  0.00    +0.225 A 
ATOM      7  C   UNL     1       1.095  -0.728   0.000  0.00  0.00    +0.058 A 
ATOM      8  C   UNL     1       1.095  -1.553   0.000  0.00  0.00    +0.010 A 
ATOM      9  C   UNL     1       0.381  -1.965   0.000  0.00  0.00    +0.058 A 
ATOM     10  C   UNL     1      -0.334  -1.553   0.000  0.00  0.00    +0.105 A 
ATOM     11  N   UNL     1      -0.334  -0.728   0.000  0.00  0.00    -0.210 NA
BRANCH   6   5
ATOM      5  O   UNL     1       0.381   0.510   0.000  0.00  0.00    -0.457 OA
BRANCH   5   4
ATOM      4  C   UNL     1      -0.334   0.922   0.000  0.00  0.00    +0.239 C 
BRANCH   4   3
ATOM      3  C   UNL     1      -0.334   1.747   0.000  0.00  0.00    +0.189 C 
BRANCH   3   2
ATOM      1  C   UNL     1      -1.048   2.985   0.000  0.00  0.00    +0.174 C 
ATOM      2  O   UNL     1      -1.048   2.160   0.000  0.00  0.00    -0.347 OA
ENDBRANCH   3   2
ENDBRANCH   4   3
ENDBRANCH   5   4
ENDBRANCH   6   5
ENDBRANCH  12   9
BRANCH  15  17
ATOM     17  C   UNL     1       1.278  -4.727   0.000  0.00  0.00    +0.138 C 
ATOM     18  C   UNL     1       1.023  -5.512   0.000  0.00  0.00    +0.027 C 
ATOM     19  C   UNL     1       1.690  -5.997   0.000  0.00  0.00    +0.019 C 
ATOM     20  C   UNL     1       2.358  -5.512   0.000  0.00  0.00    +0.073 C 
ATOM     21  N   UNL     1       2.103  -4.727   0.000  0.00  0.00    -0.263 NA
BRANCH  21  22
ATOM     22  C   UNL     1       2.588  -4.060   0.000  0.00  0.00    +0.103 C 
BRANCH  22  23
ATOM     23  C   UNL     1       3.408  -4.146   0.000  0.00  0.00    +0.033 A 
ATOM     24  C   UNL     1       3.893  -3.479   0.000  0.00  0.00    +0.196 A 
ATOM     25  O   UNL     1       3.558  -2.725   0.000  0.00  0.00    -0.287 OA
ATOM     26  C   UNL     1       4.714  -3.565   0.000  0.00  0.00    +0.079 A 
ATOM     27  C   UNL     1       5.049  -4.319   0.000  0.00  0.00    +0.142 A 
ATOM     30  C   UNL     1       4.564  -4.986   0.000  0.00  0.00    +0.037 A 
ATOM     31  C   UNL     1       3.744  -4.900   0.000  0.00  0.00    +0.003 A 
BRANCH  27  28
ATOM     28  O   UNL     1       5.870  -4.405   0.000  0.00  0.00    -0.471 OA
ATOM     29  C   UNL     1       6.205  -5.159   0.000  0.00  0.00    +0.252 C 
ENDBRANCH  27  28
ENDBRANCH  22  23
ENDBRANCH  21  22
ENDBRANCH  15  17
TORSDOF 9
