REMARK  Name = 
REMARK  6 active torsions:
REMARK  status: ('A' for Active; 'I' for Inactive)
REMARK    1  A    between atoms: C_5  and  S_8
REMARK    2  A    between atoms: S_8  and  C_11
REMARK    3  A    between atoms: C_11  and  C_12
REMARK    4  A    between atoms: C_15  and  C_17
REMARK    5  A    between atoms: N_22  and  C_23
REMARK    6  A    between atoms: C_23  and  C_24
REMARK                            x       y       z     vdW  Elec       q    Type
REMARK                         _______ _______ _______ _____ _____    ______ ____
ROOT
ATOM     12  C   UNL     1       0.381  -2.790   0.000  0.00  0.00    +0.205 A 
ATOM     13  N   UNL     1      -0.287  -3.275   0.000  0.00  0.00    -0.059 NA
ATOM     14  O   UNL     1      -0.032  -4.060   0.000  0.00  0.00    -0.336 OA
ATOM     15  C   UNL     1       0.793  -4.060   0.000  0.00  0.00    +0.251 A 
ATOM     16  N   UNL     1       1.048  -3.275   0.000  0.00  0.00    -0.192 NA
ENDROOT
BRANCH  15  17
ATOM     17  C   UNL     1       1.278  -4.727   0.000  0.00  0.00    +0.140 C 
ATOM     18  C   UNL     1       1.023  -5.512   0.000  0.00  0.00    +0.060 C 
ATOM     19  C   UNL     1       1.690  -5.997   0.000  0.00  0.00    +0.170 C 
ATOM     20  O   UNL     1       1.690  -6.822   0.000  0.00  0.00    -0.222 OA
ATOM     21  C   UNL     1       2.358  -5.512   0.000  0.00  0.00    +0.106 C 
ATOM     22  N   UNL     1       2.103  -4.727   0.000  0.00  0.00    -0.260 NA
BRANCH  22  23
ATOM     23  C   UNL     1       2.588  -4.060   0.000  0.00  0.00    +0.100 C 
BRANCH  23  24
ATOM     24  C   UNL     1       3.408  -4.146   0.000  0.00  0.00    -0.006 A 
ATOM     25  C   UNL     1       3.893  -3.479   0.000  0.00  0.00    -0.001 A 
ATOM     26  C   UNL     1       4.714  -3.565   0.000  0.00  0.00    +0.029 A 
ATOM     27  C   UNL     1       5.049  -4.319   0.000  0.00  0.00    +0.140 A 
ATOM     28  F   UNL     1       5.870  -4.405   0.000  0.00  0.00    -0.204 F 
ATOM     29  C   UNL     1       4.564  -4.986   0.000  0.00  0.00    +0.029 A 
ATOM     30  C   UNL     1       3.744  -4.900   0.000  0.00  0.00    -0.001 A 
ENDBRANCH  23  24
ENDBRANCH  22  23
ENDBRANCH  15  17
BRANCH  12  11
ATOM     11  C   UNL     1       0.381  -1.965   0.000  0.00  0.00    +0.224 C 
BRANCH  11   8
ATOM      8  S   UNL     1      -0.334  -1.553   0.000  0.00  0.00    +0.016 S 
ATOM      9  O   UNL     1       0.079  -0.838   0.000  0.00  0.00    -0.168 OA
ATOM     10  O   UNL     1      -0.746  -2.267   0.000  0.00  0.00    -0.168 OA
BRANCH   8   5
ATOM      1  C   UNL     1      -3.192   0.097   0.000  0.00  0.00    +0.031 C 
ATOM      2  C   UNL     1      -2.477  -0.315   0.000  0.00  0.00    -0.022 A 
ATOM      3  C   UNL     1      -1.763   0.097   0.000  0.00  0.00    -0.003 A 
ATOM      4  C   UNL     1      -1.048  -0.315   0.000  0.00  0.00    +0.018 A 
ATOM      5  C   UNL     1      -1.048  -1.140   0.000  0.00  0.00    +0.106 A 
ATOM      6  C   UNL     1      -1.763  -1.553   0.000  0.00  0.00    +0.018 A 
ATOM      7  C   UNL     1      -2.477  -1.140   0.000  0.00  0.00    -0.003 A 
ENDBRANCH   8   5
ENDBRANCH  11   8
ENDBRANCH  12  11
TORSDOF 6
