REMARK  Name = 
REMARK  6 active torsions:
REMARK  status: ('A' for Active; 'I' for Inactive)
REMARK    1  A    between atoms: N_2  and  C_3
REMARK    2  A    between atoms: C_3  and  C_4
REMARK    3  A    between atoms: C_10  and  C_12
REMARK    4  A    between atoms: N_17  and  C_18
REMARK    5  A    between atoms: C_18  and  C_19
REMARK    6  A    between atoms: C_22  and  C_25
REMARK                            x       y       z     vdW  Elec       q    Type
REMARK                         _______ _______ _______ _____ _____    ______ ____
ROOT
ATOM     12  C   UNL     1       2.070   1.110   0.000  0.00  0.00    +0.142 C 
ATOM     13  C   UNL     1       1.356   0.698   0.000  0.00  0.00    +0.072 C 
ATOM     14  C   UNL     1       0.641   1.110   0.000  0.00  0.00    +0.077 A 
ATOM     15  C   UNL     1       0.641   1.935   0.000  0.00  0.00    +0.090 A 
ATOM     16  C   UNL     1       1.356   2.348   0.000  0.00  0.00    +0.121 C 
ATOM     17  N   UNL     1       2.070   1.935   0.000  0.00  0.00    -0.257 NA
ATOM     28  N   UNL     1      -0.143   2.190   0.000  0.00  0.00    -0.226 NA
ATOM     29  C   UNL     1      -0.628   1.523   0.000  0.00  0.00    +0.198 A 
ATOM     30  N   UNL     1      -0.143   0.856   0.000  0.00  0.00    -0.227 NA
ENDROOT
BRANCH  12  10
ATOM      1  C   UNL     1       2.070  -0.540   0.000  0.00  0.00    +0.115 C 
ATOM      2  N   UNL     1       2.784  -0.127   0.000  0.00  0.00    -0.273 N 
ATOM     10  C   UNL     1       2.784   0.698   0.000  0.00  0.00    +0.241 C 
ATOM     11  O   UNL     1       3.499   1.110   0.000  0.00  0.00    -0.273 OA
BRANCH   2   3
ATOM      3  C   UNL     1       3.499  -0.540   0.000  0.00  0.00    +0.120 C 
BRANCH   3   4
ATOM      4  C   UNL     1       3.499  -1.365   0.000  0.00  0.00    -0.002 A 
ATOM      5  C   UNL     1       4.213  -1.777   0.000  0.00  0.00    -0.003 A 
ATOM      6  C   UNL     1       4.213  -2.602   0.000  0.00  0.00    -0.000 A 
ATOM      7  C   UNL     1       3.499  -3.015   0.000  0.00  0.00    -0.000 A 
ATOM      8  C   UNL     1       2.784  -2.602   0.000  0.00  0.00    -0.000 A 
ATOM      9  C   UNL     1       2.784  -1.777   0.000  0.00  0.00    -0.003 A 
ENDBRANCH   3   4
ENDBRANCH   2   3
ENDBRANCH  12  10
BRANCH  17  18
ATOM     18  C   UNL     1       2.784   2.348   0.000  0.00  0.00    +0.100 C 
BRANCH  18  19
ATOM     19  C   UNL     1       2.784   3.173   0.000  0.00  0.00    -0.006 A 
ATOM     20  C   UNL     1       2.070   3.585   0.000  0.00  0.00    -0.003 A 
ATOM     21  C   UNL     1       2.070   4.410   0.000  0.00  0.00    +0.006 A 
ATOM     22  C   UNL     1       2.784   4.823   0.000  0.00  0.00    +0.080 A 
ATOM     23  C   UNL     1       3.499   4.410   0.000  0.00  0.00    +0.006 A 
ATOM     24  C   UNL     1       3.499   3.585   0.000  0.00  0.00    -0.003 A 
BRANCH  22  25
ATOM     25  C   UNL     1       2.784   5.648   0.000  0.00  0.00    +0.388 C 
ATOM     26  O   UNL     1       2.070   6.060   0.000  0.00  0.00    -0.241 OA
ATOM     27  O   UNL     1       3.499   6.060   0.000  0.00  0.00    -0.241 OA
ENDBRANCH  22  25
ENDBRANCH  18  19
ENDBRANCH  17  18
TORSDOF 6
