REMARK  Name = 
REMARK  5 active torsions:
REMARK  status: ('A' for Active; 'I' for Inactive)
REMARK    1  A    between atoms: N_3  and  C_4
REMARK    2  A    between atoms: C_9  and  C_10
REMARK    3  A    between atoms: C_10  and  C_11
REMARK    4  A    between atoms: C_11  and  C_12
REMARK    5  A    between atoms: N_27  and  C_28
REMARK                            x       y       z     vdW  Elec       q    Type
REMARK                         _______ _______ _______ _____ _____    ______ ____
ROOT
ATOM      4  C   UNL     1       0.810  -6.101   0.000  0.00  0.00    +0.115 C 
ATOM      5  C   UNL     1       1.617  -6.273   0.000  0.00  0.00    +0.049 C 
ATOM      6  C   UNL     1       2.030  -5.559   0.000  0.00  0.00    +0.138 C 
ATOM      7  N   UNL     1       1.478  -4.945   0.000  0.00  0.00    -0.265 NA
ATOM      8  C   UNL     1       0.724  -5.281   0.000  0.00  0.00    +0.094 C 
ATOM      9  C   UNL     1       1.733  -4.161   0.000  0.00  0.00    +0.080 C 
ATOM     23  C   UNL     1       2.540  -3.989   0.000  0.00  0.00    +0.131 C 
ATOM     24  N   UNL     1       3.092  -4.602   0.000  0.00  0.00    -0.203 NA
ATOM     25  C   UNL     1       2.837  -5.387   0.000  0.00  0.00    +0.256 C 
ATOM     26  O   UNL     1       3.389  -6.000   0.000  0.00  0.00    -0.272 OA
ENDROOT
BRANCH   4   3
ATOM      1  O   UNL     1      -0.759  -5.592   0.000  0.00  0.00    -0.249 OA
ATOM      2  C   UNL     1      -0.587  -6.399   0.000  0.00  0.00    +0.344 C 
ATOM      3  N   UNL     1       0.197  -6.654   0.000  0.00  0.00    -0.187 NA
ATOM     27  N   UNL     1      -1.200  -6.951   0.000  0.00  0.00    -0.160 NA
BRANCH  27  28
ATOM     28  C   UNL     1      -1.985  -6.696   0.000  0.00  0.00    +0.082 A 
ATOM     29  C   UNL     1      -2.652  -7.181   0.000  0.00  0.00    +0.052 A 
ATOM     30  S   UNL     1      -3.320  -6.696   0.000  0.00  0.00    -0.085 S 
ATOM     31  C   UNL     1      -3.065  -5.911   0.000  0.00  0.00    +0.037 A 
ATOM     32  C   UNL     1      -2.240  -5.911   0.000  0.00  0.00    +0.024 A 
ENDBRANCH  27  28
ENDBRANCH   4   3
BRANCH   9  10
ATOM     10  C   UNL     1       1.181  -3.548   0.000  0.00  0.00    +0.027 C 
BRANCH  10  11
ATOM     11  C   UNL     1       1.436  -2.763   0.000  0.00  0.00    +0.087 C 
BRANCH  11  12
ATOM     12  C   UNL     1       0.884  -2.150   0.000  0.00  0.00    +0.229 C 
ATOM     13  O   UNL     1       0.077  -2.321   0.000  0.00  0.00    -0.275 OA
ATOM     14  N   UNL     1       1.139  -1.365   0.000  0.00  0.00    -0.259 N 
ATOM     15  C   UNL     1       0.654  -0.698   0.000  0.00  0.00    +0.103 C 
ATOM     16  C   UNL     1       1.139  -0.030   0.000  0.00  0.00    +0.049 C 
ATOM     17  C   UNL     1       1.923  -0.285   0.000  0.00  0.00    -0.007 A 
ATOM     18  C   UNL     1       2.638   0.127   0.000  0.00  0.00    -0.003 A 
ATOM     19  C   UNL     1       3.352  -0.285   0.000  0.00  0.00    -0.000 A 
ATOM     20  C   UNL     1       3.352  -1.110   0.000  0.00  0.00    +0.001 A 
ATOM     21  C   UNL     1       2.638  -1.523   0.000  0.00  0.00    +0.015 A 
ATOM     22  C   UNL     1       1.923  -1.110   0.000  0.00  0.00    +0.050 A 
ENDBRANCH  11  12
ENDBRANCH  10  11
ENDBRANCH   9  10
TORSDOF 5
