REMARK  Name = 
REMARK  8 active torsions:
REMARK  status: ('A' for Active; 'I' for Inactive)
REMARK    1  A    between atoms: C_2  and  C_4
REMARK    2  A    between atoms: C_4  and  C_5
REMARK    3  A    between atoms: C_5  and  N_6
REMARK    4  A    between atoms: C_5  and  C_23
REMARK    5  A    between atoms: C_7  and  C_9
REMARK    6  A    between atoms: C_11  and  N_12
REMARK    7  A    between atoms: C_13  and  C_15
REMARK    8  A    between atoms: C_15  and  C_16
REMARK                            x       y       z     vdW  Elec       q    Type
REMARK                         _______ _______ _______ _____ _____    ______ ____
ROOT
ATOM      9  C   UNL     1       5.716  -4.125   0.000  0.00  0.00    +0.033 C 
ATOM     10  C   UNL     1       6.430  -3.712   0.000  0.00  0.00    -0.002 C 
ATOM     11  C   UNL     1       7.145  -4.125   0.000  0.00  0.00    +0.150 C 
ATOM     18  C   UNL     1       7.145  -4.950   0.000  0.00  0.00    +0.206 C 
ATOM     19  O   UNL     1       7.859  -5.362   0.000  0.00  0.00    -0.218 OA
ATOM     20  C   UNL     1       6.430  -5.362   0.000  0.00  0.00    +0.189 C 
ATOM     21  O   UNL     1       6.430  -6.188   0.000  0.00  0.00    -0.220 OA
ATOM     22  C   UNL     1       5.716  -4.950   0.000  0.00  0.00    +0.066 C 
ENDROOT
BRANCH   9   7
ATOM      6  N   UNL     1       4.287  -4.125   0.000  0.00  0.00    -0.194 NA
ATOM      7  C   UNL     1       5.001  -3.712   0.000  0.00  0.00    +0.261 C 
ATOM      8  O   UNL     1       5.001  -2.888   0.000  0.00  0.00    -0.269 OA
BRANCH   6   5
ATOM      5  C   UNL     1       3.572  -3.712   0.000  0.00  0.00    +0.175 C 
BRANCH   5  23
ATOM     23  C   UNL     1       3.572  -2.888   0.000  0.00  0.00    +0.281 C 
ATOM     24  N   UNL     1       4.287  -2.475   0.000  0.00  0.00    -0.086 NA
ATOM     25  O   UNL     1       2.858  -2.475   0.000  0.00  0.00    -0.270 OA
ENDBRANCH   5  23
BRANCH   5   4
ATOM      4  C   UNL     1       2.858  -4.125   0.000  0.00  0.00    +0.031 C 
BRANCH   4   2
ATOM      1  C   UNL     1       1.429  -4.125   0.000  0.00  0.00    +0.000 C 
ATOM      2  C   UNL     1       2.143  -3.712   0.000  0.00  0.00    +0.002 C 
ATOM      3  C   UNL     1       2.143  -2.888   0.000  0.00  0.00    +0.000 C 
ENDBRANCH   4   2
ENDBRANCH   5   4
ENDBRANCH   6   5
ENDBRANCH   9   7
BRANCH  11  12
ATOM     12  N   UNL     1       7.859  -3.712   0.000  0.00  0.00    -0.200 NA
ATOM     13  C   UNL     1       8.574  -4.125   0.000  0.00  0.00    +0.243 C 
ATOM     14  O   UNL     1       8.574  -4.950   0.000  0.00  0.00    -0.273 OA
BRANCH  13  15
ATOM     15  C   UNL     1       9.288  -3.712   0.000  0.00  0.00    +0.107 C 
BRANCH  15  16
ATOM     16  C   UNL     1      10.003  -4.125   0.000  0.00  0.00    +0.119 C 
ATOM     17  N   UNL     1      10.717  -3.712   0.000  0.00  0.00    -0.131 NA
ENDBRANCH  15  16
ENDBRANCH  13  15
ENDBRANCH  11  12
TORSDOF 8
