REMARK  Name = 
REMARK  6 active torsions:
REMARK  status: ('A' for Active; 'I' for Inactive)
REMARK    1  A    between atoms: C_2  and  N_4
REMARK    2  A    between atoms: N_7  and  C_8
REMARK    3  A    between atoms: C_8  and  C_9
REMARK    4  A    between atoms: C_11  and  C_12
REMARK    5  A    between atoms: C_12  and  C_13
REMARK    6  A    between atoms: C_16  and  C_18
REMARK                            x       y       z     vdW  Elec       q    Type
REMARK                         _______ _______ _______ _____ _____    ______ ____
ROOT
ATOM      9  C   UNL     1       0.560  -6.947   0.000  0.00  0.00    +0.167 C 
ATOM     10  O   UNL     1       1.275  -6.534   0.000  0.00  0.00    -0.354 OA
ATOM     11  C   UNL     1       1.989  -6.947   0.000  0.00  0.00    +0.121 C 
ATOM     25  C   UNL     1       1.989  -7.772   0.000  0.00  0.00    +0.033 C 
ATOM     26  C   UNL     1       1.275  -8.184   0.000  0.00  0.00    +0.038 C 
ATOM     27  C   UNL     1       0.560  -7.772   0.000  0.00  0.00    +0.181 C 
ATOM     28  O   UNL     1      -0.154  -8.184   0.000  0.00  0.00    -0.220 OA
ENDROOT
BRANCH   9   8
ATOM      8  C   UNL     1      -0.154  -6.534   0.000  0.00  0.00    +0.149 C 
BRANCH   8   7
ATOM      4  N   UNL     1      -2.298  -6.947   0.000  0.00  0.00    -0.189 NA
ATOM      5  C   UNL     1      -1.583  -6.534   0.000  0.00  0.00    +0.339 C 
ATOM      6  O   UNL     1      -1.583  -5.709   0.000  0.00  0.00    -0.249 OA
ATOM      7  N   UNL     1      -0.869  -6.947   0.000  0.00  0.00    -0.185 NA
BRANCH   4   2
ATOM      1  C   UNL     1      -3.727  -6.947   0.000  0.00  0.00    +0.023 C 
ATOM      2  C   UNL     1      -3.012  -6.534   0.000  0.00  0.00    +0.097 C 
ATOM      3  C   UNL     1      -3.012  -5.709   0.000  0.00  0.00    +0.023 C 
ENDBRANCH   4   2
ENDBRANCH   8   7
ENDBRANCH   9   8
BRANCH  11  12
ATOM     12  C   UNL     1       2.704  -6.534   0.000  0.00  0.00    +0.079 C 
BRANCH  12  13
ATOM     13  C   UNL     1       2.704  -5.709   0.000  0.00  0.00    +0.103 A 
ATOM     14  N   UNL     1       2.036  -5.224   0.000  0.00  0.00    -0.081 NA
ATOM     15  O   UNL     1       2.291  -4.440   0.000  0.00  0.00    -0.354 OA
ATOM     16  C   UNL     1       3.116  -4.440   0.000  0.00  0.00    +0.177 A 
ATOM     17  C   UNL     1       3.371  -5.224   0.000  0.00  0.00    +0.058 A 
BRANCH  16  18
ATOM     18  C   UNL     1       3.601  -3.772   0.000  0.00  0.00    +0.037 A 
ATOM     19  C   UNL     1       3.265  -3.018   0.000  0.00  0.00    +0.005 A 
ATOM     20  C   UNL     1       3.750  -2.351   0.000  0.00  0.00    +0.030 A 
ATOM     21  C   UNL     1       4.571  -2.437   0.000  0.00  0.00    +0.140 A 
ATOM     22  F   UNL     1       5.056  -1.770   0.000  0.00  0.00    -0.204 F 
ATOM     23  C   UNL     1       4.906  -3.191   0.000  0.00  0.00    +0.030 A 
ATOM     24  C   UNL     1       4.421  -3.858   0.000  0.00  0.00    +0.005 A 
ENDBRANCH  16  18
ENDBRANCH  12  13
ENDBRANCH  11  12
TORSDOF 6
