REMARK  Name = 
REMARK  6 active torsions:
REMARK  status: ('A' for Active; 'I' for Inactive)
REMARK    1  A    between atoms: N_4  and  C_5
REMARK    2  A    between atoms: C_8  and  S_11
REMARK    3  A    between atoms: S_11  and  N_14
REMARK    4  A    between atoms: N_14  and  C_15
REMARK    5  A    between atoms: C_19  and  N_23
REMARK    6  A    between atoms: C_26  and  C_30
REMARK                            x       y       z     vdW  Elec       q    Type
REMARK                         _______ _______ _______ _____ _____    ______ ____
ROOT
ATOM     15  C   UNL     1       5.193  -3.590   0.000  0.00  0.00    +0.157 C 
ATOM     16  C   UNL     1       4.439  -3.925   0.000  0.00  0.00    +0.164 C 
ATOM     17  O   UNL     1       3.887  -3.312   0.000  0.00  0.00    -0.350 OA
ATOM     18  C   UNL     1       4.300  -2.598   0.000  0.00  0.00    +0.166 C 
ATOM     19  C   UNL     1       4.213  -1.777   0.000  0.00  0.00    +0.154 C 
ATOM     20  C   UNL     1       4.967  -1.442   0.000  0.00  0.00    +0.166 C 
ATOM     21  O   UNL     1       5.519  -2.055   0.000  0.00  0.00    -0.350 OA
ATOM     22  C   UNL     1       5.107  -2.769   0.000  0.00  0.00    +0.164 C 
ENDROOT
BRANCH  19  23
ATOM     23  N   UNL     1       3.499  -1.365   0.000  0.00  0.00    -0.200 NA
ATOM     24  C   UNL     1       3.499  -0.540   0.000  0.00  0.00    +0.237 A 
ATOM     25  N   UNL     1       2.784  -0.127   0.000  0.00  0.00    -0.212 NA
ATOM     26  C   UNL     1       2.784   0.698   0.000  0.00  0.00    +0.086 A 
ATOM     27  C   UNL     1       3.499   1.110   0.000  0.00  0.00    +0.040 A 
ATOM     28  C   UNL     1       4.213   0.698   0.000  0.00  0.00    +0.103 A 
ATOM     29  N   UNL     1       4.213  -0.127   0.000  0.00  0.00    -0.211 NA
BRANCH  26  30
ATOM     30  C   UNL     1       2.070   1.110   0.000  0.00  0.00    +0.021 A 
ATOM     31  C   UNL     1       1.356   0.698   0.000  0.00  0.00    +0.042 A 
ATOM     32  C   UNL     1       0.641   1.110   0.000  0.00  0.00    +0.176 A 
ATOM     33  C   UNL     1       0.641   1.935   0.000  0.00  0.00    +0.176 A 
ATOM     34  O   UNL     1      -0.143   2.190   0.000  0.00  0.00    -0.435 OA
ATOM     35  C   UNL     1      -0.628   1.523   0.000  0.00  0.00    +0.429 C 
ATOM     36  O   UNL     1      -0.143   0.856   0.000  0.00  0.00    -0.435 OA
ATOM     37  C   UNL     1       1.356   2.348   0.000  0.00  0.00    +0.040 A 
ATOM     38  C   UNL     1       2.070   1.935   0.000  0.00  0.00    +0.005 A 
ENDBRANCH  26  30
ENDBRANCH  19  23
BRANCH  15  14
ATOM     14  N   UNL     1       5.907  -4.002   0.000  0.00  0.00    -0.074 NA
BRANCH  14  11
ATOM     11  S   UNL     1       5.907  -4.827   0.000  0.00  0.00    +0.077 S 
ATOM     12  O   UNL     1       6.732  -4.827   0.000  0.00  0.00    -0.152 OA
ATOM     13  O   UNL     1       5.082  -4.827   0.000  0.00  0.00    -0.152 OA
BRANCH  11   8
ATOM      5  C   UNL     1       5.907  -7.302   0.000  0.00  0.00    +0.073 A 
ATOM      6  C   UNL     1       5.193  -6.889   0.000  0.00  0.00    +0.018 A 
ATOM      7  C   UNL     1       5.193  -6.064   0.000  0.00  0.00    +0.021 A 
ATOM      8  C   UNL     1       5.907  -5.652   0.000  0.00  0.00    +0.124 A 
ATOM      9  C   UNL     1       6.622  -6.064   0.000  0.00  0.00    +0.021 A 
ATOM     10  C   UNL     1       6.622  -6.889   0.000  0.00  0.00    +0.018 A 
BRANCH   5   4
ATOM      1  C   UNL     1       6.622  -9.364   0.000  0.00  0.00    +0.097 C 
ATOM      2  C   UNL     1       6.622  -8.540   0.000  0.00  0.00    +0.246 C 
ATOM      3  O   UNL     1       7.336  -8.127   0.000  0.00  0.00    -0.273 OA
ATOM      4  N   UNL     1       5.907  -8.127   0.000  0.00  0.00    -0.179 NA
ENDBRANCH   5   4
ENDBRANCH  11   8
ENDBRANCH  14  11
ENDBRANCH  15  14
TORSDOF 6
