REMARK  Name = 
REMARK  7 active torsions:
REMARK  status: ('A' for Active; 'I' for Inactive)
REMARK    1  A    between atoms: O_2  and  C_3
REMARK    2  A    between atoms: C_8  and  C_10
REMARK    3  A    between atoms: N_12  and  C_13
REMARK    4  A    between atoms: C_15  and  C_21
REMARK    5  A    between atoms: N_23  and  C_24
REMARK    6  A    between atoms: C_24  and  C_25
REMARK    7  A    between atoms: C_25  and  C_26
REMARK                            x       y       z     vdW  Elec       q    Type
REMARK                         _______ _______ _______ _____ _____    ______ ____
ROOT
ATOM     13  C   UNL     1      -2.143   2.888   0.000  0.00  0.00    +0.150 C 
ATOM     14  C   UNL     1      -1.429   2.475   0.000  0.00  0.00    -0.002 C 
ATOM     15  C   UNL     1      -1.429   1.650   0.000  0.00  0.00    +0.033 C 
ATOM     16  C   UNL     1      -2.143   1.238   0.000  0.00  0.00    +0.066 C 
ATOM     17  C   UNL     1      -2.858   1.650   0.000  0.00  0.00    +0.189 C 
ATOM     18  O   UNL     1      -3.572   1.238   0.000  0.00  0.00    -0.220 OA
ATOM     19  C   UNL     1      -2.858   2.475   0.000  0.00  0.00    +0.206 C 
ATOM     20  O   UNL     1      -3.572   2.888   0.000  0.00  0.00    -0.218 OA
ENDROOT
BRANCH  13  12
ATOM     10  C   UNL     1      -2.858   4.125   0.000  0.00  0.00    +0.266 C 
ATOM     11  O   UNL     1      -3.572   3.712   0.000  0.00  0.00    -0.268 OA
ATOM     12  N   UNL     1      -2.143   3.712   0.000  0.00  0.00    -0.196 NA
BRANCH  10   8
ATOM      3  C   UNL     1      -3.572   6.188   0.000  0.00  0.00    +0.139 A 
ATOM      4  C   UNL     1      -2.858   6.600   0.000  0.00  0.00    +0.037 A 
ATOM      5  C   UNL     1      -2.143   6.188   0.000  0.00  0.00    +0.010 A 
ATOM      6  C   UNL     1      -2.143   5.362   0.000  0.00  0.00    +0.039 A 
ATOM      7 BR   UNL     1      -1.429   4.950   0.000  0.00  0.00    -0.049 Br
ATOM      8  C   UNL     1      -2.858   4.950   0.000  0.00  0.00    +0.064 A 
ATOM      9  C   UNL     1      -3.572   5.362   0.000  0.00  0.00    +0.042 A 
BRANCH   3   2
ATOM      1  C   UNL     1      -4.287   7.425   0.000  0.00  0.00    +0.252 C 
ATOM      2  O   UNL     1      -4.287   6.600   0.000  0.00  0.00    -0.471 OA
ENDBRANCH   3   2
ENDBRANCH  10   8
ENDBRANCH  13  12
BRANCH  15  21
ATOM     21  C   UNL     1      -0.715   1.238   0.000  0.00  0.00    +0.261 C 
ATOM     22  O   UNL     1      -0.715   0.412   0.000  0.00  0.00    -0.269 OA
ATOM     23  N   UNL     1       0.000   1.650   0.000  0.00  0.00    -0.201 NA
BRANCH  23  24
ATOM     24  C   UNL     1       0.715   1.238   0.000  0.00  0.00    +0.125 C 
BRANCH  24  25
ATOM     25  C   UNL     1       1.429   1.650   0.000  0.00  0.00    +0.112 C 
BRANCH  25  26
ATOM     26  C   UNL     1       2.143   1.238   0.000  0.00  0.00    +0.263 C 
ATOM     27  N   UNL     1       2.858   1.650   0.000  0.00  0.00    -0.088 NA
ATOM     28  O   UNL     1       2.143   0.412   0.000  0.00  0.00    -0.272 OA
ENDBRANCH  25  26
ENDBRANCH  24  25
ENDBRANCH  23  24
ENDBRANCH  15  21
TORSDOF 7
