REMARK  Name = 
REMARK  6 active torsions:
REMARK  status: ('A' for Active; 'I' for Inactive)
REMARK    1  A    between atoms: O_2  and  C_3
REMARK    2  A    between atoms: C_3  and  C_4
REMARK    3  A    between atoms: N_9  and  S_22
REMARK    4  A    between atoms: C_10  and  C_12
REMARK    5  A    between atoms: N_14  and  C_15
REMARK    6  A    between atoms: S_22  and  C_25
REMARK                            x       y       z     vdW  Elec       q    Type
REMARK                         _______ _______ _______ _____ _____    ______ ____
ROOT
ATOM      4  C   UNL     1       0.715  -1.238   0.000  0.00  0.00    +0.256 C 
ATOM      5  O   UNL     1       1.429  -0.825   0.000  0.00  0.00    -0.272 OA
ATOM      6  N   UNL     1       0.715  -2.062   0.000  0.00  0.00    -0.274 N 
ATOM      7  C   UNL     1       1.429  -2.475   0.000  0.00  0.00    +0.113 C 
ATOM      8  C   UNL     1       1.429  -3.300   0.000  0.00  0.00    +0.118 C 
ATOM      9  N   UNL     1       0.715  -3.712   0.000  0.00  0.00    -0.145 NA
ATOM     10  C   UNL     1       0.000  -3.300   0.000  0.00  0.00    +0.177 C 
ATOM     11  C   UNL     1       0.000  -2.475   0.000  0.00  0.00    +0.121 C 
ENDROOT
BRANCH  10  12
ATOM     12  C   UNL     1      -0.715  -3.712   0.000  0.00  0.00    +0.260 C 
ATOM     13  O   UNL     1      -1.429  -3.300   0.000  0.00  0.00    -0.272 OA
ATOM     14  N   UNL     1      -0.715  -4.537   0.000  0.00  0.00    -0.197 NA
BRANCH  14  15
ATOM     15  C   UNL     1      -1.429  -4.950   0.000  0.00  0.00    +0.173 C 
ATOM     16  C   UNL     1      -1.429  -5.775   0.000  0.00  0.00    +0.033 C 
ATOM     17  C   UNL     1      -2.143  -6.188   0.000  0.00  0.00    +0.026 C 
ATOM     18  C   UNL     1      -2.858  -5.775   0.000  0.00  0.00    +0.115 C 
ATOM     19  N   UNL     1      -2.858  -4.950   0.000  0.00  0.00    -0.204 NA
ATOM     20  C   UNL     1      -2.143  -4.537   0.000  0.00  0.00    +0.261 C 
ATOM     21  O   UNL     1      -2.143  -3.712   0.000  0.00  0.00    -0.271 OA
ENDBRANCH  14  15
ENDBRANCH  10  12
BRANCH   9  22
ATOM     22  S   UNL     1       0.715  -4.537   0.000  0.00  0.00    +0.064 S 
ATOM     23  O   UNL     1      -0.111  -4.537   0.000  0.00  0.00    -0.153 OA
ATOM     24  O   UNL     1       1.540  -4.537   0.000  0.00  0.00    -0.153 OA
BRANCH  22  25
ATOM     25  C   UNL     1       0.715  -5.362   0.000  0.00  0.00    +0.122 A 
ATOM     26  C   UNL     1       1.429  -5.775   0.000  0.00  0.00    +0.022 A 
ATOM     27  C   UNL     1       1.429  -6.600   0.000  0.00  0.00    +0.031 A 
ATOM     28  C   UNL     1       0.715  -7.013   0.000  0.00  0.00    +0.140 A 
ATOM     29  F   UNL     1       0.715  -7.838   0.000  0.00  0.00    -0.204 F 
ATOM     30  C   UNL     1       0.000  -6.600   0.000  0.00  0.00    +0.031 A 
ATOM     31  C   UNL     1       0.000  -5.775   0.000  0.00  0.00    +0.022 A 
ENDBRANCH  22  25
ENDBRANCH   9  22
BRANCH   4   3
ATOM      3  C   UNL     1       0.000  -0.825   0.000  0.00  0.00    +0.227 C 
BRANCH   3   2
ATOM      1  C   UNL     1      -0.715   0.412   0.000  0.00  0.00    +0.175 C 
ATOM      2  O   UNL     1       0.000   0.000   0.000  0.00  0.00    -0.342 OA
ENDBRANCH   3   2
ENDBRANCH   4   3
TORSDOF 6
