REMARK  Name = 
REMARK  4 active torsions:
REMARK  status: ('A' for Active; 'I' for Inactive)
REMARK    1  A    between atoms: O_2  and  C_3
REMARK    2  A    between atoms: C_3  and  C_5
REMARK    3  A    between atoms: C_11  and  C_13
REMARK    4  A    between atoms: C_16  and  C_19
REMARK                            x       y       z     vdW  Elec       q    Type
REMARK                         _______ _______ _______ _____ _____    ______ ____
ROOT
ATOM      5  C   UNL     1       2.070   1.110   0.000  0.00  0.00    +0.181 C 
ATOM      6  C   UNL     1       1.356   0.698   0.000  0.00  0.00    +0.078 C 
ATOM      7  C   UNL     1       0.641   1.110   0.000  0.00  0.00    +0.078 A 
ATOM      8  C   UNL     1       0.641   1.935   0.000  0.00  0.00    +0.094 A 
ATOM      9  C   UNL     1       1.356   2.348   0.000  0.00  0.00    +0.141 C 
ATOM     10  N   UNL     1       2.070   1.935   0.000  0.00  0.00    -0.262 N 
ATOM     11  C   UNL     1       2.784   2.348   0.000  0.00  0.00    +0.250 C 
ATOM     12  O   UNL     1       3.499   1.935   0.000  0.00  0.00    -0.270 OA
ATOM     25  N   UNL     1      -0.143   2.190   0.000  0.00  0.00    -0.225 NA
ATOM     26  C   UNL     1      -0.628   1.523   0.000  0.00  0.00    +0.198 A 
ATOM     27  N   UNL     1      -0.143   0.856   0.000  0.00  0.00    -0.227 NA
ENDROOT
BRANCH  11  13
ATOM     13  C   UNL     1       2.784   3.173   0.000  0.00  0.00    +0.054 A 
ATOM     14  C   UNL     1       2.070   3.585   0.000  0.00  0.00    +0.005 A 
ATOM     15  C   UNL     1       2.070   4.410   0.000  0.00  0.00    +0.000 A 
ATOM     16  C   UNL     1       2.784   4.823   0.000  0.00  0.00    +0.000 A 
ATOM     17  C   UNL     1       3.499   4.410   0.000  0.00  0.00    +0.000 A 
ATOM     18  C   UNL     1       3.499   3.585   0.000  0.00  0.00    +0.005 A 
BRANCH  16  19
ATOM     19  C   UNL     1       2.784   5.648   0.000  0.00  0.00    +0.000 A 
ATOM     20  C   UNL     1       2.070   6.060   0.000  0.00  0.00    +0.000 A 
ATOM     21  C   UNL     1       2.070   6.885   0.000  0.00  0.00    +0.000 A 
ATOM     22  C   UNL     1       2.784   7.298   0.000  0.00  0.00    +0.000 A 
ATOM     23  C   UNL     1       3.499   6.885   0.000  0.00  0.00    +0.000 A 
ATOM     24  C   UNL     1       3.499   6.060   0.000  0.00  0.00    +0.000 A 
ENDBRANCH  16  19
ENDBRANCH  11  13
BRANCH   5   3
ATOM      3  C   UNL     1       2.784   0.698   0.000  0.00  0.00    +0.336 C 
ATOM      4  O   UNL     1       2.784  -0.127   0.000  0.00  0.00    -0.248 OA
BRANCH   3   2
ATOM      1  C   UNL     1       4.213   0.698   0.000  0.00  0.00    +0.256 C 
ATOM      2  O   UNL     1       3.499   1.110   0.000  0.00  0.00    -0.443 OA
ENDBRANCH   3   2
ENDBRANCH   5   3
TORSDOF 4
