REMARK  Name = 
REMARK  10 active torsions:
REMARK  status: ('A' for Active; 'I' for Inactive)
REMARK    1  A    between atoms: S_2  and  C_3
REMARK    2  A    between atoms: C_7  and  N_8
REMARK    3  A    between atoms: N_11  and  C_12
REMARK    4  A    between atoms: C_16  and  C_17
REMARK    5  A    between atoms: N_19  and  C_20
REMARK    6  A    between atoms: C_20  and  C_21
REMARK    7  A    between atoms: C_20  and  C_28
REMARK    8  A    between atoms: C_21  and  C_22
REMARK    9  A    between atoms: C_31  and  C_33
REMARK   10  A    between atoms: C_33  and  C_34
REMARK                            x       y       z     vdW  Elec       q    Type
REMARK                         _______ _______ _______ _____ _____    ______ ____
ROOT
ATOM     12  C   UNL     1       0.628  -4.533   0.000  0.00  0.00    +0.126 C 
ATOM     13  C   UNL     1      -0.179  -4.705   0.000  0.00  0.00    +0.045 C 
ATOM     14  C   UNL     1      -0.591  -3.990   0.000  0.00  0.00    +0.096 C 
ATOM     15  N   UNL     1      -0.039  -3.377   0.000  0.00  0.00    -0.272 N 
ATOM     16  C   UNL     1       0.715  -3.712   0.000  0.00  0.00    +0.174 C 
ATOM     31  C   UNL     1      -0.211  -2.570   0.000  0.00  0.00    +0.226 C 
ATOM     32  O   UNL     1       0.402  -2.018   0.000  0.00  0.00    -0.275 OA
ENDROOT
BRANCH  12  11
ATOM      8  N   UNL     1       1.683  -6.444   0.000  0.00  0.00    -0.161 NA
ATOM      9  C   UNL     1       1.070  -5.892   0.000  0.00  0.00    +0.344 C 
ATOM     10  O   UNL     1       0.285  -6.147   0.000  0.00  0.00    -0.249 OA
ATOM     11  N   UNL     1       1.241  -5.085   0.000  0.00  0.00    -0.186 NA
BRANCH   8   7
ATOM      3  C   UNL     1       1.953  -8.610   0.000  0.00  0.00    +0.027 A 
ATOM      4  C   UNL     1       1.168  -8.865   0.000  0.00  0.00    +0.006 A 
ATOM      5  C   UNL     1       0.555  -8.313   0.000  0.00  0.00    +0.002 A 
ATOM      6  C   UNL     1       0.727  -7.506   0.000  0.00  0.00    +0.017 A 
ATOM      7  C   UNL     1       1.511  -7.251   0.000  0.00  0.00    +0.075 A 
ATOM     38  C   UNL     1       2.124  -7.803   0.000  0.00  0.00    +0.023 A 
BRANCH   3   2
ATOM      1  C   UNL     1       2.394  -9.969   0.000  0.00  0.00    +0.074 C 
ATOM      2  S   UNL     1       2.566  -9.162   0.000  0.00  0.00    -0.113 S 
ENDBRANCH   3   2
ENDBRANCH   8   7
ENDBRANCH  12  11
BRANCH  16  17
ATOM     17  C   UNL     1       1.429  -3.300   0.000  0.00  0.00    +0.262 C 
ATOM     18  O   UNL     1       2.143  -3.712   0.000  0.00  0.00    -0.271 OA
ATOM     19  N   UNL     1       1.429  -2.475   0.000  0.00  0.00    -0.196 NA
BRANCH  19  20
ATOM     20  C   UNL     1       2.143  -2.062   0.000  0.00  0.00    +0.179 C 
BRANCH  20  28
ATOM     28  C   UNL     1       2.858  -2.475   0.000  0.00  0.00    +0.281 C 
ATOM     29  N   UNL     1       3.572  -2.062   0.000  0.00  0.00    -0.086 NA
ATOM     30  O   UNL     1       2.858  -3.300   0.000  0.00  0.00    -0.270 OA
ENDBRANCH  20  28
BRANCH  20  21
ATOM     21  C   UNL     1       2.143  -1.238   0.000  0.00  0.00    +0.057 C 
BRANCH  21  22
ATOM     22  C   UNL     1       2.858  -0.825   0.000  0.00  0.00    -0.020 A 
ATOM     23  C   UNL     1       2.858   0.000   0.000  0.00  0.00    -0.004 A 
ATOM     24  C   UNL     1       3.572   0.412   0.000  0.00  0.00    -0.000 A 
ATOM     25  C   UNL     1       4.287   0.000   0.000  0.00  0.00    -0.000 A 
ATOM     26  C   UNL     1       4.287  -0.825   0.000  0.00  0.00    -0.000 A 
ATOM     27  C   UNL     1       3.572  -1.238   0.000  0.00  0.00    -0.004 A 
ENDBRANCH  21  22
ENDBRANCH  20  21
ENDBRANCH  19  20
ENDBRANCH  16  17
BRANCH  31  33
ATOM     33  C   UNL     1      -0.995  -2.315   0.000  0.00  0.00    +0.085 C 
BRANCH  33  34
ATOM     34  C   UNL     1      -1.167  -1.508   0.000  0.00  0.00    +0.009 C 
ATOM     35  C   UNL     1      -0.360  -1.337   0.000  0.00  0.00    +0.000 C 
ATOM     36  C   UNL     1      -1.974  -1.680   0.000  0.00  0.00    +0.000 C 
ATOM     37  C   UNL     1      -1.338  -0.701   0.000  0.00  0.00    +0.000 C 
ENDBRANCH  33  34
ENDBRANCH  31  33
TORSDOF 10
