REMARK  Name = 
REMARK  6 active torsions:
REMARK  status: ('A' for Active; 'I' for Inactive)
REMARK    1  A    between atoms: O_2  and  C_3
REMARK    2  A    between atoms: C_6  and  C_9
REMARK    3  A    between atoms: C_20  and  N_21
REMARK    4  A    between atoms: N_24  and  C_25
REMARK    5  A    between atoms: C_27  and  O_28
REMARK    6  A    between atoms: C_31  and  O_32
REMARK                            x       y       z     vdW  Elec       q    Type
REMARK                         _______ _______ _______ _____ _____    ______ ____
ROOT
ATOM      9  C   UNL     1       0.198  -2.656   0.000  0.00  0.00    +0.249 C 
ATOM     10  O   UNL     1       0.639  -3.408   0.000  0.00  0.00    -0.270 OA
ATOM     11  N   UNL     1       0.813  -2.091   0.000  0.00  0.00    -0.276 N 
ATOM     12  C   UNL     1       1.629  -1.912   0.000  0.00  0.00    +0.096 C 
ATOM     13  C   UNL     1       1.582  -0.925   0.000  0.00  0.00    +0.043 C 
ATOM     14  C   UNL     1       1.713  -0.121   0.000  0.00  0.00    +0.011 C 
ATOM     15  C   UNL     1       1.163  -0.557   0.000  0.00  0.00    +0.058 C 
ATOM     16  C   UNL     1       1.225  -1.510   0.000  0.00  0.00    +0.099 C 
ATOM     17  C   UNL     1       0.244  -0.558   0.000  0.00  0.00    +0.041 A 
ATOM     18  C   UNL     1      -0.397  -0.039   0.000  0.00  0.00    +0.014 A 
ATOM     19  C   UNL     1      -1.167  -0.335   0.000  0.00  0.00    +0.023 A 
ATOM     20  C   UNL     1      -1.296  -1.150   0.000  0.00  0.00    +0.131 A 
ATOM     35  C   UNL     1      -0.655  -1.669   0.000  0.00  0.00    +0.276 A 
ATOM     36  O   UNL     1      -0.529  -2.692   0.000  0.00  0.00    -0.266 OA
ATOM     37  N   UNL     1       0.115  -1.373   0.000  0.00  0.00    -0.298 N 
ATOM     38  C   UNL     1       0.622  -0.936   0.000  0.00  0.00    +0.110 C 
ENDROOT
BRANCH   9   6
ATOM      3  C   UNL     1      -2.338  -1.196   0.000  0.00  0.00    +0.139 A 
ATOM      4  C   UNL     1      -1.485  -0.905   0.000  0.00  0.00    +0.037 A 
ATOM      5  C   UNL     1      -0.664  -1.356   0.000  0.00  0.00    +0.008 A 
ATOM      6  C   UNL     1      -0.614  -2.179   0.000  0.00  0.00    +0.054 A 
ATOM      7  C   UNL     1      -1.301  -2.635   0.000  0.00  0.00    +0.008 A 
ATOM      8  C   UNL     1      -2.040  -2.267   0.000  0.00  0.00    +0.037 A 
BRANCH   3   2
ATOM      1  C   UNL     1      -2.639   0.218   0.000  0.00  0.00    +0.252 C 
ATOM      2  O   UNL     1      -3.122  -0.780   0.000  0.00  0.00    -0.471 OA
ENDBRANCH   3   2
ENDBRANCH   9   6
BRANCH  20  21
ATOM     21  N   UNL     1      -2.071  -1.739   0.000  0.00  0.00    -0.156 NA
ATOM     22  C   UNL     1      -2.929  -1.341   0.000  0.00  0.00    +0.348 C 
ATOM     23  O   UNL     1      -2.791  -0.376   0.000  0.00  0.00    -0.248 OA
ATOM     24  N   UNL     1      -3.866  -1.490   0.000  0.00  0.00    -0.160 NA
BRANCH  24  25
ATOM     25  C   UNL     1      -4.119  -0.703   0.000  0.00  0.00    +0.081 A 
ATOM     26  C   UNL     1      -4.936  -0.591   0.000  0.00  0.00    +0.054 A 
ATOM     27  C   UNL     1      -5.248   0.173   0.000  0.00  0.00    +0.143 A 
ATOM     30  C   UNL     1      -4.742   0.825   0.000  0.00  0.00    +0.074 A 
ATOM     31  C   UNL     1      -3.925   0.713   0.000  0.00  0.00    +0.143 A 
ATOM     34  C   UNL     1      -3.613  -0.051   0.000  0.00  0.00    +0.054 A 
BRANCH  27  28
ATOM     28  O   UNL     1      -6.065   0.285   0.000  0.00  0.00    -0.471 OA
ATOM     29  C   UNL     1      -6.377   1.049   0.000  0.00  0.00    +0.252 C 
ENDBRANCH  27  28
BRANCH  31  32
ATOM     32  O   UNL     1      -3.419   1.365   0.000  0.00  0.00    -0.471 OA
ATOM     33  C   UNL     1      -2.602   1.253   0.000  0.00  0.00    +0.252 C 
ENDBRANCH  31  32
ENDBRANCH  24  25
ENDBRANCH  20  21
TORSDOF 6
