REMARK  Name = 
REMARK  7 active torsions:
REMARK  status: ('A' for Active; 'I' for Inactive)
REMARK    1  A    between atoms: C_2  and  C_4
REMARK    2  A    between atoms: C_4  and  C_5
REMARK    3  A    between atoms: C_5  and  C_6
REMARK    4  A    between atoms: C_6  and  C_7
REMARK    5  A    between atoms: N_9  and  C_10
REMARK    6  A    between atoms: C_14  and  N_18
REMARK    7  A    between atoms: C_21  and  C_25
REMARK                            x       y       z     vdW  Elec       q    Type
REMARK                         _______ _______ _______ _____ _____    ______ ____
ROOT
ATOM     10  C   UNL     1       1.270  -0.922   0.000  0.00  0.00    +0.154 C 
ATOM     11  C   UNL     1       0.785  -0.255   0.000  0.00  0.00    +0.166 C 
ATOM     12  O   UNL     1       1.270   0.412   0.000  0.00  0.00    -0.350 OA
ATOM     13  C   UNL     1       2.054   0.158   0.000  0.00  0.00    +0.166 C 
ATOM     14  C   UNL     1       2.839   0.412   0.000  0.00  0.00    +0.154 C 
ATOM     15  C   UNL     1       3.324  -0.255   0.000  0.00  0.00    +0.166 C 
ATOM     16  O   UNL     1       2.839  -0.922   0.000  0.00  0.00    -0.350 OA
ATOM     17  C   UNL     1       2.054  -0.667   0.000  0.00  0.00    +0.166 C 
ENDROOT
BRANCH  14  18
ATOM     18  N   UNL     1       3.094   1.197   0.000  0.00  0.00    -0.200 NA
ATOM     19  C   UNL     1       3.901   1.369   0.000  0.00  0.00    +0.237 A 
ATOM     20  N   UNL     1       4.156   2.153   0.000  0.00  0.00    -0.209 NA
ATOM     21  C   UNL     1       4.963   2.325   0.000  0.00  0.00    +0.120 A 
ATOM     22  C   UNL     1       5.515   1.712   0.000  0.00  0.00    +0.043 A 
ATOM     23  C   UNL     1       5.260   0.927   0.000  0.00  0.00    +0.104 A 
ATOM     24  N   UNL     1       4.453   0.756   0.000  0.00  0.00    -0.211 NA
BRANCH  21  25
ATOM     25  C   UNL     1       5.218   3.109   0.000  0.00  0.00    +0.163 A 
ATOM     26  C   UNL     1       4.733   3.777   0.000  0.00  0.00    +0.042 A 
ATOM     27  C   UNL     1       5.218   4.444   0.000  0.00  0.00    +0.044 A 
ATOM     28  C   UNL     1       6.002   4.189   0.000  0.00  0.00    +0.180 A 
ATOM     29  O   UNL     1       6.002   3.364   0.000  0.00  0.00    -0.449 OA
ENDBRANCH  21  25
ENDBRANCH  14  18
BRANCH  10   9
ATOM      7  C   UNL     1       0.208  -1.879   0.000  0.00  0.00    +0.241 C 
ATOM      8  O   UNL     1      -0.344  -1.265   0.000  0.00  0.00    -0.273 OA
ATOM      9  N   UNL     1       1.015  -1.707   0.000  0.00  0.00    -0.202 NA
BRANCH   7   6
ATOM      6  C   UNL     1      -0.047  -2.663   0.000  0.00  0.00    +0.087 C 
BRANCH   6   5
ATOM      5  C   UNL     1      -0.854  -2.835   0.000  0.00  0.00    +0.019 C 
ATOM     30  C   UNL     1      -1.608  -3.170   0.000  0.00  0.00    +0.001 C 
ATOM     31  C   UNL     1      -2.160  -2.557   0.000  0.00  0.00    +0.000 C 
ATOM     32  C   UNL     1      -1.748  -1.843   0.000  0.00  0.00    +0.000 C 
ATOM     33  C   UNL     1      -0.941  -2.014   0.000  0.00  0.00    +0.001 C 
BRANCH   5   4
ATOM      4  C   UNL     1      -0.599  -3.619   0.000  0.00  0.00    +0.115 C 
BRANCH   4   2
ATOM      1  O   UNL     1       0.463  -4.575   0.000  0.00  0.00    -0.246 OA
ATOM      2  C   UNL     1       0.208  -3.791   0.000  0.00  0.00    +0.365 C 
ATOM      3  O   UNL     1       0.760  -3.178   0.000  0.00  0.00    -0.246 OA
ENDBRANCH   4   2
ENDBRANCH   5   4
ENDBRANCH   6   5
ENDBRANCH   7   6
ENDBRANCH  10   9
TORSDOF 7
