REMARK  Name = 
REMARK  7 active torsions:
REMARK  status: ('A' for Active; 'I' for Inactive)
REMARK    1  A    between atoms: O_2  and  C_3
REMARK    2  A    between atoms: C_6  and  C_7
REMARK    3  A    between atoms: C_7  and  N_8
REMARK    4  A    between atoms: C_12  and  C_13
REMARK    5  A    between atoms: C_15  and  C_18
REMARK    6  A    between atoms: C_21  and  O_22
REMARK    7  A    between atoms: O_22  and  C_23
REMARK                            x       y       z     vdW  Elec       q    Type
REMARK                         _______ _______ _______ _____ _____    ______ ____
ROOT
ATOM     13  C   UNL     1       3.635  -4.803   0.000  0.00  0.00    +0.251 A 
ATOM     14  N   UNL     1       2.967  -5.287   0.000  0.00  0.00    -0.190 NA
ATOM     15  C   UNL     1       2.300  -4.803   0.000  0.00  0.00    +0.205 A 
ATOM     16  N   UNL     1       2.555  -4.018   0.000  0.00  0.00    -0.056 NA
ATOM     17  O   UNL     1       3.380  -4.018   0.000  0.00  0.00    -0.336 OA
ENDROOT
BRANCH  15  18
ATOM     18  C   UNL     1       1.515  -5.057   0.000  0.00  0.00    +0.058 A 
ATOM     19  C   UNL     1       1.343  -5.864   0.000  0.00  0.00    +0.010 A 
ATOM     20  C   UNL     1       0.559  -6.119   0.000  0.00  0.00    +0.058 A 
ATOM     21  C   UNL     1      -0.054  -5.567   0.000  0.00  0.00    +0.225 A 
ATOM     29  N   UNL     1       0.117  -4.760   0.000  0.00  0.00    -0.210 NA
ATOM     30  C   UNL     1       0.902  -4.505   0.000  0.00  0.00    +0.105 A 
BRANCH  21  22
ATOM     22  O   UNL     1      -0.839  -5.822   0.000  0.00  0.00    -0.464 OA
BRANCH  22  23
ATOM     23  C   UNL     1      -1.452  -5.270   0.000  0.00  0.00    +0.168 C 
ATOM     24  C   UNL     1      -2.237  -5.525   0.000  0.00  0.00    +0.044 C 
ATOM     25  C   UNL     1      -2.850  -4.973   0.000  0.00  0.00    +0.004 C 
ATOM     26  C   UNL     1      -2.678  -4.166   0.000  0.00  0.00    +0.000 C 
ATOM     27  C   UNL     1      -1.893  -3.911   0.000  0.00  0.00    +0.004 C 
ATOM     28  C   UNL     1      -1.280  -4.463   0.000  0.00  0.00    +0.044 C 
ENDBRANCH  22  23
ENDBRANCH  21  22
ENDBRANCH  15  18
BRANCH  13  12
ATOM      8  N   UNL     1       5.087  -4.572   0.000  0.00  0.00    -0.263 NA
ATOM      9  C   UNL     1       5.754  -5.057   0.000  0.00  0.00    +0.073 C 
ATOM     10  C   UNL     1       5.499  -5.842   0.000  0.00  0.00    +0.019 C 
ATOM     11  C   UNL     1       4.674  -5.842   0.000  0.00  0.00    +0.027 C 
ATOM     12  C   UNL     1       4.419  -5.057   0.000  0.00  0.00    +0.138 C 
BRANCH   8   7
ATOM      7  C   UNL     1       5.087  -3.748   0.000  0.00  0.00    +0.099 C 
BRANCH   7   6
ATOM      3  C   UNL     1       7.230  -2.510   0.000  0.00  0.00    +0.139 A 
ATOM      4  C   UNL     1       7.230  -3.335   0.000  0.00  0.00    +0.037 A 
ATOM      5  C   UNL     1       6.516  -3.748   0.000  0.00  0.00    +0.000 A 
ATOM      6  C   UNL     1       5.801  -3.335   0.000  0.00  0.00    -0.006 A 
ATOM     31  C   UNL     1       5.801  -2.510   0.000  0.00  0.00    +0.000 A 
ATOM     32  C   UNL     1       6.516  -2.098   0.000  0.00  0.00    +0.037 A 
BRANCH   3   2
ATOM      1  C   UNL     1       7.944  -1.272   0.000  0.00  0.00    +0.252 C 
ATOM      2  O   UNL     1       7.944  -2.098   0.000  0.00  0.00    -0.471 OA
ENDBRANCH   3   2
ENDBRANCH   7   6
ENDBRANCH   8   7
ENDBRANCH  13  12
TORSDOF 7
