REMARK  Name = 
REMARK  6 active torsions:
REMARK  status: ('A' for Active; 'I' for Inactive)
REMARK    1  A    between atoms: C_2  and  C_4
REMARK    2  A    between atoms: C_4  and  S_5
REMARK    3  A    between atoms: S_5  and  N_8
REMARK    4  A    between atoms: N_8  and  C_9
REMARK    5  A    between atoms: C_12  and  C_15
REMARK    6  A    between atoms: C_22  and  C_23
REMARK                            x       y       z     vdW  Elec       q    Type
REMARK                         _______ _______ _______ _____ _____    ______ ____
ROOT
ATOM      9  C   UNL     1       0.715  -1.238   0.000  0.00  0.00    +0.091 A 
ATOM     10  C   UNL     1       1.429  -1.650   0.000  0.00  0.00    +0.018 A 
ATOM     11  C   UNL     1       1.429  -2.475   0.000  0.00  0.00    -0.001 A 
ATOM     12  C   UNL     1       0.715  -2.888   0.000  0.00  0.00    +0.006 A 
ATOM     13  C   UNL     1       0.000  -2.475   0.000  0.00  0.00    -0.001 A 
ATOM     14  C   UNL     1       0.000  -1.650   0.000  0.00  0.00    +0.018 A 
ENDROOT
BRANCH  12  15
ATOM     15  C   UNL     1       0.715  -3.712   0.000  0.00  0.00    +0.159 C 
ATOM     16  O   UNL     1       1.429  -4.125   0.000  0.00  0.00    -0.341 OA
ATOM     17  C   UNL     1       1.429  -4.950   0.000  0.00  0.00    +0.227 C 
ATOM     18  C   UNL     1       0.715  -5.362   0.000  0.00  0.00    +0.256 C 
ATOM     19  O   UNL     1       0.715  -6.188   0.000  0.00  0.00    -0.272 OA
ATOM     20  N   UNL     1       0.000  -4.950   0.000  0.00  0.00    -0.272 N 
ATOM     21  C   UNL     1      -0.715  -5.362   0.000  0.00  0.00    +0.115 C 
ATOM     22  C   UNL     1       0.000  -4.125   0.000  0.00  0.00    +0.140 C 
BRANCH  22  23
ATOM     23  C   UNL     1      -0.715  -3.712   0.000  0.00  0.00    +0.205 C 
ATOM     24  O   UNL     1      -0.715  -2.888   0.000  0.00  0.00    -0.218 OA
ENDBRANCH  22  23
ENDBRANCH  12  15
BRANCH   9   8
ATOM      8  N   UNL     1       0.715  -0.412   0.000  0.00  0.00    -0.101 NA
BRANCH   8   5
ATOM      5  S   UNL     1       0.000   0.000   0.000  0.00  0.00    +0.073 S 
ATOM      6  O   UNL     1      -0.412  -0.715   0.000  0.00  0.00    -0.153 OA
ATOM      7  O   UNL     1       0.412   0.715   0.000  0.00  0.00    -0.153 OA
BRANCH   5   4
ATOM      4  C   UNL     1      -0.715   0.412   0.000  0.00  0.00    +0.174 C 
BRANCH   4   2
ATOM      1  C   UNL     1      -1.429   1.650   0.000  0.00  0.00    +0.002 C 
ATOM      2  C   UNL     1      -0.715   1.238   0.000  0.00  0.00    +0.026 C 
ATOM      3  C   UNL     1       0.000   1.650   0.000  0.00  0.00    +0.002 C 
ENDBRANCH   4   2
ENDBRANCH   5   4
ENDBRANCH   8   5
ENDBRANCH   9   8
TORSDOF 6
