REMARK  Name = 
REMARK  8 active torsions:
REMARK  status: ('A' for Active; 'I' for Inactive)
REMARK    1  A    between atoms: O_2  and  C_3
REMARK    2  A    between atoms: C_3  and  C_4
REMARK    3  A    between atoms: C_4  and  N_5
REMARK    4  A    between atoms: C_11  and  C_13
REMARK    5  A    between atoms: C_13  and  C_14
REMARK    6  A    between atoms: C_16  and  C_17
REMARK    7  A    between atoms: C_20  and  C_21
REMARK    8  A    between atoms: C_21  and  C_22
REMARK                            x       y       z     vdW  Elec       q    Type
REMARK                         _______ _______ _______ _____ _____    ______ ____
ROOT
ATOM     13  C   UNL     1       2.143  -5.362   0.000  0.00  0.00    +0.089 C 
ENDROOT
BRANCH  13  11
ATOM      5  N   UNL     1       1.429  -2.475   0.000  0.00  0.00    -0.268 NA
ATOM      6  C   UNL     1       2.143  -2.888   0.000  0.00  0.00    +0.094 C 
ATOM      7  C   UNL     1       2.143  -3.712   0.000  0.00  0.00    +0.111 C 
ATOM      8  N   UNL     1       1.429  -4.125   0.000  0.00  0.00    -0.277 N 
ATOM      9  C   UNL     1       0.715  -3.712   0.000  0.00  0.00    +0.111 C 
ATOM     10  C   UNL     1       0.715  -2.888   0.000  0.00  0.00    +0.094 C 
ATOM     11  C   UNL     1       1.429  -4.950   0.000  0.00  0.00    +0.226 C 
ATOM     12  O   UNL     1       0.715  -5.362   0.000  0.00  0.00    -0.275 OA
BRANCH   5   4
ATOM      4  C   UNL     1       1.429  -1.650   0.000  0.00  0.00    +0.105 C 
BRANCH   4   3
ATOM      3  C   UNL     1       0.715  -1.238   0.000  0.00  0.00    +0.160 C 
BRANCH   3   2
ATOM      1  C   UNL     1       0.000   0.000   0.000  0.00  0.00    +0.174 C 
ATOM      2  O   UNL     1       0.715  -0.412   0.000  0.00  0.00    -0.350 OA
ENDBRANCH   3   2
ENDBRANCH   4   3
ENDBRANCH   5   4
ENDBRANCH  13  11
BRANCH  13  14
ATOM     14  C   UNL     1       2.143  -6.188   0.000  0.00  0.00    +0.027 C 
ATOM     15  C   UNL     1       2.858  -6.600   0.000  0.00  0.00    +0.005 C 
ATOM     16  C   UNL     1       2.858  -7.425   0.000  0.00  0.00    +0.005 C 
ATOM     20  C   UNL     1       2.143  -7.838   0.000  0.00  0.00    +0.037 C 
ATOM     24  C   UNL     1       1.429  -7.425   0.000  0.00  0.00    -0.034 C 
ATOM     25  C   UNL     1       1.429  -6.600   0.000  0.00  0.00    -0.048 C 
ATOM     26  C   UNL     1       0.715  -6.188   0.000  0.00  0.00    +0.026 C 
BRANCH  16  17
ATOM     17  C   UNL     1       3.572  -7.838   0.000  0.00  0.00    +0.000 C 
ATOM     18  C   UNL     1       3.572  -8.662   0.000  0.00  0.00    +0.000 C 
ATOM     19  C   UNL     1       4.287  -7.425   0.000  0.00  0.00    +0.000 C 
ENDBRANCH  16  17
BRANCH  20  21
ATOM     21  C   UNL     1       2.143  -8.662   0.000  0.00  0.00    +0.110 C 
BRANCH  21  22
ATOM     22  C   UNL     1       2.858  -9.075   0.000  0.00  0.00    +0.073 C 
ATOM     23  N   UNL     1       3.572  -9.488   0.000  0.00  0.00    -0.196 NA
ENDBRANCH  21  22
ENDBRANCH  20  21
ENDBRANCH  13  14
TORSDOF 8
