REMARK  Name = 
REMARK  7 active torsions:
REMARK  status: ('A' for Active; 'I' for Inactive)
REMARK    1  A    between atoms: O_2  and  C_3
REMARK    2  A    between atoms: C_6  and  C_7
REMARK    3  A    between atoms: C_7  and  N_8
REMARK    4  A    between atoms: N_8  and  C_9
REMARK    5  A    between atoms: C_9  and  C_10
REMARK    6  A    between atoms: C_10  and  C_11
REMARK    7  A    between atoms: C_14  and  C_16
REMARK                            x       y       z     vdW  Elec       q    Type
REMARK                         _______ _______ _______ _____ _____    ______ ____
ROOT
ATOM      9  C   UNL     1       0.732  -3.554   0.000  0.00  0.00    +0.120 C 
ATOM     22  C   UNL     1       1.315  -4.137   0.000  0.00  0.00    +0.161 C 
ATOM     23  O   UNL     1       0.732  -4.721   0.000  0.00  0.00    -0.351 OA
ATOM     24  C   UNL     1       0.148  -4.137   0.000  0.00  0.00    +0.161 C 
ENDROOT
BRANCH   9   8
ATOM      8  N   UNL     1       1.315  -2.970   0.000  0.00  0.00    -0.211 NA
BRANCH   8   7
ATOM      7  C   UNL     1       1.102  -2.174   0.000  0.00  0.00    +0.115 C 
BRANCH   7   6
ATOM      3  C   UNL     1       2.852  -0.423   0.000  0.00  0.00    +0.139 A 
ATOM      4  C   UNL     1       3.065  -1.220   0.000  0.00  0.00    +0.037 A 
ATOM      5  C   UNL     1       2.482  -1.804   0.000  0.00  0.00    +0.000 A 
ATOM      6  C   UNL     1       1.685  -1.590   0.000  0.00  0.00    -0.005 A 
ATOM     25  C   UNL     1       1.471  -0.793   0.000  0.00  0.00    +0.000 A 
ATOM     26  C   UNL     1       2.055  -0.210   0.000  0.00  0.00    +0.037 A 
BRANCH   3   2
ATOM      1  C   UNL     1       3.221   0.957   0.000  0.00  0.00    +0.252 C 
ATOM      2  O   UNL     1       3.435   0.160   0.000  0.00  0.00    -0.471 OA
ENDBRANCH   3   2
ENDBRANCH   7   6
ENDBRANCH   8   7
ENDBRANCH   9   8
BRANCH   9  10
ATOM     10  C   UNL     1       0.148  -2.970   0.000  0.00  0.00    +0.070 C 
BRANCH  10  11
ATOM     11  C   UNL     1      -0.648  -3.184   0.000  0.00  0.00    +0.102 A 
ATOM     12  N   UNL     1      -0.944  -3.954   0.000  0.00  0.00    -0.081 NA
ATOM     13  O   UNL     1      -1.768  -3.911   0.000  0.00  0.00    -0.352 OA
ATOM     14  C   UNL     1      -1.982  -3.114   0.000  0.00  0.00    +0.194 A 
ATOM     15  C   UNL     1      -1.290  -2.665   0.000  0.00  0.00    +0.060 A 
BRANCH  14  16
ATOM     16  C   UNL     1      -2.752  -2.818   0.000  0.00  0.00    +0.118 A 
ATOM     17  N   UNL     1      -3.393  -3.338   0.000  0.00  0.00    -0.241 NA
ATOM     18  C   UNL     1      -4.163  -3.042   0.000  0.00  0.00    +0.099 A 
ATOM     19  C   UNL     1      -4.292  -2.227   0.000  0.00  0.00    +0.021 A 
ATOM     20  C   UNL     1      -3.651  -1.708   0.000  0.00  0.00    +0.003 A 
ATOM     21  C   UNL     1      -2.881  -2.004   0.000  0.00  0.00    +0.022 A 
ENDBRANCH  14  16
ENDBRANCH  10  11
ENDBRANCH   9  10
TORSDOF 7
