REMARK  Name = 
REMARK  6 active torsions:
REMARK  status: ('A' for Active; 'I' for Inactive)
REMARK    1  A    between atoms: C_1  and  N_2
REMARK    2  A    between atoms: C_1  and  C_19
REMARK    3  A    between atoms: N_2  and  C_3
REMARK    4  A    between atoms: C_3  and  C_4
REMARK    5  A    between atoms: C_4  and  C_5
REMARK    6  A    between atoms: C_8  and  C_10
REMARK                            x       y       z     vdW  Elec       q    Type
REMARK                         _______ _______ _______ _____ _____    ______ ____
ROOT
ATOM      4  C   UNL     1       0.148  -2.970   0.000  0.00  0.00    +0.070 C 
ENDROOT
BRANCH   4   5
ATOM      5  C   UNL     1      -0.648  -3.184   0.000  0.00  0.00    +0.102 A 
ATOM      6  N   UNL     1      -0.944  -3.954   0.000  0.00  0.00    -0.081 NA
ATOM      7  O   UNL     1      -1.768  -3.911   0.000  0.00  0.00    -0.352 OA
ATOM      8  C   UNL     1      -1.982  -3.114   0.000  0.00  0.00    +0.194 A 
ATOM      9  C   UNL     1      -1.290  -2.665   0.000  0.00  0.00    +0.060 A 
BRANCH   8  10
ATOM     10  C   UNL     1      -2.752  -2.818   0.000  0.00  0.00    +0.118 A 
ATOM     11  N   UNL     1      -3.393  -3.338   0.000  0.00  0.00    -0.241 NA
ATOM     12  C   UNL     1      -4.163  -3.042   0.000  0.00  0.00    +0.099 A 
ATOM     13  C   UNL     1      -4.292  -2.227   0.000  0.00  0.00    +0.021 A 
ATOM     14  C   UNL     1      -3.651  -1.708   0.000  0.00  0.00    +0.003 A 
ATOM     15  C   UNL     1      -2.881  -2.004   0.000  0.00  0.00    +0.022 A 
ENDBRANCH   8  10
ENDBRANCH   4   5
BRANCH   4   3
ATOM      3  C   UNL     1       0.732  -3.554   0.000  0.00  0.00    +0.120 C 
ATOM     16  C   UNL     1       1.315  -4.137   0.000  0.00  0.00    +0.161 C 
ATOM     17  O   UNL     1       0.732  -4.721   0.000  0.00  0.00    -0.351 OA
ATOM     18  C   UNL     1       0.148  -4.137   0.000  0.00  0.00    +0.161 C 
BRANCH   3   2
ATOM      2  N   UNL     1       1.315  -2.970   0.000  0.00  0.00    -0.207 NA
BRANCH   2   1
ATOM      1  C   UNL     1       1.102  -2.174   0.000  0.00  0.00    +0.153 C 
BRANCH   1  19
ATOM     19  C   UNL     1       1.685  -1.590   0.000  0.00  0.00    +0.141 A 
ATOM     20  C   UNL     1       1.556  -0.775   0.000  0.00  0.00    +0.038 A 
ATOM     21  C   UNL     1       2.291  -0.401   0.000  0.00  0.00    +0.043 A 
ATOM     22  C   UNL     1       2.874  -0.984   0.000  0.00  0.00    +0.179 A 
ATOM     23  O   UNL     1       2.500  -1.719   0.000  0.00  0.00    -0.453 OA
ENDBRANCH   1  19
ENDBRANCH   2   1
ENDBRANCH   3   2
ENDBRANCH   4   3
TORSDOF 6
