REMARK  Name = 
REMARK  9 active torsions:
REMARK  status: ('A' for Active; 'I' for Inactive)
REMARK    1  A    between atoms: C_5  and  C_6
REMARK    2  A    between atoms: C_6  and  C_7
REMARK    3  A    between atoms: N_9  and  C_10
REMARK    4  A    between atoms: C_10  and  C_11
REMARK    5  A    between atoms: C_11  and  N_12
REMARK    6  A    between atoms: C_19  and  C_20
REMARK    7  A    between atoms: C_20  and  N_21
REMARK    8  A    between atoms: N_21  and  C_22
REMARK    9  A    between atoms: C_22  and  C_23
REMARK                            x       y       z     vdW  Elec       q    Type
REMARK                         _______ _______ _______ _____ _____    ______ ____
ROOT
ATOM      1  O   UNL     1       1.429  -2.475   0.000  0.00  0.00    -0.218 OA
ATOM      2  C   UNL     1       1.764  -3.229   0.000  0.00  0.00    +0.213 C 
ATOM      3  C   UNL     1       2.571  -3.400   0.000  0.00  0.00    +0.212 C 
ATOM      4  O   UNL     1       3.185  -2.848   0.000  0.00  0.00    -0.218 OA
ATOM      5  C   UNL     1       2.658  -4.221   0.000  0.00  0.00    +0.157 C 
ATOM     18  O   UNL     1       1.904  -4.556   0.000  0.00  0.00    -0.351 OA
ATOM     19  C   UNL     1       1.352  -3.943   0.000  0.00  0.00    +0.165 C 
ENDROOT
BRANCH   5   6
ATOM      6  C   UNL     1       3.372  -4.633   0.000  0.00  0.00    +0.119 C 
BRANCH   6   7
ATOM      7  C   UNL     1       4.087  -4.221   0.000  0.00  0.00    +0.244 C 
ATOM      8  O   UNL     1       4.087  -3.396   0.000  0.00  0.00    -0.273 OA
ATOM      9  N   UNL     1       4.801  -4.633   0.000  0.00  0.00    -0.204 NA
BRANCH   9  10
ATOM     10  C   UNL     1       5.516  -4.221   0.000  0.00  0.00    +0.132 C 
BRANCH  10  11
ATOM     11  C   UNL     1       6.230  -4.633   0.000  0.00  0.00    +0.096 C 
BRANCH  11  12
ATOM     12  N   UNL     1       6.944  -4.221   0.000  0.00  0.00    -0.267 NA
ATOM     13  C   UNL     1       6.944  -3.396   0.000  0.00  0.00    +0.105 C 
ATOM     14  C   UNL     1       7.659  -2.983   0.000  0.00  0.00    +0.159 C 
ATOM     15  O   UNL     1       8.373  -3.396   0.000  0.00  0.00    -0.351 OA
ATOM     16  C   UNL     1       8.373  -4.221   0.000  0.00  0.00    +0.159 C 
ATOM     17  C   UNL     1       7.659  -4.633   0.000  0.00  0.00    +0.105 C 
ENDBRANCH  11  12
ENDBRANCH  10  11
ENDBRANCH   9  10
ENDBRANCH   6   7
ENDBRANCH   5   6
BRANCH  19  20
ATOM     20  C   UNL     1       0.531  -4.029   0.000  0.00  0.00    +0.121 C 
BRANCH  20  21
ATOM     21  N   UNL     1       0.047  -3.362   0.000  0.00  0.00    -0.211 NA
BRANCH  21  22
ATOM     22  C   UNL     1      -0.774  -3.448   0.000  0.00  0.00    +0.115 C 
BRANCH  22  23
ATOM     23  C   UNL     1      -1.259  -2.781   0.000  0.00  0.00    -0.004 A 
ATOM     24  C   UNL     1      -2.079  -2.867   0.000  0.00  0.00    -0.003 A 
ATOM     25  C   UNL     1      -2.564  -2.200   0.000  0.00  0.00    +0.001 A 
ATOM     26  C   UNL     1      -2.229  -1.446   0.000  0.00  0.00    +0.011 A 
ATOM     27  C   UNL     1      -1.408  -1.360   0.000  0.00  0.00    +0.057 A 
ATOM     28 CL   UNL     1      -1.073  -0.606   0.000  0.00  0.00    -0.082 Cl
ATOM     29  C   UNL     1      -0.923  -2.027   0.000  0.00  0.00    +0.009 A 
ENDBRANCH  22  23
ENDBRANCH  21  22
ENDBRANCH  20  21
ENDBRANCH  19  20
TORSDOF 9
