REMARK  Name = 
REMARK  6 active torsions:
REMARK  status: ('A' for Active; 'I' for Inactive)
REMARK    1  A    between atoms: S_2  and  C_5
REMARK    2  A    between atoms: C_8  and  C_9
REMARK    3  A    between atoms: C_9  and  N_10
REMARK    4  A    between atoms: C_15  and  C_16
REMARK    5  A    between atoms: C_18  and  C_21
REMARK    6  A    between atoms: C_25  and  N_27
REMARK                            x       y       z     vdW  Elec       q    Type
REMARK                         _______ _______ _______ _____ _____    ______ ____
ROOT
ATOM     10  N   UNL     1      -0.596  -3.041   0.000  0.00  0.00    -0.260 NA
ATOM     11  C   UNL     1       0.072  -3.525   0.000  0.00  0.00    +0.106 C 
ATOM     12  C   UNL     1      -0.183  -4.310   0.000  0.00  0.00    +0.170 C 
ATOM     13  O   UNL     1       0.302  -4.977   0.000  0.00  0.00    -0.222 OA
ATOM     14  C   UNL     1      -1.008  -4.310   0.000  0.00  0.00    +0.060 C 
ATOM     15  C   UNL     1      -1.263  -3.525   0.000  0.00  0.00    +0.140 C 
ENDROOT
BRANCH  15  16
ATOM     16  C   UNL     1      -2.047  -3.270   0.000  0.00  0.00    +0.251 A 
ATOM     17  N   UNL     1      -2.715  -3.755   0.000  0.00  0.00    -0.190 NA
ATOM     18  C   UNL     1      -3.382  -3.270   0.000  0.00  0.00    +0.203 A 
ATOM     19  N   UNL     1      -3.127  -2.486   0.000  0.00  0.00    -0.056 NA
ATOM     20  O   UNL     1      -2.303  -2.486   0.000  0.00  0.00    -0.336 OA
BRANCH  18  21
ATOM     21  C   UNL     1      -4.167  -3.525   0.000  0.00  0.00    +0.041 A 
ATOM     22  C   UNL     1      -4.338  -4.332   0.000  0.00  0.00    +0.003 A 
ATOM     23  C   UNL     1      -5.123  -4.587   0.000  0.00  0.00    +0.002 A 
ATOM     24  C   UNL     1      -5.736  -4.035   0.000  0.00  0.00    +0.024 A 
ATOM     25  C   UNL     1      -5.565  -3.228   0.000  0.00  0.00    +0.143 A 
ATOM     26  C   UNL     1      -4.780  -2.973   0.000  0.00  0.00    +0.027 A 
BRANCH  25  27
ATOM     27  N   UNL     1      -6.178  -2.676   0.000  0.00  0.00    +0.058 N 
ATOM     28  O   UNL     1      -6.962  -2.931   0.000  0.00  0.00    -0.126 OA
ATOM     29  O   UNL     1      -6.006  -1.869   0.000  0.00  0.00    -0.126 OA
ENDBRANCH  25  27
ENDBRANCH  18  21
ENDBRANCH  15  16
BRANCH  10   9
ATOM      9  C   UNL     1      -0.596  -2.216   0.000  0.00  0.00    +0.100 C 
BRANCH   9   8
ATOM      5  C   UNL     1       1.548  -0.978   0.000  0.00  0.00    +0.106 A 
ATOM      6  C   UNL     1       1.548  -1.803   0.000  0.00  0.00    +0.018 A 
ATOM      7  C   UNL     1       0.834  -2.216   0.000  0.00  0.00    -0.002 A 
ATOM      8  C   UNL     1       0.119  -1.803   0.000  0.00  0.00    -0.006 A 
ATOM     30  C   UNL     1       0.119  -0.978   0.000  0.00  0.00    -0.002 A 
ATOM     31  C   UNL     1       0.834  -0.566   0.000  0.00  0.00    +0.018 A 
BRANCH   5   2
ATOM      1  C   UNL     1       2.977  -0.153   0.000  0.00  0.00    +0.182 C 
ATOM      2  S   UNL     1       2.262  -0.566   0.000  0.00  0.00    +0.010 S 
ATOM      3  O   UNL     1       1.850   0.149   0.000  0.00  0.00    -0.169 OA
ATOM      4  O   UNL     1       2.675  -1.280   0.000  0.00  0.00    -0.169 OA
ENDBRANCH   5   2
ENDBRANCH   9   8
ENDBRANCH  10   9
TORSDOF 6
