REMARK  Name = 
REMARK  4 active torsions:
REMARK  status: ('A' for Active; 'I' for Inactive)
REMARK    1  A    between atoms: C_2  and  C_3
REMARK    2  A    between atoms: C_3  and  C_4
REMARK    3  A    between atoms: C_7  and  C_9
REMARK    4  A    between atoms: C_14  and  C_16
REMARK                            x       y       z     vdW  Elec       q    Type
REMARK                         _______ _______ _______ _____ _____    ______ ____
ROOT
ATOM      9  C   UNL     1       3.356  -3.003   0.000  0.00  0.00    +0.100 C 
ATOM     10  C   UNL     1       3.611  -3.788   0.000  0.00  0.00    +0.033 C 
ATOM     11  C   UNL     1       2.943  -4.273   0.000  0.00  0.00    +0.094 C 
ATOM     12  N   UNL     1       2.276  -3.788   0.000  0.00  0.00    -0.276 N 
ATOM     13  C   UNL     1       2.531  -3.003   0.000  0.00  0.00    +0.103 C 
ATOM     14  C   UNL     1       1.491  -4.043   0.000  0.00  0.00    +0.249 C 
ATOM     15  O   UNL     1       1.320  -4.850   0.000  0.00  0.00    -0.270 OA
ENDROOT
BRANCH  14  16
ATOM     16  C   UNL     1       0.878  -3.491   0.000  0.00  0.00    +0.054 A 
ATOM     17  C   UNL     1       0.093  -3.746   0.000  0.00  0.00    +0.005 A 
ATOM     18  C   UNL     1      -0.520  -3.194   0.000  0.00  0.00    +0.000 A 
ATOM     19  C   UNL     1      -0.348  -2.387   0.000  0.00  0.00    +0.000 A 
ATOM     20  C   UNL     1       0.436  -2.132   0.000  0.00  0.00    +0.000 A 
ATOM     21  C   UNL     1       1.050  -2.684   0.000  0.00  0.00    +0.005 A 
ENDBRANCH  14  16
BRANCH   9   7
ATOM      4  C   UNL     1       4.253  -1.066   0.000  0.00  0.00    +0.226 A 
ATOM      5  N   UNL     1       4.920  -1.551   0.000  0.00  0.00    -0.112 NA
ATOM      6  N   UNL     1       4.666  -2.336   0.000  0.00  0.00    -0.112 NA
ATOM      7  C   UNL     1       3.841  -2.336   0.000  0.00  0.00    +0.227 A 
ATOM      8  O   UNL     1       3.586  -1.551   0.000  0.00  0.00    -0.423 OA
BRANCH   4   3
ATOM      3  C   UNL     1       4.253  -0.241   0.000  0.00  0.00    +0.087 C 
BRANCH   3   2
ATOM      1  C   UNL     1       4.968   0.996   0.000  0.00  0.00    +0.001 C 
ATOM      2  C   UNL     1       4.968   0.171   0.000  0.00  0.00    +0.010 C 
ENDBRANCH   3   2
ENDBRANCH   4   3
ENDBRANCH   9   7
TORSDOF 4
