REMARK  Name = 
REMARK  7 active torsions:
REMARK  status: ('A' for Active; 'I' for Inactive)
REMARK    1  A    between atoms: C_5  and  C_6
REMARK    2  A    between atoms: C_6  and  C_7
REMARK    3  A    between atoms: N_9  and  C_10
REMARK    4  A    between atoms: C_17  and  C_18
REMARK    5  A    between atoms: C_18  and  N_19
REMARK    6  A    between atoms: N_19  and  C_20
REMARK    7  A    between atoms: C_20  and  C_21
REMARK                            x       y       z     vdW  Elec       q    Type
REMARK                         _______ _______ _______ _____ _____    ______ ____
ROOT
ATOM      1  O   UNL     1       2.751  -1.712   0.000  0.00  0.00    -0.218 OA
ATOM      2  C   UNL     1       2.751  -2.537   0.000  0.00  0.00    +0.213 C 
ATOM      3  C   UNL     1       3.419  -3.022   0.000  0.00  0.00    +0.212 C 
ATOM      4  O   UNL     1       4.203  -2.767   0.000  0.00  0.00    -0.218 OA
ATOM      5  C   UNL     1       3.164  -3.806   0.000  0.00  0.00    +0.157 C 
ATOM     16  O   UNL     1       2.339  -3.806   0.000  0.00  0.00    -0.351 OA
ATOM     17  C   UNL     1       2.084  -3.022   0.000  0.00  0.00    +0.165 C 
ENDROOT
BRANCH   5   6
ATOM      6  C   UNL     1       3.649  -4.474   0.000  0.00  0.00    +0.119 C 
BRANCH   6   7
ATOM      7  C   UNL     1       4.469  -4.387   0.000  0.00  0.00    +0.248 C 
ATOM      8  O   UNL     1       4.805  -3.634   0.000  0.00  0.00    -0.273 OA
ATOM      9  N   UNL     1       4.954  -5.055   0.000  0.00  0.00    -0.179 NA
BRANCH   9  10
ATOM     10  C   UNL     1       5.774  -4.969   0.000  0.00  0.00    +0.073 A 
ATOM     11  C   UNL     1       6.110  -4.215   0.000  0.00  0.00    +0.017 A 
ATOM     12  C   UNL     1       6.931  -4.129   0.000  0.00  0.00    +0.001 A 
ATOM     13  C   UNL     1       7.415  -4.796   0.000  0.00  0.00    +0.000 A 
ATOM     14  C   UNL     1       7.080  -5.550   0.000  0.00  0.00    +0.001 A 
ATOM     15  C   UNL     1       6.259  -5.636   0.000  0.00  0.00    +0.017 A 
ENDBRANCH   9  10
ENDBRANCH   6   7
ENDBRANCH   5   6
BRANCH  17  18
ATOM     18  C   UNL     1       1.299  -2.767   0.000  0.00  0.00    +0.121 C 
BRANCH  18  19
ATOM     19  N   UNL     1       1.128  -1.960   0.000  0.00  0.00    -0.211 NA
BRANCH  19  20
ATOM     20  C   UNL     1       0.343  -1.705   0.000  0.00  0.00    +0.115 C 
BRANCH  20  21
ATOM     21  C   UNL     1       0.171  -0.898   0.000  0.00  0.00    -0.005 A 
ATOM     22  C   UNL     1      -0.613  -0.643   0.000  0.00  0.00    -0.001 A 
ATOM     23  C   UNL     1      -0.785   0.164   0.000  0.00  0.00    +0.029 A 
ATOM     24  C   UNL     1      -0.172   0.716   0.000  0.00  0.00    +0.140 A 
ATOM     25  F   UNL     1      -0.343   1.523   0.000  0.00  0.00    -0.204 F 
ATOM     26  C   UNL     1       0.613   0.461   0.000  0.00  0.00    +0.029 A 
ATOM     27  C   UNL     1       0.784  -0.346   0.000  0.00  0.00    -0.001 A 
ENDBRANCH  20  21
ENDBRANCH  19  20
ENDBRANCH  18  19
ENDBRANCH  17  18
TORSDOF 7
