REMARK  Name = 
REMARK  5 active torsions:
REMARK  status: ('A' for Active; 'I' for Inactive)
REMARK    1  A    between atoms: O_2  and  C_3
REMARK    2  A    between atoms: C_3  and  C_4
REMARK    3  A    between atoms: C_4  and  N_5
REMARK    4  A    between atoms: N_8  and  C_9
REMARK    5  A    between atoms: C_9  and  C_10
REMARK                            x       y       z     vdW  Elec       q    Type
REMARK                         _______ _______ _______ _____ _____    ______ ____
ROOT
ATOM      5  N   UNL     1       3.319  -2.826   0.000  0.00  0.00    -0.273 N 
ATOM      6  C   UNL     1       2.604  -2.413   0.000  0.00  0.00    +0.120 C 
ATOM      7  C   UNL     1       1.820  -2.668   0.000  0.00  0.00    +0.095 C 
ATOM      8  N   UNL     1       1.335  -2.001   0.000  0.00  0.00    -0.265 NA
ATOM     19  C   UNL     1       1.820  -1.333   0.000  0.00  0.00    +0.104 C 
ATOM     20  C   UNL     1       2.604  -1.588   0.000  0.00  0.00    +0.151 C 
ATOM     21  O   UNL     1       3.319  -1.176   0.000  0.00  0.00    -0.344 OA
ATOM     22  C   UNL     1       4.033  -1.588   0.000  0.00  0.00    +0.227 C 
ATOM     23  C   UNL     1       4.033  -2.413   0.000  0.00  0.00    +0.256 C 
ATOM     24  O   UNL     1       4.748  -2.826   0.000  0.00  0.00    -0.272 OA
ENDROOT
BRANCH   5   4
ATOM      4  C   UNL     1       3.319  -3.651   0.000  0.00  0.00    +0.126 C 
BRANCH   4   3
ATOM      3  C   UNL     1       4.033  -4.063   0.000  0.00  0.00    +0.164 C 
BRANCH   3   2
ATOM      1  C   UNL     1       4.748  -5.301   0.000  0.00  0.00    +0.174 C 
ATOM      2  O   UNL     1       4.033  -4.888   0.000  0.00  0.00    -0.349 OA
ENDBRANCH   3   2
ENDBRANCH   4   3
ENDBRANCH   5   4
BRANCH   8   9
ATOM      9  C   UNL     1       0.510  -2.001   0.000  0.00  0.00    +0.099 C 
BRANCH   9  10
ATOM     10  C   UNL     1       0.097  -1.286   0.000  0.00  0.00    -0.003 A 
ATOM     11  C   UNL     1      -0.728  -1.286   0.000  0.00  0.00    +0.000 A 
ATOM     12  C   UNL     1      -1.140  -0.572   0.000  0.00  0.00    +0.040 A 
ATOM     13  C   UNL     1      -0.728   0.142   0.000  0.00  0.00    +0.176 A 
ATOM     14  O   UNL     1      -0.983   0.927   0.000  0.00  0.00    -0.435 OA
ATOM     15  C   UNL     1      -0.315   1.412   0.000  0.00  0.00    +0.429 C 
ATOM     16  O   UNL     1       0.352   0.927   0.000  0.00  0.00    -0.435 OA
ATOM     17  C   UNL     1       0.097   0.142   0.000  0.00  0.00    +0.176 A 
ATOM     18  C   UNL     1       0.510  -0.572   0.000  0.00  0.00    +0.037 A 
ENDBRANCH   9  10
ENDBRANCH   8   9
TORSDOF 5
