REMARK  Name = 
REMARK  5 active torsions:
REMARK  status: ('A' for Active; 'I' for Inactive)
REMARK    1  A    between atoms: C_2  and  C_26
REMARK    2  A    between atoms: N_3  and  C_4
REMARK    3  A    between atoms: C_4  and  C_5
REMARK    4  A    between atoms: C_12  and  C_13
REMARK    5  A    between atoms: C_13  and  N_14
REMARK                            x       y       z     vdW  Elec       q    Type
REMARK                         _______ _______ _______ _____ _____    ______ ____
ROOT
ATOM      5  C   UNL     1       1.814  -2.106   0.000  0.00  0.00    +0.079 C 
ATOM      6  C   UNL     1       1.661  -1.343   0.000  0.00  0.00    +0.018 C 
ATOM      7  C   UNL     1       0.923  -1.010   0.000  0.00  0.00    +0.005 C 
ATOM      8  C   UNL     1       0.961  -0.114   0.000  0.00  0.00    +0.017 C 
ATOM      9  C   UNL     1       1.205  -0.720   0.000  0.00  0.00    +0.072 C 
ATOM     10  N   UNL     1       1.065  -1.759   0.000  0.00  0.00    -0.272 NA
ATOM     11  C   UNL     1       0.226  -2.118   0.000  0.00  0.00    +0.073 C 
ATOM     12  C   UNL     1       0.119  -1.362   0.000  0.00  0.00    +0.032 C 
ENDROOT
BRANCH   5   4
ATOM      4  C   UNL     1       2.324  -2.754   0.000  0.00  0.00    +0.131 C 
BRANCH   4   3
ATOM      1  O   UNL     1       3.345  -4.050   0.000  0.00  0.00    -0.268 OA
ATOM      2  C   UNL     1       2.529  -4.168   0.000  0.00  0.00    +0.265 C 
ATOM      3  N   UNL     1       2.018  -3.520   0.000  0.00  0.00    -0.200 NA
BRANCH   2  26
ATOM     26  C   UNL     1       2.223  -4.934   0.000  0.00  0.00    +0.055 A 
ATOM     27  C   UNL     1       2.733  -5.582   0.000  0.00  0.00    +0.005 A 
ATOM     28  C   UNL     1       2.427  -6.348   0.000  0.00  0.00    +0.000 A 
ATOM     29  C   UNL     1       1.611  -6.466   0.000  0.00  0.00    +0.000 A 
ATOM     30  C   UNL     1       1.100  -5.818   0.000  0.00  0.00    +0.000 A 
ATOM     31  C   UNL     1       1.406  -5.052   0.000  0.00  0.00    +0.005 A 
ENDBRANCH   2  26
ENDBRANCH   4   3
ENDBRANCH   5   4
BRANCH  12  13
ATOM     13  C   UNL     1      -0.602  -0.960   0.000  0.00  0.00    +0.074 C 
BRANCH  13  14
ATOM     14  N   UNL     1      -1.310  -1.384   0.000  0.00  0.00    -0.270 NA
ATOM     15  C   UNL     1      -1.297  -2.208   0.000  0.00  0.00    +0.094 C 
ATOM     16  C   UNL     1      -2.006  -2.632   0.000  0.00  0.00    +0.111 C 
ATOM     17  N   UNL     1      -2.726  -2.230   0.000  0.00  0.00    -0.275 N 
ATOM     18  C   UNL     1      -2.739  -1.405   0.000  0.00  0.00    +0.111 C 
ATOM     19  C   UNL     1      -2.030  -0.982   0.000  0.00  0.00    +0.094 C 
ATOM     20  C   UNL     1      -3.434  -2.653   0.000  0.00  0.00    +0.220 A 
ATOM     21  N   UNL     1      -3.422  -3.478   0.000  0.00  0.00    -0.212 NA
ATOM     22  C   UNL     1      -4.130  -3.901   0.000  0.00  0.00    +0.103 A 
ATOM     23  C   UNL     1      -4.851  -3.499   0.000  0.00  0.00    +0.041 A 
ATOM     24  C   UNL     1      -4.863  -2.675   0.000  0.00  0.00    +0.103 A 
ATOM     25  N   UNL     1      -4.155  -2.251   0.000  0.00  0.00    -0.212 NA
ENDBRANCH  13  14
ENDBRANCH  12  13
TORSDOF 5
