REMARK  Name = 
REMARK  6 active torsions:
REMARK  status: ('A' for Active; 'I' for Inactive)
REMARK    1  A    between atoms: C_2  and  N_4
REMARK    2  A    between atoms: N_7  and  C_8
REMARK    3  A    between atoms: C_8  and  C_9
REMARK    4  A    between atoms: C_12  and  N_13
REMARK    5  A    between atoms: N_13  and  C_14
REMARK    6  A    between atoms: C_14  and  C_15
REMARK                            x       y       z     vdW  Elec       q    Type
REMARK                         _______ _______ _______ _____ _____    ______ ____
ROOT
ATOM      9  C   UNL     1       8.288  -5.759   0.000  0.00  0.00    +0.169 C 
ATOM     10  O   UNL     1       8.374  -4.938   0.000  0.00  0.00    -0.350 OA
ATOM     11  C   UNL     1       9.181  -4.767   0.000  0.00  0.00    +0.162 C 
ATOM     12  C   UNL     1       9.594  -5.481   0.000  0.00  0.00    +0.136 C 
ATOM     21  C   UNL     1       9.042  -6.094   0.000  0.00  0.00    +0.199 C 
ATOM     22  O   UNL     1       9.213  -6.901   0.000  0.00  0.00    -0.219 OA
ENDROOT
BRANCH   9   8
ATOM      8  C   UNL     1       7.574  -6.171   0.000  0.00  0.00    +0.149 C 
BRANCH   8   7
ATOM      4  N   UNL     1       5.430  -5.759   0.000  0.00  0.00    -0.189 NA
ATOM      5  C   UNL     1       6.145  -6.171   0.000  0.00  0.00    +0.339 C 
ATOM      6  O   UNL     1       6.145  -6.996   0.000  0.00  0.00    -0.249 OA
ATOM      7  N   UNL     1       6.859  -5.759   0.000  0.00  0.00    -0.185 NA
BRANCH   4   2
ATOM      1  C   UNL     1       4.002  -5.759   0.000  0.00  0.00    +0.023 C 
ATOM      2  C   UNL     1       4.716  -6.171   0.000  0.00  0.00    +0.097 C 
ATOM      3  C   UNL     1       4.716  -6.996   0.000  0.00  0.00    +0.023 C 
ENDBRANCH   4   2
ENDBRANCH   8   7
ENDBRANCH   9   8
BRANCH  12  13
ATOM     13  N   UNL     1      10.415  -5.568   0.000  0.00  0.00    -0.206 NA
BRANCH  13  14
ATOM     14  C   UNL     1      10.899  -4.900   0.000  0.00  0.00    +0.152 C 
BRANCH  14  15
ATOM     15  C   UNL     1      11.720  -4.986   0.000  0.00  0.00    +0.138 A 
ATOM     16  N   UNL     1      12.272  -4.373   0.000  0.00  0.00    -0.228 NA
ATOM     17  C   UNL     1      13.026  -4.709   0.000  0.00  0.00    +0.119 A 
ATOM     18  C   UNL     1      12.939  -5.529   0.000  0.00  0.00    +0.098 A 
ATOM     19  N   UNL     1      12.132  -5.701   0.000  0.00  0.00    -0.311 N 
ATOM     20  C   UNL     1      11.797  -6.455   0.000  0.00  0.00    +0.132 C 
ENDBRANCH  14  15
ENDBRANCH  13  14
ENDBRANCH  12  13
TORSDOF 6
