REMARK  Name = 
REMARK  5 active torsions:
REMARK  status: ('A' for Active; 'I' for Inactive)
REMARK    1  A    between atoms: C_3  and  N_18
REMARK    2  A    between atoms: C_6  and  C_7
REMARK    3  A    between atoms: C_7  and  N_8
REMARK    4  A    between atoms: C_9  and  C_11
REMARK    5  A    between atoms: N_18  and  C_19
REMARK                            x       y       z     vdW  Elec       q    Type
REMARK                         _______ _______ _______ _____ _____    ______ ____
ROOT
ATOM      1  O   UNL     1      -1.322  -1.712   0.000  0.00  0.00    -0.219 OA
ATOM      2  C   UNL     1      -1.322  -2.537   0.000  0.00  0.00    +0.199 C 
ATOM      3  C   UNL     1      -0.655  -3.022   0.000  0.00  0.00    +0.135 C 
ATOM      4  C   UNL     1      -0.910  -3.806   0.000  0.00  0.00    +0.162 C 
ATOM      5  O   UNL     1      -1.735  -3.806   0.000  0.00  0.00    -0.350 OA
ATOM      6  C   UNL     1      -1.990  -3.022   0.000  0.00  0.00    +0.169 C 
ENDROOT
BRANCH   6   7
ATOM      7  C   UNL     1      -2.774  -2.767   0.000  0.00  0.00    +0.148 C 
BRANCH   7   8
ATOM      8  N   UNL     1      -3.387  -3.319   0.000  0.00  0.00    -0.199 NA
ATOM      9  C   UNL     1      -4.172  -3.064   0.000  0.00  0.00    +0.265 C 
ATOM     10  O   UNL     1      -4.343  -2.257   0.000  0.00  0.00    -0.268 OA
BRANCH   9  11
ATOM     11  C   UNL     1      -4.785  -3.616   0.000  0.00  0.00    +0.055 A 
ATOM     12  C   UNL     1      -4.614  -4.423   0.000  0.00  0.00    +0.007 A 
ATOM     13  C   UNL     1      -5.227  -4.975   0.000  0.00  0.00    +0.030 A 
ATOM     14  C   UNL     1      -6.011  -4.720   0.000  0.00  0.00    +0.140 A 
ATOM     15  F   UNL     1      -6.624  -5.272   0.000  0.00  0.00    -0.204 F 
ATOM     16  C   UNL     1      -6.183  -3.913   0.000  0.00  0.00    +0.030 A 
ATOM     17  C   UNL     1      -5.570  -3.361   0.000  0.00  0.00    +0.007 A 
ENDBRANCH   9  11
ENDBRANCH   7   8
ENDBRANCH   6   7
BRANCH   3  18
ATOM     18  N   UNL     1       0.130  -2.767   0.000  0.00  0.00    -0.216 NA
BRANCH  18  19
ATOM     19  C   UNL     1       0.743  -3.319   0.000  0.00  0.00    +0.073 C 
ATOM     20  C   UNL     1       1.550  -3.147   0.000  0.00  0.00    +0.017 C 
ATOM     21  C   UNL     1       1.962  -3.862   0.000  0.00  0.00    +0.001 C 
ATOM     22  C   UNL     1       1.410  -4.475   0.000  0.00  0.00    +0.001 C 
ATOM     23  C   UNL     1       0.657  -4.139   0.000  0.00  0.00    +0.017 C 
ENDBRANCH  18  19
ENDBRANCH   3  18
TORSDOF 5
