REMARK  Name = 
REMARK  3 active torsions:
REMARK  status: ('A' for Active; 'I' for Inactive)
REMARK    1  A    between atoms: N_4  and  C_5
REMARK    2  A    between atoms: C_8  and  C_11
REMARK    3  A    between atoms: C_21  and  C_23
REMARK                            x       y       z     vdW  Elec       q    Type
REMARK                         _______ _______ _______ _____ _____    ______ ____
ROOT
ATOM     11  C   UNL     1      -1.213  -1.232   0.000  0.00  0.00    +0.056 A 
ATOM     12  C   UNL     1      -1.167  -0.335   0.000  0.00  0.00    +0.006 A 
ATOM     13  C   UNL     1      -0.397  -0.039   0.000  0.00  0.00    +0.013 A 
ATOM     14  C   UNL     1       0.244  -0.558   0.000  0.00  0.00    +0.041 A 
ATOM     15  C   UNL     1       1.163  -0.557   0.000  0.00  0.00    +0.058 C 
ATOM     16  C   UNL     1       1.713  -0.121   0.000  0.00  0.00    +0.011 C 
ATOM     17  C   UNL     1       1.582  -0.925   0.000  0.00  0.00    +0.043 C 
ATOM     18  C   UNL     1       1.629  -1.912   0.000  0.00  0.00    +0.095 C 
ATOM     19  N   UNL     1       0.813  -2.091   0.000  0.00  0.00    -0.279 N 
ATOM     20  C   UNL     1       1.225  -1.510   0.000  0.00  0.00    +0.099 C 
ATOM     21  C   UNL     1       0.164  -2.682   0.000  0.00  0.00    +0.225 C 
ATOM     22  O   UNL     1       0.372  -3.532   0.000  0.00  0.00    -0.275 OA
ATOM     29  C   UNL     1       0.622  -0.936   0.000  0.00  0.00    +0.110 C 
ATOM     30  N   UNL     1       0.115  -1.373   0.000  0.00  0.00    -0.299 N 
ATOM     31  C   UNL     1      -0.655  -1.669   0.000  0.00  0.00    +0.261 A 
ATOM     32  O   UNL     1      -0.732  -2.684   0.000  0.00  0.00    -0.267 OA
ENDROOT
BRANCH  11   8
ATOM      5  C   UNL     1      -3.606  -2.037   0.000  0.00  0.00    +0.073 A 
ATOM      6  C   UNL     1      -3.478  -1.222   0.000  0.00  0.00    +0.017 A 
ATOM      7  C   UNL     1      -2.707  -0.926   0.000  0.00  0.00    +0.001 A 
ATOM      8  C   UNL     1      -1.819  -1.693   0.000  0.00  0.00    +0.005 A 
ATOM      9  C   UNL     1      -2.360  -2.095   0.000  0.00  0.00    +0.001 A 
ATOM     10  C   UNL     1      -2.965  -2.556   0.000  0.00  0.00    +0.017 A 
BRANCH   5   4
ATOM      1  C   UNL     1      -5.300  -1.128   0.000  0.00  0.00    +0.097 C 
ATOM      2  C   UNL     1      -5.217  -1.949   0.000  0.00  0.00    +0.246 C 
ATOM      3  O   UNL     1      -5.886  -2.431   0.000  0.00  0.00    -0.273 OA
ATOM      4  N   UNL     1      -4.447  -2.295   0.000  0.00  0.00    -0.179 NA
ENDBRANCH   5   4
ENDBRANCH  11   8
BRANCH  21  23
ATOM     23  C   UNL     1      -0.614  -2.179   0.000  0.00  0.00    +0.077 C 
ATOM     24  C   UNL     1      -1.301  -2.635   0.000  0.00  0.00    +0.009 C 
ATOM     25  C   UNL     1      -2.040  -2.267   0.000  0.00  0.00    +0.000 C 
ATOM     26  C   UNL     1      -2.091  -1.444   0.000  0.00  0.00    +0.000 C 
ATOM     27  C   UNL     1      -1.403  -0.988   0.000  0.00  0.00    +0.000 C 
ATOM     28  C   UNL     1      -0.664  -1.356   0.000  0.00  0.00    +0.009 C 
ENDBRANCH  21  23
TORSDOF 3
