REMARK  Name = 
REMARK  4 active torsions:
REMARK  status: ('A' for Active; 'I' for Inactive)
REMARK    1  A    between atoms: C_4  and  C_5
REMARK    2  A    between atoms: C_5  and  N_6
REMARK    3  A    between atoms: N_6  and  C_7
REMARK    4  A    between atoms: C_13  and  C_14
REMARK                            x       y       z     vdW  Elec       q    Type
REMARK                         _______ _______ _______ _____ _____    ______ ____
ROOT
ATOM      7  C   UNL     1       5.279  -4.204   0.000  0.00  0.00    +0.110 C 
ATOM      8  C   UNL     1       6.104  -4.204   0.000  0.00  0.00    +0.198 C 
ATOM      9  O   UNL     1       6.588  -3.537   0.000  0.00  0.00    -0.219 OA
ATOM     10  C   UNL     1       6.358  -4.989   0.000  0.00  0.00    +0.184 C 
ATOM     11  O   UNL     1       7.143  -5.244   0.000  0.00  0.00    -0.220 OA
ATOM     12  C   UNL     1       5.691  -5.474   0.000  0.00  0.00    +0.041 C 
ATOM     13  C   UNL     1       5.024  -4.989   0.000  0.00  0.00    +0.045 C 
ENDROOT
BRANCH  13  14
ATOM     14  C   UNL     1       4.239  -5.244   0.000  0.00  0.00    -0.002 A 
ATOM     15  C   UNL     1       4.067  -6.051   0.000  0.00  0.00    -0.001 A 
ATOM     16  C   UNL     1       3.283  -6.306   0.000  0.00  0.00    +0.020 A 
ATOM     17  C   UNL     1       2.670  -5.753   0.000  0.00  0.00    +0.099 A 
ATOM     18  N   UNL     1       2.841  -4.947   0.000  0.00  0.00    -0.243 NA
ATOM     19  C   UNL     1       3.626  -4.692   0.000  0.00  0.00    +0.095 A 
ENDBRANCH  13  14
BRANCH   7   6
ATOM      6  N   UNL     1       4.794  -3.537   0.000  0.00  0.00    -0.212 NA
BRANCH   6   5
ATOM      5  C   UNL     1       5.129  -2.783   0.000  0.00  0.00    +0.118 C 
BRANCH   5   4
ATOM      1  C   UNL     1       4.232  -0.021   0.000  0.00  0.00    +0.154 C 
ATOM      2  N   UNL     1       4.232  -0.846   0.000  0.00  0.00    -0.248 N 
ATOM      3  C   UNL     1       4.899  -1.331   0.000  0.00  0.00    +0.094 A 
ATOM      4  C   UNL     1       4.644  -2.115   0.000  0.00  0.00    +0.035 A 
ATOM     20  C   UNL     1       3.819  -2.115   0.000  0.00  0.00    +0.119 A 
ATOM     21  N   UNL     1       3.564  -1.331   0.000  0.00  0.00    -0.168 NA
ENDBRANCH   5   4
ENDBRANCH   6   5
ENDBRANCH   7   6
TORSDOF 4
