REMARK  Name = 
REMARK  7 active torsions:
REMARK  status: ('A' for Active; 'I' for Inactive)
REMARK    1  A    between atoms: C_2  and  C_3
REMARK    2  A    between atoms: C_8  and  C_9
REMARK    3  A    between atoms: C_9  and  C_10
REMARK    4  A    between atoms: N_12  and  C_13
REMARK    5  A    between atoms: C_13  and  C_14
REMARK    6  A    between atoms: N_22  and  C_23
REMARK    7  A    between atoms: C_27  and  O_28
REMARK                            x       y       z     vdW  Elec       q    Type
REMARK                         _______ _______ _______ _____ _____    ______ ____
ROOT
ATOM      3  C   UNL     1      -1.429  -5.775   0.000  0.00  0.00    +0.020 C 
ATOM      4  C   UNL     1      -2.143  -5.362   0.000  0.00  0.00    +0.095 C 
ATOM      5  N   UNL     1      -2.143  -4.537   0.000  0.00  0.00    -0.263 N 
ATOM      6  C   UNL     1      -1.429  -4.125   0.000  0.00  0.00    +0.095 C 
ATOM      7  C   UNL     1      -0.715  -4.537   0.000  0.00  0.00    +0.022 C 
ATOM      8  C   UNL     1      -0.715  -5.362   0.000  0.00  0.00    +0.012 C 
ATOM     20  C   UNL     1      -2.858  -4.125   0.000  0.00  0.00    +0.327 C 
ATOM     21  O   UNL     1      -3.572  -4.537   0.000  0.00  0.00    -0.250 OA
ATOM     22  N   UNL     1      -2.858  -3.300   0.000  0.00  0.00    -0.162 NA
ENDROOT
BRANCH  22  23
ATOM     23  C   UNL     1      -3.572  -2.888   0.000  0.00  0.00    +0.078 A 
ATOM     24  C   UNL     1      -4.287  -3.300   0.000  0.00  0.00    +0.017 A 
ATOM     25  C   UNL     1      -5.001  -2.888   0.000  0.00  0.00    +0.004 A 
ATOM     26  C   UNL     1      -5.001  -2.062   0.000  0.00  0.00    +0.037 A 
ATOM     27  C   UNL     1      -4.287  -1.650   0.000  0.00  0.00    +0.140 A 
ATOM     30  C   UNL     1      -3.572  -2.062   0.000  0.00  0.00    +0.054 A 
BRANCH  27  28
ATOM     28  O   UNL     1      -4.287  -0.825   0.000  0.00  0.00    -0.471 OA
ATOM     29  C   UNL     1      -5.001  -0.412   0.000  0.00  0.00    +0.252 C 
ENDBRANCH  27  28
ENDBRANCH  22  23
BRANCH   3   2
ATOM      1  C   UNL     1      -0.715  -7.013   0.000  0.00  0.00    +0.000 C 
ATOM      2  C   UNL     1      -1.429  -6.600   0.000  0.00  0.00    +0.002 C 
ENDBRANCH   3   2
BRANCH   8   9
ATOM      9  C   UNL     1       0.000  -5.775   0.000  0.00  0.00    +0.087 C 
BRANCH   9  10
ATOM     10  C   UNL     1       0.715  -5.362   0.000  0.00  0.00    +0.242 C 
ATOM     11  O   UNL     1       0.715  -4.537   0.000  0.00  0.00    -0.273 OA
ATOM     12  N   UNL     1       1.429  -5.775   0.000  0.00  0.00    -0.201 NA
BRANCH  12  13
ATOM     13  C   UNL     1       2.143  -5.362   0.000  0.00  0.00    +0.141 C 
BRANCH  13  14
ATOM     14  C   UNL     1       2.858  -5.775   0.000  0.00  0.00    -0.001 A 
ATOM     15  C   UNL     1       3.572  -5.362   0.000  0.00  0.00    -0.003 A 
ATOM     16  C   UNL     1       4.287  -5.775   0.000  0.00  0.00    -0.000 A 
ATOM     17  C   UNL     1       4.287  -6.600   0.000  0.00  0.00    -0.000 A 
ATOM     18  C   UNL     1       3.572  -7.013   0.000  0.00  0.00    -0.000 A 
ATOM     19  C   UNL     1       2.858  -6.600   0.000  0.00  0.00    -0.003 A 
ENDBRANCH  13  14
ENDBRANCH  12  13
ENDBRANCH   9  10
ENDBRANCH   8   9
TORSDOF 7
