REMARK  Name = 
REMARK  8 active torsions:
REMARK  status: ('A' for Active; 'I' for Inactive)
REMARK    1  A    between atoms: C_2  and  N_3
REMARK    2  A    between atoms: C_4  and  O_6
REMARK    3  A    between atoms: O_6  and  C_7
REMARK    4  A    between atoms: C_12  and  C_13
REMARK    5  A    between atoms: C_13  and  C_14
REMARK    6  A    between atoms: N_16  and  C_17
REMARK    7  A    between atoms: C_17  and  C_18
REMARK    8  A    between atoms: C_28  and  C_30
REMARK                            x       y       z     vdW  Elec       q    Type
REMARK                         _______ _______ _______ _____ _____    ______ ____
ROOT
ATOM      7  C   UNL     1      -4.287  -2.475   0.000  0.00  0.00    +0.173 C 
ATOM      8  C   UNL     1      -4.287  -1.650   0.000  0.00  0.00    +0.044 C 
ATOM      9  C   UNL     1      -3.572  -1.238   0.000  0.00  0.00    +0.004 C 
ATOM     10  C   UNL     1      -2.858  -1.650   0.000  0.00  0.00    +0.003 C 
ATOM     11  C   UNL     1      -2.858  -0.825   0.000  0.00  0.00    +0.000 C 
ATOM     12  C   UNL     1      -2.143  -1.238   0.000  0.00  0.00    +0.040 C 
ATOM     23  C   UNL     1      -1.429  -1.650   0.000  0.00  0.00    +0.152 C 
ATOM     24  O   UNL     1      -0.715  -1.238   0.000  0.00  0.00    -0.223 OA
ATOM     25  C   UNL     1      -1.429  -2.475   0.000  0.00  0.00    +0.033 C 
ATOM     26  C   UNL     1      -2.143  -2.888   0.000  0.00  0.00    +0.003 C 
ATOM     27  C   UNL     1      -2.858  -2.475   0.000  0.00  0.00    +0.006 C 
ATOM     28  C   UNL     1      -3.572  -2.888   0.000  0.00  0.00    +0.068 C 
ATOM     29  C   UNL     1      -3.185  -3.616   0.000  0.00  0.00    +0.006 C 
ENDROOT
BRANCH  28  30
ATOM     30  C   UNL     1      -3.960  -3.616   0.000  0.00  0.00    +0.185 C 
ATOM     31  O   UNL     1      -4.784  -3.645   0.000  0.00  0.00    -0.220 OA
ENDBRANCH  28  30
BRANCH   7   6
ATOM      6  O   UNL     1      -5.001  -2.888   0.000  0.00  0.00    -0.437 OA
BRANCH   6   4
ATOM      3  N   UNL     1      -5.716  -1.650   0.000  0.00  0.00    -0.169 NA
ATOM      4  C   UNL     1      -5.716  -2.475   0.000  0.00  0.00    +0.421 C 
ATOM      5  O   UNL     1      -6.430  -2.888   0.000  0.00  0.00    -0.225 OA
BRANCH   3   2
ATOM      1  C   UNL     1      -6.430  -0.412   0.000  0.00  0.00    +0.025 C 
ATOM      2  C   UNL     1      -6.430  -1.238   0.000  0.00  0.00    +0.119 C 
ENDBRANCH   3   2
ENDBRANCH   6   4
ENDBRANCH   7   6
BRANCH  12  13
ATOM     13  C   UNL     1      -2.143  -0.412   0.000  0.00  0.00    +0.089 C 
BRANCH  13  14
ATOM     14  C   UNL     1      -1.429   0.000   0.000  0.00  0.00    +0.242 C 
ATOM     15  O   UNL     1      -1.429   0.825   0.000  0.00  0.00    -0.273 OA
ATOM     16  N   UNL     1      -0.715  -0.412   0.000  0.00  0.00    -0.200 NA
BRANCH  16  17
ATOM     17  C   UNL     1       0.000   0.000   0.000  0.00  0.00    +0.148 C 
BRANCH  17  18
ATOM     18  C   UNL     1       0.715  -0.412   0.000  0.00  0.00    +0.029 A 
ATOM     19  C   UNL     1       1.468  -0.077   0.000  0.00  0.00    +0.004 A 
ATOM     20  C   UNL     1       2.020  -0.690   0.000  0.00  0.00    +0.007 A 
ATOM     21  C   UNL     1       1.608  -1.405   0.000  0.00  0.00    +0.035 A 
ATOM     22  S   UNL     1       0.801  -1.233   0.000  0.00  0.00    -0.089 S 
ENDBRANCH  17  18
ENDBRANCH  16  17
ENDBRANCH  13  14
ENDBRANCH  12  13
TORSDOF 8
