REMARK  Name = 
REMARK  4 active torsions:
REMARK  status: ('A' for Active; 'I' for Inactive)
REMARK    1  A    between atoms: O_2  and  C_3
REMARK    2  A    between atoms: C_6  and  C_11
REMARK    3  A    between atoms: C_8  and  O_9
REMARK    4  A    between atoms: C_16  and  C_18
REMARK                            x       y       z     vdW  Elec       q    Type
REMARK                         _______ _______ _______ _____ _____    ______ ____
ROOT
ATOM     11  C   UNL     1      -0.608   4.353   0.000  0.00  0.00    +0.249 C 
ATOM     12  O   UNL     1      -1.322   4.765   0.000  0.00  0.00    -0.270 OA
ATOM     13  N   UNL     1      -0.608   3.528   0.000  0.00  0.00    -0.276 N 
ATOM     14  C   UNL     1       0.060   3.043   0.000  0.00  0.00    +0.094 C 
ATOM     15  C   UNL     1      -0.195   2.258   0.000  0.00  0.00    +0.033 C 
ATOM     16  C   UNL     1      -1.020   2.258   0.000  0.00  0.00    +0.100 C 
ATOM     17  C   UNL     1      -1.275   3.043   0.000  0.00  0.00    +0.103 C 
ENDROOT
BRANCH  11   6
ATOM      3  C   UNL     1       1.536   5.590   0.000  0.00  0.00    +0.172 A 
ATOM      4  C   UNL     1       1.536   4.765   0.000  0.00  0.00    +0.040 A 
ATOM      5  C   UNL     1       0.821   4.353   0.000  0.00  0.00    +0.008 A 
ATOM      6  C   UNL     1       0.107   4.765   0.000  0.00  0.00    +0.057 A 
ATOM      7  C   UNL     1       0.107   5.590   0.000  0.00  0.00    +0.045 A 
ATOM      8  C   UNL     1       0.821   6.003   0.000  0.00  0.00    +0.173 A 
BRANCH   3   2
ATOM      1  C   UNL     1       2.250   6.828   0.000  0.00  0.00    +0.253 C 
ATOM      2  O   UNL     1       2.250   6.003   0.000  0.00  0.00    -0.468 OA
ENDBRANCH   3   2
BRANCH   8   9
ATOM      9  O   UNL     1       0.821   6.828   0.000  0.00  0.00    -0.468 OA
ATOM     10  C   UNL     1       1.536   7.240   0.000  0.00  0.00    +0.253 C 
ENDBRANCH   8   9
ENDBRANCH  11   6
BRANCH  16  18
ATOM     18  C   UNL     1      -1.505   1.591   0.000  0.00  0.00    +0.227 A 
ATOM     19  N   UNL     1      -1.250   0.806   0.000  0.00  0.00    -0.112 NA
ATOM     20  N   UNL     1      -1.918   0.321   0.000  0.00  0.00    -0.112 NA
ATOM     21  C   UNL     1      -2.585   0.806   0.000  0.00  0.00    +0.227 A 
ATOM     22  C   UNL     1      -3.370   0.551   0.000  0.00  0.00    +0.097 C 
ATOM     23  O   UNL     1      -2.330   1.591   0.000  0.00  0.00    -0.423 OA
ENDBRANCH  16  18
TORSDOF 4
