REMARK  Name = 
REMARK  5 active torsions:
REMARK  status: ('A' for Active; 'I' for Inactive)
REMARK    1  A    between atoms: S_2  and  C_5
REMARK    2  A    between atoms: C_8  and  C_9
REMARK    3  A    between atoms: C_9  and  N_10
REMARK    4  A    between atoms: C_13  and  C_15
REMARK    5  A    between atoms: C_18  and  C_20
REMARK                            x       y       z     vdW  Elec       q    Type
REMARK                         _______ _______ _______ _____ _____    ______ ____
ROOT
ATOM     10  N   UNL     1       2.024  -3.041   0.000  0.00  0.00    -0.268 NA
ATOM     11  C   UNL     1       2.692  -3.525   0.000  0.00  0.00    +0.073 C 
ATOM     12  C   UNL     1       2.437  -4.310   0.000  0.00  0.00    +0.028 C 
ATOM     13  C   UNL     1       1.612  -4.310   0.000  0.00  0.00    +0.096 C 
ATOM     14  C   UNL     1       1.357  -3.525   0.000  0.00  0.00    +0.082 C 
ENDROOT
BRANCH  13  15
ATOM     15  C   UNL     1       1.127  -4.977   0.000  0.00  0.00    +0.227 A 
ATOM     16  N   UNL     1       1.382  -5.762   0.000  0.00  0.00    -0.111 NA
ATOM     17  N   UNL     1       0.715  -6.247   0.000  0.00  0.00    -0.107 NA
ATOM     18  C   UNL     1       0.047  -5.762   0.000  0.00  0.00    +0.251 A 
ATOM     19  O   UNL     1       0.302  -4.977   0.000  0.00  0.00    -0.419 OA
BRANCH  18  20
ATOM     20  C   UNL     1      -0.738  -6.017   0.000  0.00  0.00    +0.074 A 
ATOM     21  C   UNL     1      -0.909  -6.824   0.000  0.00  0.00    +0.104 A 
ATOM     22  N   UNL     1      -1.694  -7.079   0.000  0.00  0.00    -0.242 NA
ATOM     23  C   UNL     1      -2.307  -6.527   0.000  0.00  0.00    +0.099 A 
ATOM     24  C   UNL     1      -2.135  -5.720   0.000  0.00  0.00    +0.021 A 
ATOM     25  C   UNL     1      -1.351  -5.465   0.000  0.00  0.00    +0.008 A 
ENDBRANCH  18  20
ENDBRANCH  13  15
BRANCH  10   9
ATOM      9  C   UNL     1       2.024  -2.216   0.000  0.00  0.00    +0.099 C 
BRANCH   9   8
ATOM      5  C   UNL     1       4.168  -0.978   0.000  0.00  0.00    +0.106 A 
ATOM      6  C   UNL     1       4.168  -1.803   0.000  0.00  0.00    +0.018 A 
ATOM      7  C   UNL     1       3.453  -2.216   0.000  0.00  0.00    -0.002 A 
ATOM      8  C   UNL     1       2.739  -1.803   0.000  0.00  0.00    -0.006 A 
ATOM     26  C   UNL     1       2.739  -0.978   0.000  0.00  0.00    -0.002 A 
ATOM     27  C   UNL     1       3.453  -0.566   0.000  0.00  0.00    +0.018 A 
BRANCH   5   2
ATOM      1  C   UNL     1       5.597  -0.153   0.000  0.00  0.00    +0.182 C 
ATOM      2  S   UNL     1       4.882  -0.566   0.000  0.00  0.00    +0.010 S 
ATOM      3  O   UNL     1       4.470   0.149   0.000  0.00  0.00    -0.169 OA
ATOM      4  O   UNL     1       5.295  -1.280   0.000  0.00  0.00    -0.169 OA
ENDBRANCH   5   2
ENDBRANCH   9   8
ENDBRANCH  10   9
TORSDOF 5
