REMARK  Name = 
REMARK  3 active torsions:
REMARK  status: ('A' for Active; 'I' for Inactive)
REMARK    1  A    between atoms: C_2  and  C_5
REMARK    2  A    between atoms: C_8  and  C_10
REMARK    3  A    between atoms: C_15  and  C_17
REMARK                            x       y       z     vdW  Elec       q    Type
REMARK                         _______ _______ _______ _____ _____    ______ ____
ROOT
ATOM     10  C   UNL     1       0.292   4.127   0.000  0.00  0.00    +0.100 C 
ATOM     11  C   UNL     1       0.705   4.841   0.000  0.00  0.00    +0.033 C 
ATOM     12  C   UNL     1       1.512   4.669   0.000  0.00  0.00    +0.094 C 
ATOM     13  N   UNL     1       1.598   3.849   0.000  0.00  0.00    -0.279 N 
ATOM     14  C   UNL     1       0.844   3.513   0.000  0.00  0.00    +0.103 C 
ATOM     15  C   UNL     1       2.312   3.436   0.000  0.00  0.00    +0.225 C 
ATOM     16  O   UNL     1       3.027   3.849   0.000  0.00  0.00    -0.275 OA
ENDROOT
BRANCH  10   8
ATOM      5  C   UNL     1      -1.748   3.497   0.000  0.00  0.00    +0.225 A 
ATOM      6  N   UNL     1      -1.834   4.318   0.000  0.00  0.00    -0.112 NA
ATOM      7  N   UNL     1      -1.080   4.653   0.000  0.00  0.00    -0.112 NA
ATOM      8  C   UNL     1      -0.528   4.040   0.000  0.00  0.00    +0.227 A 
ATOM      9  O   UNL     1      -0.941   3.326   0.000  0.00  0.00    -0.423 OA
BRANCH   5   2
ATOM      1  C   UNL     1      -2.974   2.393   0.000  0.00  0.00    +0.009 C 
ATOM      2  C   UNL     1      -2.361   2.945   0.000  0.00  0.00    +0.070 C 
ATOM      3  C   UNL     1      -1.809   2.332   0.000  0.00  0.00    +0.009 C 
ATOM      4  C   UNL     1      -2.913   3.558   0.000  0.00  0.00    +0.009 C 
ENDBRANCH   5   2
ENDBRANCH  10   8
BRANCH  15  17
ATOM     17  C   UNL     1       2.312   2.611   0.000  0.00  0.00    +0.077 C 
ATOM     18  C   UNL     1       2.725   1.897   0.000  0.00  0.00    +0.010 C 
ATOM     19  C   UNL     1       1.900   1.897   0.000  0.00  0.00    +0.010 C 
ENDBRANCH  15  17
TORSDOF 3
