REMARK  Name = 
REMARK  9 active torsions:
REMARK  status: ('A' for Active; 'I' for Inactive)
REMARK    1  A    between atoms: C_2  and  C_4
REMARK    2  A    between atoms: C_4  and  C_5
REMARK    3  A    between atoms: C_4  and  N_13
REMARK    4  A    between atoms: C_5  and  C_6
REMARK    5  A    between atoms: C_14  and  C_16
REMARK    6  A    between atoms: C_23  and  N_25
REMARK    7  A    between atoms: N_25  and  S_26
REMARK    8  A    between atoms: S_26  and  C_29
REMARK    9  A    between atoms: C_31  and  C_35
REMARK                            x       y       z     vdW  Elec       q    Type
REMARK                         _______ _______ _______ _____ _____    ______ ____
ROOT
ATOM     16  C   UNL     1       7.157  -2.542   0.000  0.00  0.00    +0.200 C 
ATOM     17  O   UNL     1       6.626  -3.174   0.000  0.00  0.00    -0.216 OA
ATOM     18  C   UNL     1       7.439  -1.767   0.000  0.00  0.00    +0.075 C 
ATOM     19  C   UNL     1       8.251  -1.623   0.000  0.00  0.00    +0.187 C 
ATOM     20  O   UNL     1       8.533  -0.848   0.000  0.00  0.00    -0.220 OA
ATOM     21  C   UNL     1       8.781  -2.256   0.000  0.00  0.00    +0.200 C 
ATOM     22  O   UNL     1       9.594  -2.112   0.000  0.00  0.00    -0.219 OA
ATOM     23  C   UNL     1       8.499  -3.031   0.000  0.00  0.00    +0.133 C 
ATOM     24  C   UNL     1       7.687  -3.174   0.000  0.00  0.00    +0.062 C 
ENDROOT
BRANCH  16  14
ATOM     13  N   UNL     1       5.728  -2.542   0.000  0.00  0.00    -0.195 NA
ATOM     14  C   UNL     1       6.442  -2.130   0.000  0.00  0.00    +0.269 C 
ATOM     15  O   UNL     1       6.442  -1.304   0.000  0.00  0.00    -0.271 OA
BRANCH  13   4
ATOM      4  C   UNL     1       5.013  -2.130   0.000  0.00  0.00    +0.179 C 
BRANCH   4   2
ATOM      1  N   UNL     1       5.728  -0.892   0.000  0.00  0.00    -0.086 NA
ATOM      2  C   UNL     1       5.013  -1.304   0.000  0.00  0.00    +0.281 C 
ATOM      3  O   UNL     1       4.299  -0.892   0.000  0.00  0.00    -0.270 OA
ENDBRANCH   4   2
BRANCH   4   5
ATOM      5  C   UNL     1       4.299  -2.542   0.000  0.00  0.00    +0.057 C 
BRANCH   5   6
ATOM      6  C   UNL     1       3.584  -2.130   0.000  0.00  0.00    -0.020 A 
ATOM      7  C   UNL     1       2.870  -2.542   0.000  0.00  0.00    -0.001 A 
ATOM      8  C   UNL     1       2.155  -2.130   0.000  0.00  0.00    +0.042 A 
ATOM      9  C   UNL     1       2.155  -1.304   0.000  0.00  0.00    +0.196 A 
ATOM     10  O   UNL     1       1.441  -0.892   0.000  0.00  0.00    -0.287 OA
ATOM     11  C   UNL     1       2.870  -0.892   0.000  0.00  0.00    +0.042 A 
ATOM     12  C   UNL     1       3.584  -1.304   0.000  0.00  0.00    -0.001 A 
ENDBRANCH   5   6
ENDBRANCH   4   5
ENDBRANCH  13   4
ENDBRANCH  16  14
BRANCH  23  25
ATOM     25  N   UNL     1       9.030  -3.663   0.000  0.00  0.00    -0.076 NA
BRANCH  25  26
ATOM     26  S   UNL     1       8.747  -4.438   0.000  0.00  0.00    +0.077 S 
ATOM     27  O   UNL     1       7.972  -4.156   0.000  0.00  0.00    -0.152 OA
ATOM     28  O   UNL     1       9.523  -4.720   0.000  0.00  0.00    -0.152 OA
BRANCH  26  29
ATOM     29  C   UNL     1       8.465  -5.213   0.000  0.00  0.00    +0.124 A 
ATOM     30  C   UNL     1       8.996  -5.845   0.000  0.00  0.00    +0.024 A 
ATOM     31  C   UNL     1       8.713  -6.620   0.000  0.00  0.00    +0.073 A 
ATOM     32  C   UNL     1       7.901  -6.764   0.000  0.00  0.00    +0.004 A 
ATOM     33  C   UNL     1       7.371  -6.132   0.000  0.00  0.00    +0.001 A 
ATOM     34  C   UNL     1       7.653  -5.356   0.000  0.00  0.00    +0.020 A 
BRANCH  31  35
ATOM     35  C   UNL     1       9.244  -7.253   0.000  0.00  0.00    +0.419 C 
ATOM     36  F   UNL     1       9.774  -7.884   0.000  0.00  0.00    -0.166 F 
ATOM     37  F   UNL     1       8.612  -7.783   0.000  0.00  0.00    -0.166 F 
ATOM     38  F   UNL     1       9.876  -6.722   0.000  0.00  0.00    -0.166 F 
ENDBRANCH  31  35
ENDBRANCH  26  29
ENDBRANCH  25  26
ENDBRANCH  23  25
TORSDOF 9
