REMARK  Name = 
REMARK  2 active torsions:
REMARK  status: ('A' for Active; 'I' for Inactive)
REMARK    1  A    between atoms: N_3  and  C_4
REMARK    2  A    between atoms: C_4  and  C_5
REMARK                            x       y       z     vdW  Elec       q    Type
REMARK                         _______ _______ _______ _____ _____    ______ ____
ROOT
ATOM      1  O   UNL     1       4.781   1.935   0.000  0.00  0.00    -0.251 OA
ATOM      2  C   UNL     1       4.067   2.348   0.000  0.00  0.00    +0.324 C 
ATOM      3  N   UNL     1       4.067   3.173   0.000  0.00  0.00    -0.184 NA
ATOM     11  N   UNL     1       3.352   1.935   0.000  0.00  0.00    -0.259 N 
ATOM     12  C   UNL     1       3.352   1.110   0.000  0.00  0.00    +0.117 C 
ATOM     13  C   UNL     1       2.638   0.698   0.000  0.00  0.00    +0.117 C 
ATOM     14  N   UNL     1       1.923   1.110   0.000  0.00  0.00    -0.259 N 
ATOM     15  C   UNL     1       1.923   1.935   0.000  0.00  0.00    +0.118 C 
ATOM     16  C   UNL     1       1.139   2.190   0.000  0.00  0.00    +0.138 C 
ATOM     17  N   UNL     1       0.654   1.523   0.000  0.00  0.00    -0.187 NA
ATOM     18  C   UNL     1       1.139   0.856   0.000  0.00  0.00    +0.323 C 
ATOM     19  O   UNL     1       0.884   0.071   0.000  0.00  0.00    -0.251 OA
ATOM     20  C   UNL     1       2.638   2.348   0.000  0.00  0.00    +0.117 C 
ENDROOT
BRANCH   3   4
ATOM      4  C   UNL     1       4.781   3.585   0.000  0.00  0.00    +0.143 C 
BRANCH   4   5
ATOM      5  C   UNL     1       4.781   4.410   0.000  0.00  0.00    -0.001 A 
ATOM      6  C   UNL     1       4.067   4.823   0.000  0.00  0.00    -0.003 A 
ATOM      7  C   UNL     1       4.067   5.648   0.000  0.00  0.00    -0.000 A 
ATOM      8  C   UNL     1       4.781   6.060   0.000  0.00  0.00    -0.000 A 
ATOM      9  C   UNL     1       5.496   5.648   0.000  0.00  0.00    -0.000 A 
ATOM     10  C   UNL     1       5.496   4.823   0.000  0.00  0.00    -0.003 A 
ENDBRANCH   4   5
ENDBRANCH   3   4
TORSDOF 2
