REMARK  Name = 
REMARK  5 active torsions:
REMARK  status: ('A' for Active; 'I' for Inactive)
REMARK    1  A    between atoms: C_2  and  C_5
REMARK    2  A    between atoms: C_5  and  N_6
REMARK    3  A    between atoms: N_6  and  C_7
REMARK    4  A    between atoms: C_10  and  C_11
REMARK    5  A    between atoms: C_11  and  N_12
REMARK                            x       y       z     vdW  Elec       q    Type
REMARK                         _______ _______ _______ _____ _____    ______ ____
ROOT
ATOM      7  C   UNL     1      -2.037  -1.299   0.000  0.00  0.00    +0.135 C 
ATOM      8  C   UNL     1      -1.369  -1.784   0.000  0.00  0.00    +0.162 C 
ATOM      9  O   UNL     1      -1.624  -2.569   0.000  0.00  0.00    -0.350 OA
ATOM     10  C   UNL     1      -2.449  -2.569   0.000  0.00  0.00    +0.169 C 
ATOM     21  C   UNL     1      -2.704  -1.784   0.000  0.00  0.00    +0.199 C 
ATOM     22  O   UNL     1      -3.489  -1.529   0.000  0.00  0.00    -0.219 OA
ENDROOT
BRANCH   7   6
ATOM      6  N   UNL     1      -2.037  -0.474   0.000  0.00  0.00    -0.214 NA
BRANCH   6   5
ATOM      5  C   UNL     1      -1.322  -0.062   0.000  0.00  0.00    +0.089 C 
BRANCH   5   2
ATOM      1  C   UNL     1      -1.322   1.588   0.000  0.00  0.00    +0.001 C 
ATOM      2  C   UNL     1      -1.322   0.763   0.000  0.00  0.00    +0.016 C 
ATOM      3  C   UNL     1      -2.147   0.763   0.000  0.00  0.00    +0.001 C 
ATOM      4  C   UNL     1      -0.497   0.763   0.000  0.00  0.00    +0.001 C 
ENDBRANCH   5   2
ENDBRANCH   6   5
ENDBRANCH   7   6
BRANCH  10  11
ATOM     11  C   UNL     1      -2.934  -3.236   0.000  0.00  0.00    +0.149 C 
BRANCH  11  12
ATOM     12  N   UNL     1      -3.755  -3.150   0.000  0.00  0.00    -0.186 NA
ATOM     13  C   UNL     1      -4.239  -3.817   0.000  0.00  0.00    +0.323 C 
ATOM     14  O   UNL     1      -5.060  -3.731   0.000  0.00  0.00    -0.251 OA
ATOM     15  N   UNL     1      -3.904  -4.571   0.000  0.00  0.00    -0.258 N 
ATOM     16  C   UNL     1      -3.083  -4.657   0.000  0.00  0.00    +0.127 C 
ATOM     17  C   UNL     1      -2.748  -5.411   0.000  0.00  0.00    +0.164 C 
ATOM     18  O   UNL     1      -3.233  -6.078   0.000  0.00  0.00    -0.350 OA
ATOM     19  C   UNL     1      -4.053  -5.992   0.000  0.00  0.00    +0.164 C 
ATOM     20  C   UNL     1      -4.389  -5.238   0.000  0.00  0.00    +0.127 C 
ENDBRANCH  11  12
ENDBRANCH  10  11
TORSDOF 5
