REMARK  Name = 
REMARK  5 active torsions:
REMARK  status: ('A' for Active; 'I' for Inactive)
REMARK    1  A    between atoms: C_2  and  N_3
REMARK    2  A    between atoms: N_6  and  C_7
REMARK    3  A    between atoms: C_10  and  C_13
REMARK    4  A    between atoms: C_13  and  C_15
REMARK    5  A    between atoms: N_21  and  C_22
REMARK                            x       y       z     vdW  Elec       q    Type
REMARK                         _______ _______ _______ _____ _____    ______ ____
ROOT
ATOM      7  C   UNL     1      -0.715  -4.537   0.000  0.00  0.00    +0.075 A 
ATOM      8  C   UNL     1       0.000  -4.125   0.000  0.00  0.00    +0.016 A 
ATOM      9  C   UNL     1       0.715  -4.537   0.000  0.00  0.00    -0.000 A 
ATOM     10  C   UNL     1       0.715  -5.362   0.000  0.00  0.00    +0.010 A 
ATOM     11  C   UNL     1       0.000  -5.775   0.000  0.00  0.00    -0.000 A 
ATOM     12  C   UNL     1      -0.715  -5.362   0.000  0.00  0.00    +0.016 A 
ENDROOT
BRANCH   7   6
ATOM      3  N   UNL     1      -2.858  -4.125   0.000  0.00  0.00    -0.187 NA
ATOM      4  C   UNL     1      -2.143  -4.537   0.000  0.00  0.00    +0.343 C 
ATOM      5  O   UNL     1      -2.143  -5.362   0.000  0.00  0.00    -0.249 OA
ATOM      6  N   UNL     1      -1.429  -4.125   0.000  0.00  0.00    -0.161 NA
BRANCH   3   2
ATOM      1  C   UNL     1      -4.287  -4.125   0.000  0.00  0.00    +0.025 C 
ATOM      2  C   UNL     1      -3.572  -4.537   0.000  0.00  0.00    +0.117 C 
ENDBRANCH   3   2
ENDBRANCH   7   6
BRANCH  10  13
ATOM     13  C   UNL     1       1.429  -5.775   0.000  0.00  0.00    +0.195 C 
ATOM     14  O   UNL     1       1.429  -6.600   0.000  0.00  0.00    -0.216 OA
BRANCH  13  15
ATOM     15  C   UNL     1       2.143  -5.362   0.000  0.00  0.00    +0.139 C 
ATOM     16  C   UNL     1       2.143  -4.537   0.000  0.00  0.00    +0.165 C 
ATOM     17  O   UNL     1       2.858  -4.125   0.000  0.00  0.00    -0.343 OA
ATOM     18  C   UNL     1       3.572  -4.537   0.000  0.00  0.00    +0.227 C 
ATOM     19  C   UNL     1       3.572  -5.362   0.000  0.00  0.00    +0.256 C 
ATOM     20  O   UNL     1       4.287  -5.775   0.000  0.00  0.00    -0.272 OA
ATOM     21  N   UNL     1       2.858  -5.775   0.000  0.00  0.00    -0.274 N 
BRANCH  21  22
ATOM     22  C   UNL     1       2.858  -6.600   0.000  0.00  0.00    +0.094 C 
ATOM     23  C   UNL     1       2.143  -7.013   0.000  0.00  0.00    +0.023 C 
ENDBRANCH  21  22
ENDBRANCH  13  15
ENDBRANCH  10  13
TORSDOF 5
