REMARK  Name = 
REMARK  6 active torsions:
REMARK  status: ('A' for Active; 'I' for Inactive)
REMARK    1  A    between atoms: C_5  and  C_6
REMARK    2  A    between atoms: C_6  and  C_7
REMARK    3  A    between atoms: N_12  and  C_15
REMARK    4  A    between atoms: C_23  and  C_24
REMARK    5  A    between atoms: C_24  and  N_25
REMARK    6  A    between atoms: C_26  and  C_28
REMARK                            x       y       z     vdW  Elec       q    Type
REMARK                         _______ _______ _______ _____ _____    ______ ____
ROOT
ATOM      1  O   UNL     1       4.401   2.483   0.000  0.00  0.00    -0.218 OA
ATOM      2  C   UNL     1       5.014   1.931   0.000  0.00  0.00    +0.213 C 
ATOM      3  C   UNL     1       5.821   2.103   0.000  0.00  0.00    +0.212 C 
ATOM      4  O   UNL     1       6.157   2.856   0.000  0.00  0.00    -0.218 OA
ATOM      5  C   UNL     1       6.234   1.388   0.000  0.00  0.00    +0.157 C 
ATOM     22  O   UNL     1       5.682   0.775   0.000  0.00  0.00    -0.351 OA
ATOM     23  C   UNL     1       4.928   1.110   0.000  0.00  0.00    +0.170 C 
ENDROOT
BRANCH   5   6
ATOM      6  C   UNL     1       7.054   1.302   0.000  0.00  0.00    +0.117 C 
BRANCH   6   7
ATOM      7  C   UNL     1       7.539   1.969   0.000  0.00  0.00    +0.228 C 
ATOM      8  O   UNL     1       7.204   2.723   0.000  0.00  0.00    -0.275 OA
ATOM      9  N   UNL     1       8.360   1.883   0.000  0.00  0.00    -0.276 N 
ATOM     10  C   UNL     1       8.845   2.550   0.000  0.00  0.00    +0.115 C 
ATOM     11  C   UNL     1       9.665   2.464   0.000  0.00  0.00    +0.112 C 
ATOM     12  N   UNL     1      10.001   1.710   0.000  0.00  0.00    -0.304 N 
ATOM     13  C   UNL     1       9.516   1.043   0.000  0.00  0.00    +0.112 C 
ATOM     14  C   UNL     1       8.695   1.129   0.000  0.00  0.00    +0.115 C 
BRANCH  12  15
ATOM     15  C   UNL     1      10.821   1.624   0.000  0.00  0.00    +0.048 A 
ATOM     16  C   UNL     1      11.306   2.292   0.000  0.00  0.00    +0.017 A 
ATOM     17  C   UNL     1      12.126   2.205   0.000  0.00  0.00    +0.031 A 
ATOM     18  C   UNL     1      12.462   1.452   0.000  0.00  0.00    +0.140 A 
ATOM     19  F   UNL     1      13.282   1.365   0.000  0.00  0.00    -0.204 F 
ATOM     20  C   UNL     1      11.977   0.784   0.000  0.00  0.00    +0.031 A 
ATOM     21  C   UNL     1      11.156   0.871   0.000  0.00  0.00    +0.017 A 
ENDBRANCH  12  15
ENDBRANCH   6   7
ENDBRANCH   5   6
BRANCH  23  24
ATOM     24  C   UNL     1       4.213   0.698   0.000  0.00  0.00    +0.148 C 
BRANCH  24  25
ATOM     25  N   UNL     1       3.499   1.110   0.000  0.00  0.00    -0.199 NA
ATOM     26  C   UNL     1       2.784   0.698   0.000  0.00  0.00    +0.265 C 
ATOM     27  O   UNL     1       2.784  -0.127   0.000  0.00  0.00    -0.268 OA
BRANCH  26  28
ATOM     28  C   UNL     1       2.070   1.110   0.000  0.00  0.00    +0.058 A 
ATOM     29  C   UNL     1       1.356   0.698   0.000  0.00  0.00    +0.045 A 
ATOM     30  C   UNL     1       0.641   1.110   0.000  0.00  0.00    +0.177 A 
ATOM     31  C   UNL     1       0.641   1.935   0.000  0.00  0.00    +0.176 A 
ATOM     32  O   UNL     1      -0.143   2.190   0.000  0.00  0.00    -0.435 OA
ATOM     33  C   UNL     1      -0.628   1.523   0.000  0.00  0.00    +0.429 C 
ATOM     34  O   UNL     1      -0.143   0.856   0.000  0.00  0.00    -0.435 OA
ATOM     35  C   UNL     1       1.356   2.348   0.000  0.00  0.00    +0.040 A 
ATOM     36  C   UNL     1       2.070   1.935   0.000  0.00  0.00    +0.008 A 
ENDBRANCH  26  28
ENDBRANCH  24  25
ENDBRANCH  23  24
TORSDOF 6
