REMARK  Name = 
REMARK  9 active torsions:
REMARK  status: ('A' for Active; 'I' for Inactive)
REMARK    1  A    between atoms: O_2  and  C_3
REMARK    2  A    between atoms: C_4  and  O_5
REMARK    3  A    between atoms: C_8  and  C_9
REMARK    4  A    between atoms: C_9  and  N_10
REMARK    5  A    between atoms: C_11  and  C_13
REMARK    6  A    between atoms: C_13  and  C_14
REMARK    7  A    between atoms: C_19  and  C_20
REMARK    8  A    between atoms: C_20  and  C_21
REMARK    9  A    between atoms: C_24  and  C_26
REMARK                            x       y       z     vdW  Elec       q    Type
REMARK                         _______ _______ _______ _____ _____    ______ ____
ROOT
ATOM     14  C   UNL     1       1.429   0.825   0.000  0.00  0.00    +0.012 C 
ATOM     15  C   UNL     1       2.143   1.238   0.000  0.00  0.00    +0.019 C 
ATOM     16  C   UNL     1       2.858   0.825   0.000  0.00  0.00    +0.089 C 
ATOM     17  N   UNL     1       2.858   0.000   0.000  0.00  0.00    -0.218 NA
ATOM     18  C   UNL     1       2.143  -0.412   0.000  0.00  0.00    +0.089 C 
ATOM     19  C   UNL     1       1.429   0.000   0.000  0.00  0.00    +0.024 C 
ENDROOT
BRANCH  14  13
ATOM     13  C   UNL     1       0.715   1.238   0.000  0.00  0.00    +0.087 C 
BRANCH  13  11
ATOM     10  N   UNL     1       0.000   2.475   0.000  0.00  0.00    -0.201 NA
ATOM     11  C   UNL     1       0.715   2.062   0.000  0.00  0.00    +0.242 C 
ATOM     12  O   UNL     1       1.429   2.475   0.000  0.00  0.00    -0.273 OA
BRANCH  10   9
ATOM      9  C   UNL     1       0.000   3.300   0.000  0.00  0.00    +0.142 C 
BRANCH   9   8
ATOM      3  C   UNL     1       2.143   4.537   0.000  0.00  0.00    +0.172 A 
ATOM      4  C   UNL     1       2.143   3.712   0.000  0.00  0.00    +0.172 A 
ATOM      7  C   UNL     1       1.429   3.300   0.000  0.00  0.00    +0.037 A 
ATOM      8  C   UNL     1       0.715   3.712   0.000  0.00  0.00    +0.003 A 
ATOM     32  C   UNL     1       0.715   4.537   0.000  0.00  0.00    +0.001 A 
ATOM     33  C   UNL     1       1.429   4.950   0.000  0.00  0.00    +0.040 A 
BRANCH   3   2
ATOM      1  C   UNL     1       2.858   5.775   0.000  0.00  0.00    +0.253 C 
ATOM      2  O   UNL     1       2.858   4.950   0.000  0.00  0.00    -0.468 OA
ENDBRANCH   3   2
BRANCH   4   5
ATOM      5  O   UNL     1       2.858   3.300   0.000  0.00  0.00    -0.468 OA
ATOM      6  C   UNL     1       2.858   2.475   0.000  0.00  0.00    +0.253 C 
ENDBRANCH   4   5
ENDBRANCH   9   8
ENDBRANCH  10   9
ENDBRANCH  13  11
ENDBRANCH  14  13
BRANCH  19  20
ATOM     20  C   UNL     1       0.715  -0.412   0.000  0.00  0.00    +0.051 C 
BRANCH  20  21
ATOM     21  C   UNL     1       0.715  -1.238   0.000  0.00  0.00    +0.101 A 
ATOM     22  N   UNL     1       1.382  -1.722   0.000  0.00  0.00    -0.081 NA
ATOM     23  O   UNL     1       1.127  -2.507   0.000  0.00  0.00    -0.352 OA
ATOM     24  C   UNL     1       0.302  -2.507   0.000  0.00  0.00    +0.194 A 
ATOM     25  C   UNL     1       0.047  -1.722   0.000  0.00  0.00    +0.060 A 
BRANCH  24  26
ATOM     26  C   UNL     1      -0.183  -3.175   0.000  0.00  0.00    +0.118 A 
ATOM     27  N   UNL     1       0.153  -3.928   0.000  0.00  0.00    -0.241 NA
ATOM     28  C   UNL     1      -0.332  -4.596   0.000  0.00  0.00    +0.099 A 
ATOM     29  C   UNL     1      -1.153  -4.509   0.000  0.00  0.00    +0.021 A 
ATOM     30  C   UNL     1      -1.488  -3.756   0.000  0.00  0.00    +0.003 A 
ATOM     31  C   UNL     1      -1.003  -3.088   0.000  0.00  0.00    +0.022 A 
ENDBRANCH  24  26
ENDBRANCH  20  21
ENDBRANCH  19  20
TORSDOF 9
