REMARK  Name = 
REMARK  4 active torsions:
REMARK  status: ('A' for Active; 'I' for Inactive)
REMARK    1  A    between atoms: O_2  and  C_3
REMARK    2  A    between atoms: C_6  and  C_9
REMARK    3  A    between atoms: C_21  and  C_22
REMARK    4  A    between atoms: C_22  and  C_24
REMARK                            x       y       z     vdW  Elec       q    Type
REMARK                         _______ _______ _______ _____ _____    ______ ____
ROOT
ATOM      9  C   UNL     1       5.365  -0.302   0.000  0.00  0.00    +0.271 C 
ATOM     10  O   UNL     1       4.952  -1.016   0.000  0.00  0.00    -0.268 OA
ATOM     11  N   UNL     1       4.952   0.412   0.000  0.00  0.00    -0.151 NA
ATOM     12  C   UNL     1       4.127   0.412   0.000  0.00  0.00    +0.185 A 
ATOM     13  N   UNL     1       3.643   1.080   0.000  0.00  0.00    -0.227 NA
ATOM     14  C   UNL     1       2.858   0.825   0.000  0.00  0.00    +0.063 A 
ATOM     15  C   UNL     1       2.858   0.000   0.000  0.00  0.00    +0.023 A 
ATOM     16  C   UNL     1       2.143  -0.412   0.000  0.00  0.00    +0.034 C 
ATOM     17  C   UNL     1       1.429   0.000   0.000  0.00  0.00    +0.007 C 
ATOM     18  C   UNL     1       1.429  -0.825   0.000  0.00  0.00    +0.000 C 
ATOM     19  C   UNL     1       0.715  -0.412   0.000  0.00  0.00    +0.001 C 
ATOM     20  C   UNL     1       0.000   0.000   0.000  0.00  0.00    +0.003 C 
ATOM     21  C   UNL     1       0.000   0.825   0.000  0.00  0.00    +0.039 C 
ATOM     31  C   UNL     1       0.715   1.238   0.000  0.00  0.00    +0.153 C 
ATOM     32  O   UNL     1       0.715   2.062   0.000  0.00  0.00    -0.223 OA
ATOM     33  C   UNL     1       1.429   0.825   0.000  0.00  0.00    +0.036 C 
ATOM     34  C   UNL     1       2.143   1.238   0.000  0.00  0.00    +0.043 C 
ATOM     35  C   UNL     1       2.143   2.062   0.000  0.00  0.00    +0.006 C 
ATOM     36  S   UNL     1       3.643  -0.255   0.000  0.00  0.00    -0.054 S 
ENDROOT
BRANCH   9   6
ATOM      3  C   UNL     1       7.840  -0.302   0.000  0.00  0.00    +0.139 A 
ATOM      4  C   UNL     1       7.427  -1.016   0.000  0.00  0.00    +0.037 A 
ATOM      5  C   UNL     1       6.602  -1.016   0.000  0.00  0.00    +0.008 A 
ATOM      6  C   UNL     1       6.190  -0.302   0.000  0.00  0.00    +0.056 A 
ATOM      7  C   UNL     1       6.602   0.412   0.000  0.00  0.00    +0.008 A 
ATOM      8  C   UNL     1       7.427   0.412   0.000  0.00  0.00    +0.037 A 
BRANCH   3   2
ATOM      1  C   UNL     1       9.077   0.412   0.000  0.00  0.00    +0.252 C 
ATOM      2  O   UNL     1       8.665  -0.302   0.000  0.00  0.00    -0.471 OA
ENDBRANCH   3   2
ENDBRANCH   9   6
BRANCH  21  22
ATOM     22  C   UNL     1      -0.715   1.238   0.000  0.00  0.00    +0.079 C 
ATOM     23  C   UNL     1      -0.715   2.062   0.000  0.00  0.00    +0.010 C 
BRANCH  22  24
ATOM     24  C   UNL     1      -1.429   0.825   0.000  0.00  0.00    +0.225 C 
ATOM     25  O   UNL     1      -1.429   0.000   0.000  0.00  0.00    -0.275 OA
ATOM     26  N   UNL     1      -2.143   1.238   0.000  0.00  0.00    -0.280 N 
ATOM     27  C   UNL     1      -2.897   0.902   0.000  0.00  0.00    +0.093 C 
ATOM     28  C   UNL     1      -3.449   1.515   0.000  0.00  0.00    +0.023 C 
ATOM     29  C   UNL     1      -3.037   2.229   0.000  0.00  0.00    +0.023 C 
ATOM     30  C   UNL     1      -2.230   2.058   0.000  0.00  0.00    +0.093 C 
ENDBRANCH  22  24
ENDBRANCH  21  22
TORSDOF 4
