REMARK  Name = 
REMARK  6 active torsions:
REMARK  status: ('A' for Active; 'I' for Inactive)
REMARK    1  A    between atoms: O_2  and  C_3
REMARK    2  A    between atoms: C_3  and  C_5
REMARK    3  A    between atoms: N_7  and  C_10
REMARK    4  A    between atoms: C_14  and  N_18
REMARK    5  A    between atoms: N_18  and  C_19
REMARK    6  A    between atoms: C_19  and  C_20
REMARK                            x       y       z     vdW  Elec       q    Type
REMARK                         _______ _______ _______ _____ _____    ______ ____
ROOT
ATOM     10  C   UNL     1       1.270  -0.922   0.000  0.00  0.00    +0.166 C 
ATOM     11  C   UNL     1       0.785  -0.255   0.000  0.00  0.00    +0.169 C 
ATOM     12  O   UNL     1       1.270   0.412   0.000  0.00  0.00    -0.350 OA
ATOM     13  C   UNL     1       2.054   0.158   0.000  0.00  0.00    +0.163 C 
ATOM     14  C   UNL     1       2.839   0.412   0.000  0.00  0.00    +0.132 C 
ATOM     15  C   UNL     1       3.324  -0.255   0.000  0.00  0.00    +0.162 C 
ATOM     16  O   UNL     1       2.839  -0.922   0.000  0.00  0.00    -0.350 OA
ATOM     17  C   UNL     1       2.054  -0.667   0.000  0.00  0.00    +0.168 C 
ENDROOT
BRANCH  10   7
ATOM      5  C   UNL     1       0.230  -2.787   0.000  0.00  0.00    +0.198 A 
ATOM      6  C   UNL     1       0.230  -1.962   0.000  0.00  0.00    +0.124 A 
ATOM      7  N   UNL     1       1.015  -1.707   0.000  0.00  0.00    -0.227 N 
ATOM      8  N   UNL     1       1.500  -2.374   0.000  0.00  0.00    -0.064 NA
ATOM      9  N   UNL     1       1.015  -3.042   0.000  0.00  0.00    -0.122 NA
BRANCH   5   3
ATOM      3  C   UNL     1      -0.438  -3.272   0.000  0.00  0.00    +0.363 C 
ATOM      4  O   UNL     1      -1.191  -2.936   0.000  0.00  0.00    -0.243 OA
BRANCH   3   2
ATOM      1  C   UNL     1      -1.019  -4.577   0.000  0.00  0.00    +0.256 C 
ATOM      2  O   UNL     1      -0.351  -4.092   0.000  0.00  0.00    -0.440 OA
ENDBRANCH   3   2
ENDBRANCH   5   3
ENDBRANCH  10   7
BRANCH  14  18
ATOM     18  N   UNL     1       3.094   1.197   0.000  0.00  0.00    -0.206 NA
BRANCH  18  19
ATOM     19  C   UNL     1       2.542   1.810   0.000  0.00  0.00    +0.153 C 
BRANCH  19  20
ATOM     20  C   UNL     1       2.797   2.595   0.000  0.00  0.00    +0.141 A 
ATOM     21  C   UNL     1       2.312   3.262   0.000  0.00  0.00    +0.038 A 
ATOM     22  C   UNL     1       2.797   3.930   0.000  0.00  0.00    +0.043 A 
ATOM     23  C   UNL     1       3.581   3.675   0.000  0.00  0.00    +0.179 A 
ATOM     24  O   UNL     1       3.581   2.850   0.000  0.00  0.00    -0.453 OA
ENDBRANCH  19  20
ENDBRANCH  18  19
ENDBRANCH  14  18
TORSDOF 6
