REMARK  Name = 
REMARK  6 active torsions:
REMARK  status: ('A' for Active; 'I' for Inactive)
REMARK    1  A    between atoms: C_4  and  C_5
REMARK    2  A    between atoms: N_7  and  C_8
REMARK    3  A    between atoms: C_11  and  C_14
REMARK    4  A    between atoms: N_19  and  C_20
REMARK    5  A    between atoms: C_20  and  C_21
REMARK    6  A    between atoms: C_27  and  C_28
REMARK                            x       y       z     vdW  Elec       q    Type
REMARK                         _______ _______ _______ _____ _____    ______ ____
ROOT
ATOM      8  C   UNL     1       9.241  -0.228   0.000  0.00  0.00    +0.074 A 
ATOM      9  C   UNL     1      10.061  -0.142   0.000  0.00  0.00    +0.016 A 
ATOM     10  C   UNL     1      10.546  -0.809   0.000  0.00  0.00    -0.001 A 
ATOM     11  C   UNL     1      10.211  -1.563   0.000  0.00  0.00    +0.006 A 
ATOM     12  C   UNL     1       9.390  -1.649   0.000  0.00  0.00    -0.001 A 
ATOM     13  C   UNL     1       8.905  -0.982   0.000  0.00  0.00    +0.016 A 
ENDROOT
BRANCH  11  14
ATOM     14  C   UNL     1      10.696  -2.230   0.000  0.00  0.00    +0.159 C 
ATOM     15  O   UNL     1      11.516  -2.144   0.000  0.00  0.00    -0.341 OA
ATOM     16  C   UNL     1      12.001  -2.812   0.000  0.00  0.00    +0.227 C 
ATOM     17  C   UNL     1      11.665  -3.565   0.000  0.00  0.00    +0.256 C 
ATOM     18  O   UNL     1      12.150  -4.233   0.000  0.00  0.00    -0.272 OA
ATOM     19  N   UNL     1      10.845  -3.651   0.000  0.00  0.00    -0.270 N 
ATOM     27  C   UNL     1      10.360  -2.984   0.000  0.00  0.00    +0.140 C 
BRANCH  27  28
ATOM     28  C   UNL     1       9.540  -3.070   0.000  0.00  0.00    +0.205 C 
ATOM     29  O   UNL     1       9.055  -2.403   0.000  0.00  0.00    -0.218 OA
ENDBRANCH  27  28
BRANCH  19  20
ATOM     20  C   UNL     1      10.509  -4.405   0.000  0.00  0.00    +0.120 C 
BRANCH  20  21
ATOM     21  C   UNL     1       9.689  -4.491   0.000  0.00  0.00    -0.002 A 
ATOM     22  C   UNL     1       9.353  -5.245   0.000  0.00  0.00    -0.003 A 
ATOM     23  C   UNL     1       8.533  -5.331   0.000  0.00  0.00    -0.000 A 
ATOM     24  C   UNL     1       8.048  -4.664   0.000  0.00  0.00    -0.000 A 
ATOM     25  C   UNL     1       8.383  -3.910   0.000  0.00  0.00    -0.000 A 
ATOM     26  C   UNL     1       9.204  -3.824   0.000  0.00  0.00    -0.003 A 
ENDBRANCH  20  21
ENDBRANCH  19  20
ENDBRANCH  11  14
BRANCH   8   7
ATOM      5  C   UNL     1       7.935   0.353   0.000  0.00  0.00    +0.272 C 
ATOM      6  O   UNL     1       7.600  -0.401   0.000  0.00  0.00    -0.268 OA
ATOM      7  N   UNL     1       8.756   0.439   0.000  0.00  0.00    -0.175 NA
BRANCH   5   4
ATOM      1  C   UNL     1       7.038   3.115   0.000  0.00  0.00    +0.072 C 
ATOM      2  C   UNL     1       7.038   2.290   0.000  0.00  0.00    +0.123 A 
ATOM      3  C   UNL     1       7.705   1.805   0.000  0.00  0.00    +0.040 A 
ATOM      4  C   UNL     1       7.450   1.021   0.000  0.00  0.00    +0.088 A 
ATOM     30  C   UNL     1       6.625   1.021   0.000  0.00  0.00    +0.127 A 
ATOM     31  C   UNL     1       6.141   0.353   0.000  0.00  0.00    +0.073 C 
ATOM     32  O   UNL     1       6.371   1.805   0.000  0.00  0.00    -0.462 OA
ENDBRANCH   5   4
ENDBRANCH   8   7
TORSDOF 6
