REMARK  Name = 
REMARK  4 active torsions:
REMARK  status: ('A' for Active; 'I' for Inactive)
REMARK    1  A    between atoms: C_4  and  C_5
REMARK    2  A    between atoms: C_5  and  N_6
REMARK    3  A    between atoms: C_11  and  O_13
REMARK    4  A    between atoms: O_13  and  C_14
REMARK                            x       y       z     vdW  Elec       q    Type
REMARK                         _______ _______ _______ _____ _____    ______ ____
ROOT
ATOM      6  N   UNL     1       1.028  -2.217   0.000  0.00  0.00    -0.264 NA
ATOM      7  C   UNL     1       0.967  -1.395   0.000  0.00  0.00    +0.105 C 
ATOM      8  C   UNL     1       1.571  -0.834   0.000  0.00  0.00    +0.160 C 
ATOM      9  O   UNL     1       2.387  -0.957   0.000  0.00  0.00    -0.348 OA
ATOM     10  C   UNL     1       2.800  -1.671   0.000  0.00  0.00    +0.187 C 
ATOM     11  C   UNL     1       2.498  -2.439   0.000  0.00  0.00    +0.213 C 
ATOM     12  C   UNL     1       1.710  -2.682   0.000  0.00  0.00    +0.119 C 
ENDROOT
BRANCH   6   5
ATOM      5  C   UNL     1       0.314  -2.630   0.000  0.00  0.00    +0.099 C 
BRANCH   5   4
ATOM      1 CL   UNL     1      -1.115  -0.155   0.000  0.00  0.00    -0.082 Cl
ATOM      2  C   UNL     1      -1.115  -0.980   0.000  0.00  0.00    +0.057 A 
ATOM      3  C   UNL     1      -0.401  -1.393   0.000  0.00  0.00    +0.008 A 
ATOM      4  C   UNL     1      -0.401  -2.217   0.000  0.00  0.00    -0.005 A 
ATOM     20  C   UNL     1      -1.115  -2.630   0.000  0.00  0.00    -0.003 A 
ATOM     21  C   UNL     1      -1.830  -2.217   0.000  0.00  0.00    +0.001 A 
ATOM     22  C   UNL     1      -1.830  -1.393   0.000  0.00  0.00    +0.011 A 
ENDBRANCH   5   4
ENDBRANCH   6   5
BRANCH  11  13
ATOM     13  O   UNL     1       3.059  -3.044   0.000  0.00  0.00    -0.459 OA
BRANCH  13  14
ATOM     14  C   UNL     1       2.816  -3.832   0.000  0.00  0.00    +0.245 A 
ATOM     15  C   UNL     1       3.377  -4.437   0.000  0.00  0.00    +0.156 A 
ATOM     16  N   UNL     1       3.134  -5.225   0.000  0.00  0.00    -0.236 NA
ATOM     17  C   UNL     1       2.330  -5.409   0.000  0.00  0.00    +0.120 A 
ATOM     18  C   UNL     1       1.769  -4.804   0.000  0.00  0.00    +0.123 A 
ATOM     19  N   UNL     1       2.012  -4.016   0.000  0.00  0.00    -0.207 NA
ENDBRANCH  13  14
ENDBRANCH  11  13
TORSDOF 4
