REMARK  Name = 
REMARK  4 active torsions:
REMARK  status: ('A' for Active; 'I' for Inactive)
REMARK    1  A    between atoms: O_2  and  C_3
REMARK    2  A    between atoms: C_6  and  S_9
REMARK    3  A    between atoms: S_9  and  N_12
REMARK    4  A    between atoms: C_21  and  C_22
REMARK                            x       y       z     vdW  Elec       q    Type
REMARK                         _______ _______ _______ _____ _____    ______ ____
ROOT
ATOM     12  N   UNL     1       0.813  -2.091   0.000  0.00  0.00    -0.155 NA
ATOM     13  C   UNL     1       1.629  -1.912   0.000  0.00  0.00    +0.098 C 
ATOM     14  C   UNL     1       1.582  -0.925   0.000  0.00  0.00    +0.041 C 
ATOM     15  C   UNL     1       1.713  -0.121   0.000  0.00  0.00    +0.011 C 
ATOM     16  C   UNL     1       1.163  -0.557   0.000  0.00  0.00    +0.056 C 
ATOM     17  C   UNL     1       1.225  -1.510   0.000  0.00  0.00    +0.102 C 
ATOM     18  C   UNL     1       0.244  -0.558   0.000  0.00  0.00    +0.041 A 
ATOM     19  C   UNL     1      -0.397  -0.039   0.000  0.00  0.00    +0.013 A 
ATOM     20  C   UNL     1      -1.167  -0.335   0.000  0.00  0.00    +0.009 A 
ATOM     21  C   UNL     1      -1.296  -1.150   0.000  0.00  0.00    +0.091 A 
ATOM     27  C   UNL     1      -0.655  -1.669   0.000  0.00  0.00    +0.264 A 
ATOM     28  O   UNL     1      -0.784  -2.484   0.000  0.00  0.00    -0.267 OA
ATOM     29  N   UNL     1       0.115  -1.373   0.000  0.00  0.00    -0.299 N 
ATOM     30  C   UNL     1       0.622  -0.936   0.000  0.00  0.00    +0.110 C 
ENDROOT
BRANCH  21  22
ATOM     22  C   UNL     1      -2.066  -1.445   0.000  0.00  0.00    +0.150 A 
ATOM     23  C   UNL     1      -2.280  -2.242   0.000  0.00  0.00    +0.041 A 
ATOM     24  C   UNL     1      -3.103  -2.286   0.000  0.00  0.00    +0.044 A 
ATOM     25  C   UNL     1      -3.399  -1.515   0.000  0.00  0.00    +0.180 A 
ATOM     26  O   UNL     1      -2.758  -0.996   0.000  0.00  0.00    -0.450 OA
ENDBRANCH  21  22
BRANCH  12   9
ATOM      9  S   UNL     1       0.125  -2.547   0.000  0.00  0.00    +0.063 S 
ATOM     10  O   UNL     1       0.581  -3.235   0.000  0.00  0.00    -0.153 OA
ATOM     11  O   UNL     1      -0.331  -1.859   0.000  0.00  0.00    -0.153 OA
BRANCH   9   6
ATOM      3  C   UNL     1      -1.938  -3.914   0.000  0.00  0.00    +0.139 A 
ATOM      4  C   UNL     1      -1.989  -3.091   0.000  0.00  0.00    +0.038 A 
ATOM      5  C   UNL     1      -1.301  -2.635   0.000  0.00  0.00    +0.023 A 
ATOM      6  C   UNL     1      -0.563  -3.003   0.000  0.00  0.00    +0.122 A 
ATOM      7  C   UNL     1      -0.512  -3.826   0.000  0.00  0.00    +0.023 A 
ATOM      8  C   UNL     1      -1.200  -4.282   0.000  0.00  0.00    +0.038 A 
BRANCH   3   2
ATOM      1  C   UNL     1      -2.575  -5.193   0.000  0.00  0.00    +0.252 C 
ATOM      2  O   UNL     1      -2.626  -4.370   0.000  0.00  0.00    -0.471 OA
ENDBRANCH   3   2
ENDBRANCH   9   6
ENDBRANCH  12   9
TORSDOF 4
