REMARK  Name = 
REMARK  3 active torsions:
REMARK  status: ('A' for Active; 'I' for Inactive)
REMARK    1  A    between atoms: C_6  and  C_9
REMARK    2  A    between atoms: C_18  and  N_26
REMARK    3  A    between atoms: N_26  and  S_27
REMARK                            x       y       z     vdW  Elec       q    Type
REMARK                         _______ _______ _______ _____ _____    ______ ____
ROOT
ATOM      9  C   UNL     1       0.601  -1.680   0.000  0.00  0.00    -0.000 A 
ATOM     10  C   UNL     1       0.418  -0.876   0.000  0.00  0.00    +0.001 A 
ATOM     11  C   UNL     1       1.023  -0.315   0.000  0.00  0.00    +0.017 A 
ATOM     12  C   UNL     1       1.811  -0.558   0.000  0.00  0.00    +0.078 A 
ATOM     13  N   UNL     1       2.325   0.087   0.000  0.00  0.00    -0.178 NA
ATOM     14  C   UNL     1       3.150   0.087   0.000  0.00  0.00    +0.264 C 
ATOM     15  O   UNL     1       3.508   0.830   0.000  0.00  0.00    -0.271 OA
ATOM     16  C   UNL     1       3.665  -0.558   0.000  0.00  0.00    +0.155 C 
ATOM     17  C   UNL     1       4.453  -0.315   0.000  0.00  0.00    +0.049 C 
ATOM     18  C   UNL     1       5.058  -0.876   0.000  0.00  0.00    +0.101 C 
ATOM     19  C   UNL     1       4.874  -1.680   0.000  0.00  0.00    +0.041 C 
ATOM     20  C   UNL     1       4.086  -1.923   0.000  0.00  0.00    +0.096 C 
ATOM     21  N   UNL     1       3.481  -1.362   0.000  0.00  0.00    -0.269 N 
ATOM     22  C   UNL     1       2.738  -1.720   0.000  0.00  0.00    +0.251 C 
ATOM     23  O   UNL     1       2.738  -2.545   0.000  0.00  0.00    -0.270 OA
ATOM     24  C   UNL     1       1.994  -1.362   0.000  0.00  0.00    +0.069 A 
ATOM     25  C   UNL     1       1.390  -1.923   0.000  0.00  0.00    +0.006 A 
ENDROOT
BRANCH   9   6
ATOM      1  C   UNL     1      -0.241  -4.411   0.000  0.00  0.00    +0.031 C 
ATOM      2  C   UNL     1      -0.425  -3.607   0.000  0.00  0.00    -0.026 A 
ATOM      3  C   UNL     1      -1.213  -3.364   0.000  0.00  0.00    -0.005 A 
ATOM      4  C   UNL     1      -1.397  -2.559   0.000  0.00  0.00    -0.000 A 
ATOM      5  C   UNL     1      -0.792  -1.998   0.000  0.00  0.00    -0.000 A 
ATOM      6  C   UNL     1      -0.003  -2.241   0.000  0.00  0.00    -0.004 A 
ATOM      7  C   UNL     1       0.180  -3.046   0.000  0.00  0.00    -0.026 A 
ATOM      8  C   UNL     1       0.969  -3.289   0.000  0.00  0.00    +0.031 C 
ENDBRANCH   9   6
BRANCH  18  26
ATOM     26  N   UNL     1       5.846  -0.633   0.000  0.00  0.00    -0.083 NA
BRANCH  26  27
ATOM     27  S   UNL     1       6.030   0.172   0.000  0.00  0.00    +0.059 S 
ATOM     28  C   UNL     1       6.213   0.976   0.000  0.00  0.00    +0.197 C 
ATOM     29  O   UNL     1       6.834  -0.012   0.000  0.00  0.00    -0.156 OA
ATOM     30  O   UNL     1       5.225   0.355   0.000  0.00  0.00    -0.156 OA
ENDBRANCH  26  27
ENDBRANCH  18  26
TORSDOF 3
