REMARK  Name = 
REMARK  6 active torsions:
REMARK  status: ('A' for Active; 'I' for Inactive)
REMARK    1  A    between atoms: O_2  and  C_3
REMARK    2  A    between atoms: C_6  and  N_9
REMARK    3  A    between atoms: C_13  and  C_14
REMARK    4  A    between atoms: C_16  and  N_17
REMARK    5  A    between atoms: N_17  and  S_18
REMARK    6  A    between atoms: S_18  and  C_21
REMARK                            x       y       z     vdW  Elec       q    Type
REMARK                         _______ _______ _______ _____ _____    ______ ____
ROOT
ATOM      9  N   UNL     1       0.715   3.466   0.000  0.00  0.00    -0.234 N 
ATOM     10  N   UNL     1       1.382   2.981   0.000  0.00  0.00    -0.170 NA
ATOM     11  C   UNL     1       1.127   2.196   0.000  0.00  0.00    +0.077 A 
ATOM     12  C   UNL     1       1.612   1.529   0.000  0.00  0.00    +0.054 C 
ATOM     13  C   UNL     1       0.302   2.196   0.000  0.00  0.00    +0.010 A 
ATOM     28  C   UNL     1       0.047   2.981   0.000  0.00  0.00    +0.058 A 
ATOM     29  C   UNL     1      -0.738   3.236   0.000  0.00  0.00    +0.052 C 
ENDROOT
BRANCH   9   6
ATOM      3  C   UNL     1       0.715   5.941   0.000  0.00  0.00    +0.139 A 
ATOM      4  C   UNL     1       1.429   5.529   0.000  0.00  0.00    +0.038 A 
ATOM      5  C   UNL     1       1.429   4.704   0.000  0.00  0.00    +0.022 A 
ATOM      6  C   UNL     1       0.715   4.291   0.000  0.00  0.00    +0.083 A 
ATOM      7  C   UNL     1       0.000   4.704   0.000  0.00  0.00    +0.022 A 
ATOM      8  C   UNL     1       0.000   5.529   0.000  0.00  0.00    +0.038 A 
BRANCH   3   2
ATOM      1  C   UNL     1       0.000   7.179   0.000  0.00  0.00    +0.252 C 
ATOM      2  O   UNL     1       0.715   6.766   0.000  0.00  0.00    -0.471 OA
ENDBRANCH   3   2
ENDBRANCH   9   6
BRANCH  13  14
ATOM     14  C   UNL     1      -0.183   1.529   0.000  0.00  0.00    +0.048 C 
ATOM     15  C   UNL     1       0.072   0.745   0.000  0.00  0.00    +0.033 C 
ATOM     16  C   UNL     1      -0.596   0.260   0.000  0.00  0.00    +0.120 C 
ATOM     26  C   UNL     1      -1.263   0.745   0.000  0.00  0.00    -0.011 C 
ATOM     27  C   UNL     1      -1.008   1.529   0.000  0.00  0.00    -0.025 C 
BRANCH  16  17
ATOM     17  N   UNL     1      -0.596  -0.566   0.000  0.00  0.00    -0.074 NA
BRANCH  17  18
ATOM     18  S   UNL     1      -1.310  -0.978   0.000  0.00  0.00    +0.083 S 
ATOM     19  O   UNL     1      -1.722  -0.264   0.000  0.00  0.00    -0.151 OA
ATOM     20  O   UNL     1      -0.897  -1.692   0.000  0.00  0.00    -0.151 OA
BRANCH  18  21
ATOM     21  C   UNL     1      -2.024  -1.391   0.000  0.00  0.00    +0.153 A 
ATOM     22  C   UNL     1      -2.111  -2.211   0.000  0.00  0.00    +0.027 A 
ATOM     23  C   UNL     1      -2.918  -2.382   0.000  0.00  0.00    +0.009 A 
ATOM     24  C   UNL     1      -3.330  -1.668   0.000  0.00  0.00    +0.037 A 
ATOM     25  S   UNL     1      -2.778  -1.055   0.000  0.00  0.00    -0.067 S 
ENDBRANCH  18  21
ENDBRANCH  17  18
ENDBRANCH  16  17
ENDBRANCH  13  14
TORSDOF 6
