REMARK  Name = 
REMARK  4 active torsions:
REMARK  status: ('A' for Active; 'I' for Inactive)
REMARK    1  A    between atoms: O_2  and  C_3
REMARK    2  A    between atoms: C_6  and  C_9
REMARK    3  A    between atoms: C_15  and  N_16
REMARK    4  A    between atoms: C_17  and  C_19
REMARK                            x       y       z     vdW  Elec       q    Type
REMARK                         _______ _______ _______ _____ _____    ______ ____
ROOT
ATOM      9  C   UNL     1      -3.176  -2.080   0.000  0.00  0.00    +0.048 C 
ATOM     10  C   UNL     1      -3.961  -1.825   0.000  0.00  0.00    +0.042 C 
ATOM     11  C   UNL     1      -3.961  -1.000   0.000  0.00  0.00    +0.184 C 
ATOM     12  O   UNL     1      -4.628  -0.515   0.000  0.00  0.00    -0.220 OA
ATOM     13  C   UNL     1      -3.176  -0.745   0.000  0.00  0.00    +0.202 C 
ATOM     14  O   UNL     1      -2.921   0.040   0.000  0.00  0.00    -0.219 OA
ATOM     15  C   UNL     1      -2.691  -1.412   0.000  0.00  0.00    +0.132 C 
ENDROOT
BRANCH   9   6
ATOM      3  C   UNL     1      -2.411  -4.434   0.000  0.00  0.00    +0.139 A 
ATOM      4  C   UNL     1      -3.218  -4.262   0.000  0.00  0.00    +0.037 A 
ATOM      5  C   UNL     1      -3.473  -3.478   0.000  0.00  0.00    -0.001 A 
ATOM      6  C   UNL     1      -2.921  -2.865   0.000  0.00  0.00    -0.020 A 
ATOM      7  C   UNL     1      -2.114  -3.036   0.000  0.00  0.00    -0.001 A 
ATOM      8  C   UNL     1      -1.859  -3.821   0.000  0.00  0.00    +0.037 A 
BRANCH   3   2
ATOM      1  C   UNL     1      -1.349  -5.390   0.000  0.00  0.00    +0.252 C 
ATOM      2  O   UNL     1      -2.156  -5.218   0.000  0.00  0.00    -0.471 OA
ENDBRANCH   3   2
ENDBRANCH   9   6
BRANCH  15  16
ATOM     16  N   UNL     1      -1.866  -1.412   0.000  0.00  0.00    -0.200 NA
ATOM     17  C   UNL     1      -1.453  -0.698   0.000  0.00  0.00    +0.271 C 
ATOM     18  O   UNL     1      -1.866   0.017   0.000  0.00  0.00    -0.268 OA
BRANCH  17  19
ATOM     19  C   UNL     1      -0.628  -0.698   0.000  0.00  0.00    +0.084 A 
ATOM     20  C   UNL     1      -0.143  -1.365   0.000  0.00  0.00    +0.012 A 
ATOM     21  C   UNL     1       0.641  -1.110   0.000  0.00  0.00    +0.007 A 
ATOM     22  C   UNL     1       0.641  -0.285   0.000  0.00  0.00    +0.030 A 
ATOM     23  S   UNL     1      -0.143  -0.030   0.000  0.00  0.00    -0.082 S 
ATOM     24  C   UNL     1       1.356   0.127   0.000  0.00  0.00    +0.006 A 
ATOM     25  C   UNL     1       2.070  -0.285   0.000  0.00  0.00    +0.001 A 
ATOM     26  C   UNL     1       2.070  -1.110   0.000  0.00  0.00    +0.000 A 
ATOM     27  C   UNL     1       1.356  -1.523   0.000  0.00  0.00    +0.001 A 
ENDBRANCH  17  19
ENDBRANCH  15  16
TORSDOF 4
