REMARK  Name = 
REMARK  4 active torsions:
REMARK  status: ('A' for Active; 'I' for Inactive)
REMARK    1  A    between atoms: N_3  and  C_4
REMARK    2  A    between atoms: C_8  and  N_12
REMARK    3  A    between atoms: C_16  and  C_17
REMARK    4  A    between atoms: N_23  and  C_24
REMARK                            x       y       z     vdW  Elec       q    Type
REMARK                         _______ _______ _______ _____ _____    ______ ____
ROOT
ATOM      4  C   UNL     1       0.000  -4.125   0.000  0.00  0.00    +0.156 C 
ATOM      5  C   UNL     1      -0.086  -4.946   0.000  0.00  0.00    +0.166 C 
ATOM      6  O   UNL     1      -0.893  -5.117   0.000  0.00  0.00    -0.350 OA
ATOM      7  C   UNL     1      -1.306  -4.402   0.000  0.00  0.00    +0.169 C 
ATOM      8  C   UNL     1      -2.059  -4.067   0.000  0.00  0.00    +0.167 C 
ATOM      9  C   UNL     1      -1.973  -3.247   0.000  0.00  0.00    +0.169 C 
ATOM     10  O   UNL     1      -1.166  -3.075   0.000  0.00  0.00    -0.350 OA
ATOM     11  C   UNL     1      -0.754  -3.789   0.000  0.00  0.00    +0.167 C 
ENDROOT
BRANCH   8  12
ATOM     12  N   UNL     1      -2.774  -4.479   0.000  0.00  0.00    -0.210 N 
ATOM     13  N   UNL     1      -2.860  -5.300   0.000  0.00  0.00    -0.043 NA
ATOM     14  N   UNL     1      -3.667  -5.471   0.000  0.00  0.00    -0.023 NA
ATOM     15  N   UNL     1      -4.080  -4.757   0.000  0.00  0.00    -0.108 NA
ATOM     16  C   UNL     1      -3.527  -4.144   0.000  0.00  0.00    +0.184 A 
BRANCH  16  17
ATOM     17  C   UNL     1      -3.699  -3.337   0.000  0.00  0.00    +0.037 A 
ATOM     18  C   UNL     1      -4.484  -3.082   0.000  0.00  0.00    +0.003 A 
ATOM     19  C   UNL     1      -4.655  -2.275   0.000  0.00  0.00    +0.000 A 
ATOM     20  C   UNL     1      -4.042  -1.723   0.000  0.00  0.00    +0.000 A 
ATOM     21  C   UNL     1      -3.257  -1.978   0.000  0.00  0.00    +0.000 A 
ATOM     22  C   UNL     1      -3.086  -2.785   0.000  0.00  0.00    +0.003 A 
ENDBRANCH  16  17
ENDBRANCH   8  12
BRANCH   4   3
ATOM      1  O   UNL     1       0.000  -2.475   0.000  0.00  0.00    -0.249 OA
ATOM      2  C   UNL     1       0.715  -2.888   0.000  0.00  0.00    +0.344 C 
ATOM      3  N   UNL     1       0.715  -3.712   0.000  0.00  0.00    -0.184 NA
ATOM     23  N   UNL     1       1.429  -2.475   0.000  0.00  0.00    -0.161 NA
BRANCH  23  24
ATOM     24  C   UNL     1       1.429  -1.650   0.000  0.00  0.00    +0.075 A 
ATOM     25  C   UNL     1       0.715  -1.238   0.000  0.00  0.00    +0.017 A 
ATOM     26  C   UNL     1       0.715  -0.412   0.000  0.00  0.00    +0.001 A 
ATOM     27  C   UNL     1       1.429   0.000   0.000  0.00  0.00    +0.000 A 
ATOM     28  C   UNL     1       2.143  -0.412   0.000  0.00  0.00    +0.001 A 
ATOM     29  C   UNL     1       2.858   0.000   0.000  0.00  0.00    +0.000 A 
ATOM     30  C   UNL     1       3.572  -0.412   0.000  0.00  0.00    +0.000 A 
ATOM     31  C   UNL     1       3.572  -1.238   0.000  0.00  0.00    +0.000 A 
ATOM     32  C   UNL     1       2.858  -1.650   0.000  0.00  0.00    +0.001 A 
ATOM     33  C   UNL     1       2.143  -1.238   0.000  0.00  0.00    +0.015 A 
ENDBRANCH  23  24
ENDBRANCH   4   3
TORSDOF 4
