REMARK  Name = 
REMARK  5 active torsions:
REMARK  status: ('A' for Active; 'I' for Inactive)
REMARK    1  A    between atoms: C_4  and  N_22
REMARK    2  A    between atoms: C_6  and  C_7
REMARK    3  A    between atoms: C_9  and  C_12
REMARK    4  A    between atoms: C_23  and  C_25
REMARK    5  A    between atoms: C_25  and  C_26
REMARK                            x       y       z     vdW  Elec       q    Type
REMARK                         _______ _______ _______ _____ _____    ______ ____
ROOT
ATOM      7  C   UNL     1      -0.893   0.992   0.000  0.00  0.00    +0.251 A 
ATOM      8  N   UNL     1      -0.086   0.821   0.000  0.00  0.00    -0.190 NA
ATOM      9  C   UNL     1       0.000   0.000   0.000  0.00  0.00    +0.203 A 
ATOM     10  N   UNL     1      -0.754  -0.336   0.000  0.00  0.00    -0.056 NA
ATOM     11  O   UNL     1      -1.306   0.278   0.000  0.00  0.00    -0.336 OA
ENDROOT
BRANCH   9  12
ATOM     12  C   UNL     1       0.715  -0.412   0.000  0.00  0.00    +0.039 A 
ATOM     13  C   UNL     1       1.429   0.000   0.000  0.00  0.00    +0.003 A 
ATOM     14  C   UNL     1       2.143  -0.412   0.000  0.00  0.00    +0.000 A 
ATOM     15  C   UNL     1       2.858   0.000   0.000  0.00  0.00    +0.000 A 
ATOM     16  C   UNL     1       3.572  -0.412   0.000  0.00  0.00    +0.000 A 
ATOM     17  C   UNL     1       3.572  -1.238   0.000  0.00  0.00    +0.000 A 
ATOM     18  C   UNL     1       2.858  -1.650   0.000  0.00  0.00    +0.000 A 
ATOM     19  C   UNL     1       2.143  -1.238   0.000  0.00  0.00    +0.000 A 
ATOM     20  C   UNL     1       1.429  -1.650   0.000  0.00  0.00    +0.000 A 
ATOM     21  C   UNL     1       0.715  -1.238   0.000  0.00  0.00    +0.003 A 
ENDBRANCH   9  12
BRANCH   7   6
ATOM      1  C   UNL     1      -2.649   1.365   0.000  0.00  0.00    +0.090 C 
ATOM      2  N   UNL     1      -2.036   1.917   0.000  0.00  0.00    -0.264 NA
ATOM      3  C   UNL     1      -2.122   2.738   0.000  0.00  0.00    +0.094 C 
ATOM      4  C   UNL     1      -1.368   3.073   0.000  0.00  0.00    +0.113 C 
ATOM      5  C   UNL     1      -0.816   2.460   0.000  0.00  0.00    +0.049 C 
ATOM      6  C   UNL     1      -1.229   1.746   0.000  0.00  0.00    +0.139 C 
BRANCH   4  22
ATOM     22  N   UNL     1      -1.197   3.880   0.000  0.00  0.00    -0.206 NA
ATOM     23  C   UNL     1      -1.810   4.432   0.000  0.00  0.00    +0.241 C 
ATOM     24  O   UNL     1      -2.595   4.177   0.000  0.00  0.00    -0.273 OA
BRANCH  23  25
ATOM     25  C   UNL     1      -1.638   5.239   0.000  0.00  0.00    +0.087 C 
BRANCH  25  26
ATOM     26  C   UNL     1      -2.251   5.791   0.000  0.00  0.00    +0.009 C 
ATOM     27  C   UNL     1      -2.865   6.343   0.000  0.00  0.00    +0.000 C 
ATOM     28  C   UNL     1      -1.699   6.404   0.000  0.00  0.00    +0.000 C 
ATOM     29  C   UNL     1      -2.804   5.178   0.000  0.00  0.00    +0.000 C 
ENDBRANCH  25  26
ENDBRANCH  23  25
ENDBRANCH   4  22
ENDBRANCH   7   6
TORSDOF 5
