REMARK  Name = 
REMARK  2 active torsions:
REMARK  status: ('A' for Active; 'I' for Inactive)
REMARK    1  A    between atoms: C_4  and  N_5
REMARK    2  A    between atoms: C_15  and  C_22
REMARK                            x       y       z     vdW  Elec       q    Type
REMARK                         _______ _______ _______ _____ _____    ______ ____
ROOT
ATOM      5  N   UNL     1      -0.614  -2.179   0.000  0.00  0.00    -0.162 NA
ATOM      6  C   UNL     1       0.125  -2.547   0.000  0.00  0.00    +0.327 C 
ATOM      7  O   UNL     1       0.176  -3.370   0.000  0.00  0.00    -0.250 OA
ATOM      8  N   UNL     1       0.813  -2.091   0.000  0.00  0.00    -0.262 N 
ATOM      9  C   UNL     1       1.629  -1.912   0.000  0.00  0.00    +0.097 C 
ATOM     10  C   UNL     1       1.582  -0.925   0.000  0.00  0.00    +0.043 C 
ATOM     11  C   UNL     1       1.713  -0.121   0.000  0.00  0.00    +0.011 C 
ATOM     12  C   UNL     1       1.163  -0.557   0.000  0.00  0.00    +0.058 C 
ATOM     13  C   UNL     1       1.225  -1.510   0.000  0.00  0.00    +0.101 C 
ATOM     14  C   UNL     1       0.244  -0.558   0.000  0.00  0.00    +0.041 A 
ATOM     15  C   UNL     1      -0.397  -0.039   0.000  0.00  0.00    +0.012 A 
ATOM     16  C   UNL     1      -1.167  -0.335   0.000  0.00  0.00    +0.006 A 
ATOM     17  C   UNL     1      -1.296  -1.150   0.000  0.00  0.00    +0.061 A 
ATOM     18  C   UNL     1      -0.655  -1.669   0.000  0.00  0.00    +0.261 A 
ATOM     19  O   UNL     1      -1.238  -2.252   0.000  0.00  0.00    -0.267 OA
ATOM     20  N   UNL     1       0.115  -1.373   0.000  0.00  0.00    -0.299 N 
ATOM     21  C   UNL     1       0.622  -0.936   0.000  0.00  0.00    +0.110 C 
ENDROOT
BRANCH   5   4
ATOM      1  F   UNL     1      -1.888  -4.737   0.000  0.00  0.00    -0.204 F 
ATOM      2  C   UNL     1      -1.938  -3.914   0.000  0.00  0.00    +0.141 A 
ATOM      3  C   UNL     1      -1.251  -3.458   0.000  0.00  0.00    +0.046 A 
ATOM      4  C   UNL     1      -1.301  -2.635   0.000  0.00  0.00    +0.077 A 
ATOM     28  C   UNL     1      -2.040  -2.267   0.000  0.00  0.00    +0.017 A 
ATOM     29  C   UNL     1      -2.728  -2.723   0.000  0.00  0.00    +0.004 A 
ATOM     30  C   UNL     1      -2.677  -3.546   0.000  0.00  0.00    +0.030 A 
ENDBRANCH   5   4
BRANCH  15  22
ATOM     22  C   UNL     1      -0.268   0.776   0.000  0.00  0.00    +0.001 A 
ATOM     23  C   UNL     1      -0.909   1.295   0.000  0.00  0.00    +0.000 A 
ATOM     24  C   UNL     1      -0.780   2.110   0.000  0.00  0.00    +0.000 A 
ATOM     25  C   UNL     1      -0.010   2.406   0.000  0.00  0.00    +0.000 A 
ATOM     26  C   UNL     1       0.631   1.887   0.000  0.00  0.00    +0.000 A 
ATOM     27  C   UNL     1       0.502   1.072   0.000  0.00  0.00    +0.000 A 
ENDBRANCH  15  22
TORSDOF 2
