REMARK  Name = 
REMARK  7 active torsions:
REMARK  status: ('A' for Active; 'I' for Inactive)
REMARK    1  A    between atoms: O_2  and  C_3
REMARK    2  A    between atoms: C_3  and  C_4
REMARK    3  A    between atoms: C_4  and  N_5
REMARK    4  A    between atoms: N_5  and  C_6
REMARK    5  A    between atoms: C_7  and  C_12
REMARK    6  A    between atoms: C_15  and  C_17
REMARK    7  A    between atoms: N_21  and  C_22
REMARK                            x       y       z     vdW  Elec       q    Type
REMARK                         _______ _______ _______ _____ _____    ______ ____
ROOT
ATOM     12  C   UNL     1       2.834  -0.549   0.000  0.00  0.00    +0.206 A 
ATOM     13  N   UNL     1       3.501  -1.034   0.000  0.00  0.00    -0.056 NA
ATOM     14  O   UNL     1       3.247  -1.818   0.000  0.00  0.00    -0.336 OA
ATOM     15  C   UNL     1       2.421  -1.818   0.000  0.00  0.00    +0.251 A 
ATOM     16  N   UNL     1       2.167  -1.034   0.000  0.00  0.00    -0.190 NA
ENDROOT
BRANCH  12   7
ATOM      6  C   UNL     1       3.548   0.689   0.000  0.00  0.00    +0.151 A 
ATOM      7  C   UNL     1       2.834   0.276   0.000  0.00  0.00    +0.072 A 
ATOM      8  C   UNL     1       2.119   0.689   0.000  0.00  0.00    +0.008 A 
ATOM      9  C   UNL     1       2.119   1.514   0.000  0.00  0.00    +0.021 A 
ATOM     10  C   UNL     1       2.834   1.926   0.000  0.00  0.00    +0.100 A 
ATOM     11  N   UNL     1       3.548   1.514   0.000  0.00  0.00    -0.228 NA
BRANCH   6   5
ATOM      5  N   UNL     1       4.263   0.276   0.000  0.00  0.00    -0.218 NA
BRANCH   5   4
ATOM      4  C   UNL     1       4.977   0.689   0.000  0.00  0.00    +0.146 C 
BRANCH   4   3
ATOM      3  C   UNL     1       5.692   0.276   0.000  0.00  0.00    +0.166 C 
BRANCH   3   2
ATOM      1  C   UNL     1       7.121   0.276   0.000  0.00  0.00    +0.174 C 
ATOM      2  O   UNL     1       6.406   0.689   0.000  0.00  0.00    -0.349 OA
ENDBRANCH   3   2
ENDBRANCH   4   3
ENDBRANCH   5   4
ENDBRANCH   6   5
ENDBRANCH  12   7
BRANCH  15  17
ATOM     17  C   UNL     1       1.937  -2.486   0.000  0.00  0.00    +0.138 C 
ATOM     18  C   UNL     1       2.192  -3.270   0.000  0.00  0.00    +0.027 C 
ATOM     19  C   UNL     1       1.524  -3.755   0.000  0.00  0.00    +0.019 C 
ATOM     20  C   UNL     1       0.857  -3.270   0.000  0.00  0.00    +0.072 C 
ATOM     21  N   UNL     1       1.111  -2.486   0.000  0.00  0.00    -0.268 NA
BRANCH  21  22
ATOM     22  C   UNL     1       0.627  -1.818   0.000  0.00  0.00    +0.061 C 
ATOM     23  C   UNL     1      -0.194  -1.905   0.000  0.00  0.00    +0.033 C 
ATOM     24  C   UNL     1      -0.679  -1.237   0.000  0.00  0.00    +0.074 C 
ATOM     25  N   UNL     1      -0.343  -0.483   0.000  0.00  0.00    -0.271 NA
ATOM     26  C   UNL     1      -0.828   0.184   0.000  0.00  0.00    +0.090 C 
ATOM     27  C   UNL     1       0.477  -0.397   0.000  0.00  0.00    +0.074 C 
ATOM     28  C   UNL     1       0.962  -1.065   0.000  0.00  0.00    +0.033 C 
ENDBRANCH  21  22
ENDBRANCH  15  17
TORSDOF 7
