REMARK  Name = 
REMARK  3 active torsions:
REMARK  status: ('A' for Active; 'I' for Inactive)
REMARK    1  A    between atoms: C_6  and  C_7
REMARK    2  A    between atoms: C_10  and  C_12
REMARK    3  A    between atoms: C_17  and  C_19
REMARK                            x       y       z     vdW  Elec       q    Type
REMARK                         _______ _______ _______ _____ _____    ______ ____
ROOT
ATOM     12  C   UNL     1       2.892   1.647   0.000  0.00  0.00    +0.100 C 
ATOM     13  C   UNL     1       2.067   1.647   0.000  0.00  0.00    +0.033 C 
ATOM     14  C   UNL     1       1.812   2.432   0.000  0.00  0.00    +0.094 C 
ATOM     15  N   UNL     1       2.480   2.917   0.000  0.00  0.00    -0.276 N 
ATOM     16  C   UNL     1       3.147   2.432   0.000  0.00  0.00    +0.103 C 
ATOM     17  C   UNL     1       2.480   3.742   0.000  0.00  0.00    +0.249 C 
ATOM     18  O   UNL     1       1.765   4.154   0.000  0.00  0.00    -0.270 OA
ENDROOT
BRANCH  17  19
ATOM     19  C   UNL     1       3.194   4.154   0.000  0.00  0.00    +0.057 A 
ATOM     20  C   UNL     1       3.194   4.979   0.000  0.00  0.00    +0.025 A 
ATOM     21  C   UNL     1       3.909   5.392   0.000  0.00  0.00    +0.099 A 
ATOM     22  N   UNL     1       4.623   4.979   0.000  0.00  0.00    -0.242 NA
ATOM     23  C   UNL     1       4.623   4.154   0.000  0.00  0.00    +0.099 A 
ATOM     24  C   UNL     1       3.909   3.742   0.000  0.00  0.00    +0.025 A 
ENDBRANCH  17  19
BRANCH  12  10
ATOM      7  C   UNL     1       4.457   0.195   0.000  0.00  0.00    +0.267 A 
ATOM      8  N   UNL     1       3.790  -0.290   0.000  0.00  0.00    -0.106 NA
ATOM      9  N   UNL     1       3.122   0.195   0.000  0.00  0.00    -0.111 NA
ATOM     10  C   UNL     1       3.377   0.980   0.000  0.00  0.00    +0.228 A 
ATOM     11  O   UNL     1       4.202   0.980   0.000  0.00  0.00    -0.418 OA
BRANCH   7   6
ATOM      1  C   UNL     1       5.909   1.250   0.000  0.00  0.00    +0.132 C 
ATOM      2  N   UNL     1       5.909   0.425   0.000  0.00  0.00    -0.303 N 
ATOM      3  C   UNL     1       6.577  -0.060   0.000  0.00  0.00    +0.179 A 
ATOM      4  N   UNL     1       6.322  -0.845   0.000  0.00  0.00    -0.222 NA
ATOM      5  C   UNL     1       5.497  -0.845   0.000  0.00  0.00    +0.123 A 
ATOM      6  C   UNL     1       5.242  -0.060   0.000  0.00  0.00    +0.136 A 
ENDBRANCH   7   6
ENDBRANCH  12  10
TORSDOF 3
