REMARK  Name = 
REMARK  6 active torsions:
REMARK  status: ('A' for Active; 'I' for Inactive)
REMARK    1  A    between atoms: N_4  and  C_5
REMARK    2  A    between atoms: C_8  and  C_9
REMARK    3  A    between atoms: C_9  and  N_10
REMARK    4  A    between atoms: N_10  and  C_11
REMARK    5  A    between atoms: C_14  and  C_15
REMARK    6  A    between atoms: C_15  and  N_16
REMARK                            x       y       z     vdW  Elec       q    Type
REMARK                         _______ _______ _______ _____ _____    ______ ____
ROOT
ATOM     11  C   UNL     1      -2.037  -1.299   0.000  0.00  0.00    +0.135 C 
ATOM     12  C   UNL     1      -1.369  -1.784   0.000  0.00  0.00    +0.162 C 
ATOM     13  O   UNL     1      -1.624  -2.569   0.000  0.00  0.00    -0.350 OA
ATOM     14  C   UNL     1      -2.449  -2.569   0.000  0.00  0.00    +0.169 C 
ATOM     25  C   UNL     1      -2.704  -1.784   0.000  0.00  0.00    +0.199 C 
ATOM     26  O   UNL     1      -3.489  -1.529   0.000  0.00  0.00    -0.219 OA
ENDROOT
BRANCH  11  10
ATOM     10  N   UNL     1      -2.037  -0.474   0.000  0.00  0.00    -0.209 NA
BRANCH  10   9
ATOM      9  C   UNL     1      -1.322  -0.062   0.000  0.00  0.00    +0.115 C 
BRANCH   9   8
ATOM      5  C   UNL     1      -1.322   2.413   0.000  0.00  0.00    +0.073 A 
ATOM      6  C   UNL     1      -0.608   2.001   0.000  0.00  0.00    +0.016 A 
ATOM      7  C   UNL     1      -0.608   1.176   0.000  0.00  0.00    -0.002 A 
ATOM      8  C   UNL     1      -1.322   0.763   0.000  0.00  0.00    -0.005 A 
ATOM     27  C   UNL     1      -2.037   1.176   0.000  0.00  0.00    -0.002 A 
ATOM     28  C   UNL     1      -2.037   2.001   0.000  0.00  0.00    +0.016 A 
BRANCH   5   4
ATOM      1  C   UNL     1      -2.037   4.476   0.000  0.00  0.00    +0.097 C 
ATOM      2  C   UNL     1      -2.037   3.651   0.000  0.00  0.00    +0.246 C 
ATOM      3  O   UNL     1      -2.751   3.238   0.000  0.00  0.00    -0.273 OA
ATOM      4  N   UNL     1      -1.322   3.238   0.000  0.00  0.00    -0.179 NA
ENDBRANCH   5   4
ENDBRANCH   9   8
ENDBRANCH  10   9
ENDBRANCH  11  10
BRANCH  14  15
ATOM     15  C   UNL     1      -2.934  -3.236   0.000  0.00  0.00    +0.149 C 
BRANCH  15  16
ATOM     16  N   UNL     1      -3.755  -3.150   0.000  0.00  0.00    -0.186 NA
ATOM     17  C   UNL     1      -4.239  -3.817   0.000  0.00  0.00    +0.323 C 
ATOM     18  O   UNL     1      -5.060  -3.731   0.000  0.00  0.00    -0.251 OA
ATOM     19  N   UNL     1      -3.904  -4.571   0.000  0.00  0.00    -0.258 N 
ATOM     20  C   UNL     1      -3.083  -4.657   0.000  0.00  0.00    +0.127 C 
ATOM     21  C   UNL     1      -2.748  -5.411   0.000  0.00  0.00    +0.164 C 
ATOM     22  O   UNL     1      -3.233  -6.078   0.000  0.00  0.00    -0.350 OA
ATOM     23  C   UNL     1      -4.053  -5.992   0.000  0.00  0.00    +0.164 C 
ATOM     24  C   UNL     1      -4.389  -5.238   0.000  0.00  0.00    +0.127 C 
ENDBRANCH  15  16
ENDBRANCH  14  15
TORSDOF 6
