REMARK  Name = 
REMARK  8 active torsions:
REMARK  status: ('A' for Active; 'I' for Inactive)
REMARK    1  A    between atoms: O_2  and  C_3
REMARK    2  A    between atoms: C_4  and  C_5
REMARK    3  A    between atoms: C_5  and  N_6
REMARK    4  A    between atoms: C_7  and  C_9
REMARK    5  A    between atoms: C_9  and  C_11
REMARK    6  A    between atoms: C_18  and  N_19
REMARK    7  A    between atoms: C_20  and  C_22
REMARK    8  A    between atoms: C_22  and  C_23
REMARK                            x       y       z     vdW  Elec       q    Type
REMARK                         _______ _______ _______ _____ _____    ______ ____
ROOT
ATOM     11  C   UNL     1       0.715  -1.238   0.000  0.00  0.00    +0.039 C 
ATOM     12  C   UNL     1       0.715  -0.412   0.000  0.00  0.00    +0.003 C 
ATOM     13  C   UNL     1       1.429   0.000   0.000  0.00  0.00    +0.000 C 
ATOM     14  C   UNL     1       2.143  -0.412   0.000  0.00  0.00    +0.002 C 
ATOM     15  C   UNL     1       2.143   0.412   0.000  0.00  0.00    +0.000 C 
ATOM     16  C   UNL     1       2.858   0.000   0.000  0.00  0.00    +0.002 C 
ATOM     17  C   UNL     1       3.572  -0.412   0.000  0.00  0.00    +0.022 C 
ATOM     18  C   UNL     1       3.572  -1.238   0.000  0.00  0.00    +0.095 C 
ATOM     29  C   UNL     1       2.858  -1.650   0.000  0.00  0.00    +0.022 C 
ATOM     30  C   UNL     1       2.858  -2.475   0.000  0.00  0.00    +0.002 C 
ATOM     31  C   UNL     1       2.143  -1.238   0.000  0.00  0.00    +0.032 C 
ATOM     32  C   UNL     1       1.429  -1.650   0.000  0.00  0.00    +0.152 C 
ATOM     33  O   UNL     1       1.429  -2.475   0.000  0.00  0.00    -0.223 OA
ENDROOT
BRANCH  18  19
ATOM     19  N   UNL     1       4.287  -1.650   0.000  0.00  0.00    -0.207 NA
ATOM     20  C   UNL     1       4.287  -2.475   0.000  0.00  0.00    +0.246 C 
ATOM     21  O   UNL     1       3.572  -2.888   0.000  0.00  0.00    -0.273 OA
BRANCH  20  22
ATOM     22  C   UNL     1       5.001  -2.888   0.000  0.00  0.00    +0.113 C 
BRANCH  22  23
ATOM     23  C   UNL     1       5.716  -2.475   0.000  0.00  0.00    -0.013 A 
ATOM     24  C   UNL     1       5.716  -1.650   0.000  0.00  0.00    -0.004 A 
ATOM     25  C   UNL     1       6.430  -1.238   0.000  0.00  0.00    -0.000 A 
ATOM     26  C   UNL     1       7.145  -1.650   0.000  0.00  0.00    -0.000 A 
ATOM     27  C   UNL     1       7.145  -2.475   0.000  0.00  0.00    -0.000 A 
ATOM     28  C   UNL     1       6.430  -2.888   0.000  0.00  0.00    -0.004 A 
ENDBRANCH  22  23
ENDBRANCH  20  22
ENDBRANCH  18  19
BRANCH  11   9
ATOM      9  C   UNL     1       0.000  -1.650   0.000  0.00  0.00    +0.081 C 
ATOM     10  C   UNL     1       0.000  -2.475   0.000  0.00  0.00    +0.010 C 
BRANCH   9   7
ATOM      6  N   UNL     1      -1.429  -1.650   0.000  0.00  0.00    -0.200 NA
ATOM      7  C   UNL     1      -0.715  -1.238   0.000  0.00  0.00    +0.241 C 
ATOM      8  O   UNL     1      -0.715  -0.412   0.000  0.00  0.00    -0.273 OA
BRANCH   6   5
ATOM      5  C   UNL     1      -2.143  -1.238   0.000  0.00  0.00    +0.144 C 
BRANCH   5   4
ATOM      3  C   UNL     1      -3.572  -1.238   0.000  0.00  0.00    +0.136 A 
ATOM      4  C   UNL     1      -2.858  -1.650   0.000  0.00  0.00    +0.033 A 
ATOM     34  C   UNL     1      -2.858  -2.475   0.000  0.00  0.00    +0.000 A 
ATOM     35  C   UNL     1      -3.572  -2.888   0.000  0.00  0.00    -0.000 A 
ATOM     36  C   UNL     1      -4.287  -2.475   0.000  0.00  0.00    +0.003 A 
ATOM     37  C   UNL     1      -4.287  -1.650   0.000  0.00  0.00    +0.037 A 
BRANCH   3   2
ATOM      1  C   UNL     1      -4.287   0.000   0.000  0.00  0.00    +0.252 C 
ATOM      2  O   UNL     1      -3.572  -0.412   0.000  0.00  0.00    -0.472 OA
ENDBRANCH   3   2
ENDBRANCH   5   4
ENDBRANCH   6   5
ENDBRANCH   9   7
ENDBRANCH  11   9
TORSDOF 8
