REMARK  Name = 
REMARK  4 active torsions:
REMARK  status: ('A' for Active; 'I' for Inactive)
REMARK    1  A    between atoms: C_3  and  C_4
REMARK    2  A    between atoms: C_6  and  C_11
REMARK    3  A    between atoms: C_14  and  N_15
REMARK    4  A    between atoms: C_16  and  C_18
REMARK                            x       y       z     vdW  Elec       q    Type
REMARK                         _______ _______ _______ _____ _____    ______ ____
ROOT
ATOM     11  C   UNL     1       2.858  -6.600   0.000  0.00  0.00    +0.006 A 
ATOM     12  C   UNL     1       3.572  -6.188   0.000  0.00  0.00    -0.001 A 
ATOM     13  C   UNL     1       4.287  -6.600   0.000  0.00  0.00    +0.016 A 
ATOM     14  C   UNL     1       4.287  -7.425   0.000  0.00  0.00    +0.074 A 
ATOM     25  C   UNL     1       3.572  -7.838   0.000  0.00  0.00    +0.016 A 
ATOM     26  C   UNL     1       2.858  -7.425   0.000  0.00  0.00    -0.001 A 
ENDROOT
BRANCH  11   6
ATOM      1  C   UNL     1       1.429  -4.125   0.000  0.00  0.00    +0.115 C 
ATOM      2  N   UNL     1       1.429  -4.950   0.000  0.00  0.00    -0.272 N 
ATOM      3  C   UNL     1       2.143  -5.362   0.000  0.00  0.00    +0.140 C 
ATOM      6  C   UNL     1       2.143  -6.188   0.000  0.00  0.00    +0.159 C 
ATOM      7  O   UNL     1       1.429  -6.600   0.000  0.00  0.00    -0.341 OA
ATOM      8  C   UNL     1       0.715  -6.188   0.000  0.00  0.00    +0.227 C 
ATOM      9  C   UNL     1       0.715  -5.362   0.000  0.00  0.00    +0.256 C 
ATOM     10  O   UNL     1       0.000  -4.950   0.000  0.00  0.00    -0.272 OA
BRANCH   3   4
ATOM      4  C   UNL     1       2.858  -4.950   0.000  0.00  0.00    +0.205 C 
ATOM      5  O   UNL     1       3.572  -5.362   0.000  0.00  0.00    -0.218 OA
ENDBRANCH   3   4
ENDBRANCH  11   6
BRANCH  14  15
ATOM     15  N   UNL     1       5.001  -7.838   0.000  0.00  0.00    -0.175 NA
ATOM     16  C   UNL     1       5.716  -7.425   0.000  0.00  0.00    +0.269 C 
ATOM     17  O   UNL     1       5.716  -6.600   0.000  0.00  0.00    -0.268 OA
BRANCH  16  18
ATOM     18  C   UNL     1       6.430  -7.838   0.000  0.00  0.00    +0.051 A 
ATOM     19  C   UNL     1       7.145  -7.425   0.000  0.00  0.00    +0.004 A 
ATOM     20  C   UNL     1       7.859  -7.838   0.000  0.00  0.00    +0.000 A 
ATOM     21  C   UNL     1       7.859  -8.662   0.000  0.00  0.00    -0.000 A 
ATOM     22  C   UNL     1       7.145  -9.075   0.000  0.00  0.00    -0.004 A 
ATOM     23  C   UNL     1       6.430  -8.662   0.000  0.00  0.00    -0.017 A 
ATOM     24  C   UNL     1       5.716  -9.075   0.000  0.00  0.00    +0.031 C 
ENDBRANCH  16  18
ENDBRANCH  14  15
TORSDOF 4
