REMARK  Name = 
REMARK  7 active torsions:
REMARK  status: ('A' for Active; 'I' for Inactive)
REMARK    1  A    between atoms: C_2  and  C_3
REMARK    2  A    between atoms: C_3  and  C_4
REMARK    3  A    between atoms: C_9  and  C_10
REMARK    4  A    between atoms: C_10  and  C_11
REMARK    5  A    between atoms: C_14  and  C_16
REMARK    6  A    between atoms: N_22  and  C_23
REMARK    7  A    between atoms: C_23  and  C_24
REMARK                            x       y       z     vdW  Elec       q    Type
REMARK                         _______ _______ _______ _____ _____    ______ ____
ROOT
ATOM      4  C   UNL     1       4.067   4.823   0.000  0.00  0.00    +0.012 C 
ATOM      5  C   UNL     1       3.352   4.410   0.000  0.00  0.00    +0.019 C 
ATOM      6  C   UNL     1       2.638   4.823   0.000  0.00  0.00    +0.089 C 
ATOM      7  N   UNL     1       2.638   5.648   0.000  0.00  0.00    -0.218 NA
ATOM      8  C   UNL     1       3.352   6.060   0.000  0.00  0.00    +0.089 C 
ATOM      9  C   UNL     1       4.067   5.648   0.000  0.00  0.00    +0.024 C 
ENDROOT
BRANCH   4   3
ATOM      3  C   UNL     1       4.781   4.410   0.000  0.00  0.00    +0.087 C 
BRANCH   3   2
ATOM      1  O   UNL     1       5.496   3.173   0.000  0.00  0.00    -0.273 OA
ATOM      2  C   UNL     1       4.781   3.585   0.000  0.00  0.00    +0.242 C 
ATOM     22  N   UNL     1       4.067   3.173   0.000  0.00  0.00    -0.201 NA
BRANCH  22  23
ATOM     23  C   UNL     1       4.067   2.348   0.000  0.00  0.00    +0.142 C 
BRANCH  23  24
ATOM     24  C   UNL     1       3.352   1.935   0.000  0.00  0.00    +0.003 A 
ATOM     25  C   UNL     1       3.352   1.110   0.000  0.00  0.00    +0.001 A 
ATOM     26  C   UNL     1       2.638   0.698   0.000  0.00  0.00    +0.040 A 
ATOM     27  C   UNL     1       1.923   1.110   0.000  0.00  0.00    +0.176 A 
ATOM     28  O   UNL     1       1.139   0.856   0.000  0.00  0.00    -0.435 OA
ATOM     29  C   UNL     1       0.654   1.523   0.000  0.00  0.00    +0.429 C 
ATOM     30  O   UNL     1       1.139   2.190   0.000  0.00  0.00    -0.435 OA
ATOM     31  C   UNL     1       1.923   1.935   0.000  0.00  0.00    +0.176 A 
ATOM     32  C   UNL     1       2.638   2.348   0.000  0.00  0.00    +0.038 A 
ENDBRANCH  23  24
ENDBRANCH  22  23
ENDBRANCH   3   2
ENDBRANCH   4   3
BRANCH   9  10
ATOM     10  C   UNL     1       4.781   6.060   0.000  0.00  0.00    +0.051 C 
BRANCH  10  11
ATOM     11  C   UNL     1       4.781   6.885   0.000  0.00  0.00    +0.101 A 
ATOM     12  N   UNL     1       4.114   7.370   0.000  0.00  0.00    -0.081 NA
ATOM     13  O   UNL     1       4.369   8.155   0.000  0.00  0.00    -0.354 OA
ATOM     14  C   UNL     1       5.194   8.155   0.000  0.00  0.00    +0.177 A 
ATOM     15  C   UNL     1       5.449   7.370   0.000  0.00  0.00    +0.058 A 
BRANCH  14  16
ATOM     16  C   UNL     1       5.679   8.822   0.000  0.00  0.00    +0.037 A 
ATOM     17  C   UNL     1       5.343   9.576   0.000  0.00  0.00    +0.003 A 
ATOM     18  C   UNL     1       5.828  10.243   0.000  0.00  0.00    +0.000 A 
ATOM     19  C   UNL     1       6.649  10.157   0.000  0.00  0.00    +0.000 A 
ATOM     20  C   UNL     1       6.984   9.404   0.000  0.00  0.00    +0.000 A 
ATOM     21  C   UNL     1       6.499   8.736   0.000  0.00  0.00    +0.003 A 
ENDBRANCH  14  16
ENDBRANCH  10  11
ENDBRANCH   9  10
TORSDOF 7
