REMARK  Name = 
REMARK  14 active torsions:
REMARK  status: ('A' for Active; 'I' for Inactive)
REMARK    1  A    between atoms: S_2  and  C_3
REMARK    2  A    between atoms: C_3  and  C_4
REMARK    3  A    between atoms: N_6  and  C_7
REMARK    4  A    between atoms: C_7  and  C_8
REMARK    5  A    between atoms: C_8  and  C_9
REMARK    6  A    between atoms: C_9  and  C_10
REMARK    7  A    between atoms: C_10  and  N_11
REMARK    8  A    between atoms: C_10  and  C_31
REMARK    9  A    between atoms: C_12  and  C_14
REMARK   10  A    between atoms: C_15  and  N_24
REMARK   11  A    between atoms: C_19  and  C_21
REMARK   12  A    between atoms: C_21  and  S_22
REMARK   13  A    between atoms: N_27  and  C_28
REMARK   14  A    between atoms: C_28  and  C_29
REMARK                            x       y       z     vdW  Elec       q    Type
REMARK                         _______ _______ _______ _____ _____    ______ ____
ROOT
ATOM     14  C   UNL     1       9.873  -5.535   0.000  0.00  0.00    +0.174 C 
ATOM     15  C   UNL     1      10.524  -5.028   0.000  0.00  0.00    +0.126 C 
ATOM     16  C   UNL     1      11.207  -5.490   0.000  0.00  0.00    +0.045 C 
ATOM     17  C   UNL     1      10.978  -6.283   0.000  0.00  0.00    +0.096 C 
ATOM     18  N   UNL     1      10.154  -6.310   0.000  0.00  0.00    -0.271 N 
ATOM     19  C   UNL     1       9.691  -6.993   0.000  0.00  0.00    +0.237 C 
ATOM     20  O   UNL     1       8.868  -6.934   0.000  0.00  0.00    -0.274 OA
ENDROOT
BRANCH  15  24
ATOM     24  N   UNL     1      10.497  -4.203   0.000  0.00  0.00    -0.187 NA
ATOM     25  C   UNL     1      11.197  -3.767   0.000  0.00  0.00    +0.340 C 
ATOM     26  O   UNL     1      11.170  -2.943   0.000  0.00  0.00    -0.249 OA
ATOM     27  N   UNL     1      11.925  -4.156   0.000  0.00  0.00    -0.182 NA
BRANCH  27  28
ATOM     28  C   UNL     1      12.625  -3.720   0.000  0.00  0.00    +0.143 C 
BRANCH  28  29
ATOM     29  C   UNL     1      13.353  -4.109   0.000  0.00  0.00    -0.003 C 
ATOM     30  C   UNL     1      13.380  -4.933   0.000  0.00  0.00    -0.003 C 
ENDBRANCH  28  29
ENDBRANCH  27  28
ENDBRANCH  15  24
BRANCH  14  12
ATOM     11  N   UNL     1       8.882  -4.505   0.000  0.00  0.00    -0.196 NA
ATOM     12  C   UNL     1       9.080  -5.306   0.000  0.00  0.00    +0.262 C 
ATOM     13  O   UNL     1       8.486  -5.878   0.000  0.00  0.00    -0.271 OA
BRANCH  11  10
ATOM     10  C   UNL     1       8.089  -4.276   0.000  0.00  0.00    +0.174 C 
BRANCH  10  31
ATOM     31  C   UNL     1       7.891  -3.475   0.000  0.00  0.00    +0.281 C 
ATOM     32  N   UNL     1       8.486  -2.903   0.000  0.00  0.00    -0.086 NA
ATOM     33  O   UNL     1       7.099  -3.246   0.000  0.00  0.00    -0.270 OA
ENDBRANCH  10  31
BRANCH  10   9
ATOM      9  C   UNL     1       7.495  -4.848   0.000  0.00  0.00    +0.033 C 
BRANCH   9   8
ATOM      8  C   UNL     1       6.702  -4.619   0.000  0.00  0.00    +0.026 C 
BRANCH   8   7
ATOM      7  C   UNL     1       6.108  -5.191   0.000  0.00  0.00    +0.115 C 
BRANCH   7   6
ATOM      4  C   UNL     1       4.721  -5.535   0.000  0.00  0.00    +0.252 C 
ATOM      5  O   UNL     1       4.919  -6.335   0.000  0.00  0.00    -0.272 OA
ATOM      6  N   UNL     1       5.315  -4.963   0.000  0.00  0.00    -0.205 NA
BRANCH   4   3
ATOM      3  C   UNL     1       3.928  -5.306   0.000  0.00  0.00    +0.144 C 
BRANCH   3   2
ATOM      1  C   UNL     1       2.541  -5.649   0.000  0.00  0.00    +0.070 C 
ATOM      2  S   UNL     1       3.334  -5.878   0.000  0.00  0.00    -0.130 S 
ENDBRANCH   3   2
ENDBRANCH   4   3
ENDBRANCH   7   6
ENDBRANCH   8   7
ENDBRANCH   9   8
ENDBRANCH  10   9
ENDBRANCH  11  10
ENDBRANCH  14  12
BRANCH  19  21
ATOM     21  C   UNL     1      10.052  -7.736   0.000  0.00  0.00    +0.143 C 
BRANCH  21  22
ATOM     22  S   UNL     1      10.874  -7.795   0.000  0.00  0.00    -0.130 S 
ATOM     23  C   UNL     1      11.235  -8.537   0.000  0.00  0.00    +0.070 C 
ENDBRANCH  21  22
ENDBRANCH  19  21
TORSDOF 14
