REMARK  Name = 
REMARK  6 active torsions:
REMARK  status: ('A' for Active; 'I' for Inactive)
REMARK    1  A    between atoms: N_2  and  C_4
REMARK    2  A    between atoms: C_7  and  C_10
REMARK    3  A    between atoms: N_12  and  C_13
REMARK    4  A    between atoms: C_13  and  C_14
REMARK    5  A    between atoms: C_21  and  C_22
REMARK    6  A    between atoms: C_22  and  N_23
REMARK                            x       y       z     vdW  Elec       q    Type
REMARK                         _______ _______ _______ _____ _____    ______ ____
ROOT
ATOM     14  C   UNL     1       3.841   2.102   0.000  0.00  0.00    +0.079 C 
ATOM     15  C   UNL     1       4.248   1.439   0.000  0.00  0.00    +0.018 C 
ATOM     16  C   UNL     1       3.933   0.693   0.000  0.00  0.00    +0.006 C 
ATOM     17  C   UNL     1       4.570   0.062   0.000  0.00  0.00    +0.017 C 
ATOM     18  C   UNL     1       4.337   0.672   0.000  0.00  0.00    +0.072 C 
ATOM     19  N   UNL     1       3.528   1.339   0.000  0.00  0.00    -0.272 NA
ATOM     20  C   UNL     1       2.669   1.031   0.000  0.00  0.00    +0.074 C 
ATOM     21  C   UNL     1       3.104   0.404   0.000  0.00  0.00    +0.036 C 
ENDROOT
BRANCH  14  13
ATOM     13  C   UNL     1       3.774   2.924   0.000  0.00  0.00    +0.131 C 
BRANCH  13  12
ATOM     10  C   UNL     1       2.962   4.100   0.000  0.00  0.00    +0.265 C 
ATOM     11  O   UNL     1       3.641   4.569   0.000  0.00  0.00    -0.268 OA
ATOM     12  N   UNL     1       3.029   3.278   0.000  0.00  0.00    -0.200 NA
BRANCH  10   7
ATOM      4  C   UNL     1       0.725   5.160   0.000  0.00  0.00    +0.048 A 
ATOM      5  C   UNL     1       1.404   5.629   0.000  0.00  0.00    +0.015 A 
ATOM      6  C   UNL     1       2.150   5.276   0.000  0.00  0.00    +0.006 A 
ATOM      7  C   UNL     1       2.216   4.453   0.000  0.00  0.00    +0.055 A 
ATOM      8  C   UNL     1       1.538   3.984   0.000  0.00  0.00    +0.006 A 
ATOM      9  C   UNL     1       0.792   4.338   0.000  0.00  0.00    +0.015 A 
BRANCH   4   2
ATOM      1  C   UNL     1      -0.699   5.045   0.000  0.00  0.00    +0.112 C 
ATOM      2  N   UNL     1      -0.020   5.513   0.000  0.00  0.00    -0.304 N 
ATOM      3  C   UNL     1      -0.087   6.336   0.000  0.00  0.00    +0.112 C 
ENDBRANCH   4   2
ENDBRANCH  10   7
ENDBRANCH  13  12
ENDBRANCH  14  13
BRANCH  21  22
ATOM     22  C   UNL     1       2.849  -0.381   0.000  0.00  0.00    +0.092 C 
BRANCH  22  23
ATOM     23  N   UNL     1       2.042  -0.552   0.000  0.00  0.00    -0.307 N 
ATOM     24  C   UNL     1       1.706  -1.306   0.000  0.00  0.00    +0.095 C 
ATOM     25  C   UNL     1       0.886  -1.220   0.000  0.00  0.00    +0.049 C 
ATOM     26  C   UNL     1       0.715  -0.412   0.000  0.00  0.00    -0.007 A 
ATOM     27  C   UNL     1       0.000   0.000   0.000  0.00  0.00    -0.003 A 
ATOM     28  C   UNL     1       0.000   0.825   0.000  0.00  0.00    -0.000 A 
ATOM     29  C   UNL     1       0.715   1.238   0.000  0.00  0.00    +0.001 A 
ATOM     30  C   UNL     1       1.429   0.825   0.000  0.00  0.00    +0.014 A 
ATOM     31  C   UNL     1       1.429   0.000   0.000  0.00  0.00    +0.044 A 
ENDBRANCH  22  23
ENDBRANCH  21  22
TORSDOF 6
