REMARK  Name = 
REMARK  8 active torsions:
REMARK  status: ('A' for Active; 'I' for Inactive)
REMARK    1  A    between atoms: C_3  and  C_4
REMARK    2  A    between atoms: C_4  and  N_5
REMARK    3  A    between atoms: C_7  and  C_8
REMARK    4  A    between atoms: C_8  and  S_9
REMARK    5  A    between atoms: S_9  and  C_10
REMARK    6  A    between atoms: C_19  and  C_20
REMARK    7  A    between atoms: C_20  and  C_21
REMARK    8  A    between atoms: N_26  and  C_29
REMARK                            x       y       z     vdW  Elec       q    Type
REMARK                         _______ _______ _______ _____ _____    ______ ____
ROOT
ATOM      1  O   UNL     1       1.429  -4.125   0.000  0.00  0.00    -0.218 OA
ATOM      2  C   UNL     1       1.429  -4.950   0.000  0.00  0.00    +0.213 C 
ATOM      3  C   UNL     1       2.096  -5.435   0.000  0.00  0.00    +0.172 C 
ATOM     18  O   UNL     1       1.841  -6.220   0.000  0.00  0.00    -0.351 OA
ATOM     19  C   UNL     1       1.016  -6.220   0.000  0.00  0.00    +0.157 C 
ATOM     36  C   UNL     1       0.761  -5.435   0.000  0.00  0.00    +0.212 C 
ATOM     37  O   UNL     1      -0.023  -5.180   0.000  0.00  0.00    -0.218 OA
ENDROOT
BRANCH   3   4
ATOM      4  C   UNL     1       2.881  -5.180   0.000  0.00  0.00    +0.161 C 
BRANCH   4   5
ATOM      5  N   UNL     1       3.053  -4.373   0.000  0.00  0.00    -0.228 N 
ATOM      6  C   UNL     1       2.501  -3.760   0.000  0.00  0.00    +0.114 A 
ATOM      7  C   UNL     1       2.913  -3.045   0.000  0.00  0.00    +0.112 A 
ATOM     16  N   UNL     1       3.720  -3.217   0.000  0.00  0.00    -0.132 NA
ATOM     17  N   UNL     1       3.806  -4.037   0.000  0.00  0.00    -0.064 NA
BRANCH   7   8
ATOM      8  C   UNL     1       2.577  -2.292   0.000  0.00  0.00    +0.111 C 
BRANCH   8   9
ATOM      9  S   UNL     1       3.062  -1.624   0.000  0.00  0.00    -0.107 S 
BRANCH   9  10
ATOM     10  C   UNL     1       2.727  -0.871   0.000  0.00  0.00    +0.026 A 
ATOM     11  C   UNL     1       1.906  -0.784   0.000  0.00  0.00    +0.006 A 
ATOM     12  C   UNL     1       1.571  -0.031   0.000  0.00  0.00    +0.001 A 
ATOM     13  C   UNL     1       2.056   0.637   0.000  0.00  0.00    +0.000 A 
ATOM     14  C   UNL     1       2.876   0.550   0.000  0.00  0.00    +0.001 A 
ATOM     15  C   UNL     1       3.212  -0.203   0.000  0.00  0.00    +0.006 A 
ENDBRANCH   9  10
ENDBRANCH   8   9
ENDBRANCH   7   8
ENDBRANCH   4   5
ENDBRANCH   3   4
BRANCH  19  20
ATOM     20  C   UNL     1       0.531  -6.887   0.000  0.00  0.00    +0.117 C 
BRANCH  20  21
ATOM     21  C   UNL     1       0.867  -7.641   0.000  0.00  0.00    +0.228 C 
ATOM     22  O   UNL     1       1.688  -7.727   0.000  0.00  0.00    -0.275 OA
ATOM     23  N   UNL     1       0.382  -8.308   0.000  0.00  0.00    -0.276 N 
ATOM     24  C   UNL     1       0.718  -9.062   0.000  0.00  0.00    +0.115 C 
ATOM     25  C   UNL     1       0.233  -9.729   0.000  0.00  0.00    +0.112 C 
ATOM     26  N   UNL     1      -0.588  -9.643   0.000  0.00  0.00    -0.304 N 
ATOM     27  C   UNL     1      -0.923  -8.889   0.000  0.00  0.00    +0.112 C 
ATOM     28  C   UNL     1      -0.438  -8.222   0.000  0.00  0.00    +0.115 C 
BRANCH  26  29
ATOM     29  C   UNL     1      -1.073 -10.310   0.000  0.00  0.00    +0.048 A 
ATOM     30  C   UNL     1      -0.737 -11.064   0.000  0.00  0.00    +0.017 A 
ATOM     31  C   UNL     1      -1.222 -11.732   0.000  0.00  0.00    +0.031 A 
ATOM     32  C   UNL     1      -2.042 -11.645   0.000  0.00  0.00    +0.140 A 
ATOM     33  F   UNL     1      -2.527 -12.313   0.000  0.00  0.00    -0.204 F 
ATOM     34  C   UNL     1      -2.378 -10.892   0.000  0.00  0.00    +0.031 A 
ATOM     35  C   UNL     1      -1.893 -10.224   0.000  0.00  0.00    +0.017 A 
ENDBRANCH  26  29
ENDBRANCH  20  21
ENDBRANCH  19  20
TORSDOF 8
