REMARK  Name = 
REMARK  7 active torsions:
REMARK  status: ('A' for Active; 'I' for Inactive)
REMARK    1  A    between atoms: O_2  and  C_3
REMARK    2  A    between atoms: C_6  and  N_7
REMARK    3  A    between atoms: C_8  and  O_10
REMARK    4  A    between atoms: O_10  and  C_11
REMARK    5  A    between atoms: C_16  and  C_17
REMARK    6  A    between atoms: C_17  and  C_18
REMARK    7  A    between atoms: C_31  and  C_33
REMARK                            x       y       z     vdW  Elec       q    Type
REMARK                         _______ _______ _______ _____ _____    ______ ____
ROOT
ATOM     11  C   UNL     1       0.715  -1.238   0.000  0.00  0.00    +0.173 C 
ATOM     12  C   UNL     1       0.715  -0.412   0.000  0.00  0.00    +0.044 C 
ATOM     13  C   UNL     1       1.429   0.000   0.000  0.00  0.00    +0.004 C 
ATOM     14  C   UNL     1       2.143  -0.412   0.000  0.00  0.00    +0.003 C 
ATOM     15  C   UNL     1       2.143   0.412   0.000  0.00  0.00    +0.000 C 
ATOM     16  C   UNL     1       2.858   0.000   0.000  0.00  0.00    +0.040 C 
ATOM     26  C   UNL     1       3.572  -0.412   0.000  0.00  0.00    +0.152 C 
ATOM     27  O   UNL     1       4.287   0.000   0.000  0.00  0.00    -0.223 OA
ATOM     28  C   UNL     1       3.572  -1.238   0.000  0.00  0.00    +0.033 C 
ATOM     29  C   UNL     1       2.858  -1.650   0.000  0.00  0.00    +0.003 C 
ATOM     30  C   UNL     1       2.143  -1.238   0.000  0.00  0.00    +0.006 C 
ATOM     31  C   UNL     1       1.429  -1.650   0.000  0.00  0.00    +0.068 C 
ATOM     32  C   UNL     1       1.816  -2.378   0.000  0.00  0.00    +0.006 C 
ENDROOT
BRANCH  31  33
ATOM     33  C   UNL     1       1.042  -2.378   0.000  0.00  0.00    +0.185 C 
ATOM     34  O   UNL     1       0.217  -2.407   0.000  0.00  0.00    -0.220 OA
ENDBRANCH  31  33
BRANCH  11  10
ATOM     10  O   UNL     1       0.000  -1.650   0.000  0.00  0.00    -0.437 OA
BRANCH  10   8
ATOM      7  N   UNL     1      -0.715  -0.412   0.000  0.00  0.00    -0.142 NA
ATOM      8  C   UNL     1      -0.715  -1.238   0.000  0.00  0.00    +0.425 C 
ATOM      9  O   UNL     1      -1.429  -1.650   0.000  0.00  0.00    -0.224 OA
BRANCH   7   6
ATOM      3  C   UNL     1      -2.858   0.825   0.000  0.00  0.00    +0.139 A 
ATOM      4  C   UNL     1      -2.143   1.238   0.000  0.00  0.00    +0.038 A 
ATOM      5  C   UNL     1      -1.429   0.825   0.000  0.00  0.00    +0.020 A 
ATOM      6  C   UNL     1      -1.429   0.000   0.000  0.00  0.00    +0.077 A 
ATOM     35  C   UNL     1      -2.143  -0.412   0.000  0.00  0.00    +0.020 A 
ATOM     36  C   UNL     1      -2.858   0.000   0.000  0.00  0.00    +0.038 A 
BRANCH   3   2
ATOM      1  C   UNL     1      -4.287   0.825   0.000  0.00  0.00    +0.252 C 
ATOM      2  O   UNL     1      -3.572   1.238   0.000  0.00  0.00    -0.471 OA
ENDBRANCH   3   2
ENDBRANCH   7   6
ENDBRANCH  10   8
ENDBRANCH  11  10
BRANCH  16  17
ATOM     17  C   UNL     1       2.858   0.825   0.000  0.00  0.00    +0.088 C 
BRANCH  17  18
ATOM     18  C   UNL     1       3.572   1.238   0.000  0.00  0.00    +0.226 C 
ATOM     19  O   UNL     1       4.287   0.825   0.000  0.00  0.00    -0.275 OA
ATOM     20  N   UNL     1       3.572   2.062   0.000  0.00  0.00    -0.277 N 
ATOM     21  C   UNL     1       2.905   2.547   0.000  0.00  0.00    +0.096 C 
ATOM     22  C   UNL     1       3.160   3.332   0.000  0.00  0.00    +0.056 C 
ATOM     23  C   UNL     1       3.985   3.332   0.000  0.00  0.00    +0.173 C 
ATOM     24  O   UNL     1       4.470   3.999   0.000  0.00  0.00    -0.221 OA
ATOM     25  C   UNL     1       4.240   2.547   0.000  0.00  0.00    +0.126 C 
ENDBRANCH  17  18
ENDBRANCH  16  17
TORSDOF 7
