REMARK  Name = 
REMARK  3 active torsions:
REMARK  status: ('A' for Active; 'I' for Inactive)
REMARK    1  A    between atoms: C_2  and  C_5
REMARK    2  A    between atoms: C_8  and  O_9
REMARK    3  A    between atoms: O_9  and  C_10
REMARK                            x       y       z     vdW  Elec       q    Type
REMARK                         _______ _______ _______ _____ _____    ______ ____
ROOT
ATOM     10  C   UNL     1      -2.616  -1.625   0.000  0.00  0.00    +0.217 C 
ATOM     11  C   UNL     1      -3.261  -1.110   0.000  0.00  0.00    +0.187 C 
ATOM     12  O   UNL     1      -3.261  -0.285   0.000  0.00  0.00    -0.348 OA
ATOM     13  C   UNL     1      -2.616   0.229   0.000  0.00  0.00    +0.164 C 
ATOM     14  C   UNL     1      -1.811   0.045   0.000  0.00  0.00    +0.125 C 
ATOM     15  N   UNL     1      -1.453  -0.698   0.000  0.00  0.00    -0.282 N 
ATOM     16  C   UNL     1      -1.811  -1.441   0.000  0.00  0.00    +0.139 C 
ATOM     17  C   UNL     1      -0.628  -0.698   0.000  0.00  0.00    +0.163 A 
ATOM     18  N   UNL     1      -0.143  -1.365   0.000  0.00  0.00    -0.224 NA
ATOM     19  C   UNL     1       0.641  -1.110   0.000  0.00  0.00    +0.089 A 
ATOM     20  C   UNL     1       0.641  -0.285   0.000  0.00  0.00    +0.050 A 
ATOM     21  S   UNL     1      -0.143  -0.030   0.000  0.00  0.00    -0.052 S 
ATOM     22  C   UNL     1       1.356   0.127   0.000  0.00  0.00    +0.008 A 
ATOM     23  C   UNL     1       2.070  -0.285   0.000  0.00  0.00    +0.001 A 
ATOM     24  C   UNL     1       2.070  -1.110   0.000  0.00  0.00    +0.002 A 
ATOM     25  C   UNL     1       1.356  -1.523   0.000  0.00  0.00    +0.020 A 
ENDROOT
BRANCH  10   9
ATOM      9  O   UNL     1      -2.799  -2.429   0.000  0.00  0.00    -0.460 OA
BRANCH   9   8
ATOM      5  C   UNL     1      -5.164  -3.159   0.000  0.00  0.00    +0.091 A 
ATOM      6  C   UNL     1      -4.981  -2.354   0.000  0.00  0.00    +0.106 A 
ATOM      7  N   UNL     1      -4.192  -2.111   0.000  0.00  0.00    -0.210 NA
ATOM      8  C   UNL     1      -3.588  -2.672   0.000  0.00  0.00    +0.225 A 
ATOM     26  C   UNL     1      -3.771  -3.477   0.000  0.00  0.00    +0.058 A 
ATOM     27  C   UNL     1      -4.560  -3.720   0.000  0.00  0.00    +0.010 A 
BRANCH   5   2
ATOM      1  F   UNL     1      -6.741  -3.645   0.000  0.00  0.00    -0.166 F 
ATOM      2  C   UNL     1      -5.953  -3.402   0.000  0.00  0.00    +0.420 C 
ATOM      3  F   UNL     1      -5.710  -4.190   0.000  0.00  0.00    -0.166 F 
ATOM      4  F   UNL     1      -6.196  -2.614   0.000  0.00  0.00    -0.166 F 
ENDBRANCH   5   2
ENDBRANCH   9   8
ENDBRANCH  10   9
TORSDOF 3
