REMARK  Name = 
REMARK  3 active torsions:
REMARK  status: ('A' for Active; 'I' for Inactive)
REMARK    1  A    between atoms: C_1  and  C_2
REMARK    2  A    between atoms: C_1  and  N_8
REMARK    3  A    between atoms: C_11  and  C_13
REMARK                            x       y       z     vdW  Elec       q    Type
REMARK                         _______ _______ _______ _____ _____    ______ ____
ROOT
ATOM      8  N   UNL     1      -2.723  -1.110   0.000  0.00  0.00    -0.272 NA
ATOM      9  C   UNL     1      -2.723  -0.285   0.000  0.00  0.00    +0.073 C 
ATOM     10  C   UNL     1      -1.938  -0.030   0.000  0.00  0.00    +0.026 C 
ATOM     11  C   UNL     1      -1.453  -0.698   0.000  0.00  0.00    +0.076 C 
ATOM     12  C   UNL     1      -1.938  -1.365   0.000  0.00  0.00    +0.080 C 
ENDROOT
BRANCH  11  13
ATOM     13  C   UNL     1      -0.628  -0.698   0.000  0.00  0.00    +0.142 A 
ATOM     14  N   UNL     1      -0.143  -1.365   0.000  0.00  0.00    -0.210 NA
ATOM     15  C   UNL     1       0.641  -1.110   0.000  0.00  0.00    +0.181 A 
ATOM     16  C   UNL     1       0.641  -0.285   0.000  0.00  0.00    +0.118 A 
ATOM     17  N   UNL     1      -0.143  -0.030   0.000  0.00  0.00    -0.228 NA
ATOM     18  C   UNL     1       1.356   0.127   0.000  0.00  0.00    +0.024 A 
ATOM     19  C   UNL     1       2.070  -0.285   0.000  0.00  0.00    +0.022 A 
ATOM     20  C   UNL     1       2.070  -1.110   0.000  0.00  0.00    +0.101 A 
ATOM     21  N   UNL     1       1.356  -1.523   0.000  0.00  0.00    -0.224 NA
ENDBRANCH  11  13
BRANCH   8   1
ATOM      1  C   UNL     1      -3.390  -1.595   0.000  0.00  0.00    +0.072 C 
BRANCH   1   2
ATOM      2  C   UNL     1      -4.144  -1.260   0.000  0.00  0.00    +0.016 C 
ATOM      3  C   UNL     1      -4.811  -1.745   0.000  0.00  0.00    +0.001 C 
ATOM      4  C   UNL     1      -5.565  -1.409   0.000  0.00  0.00    +0.000 C 
ATOM      5  C   UNL     1      -5.651  -0.589   0.000  0.00  0.00    +0.000 C 
ATOM      6  C   UNL     1      -4.984  -0.104   0.000  0.00  0.00    +0.000 C 
ATOM      7  C   UNL     1      -4.230  -0.439   0.000  0.00  0.00    +0.001 C 
ENDBRANCH   1   2
ENDBRANCH   8   1
TORSDOF 3
