REMARK  Name = 
REMARK  4 active torsions:
REMARK  status: ('A' for Active; 'I' for Inactive)
REMARK    1  A    between atoms: O_2  and  C_3
REMARK    2  A    between atoms: C_6  and  C_9
REMARK    3  A    between atoms: C_16  and  O_18
REMARK    4  A    between atoms: O_18  and  C_19
REMARK                            x       y       z     vdW  Elec       q    Type
REMARK                         _______ _______ _______ _____ _____    ______ ____
ROOT
ATOM      9  C   UNL     1      -1.115  -3.455   0.000  0.00  0.00    +0.249 C 
ATOM     10  O   UNL     1      -1.830  -3.868   0.000  0.00  0.00    -0.270 OA
ATOM     11  N   UNL     1      -0.401  -3.868   0.000  0.00  0.00    -0.270 N 
ATOM     12  C   UNL     1       0.281  -3.403   0.000  0.00  0.00    +0.126 C 
ATOM     13  C   UNL     1       1.069  -3.646   0.000  0.00  0.00    +0.164 C 
ATOM     14  O   UNL     1       1.371  -4.414   0.000  0.00  0.00    -0.348 OA
ATOM     15  C   UNL     1       0.958  -5.128   0.000  0.00  0.00    +0.187 C 
ATOM     16  C   UNL     1       0.142  -5.251   0.000  0.00  0.00    +0.217 C 
ATOM     17  C   UNL     1      -0.462  -4.690   0.000  0.00  0.00    +0.140 C 
ENDROOT
BRANCH   9   6
ATOM      3  C   UNL     1      -1.115  -0.980   0.000  0.00  0.00    +0.139 A 
ATOM      4  C   UNL     1      -0.401  -1.393   0.000  0.00  0.00    +0.037 A 
ATOM      5  C   UNL     1      -0.401  -2.217   0.000  0.00  0.00    +0.008 A 
ATOM      6  C   UNL     1      -1.115  -2.630   0.000  0.00  0.00    +0.054 A 
ATOM      7  C   UNL     1      -1.830  -2.217   0.000  0.00  0.00    +0.008 A 
ATOM      8  C   UNL     1      -1.830  -1.393   0.000  0.00  0.00    +0.037 A 
BRANCH   3   2
ATOM      1  C   UNL     1      -1.830   0.258   0.000  0.00  0.00    +0.252 C 
ATOM      2  O   UNL     1      -1.115  -0.155   0.000  0.00  0.00    -0.471 OA
ENDBRANCH   3   2
ENDBRANCH   9   6
BRANCH  16  18
ATOM     18  O   UNL     1      -0.101  -6.040   0.000  0.00  0.00    -0.459 OA
BRANCH  18  19
ATOM     19  C   UNL     1      -0.905  -6.223   0.000  0.00  0.00    +0.245 A 
ATOM     20  C   UNL     1      -1.148  -7.012   0.000  0.00  0.00    +0.156 A 
ATOM     21  N   UNL     1      -1.953  -7.195   0.000  0.00  0.00    -0.236 NA
ATOM     22  C   UNL     1      -2.514  -6.590   0.000  0.00  0.00    +0.120 A 
ATOM     23  C   UNL     1      -2.271  -5.802   0.000  0.00  0.00    +0.123 A 
ATOM     24  N   UNL     1      -1.466  -5.619   0.000  0.00  0.00    -0.207 NA
ENDBRANCH  18  19
ENDBRANCH  16  18
TORSDOF 4
