REMARK  Name = 
REMARK  6 active torsions:
REMARK  status: ('A' for Active; 'I' for Inactive)
REMARK    1  A    between atoms: C_4  and  C_13
REMARK    2  A    between atoms: N_5  and  C_6
REMARK    3  A    between atoms: C_6  and  C_7
REMARK    4  A    between atoms: C_15  and  C_18
REMARK    5  A    between atoms: C_21  and  O_22
REMARK    6  A    between atoms: O_22  and  C_23
REMARK                            x       y       z     vdW  Elec       q    Type
REMARK                         _______ _______ _______ _____ _____    ______ ____
ROOT
ATOM     13  C   UNL     1       0.302  -4.977   0.000  0.00  0.00    +0.251 A 
ATOM     14  N   UNL     1       1.127  -4.977   0.000  0.00  0.00    -0.190 NA
ATOM     15  C   UNL     1       1.382  -5.762   0.000  0.00  0.00    +0.203 A 
ATOM     16  N   UNL     1       0.715  -6.247   0.000  0.00  0.00    -0.056 NA
ATOM     17  O   UNL     1       0.047  -5.762   0.000  0.00  0.00    -0.336 OA
ENDROOT
BRANCH  13   4
ATOM      1  O   UNL     1      -0.596  -2.216   0.000  0.00  0.00    -0.222 OA
ATOM      2  C   UNL     1      -0.596  -3.041   0.000  0.00  0.00    +0.170 C 
ATOM      3  C   UNL     1       0.072  -3.525   0.000  0.00  0.00    +0.060 C 
ATOM      4  C   UNL     1      -0.183  -4.310   0.000  0.00  0.00    +0.141 C 
ATOM      5  N   UNL     1      -1.008  -4.310   0.000  0.00  0.00    -0.258 NA
ATOM     12  C   UNL     1      -1.263  -3.525   0.000  0.00  0.00    +0.106 C 
BRANCH   5   6
ATOM      6  C   UNL     1      -1.493  -4.977   0.000  0.00  0.00    +0.139 C 
BRANCH   6   7
ATOM      7  C   UNL     1      -2.313  -4.891   0.000  0.00  0.00    +0.155 A 
ATOM      8  N   UNL     1      -2.865  -5.504   0.000  0.00  0.00    -0.226 NA
ATOM      9  C   UNL     1      -3.619  -5.169   0.000  0.00  0.00    +0.121 A 
ATOM     10  C   UNL     1      -3.533  -4.348   0.000  0.00  0.00    +0.121 A 
ATOM     11  N   UNL     1      -2.726  -4.177   0.000  0.00  0.00    -0.226 NA
ENDBRANCH   6   7
ENDBRANCH   5   6
ENDBRANCH  13   4
BRANCH  15  18
ATOM     18  C   UNL     1       2.167  -6.017   0.000  0.00  0.00    +0.039 A 
ATOM     19  C   UNL     1       2.780  -5.465   0.000  0.00  0.00    +0.006 A 
ATOM     20  C   UNL     1       3.564  -5.720   0.000  0.00  0.00    +0.037 A 
ATOM     21  C   UNL     1       3.736  -6.527   0.000  0.00  0.00    +0.147 A 
ATOM     27  C   UNL     1       3.123  -7.079   0.000  0.00  0.00    +0.037 A 
ATOM     28  C   UNL     1       2.338  -6.824   0.000  0.00  0.00    +0.006 A 
BRANCH  21  22
ATOM     22  O   UNL     1       4.520  -6.782   0.000  0.00  0.00    -0.404 OA
BRANCH  22  23
ATOM     23  C   UNL     1       5.133  -6.230   0.000  0.00  0.00    +0.575 C 
ATOM     24  F   UNL     1       5.747  -5.678   0.000  0.00  0.00    -0.133 F 
ATOM     25  F   UNL     1       5.686  -6.843   0.000  0.00  0.00    -0.133 F 
ATOM     26  F   UNL     1       4.582  -5.617   0.000  0.00  0.00    -0.133 F 
ENDBRANCH  22  23
ENDBRANCH  21  22
ENDBRANCH  15  18
TORSDOF 6
