REMARK  Name = 
REMARK  6 active torsions:
REMARK  status: ('A' for Active; 'I' for Inactive)
REMARK    1  A    between atoms: O_2  and  C_3
REMARK    2  A    between atoms: C_6  and  C_11
REMARK    3  A    between atoms: C_7  and  O_8
REMARK    4  A    between atoms: C_20  and  N_26
REMARK    5  A    between atoms: C_29  and  C_30
REMARK    6  A    between atoms: C_33  and  C_34
REMARK                            x       y       z     vdW  Elec       q    Type
REMARK                         _______ _______ _______ _____ _____    ______ ____
ROOT
ATOM     11  C   UNL     1       5.940   1.655   0.000  0.00  0.00    +0.003 A 
ATOM     12  C   UNL     1       5.152   1.899   0.000  0.00  0.00    +0.006 A 
ATOM     13  C   UNL     1       4.547   1.337   0.000  0.00  0.00    +0.069 A 
ATOM     14  C   UNL     1       4.731   0.533   0.000  0.00  0.00    +0.078 A 
ATOM     15  N   UNL     1       4.216  -0.112   0.000  0.00  0.00    -0.178 NA
ATOM     16  C   UNL     1       3.391  -0.112   0.000  0.00  0.00    +0.264 C 
ATOM     17  O   UNL     1       3.033  -0.855   0.000  0.00  0.00    -0.271 OA
ATOM     18  C   UNL     1       2.877   0.533   0.000  0.00  0.00    +0.156 C 
ATOM     19  C   UNL     1       2.088   0.290   0.000  0.00  0.00    +0.054 C 
ATOM     20  C   UNL     1       1.484   0.851   0.000  0.00  0.00    +0.111 C 
ATOM     21  C   UNL     1       1.667   1.655   0.000  0.00  0.00    +0.046 C 
ATOM     22  C   UNL     1       2.456   1.899   0.000  0.00  0.00    +0.096 C 
ATOM     23  N   UNL     1       3.060   1.337   0.000  0.00  0.00    -0.269 N 
ATOM     24  C   UNL     1       3.804   1.695   0.000  0.00  0.00    +0.251 C 
ATOM     25  O   UNL     1       3.804   2.520   0.000  0.00  0.00    -0.270 OA
ATOM     37  C   UNL     1       5.519   0.290   0.000  0.00  0.00    +0.017 A 
ATOM     38  C   UNL     1       6.124   0.851   0.000  0.00  0.00    +0.001 A 
ENDROOT
BRANCH  11   6
ATOM      3  C   UNL     1       7.754   3.339   0.000  0.00  0.00    +0.142 A 
ATOM      4  C   UNL     1       7.938   2.534   0.000  0.00  0.00    +0.037 A 
ATOM      5  C   UNL     1       7.333   1.973   0.000  0.00  0.00    +0.006 A 
ATOM      6  C   UNL     1       6.545   2.216   0.000  0.00  0.00    +0.034 A 
ATOM      7  C   UNL     1       6.361   3.021   0.000  0.00  0.00    +0.142 A 
ATOM     10  C   UNL     1       6.966   3.582   0.000  0.00  0.00    +0.074 A 
BRANCH   3   2
ATOM      1  C   UNL     1       8.176   4.704   0.000  0.00  0.00    +0.252 C 
ATOM      2  O   UNL     1       8.359   3.900   0.000  0.00  0.00    -0.471 OA
ENDBRANCH   3   2
BRANCH   7   8
ATOM      8  O   UNL     1       5.573   3.264   0.000  0.00  0.00    -0.471 OA
ATOM      9  C   UNL     1       5.389   4.068   0.000  0.00  0.00    +0.252 C 
ENDBRANCH   7   8
ENDBRANCH  11   6
BRANCH  20  26
ATOM     26  N   UNL     1       0.695   0.608   0.000  0.00  0.00    -0.229 N 
ATOM     27  N   UNL     1       0.429  -0.173   0.000  0.00  0.00    -0.064 NA
ATOM     28  N   UNL     1      -0.396  -0.161   0.000  0.00  0.00    -0.124 NA
ATOM     29  C   UNL     1      -0.639   0.628   0.000  0.00  0.00    +0.183 A 
ATOM     33  C   UNL     1       0.035   1.103   0.000  0.00  0.00    +0.160 A 
BRANCH  29  30
ATOM     30  C   UNL     1      -1.420   0.894   0.000  0.00  0.00    +0.305 C 
ATOM     31  N   UNL     1      -2.041   0.352   0.000  0.00  0.00    -0.082 NA
ATOM     32  O   UNL     1      -1.580   1.704   0.000  0.00  0.00    -0.265 OA
ENDBRANCH  29  30
BRANCH  33  34
ATOM     34  C   UNL     1       0.048   1.928   0.000  0.00  0.00    +0.303 C 
ATOM     35  N   UNL     1       0.768   2.329   0.000  0.00  0.00    -0.082 NA
ATOM     36  O   UNL     1      -0.661   2.351   0.000  0.00  0.00    -0.265 OA
ENDBRANCH  33  34
ENDBRANCH  20  26
TORSDOF 6
