REMARK  Name = 
REMARK  4 active torsions:
REMARK  status: ('A' for Active; 'I' for Inactive)
REMARK    1  A    between atoms: C_2  and  N_4
REMARK    2  A    between atoms: C_8  and  C_9
REMARK    3  A    between atoms: C_11  and  C_14
REMARK    4  A    between atoms: C_17  and  C_20
REMARK                            x       y       z     vdW  Elec       q    Type
REMARK                         _______ _______ _______ _____ _____    ______ ____
ROOT
ATOM      9  C   UNL     1      -2.047  -5.745   0.000  0.00  0.00    +0.251 A 
ATOM     10  N   UNL     1      -2.715  -6.230   0.000  0.00  0.00    -0.190 NA
ATOM     11  C   UNL     1      -3.382  -5.745   0.000  0.00  0.00    +0.205 A 
ATOM     12  N   UNL     1      -3.127  -4.961   0.000  0.00  0.00    -0.056 NA
ATOM     13  O   UNL     1      -2.303  -4.961   0.000  0.00  0.00    -0.336 OA
ENDROOT
BRANCH  11  14
ATOM     14  C   UNL     1      -4.167  -6.000   0.000  0.00  0.00    +0.058 A 
ATOM     15  C   UNL     1      -4.338  -6.807   0.000  0.00  0.00    +0.006 A 
ATOM     16  C   UNL     1      -5.123  -7.062   0.000  0.00  0.00    +0.019 A 
ATOM     17  C   UNL     1      -5.736  -6.510   0.000  0.00  0.00    +0.084 A 
ATOM     18  N   UNL     1      -5.565  -5.703   0.000  0.00  0.00    -0.244 NA
ATOM     19  C   UNL     1      -4.780  -5.448   0.000  0.00  0.00    +0.102 A 
BRANCH  17  20
ATOM     20  C   UNL     1      -6.521  -6.765   0.000  0.00  0.00    +0.056 A 
ATOM     21  C   UNL     1      -6.692  -7.572   0.000  0.00  0.00    +0.104 A 
ATOM     22  N   UNL     1      -7.477  -7.827   0.000  0.00  0.00    -0.222 NA
ATOM     23  C   UNL     1      -8.090  -7.275   0.000  0.00  0.00    +0.199 A 
ATOM     24  N   UNL     1      -7.919  -6.468   0.000  0.00  0.00    -0.222 NA
ATOM     25  C   UNL     1      -7.134  -6.213   0.000  0.00  0.00    +0.104 A 
ENDBRANCH  17  20
ENDBRANCH  11  14
BRANCH   9   8
ATOM      4  N   UNL     1      -0.596  -5.516   0.000  0.00  0.00    -0.268 NA
ATOM      5  C   UNL     1       0.072  -6.000   0.000  0.00  0.00    +0.072 C 
ATOM      6  C   UNL     1      -0.183  -6.785   0.000  0.00  0.00    +0.019 C 
ATOM      7  C   UNL     1      -1.008  -6.785   0.000  0.00  0.00    +0.027 C 
ATOM      8  C   UNL     1      -1.263  -6.000   0.000  0.00  0.00    +0.138 C 
BRANCH   4   2
ATOM      1  C   UNL     1       0.119  -4.278   0.000  0.00  0.00    +0.017 C 
ATOM      2  C   UNL     1      -0.596  -4.691   0.000  0.00  0.00    +0.058 C 
ATOM      3  C   UNL     1      -1.310  -4.278   0.000  0.00  0.00    +0.017 C 
ENDBRANCH   4   2
ENDBRANCH   9   8
TORSDOF 4
