REMARK  Name = 
REMARK  7 active torsions:
REMARK  status: ('A' for Active; 'I' for Inactive)
REMARK    1  A    between atoms: O_2  and  C_3
REMARK    2  A    between atoms: C_3  and  C_4
REMARK    3  A    between atoms: C_9  and  C_11
REMARK    4  A    between atoms: C_11  and  C_12
REMARK    5  A    between atoms: C_14  and  C_15
REMARK    6  A    between atoms: C_15  and  N_16
REMARK    7  A    between atoms: N_19  and  C_20
REMARK                            x       y       z     vdW  Elec       q    Type
REMARK                         _______ _______ _______ _____ _____    ______ ____
ROOT
ATOM     12  C   UNL     1      -0.893  -1.483   0.000  0.00  0.00    +0.157 C 
ATOM     13  O   UNL     1      -0.086  -1.655   0.000  0.00  0.00    -0.351 OA
ATOM     14  C   UNL     1       0.000  -2.475   0.000  0.00  0.00    +0.170 C 
ATOM     27  C   UNL     1      -0.754  -2.811   0.000  0.00  0.00    +0.213 C 
ATOM     28  O   UNL     1      -0.925  -3.618   0.000  0.00  0.00    -0.218 OA
ATOM     29  C   UNL     1      -1.306  -2.197   0.000  0.00  0.00    +0.212 C 
ATOM     30  O   UNL     1      -2.126  -2.284   0.000  0.00  0.00    -0.218 OA
ENDROOT
BRANCH  12  11
ATOM     11  C   UNL     1      -1.229  -0.729   0.000  0.00  0.00    +0.117 C 
BRANCH  11   9
ATOM      4  C   UNL     1      -3.192   0.282   0.000  0.00  0.00    +0.105 C 
ATOM      5  C   UNL     1      -3.278   1.103   0.000  0.00  0.00    +0.024 C 
ATOM      6  C   UNL     1      -2.524   1.438   0.000  0.00  0.00    +0.023 C 
ATOM      7  C   UNL     1      -1.972   0.825   0.000  0.00  0.00    +0.093 C 
ATOM      8  N   UNL     1      -2.385   0.111   0.000  0.00  0.00    -0.279 N 
ATOM      9  C   UNL     1      -2.049  -0.643   0.000  0.00  0.00    +0.228 C 
ATOM     10  O   UNL     1      -2.534  -1.310   0.000  0.00  0.00    -0.275 OA
BRANCH   4   3
ATOM      3  C   UNL     1      -3.805  -0.270   0.000  0.00  0.00    +0.162 C 
BRANCH   3   2
ATOM      1  C   UNL     1      -5.203  -0.567   0.000  0.00  0.00    +0.174 C 
ATOM      2  O   UNL     1      -4.590  -0.015   0.000  0.00  0.00    -0.349 OA
ENDBRANCH   3   2
ENDBRANCH   4   3
ENDBRANCH  11   9
ENDBRANCH  12  11
BRANCH  14  15
ATOM     15  C   UNL     1       0.715  -2.888   0.000  0.00  0.00    +0.149 C 
BRANCH  15  16
ATOM     16  N   UNL     1       1.429  -2.475   0.000  0.00  0.00    -0.184 NA
ATOM     17  C   UNL     1       2.143  -2.888   0.000  0.00  0.00    +0.344 C 
ATOM     18  O   UNL     1       2.143  -3.712   0.000  0.00  0.00    -0.249 OA
ATOM     19  N   UNL     1       2.858  -2.475   0.000  0.00  0.00    -0.161 NA
BRANCH  19  20
ATOM     20  C   UNL     1       3.572  -2.888   0.000  0.00  0.00    +0.077 A 
ATOM     21  C   UNL     1       4.287  -2.475   0.000  0.00  0.00    +0.017 A 
ATOM     22  C   UNL     1       5.001  -2.888   0.000  0.00  0.00    +0.004 A 
ATOM     23  C   UNL     1       5.001  -3.712   0.000  0.00  0.00    +0.030 A 
ATOM     24  C   UNL     1       4.287  -4.125   0.000  0.00  0.00    +0.141 A 
ATOM     25  F   UNL     1       4.287  -4.950   0.000  0.00  0.00    -0.204 F 
ATOM     26  C   UNL     1       3.572  -3.712   0.000  0.00  0.00    +0.046 A 
ENDBRANCH  19  20
ENDBRANCH  15  16
ENDBRANCH  14  15
TORSDOF 7
