REMARK  Name = 
REMARK  4 active torsions:
REMARK  status: ('A' for Active; 'I' for Inactive)
REMARK    1  A    between atoms: O_2  and  C_3
REMARK    2  A    between atoms: C_3  and  C_5
REMARK    3  A    between atoms: C_12  and  C_14
REMARK    4  A    between atoms: N_17  and  C_19
REMARK                            x       y       z     vdW  Elec       q    Type
REMARK                         _______ _______ _______ _____ _____    ______ ____
ROOT
ATOM      5  C   UNL     1       3.279   1.238   0.000  0.00  0.00    +0.112 A 
ATOM      6  C   UNL     1       3.993   0.825   0.000  0.00  0.00    +0.010 A 
ATOM      7  C   UNL     1       3.993   0.000   0.000  0.00  0.00    +0.002 A 
ATOM      8  C   UNL     1       3.279  -0.412   0.000  0.00  0.00    +0.022 A 
ATOM      9  C   UNL     1       2.564   0.000   0.000  0.00  0.00    +0.119 A 
ATOM     10  C   UNL     1       2.564   0.825   0.000  0.00  0.00    +0.171 A 
ATOM     11  O   UNL     1       1.780   1.080   0.000  0.00  0.00    -0.438 OA
ATOM     12  C   UNL     1       1.295   0.412   0.000  0.00  0.00    +0.207 A 
ATOM     13  N   UNL     1       1.780  -0.255   0.000  0.00  0.00    -0.212 NA
ENDROOT
BRANCH  12  14
ATOM     14  C   UNL     1       0.470   0.412   0.000  0.00  0.00    +0.094 C 
ATOM     15  C   UNL     1      -0.015  -0.255   0.000  0.00  0.00    +0.028 C 
ATOM     16  C   UNL     1      -0.800   0.000   0.000  0.00  0.00    +0.073 C 
ATOM     17  N   UNL     1      -0.800   0.825   0.000  0.00  0.00    -0.273 NA
ATOM     18  C   UNL     1      -0.015   1.080   0.000  0.00  0.00    +0.081 C 
BRANCH  17  19
ATOM     19  C   UNL     1      -1.467   1.310   0.000  0.00  0.00    +0.063 C 
ATOM     20  C   UNL     1      -2.221   0.974   0.000  0.00  0.00    +0.048 C 
ATOM     21  C   UNL     1      -2.888   1.459   0.000  0.00  0.00    +0.144 C 
ATOM     22  O   UNL     1      -2.802   2.280   0.000  0.00  0.00    -0.354 OA
ATOM     23  C   UNL     1      -2.048   2.615   0.000  0.00  0.00    +0.144 C 
ATOM     24  C   UNL     1      -1.381   2.130   0.000  0.00  0.00    +0.048 C 
ENDBRANCH  17  19
ENDBRANCH  12  14
BRANCH   5   3
ATOM      3  C   UNL     1       3.279   2.062   0.000  0.00  0.00    +0.344 C 
ATOM      4  O   UNL     1       2.564   2.475   0.000  0.00  0.00    -0.245 OA
BRANCH   3   2
ATOM      1  C   UNL     1       3.993   3.300   0.000  0.00  0.00    +0.256 C 
ATOM      2  O   UNL     1       3.993   2.475   0.000  0.00  0.00    -0.441 OA
ENDBRANCH   3   2
ENDBRANCH   5   3
TORSDOF 4
