REMARK  Name = 
REMARK  8 active torsions:
REMARK  status: ('A' for Active; 'I' for Inactive)
REMARK    1  A    between atoms: O_2  and  C_3
REMARK    2  A    between atoms: C_3  and  C_4
REMARK    3  A    between atoms: C_4  and  N_5
REMARK    4  A    between atoms: C_6  and  C_8
REMARK    5  A    between atoms: N_12  and  C_13
REMARK    6  A    between atoms: C_13  and  C_14
REMARK    7  A    between atoms: C_22  and  C_23
REMARK    8  A    between atoms: C_23  and  C_24
REMARK                            x       y       z     vdW  Elec       q    Type
REMARK                         _______ _______ _______ _____ _____    ______ ____
ROOT
ATOM      8  C   UNL     1       6.911  -5.019   0.000  0.00  0.00    +0.155 C 
ATOM      9  C   UNL     1       7.592  -4.555   0.000  0.00  0.00    +0.055 C 
ATOM     10  C   UNL     1       8.381  -4.798   0.000  0.00  0.00    -0.002 A 
ATOM     11  C   UNL     1       9.018  -4.274   0.000  0.00  0.00    +0.072 A 
ATOM     12  N   UNL     1       9.713  -4.718   0.000  0.00  0.00    -0.322 N 
ATOM     16  C   UNL     1       9.505  -5.517   0.000  0.00  0.00    +0.060 A 
ATOM     17  C   UNL     1       8.682  -5.566   0.000  0.00  0.00    +0.011 A 
ATOM     18  C   UNL     1       8.270  -6.280   0.000  0.00  0.00    -0.005 A 
ATOM     19  C   UNL     1       8.768  -6.992   0.000  0.00  0.00    -0.003 A 
ATOM     20  C   UNL     1       9.591  -6.943   0.000  0.00  0.00    +0.001 A 
ATOM     21  C   UNL     1       9.960  -6.205   0.000  0.00  0.00    +0.017 A 
ATOM     22  C   UNL     1       7.454  -6.403   0.000  0.00  0.00    +0.095 C 
ATOM     27  N   UNL     1       6.849  -5.842   0.000  0.00  0.00    -0.207 NA
ENDROOT
BRANCH   8   6
ATOM      5  N   UNL     1       5.482  -5.019   0.000  0.00  0.00    -0.202 NA
ATOM      6  C   UNL     1       6.196  -4.607   0.000  0.00  0.00    +0.258 C 
ATOM      7  O   UNL     1       6.196  -3.782   0.000  0.00  0.00    -0.272 OA
BRANCH   5   4
ATOM      4  C   UNL     1       4.767  -4.607   0.000  0.00  0.00    +0.147 C 
BRANCH   4   3
ATOM      3  C   UNL     1       4.053  -5.019   0.000  0.00  0.00    +0.166 C 
BRANCH   3   2
ATOM      1  C   UNL     1       2.624  -5.019   0.000  0.00  0.00    +0.174 C 
ATOM      2  O   UNL     1       3.338  -4.607   0.000  0.00  0.00    -0.349 OA
ENDBRANCH   3   2
ENDBRANCH   4   3
ENDBRANCH   5   4
ENDBRANCH   8   6
BRANCH  12  13
ATOM     13  C   UNL     1      10.481  -4.417   0.000  0.00  0.00    +0.132 C 
BRANCH  13  14
ATOM     14  C   UNL     1      11.126  -4.931   0.000  0.00  0.00    -0.002 C 
ATOM     15  C   UNL     1      11.894  -4.630   0.000  0.00  0.00    -0.003 C 
ENDBRANCH  13  14
ENDBRANCH  12  13
BRANCH  22  23
ATOM     23  C   UNL     1       7.211  -7.192   0.000  0.00  0.00    +0.022 C 
BRANCH  23  24
ATOM     24  C   UNL     1       7.772  -7.796   0.000  0.00  0.00    +0.002 C 
ATOM     25  C   UNL     1       8.576  -7.613   0.000  0.00  0.00    +0.000 C 
ATOM     26  C   UNL     1       7.529  -8.585   0.000  0.00  0.00    +0.000 C 
ENDBRANCH  23  24
ENDBRANCH  22  23
TORSDOF 8
