REMARK  Name = 
REMARK  5 active torsions:
REMARK  status: ('A' for Active; 'I' for Inactive)
REMARK    1  A    between atoms: C_3  and  N_4
REMARK    2  A    between atoms: N_7  and  C_8
REMARK    3  A    between atoms: C_19  and  N_20
REMARK    4  A    between atoms: C_23  and  C_24
REMARK    5  A    between atoms: C_24  and  C_25
REMARK                            x       y       z     vdW  Elec       q    Type
REMARK                         _______ _______ _______ _____ _____    ______ ____
ROOT
ATOM      1  O   UNL     1       2.539  -2.074   0.000  0.00  0.00    -0.220 OA
ATOM      2  C   UNL     1       2.127  -1.359   0.000  0.00  0.00    +0.194 C 
ATOM      3  C   UNL     1       1.989  -0.542   0.000  0.00  0.00    +0.158 C 
ATOM     14  C   UNL     1       1.060  -0.557   0.000  0.00  0.00    +0.170 C 
ATOM     15  C   UNL     1       0.740  -1.266   0.000  0.00  0.00    +0.176 C 
ATOM     16  O   UNL     1       0.120  -1.643   0.000  0.00  0.00    -0.327 OA
ATOM     17  C   UNL     1       0.640  -0.930   0.000  0.00  0.00    +0.253 C 
ATOM     18  O   UNL     1       0.500  -0.117   0.000  0.00  0.00    -0.327 OA
ATOM     19  C   UNL     1       1.611  -0.930   0.000  0.00  0.00    +0.147 C 
ENDROOT
BRANCH  19  20
ATOM     20  N   UNL     1       1.331  -1.706   0.000  0.00  0.00    -0.268 NA
ATOM     21  C   UNL     1       1.863  -2.337   0.000  0.00  0.00    +0.072 C 
ATOM     22  C   UNL     1       1.583  -3.113   0.000  0.00  0.00    +0.018 C 
ATOM     23  C   UNL     1       0.771  -3.258   0.000  0.00  0.00    +0.007 C 
ATOM     31  C   UNL     1       0.239  -2.628   0.000  0.00  0.00    +0.018 C 
ATOM     32  C   UNL     1       0.519  -1.852   0.000  0.00  0.00    +0.072 C 
BRANCH  23  24
ATOM     24  C   UNL     1       0.490  -4.034   0.000  0.00  0.00    +0.026 C 
BRANCH  24  25
ATOM     25  C   UNL     1      -0.322  -4.180   0.000  0.00  0.00    -0.022 A 
ATOM     26  C   UNL     1      -0.602  -4.955   0.000  0.00  0.00    -0.004 A 
ATOM     27  C   UNL     1      -1.414  -5.101   0.000  0.00  0.00    -0.000 A 
ATOM     28  C   UNL     1      -1.946  -4.470   0.000  0.00  0.00    -0.000 A 
ATOM     29  C   UNL     1      -1.666  -3.694   0.000  0.00  0.00    -0.000 A 
ATOM     30  C   UNL     1      -0.854  -3.549   0.000  0.00  0.00    -0.004 A 
ENDBRANCH  24  25
ENDBRANCH  23  24
ENDBRANCH  19  20
BRANCH   3   4
ATOM      4  N   UNL     1       2.517   0.093   0.000  0.00  0.00    -0.184 NA
ATOM      5  C   UNL     1       2.231   0.867   0.000  0.00  0.00    +0.339 C 
ATOM      6  O   UNL     1       1.417   1.006   0.000  0.00  0.00    -0.249 OA
ATOM      7  N   UNL     1       2.758   1.501   0.000  0.00  0.00    -0.189 NA
BRANCH   7   8
ATOM      8  C   UNL     1       2.472   2.275   0.000  0.00  0.00    +0.097 C 
ATOM      9  C   UNL     1       1.659   2.414   0.000  0.00  0.00    +0.022 C 
ATOM     10  C   UNL     1       1.373   3.188   0.000  0.00  0.00    +0.002 C 
ATOM     11  C   UNL     1       1.900   3.823   0.000  0.00  0.00    +0.000 C 
ATOM     12  C   UNL     1       2.713   3.683   0.000  0.00  0.00    +0.002 C 
ATOM     13  C   UNL     1       2.999   2.910   0.000  0.00  0.00    +0.022 C 
ENDBRANCH   7   8
ENDBRANCH   3   4
TORSDOF 5
