REMARK  Name = 
REMARK  4 active torsions:
REMARK  status: ('A' for Active; 'I' for Inactive)
REMARK    1  A    between atoms: C_4  and  C_15
REMARK    2  A    between atoms: C_5  and  N_6
REMARK    3  A    between atoms: N_6  and  C_7
REMARK    4  A    between atoms: C_7  and  C_8
REMARK                            x       y       z     vdW  Elec       q    Type
REMARK                         _______ _______ _______ _____ _____    ______ ____
ROOT
ATOM      1  O   UNL     1       0.715  -0.412   0.000  0.00  0.00    -0.220 OA
ATOM      2  C   UNL     1       0.715  -1.238   0.000  0.00  0.00    +0.184 C 
ATOM      3  C   UNL     1       1.382  -1.722   0.000  0.00  0.00    +0.041 C 
ATOM      4  C   UNL     1       1.127  -2.507   0.000  0.00  0.00    +0.044 C 
ATOM      5  C   UNL     1       0.302  -2.507   0.000  0.00  0.00    +0.110 C 
ATOM     13  C   UNL     1       0.047  -1.722   0.000  0.00  0.00    +0.198 C 
ATOM     14  O   UNL     1      -0.738  -1.468   0.000  0.00  0.00    -0.219 OA
ENDROOT
BRANCH   4  15
ATOM     15  C   UNL     1       1.612  -3.175   0.000  0.00  0.00    -0.021 A 
ATOM     16  C   UNL     1       2.432  -3.088   0.000  0.00  0.00    -0.004 A 
ATOM     17  C   UNL     1       2.917  -3.756   0.000  0.00  0.00    -0.000 A 
ATOM     18  C   UNL     1       2.582  -4.509   0.000  0.00  0.00    -0.000 A 
ATOM     19  C   UNL     1       1.761  -4.596   0.000  0.00  0.00    -0.000 A 
ATOM     20  C   UNL     1       1.276  -3.928   0.000  0.00  0.00    -0.004 A 
ENDBRANCH   4  15
BRANCH   5   6
ATOM      6  N   UNL     1      -0.183  -3.175   0.000  0.00  0.00    -0.216 NA
BRANCH   6   7
ATOM      7  C   UNL     1      -1.003  -3.088   0.000  0.00  0.00    +0.089 C 
BRANCH   7   8
ATOM      8  C   UNL     1      -1.488  -3.756   0.000  0.00  0.00    +0.017 C 
ATOM      9  C   UNL     1      -1.233  -4.540   0.000  0.00  0.00    +0.001 C 
ATOM     10  C   UNL     1      -1.901  -5.025   0.000  0.00  0.00    +0.000 C 
ATOM     11  C   UNL     1      -2.568  -4.540   0.000  0.00  0.00    +0.000 C 
ATOM     12  C   UNL     1      -2.313  -3.756   0.000  0.00  0.00    +0.001 C 
ENDBRANCH   7   8
ENDBRANCH   6   7
ENDBRANCH   5   6
TORSDOF 4
