REMARK  Name = 
REMARK  11 active torsions:
REMARK  status: ('A' for Active; 'I' for Inactive)
REMARK    1  A    between atoms: O_2  and  C_3
REMARK    2  A    between atoms: C_3  and  C_5
REMARK    3  A    between atoms: C_8  and  C_9
REMARK    4  A    between atoms: C_9  and  N_10
REMARK    5  A    between atoms: N_10  and  C_11
REMARK    6  A    between atoms: N_10  and  C_21
REMARK    7  A    between atoms: C_11  and  C_12
REMARK    8  A    between atoms: C_15  and  C_18
REMARK    9  A    between atoms: C_24  and  C_25
REMARK   10  A    between atoms: C_25  and  N_26
REMARK   11  A    between atoms: N_26  and  S_27
REMARK                            x       y       z     vdW  Elec       q    Type
REMARK                         _______ _______ _______ _____ _____    ______ ____
ROOT
ATOM     10  N   UNL     1       2.751   0.640   0.000  0.00  0.00    -0.262 NA
ENDROOT
BRANCH  10  21
ATOM     21  C   UNL     1       2.751  -0.185   0.000  0.00  0.00    +0.121 C 
ATOM     22  C   UNL     1       3.419  -0.670   0.000  0.00  0.00    +0.161 C 
ATOM     23  O   UNL     1       3.164  -1.454   0.000  0.00  0.00    -0.351 OA
ATOM     24  C   UNL     1       2.339  -1.454   0.000  0.00  0.00    +0.166 C 
ATOM     31  C   UNL     1       2.084  -0.670   0.000  0.00  0.00    +0.197 C 
ATOM     32  O   UNL     1       1.299  -0.415   0.000  0.00  0.00    -0.219 OA
BRANCH  24  25
ATOM     25  C   UNL     1       1.854  -2.122   0.000  0.00  0.00    +0.147 C 
BRANCH  25  26
ATOM     26  N   UNL     1       2.189  -2.876   0.000  0.00  0.00    -0.079 NA
BRANCH  26  27
ATOM     27  S   UNL     1       1.704  -3.543   0.000  0.00  0.00    +0.059 S 
ATOM     28  C   UNL     1       1.037  -3.058   0.000  0.00  0.00    +0.197 C 
ATOM     29  O   UNL     1       2.372  -4.028   0.000  0.00  0.00    -0.156 OA
ATOM     30  O   UNL     1       1.220  -4.210   0.000  0.00  0.00    -0.156 OA
ENDBRANCH  26  27
ENDBRANCH  25  26
ENDBRANCH  24  25
ENDBRANCH  10  21
BRANCH  10   9
ATOM      9  C   UNL     1       2.037   1.053   0.000  0.00  0.00    +0.099 C 
BRANCH   9   8
ATOM      5  C   UNL     1       2.037   3.528   0.000  0.00  0.00    +0.076 A 
ATOM      6  C   UNL     1       2.751   3.115   0.000  0.00  0.00    +0.006 A 
ATOM      7  C   UNL     1       2.751   2.290   0.000  0.00  0.00    -0.003 A 
ATOM      8  C   UNL     1       2.037   1.878   0.000  0.00  0.00    -0.006 A 
ATOM     33  C   UNL     1       1.322   2.290   0.000  0.00  0.00    -0.003 A 
ATOM     34  C   UNL     1       1.322   3.115   0.000  0.00  0.00    +0.006 A 
BRANCH   5   3
ATOM      3  C   UNL     1       2.037   4.353   0.000  0.00  0.00    +0.341 C 
ATOM      4  O   UNL     1       1.322   4.765   0.000  0.00  0.00    -0.245 OA
BRANCH   3   2
ATOM      1  C   UNL     1       3.466   4.353   0.000  0.00  0.00    +0.256 C 
ATOM      2  O   UNL     1       2.751   4.765   0.000  0.00  0.00    -0.441 OA
ENDBRANCH   3   2
ENDBRANCH   5   3
ENDBRANCH   9   8
ENDBRANCH  10   9
BRANCH  10  11
ATOM     11  C   UNL     1       3.466   1.053   0.000  0.00  0.00    +0.099 C 
BRANCH  11  12
ATOM     12  C   UNL     1       4.180   0.640   0.000  0.00  0.00    -0.006 A 
ATOM     13  C   UNL     1       4.895   1.053   0.000  0.00  0.00    -0.003 A 
ATOM     14  C   UNL     1       5.609   0.640   0.000  0.00  0.00    +0.006 A 
ATOM     15  C   UNL     1       5.609  -0.185   0.000  0.00  0.00    +0.080 A 
ATOM     16  C   UNL     1       4.895  -0.597   0.000  0.00  0.00    +0.006 A 
ATOM     17  C   UNL     1       4.180  -0.185   0.000  0.00  0.00    -0.003 A 
BRANCH  15  18
ATOM     18  C   UNL     1       6.324  -0.597   0.000  0.00  0.00    +0.388 C 
ATOM     19  O   UNL     1       7.038  -0.185   0.000  0.00  0.00    -0.241 OA
ATOM     20  O   UNL     1       6.324  -1.422   0.000  0.00  0.00    -0.241 OA
ENDBRANCH  15  18
ENDBRANCH  11  12
ENDBRANCH  10  11
TORSDOF 11
