REMARK  Name = 
REMARK  7 active torsions:
REMARK  status: ('A' for Active; 'I' for Inactive)
REMARK    1  A    between atoms: C_2  and  O_3
REMARK    2  A    between atoms: O_3  and  C_4
REMARK    3  A    between atoms: C_4  and  C_6
REMARK    4  A    between atoms: C_10  and  N_11
REMARK    5  A    between atoms: C_17  and  C_18
REMARK    6  A    between atoms: C_18  and  C_19
REMARK    7  A    between atoms: C_27  and  C_28
REMARK                            x       y       z     vdW  Elec       q    Type
REMARK                         _______ _______ _______ _____ _____    ______ ____
ROOT
ATOM     11  N   UNL     1      -1.536   8.065   0.000  0.00  0.00    -0.162 NA
ATOM     12  C   UNL     1      -0.821   8.478   0.000  0.00  0.00    +0.327 C 
ATOM     13  O   UNL     1      -0.821   9.303   0.000  0.00  0.00    -0.250 OA
ATOM     14  N   UNL     1      -0.107   8.065   0.000  0.00  0.00    -0.263 N 
ATOM     15  C   UNL     1       0.608   8.478   0.000  0.00  0.00    +0.095 C 
ATOM     16  C   UNL     1       1.322   8.065   0.000  0.00  0.00    +0.022 C 
ATOM     17  C   UNL     1       1.322   7.240   0.000  0.00  0.00    +0.012 C 
ATOM     27  C   UNL     1       0.608   6.828   0.000  0.00  0.00    +0.020 C 
ATOM     30  C   UNL     1      -0.107   7.240   0.000  0.00  0.00    +0.095 C 
ENDROOT
BRANCH  11  10
ATOM      6  C   UNL     1      -3.679   8.478   0.000  0.00  0.00    +0.077 A 
ATOM      7  C   UNL     1      -3.679   9.303   0.000  0.00  0.00    +0.007 A 
ATOM      8  C   UNL     1      -2.965   9.715   0.000  0.00  0.00    +0.002 A 
ATOM      9  C   UNL     1      -2.250   9.303   0.000  0.00  0.00    +0.017 A 
ATOM     10  C   UNL     1      -2.250   8.478   0.000  0.00  0.00    +0.075 A 
ATOM     31  C   UNL     1      -2.965   8.065   0.000  0.00  0.00    +0.023 A 
BRANCH   6   4
ATOM      4  C   UNL     1      -4.394   8.065   0.000  0.00  0.00    +0.341 C 
ATOM      5  O   UNL     1      -4.394   7.240   0.000  0.00  0.00    -0.245 OA
BRANCH   4   3
ATOM      3  O   UNL     1      -5.108   8.478   0.000  0.00  0.00    -0.445 OA
BRANCH   3   2
ATOM      1  C   UNL     1      -6.537   8.478   0.000  0.00  0.00    +0.051 C 
ATOM      2  C   UNL     1      -5.822   8.065   0.000  0.00  0.00    +0.209 C 
ENDBRANCH   3   2
ENDBRANCH   4   3
ENDBRANCH   6   4
ENDBRANCH  11  10
BRANCH  27  28
ATOM     28  C   UNL     1       0.608   6.003   0.000  0.00  0.00    +0.002 C 
ATOM     29  C   UNL     1      -0.107   5.590   0.000  0.00  0.00    +0.000 C 
ENDBRANCH  27  28
BRANCH  17  18
ATOM     18  C   UNL     1       2.037   6.828   0.000  0.00  0.00    +0.087 C 
BRANCH  18  19
ATOM     19  C   UNL     1       2.037   6.003   0.000  0.00  0.00    +0.247 C 
ATOM     20  O   UNL     1       1.322   5.590   0.000  0.00  0.00    -0.273 OA
ATOM     21  N   UNL     1       2.751   5.590   0.000  0.00  0.00    -0.154 NA
ATOM     22  C   UNL     1       2.751   4.765   0.000  0.00  0.00    +0.186 A 
ATOM     23  N   UNL     1       3.419   4.280   0.000  0.00  0.00    -0.221 NA
ATOM     24  C   UNL     1       3.164   3.496   0.000  0.00  0.00    +0.108 A 
ATOM     25  C   UNL     1       2.339   3.496   0.000  0.00  0.00    +0.059 A 
ATOM     26  S   UNL     1       2.084   4.280   0.000  0.00  0.00    -0.049 S 
ENDBRANCH  18  19
ENDBRANCH  17  18
TORSDOF 7
