REMARK  Name = 
REMARK  6 active torsions:
REMARK  status: ('A' for Active; 'I' for Inactive)
REMARK    1  A    between atoms: C_3  and  C_4
REMARK    2  A    between atoms: C_4  and  N_5
REMARK    3  A    between atoms: N_5  and  S_6
REMARK    4  A    between atoms: S_6  and  C_9
REMARK    5  A    between atoms: C_17  and  N_18
REMARK    6  A    between atoms: N_18  and  C_19
REMARK                            x       y       z     vdW  Elec       q    Type
REMARK                         _______ _______ _______ _____ _____    ______ ____
ROOT
ATOM      1  O   UNL     1      -3.938  -4.411   0.000  0.00  0.00    -0.219 OA
ATOM      2  C   UNL     1      -3.766  -3.604   0.000  0.00  0.00    +0.199 C 
ATOM      3  C   UNL     1      -4.318  -2.991   0.000  0.00  0.00    +0.166 C 
ATOM     15  O   UNL     1      -3.906  -2.277   0.000  0.00  0.00    -0.350 OA
ATOM     16  C   UNL     1      -3.099  -2.448   0.000  0.00  0.00    +0.162 C 
ATOM     17  C   UNL     1      -3.013  -3.269   0.000  0.00  0.00    +0.135 C 
ENDROOT
BRANCH   3   4
ATOM      4  C   UNL     1      -5.139  -3.078   0.000  0.00  0.00    +0.148 C 
BRANCH   4   5
ATOM      5  N   UNL     1      -5.624  -2.410   0.000  0.00  0.00    -0.075 NA
BRANCH   5   6
ATOM      6  S   UNL     1      -6.444  -2.496   0.000  0.00  0.00    +0.077 S 
ATOM      7  O   UNL     1      -6.358  -3.317   0.000  0.00  0.00    -0.152 OA
ATOM      8  O   UNL     1      -6.530  -1.676   0.000  0.00  0.00    -0.152 OA
BRANCH   6   9
ATOM      9  C   UNL     1      -7.265  -2.583   0.000  0.00  0.00    +0.124 A 
ATOM     10  C   UNL     1      -7.600  -3.336   0.000  0.00  0.00    +0.020 A 
ATOM     11  C   UNL     1      -8.421  -3.422   0.000  0.00  0.00    +0.001 A 
ATOM     12  C   UNL     1      -8.906  -2.755   0.000  0.00  0.00    +0.000 A 
ATOM     13  C   UNL     1      -8.570  -2.001   0.000  0.00  0.00    +0.001 A 
ATOM     14  C   UNL     1      -7.750  -1.915   0.000  0.00  0.00    +0.020 A 
ENDBRANCH   6   9
ENDBRANCH   5   6
ENDBRANCH   4   5
ENDBRANCH   3   4
BRANCH  17  18
ATOM     18  N   UNL     1      -2.298  -3.681   0.000  0.00  0.00    -0.216 NA
BRANCH  18  19
ATOM     19  C   UNL     1      -2.298  -4.506   0.000  0.00  0.00    +0.073 C 
ATOM     20  C   UNL     1      -1.715  -5.090   0.000  0.00  0.00    +0.017 C 
ATOM     21  C   UNL     1      -2.298  -5.673   0.000  0.00  0.00    +0.003 C 
ATOM     22  C   UNL     1      -2.881  -5.090   0.000  0.00  0.00    +0.017 C 
ENDBRANCH  18  19
ENDBRANCH  17  18
TORSDOF 6
