REMARK  Name = 
REMARK  5 active torsions:
REMARK  status: ('A' for Active; 'I' for Inactive)
REMARK    1  A    between atoms: O_2  and  C_3
REMARK    2  A    between atoms: C_6  and  C_11
REMARK    3  A    between atoms: C_7  and  O_8
REMARK    4  A    between atoms: C_19  and  N_27
REMARK    5  A    between atoms: C_28  and  C_30
REMARK                            x       y       z     vdW  Elec       q    Type
REMARK                         _______ _______ _______ _____ _____    ______ ____
ROOT
ATOM     11  C   UNL     1       0.595  -1.673   0.000  0.00  0.00    +0.003 A 
ATOM     12  C   UNL     1       0.421  -0.867   0.000  0.00  0.00    +0.001 A 
ATOM     13  C   UNL     1       1.032  -0.313   0.000  0.00  0.00    +0.017 A 
ATOM     14  C   UNL     1       1.817  -0.565   0.000  0.00  0.00    +0.078 A 
ATOM     15  N   UNL     1       2.339   0.074   0.000  0.00  0.00    -0.178 NA
ATOM     16  C   UNL     1       3.164   0.065   0.000  0.00  0.00    +0.265 C 
ATOM     17  O   UNL     1       3.530   0.804   0.000  0.00  0.00    -0.271 OA
ATOM     18  C   UNL     1       3.671  -0.586   0.000  0.00  0.00    +0.174 C 
ATOM     19  C   UNL     1       4.493  -0.521   0.000  0.00  0.00    +0.124 C 
ATOM     20  C   UNL     1       4.809  -1.283   0.000  0.00  0.00    +0.045 C 
ATOM     21  C   UNL     1       4.182  -1.819   0.000  0.00  0.00    +0.096 C 
ATOM     22  N   UNL     1       3.478  -1.388   0.000  0.00  0.00    -0.268 N 
ATOM     23  C   UNL     1       2.731  -1.737   0.000  0.00  0.00    +0.251 C 
ATOM     24  O   UNL     1       2.722  -2.562   0.000  0.00  0.00    -0.270 OA
ATOM     25  C   UNL     1       1.992  -1.371   0.000  0.00  0.00    +0.069 A 
ATOM     26  C   UNL     1       1.381  -1.925   0.000  0.00  0.00    +0.006 A 
ENDROOT
BRANCH  11   6
ATOM      3  C   UNL     1      -1.238  -3.337   0.000  0.00  0.00    +0.142 A 
ATOM      4  C   UNL     1      -0.452  -3.588   0.000  0.00  0.00    +0.037 A 
ATOM      5  C   UNL     1       0.159  -3.034   0.000  0.00  0.00    +0.006 A 
ATOM      6  C   UNL     1      -0.016  -2.228   0.000  0.00  0.00    +0.034 A 
ATOM      7  C   UNL     1      -0.801  -1.976   0.000  0.00  0.00    +0.142 A 
ATOM     10  C   UNL     1      -1.412  -2.530   0.000  0.00  0.00    +0.074 A 
BRANCH   3   2
ATOM      1  C   UNL     1      -2.634  -3.639   0.000  0.00  0.00    +0.252 C 
ATOM      2  O   UNL     1      -1.849  -3.891   0.000  0.00  0.00    -0.471 OA
ENDBRANCH   3   2
BRANCH   7   8
ATOM      8  O   UNL     1      -0.976  -1.170   0.000  0.00  0.00    -0.471 OA
ATOM      9  C   UNL     1      -1.762  -0.918   0.000  0.00  0.00    +0.252 C 
ENDBRANCH   7   8
ENDBRANCH  11   6
BRANCH  19  27
ATOM     27  N   UNL     1       4.924   0.183   0.000  0.00  0.00    -0.200 NA
ATOM     28  C   UNL     1       5.749   0.161   0.000  0.00  0.00    +0.284 C 
ATOM     29  O   UNL     1       6.180   0.865   0.000  0.00  0.00    -0.267 OA
BRANCH  28  30
ATOM     30  C   UNL     1       6.143  -0.564   0.000  0.00  0.00    +0.155 A 
ATOM     31  C   UNL     1       6.967  -0.585   0.000  0.00  0.00    +0.123 A 
ATOM     32  N   UNL     1       7.361  -1.310   0.000  0.00  0.00    -0.239 NA
ATOM     33  C   UNL     1       6.930  -2.014   0.000  0.00  0.00    +0.120 A 
ATOM     34  C   UNL     1       6.105  -1.992   0.000  0.00  0.00    +0.120 A 
ATOM     35  N   UNL     1       5.712  -1.267   0.000  0.00  0.00    -0.236 NA
ENDBRANCH  28  30
ENDBRANCH  19  27
TORSDOF 5
