REMARK  Name = 
REMARK  9 active torsions:
REMARK  status: ('A' for Active; 'I' for Inactive)
REMARK    1  A    between atoms: O_2  and  C_3
REMARK    2  A    between atoms: C_3  and  C_4
REMARK    3  A    between atoms: N_8  and  C_9
REMARK    4  A    between atoms: C_10  and  C_11
REMARK    5  A    between atoms: C_11  and  N_12
REMARK    6  A    between atoms: N_12  and  S_13
REMARK    7  A    between atoms: S_13  and  C_16
REMARK    8  A    between atoms: C_19  and  O_20
REMARK    9  A    between atoms: C_25  and  C_26
REMARK                            x       y       z     vdW  Elec       q    Type
REMARK                         _______ _______ _______ _____ _____    ______ ____
ROOT
ATOM      9  C   UNL     1      -2.143  -2.841   0.000  0.00  0.00    +0.120 C 
ATOM     10  C   UNL     1      -2.810  -3.326   0.000  0.00  0.00    +0.152 C 
ATOM     24  O   UNL     1      -3.478  -2.841   0.000  0.00  0.00    -0.350 OA
ATOM     25  C   UNL     1      -3.223  -2.057   0.000  0.00  0.00    +0.180 C 
ATOM     28  C   UNL     1      -2.398  -2.057   0.000  0.00  0.00    +0.198 C 
ATOM     29  O   UNL     1      -1.913  -1.389   0.000  0.00  0.00    -0.219 OA
ENDROOT
BRANCH   9   8
ATOM      4  C   UNL     1      -0.691  -2.611   0.000  0.00  0.00    +0.087 C 
ATOM      5  C   UNL     1      -0.023  -3.096   0.000  0.00  0.00    +0.020 C 
ATOM      6  C   UNL     1      -0.278  -3.881   0.000  0.00  0.00    +0.019 C 
ATOM      7  C   UNL     1      -1.103  -3.881   0.000  0.00  0.00    +0.072 C 
ATOM      8  N   UNL     1      -1.358  -3.096   0.000  0.00  0.00    -0.269 NA
BRANCH   4   3
ATOM      3  C   UNL     1      -0.691  -1.786   0.000  0.00  0.00    +0.158 C 
BRANCH   3   2
ATOM      1  C   UNL     1       0.024  -0.549   0.000  0.00  0.00    +0.174 C 
ATOM      2  O   UNL     1       0.024  -1.374   0.000  0.00  0.00    -0.350 OA
ENDBRANCH   3   2
ENDBRANCH   4   3
ENDBRANCH   9   8
BRANCH  25  26
ATOM     26  C   UNL     1      -3.708  -1.389   0.000  0.00  0.00    +0.214 C 
ATOM     27  O   UNL     1      -3.372  -0.636   0.000  0.00  0.00    -0.218 OA
ENDBRANCH  25  26
BRANCH  10  11
ATOM     11  C   UNL     1      -2.810  -4.151   0.000  0.00  0.00    +0.146 C 
BRANCH  11  12
ATOM     12  N   UNL     1      -2.096  -4.564   0.000  0.00  0.00    -0.075 NA
BRANCH  12  13
ATOM     13  S   UNL     1      -2.096  -5.389   0.000  0.00  0.00    +0.077 S 
ATOM     14  O   UNL     1      -2.921  -5.389   0.000  0.00  0.00    -0.152 OA
ATOM     15  O   UNL     1      -1.271  -5.389   0.000  0.00  0.00    -0.152 OA
BRANCH  13  16
ATOM     16  C   UNL     1      -2.096  -6.214   0.000  0.00  0.00    +0.124 A 
ATOM     17  C   UNL     1      -1.381  -6.626   0.000  0.00  0.00    +0.023 A 
ATOM     18  C   UNL     1      -1.381  -7.451   0.000  0.00  0.00    +0.038 A 
ATOM     19  C   UNL     1      -2.096  -7.864   0.000  0.00  0.00    +0.139 A 
ATOM     22  C   UNL     1      -2.810  -7.451   0.000  0.00  0.00    +0.038 A 
ATOM     23  C   UNL     1      -2.810  -6.626   0.000  0.00  0.00    +0.023 A 
BRANCH  19  20
ATOM     20  O   UNL     1      -2.096  -8.689   0.000  0.00  0.00    -0.471 OA
ATOM     21  C   UNL     1      -2.810  -9.101   0.000  0.00  0.00    +0.252 C 
ENDBRANCH  19  20
ENDBRANCH  13  16
ENDBRANCH  12  13
ENDBRANCH  11  12
ENDBRANCH  10  11
TORSDOF 9
