REMARK  Name = 
REMARK  9 active torsions:
REMARK  status: ('A' for Active; 'I' for Inactive)
REMARK    1  A    between atoms: S_2  and  C_3
REMARK    2  A    between atoms: C_3  and  C_4
REMARK    3  A    between atoms: C_9  and  N_10
REMARK    4  A    between atoms: N_13  and  C_14
REMARK    5  A    between atoms: C_22  and  C_23
REMARK    6  A    between atoms: N_25  and  C_26
REMARK    7  A    between atoms: C_26  and  C_27
REMARK    8  A    between atoms: C_26  and  C_33
REMARK    9  A    between atoms: C_27  and  C_28
REMARK                            x       y       z     vdW  Elec       q    Type
REMARK                         _______ _______ _______ _____ _____    ______ ____
ROOT
ATOM      4  C   UNL     1       0.409  -6.615   0.000  0.00  0.00    +0.237 C 
ATOM      5  O   UNL     1       0.238  -7.422   0.000  0.00  0.00    -0.274 OA
ATOM      6  N   UNL     1      -0.204  -6.063   0.000  0.00  0.00    -0.271 N 
ATOM      7  C   UNL     1      -1.011  -6.235   0.000  0.00  0.00    +0.096 C 
ATOM      8  C   UNL     1      -1.423  -5.520   0.000  0.00  0.00    +0.045 C 
ATOM      9  C   UNL     1      -0.871  -4.907   0.000  0.00  0.00    +0.126 C 
ATOM     22  C   UNL     1      -0.117  -5.243   0.000  0.00  0.00    +0.174 C 
ENDROOT
BRANCH   9  10
ATOM     10  N   UNL     1      -1.043  -4.100   0.000  0.00  0.00    -0.186 NA
ATOM     11  C   UNL     1      -1.827  -3.845   0.000  0.00  0.00    +0.344 C 
ATOM     12  O   UNL     1      -2.440  -4.397   0.000  0.00  0.00    -0.249 OA
ATOM     13  N   UNL     1      -1.999  -3.038   0.000  0.00  0.00    -0.159 NA
BRANCH  13  14
ATOM     14  C   UNL     1      -2.783  -2.783   0.000  0.00  0.00    +0.102 A 
ATOM     15  C   UNL     1      -3.397  -3.335   0.000  0.00  0.00    +0.158 A 
ATOM     16  F   UNL     1      -3.225  -4.142   0.000  0.00  0.00    -0.203 F 
ATOM     17  C   UNL     1      -4.181  -3.080   0.000  0.00  0.00    +0.061 A 
ATOM     18  C   UNL     1      -4.353  -2.273   0.000  0.00  0.00    +0.142 A 
ATOM     19  F   UNL     1      -5.137  -2.018   0.000  0.00  0.00    -0.204 F 
ATOM     20  C   UNL     1      -3.740  -1.721   0.000  0.00  0.00    +0.031 A 
ATOM     21  C   UNL     1      -2.955  -1.976   0.000  0.00  0.00    +0.021 A 
ENDBRANCH  13  14
ENDBRANCH   9  10
BRANCH  22  23
ATOM     23  C   UNL     1       0.597  -4.830   0.000  0.00  0.00    +0.262 C 
ATOM     24  O   UNL     1       1.312  -5.243   0.000  0.00  0.00    -0.271 OA
ATOM     25  N   UNL     1       0.597  -4.005   0.000  0.00  0.00    -0.196 NA
BRANCH  25  26
ATOM     26  C   UNL     1       1.312  -3.593   0.000  0.00  0.00    +0.179 C 
BRANCH  26  33
ATOM     33  C   UNL     1       2.026  -4.005   0.000  0.00  0.00    +0.281 C 
ATOM     34  N   UNL     1       2.740  -3.593   0.000  0.00  0.00    -0.086 NA
ATOM     35  O   UNL     1       2.026  -4.830   0.000  0.00  0.00    -0.270 OA
ENDBRANCH  26  33
BRANCH  26  27
ATOM     27  C   UNL     1       1.312  -2.768   0.000  0.00  0.00    +0.064 C 
BRANCH  27  28
ATOM     28  C   UNL     1       2.026  -2.355   0.000  0.00  0.00    +0.010 A 
ATOM     29  C   UNL     1       2.112  -1.535   0.000  0.00  0.00    +0.003 A 
ATOM     30  C   UNL     1       2.919  -1.363   0.000  0.00  0.00    +0.007 A 
ATOM     31  C   UNL     1       3.332  -2.078   0.000  0.00  0.00    +0.035 A 
ATOM     32  S   UNL     1       2.780  -2.691   0.000  0.00  0.00    -0.091 S 
ENDBRANCH  27  28
ENDBRANCH  26  27
ENDBRANCH  25  26
ENDBRANCH  22  23
BRANCH   4   3
ATOM      3  C   UNL     1       1.194  -6.360   0.000  0.00  0.00    +0.143 C 
BRANCH   3   2
ATOM      1  C   UNL     1       2.592  -6.657   0.000  0.00  0.00    +0.070 C 
ATOM      2  S   UNL     1       1.807  -6.912   0.000  0.00  0.00    -0.130 S 
ENDBRANCH   3   2
ENDBRANCH   4   3
TORSDOF 9
