REMARK  Name = 
REMARK  4 active torsions:
REMARK  status: ('A' for Active; 'I' for Inactive)
REMARK    1  A    between atoms: C_3  and  C_11
REMARK    2  A    between atoms: N_14  and  C_15
REMARK    3  A    between atoms: C_15  and  C_16
REMARK    4  A    between atoms: C_19  and  C_22
REMARK                            x       y       z     vdW  Elec       q    Type
REMARK                         _______ _______ _______ _____ _____    ______ ____
ROOT
ATOM     11  C   UNL     1      -1.453  -0.698   0.000  0.00  0.00    +0.074 C 
ATOM     12  C   UNL     1      -1.938  -1.365   0.000  0.00  0.00    +0.026 C 
ATOM     13  C   UNL     1      -2.723  -1.110   0.000  0.00  0.00    +0.073 C 
ATOM     14  N   UNL     1      -2.723  -0.285   0.000  0.00  0.00    -0.269 NA
ATOM     28  C   UNL     1      -1.938  -0.030   0.000  0.00  0.00    +0.080 C 
ENDROOT
BRANCH  11   3
ATOM      1  C   UNL     1      -0.398   0.754   0.000  0.00  0.00    +0.132 C 
ATOM      2  N   UNL     1      -0.143  -0.030   0.000  0.00  0.00    -0.313 N 
ATOM      3  C   UNL     1      -0.628  -0.698   0.000  0.00  0.00    +0.121 A 
ATOM      4  N   UNL     1      -0.143  -1.365   0.000  0.00  0.00    -0.231 NA
ATOM      5  C   UNL     1       0.641  -1.110   0.000  0.00  0.00    +0.098 A 
ATOM      6  C   UNL     1       0.641  -0.285   0.000  0.00  0.00    +0.079 A 
ATOM      7  C   UNL     1       1.356   0.127   0.000  0.00  0.00    +0.019 A 
ATOM      8  C   UNL     1       2.070  -0.285   0.000  0.00  0.00    +0.002 A 
ATOM      9  C   UNL     1       2.070  -1.110   0.000  0.00  0.00    +0.002 A 
ATOM     10  C   UNL     1       1.356  -1.523   0.000  0.00  0.00    +0.021 A 
ENDBRANCH  11   3
BRANCH  14  15
ATOM     15  C   UNL     1      -3.390   0.200   0.000  0.00  0.00    +0.099 C 
BRANCH  15  16
ATOM     16  C   UNL     1      -3.304   1.020   0.000  0.00  0.00    -0.006 A 
ATOM     17  C   UNL     1      -3.972   1.505   0.000  0.00  0.00    -0.003 A 
ATOM     18  C   UNL     1      -3.885   2.325   0.000  0.00  0.00    +0.001 A 
ATOM     19  C   UNL     1      -3.132   2.661   0.000  0.00  0.00    +0.018 A 
ATOM     20  C   UNL     1      -2.464   2.176   0.000  0.00  0.00    +0.001 A 
ATOM     21  C   UNL     1      -2.550   1.355   0.000  0.00  0.00    -0.003 A 
BRANCH  19  22
ATOM     22  C   UNL     1      -3.046   3.481   0.000  0.00  0.00    +0.081 A 
ATOM     23  N   UNL     1      -3.713   3.966   0.000  0.00  0.00    -0.244 NA
ATOM     24  C   UNL     1      -3.627   4.787   0.000  0.00  0.00    +0.099 A 
ATOM     25  C   UNL     1      -2.873   5.122   0.000  0.00  0.00    +0.021 A 
ATOM     26  C   UNL     1      -2.206   4.637   0.000  0.00  0.00    +0.003 A 
ATOM     27  C   UNL     1      -2.292   3.817   0.000  0.00  0.00    +0.019 A 
ENDBRANCH  19  22
ENDBRANCH  15  16
ENDBRANCH  14  15
TORSDOF 4
