REMARK  Name = 
REMARK  5 active torsions:
REMARK  status: ('A' for Active; 'I' for Inactive)
REMARK    1  A    between atoms: O_2  and  C_3
REMARK    2  A    between atoms: C_5  and  C_6
REMARK    3  A    between atoms: C_6  and  N_7
REMARK    4  A    between atoms: C_18  and  O_19
REMARK    5  A    between atoms: C_21  and  O_22
REMARK                            x       y       z     vdW  Elec       q    Type
REMARK                         _______ _______ _______ _____ _____    ______ ____
ROOT
ATOM      3  C   UNL     1       4.781   4.410   0.000  0.00  0.00    +0.175 A 
ATOM      4  C   UNL     1       4.781   3.585   0.000  0.00  0.00    +0.037 A 
ATOM      5  C   UNL     1       4.067   3.173   0.000  0.00  0.00    +0.000 A 
ATOM     17  C   UNL     1       3.352   3.585   0.000  0.00  0.00    +0.037 A 
ATOM     18  C   UNL     1       3.352   4.410   0.000  0.00  0.00    +0.175 A 
ATOM     21  C   UNL     1       4.067   4.823   0.000  0.00  0.00    +0.206 A 
ENDROOT
BRANCH   3   2
ATOM      1  C   UNL     1       5.496   5.648   0.000  0.00  0.00    +0.253 C 
ATOM      2  O   UNL     1       5.496   4.823   0.000  0.00  0.00    -0.468 OA
ENDBRANCH   3   2
BRANCH  18  19
ATOM     19  O   UNL     1       2.638   4.823   0.000  0.00  0.00    -0.468 OA
ATOM     20  C   UNL     1       2.638   5.648   0.000  0.00  0.00    +0.253 C 
ENDBRANCH  18  19
BRANCH  21  22
ATOM     22  O   UNL     1       4.067   5.648   0.000  0.00  0.00    -0.465 OA
ATOM     23  C   UNL     1       3.352   6.060   0.000  0.00  0.00    +0.253 C 
ENDBRANCH  21  22
BRANCH   5   6
ATOM      6  C   UNL     1       4.067   2.348   0.000  0.00  0.00    +0.099 C 
BRANCH   6   7
ATOM      7  N   UNL     1       3.352   1.935   0.000  0.00  0.00    -0.266 NA
ATOM      8  C   UNL     1       3.352   1.110   0.000  0.00  0.00    +0.094 C 
ATOM      9  C   UNL     1       2.638   0.698   0.000  0.00  0.00    +0.112 C 
ATOM     10  N   UNL     1       1.923   1.110   0.000  0.00  0.00    -0.260 N 
ATOM     11  C   UNL     1       1.923   1.935   0.000  0.00  0.00    +0.115 C 
ATOM     12  C   UNL     1       1.139   2.190   0.000  0.00  0.00    +0.138 C 
ATOM     13  N   UNL     1       0.654   1.523   0.000  0.00  0.00    -0.187 NA
ATOM     14  C   UNL     1       1.139   0.856   0.000  0.00  0.00    +0.323 C 
ATOM     15  O   UNL     1       0.884   0.071   0.000  0.00  0.00    -0.251 OA
ATOM     16  C   UNL     1       2.638   2.348   0.000  0.00  0.00    +0.094 C 
ENDBRANCH   6   7
ENDBRANCH   5   6
TORSDOF 5
