REMARK  Name = 
REMARK  5 active torsions:
REMARK  status: ('A' for Active; 'I' for Inactive)
REMARK    1  A    between atoms: C_5  and  N_8
REMARK    2  A    between atoms: C_13  and  C_14
REMARK    3  A    between atoms: C_16  and  C_17
REMARK    4  A    between atoms: C_17  and  S_18
REMARK    5  A    between atoms: S_18  and  C_21
REMARK                            x       y       z     vdW  Elec       q    Type
REMARK                         _______ _______ _______ _____ _____    ______ ____
ROOT
ATOM     14  C   UNL     1       1.491  -4.390   0.000  0.00  0.00    +0.251 A 
ATOM     15  N   UNL     1       0.824  -4.875   0.000  0.00  0.00    -0.192 NA
ATOM     16  C   UNL     1       0.156  -4.390   0.000  0.00  0.00    +0.205 A 
ATOM     28  N   UNL     1       0.411  -3.605   0.000  0.00  0.00    -0.059 NA
ATOM     29  O   UNL     1       1.236  -3.605   0.000  0.00  0.00    -0.336 OA
ENDROOT
BRANCH  14  13
ATOM      8  N   UNL     1       2.943  -4.160   0.000  0.00  0.00    -0.265 NA
ATOM      9  C   UNL     1       3.611  -4.645   0.000  0.00  0.00    +0.106 C 
ATOM     10  C   UNL     1       3.356  -5.430   0.000  0.00  0.00    +0.170 C 
ATOM     11  O   UNL     1       3.841  -6.097   0.000  0.00  0.00    -0.222 OA
ATOM     12  C   UNL     1       2.531  -5.430   0.000  0.00  0.00    +0.060 C 
ATOM     13  C   UNL     1       2.276  -4.645   0.000  0.00  0.00    +0.140 C 
BRANCH   8   5
ATOM      1  C   UNL     1       2.943  -0.860   0.000  0.00  0.00    +0.090 C 
ATOM      2  N   UNL     1       2.943  -1.685   0.000  0.00  0.00    -0.271 NA
ATOM      3  C   UNL     1       3.658  -2.098   0.000  0.00  0.00    +0.074 C 
ATOM      4  C   UNL     1       3.658  -2.922   0.000  0.00  0.00    +0.033 C 
ATOM      5  C   UNL     1       2.943  -3.335   0.000  0.00  0.00    +0.061 C 
ATOM      6  C   UNL     1       2.229  -2.922   0.000  0.00  0.00    +0.033 C 
ATOM      7  C   UNL     1       2.229  -2.098   0.000  0.00  0.00    +0.074 C 
ENDBRANCH   8   5
ENDBRANCH  14  13
BRANCH  16  17
ATOM     17  C   UNL     1      -0.628  -4.645   0.000  0.00  0.00    +0.224 C 
BRANCH  17  18
ATOM     18  S   UNL     1      -1.242  -4.093   0.000  0.00  0.00    +0.016 S 
ATOM     19  O   UNL     1      -0.690  -3.480   0.000  0.00  0.00    -0.168 OA
ATOM     20  O   UNL     1      -1.794  -4.706   0.000  0.00  0.00    -0.168 OA
BRANCH  18  21
ATOM     21  C   UNL     1      -1.855  -3.541   0.000  0.00  0.00    +0.106 A 
ATOM     22  C   UNL     1      -2.639  -3.796   0.000  0.00  0.00    +0.021 A 
ATOM     23  C   UNL     1      -3.252  -3.244   0.000  0.00  0.00    +0.031 A 
ATOM     24  C   UNL     1      -3.081  -2.437   0.000  0.00  0.00    +0.140 A 
ATOM     25  F   UNL     1      -3.694  -1.885   0.000  0.00  0.00    -0.204 F 
ATOM     26  C   UNL     1      -2.296  -2.182   0.000  0.00  0.00    +0.031 A 
ATOM     27  C   UNL     1      -1.683  -2.734   0.000  0.00  0.00    +0.021 A 
ENDBRANCH  18  21
ENDBRANCH  17  18
ENDBRANCH  16  17
TORSDOF 5
