REMARK  Name = 
REMARK  8 active torsions:
REMARK  status: ('A' for Active; 'I' for Inactive)
REMARK    1  A    between atoms: C_6  and  C_7
REMARK    2  A    between atoms: C_12  and  N_29
REMARK    3  A    between atoms: C_14  and  C_15
REMARK    4  A    between atoms: N_17  and  C_18
REMARK    5  A    between atoms: C_18  and  C_19
REMARK    6  A    between atoms: C_18  and  C_26
REMARK    7  A    between atoms: C_19  and  C_20
REMARK    8  A    between atoms: C_30  and  C_32
REMARK                            x       y       z     vdW  Elec       q    Type
REMARK                         _______ _______ _______ _____ _____    ______ ____
ROOT
ATOM      7  C   UNL     1       0.585  -4.004   0.000  0.00  0.00    +0.265 C 
ATOM      8  O   UNL     1       0.413  -3.197   0.000  0.00  0.00    -0.268 OA
ATOM      9  N   UNL     1      -0.028  -4.556   0.000  0.00  0.00    -0.268 N 
ATOM     10  C   UNL     1       0.143  -5.363   0.000  0.00  0.00    +0.096 C 
ATOM     11  C   UNL     1      -0.470  -5.915   0.000  0.00  0.00    +0.043 C 
ATOM     12  C   UNL     1      -1.255  -5.660   0.000  0.00  0.00    +0.100 C 
ATOM     13  C   UNL     1      -1.426  -4.853   0.000  0.00  0.00    +0.051 C 
ATOM     14  C   UNL     1      -0.813  -4.301   0.000  0.00  0.00    +0.155 C 
ENDROOT
BRANCH   7   6
ATOM      1  C   UNL     1       2.037  -2.949   0.000  0.00  0.00    +0.131 C 
ATOM      2  N   UNL     1       2.037  -3.774   0.000  0.00  0.00    -0.320 N 
ATOM      3  C   UNL     1       2.704  -4.259   0.000  0.00  0.00    +0.076 A 
ATOM      4  C   UNL     1       2.449  -5.044   0.000  0.00  0.00    +0.020 A 
ATOM      5  C   UNL     1       1.624  -5.044   0.000  0.00  0.00    +0.023 A 
ATOM      6  C   UNL     1       1.369  -4.259   0.000  0.00  0.00    +0.114 A 
ENDBRANCH   7   6
BRANCH  14  15
ATOM     15  C   UNL     1      -0.985  -3.494   0.000  0.00  0.00    +0.260 C 
ATOM     16  O   UNL     1      -1.769  -3.239   0.000  0.00  0.00    -0.272 OA
ATOM     17  N   UNL     1      -0.371  -2.942   0.000  0.00  0.00    -0.196 NA
BRANCH  17  18
ATOM     18  C   UNL     1      -0.543  -2.135   0.000  0.00  0.00    +0.179 C 
BRANCH  18  26
ATOM     26  C   UNL     1      -1.328  -1.880   0.000  0.00  0.00    +0.281 C 
ATOM     27  N   UNL     1      -1.941  -2.432   0.000  0.00  0.00    -0.086 NA
ATOM     28  O   UNL     1      -1.499  -1.073   0.000  0.00  0.00    -0.270 OA
ENDBRANCH  18  26
BRANCH  18  19
ATOM     19  C   UNL     1       0.070  -1.583   0.000  0.00  0.00    +0.057 C 
BRANCH  19  20
ATOM     20  C   UNL     1      -0.102  -0.776   0.000  0.00  0.00    -0.020 A 
ATOM     21  C   UNL     1      -0.886  -0.521   0.000  0.00  0.00    -0.004 A 
ATOM     22  C   UNL     1      -1.058   0.286   0.000  0.00  0.00    -0.000 A 
ATOM     23  C   UNL     1      -0.445   0.838   0.000  0.00  0.00    -0.000 A 
ATOM     24  C   UNL     1       0.340   0.583   0.000  0.00  0.00    -0.000 A 
ATOM     25  C   UNL     1       0.512  -0.224   0.000  0.00  0.00    -0.004 A 
ENDBRANCH  19  20
ENDBRANCH  18  19
ENDBRANCH  17  18
ENDBRANCH  14  15
BRANCH  12  29
ATOM     29  N   UNL     1      -1.868  -6.212   0.000  0.00  0.00    -0.203 NA
ATOM     30  C   UNL     1      -1.696  -7.019   0.000  0.00  0.00    +0.273 C 
ATOM     31  O   UNL     1      -0.912  -7.274   0.000  0.00  0.00    -0.268 OA
BRANCH  30  32
ATOM     32  C   UNL     1      -2.309  -7.571   0.000  0.00  0.00    +0.119 A 
ATOM     33  C   UNL     1      -2.223  -8.392   0.000  0.00  0.00    +0.093 A 
ATOM     34  C   UNL     1      -1.509  -8.804   0.000  0.00  0.00    +0.055 C 
ATOM     35  N   UNL     1      -2.977  -8.727   0.000  0.00  0.00    -0.145 NA
ATOM     36  N   UNL     1      -3.529  -8.114   0.000  0.00  0.00    -0.110 NA
ATOM     37  S   UNL     1      -3.116  -7.400   0.000  0.00  0.00    +0.042 S 
ENDBRANCH  30  32
ENDBRANCH  12  29
TORSDOF 8
