REMARK  Name = 
REMARK  3 active torsions:
REMARK  status: ('A' for Active; 'I' for Inactive)
REMARK    1  A    between atoms: C_6  and  C_7
REMARK    2  A    between atoms: C_9  and  C_12
REMARK    3  A    between atoms: C_16  and  N_18
REMARK                            x       y       z     vdW  Elec       q    Type
REMARK                         _______ _______ _______ _____ _____    ______ ____
ROOT
ATOM      7  C   UNL     1      -2.047  -3.270   0.000  0.00  0.00    +0.251 A 
ATOM      8  N   UNL     1      -2.715  -3.755   0.000  0.00  0.00    -0.190 NA
ATOM      9  C   UNL     1      -3.382  -3.270   0.000  0.00  0.00    +0.203 A 
ATOM     10  N   UNL     1      -3.127  -2.486   0.000  0.00  0.00    -0.056 NA
ATOM     11  O   UNL     1      -2.303  -2.486   0.000  0.00  0.00    -0.336 OA
ENDROOT
BRANCH   7   6
ATOM      1  C   UNL     1      -0.596  -2.216   0.000  0.00  0.00    +0.090 C 
ATOM      2  N   UNL     1      -0.596  -3.041   0.000  0.00  0.00    -0.265 NA
ATOM      3  C   UNL     1       0.072  -3.525   0.000  0.00  0.00    +0.073 C 
ATOM      4  C   UNL     1      -0.183  -4.310   0.000  0.00  0.00    +0.019 C 
ATOM      5  C   UNL     1      -1.008  -4.310   0.000  0.00  0.00    +0.027 C 
ATOM      6  C   UNL     1      -1.263  -3.525   0.000  0.00  0.00    +0.138 C 
ENDBRANCH   7   6
BRANCH   9  12
ATOM     12  C   UNL     1      -4.167  -3.525   0.000  0.00  0.00    +0.043 A 
ATOM     13  C   UNL     1      -4.338  -4.332   0.000  0.00  0.00    +0.024 A 
ATOM     14  C   UNL     1      -5.123  -4.587   0.000  0.00  0.00    +0.100 A 
ATOM     15  N   UNL     1      -5.736  -4.035   0.000  0.00  0.00    -0.229 NA
ATOM     16  C   UNL     1      -5.565  -3.228   0.000  0.00  0.00    +0.132 A 
ATOM     17  C   UNL     1      -4.780  -2.973   0.000  0.00  0.00    +0.037 A 
BRANCH  16  18
ATOM     18  N   UNL     1      -6.178  -2.676   0.000  0.00  0.00    -0.293 N 
ATOM     19  C   UNL     1      -6.985  -2.848   0.000  0.00  0.00    +0.092 C 
ATOM     20  C   UNL     1      -7.397  -2.133   0.000  0.00  0.00    +0.023 C 
ATOM     21  C   UNL     1      -6.845  -1.520   0.000  0.00  0.00    +0.023 C 
ATOM     22  C   UNL     1      -6.092  -1.856   0.000  0.00  0.00    +0.092 C 
ENDBRANCH  16  18
ENDBRANCH   9  12
TORSDOF 3
