REMARK  Name = 
REMARK  8 active torsions:
REMARK  status: ('A' for Active; 'I' for Inactive)
REMARK    1  A    between atoms: C_5  and  C_8
REMARK    2  A    between atoms: C_10  and  C_11
REMARK    3  A    between atoms: C_11  and  C_12
REMARK    4  A    between atoms: C_12  and  N_16
REMARK    5  A    between atoms: N_16  and  C_17
REMARK    6  A    between atoms: C_17  and  C_18
REMARK    7  A    between atoms: C_21  and  O_22
REMARK    8  A    between atoms: O_22  and  C_23
REMARK                            x       y       z     vdW  Elec       q    Type
REMARK                         _______ _______ _______ _____ _____    ______ ____
ROOT
ATOM     12  C   UNL     1       1.841  -2.304   0.000  0.00  0.00    +0.120 C 
ATOM     13  C   UNL     1       2.425  -2.888   0.000  0.00  0.00    +0.161 C 
ATOM     14  O   UNL     1       1.841  -3.471   0.000  0.00  0.00    -0.351 OA
ATOM     15  C   UNL     1       1.258  -2.888   0.000  0.00  0.00    +0.161 C 
ENDROOT
BRANCH  12  11
ATOM     11  C   UNL     1       1.258  -1.721   0.000  0.00  0.00    +0.070 C 
BRANCH  11  10
ATOM      8  C   UNL     1      -0.872  -1.864   0.000  0.00  0.00    +0.177 A 
ATOM      9  C   UNL     1      -0.180  -1.415   0.000  0.00  0.00    +0.058 A 
ATOM     10  C   UNL     1       0.461  -1.934   0.000  0.00  0.00    +0.102 A 
ATOM     29  N   UNL     1       0.166  -2.704   0.000  0.00  0.00    -0.081 NA
ATOM     30  O   UNL     1      -0.658  -2.661   0.000  0.00  0.00    -0.354 OA
BRANCH   8   5
ATOM      1  F   UNL     1      -3.953  -0.682   0.000  0.00  0.00    -0.204 F 
ATOM      2  C   UNL     1      -3.183  -0.978   0.000  0.00  0.00    +0.140 A 
ATOM      3  C   UNL     1      -2.541  -0.458   0.000  0.00  0.00    +0.030 A 
ATOM      4  C   UNL     1      -1.771  -0.754   0.000  0.00  0.00    +0.005 A 
ATOM      5  C   UNL     1      -1.642  -1.569   0.000  0.00  0.00    +0.037 A 
ATOM      6  C   UNL     1      -2.283  -2.088   0.000  0.00  0.00    +0.005 A 
ATOM      7  C   UNL     1      -3.053  -1.792   0.000  0.00  0.00    +0.030 A 
ENDBRANCH   8   5
ENDBRANCH  11  10
ENDBRANCH  12  11
BRANCH  12  16
ATOM     16  N   UNL     1       2.425  -1.721   0.000  0.00  0.00    -0.211 NA
BRANCH  16  17
ATOM     17  C   UNL     1       2.211  -0.924   0.000  0.00  0.00    +0.115 C 
BRANCH  17  18
ATOM     18  C   UNL     1       2.795  -0.341   0.000  0.00  0.00    -0.005 A 
ATOM     19  C   UNL     1       2.581   0.456   0.000  0.00  0.00    +0.000 A 
ATOM     20  C   UNL     1       3.164   1.040   0.000  0.00  0.00    +0.037 A 
ATOM     21  C   UNL     1       3.961   0.826   0.000  0.00  0.00    +0.147 A 
ATOM     27  C   UNL     1       4.175   0.029   0.000  0.00  0.00    +0.037 A 
ATOM     28  C   UNL     1       3.591  -0.554   0.000  0.00  0.00    +0.000 A 
BRANCH  21  22
ATOM     22  O   UNL     1       4.545   1.410   0.000  0.00  0.00    -0.404 OA
BRANCH  22  23
ATOM     23  C   UNL     1       4.331   2.207   0.000  0.00  0.00    +0.575 C 
ATOM     24  F   UNL     1       4.118   3.003   0.000  0.00  0.00    -0.133 F 
ATOM     25  F   UNL     1       5.128   2.420   0.000  0.00  0.00    -0.133 F 
ATOM     26  F   UNL     1       3.534   1.993   0.000  0.00  0.00    -0.133 F 
ENDBRANCH  22  23
ENDBRANCH  21  22
ENDBRANCH  17  18
ENDBRANCH  16  17
ENDBRANCH  12  16
TORSDOF 8
