REMARK  Name = 
REMARK  7 active torsions:
REMARK  status: ('A' for Active; 'I' for Inactive)
REMARK    1  A    between atoms: O_2  and  C_3
REMARK    2  A    between atoms: C_3  and  C_4
REMARK    3  A    between atoms: C_9  and  C_11
REMARK    4  A    between atoms: C_11  and  C_12
REMARK    5  A    between atoms: C_12  and  C_13
REMARK    6  A    between atoms: C_20  and  N_23
REMARK    7  A    between atoms: C_24  and  C_26
REMARK                            x       y       z     vdW  Elec       q    Type
REMARK                         _______ _______ _______ _____ _____    ______ ____
ROOT
ATOM     13  C   UNL     1       3.279   1.238   0.000  0.00  0.00    +0.080 C 
ATOM     14  C   UNL     1       3.993   0.825   0.000  0.00  0.00    +0.131 C 
ATOM     15  N   UNL     1       3.993   0.000   0.000  0.00  0.00    -0.203 NA
ATOM     16  C   UNL     1       3.279  -0.412   0.000  0.00  0.00    +0.256 C 
ATOM     17  O   UNL     1       3.279  -1.238   0.000  0.00  0.00    -0.272 OA
ATOM     18  C   UNL     1       2.564   0.000   0.000  0.00  0.00    +0.138 C 
ATOM     19  C   UNL     1       1.780  -0.255   0.000  0.00  0.00    +0.048 C 
ATOM     20  C   UNL     1       1.295   0.412   0.000  0.00  0.00    +0.113 C 
ATOM     21  C   UNL     1       1.780   1.080   0.000  0.00  0.00    +0.094 C 
ATOM     22  N   UNL     1       2.564   0.825   0.000  0.00  0.00    -0.265 NA
ENDROOT
BRANCH  20  23
ATOM     23  N   UNL     1       0.470   0.412   0.000  0.00  0.00    -0.202 NA
ATOM     24  C   UNL     1       0.057  -0.302   0.000  0.00  0.00    +0.265 C 
ATOM     25  O   UNL     1       0.470  -1.016   0.000  0.00  0.00    -0.268 OA
BRANCH  24  26
ATOM     26  C   UNL     1      -0.768  -0.302   0.000  0.00  0.00    +0.055 A 
ATOM     27  C   UNL     1      -1.180  -1.016   0.000  0.00  0.00    +0.005 A 
ATOM     28  C   UNL     1      -2.005  -1.016   0.000  0.00  0.00    +0.000 A 
ATOM     29  C   UNL     1      -2.418  -0.302   0.000  0.00  0.00    +0.000 A 
ATOM     30  C   UNL     1      -2.005   0.412   0.000  0.00  0.00    +0.000 A 
ATOM     31  C   UNL     1      -1.180   0.412   0.000  0.00  0.00    +0.005 A 
ENDBRANCH  24  26
ENDBRANCH  20  23
BRANCH  13  12
ATOM     12  C   UNL     1       3.279   2.062   0.000  0.00  0.00    +0.027 C 
BRANCH  12  11
ATOM     11  C   UNL     1       3.993   2.475   0.000  0.00  0.00    +0.087 C 
BRANCH  11   9
ATOM      4  C   UNL     1       4.794   4.533   0.000  0.00  0.00    +0.105 C 
ATOM      5  C   UNL     1       5.601   4.705   0.000  0.00  0.00    +0.024 C 
ATOM      6  C   UNL     1       6.014   3.990   0.000  0.00  0.00    +0.023 C 
ATOM      7  C   UNL     1       5.462   3.377   0.000  0.00  0.00    +0.093 C 
ATOM      8  N   UNL     1       4.708   3.712   0.000  0.00  0.00    -0.279 N 
ATOM      9  C   UNL     1       3.993   3.300   0.000  0.00  0.00    +0.226 C 
ATOM     10  O   UNL     1       3.279   3.712   0.000  0.00  0.00    -0.275 OA
BRANCH   4   3
ATOM      3  C   UNL     1       4.181   5.085   0.000  0.00  0.00    +0.162 C 
BRANCH   3   2
ATOM      1  C   UNL     1       3.739   6.444   0.000  0.00  0.00    +0.174 C 
ATOM      2  O   UNL     1       4.353   5.892   0.000  0.00  0.00    -0.349 OA
ENDBRANCH   3   2
ENDBRANCH   4   3
ENDBRANCH  11   9
ENDBRANCH  12  11
ENDBRANCH  13  12
TORSDOF 7
