REMARK  Name = 
REMARK  5 active torsions:
REMARK  status: ('A' for Active; 'I' for Inactive)
REMARK    1  A    between atoms: N_4  and  C_5
REMARK    2  A    between atoms: C_8  and  S_11
REMARK    3  A    between atoms: S_11  and  N_14
REMARK    4  A    between atoms: N_14  and  C_15
REMARK    5  A    between atoms: C_25  and  C_27
REMARK                            x       y       z     vdW  Elec       q    Type
REMARK                         _______ _______ _______ _____ _____    ______ ____
ROOT
ATOM     15  C   UNL     1      -1.296  -1.150   0.000  0.00  0.00    +0.147 A 
ATOM     16  C   UNL     1      -1.167  -0.335   0.000  0.00  0.00    +0.024 A 
ATOM     17  C   UNL     1      -0.397  -0.039   0.000  0.00  0.00    +0.014 A 
ATOM     18  C   UNL     1       0.244  -0.558   0.000  0.00  0.00    +0.041 A 
ATOM     19  C   UNL     1       1.163  -0.557   0.000  0.00  0.00    +0.058 C 
ATOM     20  C   UNL     1       1.713  -0.121   0.000  0.00  0.00    +0.011 C 
ATOM     21  C   UNL     1       1.582  -0.925   0.000  0.00  0.00    +0.043 C 
ATOM     22  C   UNL     1       1.629  -1.912   0.000  0.00  0.00    +0.096 C 
ATOM     23  N   UNL     1       0.813  -2.091   0.000  0.00  0.00    -0.276 N 
ATOM     24  C   UNL     1       1.225  -1.510   0.000  0.00  0.00    +0.099 C 
ATOM     25  C   UNL     1       0.125  -2.547   0.000  0.00  0.00    +0.249 C 
ATOM     26  O   UNL     1      -0.614  -2.179   0.000  0.00  0.00    -0.270 OA
ATOM     37  C   UNL     1       0.622  -0.936   0.000  0.00  0.00    +0.110 C 
ATOM     38  N   UNL     1       0.115  -1.373   0.000  0.00  0.00    -0.298 N 
ATOM     39  C   UNL     1      -0.655  -1.669   0.000  0.00  0.00    +0.277 A 
ATOM     40  O   UNL     1      -1.029  -2.404   0.000  0.00  0.00    -0.266 OA
ENDROOT
BRANCH  25  27
ATOM     27  C   UNL     1       0.176  -3.370   0.000  0.00  0.00    +0.054 A 
ATOM     28  C   UNL     1      -0.512  -3.826   0.000  0.00  0.00    +0.005 A 
ATOM     29  C   UNL     1      -0.461  -4.650   0.000  0.00  0.00    +0.000 A 
ATOM     30  C   UNL     1       0.277  -5.017   0.000  0.00  0.00    +0.000 A 
ATOM     31  C   UNL     1       0.328  -5.841   0.000  0.00  0.00    +0.000 A 
ATOM     32  C   UNL     1      -0.360  -6.296   0.000  0.00  0.00    +0.000 A 
ATOM     33  C   UNL     1      -1.098  -5.929   0.000  0.00  0.00    +0.000 A 
ATOM     34  C   UNL     1      -1.149  -5.105   0.000  0.00  0.00    +0.000 A 
ATOM     35  C   UNL     1       0.965  -4.562   0.000  0.00  0.00    +0.000 A 
ATOM     36  C   UNL     1       0.914  -3.738   0.000  0.00  0.00    +0.005 A 
ENDBRANCH  25  27
BRANCH  15  14
ATOM     14  N   UNL     1      -2.066  -1.445   0.000  0.00  0.00    -0.092 NA
BRANCH  14  11
ATOM     11  S   UNL     1      -2.707  -0.926   0.000  0.00  0.00    +0.093 S 
ATOM     12  O   UNL     1      -3.226  -1.567   0.000  0.00  0.00    -0.148 OA
ATOM     13  O   UNL     1      -2.188  -0.285   0.000  0.00  0.00    -0.148 OA
BRANCH  11   8
ATOM      5  C   UNL     1      -4.631   0.631   0.000  0.00  0.00    +0.073 A 
ATOM      6  C   UNL     1      -3.861   0.927   0.000  0.00  0.00    +0.018 A 
ATOM      7  C   UNL     1      -3.220   0.408   0.000  0.00  0.00    +0.022 A 
ATOM      8  C   UNL     1      -3.349  -0.407   0.000  0.00  0.00    +0.127 A 
ATOM      9  C   UNL     1      -4.119  -0.703   0.000  0.00  0.00    +0.022 A 
ATOM     10  C   UNL     1      -4.760  -0.184   0.000  0.00  0.00    +0.018 A 
BRANCH   5   4
ATOM      1  C   UNL     1      -6.684   1.373   0.000  0.00  0.00    +0.097 C 
ATOM      2  C   UNL     1      -6.042   0.854   0.000  0.00  0.00    +0.246 C 
ATOM      3  O   UNL     1      -6.171   0.040   0.000  0.00  0.00    -0.273 OA
ATOM      4  N   UNL     1      -5.272   1.150   0.000  0.00  0.00    -0.179 NA
ENDBRANCH   5   4
ENDBRANCH  11   8
ENDBRANCH  14  11
ENDBRANCH  15  14
TORSDOF 5
