REMARK  Name = 
REMARK  9 active torsions:
REMARK  status: ('A' for Active; 'I' for Inactive)
REMARK    1  A    between atoms: C_5  and  S_7
REMARK    2  A    between atoms: S_7  and  N_10
REMARK    3  A    between atoms: N_10  and  C_11
REMARK    4  A    between atoms: C_15  and  C_17
REMARK    5  A    between atoms: N_19  and  C_20
REMARK    6  A    between atoms: C_20  and  C_21
REMARK    7  A    between atoms: C_20  and  C_31
REMARK    8  A    between atoms: C_21  and  C_22
REMARK    9  A    between atoms: C_34  and  C_36
REMARK                            x       y       z     vdW  Elec       q    Type
REMARK                         _______ _______ _______ _____ _____    ______ ____
ROOT
ATOM     11  C   UNL     1      -3.584   3.623   0.000  0.00  0.00    +0.102 C 
ATOM     12  C   UNL     1      -3.032   4.236   0.000  0.00  0.00    +0.041 C 
ATOM     13  C   UNL     1      -2.225   4.064   0.000  0.00  0.00    +0.096 C 
ATOM     14  N   UNL     1      -1.970   3.280   0.000  0.00  0.00    -0.268 N 
ATOM     15  C   UNL     1      -2.522   2.666   0.000  0.00  0.00    +0.155 C 
ATOM     16  C   UNL     1      -3.329   2.838   0.000  0.00  0.00    +0.049 C 
ATOM     34  C   UNL     1      -1.163   3.108   0.000  0.00  0.00    +0.267 C 
ATOM     35  O   UNL     1      -0.908   2.323   0.000  0.00  0.00    -0.268 OA
ENDROOT
BRANCH  34  36
ATOM     36  C   UNL     1      -0.611   3.721   0.000  0.00  0.00    +0.133 A 
ATOM     37  C   UNL     1      -0.783   4.528   0.000  0.00  0.00    +0.040 A 
ATOM     38  C   UNL     1      -0.068   4.941   0.000  0.00  0.00    +0.081 A 
ATOM     39  C   UNL     1       0.018   5.761   0.000  0.00  0.00    +0.054 C 
ATOM     40  N   UNL     1       0.545   4.388   0.000  0.00  0.00    -0.173 NA
ATOM     41  N   UNL     1       0.209   3.635   0.000  0.00  0.00    -0.245 N 
ATOM     42  C   UNL     1       0.622   2.920   0.000  0.00  0.00    +0.154 C 
ENDBRANCH  34  36
BRANCH  15  17
ATOM     17  C   UNL     1      -2.267   1.882   0.000  0.00  0.00    +0.260 C 
ATOM     18  O   UNL     1      -2.819   1.269   0.000  0.00  0.00    -0.272 OA
ATOM     19  N   UNL     1      -1.460   1.710   0.000  0.00  0.00    -0.196 NA
BRANCH  19  20
ATOM     20  C   UNL     1      -1.205   0.926   0.000  0.00  0.00    +0.179 C 
BRANCH  20  31
ATOM     31  C   UNL     1      -1.758   0.313   0.000  0.00  0.00    +0.281 C 
ATOM     32  N   UNL     1      -1.502  -0.472   0.000  0.00  0.00    -0.086 NA
ATOM     33  O   UNL     1      -2.564   0.484   0.000  0.00  0.00    -0.270 OA
ENDBRANCH  20  31
BRANCH  20  21
ATOM     21  C   UNL     1      -0.398   0.754   0.000  0.00  0.00    +0.059 C 
BRANCH  21  22
ATOM     22  C   UNL     1      -0.143  -0.030   0.000  0.00  0.00    +0.001 A 
ATOM     23  C   UNL     1      -0.628  -0.698   0.000  0.00  0.00    +0.095 A 
ATOM     24  N   UNL     1      -0.143  -1.365   0.000  0.00  0.00    -0.244 NA
ATOM     25  C   UNL     1       0.641  -1.110   0.000  0.00  0.00    +0.081 A 
ATOM     26  C   UNL     1       0.641  -0.285   0.000  0.00  0.00    +0.015 A 
ATOM     27  C   UNL     1       1.356   0.127   0.000  0.00  0.00    +0.001 A 
ATOM     28  C   UNL     1       2.070  -0.285   0.000  0.00  0.00    +0.000 A 
ATOM     29  C   UNL     1       2.070  -1.110   0.000  0.00  0.00    +0.002 A 
ATOM     30  C   UNL     1       1.356  -1.523   0.000  0.00  0.00    +0.019 A 
ENDBRANCH  21  22
ENDBRANCH  20  21
ENDBRANCH  19  20
ENDBRANCH  15  17
BRANCH  11  10
ATOM     10  N   UNL     1      -4.391   3.794   0.000  0.00  0.00    -0.078 NA
BRANCH  10   7
ATOM      7  S   UNL     1      -4.646   4.579   0.000  0.00  0.00    +0.095 S 
ATOM      8  O   UNL     1      -5.431   4.324   0.000  0.00  0.00    -0.150 OA
ATOM      9  O   UNL     1      -3.861   4.834   0.000  0.00  0.00    -0.150 OA
BRANCH   7   5
ATOM      1  C   UNL     1      -6.353   6.928   0.000  0.00  0.00    +0.132 C 
ATOM      2  N   UNL     1      -5.686   6.443   0.000  0.00  0.00    -0.305 N 
ATOM      3  C   UNL     1      -4.901   6.698   0.000  0.00  0.00    +0.180 A 
ATOM      4  N   UNL     1      -4.416   6.031   0.000  0.00  0.00    -0.204 NA
ATOM      5  C   UNL     1      -4.901   5.363   0.000  0.00  0.00    +0.223 A 
ATOM      6  C   UNL     1      -5.686   5.618   0.000  0.00  0.00    +0.117 A 
ENDBRANCH   7   5
ENDBRANCH  10   7
ENDBRANCH  11  10
TORSDOF 9
