REMARK  Name = 
REMARK  7 active torsions:
REMARK  status: ('A' for Active; 'I' for Inactive)
REMARK    1  A    between atoms: C_5  and  C_6
REMARK    2  A    between atoms: C_6  and  C_7
REMARK    3  A    between atoms: N_9  and  C_10
REMARK    4  A    between atoms: C_10  and  C_11
REMARK    5  A    between atoms: C_19  and  C_20
REMARK    6  A    between atoms: C_20  and  N_21
REMARK    7  A    between atoms: N_24  and  C_25
REMARK                            x       y       z     vdW  Elec       q    Type
REMARK                         _______ _______ _______ _____ _____    ______ ____
ROOT
ATOM      1  O   UNL     1      -0.925  -3.618   0.000  0.00  0.00    -0.218 OA
ATOM      2  C   UNL     1      -0.754  -2.811   0.000  0.00  0.00    +0.213 C 
ATOM      3  C   UNL     1      -1.306  -2.197   0.000  0.00  0.00    +0.212 C 
ATOM      4  O   UNL     1      -2.126  -2.284   0.000  0.00  0.00    -0.218 OA
ATOM      5  C   UNL     1      -0.893  -1.483   0.000  0.00  0.00    +0.157 C 
ATOM     18  O   UNL     1      -0.086  -1.655   0.000  0.00  0.00    -0.351 OA
ATOM     19  C   UNL     1       0.000  -2.475   0.000  0.00  0.00    +0.170 C 
ENDROOT
BRANCH   5   6
ATOM      6  C   UNL     1      -1.229  -0.729   0.000  0.00  0.00    +0.119 C 
BRANCH   6   7
ATOM      7  C   UNL     1      -2.049  -0.643   0.000  0.00  0.00    +0.244 C 
ATOM      8  O   UNL     1      -2.534  -1.310   0.000  0.00  0.00    -0.273 OA
ATOM      9  N   UNL     1      -2.385   0.111   0.000  0.00  0.00    -0.200 NA
BRANCH   9  10
ATOM     10  C   UNL     1      -3.205   0.197   0.000  0.00  0.00    +0.141 C 
BRANCH  10  11
ATOM     11  C   UNL     1      -3.541   0.951   0.000  0.00  0.00    -0.000 A 
ATOM     12  C   UNL     1      -4.361   1.037   0.000  0.00  0.00    -0.000 A 
ATOM     13  C   UNL     1      -4.697   1.790   0.000  0.00  0.00    +0.029 A 
ATOM     14  C   UNL     1      -4.212   2.458   0.000  0.00  0.00    +0.140 A 
ATOM     15  F   UNL     1      -4.548   3.212   0.000  0.00  0.00    -0.204 F 
ATOM     16  C   UNL     1      -3.392   2.372   0.000  0.00  0.00    +0.029 A 
ATOM     17  C   UNL     1      -3.056   1.618   0.000  0.00  0.00    -0.000 A 
ENDBRANCH  10  11
ENDBRANCH   9  10
ENDBRANCH   6   7
ENDBRANCH   5   6
BRANCH  19  20
ATOM     20  C   UNL     1       0.715  -2.888   0.000  0.00  0.00    +0.149 C 
BRANCH  20  21
ATOM     21  N   UNL     1       1.429  -2.475   0.000  0.00  0.00    -0.184 NA
ATOM     22  C   UNL     1       2.143  -2.888   0.000  0.00  0.00    +0.344 C 
ATOM     23  O   UNL     1       2.143  -3.712   0.000  0.00  0.00    -0.249 OA
ATOM     24  N   UNL     1       2.858  -2.475   0.000  0.00  0.00    -0.161 NA
BRANCH  24  25
ATOM     25  C   UNL     1       3.572  -2.888   0.000  0.00  0.00    +0.075 A 
ATOM     26  C   UNL     1       4.287  -2.475   0.000  0.00  0.00    +0.017 A 
ATOM     27  C   UNL     1       5.001  -2.888   0.000  0.00  0.00    +0.001 A 
ATOM     28  C   UNL     1       5.001  -3.712   0.000  0.00  0.00    +0.000 A 
ATOM     29  C   UNL     1       4.287  -4.125   0.000  0.00  0.00    +0.001 A 
ATOM     30  C   UNL     1       3.572  -3.712   0.000  0.00  0.00    +0.017 A 
ENDBRANCH  24  25
ENDBRANCH  20  21
ENDBRANCH  19  20
TORSDOF 7
