REMARK  Name = 
REMARK  7 active torsions:
REMARK  status: ('A' for Active; 'I' for Inactive)
REMARK    1  A    between atoms: C_2  and  C_3
REMARK    2  A    between atoms: C_8  and  C_9
REMARK    3  A    between atoms: C_9  and  C_10
REMARK    4  A    between atoms: N_12  and  C_13
REMARK    5  A    between atoms: C_13  and  C_14
REMARK    6  A    between atoms: N_26  and  C_27
REMARK    7  A    between atoms: C_29  and  C_33
REMARK                            x       y       z     vdW  Elec       q    Type
REMARK                         _______ _______ _______ _____ _____    ______ ____
ROOT
ATOM      3  C   UNL     1      -2.143   3.712   0.000  0.00  0.00    +0.020 C 
ATOM      4  C   UNL     1      -2.143   4.537   0.000  0.00  0.00    +0.095 C 
ATOM      5  N   UNL     1      -1.429   4.950   0.000  0.00  0.00    -0.263 N 
ATOM      6  C   UNL     1      -0.715   4.537   0.000  0.00  0.00    +0.095 C 
ATOM      7  C   UNL     1      -0.715   3.712   0.000  0.00  0.00    +0.022 C 
ATOM      8  C   UNL     1      -1.429   3.300   0.000  0.00  0.00    +0.012 C 
ATOM     24  C   UNL     1      -1.429   5.775   0.000  0.00  0.00    +0.327 C 
ATOM     25  O   UNL     1      -0.715   6.188   0.000  0.00  0.00    -0.250 OA
ATOM     26  N   UNL     1      -2.143   6.188   0.000  0.00  0.00    -0.162 NA
ENDROOT
BRANCH  26  27
ATOM     27  C   UNL     1      -2.143   7.013   0.000  0.00  0.00    +0.075 A 
ATOM     28  C   UNL     1      -2.858   7.425   0.000  0.00  0.00    +0.021 A 
ATOM     29  C   UNL     1      -2.858   8.250   0.000  0.00  0.00    +0.073 A 
ATOM     30  C   UNL     1      -2.143   8.662   0.000  0.00  0.00    +0.004 A 
ATOM     31  C   UNL     1      -1.429   8.250   0.000  0.00  0.00    +0.001 A 
ATOM     32  C   UNL     1      -1.429   7.425   0.000  0.00  0.00    +0.017 A 
BRANCH  29  33
ATOM     33  C   UNL     1      -3.572   8.662   0.000  0.00  0.00    +0.419 C 
ATOM     34  F   UNL     1      -4.287   9.075   0.000  0.00  0.00    -0.166 F 
ATOM     35  F   UNL     1      -3.160   9.377   0.000  0.00  0.00    -0.166 F 
ATOM     36  F   UNL     1      -3.985   7.948   0.000  0.00  0.00    -0.166 F 
ENDBRANCH  29  33
ENDBRANCH  26  27
BRANCH   3   2
ATOM      1  C   UNL     1      -2.858   2.475   0.000  0.00  0.00    +0.000 C 
ATOM      2  C   UNL     1      -2.858   3.300   0.000  0.00  0.00    +0.002 C 
ENDBRANCH   3   2
BRANCH   8   9
ATOM      9  C   UNL     1      -1.429   2.475   0.000  0.00  0.00    +0.087 C 
BRANCH   9  10
ATOM     10  C   UNL     1      -0.715   2.062   0.000  0.00  0.00    +0.242 C 
ATOM     11  O   UNL     1       0.000   2.475   0.000  0.00  0.00    -0.273 OA
ATOM     12  N   UNL     1      -0.715   1.238   0.000  0.00  0.00    -0.201 NA
BRANCH  12  13
ATOM     13  C   UNL     1       0.000   0.825   0.000  0.00  0.00    +0.141 C 
BRANCH  13  14
ATOM     14  C   UNL     1       0.000   0.000   0.000  0.00  0.00    -0.001 A 
ATOM     15  C   UNL     1      -0.715  -0.412   0.000  0.00  0.00    -0.003 A 
ATOM     16  C   UNL     1      -0.715  -1.238   0.000  0.00  0.00    -0.000 A 
ATOM     17  C   UNL     1       0.000  -1.650   0.000  0.00  0.00    -0.000 A 
ATOM     18  C   UNL     1       0.715  -1.238   0.000  0.00  0.00    -0.000 A 
ATOM     19  C   UNL     1       0.715  -0.412   0.000  0.00  0.00    -0.002 A 
ATOM     20  C   UNL     1       1.429   0.000   0.000  0.00  0.00    -0.000 A 
ATOM     21  C   UNL     1       2.143  -0.412   0.000  0.00  0.00    -0.000 A 
ATOM     22  C   UNL     1       2.143  -1.238   0.000  0.00  0.00    -0.000 A 
ATOM     23  C   UNL     1       1.429  -1.650   0.000  0.00  0.00    -0.000 A 
ENDBRANCH  13  14
ENDBRANCH  12  13
ENDBRANCH   9  10
ENDBRANCH   8   9
TORSDOF 7
