REMARK  Name = 
REMARK  5 active torsions:
REMARK  status: ('A' for Active; 'I' for Inactive)
REMARK    1  A    between atoms: N_4  and  C_5
REMARK    2  A    between atoms: C_7  and  C_13
REMARK    3  A    between atoms: N_15  and  C_16
REMARK    4  A    between atoms: C_16  and  C_17
REMARK    5  A    between atoms: C_17  and  C_18
REMARK                            x       y       z     vdW  Elec       q    Type
REMARK                         _______ _______ _______ _____ _____    ______ ____
ROOT
ATOM      5  C   UNL     1      -2.143   2.888   0.000  0.00  0.00    +0.150 C 
ATOM      6  C   UNL     1      -1.429   2.475   0.000  0.00  0.00    -0.002 C 
ATOM      7  C   UNL     1      -1.429   1.650   0.000  0.00  0.00    +0.033 C 
ATOM      8  C   UNL     1      -2.143   1.238   0.000  0.00  0.00    +0.066 C 
ATOM      9  C   UNL     1      -2.858   1.650   0.000  0.00  0.00    +0.189 C 
ATOM     10  O   UNL     1      -3.572   1.238   0.000  0.00  0.00    -0.220 OA
ATOM     11  C   UNL     1      -2.858   2.475   0.000  0.00  0.00    +0.206 C 
ATOM     12  O   UNL     1      -3.572   2.888   0.000  0.00  0.00    -0.218 OA
ENDROOT
BRANCH   5   4
ATOM      1  C   UNL     1      -2.858   4.950   0.000  0.00  0.00    +0.096 C 
ATOM      2  C   UNL     1      -2.858   4.125   0.000  0.00  0.00    +0.242 C 
ATOM      3  O   UNL     1      -3.572   3.712   0.000  0.00  0.00    -0.273 OA
ATOM      4  N   UNL     1      -2.143   3.712   0.000  0.00  0.00    -0.200 NA
ENDBRANCH   5   4
BRANCH   7  13
ATOM     13  C   UNL     1      -0.715   1.238   0.000  0.00  0.00    +0.261 C 
ATOM     14  O   UNL     1      -0.715   0.412   0.000  0.00  0.00    -0.269 OA
ATOM     15  N   UNL     1       0.000   1.650   0.000  0.00  0.00    -0.201 NA
BRANCH  15  16
ATOM     16  C   UNL     1       0.715   1.238   0.000  0.00  0.00    +0.125 C 
BRANCH  16  17
ATOM     17  C   UNL     1       1.429   1.650   0.000  0.00  0.00    +0.112 C 
BRANCH  17  18
ATOM     18  C   UNL     1       2.143   1.238   0.000  0.00  0.00    +0.263 C 
ATOM     19  N   UNL     1       2.858   1.650   0.000  0.00  0.00    -0.088 NA
ATOM     20  O   UNL     1       2.143   0.412   0.000  0.00  0.00    -0.272 OA
ENDBRANCH  17  18
ENDBRANCH  16  17
ENDBRANCH  15  16
ENDBRANCH   7  13
TORSDOF 5
