REMARK  Name = 
REMARK  4 active torsions:
REMARK  status: ('A' for Active; 'I' for Inactive)
REMARK    1  A    between atoms: C_3  and  C_4
REMARK    2  A    between atoms: C_4  and  N_5
REMARK    3  A    between atoms: C_9  and  C_10
REMARK    4  A    between atoms: C_12  and  C_15
REMARK                            x       y       z     vdW  Elec       q    Type
REMARK                         _______ _______ _______ _____ _____    ______ ____
ROOT
ATOM      5  N   UNL     1      -1.866  -1.412   0.000  0.00  0.00    -0.260 NA
ATOM      6  C   UNL     1      -1.530  -2.166   0.000  0.00  0.00    +0.073 C 
ATOM      7  C   UNL     1      -2.143  -2.718   0.000  0.00  0.00    +0.019 C 
ATOM      8  C   UNL     1      -2.858  -2.306   0.000  0.00  0.00    +0.027 C 
ATOM      9  C   UNL     1      -2.686  -1.499   0.000  0.00  0.00    +0.138 C 
ENDROOT
BRANCH   9  10
ATOM     10  C   UNL     1      -3.238  -0.886   0.000  0.00  0.00    +0.251 A 
ATOM     11  N   UNL     1      -4.059  -0.972   0.000  0.00  0.00    -0.189 NA
ATOM     12  C   UNL     1      -4.394  -0.218   0.000  0.00  0.00    +0.208 A 
ATOM     13  N   UNL     1      -3.781   0.334   0.000  0.00  0.00    -0.056 NA
ATOM     14  O   UNL     1      -3.067  -0.079   0.000  0.00  0.00    -0.336 OA
BRANCH  12  15
ATOM     15  C   UNL     1      -5.202  -0.047   0.000  0.00  0.00    +0.093 A 
ATOM     16  C   UNL     1      -5.753  -0.660   0.000  0.00  0.00    +0.176 A 
ATOM     17  N   UNL     1      -5.498  -1.444   0.000  0.00  0.00    -0.107 NA
ATOM     18  N   UNL     1      -6.561  -0.488   0.000  0.00  0.00    -0.206 NA
ATOM     19  C   UNL     1      -6.815   0.296   0.000  0.00  0.00    +0.200 A 
ATOM     20  N   UNL     1      -6.263   0.910   0.000  0.00  0.00    -0.222 NA
ATOM     21  C   UNL     1      -5.456   0.738   0.000  0.00  0.00    +0.107 A 
ENDBRANCH  12  15
ENDBRANCH   9  10
BRANCH   5   4
ATOM      4  C   UNL     1      -1.453  -0.698   0.000  0.00  0.00    +0.137 C 
BRANCH   4   3
ATOM      1  C   UNL     1      -0.398   0.754   0.000  0.00  0.00    +0.132 C 
ATOM      2  N   UNL     1      -0.143  -0.030   0.000  0.00  0.00    -0.312 N 
ATOM      3  C   UNL     1      -0.628  -0.698   0.000  0.00  0.00    +0.137 A 
ATOM     22  N   UNL     1      -0.143  -1.365   0.000  0.00  0.00    -0.230 NA
ATOM     23  C   UNL     1       0.641  -1.110   0.000  0.00  0.00    +0.098 A 
ATOM     24  C   UNL     1       0.641  -0.285   0.000  0.00  0.00    +0.079 A 
ATOM     25  C   UNL     1       1.356   0.127   0.000  0.00  0.00    +0.019 A 
ATOM     26  C   UNL     1       2.070  -0.285   0.000  0.00  0.00    +0.002 A 
ATOM     27  C   UNL     1       2.070  -1.110   0.000  0.00  0.00    +0.002 A 
ATOM     28  C   UNL     1       1.356  -1.523   0.000  0.00  0.00    +0.021 A 
ENDBRANCH   4   3
ENDBRANCH   5   4
TORSDOF 4
