REMARK  Name = 
REMARK  4 active torsions:
REMARK  status: ('A' for Active; 'I' for Inactive)
REMARK    1  A    between atoms: C_5  and  C_8
REMARK    2  A    between atoms: N_10  and  C_11
REMARK    3  A    between atoms: C_15  and  N_19
REMARK    4  A    between atoms: C_23  and  C_24
REMARK                            x       y       z     vdW  Elec       q    Type
REMARK                         _______ _______ _______ _____ _____    ______ ____
ROOT
ATOM     11  C   UNL     1       5.131   3.332   0.000  0.00  0.00    +0.155 C 
ATOM     12  C   UNL     1       5.683   2.719   0.000  0.00  0.00    +0.166 C 
ATOM     13  O   UNL     1       5.270   2.005   0.000  0.00  0.00    -0.350 OA
ATOM     14  C   UNL     1       4.463   2.176   0.000  0.00  0.00    +0.169 C 
ATOM     15  C   UNL     1       3.710   1.841   0.000  0.00  0.00    +0.167 C 
ATOM     16  C   UNL     1       3.158   2.454   0.000  0.00  0.00    +0.169 C 
ATOM     17  O   UNL     1       3.570   3.168   0.000  0.00  0.00    -0.350 OA
ATOM     18  C   UNL     1       4.377   2.997   0.000  0.00  0.00    +0.167 C 
ENDROOT
BRANCH  15  19
ATOM     19  N   UNL     1       3.538   1.034   0.000  0.00  0.00    -0.210 N 
ATOM     20  N   UNL     1       4.090   0.420   0.000  0.00  0.00    -0.043 NA
ATOM     21  N   UNL     1       3.678  -0.294   0.000  0.00  0.00    -0.023 NA
ATOM     22  N   UNL     1       2.871  -0.122   0.000  0.00  0.00    -0.108 NA
ATOM     23  C   UNL     1       2.784   0.698   0.000  0.00  0.00    +0.184 A 
BRANCH  23  24
ATOM     24  C   UNL     1       2.070   1.110   0.000  0.00  0.00    +0.041 A 
ATOM     25  C   UNL     1       1.356   0.698   0.000  0.00  0.00    +0.043 A 
ATOM     26  C   UNL     1       0.641   1.110   0.000  0.00  0.00    +0.177 A 
ATOM     27  C   UNL     1       0.641   1.935   0.000  0.00  0.00    +0.176 A 
ATOM     28  O   UNL     1      -0.143   2.190   0.000  0.00  0.00    -0.435 OA
ATOM     29  C   UNL     1      -0.628   1.523   0.000  0.00  0.00    +0.429 C 
ATOM     30  O   UNL     1      -0.143   0.856   0.000  0.00  0.00    -0.435 OA
ATOM     31  C   UNL     1       1.356   2.348   0.000  0.00  0.00    +0.040 A 
ATOM     32  C   UNL     1       2.070   1.935   0.000  0.00  0.00    +0.006 A 
ENDBRANCH  23  24
ENDBRANCH  15  19
BRANCH  11  10
ATOM      8  C   UNL     1       6.087   4.394   0.000  0.00  0.00    +0.265 C 
ATOM      9  O   UNL     1       6.700   3.842   0.000  0.00  0.00    -0.268 OA
ATOM     10  N   UNL     1       5.302   4.139   0.000  0.00  0.00    -0.198 NA
BRANCH   8   5
ATOM      1  C   UNL     1       6.773   7.622   0.000  0.00  0.00    +0.031 C 
ATOM      2  C   UNL     1       6.602   6.815   0.000  0.00  0.00    -0.022 A 
ATOM      3  C   UNL     1       7.215   6.263   0.000  0.00  0.00    -0.004 A 
ATOM      4  C   UNL     1       7.043   5.456   0.000  0.00  0.00    +0.004 A 
ATOM      5  C   UNL     1       6.258   5.201   0.000  0.00  0.00    +0.055 A 
ATOM      6  C   UNL     1       5.645   5.753   0.000  0.00  0.00    +0.004 A 
ATOM      7  C   UNL     1       5.817   6.560   0.000  0.00  0.00    -0.004 A 
ENDBRANCH   8   5
ENDBRANCH  11  10
TORSDOF 4
