REMARK  Name = 
REMARK  7 active torsions:
REMARK  status: ('A' for Active; 'I' for Inactive)
REMARK    1  A    between atoms: C_2  and  C_5
REMARK    2  A    between atoms: N_10  and  C_11
REMARK    3  A    between atoms: C_15  and  N_19
REMARK    4  A    between atoms: C_20  and  C_22
REMARK    5  A    between atoms: C_22  and  S_23
REMARK    6  A    between atoms: S_23  and  C_24
REMARK    7  A    between atoms: C_24  and  C_25
REMARK                            x       y       z     vdW  Elec       q    Type
REMARK                         _______ _______ _______ _____ _____    ______ ____
ROOT
ATOM     11  C   UNL     1      -4.909  -0.091   0.000  0.00  0.00    +0.154 C 
ATOM     12  C   UNL     1      -4.823   0.729   0.000  0.00  0.00    +0.166 C 
ATOM     13  O   UNL     1      -4.016   0.901   0.000  0.00  0.00    -0.350 OA
ATOM     14  C   UNL     1      -3.604   0.186   0.000  0.00  0.00    +0.166 C 
ATOM     15  C   UNL     1      -2.850  -0.149   0.000  0.00  0.00    +0.154 C 
ATOM     16  C   UNL     1      -2.936  -0.970   0.000  0.00  0.00    +0.166 C 
ATOM     17  O   UNL     1      -3.743  -1.141   0.000  0.00  0.00    -0.350 OA
ATOM     18  C   UNL     1      -4.156  -0.427   0.000  0.00  0.00    +0.166 C 
ENDROOT
BRANCH  11  10
ATOM      5  C   UNL     1      -7.767  -0.091   0.000  0.00  0.00    +0.063 A 
ATOM      6  C   UNL     1      -7.767   0.734   0.000  0.00  0.00    +0.035 A 
ATOM      7  C   UNL     1      -7.053   1.146   0.000  0.00  0.00    +0.103 A 
ATOM      8  N   UNL     1      -6.338   0.734   0.000  0.00  0.00    -0.211 NA
ATOM      9  C   UNL     1      -6.338  -0.091   0.000  0.00  0.00    +0.236 A 
ATOM     10  N   UNL     1      -5.624  -0.504   0.000  0.00  0.00    -0.200 NA
ATOM     28  N   UNL     1      -7.053  -0.504   0.000  0.00  0.00    -0.217 NA
BRANCH   5   2
ATOM      1  C   UNL     1      -9.196  -0.916   0.000  0.00  0.00    +0.006 C 
ATOM      2  C   UNL     1      -8.482  -0.504   0.000  0.00  0.00    +0.036 C 
ATOM      3  C   UNL     1      -8.069  -1.218   0.000  0.00  0.00    +0.006 C 
ATOM      4  C   UNL     1      -8.894   0.211   0.000  0.00  0.00    +0.006 C 
ENDBRANCH   5   2
ENDBRANCH  11  10
BRANCH  15  19
ATOM     19  N   UNL     1      -2.136   0.263   0.000  0.00  0.00    -0.201 NA
ATOM     20  C   UNL     1      -1.421  -0.149   0.000  0.00  0.00    +0.252 C 
ATOM     21  O   UNL     1      -1.421  -0.974   0.000  0.00  0.00    -0.272 OA
BRANCH  20  22
ATOM     22  C   UNL     1      -0.707   0.263   0.000  0.00  0.00    +0.145 C 
BRANCH  22  23
ATOM     23  S   UNL     1       0.008  -0.149   0.000  0.00  0.00    -0.119 S 
BRANCH  23  24
ATOM     24  C   UNL     1       0.722   0.263   0.000  0.00  0.00    +0.172 C 
BRANCH  24  25
ATOM     25  C   UNL     1       1.437  -0.149   0.000  0.00  0.00    +0.376 C 
ATOM     26  O   UNL     1       2.151   0.263   0.000  0.00  0.00    -0.245 OA
ATOM     27  O   UNL     1       1.437  -0.974   0.000  0.00  0.00    -0.245 OA
ENDBRANCH  24  25
ENDBRANCH  23  24
ENDBRANCH  22  23
ENDBRANCH  20  22
ENDBRANCH  15  19
TORSDOF 7
