REMARK  Name = 
REMARK  2 active torsions:
REMARK  status: ('A' for Active; 'I' for Inactive)
REMARK    1  A    between atoms: C_2  and  C_26
REMARK    2  A    between atoms: C_15  and  C_20
REMARK                            x       y       z     vdW  Elec       q    Type
REMARK                         _______ _______ _______ _____ _____    ______ ____
ROOT
ATOM      1  O   UNL     1       7.517   1.169   0.000  0.00  0.00    -0.269 OA
ATOM      2  C   UNL     1       6.912   0.608   0.000  0.00  0.00    +0.255 C 
ATOM      3  N   UNL     1       6.124   0.851   0.000  0.00  0.00    -0.272 N 
ATOM      4  C   UNL     1       5.940   1.655   0.000  0.00  0.00    +0.115 C 
ATOM      5  C   UNL     1       5.152   1.899   0.000  0.00  0.00    +0.116 C 
ATOM      6  N   UNL     1       4.547   1.337   0.000  0.00  0.00    -0.266 N 
ATOM      7  C   UNL     1       4.731   0.533   0.000  0.00  0.00    +0.174 C 
ATOM      8  C   UNL     1       5.519   0.290   0.000  0.00  0.00    +0.123 C 
ATOM      9  C   UNL     1       4.216  -0.112   0.000  0.00  0.00    +0.265 C 
ATOM     10  O   UNL     1       4.574  -0.855   0.000  0.00  0.00    -0.271 OA
ATOM     11  N   UNL     1       3.391  -0.112   0.000  0.00  0.00    -0.178 NA
ATOM     12  C   UNL     1       2.877   0.533   0.000  0.00  0.00    +0.078 A 
ATOM     13  C   UNL     1       2.088   0.290   0.000  0.00  0.00    +0.017 A 
ATOM     14  C   UNL     1       1.484   0.851   0.000  0.00  0.00    +0.001 A 
ATOM     15  C   UNL     1       1.667   1.655   0.000  0.00  0.00    +0.000 A 
ATOM     16  C   UNL     1       2.456   1.899   0.000  0.00  0.00    +0.006 A 
ATOM     17  C   UNL     1       3.060   1.337   0.000  0.00  0.00    +0.069 A 
ATOM     18  C   UNL     1       3.804   1.695   0.000  0.00  0.00    +0.251 C 
ATOM     19  O   UNL     1       3.804   2.520   0.000  0.00  0.00    -0.270 OA
ENDROOT
BRANCH  15  20
ATOM     20  C   UNL     1       1.062   2.216   0.000  0.00  0.00    +0.000 A 
ATOM     21  C   UNL     1       0.274   1.973   0.000  0.00  0.00    +0.000 A 
ATOM     22  C   UNL     1      -0.331   2.534   0.000  0.00  0.00    +0.000 A 
ATOM     23  C   UNL     1      -0.147   3.339   0.000  0.00  0.00    +0.000 A 
ATOM     24  C   UNL     1       0.641   3.582   0.000  0.00  0.00    +0.000 A 
ATOM     25  C   UNL     1       1.246   3.021   0.000  0.00  0.00    +0.000 A 
ENDBRANCH  15  20
BRANCH   2  26
ATOM     26  C   UNL     1       7.096  -0.197   0.000  0.00  0.00    +0.083 A 
ATOM     27  C   UNL     1       7.854  -0.521   0.000  0.00  0.00    +0.012 A 
ATOM     28  C   UNL     1       7.780  -1.342   0.000  0.00  0.00    +0.008 A 
ATOM     29  C   UNL     1       6.976  -1.526   0.000  0.00  0.00    +0.036 A 
ATOM     30  S   UNL     1       6.553  -0.818   0.000  0.00  0.00    -0.082 S 
ENDBRANCH   2  26
TORSDOF 2
