REMARK  Name = 
REMARK  8 active torsions:
REMARK  status: ('A' for Active; 'I' for Inactive)
REMARK    1  A    between atoms: S_2  and  N_4
REMARK    2  A    between atoms: S_2  and  C_28
REMARK    3  A    between atoms: N_4  and  C_5
REMARK    4  A    between atoms: C_5  and  C_6
REMARK    5  A    between atoms: C_13  and  C_14
REMARK    6  A    between atoms: C_14  and  N_15
REMARK    7  A    between atoms: C_18  and  C_19
REMARK    8  A    between atoms: C_19  and  C_20
REMARK                            x       y       z     vdW  Elec       q    Type
REMARK                         _______ _______ _______ _____ _____    ______ ____
ROOT
ATOM      6  C   UNL     1       1.814  -2.106   0.000  0.00  0.00    +0.077 C 
ATOM      7  C   UNL     1       1.661  -1.343   0.000  0.00  0.00    +0.018 C 
ATOM      8  C   UNL     1       0.923  -1.010   0.000  0.00  0.00    +0.005 C 
ATOM      9  C   UNL     1       0.961  -0.114   0.000  0.00  0.00    +0.017 C 
ATOM     10  C   UNL     1       1.205  -0.720   0.000  0.00  0.00    +0.072 C 
ATOM     11  N   UNL     1       1.065  -1.759   0.000  0.00  0.00    -0.272 NA
ATOM     12  C   UNL     1       0.226  -2.118   0.000  0.00  0.00    +0.073 C 
ATOM     13  C   UNL     1       0.119  -1.362   0.000  0.00  0.00    +0.032 C 
ENDROOT
BRANCH   6   5
ATOM      5  C   UNL     1       2.324  -2.754   0.000  0.00  0.00    +0.131 C 
BRANCH   5   4
ATOM      4  N   UNL     1       3.141  -2.636   0.000  0.00  0.00    -0.076 NA
BRANCH   4   2
ATOM      1  O   UNL     1       3.003  -3.794   0.000  0.00  0.00    -0.152 OA
ATOM      2  S   UNL     1       3.651  -3.284   0.000  0.00  0.00    +0.077 S 
ATOM      3  O   UNL     1       4.300  -2.773   0.000  0.00  0.00    -0.152 OA
BRANCH   2  28
ATOM     28  C   UNL     1       4.162  -3.932   0.000  0.00  0.00    +0.124 A 
ATOM     29  C   UNL     1       4.978  -3.814   0.000  0.00  0.00    +0.020 A 
ATOM     30  C   UNL     1       5.489  -4.462   0.000  0.00  0.00    +0.001 A 
ATOM     31  C   UNL     1       5.183  -5.228   0.000  0.00  0.00    +0.000 A 
ATOM     32  C   UNL     1       4.366  -5.346   0.000  0.00  0.00    +0.001 A 
ATOM     33  C   UNL     1       3.856  -4.698   0.000  0.00  0.00    +0.020 A 
ENDBRANCH   2  28
ENDBRANCH   4   2
ENDBRANCH   5   4
ENDBRANCH   6   5
BRANCH  13  14
ATOM     14  C   UNL     1      -0.602  -0.960   0.000  0.00  0.00    +0.073 C 
BRANCH  14  15
ATOM     15  N   UNL     1      -1.310  -1.384   0.000  0.00  0.00    -0.273 NA
ATOM     16  C   UNL     1      -1.297  -2.208   0.000  0.00  0.00    +0.072 C 
ATOM     17  C   UNL     1      -2.006  -2.632   0.000  0.00  0.00    +0.018 C 
ATOM     18  C   UNL     1      -2.726  -2.230   0.000  0.00  0.00    +0.007 C 
ATOM     26  C   UNL     1      -2.739  -1.405   0.000  0.00  0.00    +0.018 C 
ATOM     27  C   UNL     1      -2.030  -0.982   0.000  0.00  0.00    +0.072 C 
BRANCH  18  19
ATOM     19  C   UNL     1      -3.434  -2.653   0.000  0.00  0.00    +0.026 C 
BRANCH  19  20
ATOM     20  C   UNL     1      -4.155  -2.251   0.000  0.00  0.00    -0.022 A 
ATOM     21  C   UNL     1      -4.863  -2.675   0.000  0.00  0.00    -0.004 A 
ATOM     22  C   UNL     1      -5.584  -2.273   0.000  0.00  0.00    -0.000 A 
ATOM     23  C   UNL     1      -5.596  -1.448   0.000  0.00  0.00    -0.000 A 
ATOM     24  C   UNL     1      -4.888  -1.025   0.000  0.00  0.00    -0.000 A 
ATOM     25  C   UNL     1      -4.167  -1.427   0.000  0.00  0.00    -0.004 A 
ENDBRANCH  19  20
ENDBRANCH  18  19
ENDBRANCH  14  15
ENDBRANCH  13  14
TORSDOF 8
