REMARK  Name = 
REMARK  7 active torsions:
REMARK  status: ('A' for Active; 'I' for Inactive)
REMARK    1  A    between atoms: C_5  and  C_6
REMARK    2  A    between atoms: C_6  and  C_7
REMARK    3  A    between atoms: C_10  and  C_12
REMARK    4  A    between atoms: C_20  and  C_21
REMARK    5  A    between atoms: C_21  and  N_22
REMARK    6  A    between atoms: N_22  and  C_23
REMARK    7  A    between atoms: C_23  and  C_24
REMARK                            x       y       z     vdW  Elec       q    Type
REMARK                         _______ _______ _______ _____ _____    ______ ____
ROOT
ATOM      1  O   UNL     1       7.038  -2.537   0.000  0.00  0.00    -0.220 OA
ATOM      2  C   UNL     1       6.324  -2.949   0.000  0.00  0.00    +0.180 C 
ATOM      3  C   UNL     1       6.324  -3.774   0.000  0.00  0.00    +0.038 C 
ATOM      4  C   UNL     1       5.609  -4.187   0.000  0.00  0.00    +0.033 C 
ATOM      5  C   UNL     1       4.895  -3.774   0.000  0.00  0.00    +0.121 C 
ATOM     19  O   UNL     1       4.895  -2.949   0.000  0.00  0.00    -0.354 OA
ATOM     20  C   UNL     1       5.609  -2.537   0.000  0.00  0.00    +0.163 C 
ENDROOT
BRANCH   5   6
ATOM      6  C   UNL     1       4.180  -4.187   0.000  0.00  0.00    +0.079 C 
BRANCH   6   7
ATOM      7  C   UNL     1       4.180  -5.012   0.000  0.00  0.00    +0.103 A 
ATOM      8  N   UNL     1       4.848  -5.497   0.000  0.00  0.00    -0.081 NA
ATOM      9  O   UNL     1       4.593  -6.281   0.000  0.00  0.00    -0.354 OA
ATOM     10  C   UNL     1       3.768  -6.281   0.000  0.00  0.00    +0.177 A 
ATOM     11  C   UNL     1       3.513  -5.497   0.000  0.00  0.00    +0.058 A 
BRANCH  10  12
ATOM     12  C   UNL     1       3.283  -6.949   0.000  0.00  0.00    +0.037 A 
ATOM     13  C   UNL     1       3.618  -7.702   0.000  0.00  0.00    +0.005 A 
ATOM     14  C   UNL     1       3.133  -8.370   0.000  0.00  0.00    +0.030 A 
ATOM     15  C   UNL     1       2.313  -8.284   0.000  0.00  0.00    +0.140 A 
ATOM     16  F   UNL     1       1.828  -8.951   0.000  0.00  0.00    -0.204 F 
ATOM     17  C   UNL     1       1.977  -7.530   0.000  0.00  0.00    +0.030 A 
ATOM     18  C   UNL     1       2.462  -6.862   0.000  0.00  0.00    +0.005 A 
ENDBRANCH  10  12
ENDBRANCH   6   7
ENDBRANCH   5   6
BRANCH  20  21
ATOM     21  C   UNL     1       5.609  -1.712   0.000  0.00  0.00    +0.121 C 
BRANCH  21  22
ATOM     22  N   UNL     1       6.324  -1.299   0.000  0.00  0.00    -0.211 NA
BRANCH  22  23
ATOM     23  C   UNL     1       6.324  -0.474   0.000  0.00  0.00    +0.115 C 
BRANCH  23  24
ATOM     24  C   UNL     1       7.038  -0.062   0.000  0.00  0.00    -0.002 A 
ATOM     25  C   UNL     1       7.038   0.763   0.000  0.00  0.00    +0.018 A 
ATOM     26  C   UNL     1       7.753   1.176   0.000  0.00  0.00    +0.099 A 
ATOM     27  N   UNL     1       8.467   0.763   0.000  0.00  0.00    -0.242 NA
ATOM     28  C   UNL     1       8.467  -0.062   0.000  0.00  0.00    +0.099 A 
ATOM     29  C   UNL     1       7.753  -0.474   0.000  0.00  0.00    +0.018 A 
ENDBRANCH  23  24
ENDBRANCH  22  23
ENDBRANCH  21  22
ENDBRANCH  20  21
TORSDOF 7
