REMARK  Name = 
REMARK  8 active torsions:
REMARK  status: ('A' for Active; 'I' for Inactive)
REMARK    1  A    between atoms: C_2  and  C_3
REMARK    2  A    between atoms: C_3  and  C_4
REMARK    3  A    between atoms: C_3  and  C_6
REMARK    4  A    between atoms: C_11  and  C_12
REMARK    5  A    between atoms: C_12  and  C_13
REMARK    6  A    between atoms: C_16  and  C_17
REMARK    7  A    between atoms: C_17  and  C_18
REMARK    8  A    between atoms: C_26  and  O_27
REMARK                            x       y       z     vdW  Elec       q    Type
REMARK                         _______ _______ _______ _____ _____    ______ ____
ROOT
ATOM      6  C   UNL     1      -2.858   0.825   0.000  0.00  0.00    +0.225 C 
ATOM      7  O   UNL     1      -2.858   0.000   0.000  0.00  0.00    -0.275 OA
ATOM      8  N   UNL     1      -2.143   1.238   0.000  0.00  0.00    -0.280 N 
ATOM      9  C   UNL     1      -2.143   2.062   0.000  0.00  0.00    +0.093 C 
ATOM     10  C   UNL     1      -1.429   2.475   0.000  0.00  0.00    +0.022 C 
ATOM     11  C   UNL     1      -0.715   2.062   0.000  0.00  0.00    +0.015 C 
ATOM     16  C   UNL     1      -0.715   1.238   0.000  0.00  0.00    +0.026 C 
ATOM     30  C   UNL     1      -1.429   0.825   0.000  0.00  0.00    +0.094 C 
ENDROOT
BRANCH   6   3
ATOM      3  C   UNL     1      -3.572   1.238   0.000  0.00  0.00    +0.077 C 
BRANCH   3   2
ATOM      1  C   UNL     1      -5.001   1.238   0.000  0.00  0.00    +0.001 C 
ATOM      2  C   UNL     1      -4.287   0.825   0.000  0.00  0.00    +0.009 C 
ENDBRANCH   3   2
BRANCH   3   4
ATOM      4  C   UNL     1      -3.572   2.062   0.000  0.00  0.00    +0.009 C 
ATOM      5  C   UNL     1      -2.858   2.475   0.000  0.00  0.00    +0.001 C 
ENDBRANCH   3   4
ENDBRANCH   6   3
BRANCH  11  12
ATOM     12  C   UNL     1       0.000   2.475   0.000  0.00  0.00    +0.114 C 
BRANCH  12  13
ATOM     13  C   UNL     1       0.000   3.300   0.000  0.00  0.00    +0.365 C 
ATOM     14  O   UNL     1      -0.715   3.712   0.000  0.00  0.00    -0.246 OA
ATOM     15  O   UNL     1       0.715   3.712   0.000  0.00  0.00    -0.246 OA
ENDBRANCH  12  13
ENDBRANCH  11  12
BRANCH  16  17
ATOM     17  C   UNL     1       0.000   0.825   0.000  0.00  0.00    +0.047 C 
BRANCH  17  18
ATOM     18  C   UNL     1       0.000   0.000   0.000  0.00  0.00    +0.053 C 
ATOM     19  N   UNL     1      -0.715  -0.412   0.000  0.00  0.00    -0.274 NA
ATOM     20  C   UNL     1      -0.715  -1.238   0.000  0.00  0.00    +0.130 C 
ATOM     21  C   UNL     1       0.000  -1.650   0.000  0.00  0.00    +0.053 C 
ATOM     22  C   UNL     1       0.715  -1.238   0.000  0.00  0.00    -0.016 A 
ATOM     23  C   UNL     1       0.715  -0.412   0.000  0.00  0.00    +0.009 A 
ATOM     24  C   UNL     1       1.429   0.000   0.000  0.00  0.00    +0.004 A 
ATOM     25  C   UNL     1       2.143  -0.412   0.000  0.00  0.00    +0.037 A 
ATOM     26  C   UNL     1       2.143  -1.238   0.000  0.00  0.00    +0.138 A 
ATOM     29  C   UNL     1       1.429  -1.650   0.000  0.00  0.00    +0.033 A 
BRANCH  26  27
ATOM     27  O   UNL     1       2.858  -1.650   0.000  0.00  0.00    -0.471 OA
ATOM     28  C   UNL     1       3.572  -1.238   0.000  0.00  0.00    +0.252 C 
ENDBRANCH  26  27
ENDBRANCH  17  18
ENDBRANCH  16  17
TORSDOF 8
