REMARK  Name = 
REMARK  6 active torsions:
REMARK  status: ('A' for Active; 'I' for Inactive)
REMARK    1  A    between atoms: C_5  and  C_8
REMARK    2  A    between atoms: N_10  and  C_11
REMARK    3  A    between atoms: C_15  and  N_19
REMARK    4  A    between atoms: C_23  and  O_24
REMARK    5  A    between atoms: O_24  and  C_25
REMARK    6  A    between atoms: C_29  and  N_31
REMARK                            x       y       z     vdW  Elec       q    Type
REMARK                         _______ _______ _______ _____ _____    ______ ____
ROOT
ATOM     11  C   UNL     1       1.270  -0.922   0.000  0.00  0.00    +0.155 C 
ATOM     12  C   UNL     1       0.785  -0.255   0.000  0.00  0.00    +0.166 C 
ATOM     13  O   UNL     1       1.270   0.412   0.000  0.00  0.00    -0.350 OA
ATOM     14  C   UNL     1       2.054   0.158   0.000  0.00  0.00    +0.169 C 
ATOM     15  C   UNL     1       2.839   0.412   0.000  0.00  0.00    +0.170 C 
ATOM     16  C   UNL     1       3.324  -0.255   0.000  0.00  0.00    +0.169 C 
ATOM     17  O   UNL     1       2.839  -0.922   0.000  0.00  0.00    -0.350 OA
ATOM     18  C   UNL     1       2.054  -0.667   0.000  0.00  0.00    +0.167 C 
ENDROOT
BRANCH  15  19
ATOM     19  N   UNL     1       3.094   1.197   0.000  0.00  0.00    -0.180 N 
ATOM     20  N   UNL     1       2.609   1.865   0.000  0.00  0.00    -0.040 NA
ATOM     21  N   UNL     1       3.094   2.532   0.000  0.00  0.00    -0.020 NA
ATOM     22  N   UNL     1       3.878   2.277   0.000  0.00  0.00    -0.071 NA
ATOM     23  C   UNL     1       3.878   1.452   0.000  0.00  0.00    +0.343 A 
BRANCH  23  24
ATOM     24  O   UNL     1       4.546   0.967   0.000  0.00  0.00    -0.421 OA
BRANCH  24  25
ATOM     25  C   UNL     1       5.300   1.303   0.000  0.00  0.00    +0.150 A 
ATOM     26  C   UNL     1       5.386   2.123   0.000  0.00  0.00    +0.038 A 
ATOM     27  C   UNL     1       6.139   2.459   0.000  0.00  0.00    +0.004 A 
ATOM     28  C   UNL     1       6.807   1.974   0.000  0.00  0.00    +0.015 A 
ATOM     29  C   UNL     1       6.721   1.153   0.000  0.00  0.00    +0.051 A 
ATOM     30  C   UNL     1       5.967   0.818   0.000  0.00  0.00    +0.052 A 
BRANCH  29  31
ATOM     31  N   UNL     1       7.388   0.668   0.000  0.00  0.00    -0.303 N 
ATOM     32  C   UNL     1       8.142   1.004   0.000  0.00  0.00    +0.123 C 
ATOM     33  C   UNL     1       8.809   0.519   0.000  0.00  0.00    +0.164 C 
ATOM     34  O   UNL     1       8.723  -0.301   0.000  0.00  0.00    -0.350 OA
ATOM     35  C   UNL     1       7.969  -0.637   0.000  0.00  0.00    +0.164 C 
ATOM     36  C   UNL     1       7.302  -0.152   0.000  0.00  0.00    +0.123 C 
ENDBRANCH  29  31
ENDBRANCH  24  25
ENDBRANCH  23  24
ENDBRANCH  15  19
BRANCH  11  10
ATOM      8  C   UNL     1       0.208  -1.879   0.000  0.00  0.00    +0.265 C 
ATOM      9  O   UNL     1      -0.344  -1.265   0.000  0.00  0.00    -0.268 OA
ATOM     10  N   UNL     1       1.015  -1.707   0.000  0.00  0.00    -0.198 NA
BRANCH   8   5
ATOM      1  C   UNL     1      -0.812  -5.017   0.000  0.00  0.00    +0.031 C 
ATOM      2  C   UNL     1      -0.557  -4.232   0.000  0.00  0.00    -0.022 A 
ATOM      3  C   UNL     1      -1.109  -3.619   0.000  0.00  0.00    -0.004 A 
ATOM      4  C   UNL     1      -0.854  -2.835   0.000  0.00  0.00    +0.004 A 
ATOM      5  C   UNL     1      -0.047  -2.663   0.000  0.00  0.00    +0.055 A 
ATOM      6  C   UNL     1       0.505  -3.276   0.000  0.00  0.00    +0.004 A 
ATOM      7  C   UNL     1       0.250  -4.061   0.000  0.00  0.00    -0.004 A 
ENDBRANCH   8   5
ENDBRANCH  11  10
TORSDOF 6
