REMARK  Name = 
REMARK  6 active torsions:
REMARK  status: ('A' for Active; 'I' for Inactive)
REMARK    1  A    between atoms: C_3  and  C_4
REMARK    2  A    between atoms: C_4  and  N_5
REMARK    3  A    between atoms: C_6  and  C_8
REMARK    4  A    between atoms: C_16  and  N_17
REMARK    5  A    between atoms: N_17  and  C_18
REMARK    6  A    between atoms: C_18  and  C_19
REMARK                            x       y       z     vdW  Elec       q    Type
REMARK                         _______ _______ _______ _____ _____    ______ ____
ROOT
ATOM      1  O   UNL     1       1.429  -1.650   0.000  0.00  0.00    -0.219 OA
ATOM      2  C   UNL     1       1.429  -2.475   0.000  0.00  0.00    +0.199 C 
ATOM      3  C   UNL     1       2.096  -2.960   0.000  0.00  0.00    +0.169 C 
ATOM     14  O   UNL     1       1.841  -3.744   0.000  0.00  0.00    -0.350 OA
ATOM     15  C   UNL     1       1.016  -3.744   0.000  0.00  0.00    +0.162 C 
ATOM     16  C   UNL     1       0.761  -2.960   0.000  0.00  0.00    +0.135 C 
ENDROOT
BRANCH   3   4
ATOM      4  C   UNL     1       2.881  -2.705   0.000  0.00  0.00    +0.148 C 
BRANCH   4   5
ATOM      5  N   UNL     1       3.494  -3.257   0.000  0.00  0.00    -0.199 NA
ATOM      6  C   UNL     1       4.279  -3.002   0.000  0.00  0.00    +0.265 C 
ATOM      7  O   UNL     1       4.450  -2.195   0.000  0.00  0.00    -0.268 OA
BRANCH   6   8
ATOM      8  C   UNL     1       4.892  -3.554   0.000  0.00  0.00    +0.058 A 
ATOM      9  C   UNL     1       5.676  -3.299   0.000  0.00  0.00    +0.025 A 
ATOM     10  C   UNL     1       6.290  -3.851   0.000  0.00  0.00    +0.099 A 
ATOM     11  N   UNL     1       6.118  -4.658   0.000  0.00  0.00    -0.242 NA
ATOM     12  C   UNL     1       5.333  -4.913   0.000  0.00  0.00    +0.099 A 
ATOM     13  C   UNL     1       4.720  -4.361   0.000  0.00  0.00    +0.025 A 
ENDBRANCH   6   8
ENDBRANCH   4   5
ENDBRANCH   3   4
BRANCH  16  17
ATOM     17  N   UNL     1      -0.023  -2.705   0.000  0.00  0.00    -0.209 NA
BRANCH  17  18
ATOM     18  C   UNL     1      -0.636  -3.257   0.000  0.00  0.00    +0.115 C 
BRANCH  18  19
ATOM     19  C   UNL     1      -1.421  -3.002   0.000  0.00  0.00    -0.002 A 
ATOM     20  C   UNL     1      -2.034  -3.554   0.000  0.00  0.00    +0.018 A 
ATOM     21  C   UNL     1      -2.819  -3.299   0.000  0.00  0.00    +0.099 A 
ATOM     22  N   UNL     1      -2.990  -2.492   0.000  0.00  0.00    -0.242 NA
ATOM     23  C   UNL     1      -2.377  -1.940   0.000  0.00  0.00    +0.099 A 
ATOM     24  C   UNL     1      -1.592  -2.195   0.000  0.00  0.00    +0.018 A 
ENDBRANCH  18  19
ENDBRANCH  17  18
ENDBRANCH  16  17
TORSDOF 6
