REMARK  Name = 
REMARK  3 active torsions:
REMARK  status: ('A' for Active; 'I' for Inactive)
REMARK    1  A    between atoms: C_2  and  C_3
REMARK    2  A    between atoms: C_2  and  C_26
REMARK    3  A    between atoms: C_12  and  C_14
REMARK                            x       y       z     vdW  Elec       q    Type
REMARK                         _______ _______ _______ _____ _____    ______ ____
ROOT
ATOM      3  C   UNL     1       0.715  -1.238   0.000  0.00  0.00    +0.039 C 
ATOM      4  C   UNL     1       0.715  -0.412   0.000  0.00  0.00    +0.003 C 
ATOM      5  C   UNL     1       1.429   0.000   0.000  0.00  0.00    +0.001 C 
ATOM      6  C   UNL     1       2.143  -0.412   0.000  0.00  0.00    +0.007 C 
ATOM      7  C   UNL     1       2.143   0.412   0.000  0.00  0.00    +0.000 C 
ATOM      8  C   UNL     1       2.858   0.000   0.000  0.00  0.00    +0.034 C 
ATOM      9  C   UNL     1       3.572  -0.412   0.000  0.00  0.00    +0.022 A 
ATOM     10  C   UNL     1       3.572  -1.238   0.000  0.00  0.00    +0.061 A 
ATOM     11  N   UNL     1       4.357  -1.492   0.000  0.00  0.00    -0.243 NA
ATOM     12  C   UNL     1       4.842  -0.825   0.000  0.00  0.00    +0.110 A 
ATOM     13  S   UNL     1       4.357  -0.158   0.000  0.00  0.00    -0.071 S 
ATOM     21  C   UNL     1       2.858  -1.650   0.000  0.00  0.00    +0.043 C 
ATOM     22  C   UNL     1       2.858  -2.475   0.000  0.00  0.00    +0.006 C 
ATOM     23  C   UNL     1       2.143  -1.238   0.000  0.00  0.00    +0.036 C 
ATOM     24  C   UNL     1       1.429  -1.650   0.000  0.00  0.00    +0.153 C 
ATOM     25  O   UNL     1       1.429  -2.475   0.000  0.00  0.00    -0.223 OA
ENDROOT
BRANCH  12  14
ATOM     14  C   UNL     1       5.667  -0.825   0.000  0.00  0.00    +0.024 A 
ATOM     15  C   UNL     1       6.079  -0.111   0.000  0.00  0.00    +0.004 A 
ATOM     16  C   UNL     1       6.904  -0.111   0.000  0.00  0.00    +0.030 A 
ATOM     17  C   UNL     1       7.317  -0.825   0.000  0.00  0.00    +0.140 A 
ATOM     18  F   UNL     1       8.142  -0.825   0.000  0.00  0.00    -0.204 F 
ATOM     19  C   UNL     1       6.904  -1.540   0.000  0.00  0.00    +0.030 A 
ATOM     20  C   UNL     1       6.079  -1.540   0.000  0.00  0.00    +0.004 A 
ENDBRANCH  12  14
BRANCH   3   2
ATOM      1  C   UNL     1      -0.715  -1.238   0.000  0.00  0.00    +0.010 C 
ATOM      2  C   UNL     1       0.000  -1.650   0.000  0.00  0.00    +0.079 C 
BRANCH   2  26
ATOM     26  C   UNL     1       0.000  -2.475   0.000  0.00  0.00    +0.225 C 
ATOM     27  O   UNL     1       0.715  -2.888   0.000  0.00  0.00    -0.275 OA
ATOM     28  N   UNL     1      -0.715  -2.888   0.000  0.00  0.00    -0.280 N 
ATOM     29  C   UNL     1      -0.801  -3.708   0.000  0.00  0.00    +0.093 C 
ATOM     30  C   UNL     1      -1.608  -3.880   0.000  0.00  0.00    +0.023 C 
ATOM     31  C   UNL     1      -2.020  -3.165   0.000  0.00  0.00    +0.023 C 
ATOM     32  C   UNL     1      -1.468  -2.552   0.000  0.00  0.00    +0.093 C 
ENDBRANCH   2  26
ENDBRANCH   3   2
TORSDOF 3
