REMARK  Name = 
REMARK  5 active torsions:
REMARK  status: ('A' for Active; 'I' for Inactive)
REMARK    1  A    between atoms: O_2  and  C_3
REMARK    2  A    between atoms: C_3  and  C_4
REMARK    3  A    between atoms: N_9  and  S_16
REMARK    4  A    between atoms: C_10  and  C_12
REMARK    5  A    between atoms: C_12  and  O_14
REMARK                            x       y       z     vdW  Elec       q    Type
REMARK                         _______ _______ _______ _____ _____    ______ ____
ROOT
ATOM      4  C   UNL     1       0.715   2.062   0.000  0.00  0.00    +0.256 C 
ATOM      5  O   UNL     1       0.000   2.475   0.000  0.00  0.00    -0.272 OA
ATOM      6  N   UNL     1       0.715   1.238   0.000  0.00  0.00    -0.274 N 
ATOM      7  C   UNL     1       1.429   0.825   0.000  0.00  0.00    +0.113 C 
ATOM      8  C   UNL     1       1.429   0.000   0.000  0.00  0.00    +0.118 C 
ATOM      9  N   UNL     1       0.715  -0.412   0.000  0.00  0.00    -0.147 NA
ATOM     10  C   UNL     1       0.000   0.000   0.000  0.00  0.00    +0.197 C 
ATOM     11  C   UNL     1       0.000   0.825   0.000  0.00  0.00    +0.123 C 
ENDROOT
BRANCH   9  16
ATOM     16  S   UNL     1       0.715  -1.238   0.000  0.00  0.00    +0.046 S 
ATOM     17  C   UNL     1       0.715  -2.062   0.000  0.00  0.00    +0.196 C 
ATOM     18  O   UNL     1      -0.111  -1.238   0.000  0.00  0.00    -0.157 OA
ATOM     19  O   UNL     1       1.540  -1.238   0.000  0.00  0.00    -0.157 OA
ENDBRANCH   9  16
BRANCH  10  12
ATOM     12  C   UNL     1      -0.715  -0.412   0.000  0.00  0.00    +0.335 C 
ATOM     13  O   UNL     1      -0.715  -1.238   0.000  0.00  0.00    -0.248 OA
BRANCH  12  14
ATOM     14  O   UNL     1      -1.429   0.000   0.000  0.00  0.00    -0.443 OA
ATOM     15  C   UNL     1      -2.143  -0.412   0.000  0.00  0.00    +0.256 C 
ENDBRANCH  12  14
ENDBRANCH  10  12
BRANCH   4   3
ATOM      3  C   UNL     1       1.429   2.475   0.000  0.00  0.00    +0.227 C 
BRANCH   3   2
ATOM      1  C   UNL     1       2.143   3.712   0.000  0.00  0.00    +0.175 C 
ATOM      2  O   UNL     1       1.429   3.300   0.000  0.00  0.00    -0.342 OA
ENDBRANCH   3   2
ENDBRANCH   4   3
TORSDOF 5
