REMARK  Name = 
REMARK  3 active torsions:
REMARK  status: ('A' for Active; 'I' for Inactive)
REMARK    1  A    between atoms: N_4  and  C_5
REMARK    2  A    between atoms: C_8  and  C_11
REMARK    3  A    between atoms: CA_17  and  C_18
REMARK                            x       y       z     vdW  Elec       q    Type
REMARK                         _______ _______ _______ _____ _____    ______ ____
ROOT
ATOM      5  C   UNL     1       0.715  -1.238   0.000  0.00  0.00    +0.073 A 
ATOM      6  C   UNL     1       1.429  -1.650   0.000  0.00  0.00    +0.016 A 
ATOM      7  C   UNL     1       1.429  -2.475   0.000  0.00  0.00    -0.001 A 
ATOM      8  C   UNL     1       0.715  -2.888   0.000  0.00  0.00    +0.006 A 
ATOM      9  C   UNL     1       0.000  -2.475   0.000  0.00  0.00    -0.001 A 
ATOM     10  C   UNL     1       0.000  -1.650   0.000  0.00  0.00    +0.016 A 
ENDROOT
BRANCH   8  11
ATOM     11  C   UNL     1       0.715  -3.712   0.000  0.00  0.00    +0.160 C 
ATOM     12  O   UNL     1       1.429  -4.125   0.000  0.00  0.00    -0.341 OA
ATOM     13  C   UNL     1       1.429  -4.950   0.000  0.00  0.00    +0.229 C 
ATOM     14  C   UNL     1       0.715  -5.362   0.000  0.00  0.00    +0.272 C 
ATOM     15  O   UNL     1       0.715  -6.188   0.000  0.00  0.00    -0.271 OA
ATOM     16  N   UNL     1       0.000  -4.950   0.000  0.00  0.00    -0.199 NA
ATOM     17  CA  UNL     1       0.000  -4.125   0.000  0.00  0.00    +0.159 C 
BRANCH  17  18
ATOM     18  C   UNL     1      -0.715  -3.712   0.000  0.00  0.00    +0.206 C 
ATOM     19  O   UNL     1      -0.715  -2.888   0.000  0.00  0.00    -0.218 OA
ENDBRANCH  17  18
ENDBRANCH   8  11
BRANCH   5   4
ATOM      1  C   UNL     1       0.000   0.825   0.000  0.00  0.00    +0.097 C 
ATOM      2  C   UNL     1       0.000   0.000   0.000  0.00  0.00    +0.246 C 
ATOM      3  O   UNL     1      -0.715  -0.412   0.000  0.00  0.00    -0.273 OA
ATOM      4  N   UNL     1       0.715  -0.412   0.000  0.00  0.00    -0.179 NA
ENDBRANCH   5   4
TORSDOF 3
