REMARK  Name = 
REMARK  8 active torsions:
REMARK  status: ('A' for Active; 'I' for Inactive)
REMARK    1  A    between atoms: C_1  and  N_2
REMARK    2  A    between atoms: C_1  and  C_21
REMARK    3  A    between atoms: N_2  and  C_3
REMARK    4  A    between atoms: C_3  and  C_4
REMARK    5  A    between atoms: C_4  and  C_5
REMARK    6  A    between atoms: C_8  and  C_9
REMARK    7  A    between atoms: C_9  and  O_10
REMARK    8  A    between atoms: O_10  and  C_11
REMARK                            x       y       z     vdW  Elec       q    Type
REMARK                         _______ _______ _______ _____ _____    ______ ____
ROOT
ATOM      3  C   UNL     1       4.781   3.585   0.000  0.00  0.00    +0.120 C 
ATOM     18  C   UNL     1       4.369   4.300   0.000  0.00  0.00    +0.161 C 
ATOM     19  O   UNL     1       5.083   4.712   0.000  0.00  0.00    -0.351 OA
ATOM     20  C   UNL     1       5.496   3.998   0.000  0.00  0.00    +0.161 C 
ENDROOT
BRANCH   3   2
ATOM      2  N   UNL     1       4.067   3.173   0.000  0.00  0.00    -0.211 NA
BRANCH   2   1
ATOM      1  C   UNL     1       4.067   2.348   0.000  0.00  0.00    +0.115 C 
BRANCH   1  21
ATOM     21  C   UNL     1       3.352   1.935   0.000  0.00  0.00    -0.002 A 
ATOM     22  C   UNL     1       3.352   1.110   0.000  0.00  0.00    +0.000 A 
ATOM     23  C   UNL     1       2.638   0.698   0.000  0.00  0.00    +0.040 A 
ATOM     24  C   UNL     1       1.923   1.110   0.000  0.00  0.00    +0.176 A 
ATOM     25  O   UNL     1       1.139   0.856   0.000  0.00  0.00    -0.435 OA
ATOM     26  C   UNL     1       0.654   1.523   0.000  0.00  0.00    +0.429 C 
ATOM     27  O   UNL     1       1.139   2.190   0.000  0.00  0.00    -0.435 OA
ATOM     28  C   UNL     1       1.923   1.935   0.000  0.00  0.00    +0.176 A 
ATOM     29  C   UNL     1       2.638   2.348   0.000  0.00  0.00    +0.037 A 
ENDBRANCH   1  21
ENDBRANCH   2   1
ENDBRANCH   3   2
BRANCH   3   4
ATOM      4  C   UNL     1       5.194   2.871   0.000  0.00  0.00    +0.070 C 
BRANCH   4   5
ATOM      5  C   UNL     1       6.019   2.871   0.000  0.00  0.00    +0.102 A 
ATOM      6  N   UNL     1       6.504   3.538   0.000  0.00  0.00    -0.082 NA
ATOM      7  O   UNL     1       7.288   3.284   0.000  0.00  0.00    -0.354 OA
ATOM      8  C   UNL     1       7.288   2.458   0.000  0.00  0.00    +0.198 A 
ATOM     17  C   UNL     1       6.504   2.204   0.000  0.00  0.00    +0.057 A 
BRANCH   8   9
ATOM      9  C   UNL     1       7.956   1.974   0.000  0.00  0.00    +0.272 C 
BRANCH   9  10
ATOM     10  O   UNL     1       8.709   2.309   0.000  0.00  0.00    -0.467 OA
BRANCH  10  11
ATOM     11  C   UNL     1       9.377   1.824   0.000  0.00  0.00    +0.139 A 
ATOM     12  C   UNL     1      10.130   2.160   0.000  0.00  0.00    +0.037 A 
ATOM     13  C   UNL     1      10.798   1.675   0.000  0.00  0.00    +0.003 A 
ATOM     14  C   UNL     1      10.712   0.854   0.000  0.00  0.00    +0.000 A 
ATOM     15  C   UNL     1       9.958   0.519   0.000  0.00  0.00    +0.003 A 
ATOM     16  C   UNL     1       9.291   1.004   0.000  0.00  0.00    +0.037 A 
ENDBRANCH  10  11
ENDBRANCH   9  10
ENDBRANCH   8   9
ENDBRANCH   4   5
ENDBRANCH   3   4
TORSDOF 8
