REMARK  Name = 
REMARK  4 active torsions:
REMARK  status: ('A' for Active; 'I' for Inactive)
REMARK    1  A    between atoms: O_2  and  C_3
REMARK    2  A    between atoms: C_5  and  O_6
REMARK    3  A    between atoms: C_8  and  C_11
REMARK    4  A    between atoms: C_26  and  C_28
REMARK                            x       y       z     vdW  Elec       q    Type
REMARK                         _______ _______ _______ _____ _____    ______ ____
ROOT
ATOM     11  C   UNL     1       5.940   1.655   0.000  0.00  0.00    +0.003 A 
ATOM     12  C   UNL     1       5.152   1.899   0.000  0.00  0.00    +0.006 A 
ATOM     13  C   UNL     1       4.547   1.337   0.000  0.00  0.00    +0.069 A 
ATOM     14  C   UNL     1       4.731   0.533   0.000  0.00  0.00    +0.078 A 
ATOM     15  N   UNL     1       4.216  -0.112   0.000  0.00  0.00    -0.178 NA
ATOM     16  C   UNL     1       3.391  -0.112   0.000  0.00  0.00    +0.265 C 
ATOM     17  O   UNL     1       3.033  -0.855   0.000  0.00  0.00    -0.271 OA
ATOM     18  C   UNL     1       2.877   0.533   0.000  0.00  0.00    +0.174 C 
ATOM     19  C   UNL     1       2.088   0.290   0.000  0.00  0.00    +0.123 C 
ATOM     20  N   UNL     1       1.484   0.851   0.000  0.00  0.00    -0.272 N 
ATOM     21  C   UNL     1       1.667   1.655   0.000  0.00  0.00    +0.115 C 
ATOM     22  C   UNL     1       2.456   1.899   0.000  0.00  0.00    +0.116 C 
ATOM     23  N   UNL     1       3.060   1.337   0.000  0.00  0.00    -0.266 N 
ATOM     24  C   UNL     1       3.804   1.695   0.000  0.00  0.00    +0.251 C 
ATOM     25  O   UNL     1       3.804   2.520   0.000  0.00  0.00    -0.270 OA
ATOM     26  C   UNL     1       0.695   0.608   0.000  0.00  0.00    +0.249 C 
ATOM     27  O   UNL     1       0.512  -0.197   0.000  0.00  0.00    -0.270 OA
ATOM     35  C   UNL     1       5.519   0.290   0.000  0.00  0.00    +0.017 A 
ATOM     36  C   UNL     1       6.124   0.851   0.000  0.00  0.00    +0.001 A 
ENDROOT
BRANCH  26  28
ATOM     28  C   UNL     1       0.091   1.169   0.000  0.00  0.00    +0.056 A 
ATOM     29  C   UNL     1      -0.698   0.926   0.000  0.00  0.00    +0.005 A 
ATOM     30  C   UNL     1      -1.303   1.487   0.000  0.00  0.00    +0.002 A 
ATOM     31  C   UNL     1      -1.119   2.291   0.000  0.00  0.00    +0.030 A 
ATOM     32  C   UNL     1      -0.331   2.534   0.000  0.00  0.00    +0.140 A 
ATOM     33  F   UNL     1      -0.147   3.339   0.000  0.00  0.00    -0.204 F 
ATOM     34  C   UNL     1       0.274   1.973   0.000  0.00  0.00    +0.034 A 
ENDBRANCH  26  28
BRANCH  11   8
ATOM      3  C   UNL     1       7.754   3.339   0.000  0.00  0.00    +0.142 A 
ATOM      4  C   UNL     1       7.938   2.534   0.000  0.00  0.00    +0.074 A 
ATOM      5  C   UNL     1       7.333   1.973   0.000  0.00  0.00    +0.142 A 
ATOM      8  C   UNL     1       6.545   2.216   0.000  0.00  0.00    +0.034 A 
ATOM      9  C   UNL     1       6.361   3.021   0.000  0.00  0.00    +0.006 A 
ATOM     10  C   UNL     1       6.966   3.582   0.000  0.00  0.00    +0.037 A 
BRANCH   3   2
ATOM      1  C   UNL     1       8.176   4.704   0.000  0.00  0.00    +0.252 C 
ATOM      2  O   UNL     1       8.359   3.900   0.000  0.00  0.00    -0.471 OA
ENDBRANCH   3   2
BRANCH   5   6
ATOM      6  O   UNL     1       7.517   1.169   0.000  0.00  0.00    -0.471 OA
ATOM      7  C   UNL     1       6.912   0.608   0.000  0.00  0.00    +0.252 C 
ENDBRANCH   5   6
ENDBRANCH  11   8
TORSDOF 4
