REMARK  Name = 
REMARK  3 active torsions:
REMARK  status: ('A' for Active; 'I' for Inactive)
REMARK    1  A    between atoms: C_2  and  C_3
REMARK    2  A    between atoms: C_11  and  O_13
REMARK    3  A    between atoms: O_13  and  C_14
REMARK                            x       y       z     vdW  Elec       q    Type
REMARK                         _______ _______ _______ _____ _____    ______ ____
ROOT
ATOM      1  O   UNL     1      -0.068   0.012   0.000  0.00  0.00    -0.275 OA
ATOM      2  C   UNL     1      -0.782  -0.401   0.000  0.00  0.00    +0.225 C 
ATOM      6  N   UNL     1      -1.496   0.012   0.000  0.00  0.00    -0.273 N 
ATOM      7  C   UNL     1      -2.178  -0.453   0.000  0.00  0.00    +0.126 C 
ATOM      8  C   UNL     1      -2.966  -0.210   0.000  0.00  0.00    +0.164 C 
ATOM      9  O   UNL     1      -3.268   0.558   0.000  0.00  0.00    -0.348 OA
ATOM     10  C   UNL     1      -2.855   1.272   0.000  0.00  0.00    +0.187 C 
ATOM     11  C   UNL     1      -2.040   1.395   0.000  0.00  0.00    +0.215 C 
ATOM     12  C   UNL     1      -1.435   0.834   0.000  0.00  0.00    +0.139 C 
ENDROOT
BRANCH   2   3
ATOM      3  C   UNL     1      -0.782  -1.226   0.000  0.00  0.00    +0.077 C 
ATOM      4  C   UNL     1      -0.370  -1.940   0.000  0.00  0.00    +0.010 C 
ATOM      5  C   UNL     1      -1.195  -1.940   0.000  0.00  0.00    +0.010 C 
ENDBRANCH   2   3
BRANCH  11  13
ATOM     13  O   UNL     1      -1.796   2.184   0.000  0.00  0.00    -0.473 OA
BRANCH  13  14
ATOM     14  C   UNL     1      -0.992   2.367   0.000  0.00  0.00    +0.158 A 
ATOM     15  C   UNL     1      -0.749   3.156   0.000  0.00  0.00    +0.040 A 
ATOM     16  C   UNL     1       0.055   3.339   0.000  0.00  0.00    +0.024 A 
ATOM     17  C   UNL     1       0.617   2.735   0.000  0.00  0.00    +0.099 A 
ATOM     18  N   UNL     1       0.373   1.946   0.000  0.00  0.00    -0.239 NA
ATOM     19  C   UNL     1      -0.431   1.762   0.000  0.00  0.00    +0.136 A 
ENDBRANCH  13  14
ENDBRANCH  11  13
TORSDOF 3
