REMARK  Name = 
REMARK  7 active torsions:
REMARK  status: ('A' for Active; 'I' for Inactive)
REMARK    1  A    between atoms: N_2  and  C_4
REMARK    2  A    between atoms: C_7  and  C_8
REMARK    3  A    between atoms: C_8  and  N_9
REMARK    4  A    between atoms: N_9  and  C_10
REMARK    5  A    between atoms: C_10  and  C_11
REMARK    6  A    between atoms: C_18  and  C_19
REMARK    7  A    between atoms: C_21  and  C_25
REMARK                            x       y       z     vdW  Elec       q    Type
REMARK                         _______ _______ _______ _____ _____    ______ ____
ROOT
ATOM     11  C   UNL     1       1.814  -2.106   0.000  0.00  0.00    +0.075 C 
ATOM     12  C   UNL     1       1.661  -1.343   0.000  0.00  0.00    +0.018 C 
ATOM     13  C   UNL     1       0.923  -1.010   0.000  0.00  0.00    +0.010 C 
ATOM     14  C   UNL     1       0.961  -0.114   0.000  0.00  0.00    +0.018 C 
ATOM     15  C   UNL     1       1.205  -0.720   0.000  0.00  0.00    +0.072 C 
ATOM     16  N   UNL     1       1.065  -1.759   0.000  0.00  0.00    -0.272 NA
ATOM     17  C   UNL     1       0.226  -2.118   0.000  0.00  0.00    +0.078 C 
ATOM     18  C   UNL     1       0.119  -1.362   0.000  0.00  0.00    +0.056 C 
ENDROOT
BRANCH  18  19
ATOM     19  C   UNL     1      -0.602  -0.960   0.000  0.00  0.00    +0.058 A 
ATOM     20  C   UNL     1      -1.350  -1.307   0.000  0.00  0.00    +0.035 A 
ATOM     21  C   UNL     1      -1.911  -0.703   0.000  0.00  0.00    +0.102 A 
ATOM     22  N   UNL     1      -1.510   0.018   0.000  0.00  0.00    -0.170 NA
ATOM     23  N   UNL     1      -0.700  -0.141   0.000  0.00  0.00    -0.253 N 
ATOM     24  C   UNL     1      -0.095   0.420   0.000  0.00  0.00    +0.153 C 
BRANCH  21  25
ATOM     25  C   UNL     1      -2.730  -0.801   0.000  0.00  0.00    +0.020 A 
ATOM     26  C   UNL     1      -3.055  -1.560   0.000  0.00  0.00    +0.004 A 
ATOM     27  C   UNL     1      -3.874  -1.658   0.000  0.00  0.00    +0.030 A 
ATOM     28  C   UNL     1      -4.369  -0.998   0.000  0.00  0.00    +0.140 A 
ATOM     29  F   UNL     1      -5.188  -1.097   0.000  0.00  0.00    -0.204 F 
ATOM     30  C   UNL     1      -4.044  -0.239   0.000  0.00  0.00    +0.030 A 
ATOM     31  C   UNL     1      -3.225  -0.141   0.000  0.00  0.00    +0.004 A 
ENDBRANCH  21  25
ENDBRANCH  18  19
BRANCH  11  10
ATOM     10  C   UNL     1       2.324  -2.754   0.000  0.00  0.00    +0.105 C 
BRANCH  10   9
ATOM      9  N   UNL     1       2.018  -3.520   0.000  0.00  0.00    -0.212 NA
BRANCH   9   8
ATOM      8  C   UNL     1       2.529  -4.168   0.000  0.00  0.00    +0.115 C 
BRANCH   8   7
ATOM      4  C   UNL     1       1.611  -6.466   0.000  0.00  0.00    +0.048 A 
ATOM      5  C   UNL     1       1.100  -5.818   0.000  0.00  0.00    +0.014 A 
ATOM      6  C   UNL     1       1.406  -5.052   0.000  0.00  0.00    -0.002 A 
ATOM      7  C   UNL     1       2.223  -4.934   0.000  0.00  0.00    -0.005 A 
ATOM     32  C   UNL     1       2.733  -5.582   0.000  0.00  0.00    -0.002 A 
ATOM     33  C   UNL     1       2.427  -6.348   0.000  0.00  0.00    +0.014 A 
BRANCH   4   2
ATOM      1  C   UNL     1       1.815  -7.880   0.000  0.00  0.00    +0.112 C 
ATOM      2  N   UNL     1       1.304  -7.232   0.000  0.00  0.00    -0.304 N 
ATOM      3  C   UNL     1       0.488  -7.350   0.000  0.00  0.00    +0.112 C 
ENDBRANCH   4   2
ENDBRANCH   8   7
ENDBRANCH   9   8
ENDBRANCH  10   9
ENDBRANCH  11  10
TORSDOF 7
