REMARK  Name = 
REMARK  4 active torsions:
REMARK  status: ('A' for Active; 'I' for Inactive)
REMARK    1  A    between atoms: C_2  and  C_5
REMARK    2  A    between atoms: C_5  and  C_6
REMARK    3  A    between atoms: N_16  and  C_17
REMARK    4  A    between atoms: C_17  and  C_18
REMARK                            x       y       z     vdW  Elec       q    Type
REMARK                         _______ _______ _______ _____ _____    ______ ____
ROOT
ATOM      6  C   UNL     1       4.067   2.348   0.000  0.00  0.00    +0.226 C 
ATOM      7  O   UNL     1       4.067   3.173   0.000  0.00  0.00    -0.275 OA
ATOM      8  N   UNL     1       3.352   1.935   0.000  0.00  0.00    -0.276 N 
ATOM      9  C   UNL     1       3.352   1.110   0.000  0.00  0.00    +0.115 C 
ATOM     10  C   UNL     1       2.638   0.698   0.000  0.00  0.00    +0.117 C 
ATOM     11  N   UNL     1       1.923   1.110   0.000  0.00  0.00    -0.254 N 
ATOM     12  C   UNL     1       1.923   1.935   0.000  0.00  0.00    +0.174 C 
ATOM     13  C   UNL     1       2.638   2.348   0.000  0.00  0.00    +0.123 C 
ATOM     14  C   UNL     1       1.139   2.190   0.000  0.00  0.00    +0.253 C 
ATOM     15  O   UNL     1       0.884   2.975   0.000  0.00  0.00    -0.273 OA
ATOM     16  N   UNL     1       0.654   1.523   0.000  0.00  0.00    -0.203 N 
ATOM     21  C   UNL     1       1.139   0.856   0.000  0.00  0.00    +0.314 C 
ATOM     22  O   UNL     1       0.884   0.071   0.000  0.00  0.00    -0.252 OA
ENDROOT
BRANCH   6   5
ATOM      5  C   UNL     1       4.781   1.935   0.000  0.00  0.00    +0.085 C 
BRANCH   5   2
ATOM      1  C   UNL     1       6.210   2.760   0.000  0.00  0.00    +0.000 C 
ATOM      2  C   UNL     1       5.496   2.348   0.000  0.00  0.00    +0.009 C 
ATOM      3  C   UNL     1       5.083   3.062   0.000  0.00  0.00    +0.000 C 
ATOM      4  C   UNL     1       5.908   1.633   0.000  0.00  0.00    +0.000 C 
ENDBRANCH   5   2
ENDBRANCH   6   5
BRANCH  16  17
ATOM     17  C   UNL     1      -0.171   1.523   0.000  0.00  0.00    +0.191 C 
BRANCH  17  18
ATOM     18  C   UNL     1      -0.584   2.237   0.000  0.00  0.00    +0.281 C 
ATOM     19  N   UNL     1      -1.409   2.237   0.000  0.00  0.00    -0.086 NA
ATOM     20  O   UNL     1      -0.171   2.952   0.000  0.00  0.00    -0.270 OA
ENDBRANCH  17  18
ENDBRANCH  16  17
TORSDOF 4
