REMARK  Name = 
REMARK  7 active torsions:
REMARK  status: ('A' for Active; 'I' for Inactive)
REMARK    1  A    between atoms: C_2  and  N_4
REMARK    2  A    between atoms: C_5  and  C_7
REMARK    3  A    between atoms: C_7  and  C_8
REMARK    4  A    between atoms: C_13  and  C_14
REMARK    5  A    between atoms: C_14  and  C_15
REMARK    6  A    between atoms: C_18  and  C_19
REMARK    7  A    between atoms: C_19  and  C_20
REMARK                            x       y       z     vdW  Elec       q    Type
REMARK                         _______ _______ _______ _____ _____    ______ ____
ROOT
ATOM      8  C   UNL     1       0.393  -5.912   0.000  0.00  0.00    +0.012 C 
ATOM      9  C   UNL     1       0.393  -5.087   0.000  0.00  0.00    +0.019 C 
ATOM     10  C   UNL     1       1.107  -4.674   0.000  0.00  0.00    +0.089 C 
ATOM     11  N   UNL     1       1.822  -5.087   0.000  0.00  0.00    -0.218 NA
ATOM     12  C   UNL     1       1.822  -5.912   0.000  0.00  0.00    +0.089 C 
ATOM     13  C   UNL     1       1.107  -6.324   0.000  0.00  0.00    +0.024 C 
ENDROOT
BRANCH   8   7
ATOM      7  C   UNL     1      -0.322  -6.324   0.000  0.00  0.00    +0.087 C 
BRANCH   7   5
ATOM      4  N   UNL     1      -1.750  -6.324   0.000  0.00  0.00    -0.207 NA
ATOM      5  C   UNL     1      -1.036  -5.912   0.000  0.00  0.00    +0.241 C 
ATOM      6  O   UNL     1      -1.036  -5.087   0.000  0.00  0.00    -0.273 OA
BRANCH   4   2
ATOM      1  C   UNL     1      -3.179  -6.324   0.000  0.00  0.00    +0.023 C 
ATOM      2  C   UNL     1      -2.465  -5.912   0.000  0.00  0.00    +0.095 C 
ATOM      3  C   UNL     1      -2.465  -5.087   0.000  0.00  0.00    +0.023 C 
ENDBRANCH   4   2
ENDBRANCH   7   5
ENDBRANCH   8   7
BRANCH  13  14
ATOM     14  C   UNL     1       1.107  -7.149   0.000  0.00  0.00    +0.051 C 
BRANCH  14  15
ATOM     15  C   UNL     1       1.822  -7.562   0.000  0.00  0.00    +0.100 A 
ATOM     16  N   UNL     1       2.575  -7.226   0.000  0.00  0.00    -0.082 NA
ATOM     17  O   UNL     1       3.127  -7.839   0.000  0.00  0.00    -0.358 OA
ATOM     18  C   UNL     1       2.715  -8.554   0.000  0.00  0.00    +0.154 A 
ATOM     26  C   UNL     1       1.908  -8.382   0.000  0.00  0.00    +0.054 A 
BRANCH  18  19
ATOM     19  C   UNL     1       3.051  -9.307   0.000  0.00  0.00    +0.067 C 
BRANCH  19  20
ATOM     20  C   UNL     1       3.871  -9.394   0.000  0.00  0.00    +0.008 C 
ATOM     21  C   UNL     1       4.356  -8.726   0.000  0.00  0.00    +0.000 C 
ATOM     22  C   UNL     1       5.176  -8.812   0.000  0.00  0.00    +0.000 C 
ATOM     23  C   UNL     1       5.512  -9.566   0.000  0.00  0.00    +0.000 C 
ATOM     24  C   UNL     1       5.027 -10.233   0.000  0.00  0.00    +0.000 C 
ATOM     25  C   UNL     1       4.207 -10.147   0.000  0.00  0.00    +0.000 C 
ENDBRANCH  19  20
ENDBRANCH  18  19
ENDBRANCH  14  15
ENDBRANCH  13  14
TORSDOF 7
