REMARK  Name = 
REMARK  5 active torsions:
REMARK  status: ('A' for Active; 'I' for Inactive)
REMARK    1  A    between atoms: S_2  and  C_5
REMARK    2  A    between atoms: C_8  and  C_9
REMARK    3  A    between atoms: C_9  and  N_10
REMARK    4  A    between atoms: C_15  and  C_16
REMARK    5  A    between atoms: C_18  and  C_21
REMARK                            x       y       z     vdW  Elec       q    Type
REMARK                         _______ _______ _______ _____ _____    ______ ____
ROOT
ATOM     10  N   UNL     1       2.107  10.299   0.000  0.00  0.00    -0.260 NA
ATOM     11  C   UNL     1       2.775  10.784   0.000  0.00  0.00    +0.106 C 
ATOM     12  C   UNL     1       3.442  10.299   0.000  0.00  0.00    +0.170 C 
ATOM     13  O   UNL     1       4.227  10.554   0.000  0.00  0.00    -0.222 OA
ATOM     14  C   UNL     1       3.187   9.515   0.000  0.00  0.00    +0.060 C 
ATOM     15  C   UNL     1       2.362   9.515   0.000  0.00  0.00    +0.140 C 
ENDROOT
BRANCH  15  16
ATOM     16  C   UNL     1       1.877   8.847   0.000  0.00  0.00    +0.251 A 
ATOM     17  N   UNL     1       2.132   8.063   0.000  0.00  0.00    -0.194 NA
ATOM     18  C   UNL     1       1.465   7.578   0.000  0.00  0.00    +0.180 A 
ATOM     19  N   UNL     1       0.797   8.063   0.000  0.00  0.00    -0.061 NA
ATOM     20  O   UNL     1       1.052   8.847   0.000  0.00  0.00    -0.336 OA
BRANCH  18  21
ATOM     21  C   UNL     1       1.465   6.753   0.000  0.00  0.00    +0.062 C 
ATOM     22  C   UNL     1       1.877   6.038   0.000  0.00  0.00    +0.008 C 
ATOM     23  C   UNL     1       1.052   6.038   0.000  0.00  0.00    +0.008 C 
ENDBRANCH  18  21
ENDBRANCH  15  16
BRANCH  10   9
ATOM      9  C   UNL     1       1.323  10.554   0.000  0.00  0.00    +0.100 C 
BRANCH   9   8
ATOM      5  C   UNL     1       0.808  12.975   0.000  0.00  0.00    +0.106 A 
ATOM      6  C   UNL     1       1.593  12.720   0.000  0.00  0.00    +0.018 A 
ATOM      7  C   UNL     1       1.764  11.913   0.000  0.00  0.00    -0.002 A 
ATOM      8  C   UNL     1       1.151  11.361   0.000  0.00  0.00    -0.006 A 
ATOM     24  C   UNL     1       0.367  11.616   0.000  0.00  0.00    -0.002 A 
ATOM     25  C   UNL     1       0.195  12.423   0.000  0.00  0.00    +0.018 A 
BRANCH   5   2
ATOM      1  C   UNL     1       0.465  14.589   0.000  0.00  0.00    +0.182 C 
ATOM      2  S   UNL     1       0.637  13.782   0.000  0.00  0.00    +0.010 S 
ATOM      3  O   UNL     1      -0.170  13.611   0.000  0.00  0.00    -0.169 OA
ATOM      4  O   UNL     1       1.444  13.954   0.000  0.00  0.00    -0.169 OA
ENDBRANCH   5   2
ENDBRANCH   9   8
ENDBRANCH  10   9
TORSDOF 5
