REMARK  Name = 
REMARK  5 active torsions:
REMARK  status: ('A' for Active; 'I' for Inactive)
REMARK    1  A    between atoms: C_5  and  C_6
REMARK    2  A    between atoms: C_6  and  C_7
REMARK    3  A    between atoms: C_19  and  C_20
REMARK    4  A    between atoms: C_20  and  N_21
REMARK    5  A    between atoms: C_22  and  C_24
REMARK                            x       y       z     vdW  Elec       q    Type
REMARK                         _______ _______ _______ _____ _____    ______ ____
ROOT
ATOM      1  O   UNL     1      -0.271  -5.113   0.000  0.00  0.00    -0.218 OA
ATOM      2  C   UNL     1       0.396  -4.628   0.000  0.00  0.00    +0.213 C 
ATOM      3  C   UNL     1       0.396  -3.803   0.000  0.00  0.00    +0.212 C 
ATOM      4  O   UNL     1      -0.271  -3.318   0.000  0.00  0.00    -0.218 OA
ATOM      5  C   UNL     1       1.181  -3.548   0.000  0.00  0.00    +0.157 C 
ATOM     18  O   UNL     1       1.666  -4.215   0.000  0.00  0.00    -0.351 OA
ATOM     19  C   UNL     1       1.181  -4.883   0.000  0.00  0.00    +0.170 C 
ENDROOT
BRANCH   5   6
ATOM      6  C   UNL     1       1.436  -2.763   0.000  0.00  0.00    +0.118 C 
BRANCH   6   7
ATOM      7  C   UNL     1       0.884  -2.150   0.000  0.00  0.00    +0.232 C 
ATOM      8  O   UNL     1       0.077  -2.321   0.000  0.00  0.00    -0.274 OA
ATOM      9  N   UNL     1       1.139  -1.365   0.000  0.00  0.00    -0.259 N 
ATOM     10  C   UNL     1       0.654  -0.698   0.000  0.00  0.00    +0.103 C 
ATOM     11  C   UNL     1       1.139  -0.030   0.000  0.00  0.00    +0.049 C 
ATOM     12  C   UNL     1       1.923  -0.285   0.000  0.00  0.00    -0.007 A 
ATOM     13  C   UNL     1       2.638   0.127   0.000  0.00  0.00    -0.003 A 
ATOM     14  C   UNL     1       3.352  -0.285   0.000  0.00  0.00    -0.000 A 
ATOM     15  C   UNL     1       3.352  -1.110   0.000  0.00  0.00    +0.001 A 
ATOM     16  C   UNL     1       2.638  -1.523   0.000  0.00  0.00    +0.015 A 
ATOM     17  C   UNL     1       1.923  -1.110   0.000  0.00  0.00    +0.050 A 
ENDBRANCH   6   7
ENDBRANCH   5   6
BRANCH  19  20
ATOM     20  C   UNL     1       1.436  -5.667   0.000  0.00  0.00    +0.148 C 
BRANCH  20  21
ATOM     21  N   UNL     1       0.884  -6.280   0.000  0.00  0.00    -0.199 NA
ATOM     22  C   UNL     1       1.139  -7.065   0.000  0.00  0.00    +0.265 C 
ATOM     23  O   UNL     1       1.946  -7.237   0.000  0.00  0.00    -0.268 OA
BRANCH  22  24
ATOM     24  C   UNL     1       0.587  -7.678   0.000  0.00  0.00    +0.056 A 
ATOM     25  C   UNL     1       0.842  -8.463   0.000  0.00  0.00    +0.018 A 
ATOM     26  C   UNL     1       0.290  -9.076   0.000  0.00  0.00    +0.085 A 
ATOM     27 CL   UNL     1       0.544  -9.860   0.000  0.00  0.00    -0.080 Cl
ATOM     28  C   UNL     1      -0.517  -8.904   0.000  0.00  0.00    +0.151 A 
ATOM     29  F   UNL     1      -1.069  -9.517   0.000  0.00  0.00    -0.203 F 
ATOM     30  C   UNL     1      -0.772  -8.120   0.000  0.00  0.00    +0.031 A 
ATOM     31  C   UNL     1      -0.220  -7.506   0.000  0.00  0.00    +0.007 A 
ENDBRANCH  22  24
ENDBRANCH  20  21
ENDBRANCH  19  20
TORSDOF 5
