REMARK  Name = 
REMARK  7 active torsions:
REMARK  status: ('A' for Active; 'I' for Inactive)
REMARK    1  A    between atoms: C_2  and  C_4
REMARK    2  A    between atoms: C_4  and  C_5
REMARK    3  A    between atoms: C_7  and  C_21
REMARK    4  A    between atoms: N_11  and  C_12
REMARK    5  A    between atoms: C_12  and  C_13
REMARK    6  A    between atoms: N_23  and  C_24
REMARK    7  A    between atoms: C_24  and  C_25
REMARK                            x       y       z     vdW  Elec       q    Type
REMARK                         _______ _______ _______ _____ _____    ______ ____
ROOT
ATOM      5  C   UNL     1      -1.794  -2.421   0.000  0.00  0.00    +0.095 C 
ATOM      6  N   UNL     1      -1.006  -2.178   0.000  0.00  0.00    -0.207 NA
ATOM      7  C   UNL     1      -0.325  -2.643   0.000  0.00  0.00    +0.155 C 
ATOM      8  C   UNL     1      -0.263  -3.466   0.000  0.00  0.00    +0.055 C 
ATOM      9  C   UNL     1      -0.868  -4.027   0.000  0.00  0.00    -0.002 A 
ATOM     10  C   UNL     1      -0.732  -4.840   0.000  0.00  0.00    +0.072 A 
ATOM     11  N   UNL     1      -1.465  -5.221   0.000  0.00  0.00    -0.322 N 
ATOM     15  C   UNL     1      -2.052  -4.641   0.000  0.00  0.00    +0.060 A 
ATOM     16  C   UNL     1      -1.683  -3.904   0.000  0.00  0.00    +0.011 A 
ATOM     17  C   UNL     1      -2.096  -3.189   0.000  0.00  0.00    -0.005 A 
ATOM     18  C   UNL     1      -2.961  -3.264   0.000  0.00  0.00    -0.003 A 
ATOM     19  C   UNL     1      -3.330  -4.002   0.000  0.00  0.00    +0.001 A 
ATOM     20  C   UNL     1      -2.876  -4.691   0.000  0.00  0.00    +0.017 A 
ENDROOT
BRANCH   7  21
ATOM     21  C   UNL     1       0.390  -2.230   0.000  0.00  0.00    +0.258 C 
ATOM     22  O   UNL     1       0.390  -1.405   0.000  0.00  0.00    -0.272 OA
ATOM     23  N   UNL     1       1.105  -2.643   0.000  0.00  0.00    -0.199 NA
BRANCH  23  24
ATOM     24  C   UNL     1       1.819  -2.230   0.000  0.00  0.00    +0.141 C 
BRANCH  24  25
ATOM     25  C   UNL     1       2.533  -2.643   0.000  0.00  0.00    -0.003 C 
ATOM     26  C   UNL     1       3.248  -2.230   0.000  0.00  0.00    -0.003 C 
ENDBRANCH  24  25
ENDBRANCH  23  24
ENDBRANCH   7  21
BRANCH   5   4
ATOM      4  C   UNL     1      -2.356  -1.816   0.000  0.00  0.00    +0.022 C 
BRANCH   4   2
ATOM      1  C   UNL     1      -3.721  -1.395   0.000  0.00  0.00    +0.000 C 
ATOM      2  C   UNL     1      -3.160  -2.000   0.000  0.00  0.00    +0.002 C 
ATOM      3  C   UNL     1      -3.403  -2.788   0.000  0.00  0.00    +0.000 C 
ENDBRANCH   4   2
ENDBRANCH   5   4
BRANCH  11  12
ATOM     12  C   UNL     1      -1.588  -6.036   0.000  0.00  0.00    +0.132 C 
BRANCH  12  13
ATOM     13  C   UNL     1      -2.356  -6.338   0.000  0.00  0.00    -0.002 C 
ATOM     14  C   UNL     1      -2.479  -7.154   0.000  0.00  0.00    -0.003 C 
ENDBRANCH  12  13
ENDBRANCH  11  12
TORSDOF 7
