REMARK  Name = 
REMARK  8 active torsions:
REMARK  status: ('A' for Active; 'I' for Inactive)
REMARK    1  A    between atoms: O_2  and  C_3
REMARK    2  A    between atoms: C_6  and  C_7
REMARK    3  A    between atoms: C_7  and  N_8
REMARK    4  A    between atoms: N_8  and  C_9
REMARK    5  A    between atoms: C_12  and  C_13
REMARK    6  A    between atoms: C_13  and  N_14
REMARK    7  A    between atoms: N_14  and  S_15
REMARK    8  A    between atoms: S_15  and  C_18
REMARK                            x       y       z     vdW  Elec       q    Type
REMARK                         _______ _______ _______ _____ _____    ______ ____
ROOT
ATOM      9  C   UNL     1       1.429  -3.300   0.000  0.00  0.00    +0.135 C 
ATOM     10  C   UNL     1       2.096  -3.785   0.000  0.00  0.00    +0.162 C 
ATOM     11  O   UNL     1       1.841  -4.569   0.000  0.00  0.00    -0.350 OA
ATOM     12  C   UNL     1       1.016  -4.569   0.000  0.00  0.00    +0.166 C 
ATOM     25  C   UNL     1       0.761  -3.785   0.000  0.00  0.00    +0.199 C 
ATOM     26  O   UNL     1      -0.023  -3.530   0.000  0.00  0.00    -0.219 OA
ENDROOT
BRANCH   9   8
ATOM      8  N   UNL     1       1.429  -2.475   0.000  0.00  0.00    -0.209 NA
BRANCH   8   7
ATOM      7  C   UNL     1       2.143  -2.062   0.000  0.00  0.00    +0.115 C 
BRANCH   7   6
ATOM      3  C   UNL     1       2.143   0.412   0.000  0.00  0.00    +0.139 A 
ATOM      4  C   UNL     1       2.858   0.000   0.000  0.00  0.00    +0.037 A 
ATOM      5  C   UNL     1       2.858  -0.825   0.000  0.00  0.00    +0.000 A 
ATOM      6  C   UNL     1       2.143  -1.238   0.000  0.00  0.00    -0.005 A 
ATOM     27  C   UNL     1       1.429  -0.825   0.000  0.00  0.00    +0.000 A 
ATOM     28  C   UNL     1       1.429   0.000   0.000  0.00  0.00    +0.037 A 
BRANCH   3   2
ATOM      1  C   UNL     1       1.429   1.650   0.000  0.00  0.00    +0.252 C 
ATOM      2  O   UNL     1       2.143   1.238   0.000  0.00  0.00    -0.471 OA
ENDBRANCH   3   2
ENDBRANCH   7   6
ENDBRANCH   8   7
ENDBRANCH   9   8
BRANCH  12  13
ATOM     13  C   UNL     1       0.531  -5.237   0.000  0.00  0.00    +0.148 C 
BRANCH  13  14
ATOM     14  N   UNL     1       0.867  -5.991   0.000  0.00  0.00    -0.075 NA
BRANCH  14  15
ATOM     15  S   UNL     1       0.382  -6.658   0.000  0.00  0.00    +0.077 S 
ATOM     16  O   UNL     1      -0.285  -6.173   0.000  0.00  0.00    -0.152 OA
ATOM     17  O   UNL     1       1.050  -7.143   0.000  0.00  0.00    -0.152 OA
BRANCH  15  18
ATOM     18  C   UNL     1      -0.103  -7.325   0.000  0.00  0.00    +0.124 A 
ATOM     19  C   UNL     1       0.233  -8.079   0.000  0.00  0.00    +0.020 A 
ATOM     20  C   UNL     1      -0.252  -8.747   0.000  0.00  0.00    -0.003 A 
ATOM     21  C   UNL     1      -1.073  -8.660   0.000  0.00  0.00    -0.022 A 
ATOM     22  C   UNL     1      -1.558  -9.328   0.000  0.00  0.00    +0.031 C 
ATOM     23  C   UNL     1      -1.408  -7.907   0.000  0.00  0.00    -0.003 A 
ATOM     24  C   UNL     1      -0.923  -7.239   0.000  0.00  0.00    +0.020 A 
ENDBRANCH  15  18
ENDBRANCH  14  15
ENDBRANCH  13  14
ENDBRANCH  12  13
TORSDOF 8
