REMARK  Name = 
REMARK  5 active torsions:
REMARK  status: ('A' for Active; 'I' for Inactive)
REMARK    1  A    between atoms: C_7  and  N_10
REMARK    2  A    between atoms: N_10  and  C_11
REMARK    3  A    between atoms: C_14  and  C_15
REMARK    4  A    between atoms: C_15  and  N_16
REMARK    5  A    between atoms: C_17  and  C_19
REMARK                            x       y       z     vdW  Elec       q    Type
REMARK                         _______ _______ _______ _____ _____    ______ ____
ROOT
ATOM     11  C   UNL     1      -0.608   3.528   0.000  0.00  0.00    +0.135 C 
ATOM     12  C   UNL     1       0.060   3.043   0.000  0.00  0.00    +0.162 C 
ATOM     13  O   UNL     1      -0.195   2.258   0.000  0.00  0.00    -0.350 OA
ATOM     14  C   UNL     1      -1.020   2.258   0.000  0.00  0.00    +0.169 C 
ATOM     24  C   UNL     1      -1.275   3.043   0.000  0.00  0.00    +0.199 C 
ATOM     25  O   UNL     1      -2.060   3.298   0.000  0.00  0.00    -0.219 OA
ENDROOT
BRANCH  11  10
ATOM     10  N   UNL     1      -0.608   4.353   0.000  0.00  0.00    -0.216 NA
BRANCH  10   7
ATOM      1  C   UNL     1       2.250   6.828   0.000  0.00  0.00    +0.095 C 
ATOM      2  C   UNL     1       2.250   6.003   0.000  0.00  0.00    +0.226 C 
ATOM      3  O   UNL     1       2.965   5.590   0.000  0.00  0.00    -0.275 OA
ATOM      4  N   UNL     1       1.536   5.590   0.000  0.00  0.00    -0.279 N 
ATOM      5  C   UNL     1       1.536   4.765   0.000  0.00  0.00    +0.095 C 
ATOM      6  C   UNL     1       0.821   4.353   0.000  0.00  0.00    +0.039 C 
ATOM      7  C   UNL     1       0.107   4.765   0.000  0.00  0.00    +0.076 C 
ATOM      8  C   UNL     1       0.107   5.590   0.000  0.00  0.00    +0.039 C 
ATOM      9  C   UNL     1       0.821   6.003   0.000  0.00  0.00    +0.095 C 
ENDBRANCH  10   7
ENDBRANCH  11  10
BRANCH  14  15
ATOM     15  C   UNL     1      -1.505   1.591   0.000  0.00  0.00    +0.148 C 
BRANCH  15  16
ATOM     16  N   UNL     1      -2.326   1.677   0.000  0.00  0.00    -0.199 NA
ATOM     17  C   UNL     1      -2.811   1.010   0.000  0.00  0.00    +0.271 C 
ATOM     18  O   UNL     1      -2.475   0.256   0.000  0.00  0.00    -0.268 OA
BRANCH  17  19
ATOM     19  C   UNL     1      -3.631   1.096   0.000  0.00  0.00    +0.084 A 
ATOM     20  C   UNL     1      -4.183   0.483   0.000  0.00  0.00    +0.012 A 
ATOM     21  C   UNL     1      -4.937   0.818   0.000  0.00  0.00    +0.008 A 
ATOM     22  C   UNL     1      -4.851   1.639   0.000  0.00  0.00    +0.036 A 
ATOM     23  S   UNL     1      -4.044   1.810   0.000  0.00  0.00    -0.082 S 
ENDBRANCH  17  19
ENDBRANCH  15  16
ENDBRANCH  14  15
TORSDOF 5
