REMARK  Name = 
REMARK  7 active torsions:
REMARK  status: ('A' for Active; 'I' for Inactive)
REMARK    1  A    between atoms: C_2  and  C_4
REMARK    2  A    between atoms: C_4  and  C_5
REMARK    3  A    between atoms: C_5  and  N_6
REMARK    4  A    between atoms: N_6  and  C_7
REMARK    5  A    between atoms: C_11  and  O_15
REMARK    6  A    between atoms: O_15  and  C_16
REMARK    7  A    between atoms: N_18  and  C_19
REMARK                            x       y       z     vdW  Elec       q    Type
REMARK                         _______ _______ _______ _____ _____    ______ ____
ROOT
ATOM      7  C   UNL     1      -2.059  -4.067   0.000  0.00  0.00    +0.132 C 
ATOM      8  C   UNL     1      -1.973  -3.247   0.000  0.00  0.00    +0.162 C 
ATOM      9  O   UNL     1      -1.166  -3.075   0.000  0.00  0.00    -0.348 OA
ATOM     10  C   UNL     1      -0.754  -3.789   0.000  0.00  0.00    +0.186 C 
ATOM     11  C   UNL     1       0.000  -4.125   0.000  0.00  0.00    +0.229 C 
ATOM     12  C   UNL     1      -0.086  -4.946   0.000  0.00  0.00    +0.188 C 
ATOM     13  O   UNL     1      -0.893  -5.117   0.000  0.00  0.00    -0.348 OA
ATOM     14  C   UNL     1      -1.306  -4.402   0.000  0.00  0.00    +0.164 C 
ENDROOT
BRANCH   7   6
ATOM      6  N   UNL     1      -2.774  -4.479   0.000  0.00  0.00    -0.214 NA
BRANCH   6   5
ATOM      5  C   UNL     1      -3.488  -4.067   0.000  0.00  0.00    +0.089 C 
BRANCH   5   4
ATOM      4  C   UNL     1      -4.203  -4.479   0.000  0.00  0.00    +0.019 C 
BRANCH   4   2
ATOM      1  C   UNL     1      -5.632  -4.479   0.000  0.00  0.00    +0.000 C 
ATOM      2  C   UNL     1      -4.917  -4.067   0.000  0.00  0.00    +0.001 C 
ATOM      3  C   UNL     1      -4.917  -3.242   0.000  0.00  0.00    +0.000 C 
ENDBRANCH   4   2
ENDBRANCH   5   4
ENDBRANCH   6   5
ENDBRANCH   7   6
BRANCH  11  15
ATOM     15  O   UNL     1       0.715  -3.712   0.000  0.00  0.00    -0.432 OA
BRANCH  15  16
ATOM     16  C   UNL     1       0.715  -2.888   0.000  0.00  0.00    +0.425 C 
ATOM     17  O   UNL     1       0.000  -2.475   0.000  0.00  0.00    -0.224 OA
ATOM     18  N   UNL     1       1.429  -2.475   0.000  0.00  0.00    -0.142 NA
BRANCH  18  19
ATOM     19  C   UNL     1       1.429  -1.650   0.000  0.00  0.00    +0.077 A 
ATOM     20  C   UNL     1       0.715  -1.238   0.000  0.00  0.00    +0.017 A 
ATOM     21  C   UNL     1       0.715  -0.412   0.000  0.00  0.00    +0.001 A 
ATOM     22  C   UNL     1       1.429   0.000   0.000  0.00  0.00    +0.000 A 
ATOM     23  C   UNL     1       2.143  -0.412   0.000  0.00  0.00    +0.001 A 
ATOM     24  C   UNL     1       2.858   0.000   0.000  0.00  0.00    +0.000 A 
ATOM     25  C   UNL     1       3.572  -0.412   0.000  0.00  0.00    +0.000 A 
ATOM     26  C   UNL     1       3.572  -1.238   0.000  0.00  0.00    +0.000 A 
ATOM     27  C   UNL     1       2.858  -1.650   0.000  0.00  0.00    +0.001 A 
ATOM     28  C   UNL     1       2.143  -1.238   0.000  0.00  0.00    +0.015 A 
ENDBRANCH  18  19
ENDBRANCH  15  16
ENDBRANCH  11  15
TORSDOF 7
