REMARK  Name = 
REMARK  4 active torsions:
REMARK  status: ('A' for Active; 'I' for Inactive)
REMARK    1  A    between atoms: N_4  and  C_5
REMARK    2  A    between atoms: C_8  and  S_11
REMARK    3  A    between atoms: S_11  and  N_14
REMARK    4  A    between atoms: C_23  and  C_24
REMARK                            x       y       z     vdW  Elec       q    Type
REMARK                         _______ _______ _______ _____ _____    ______ ____
ROOT
ATOM     14  N   UNL     1       0.813  -2.091   0.000  0.00  0.00    -0.155 NA
ATOM     15  C   UNL     1       1.629  -1.912   0.000  0.00  0.00    +0.098 C 
ATOM     16  C   UNL     1       1.582  -0.925   0.000  0.00  0.00    +0.041 C 
ATOM     17  C   UNL     1       1.713  -0.121   0.000  0.00  0.00    +0.011 C 
ATOM     18  C   UNL     1       1.163  -0.557   0.000  0.00  0.00    +0.056 C 
ATOM     19  C   UNL     1       1.225  -1.510   0.000  0.00  0.00    +0.102 C 
ATOM     20  C   UNL     1       0.244  -0.558   0.000  0.00  0.00    +0.041 A 
ATOM     21  C   UNL     1      -0.397  -0.039   0.000  0.00  0.00    +0.013 A 
ATOM     22  C   UNL     1      -1.167  -0.335   0.000  0.00  0.00    +0.006 A 
ATOM     23  C   UNL     1      -1.296  -1.150   0.000  0.00  0.00    +0.062 A 
ATOM     33  C   UNL     1      -0.655  -1.669   0.000  0.00  0.00    +0.261 A 
ATOM     34  O   UNL     1      -0.784  -2.484   0.000  0.00  0.00    -0.267 OA
ATOM     35  N   UNL     1       0.115  -1.373   0.000  0.00  0.00    -0.299 N 
ATOM     36  C   UNL     1       0.622  -0.936   0.000  0.00  0.00    +0.110 C 
ENDROOT
BRANCH  23  24
ATOM     24  C   UNL     1      -2.066  -1.445   0.000  0.00  0.00    +0.034 A 
ATOM     25  C   UNL     1      -2.758  -0.996   0.000  0.00  0.00    +0.007 A 
ATOM     26  C   UNL     1      -3.399  -1.515   0.000  0.00  0.00    +0.006 A 
ATOM     27  C   UNL     1      -3.103  -2.286   0.000  0.00  0.00    +0.029 A 
ATOM     28  S   UNL     1      -2.280  -2.242   0.000  0.00  0.00    -0.087 S 
ATOM     29  C   UNL     1      -3.623  -2.927   0.000  0.00  0.00    +0.006 A 
ATOM     30  C   UNL     1      -4.437  -2.798   0.000  0.00  0.00    +0.001 A 
ATOM     31  C   UNL     1      -4.733  -2.028   0.000  0.00  0.00    +0.000 A 
ATOM     32  C   UNL     1      -4.214  -1.387   0.000  0.00  0.00    +0.001 A 
ENDBRANCH  23  24
BRANCH  14  11
ATOM     11  S   UNL     1       0.125  -2.547   0.000  0.00  0.00    +0.063 S 
ATOM     12  O   UNL     1      -0.331  -1.859   0.000  0.00  0.00    -0.153 OA
ATOM     13  O   UNL     1      -0.563  -3.003   0.000  0.00  0.00    -0.153 OA
BRANCH  11   8
ATOM      5  C   UNL     1       1.492  -4.610   0.000  0.00  0.00    +0.073 A 
ATOM      6  C   UNL     1       0.668  -4.661   0.000  0.00  0.00    +0.018 A 
ATOM      7  C   UNL     1       0.213  -3.973   0.000  0.00  0.00    +0.021 A 
ATOM      8  C   UNL     1       0.581  -3.235   0.000  0.00  0.00    +0.122 A 
ATOM      9  C   UNL     1       1.404  -3.184   0.000  0.00  0.00    +0.021 A 
ATOM     10  C   UNL     1       1.860  -3.872   0.000  0.00  0.00    +0.018 A 
BRANCH   5   4
ATOM      1  C   UNL     1       3.227  -5.935   0.000  0.00  0.00    +0.097 C 
ATOM      2  C   UNL     1       2.771  -5.247   0.000  0.00  0.00    +0.246 C 
ATOM      3  O   UNL     1       3.139  -4.509   0.000  0.00  0.00    -0.273 OA
ATOM      4  N   UNL     1       1.948  -5.298   0.000  0.00  0.00    -0.179 NA
ENDBRANCH   5   4
ENDBRANCH  11   8
ENDBRANCH  14  11
TORSDOF 4
