REMARK  Name = 
REMARK  3 active torsions:
REMARK  status: ('A' for Active; 'I' for Inactive)
REMARK    1  A    between atoms: C_6  and  C_7
REMARK    2  A    between atoms: C_7  and  N_8
REMARK    3  A    between atoms: C_18  and  C_20
REMARK                            x       y       z     vdW  Elec       q    Type
REMARK                         _______ _______ _______ _____ _____    ______ ____
ROOT
ATOM      8  N   UNL     1       5.059   5.716   0.000  0.00  0.00    -0.255 N 
ATOM      9  C   UNL     1       5.394   4.963   0.000  0.00  0.00    +0.117 C 
ATOM     10  C   UNL     1       4.781   4.410   0.000  0.00  0.00    +0.116 C 
ATOM     11  C   UNL     1       4.781   3.585   0.000  0.00  0.00    +0.115 C 
ATOM     12  N   UNL     1       4.067   3.173   0.000  0.00  0.00    -0.273 N 
ATOM     13  C   UNL     1       3.352   3.585   0.000  0.00  0.00    +0.115 C 
ATOM     14  C   UNL     1       3.352   4.410   0.000  0.00  0.00    +0.116 C 
ATOM     15  N   UNL     1       4.067   4.823   0.000  0.00  0.00    -0.261 N 
ATOM     16  C   UNL     1       4.238   5.630   0.000  0.00  0.00    +0.308 C 
ATOM     17  O   UNL     1       3.686   6.243   0.000  0.00  0.00    -0.252 OA
ATOM     18  C   UNL     1       4.067   2.348   0.000  0.00  0.00    +0.249 C 
ATOM     19  O   UNL     1       4.781   1.935   0.000  0.00  0.00    -0.270 OA
ENDROOT
BRANCH  18  20
ATOM     20  C   UNL     1       3.352   1.935   0.000  0.00  0.00    +0.057 A 
ATOM     21  C   UNL     1       3.352   1.110   0.000  0.00  0.00    +0.008 A 
ATOM     22  C   UNL     1       2.638   0.698   0.000  0.00  0.00    +0.040 A 
ATOM     23  C   UNL     1       1.923   1.110   0.000  0.00  0.00    +0.176 A 
ATOM     24  O   UNL     1       1.139   0.856   0.000  0.00  0.00    -0.435 OA
ATOM     25  C   UNL     1       0.654   1.523   0.000  0.00  0.00    +0.429 C 
ATOM     26  O   UNL     1       1.139   2.190   0.000  0.00  0.00    -0.435 OA
ATOM     27  C   UNL     1       1.923   1.935   0.000  0.00  0.00    +0.177 A 
ATOM     28  C   UNL     1       2.638   2.348   0.000  0.00  0.00    +0.045 A 
ENDBRANCH  18  20
BRANCH   8   7
ATOM      7  C   UNL     1       5.471   6.431   0.000  0.00  0.00    +0.159 C 
BRANCH   7   6
ATOM      1  C   UNL     1       6.201   8.070   0.000  0.00  0.00    +0.132 C 
ATOM      2  N   UNL     1       5.394   7.899   0.000  0.00  0.00    -0.310 N 
ATOM      3  C   UNL     1       4.781   8.451   0.000  0.00  0.00    +0.098 A 
ATOM      4  C   UNL     1       4.067   8.038   0.000  0.00  0.00    +0.119 A 
ATOM      5  N   UNL     1       4.238   7.231   0.000  0.00  0.00    -0.228 NA
ATOM      6  C   UNL     1       5.059   7.145   0.000  0.00  0.00    +0.141 A 
ENDBRANCH   7   6
ENDBRANCH   8   7
TORSDOF 3
