REMARK  Name = 
REMARK  5 active torsions:
REMARK  status: ('A' for Active; 'I' for Inactive)
REMARK    1  A    between atoms: O_2  and  C_3
REMARK    2  A    between atoms: C_3  and  C_5
REMARK    3  A    between atoms: N_10  and  C_11
REMARK    4  A    between atoms: C_11  and  C_12
REMARK    5  A    between atoms: C_15  and  C_18
REMARK                            x       y       z     vdW  Elec       q    Type
REMARK                         _______ _______ _______ _____ _____    ______ ____
ROOT
ATOM      5  C   UNL     1       2.070   1.110   0.000  0.00  0.00    +0.164 C 
ATOM      6  C   UNL     1       1.356   0.698   0.000  0.00  0.00    +0.075 C 
ATOM      7  C   UNL     1       0.641   1.110   0.000  0.00  0.00    +0.078 A 
ATOM      8  C   UNL     1       0.641   1.935   0.000  0.00  0.00    +0.090 A 
ATOM      9  C   UNL     1       1.356   2.348   0.000  0.00  0.00    +0.121 C 
ATOM     10  N   UNL     1       2.070   1.935   0.000  0.00  0.00    -0.256 NA
ATOM     21  N   UNL     1      -0.143   2.190   0.000  0.00  0.00    -0.226 NA
ATOM     22  C   UNL     1      -0.628   1.523   0.000  0.00  0.00    +0.198 A 
ATOM     23  N   UNL     1      -0.143   0.856   0.000  0.00  0.00    -0.227 NA
ENDROOT
BRANCH   5   3
ATOM      3  C   UNL     1       2.784   0.698   0.000  0.00  0.00    +0.332 C 
ATOM      4  O   UNL     1       2.784  -0.127   0.000  0.00  0.00    -0.249 OA
BRANCH   3   2
ATOM      1  C   UNL     1       3.499   1.935   0.000  0.00  0.00    +0.256 C 
ATOM      2  O   UNL     1       3.499   1.110   0.000  0.00  0.00    -0.443 OA
ENDBRANCH   3   2
ENDBRANCH   5   3
BRANCH  10  11
ATOM     11  C   UNL     1       2.784   2.348   0.000  0.00  0.00    +0.100 C 
BRANCH  11  12
ATOM     12  C   UNL     1       2.784   3.173   0.000  0.00  0.00    -0.006 A 
ATOM     13  C   UNL     1       2.070   3.585   0.000  0.00  0.00    -0.003 A 
ATOM     14  C   UNL     1       2.070   4.410   0.000  0.00  0.00    +0.006 A 
ATOM     15  C   UNL     1       2.784   4.823   0.000  0.00  0.00    +0.080 A 
ATOM     16  C   UNL     1       3.499   4.410   0.000  0.00  0.00    +0.006 A 
ATOM     17  C   UNL     1       3.499   3.585   0.000  0.00  0.00    -0.003 A 
BRANCH  15  18
ATOM     18  C   UNL     1       2.784   5.648   0.000  0.00  0.00    +0.388 C 
ATOM     19  O   UNL     1       2.070   6.060   0.000  0.00  0.00    -0.241 OA
ATOM     20  O   UNL     1       3.499   6.060   0.000  0.00  0.00    -0.241 OA
ENDBRANCH  15  18
ENDBRANCH  11  12
ENDBRANCH  10  11
TORSDOF 5
