REMARK  Name = 
REMARK  8 active torsions:
REMARK  status: ('A' for Active; 'I' for Inactive)
REMARK    1  A    between atoms: S_2  and  C_5
REMARK    2  A    between atoms: C_5  and  C_6
REMARK    3  A    between atoms: C_6  and  C_7
REMARK    4  A    between atoms: C_7  and  N_8
REMARK    5  A    between atoms: C_7  and  C_31
REMARK    6  A    between atoms: C_9  and  C_11
REMARK    7  A    between atoms: C_13  and  N_14
REMARK    8  A    between atoms: N_17  and  C_18
REMARK                            x       y       z     vdW  Elec       q    Type
REMARK                         _______ _______ _______ _____ _____    ______ ____
ROOT
ATOM     11  C   UNL     1       2.858  -6.600   0.000  0.00  0.00    +0.033 C 
ATOM     12  C   UNL     1       2.858  -7.425   0.000  0.00  0.00    -0.002 C 
ATOM     13  C   UNL     1       2.143  -7.838   0.000  0.00  0.00    +0.152 C 
ATOM     26  C   UNL     1       1.429  -7.425   0.000  0.00  0.00    +0.206 C 
ATOM     27  O   UNL     1       0.715  -7.838   0.000  0.00  0.00    -0.218 OA
ATOM     28  C   UNL     1       1.429  -6.600   0.000  0.00  0.00    +0.189 C 
ATOM     29  O   UNL     1       0.715  -6.188   0.000  0.00  0.00    -0.220 OA
ATOM     30  C   UNL     1       2.143  -6.188   0.000  0.00  0.00    +0.066 C 
ENDROOT
BRANCH  13  14
ATOM     14  N   UNL     1       2.143  -8.662   0.000  0.00  0.00    -0.181 NA
ATOM     15  C   UNL     1       1.429  -9.075   0.000  0.00  0.00    +0.344 C 
ATOM     16  O   UNL     1       0.715  -8.662   0.000  0.00  0.00    -0.249 OA
ATOM     17  N   UNL     1       1.429  -9.900   0.000  0.00  0.00    -0.159 NA
BRANCH  17  18
ATOM     18  C   UNL     1       0.715 -10.312   0.000  0.00  0.00    +0.102 A 
ATOM     19  C   UNL     1       0.715 -11.137   0.000  0.00  0.00    +0.021 A 
ATOM     20  C   UNL     1       0.000 -11.550   0.000  0.00  0.00    +0.031 A 
ATOM     21  C   UNL     1      -0.715 -11.137   0.000  0.00  0.00    +0.142 A 
ATOM     22  F   UNL     1      -1.429 -11.550   0.000  0.00  0.00    -0.204 F 
ATOM     23  C   UNL     1      -0.715 -10.312   0.000  0.00  0.00    +0.061 A 
ATOM     24  C   UNL     1       0.000  -9.900   0.000  0.00  0.00    +0.158 A 
ATOM     25  F   UNL     1       0.000  -9.075   0.000  0.00  0.00    -0.203 F 
ENDBRANCH  17  18
ENDBRANCH  13  14
BRANCH  11   9
ATOM      8  N   UNL     1       3.572  -5.362   0.000  0.00  0.00    -0.194 NA
ATOM      9  C   UNL     1       3.572  -6.188   0.000  0.00  0.00    +0.261 C 
ATOM     10  O   UNL     1       4.287  -6.600   0.000  0.00  0.00    -0.269 OA
BRANCH   8   7
ATOM      7  C   UNL     1       4.287  -4.950   0.000  0.00  0.00    +0.176 C 
BRANCH   7  31
ATOM     31  C   UNL     1       5.001  -5.362   0.000  0.00  0.00    +0.281 C 
ATOM     32  N   UNL     1       5.001  -6.188   0.000  0.00  0.00    -0.086 NA
ATOM     33  O   UNL     1       5.716  -4.950   0.000  0.00  0.00    -0.270 OA
ENDBRANCH   7  31
BRANCH   7   6
ATOM      6  C   UNL     1       4.287  -4.125   0.000  0.00  0.00    +0.056 C 
BRANCH   6   5
ATOM      5  C   UNL     1       5.001  -3.712   0.000  0.00  0.00    +0.153 C 
BRANCH   5   2
ATOM      1  C   UNL     1       5.001  -2.062   0.000  0.00  0.00    +0.176 C 
ATOM      2  S   UNL     1       5.001  -2.888   0.000  0.00  0.00    -0.008 S 
ATOM      3  O   UNL     1       4.176  -2.888   0.000  0.00  0.00    -0.173 OA
ATOM      4  O   UNL     1       5.826  -2.888   0.000  0.00  0.00    -0.173 OA
ENDBRANCH   5   2
ENDBRANCH   6   5
ENDBRANCH   7   6
ENDBRANCH   8   7
ENDBRANCH  11   9
TORSDOF 8
