REMARK  Name = 
REMARK  4 active torsions:
REMARK  status: ('A' for Active; 'I' for Inactive)
REMARK    1  A    between atoms: C_5  and  C_6
REMARK    2  A    between atoms: C_6  and  N_7
REMARK    3  A    between atoms: C_10  and  C_12
REMARK    4  A    between atoms: C_18  and  C_21
REMARK                            x       y       z     vdW  Elec       q    Type
REMARK                         _______ _______ _______ _____ _____    ______ ____
ROOT
ATOM      7  N   UNL     1      -2.723  -1.110   0.000  0.00  0.00    -0.269 NA
ATOM      8  C   UNL     1      -2.723  -0.285   0.000  0.00  0.00    +0.073 C 
ATOM      9  C   UNL     1      -1.938  -0.030   0.000  0.00  0.00    +0.026 C 
ATOM     10  C   UNL     1      -1.453  -0.698   0.000  0.00  0.00    +0.076 C 
ATOM     11  C   UNL     1      -1.938  -1.365   0.000  0.00  0.00    +0.080 C 
ENDROOT
BRANCH  10  12
ATOM     12  C   UNL     1      -0.628  -0.698   0.000  0.00  0.00    +0.140 A 
ATOM     13  N   UNL     1      -0.143  -1.365   0.000  0.00  0.00    -0.229 NA
ATOM     14  C   UNL     1       0.641  -1.110   0.000  0.00  0.00    +0.100 A 
ATOM     15  C   UNL     1       0.641  -0.285   0.000  0.00  0.00    +0.101 A 
ATOM     16  N   UNL     1      -0.143  -0.030   0.000  0.00  0.00    -0.229 NA
ATOM     17  C   UNL     1       1.356   0.127   0.000  0.00  0.00    +0.031 A 
ATOM     18  C   UNL     1       2.070  -0.285   0.000  0.00  0.00    +0.070 A 
ATOM     19  C   UNL     1       2.070  -1.110   0.000  0.00  0.00    +0.012 A 
ATOM     20  C   UNL     1       1.356  -1.523   0.000  0.00  0.00    +0.021 A 
BRANCH  18  21
ATOM     21  C   UNL     1       2.784   0.127   0.000  0.00  0.00    +0.100 C 
ATOM     22  N   UNL     1       3.499   0.540   0.000  0.00  0.00    -0.191 NA
ENDBRANCH  18  21
ENDBRANCH  10  12
BRANCH   7   6
ATOM      6  C   UNL     1      -3.390  -1.595   0.000  0.00  0.00    +0.099 C 
BRANCH   6   5
ATOM      1  C   UNL     1      -6.405  -0.253   0.000  0.00  0.00    +0.031 C 
ATOM      2  C   UNL     1      -5.651  -0.589   0.000  0.00  0.00    -0.022 A 
ATOM      3  C   UNL     1      -4.984  -0.104   0.000  0.00  0.00    -0.005 A 
ATOM      4  C   UNL     1      -4.230  -0.439   0.000  0.00  0.00    -0.003 A 
ATOM      5  C   UNL     1      -4.144  -1.260   0.000  0.00  0.00    -0.006 A 
ATOM     23  C   UNL     1      -4.811  -1.745   0.000  0.00  0.00    -0.003 A 
ATOM     24  C   UNL     1      -5.565  -1.409   0.000  0.00  0.00    -0.005 A 
ENDBRANCH   6   5
ENDBRANCH   7   6
TORSDOF 4
