REMARK  Name = 
REMARK  5 active torsions:
REMARK  status: ('A' for Active; 'I' for Inactive)
REMARK    1  A    between atoms: C_4  and  C_5
REMARK    2  A    between atoms: C_5  and  N_6
REMARK    3  A    between atoms: N_6  and  C_7
REMARK    4  A    between atoms: C_7  and  C_8
REMARK    5  A    between atoms: C_15  and  C_16
REMARK                            x       y       z     vdW  Elec       q    Type
REMARK                         _______ _______ _______ _____ _____    ______ ____
ROOT
ATOM      7  C   UNL     1       2.324  -2.754   0.000  0.00  0.00    +0.105 C 
ENDROOT
BRANCH   7   8
ATOM      8  C   UNL     1       1.814  -2.106   0.000  0.00  0.00    +0.075 C 
ATOM      9  C   UNL     1       1.661  -1.343   0.000  0.00  0.00    +0.018 C 
ATOM     10  C   UNL     1       0.923  -1.010   0.000  0.00  0.00    +0.016 C 
ATOM     11  C   UNL     1       0.961  -0.114   0.000  0.00  0.00    +0.018 C 
ATOM     12  C   UNL     1       1.205  -0.720   0.000  0.00  0.00    +0.072 C 
ATOM     13  N   UNL     1       1.065  -1.759   0.000  0.00  0.00    -0.272 NA
ATOM     14  C   UNL     1       0.226  -2.118   0.000  0.00  0.00    +0.085 C 
ATOM     15  C   UNL     1       0.119  -1.362   0.000  0.00  0.00    +0.081 C 
BRANCH  15  16
ATOM     16  C   UNL     1      -0.602  -0.960   0.000  0.00  0.00    -0.078 C 
ATOM     17  C   UNL     1      -1.322  -0.559   0.000  0.00  0.00    -0.014 C 
ENDBRANCH  15  16
ENDBRANCH   7   8
BRANCH   7   6
ATOM      6  N   UNL     1       2.018  -3.520   0.000  0.00  0.00    -0.212 NA
BRANCH   6   5
ATOM      5  C   UNL     1       2.529  -4.168   0.000  0.00  0.00    +0.115 C 
BRANCH   5   4
ATOM      1 CL   UNL     1       0.284  -5.936   0.000  0.00  0.00    -0.082 Cl
ATOM      2  C   UNL     1       1.100  -5.818   0.000  0.00  0.00    +0.057 A 
ATOM      3  C   UNL     1       1.406  -5.052   0.000  0.00  0.00    +0.009 A 
ATOM      4  C   UNL     1       2.223  -4.934   0.000  0.00  0.00    -0.004 A 
ATOM     18  C   UNL     1       2.733  -5.582   0.000  0.00  0.00    -0.003 A 
ATOM     19  C   UNL     1       2.427  -6.348   0.000  0.00  0.00    +0.001 A 
ATOM     20  C   UNL     1       1.611  -6.466   0.000  0.00  0.00    +0.011 A 
ENDBRANCH   5   4
ENDBRANCH   6   5
ENDBRANCH   7   6
TORSDOF 5
