REMARK  Name = 
REMARK  4 active torsions:
REMARK  status: ('A' for Active; 'I' for Inactive)
REMARK    1  A    between atoms: O_2  and  C_3
REMARK    2  A    between atoms: C_6  and  C_9
REMARK    3  A    between atoms: C_12  and  C_14
REMARK    4  A    between atoms: N_21  and  C_22
REMARK                            x       y       z     vdW  Elec       q    Type
REMARK                         _______ _______ _______ _____ _____    ______ ____
ROOT
ATOM     14  C   UNL     1       1.841  -6.215   0.000  0.00  0.00    +0.100 C 
ATOM     15  C   UNL     1       2.096  -7.000   0.000  0.00  0.00    +0.033 C 
ATOM     16  C   UNL     1       1.429  -7.484   0.000  0.00  0.00    +0.096 C 
ATOM     17  N   UNL     1       0.761  -7.000   0.000  0.00  0.00    -0.262 N 
ATOM     18  C   UNL     1       1.016  -6.215   0.000  0.00  0.00    +0.104 C 
ATOM     19  C   UNL     1      -0.023  -7.255   0.000  0.00  0.00    +0.328 C 
ATOM     20  O   UNL     1      -0.636  -6.702   0.000  0.00  0.00    -0.250 OA
ATOM     21  N   UNL     1      -0.195  -8.062   0.000  0.00  0.00    -0.160 NA
ENDROOT
BRANCH  21  22
ATOM     22  C   UNL     1      -0.979  -8.316   0.000  0.00  0.00    +0.102 A 
ATOM     23  C   UNL     1      -1.151  -9.123   0.000  0.00  0.00    +0.021 A 
ATOM     24  C   UNL     1      -1.935  -9.378   0.000  0.00  0.00    +0.031 A 
ATOM     25  C   UNL     1      -2.549  -8.826   0.000  0.00  0.00    +0.142 A 
ATOM     26  F   UNL     1      -3.333  -9.081   0.000  0.00  0.00    -0.204 F 
ATOM     27  C   UNL     1      -2.377  -8.019   0.000  0.00  0.00    +0.061 A 
ATOM     28  C   UNL     1      -1.592  -7.764   0.000  0.00  0.00    +0.158 A 
ATOM     29  F   UNL     1      -1.421  -6.957   0.000  0.00  0.00    -0.203 F 
ENDBRANCH  21  22
BRANCH  14  12
ATOM      9  C   UNL     1       2.739  -4.278   0.000  0.00  0.00    +0.250 A 
ATOM     10  N   UNL     1       3.406  -4.763   0.000  0.00  0.00    -0.107 NA
ATOM     11  N   UNL     1       3.151  -5.548   0.000  0.00  0.00    -0.111 NA
ATOM     12  C   UNL     1       2.326  -5.548   0.000  0.00  0.00    +0.228 A 
ATOM     13  O   UNL     1       2.071  -4.763   0.000  0.00  0.00    -0.419 OA
BRANCH   9   6
ATOM      3  C   UNL     1       2.739  -1.803   0.000  0.00  0.00    +0.139 A 
ATOM      4  C   UNL     1       3.453  -2.216   0.000  0.00  0.00    +0.037 A 
ATOM      5  C   UNL     1       3.453  -3.041   0.000  0.00  0.00    +0.008 A 
ATOM      6  C   UNL     1       2.739  -3.453   0.000  0.00  0.00    +0.055 A 
ATOM      7  C   UNL     1       2.024  -3.041   0.000  0.00  0.00    +0.008 A 
ATOM      8  C   UNL     1       2.024  -2.216   0.000  0.00  0.00    +0.037 A 
BRANCH   3   2
ATOM      1  C   UNL     1       2.024  -0.566   0.000  0.00  0.00    +0.252 C 
ATOM      2  O   UNL     1       2.739  -0.978   0.000  0.00  0.00    -0.471 OA
ENDBRANCH   3   2
ENDBRANCH   9   6
ENDBRANCH  14  12
TORSDOF 4
