REMARK  Name = 
REMARK  7 active torsions:
REMARK  status: ('A' for Active; 'I' for Inactive)
REMARK    1  A    between atoms: C_2  and  C_3
REMARK    2  A    between atoms: C_8  and  C_9
REMARK    3  A    between atoms: C_9  and  C_10
REMARK    4  A    between atoms: N_12  and  C_14
REMARK    5  A    between atoms: C_14  and  C_15
REMARK    6  A    between atoms: N_19  and  C_20
REMARK    7  A    between atoms: C_24  and  O_25
REMARK                            x       y       z     vdW  Elec       q    Type
REMARK                         _______ _______ _______ _____ _____    ______ ____
ROOT
ATOM      3  C   UNL     1      -1.429  -4.950   0.000  0.00  0.00    +0.020 C 
ATOM      4  C   UNL     1      -2.143  -4.537   0.000  0.00  0.00    +0.095 C 
ATOM      5  N   UNL     1      -2.143  -3.712   0.000  0.00  0.00    -0.263 N 
ATOM      6  C   UNL     1      -1.429  -3.300   0.000  0.00  0.00    +0.095 C 
ATOM      7  C   UNL     1      -0.715  -3.712   0.000  0.00  0.00    +0.022 C 
ATOM      8  C   UNL     1      -0.715  -4.537   0.000  0.00  0.00    +0.012 C 
ATOM     17  C   UNL     1      -2.858  -3.300   0.000  0.00  0.00    +0.327 C 
ATOM     18  O   UNL     1      -3.572  -3.712   0.000  0.00  0.00    -0.250 OA
ATOM     19  N   UNL     1      -2.858  -2.475   0.000  0.00  0.00    -0.162 NA
ENDROOT
BRANCH  19  20
ATOM     20  C   UNL     1      -3.572  -2.062   0.000  0.00  0.00    +0.078 A 
ATOM     21  C   UNL     1      -4.287  -2.475   0.000  0.00  0.00    +0.017 A 
ATOM     22  C   UNL     1      -5.001  -2.062   0.000  0.00  0.00    +0.004 A 
ATOM     23  C   UNL     1      -5.001  -1.238   0.000  0.00  0.00    +0.037 A 
ATOM     24  C   UNL     1      -4.287  -0.825   0.000  0.00  0.00    +0.140 A 
ATOM     27  C   UNL     1      -3.572  -1.238   0.000  0.00  0.00    +0.054 A 
BRANCH  24  25
ATOM     25  O   UNL     1      -4.287   0.000   0.000  0.00  0.00    -0.471 OA
ATOM     26  C   UNL     1      -5.001   0.412   0.000  0.00  0.00    +0.252 C 
ENDBRANCH  24  25
ENDBRANCH  19  20
BRANCH   3   2
ATOM      1  C   UNL     1      -0.715  -6.188   0.000  0.00  0.00    +0.000 C 
ATOM      2  C   UNL     1      -1.429  -5.775   0.000  0.00  0.00    +0.002 C 
ENDBRANCH   3   2
BRANCH   8   9
ATOM      9  C   UNL     1       0.000  -4.950   0.000  0.00  0.00    +0.085 C 
BRANCH   9  10
ATOM     10  C   UNL     1       0.715  -4.537   0.000  0.00  0.00    +0.226 C 
ATOM     11  O   UNL     1       0.715  -3.712   0.000  0.00  0.00    -0.275 OA
ATOM     12  N   UNL     1       1.429  -4.950   0.000  0.00  0.00    -0.265 N 
ATOM     13  C   UNL     1       1.429  -5.775   0.000  0.00  0.00    +0.116 C 
BRANCH  12  14
ATOM     14  C   UNL     1       2.143  -4.537   0.000  0.00  0.00    +0.200 C 
BRANCH  14  15
ATOM     15  C   UNL     1       2.858  -4.950   0.000  0.00  0.00    +0.095 C 
ATOM     16  N   UNL     1       3.572  -5.362   0.000  0.00  0.00    -0.194 NA
ENDBRANCH  14  15
ENDBRANCH  12  14
ENDBRANCH   9  10
ENDBRANCH   8   9
TORSDOF 7
