REMARK  Name = 
REMARK  8 active torsions:
REMARK  status: ('A' for Active; 'I' for Inactive)
REMARK    1  A    between atoms: O_2  and  C_3
REMARK    2  A    between atoms: C_8  and  C_9
REMARK    3  A    between atoms: C_9  and  N_10
REMARK    4  A    between atoms: C_11  and  C_13
REMARK    5  A    between atoms: N_17  and  C_18
REMARK    6  A    between atoms: C_18  and  C_19
REMARK    7  A    between atoms: C_28  and  C_29
REMARK    8  A    between atoms: C_29  and  C_30
REMARK                            x       y       z     vdW  Elec       q    Type
REMARK                         _______ _______ _______ _____ _____    ______ ____
ROOT
ATOM     13  C   UNL     1       4.143   1.132   0.000  0.00  0.00    +0.155 C 
ATOM     14  C   UNL     1       3.765   0.399   0.000  0.00  0.00    +0.055 C 
ATOM     15  C   UNL     1       2.956   0.237   0.000  0.00  0.00    -0.002 A 
ATOM     16  C   UNL     1       2.645  -0.527   0.000  0.00  0.00    +0.072 A 
ATOM     17  N   UNL     1       1.822  -0.468   0.000  0.00  0.00    -0.315 N 
ATOM     22  C   UNL     1       1.624   0.333   0.000  0.00  0.00    +0.060 A 
ATOM     23  C   UNL     1       2.325   0.769   0.000  0.00  0.00    +0.011 A 
ATOM     24  C   UNL     1       2.348   1.594   0.000  0.00  0.00    -0.005 A 
ATOM     25  C   UNL     1       1.571   1.982   0.000  0.00  0.00    -0.003 A 
ATOM     26  C   UNL     1       0.870   1.547   0.000  0.00  0.00    +0.001 A 
ATOM     27  C   UNL     1       0.897   0.722   0.000  0.00  0.00    +0.017 A 
ATOM     28  C   UNL     1       3.006   2.090   0.000  0.00  0.00    +0.095 C 
ATOM     33  N   UNL     1       3.805   1.885   0.000  0.00  0.00    -0.207 NA
ENDROOT
BRANCH  13  11
ATOM     10  N   UNL     1       5.399   1.813   0.000  0.00  0.00    -0.199 NA
ATOM     11  C   UNL     1       4.968   1.110   0.000  0.00  0.00    +0.258 C 
ATOM     12  O   UNL     1       5.361   0.384   0.000  0.00  0.00    -0.272 OA
BRANCH  10   9
ATOM      9  C   UNL     1       6.224   1.790   0.000  0.00  0.00    +0.145 C 
BRANCH   9   8
ATOM      3  C   UNL     1       6.263   3.219   0.000  0.00  0.00    +0.136 A 
ATOM      4  C   UNL     1       6.695   3.921   0.000  0.00  0.00    +0.037 A 
ATOM      5  C   UNL     1       7.519   3.899   0.000  0.00  0.00    +0.003 A 
ATOM      6  C   UNL     1       7.912   3.174   0.000  0.00  0.00    -0.000 A 
ATOM      7  C   UNL     1       7.481   2.471   0.000  0.00  0.00    +0.000 A 
ATOM      8  C   UNL     1       6.656   2.493   0.000  0.00  0.00    +0.033 A 
BRANCH   3   2
ATOM      1  C   UNL     1       5.045   3.966   0.000  0.00  0.00    +0.252 C 
ATOM      2  O   UNL     1       5.438   3.241   0.000  0.00  0.00    -0.472 OA
ENDBRANCH   3   2
ENDBRANCH   9   8
ENDBRANCH  10   9
ENDBRANCH  13  11
BRANCH  17  18
ATOM     18  C   UNL     1       1.290  -1.098   0.000  0.00  0.00    +0.183 C 
BRANCH  18  19
ATOM     19  C   UNL     1       1.571  -1.874   0.000  0.00  0.00    -0.066 C 
ATOM     20  C   UNL     1       1.851  -2.650   0.000  0.00  0.00    -0.088 C 
ATOM     21  C   UNL     1       2.131  -3.426   0.000  0.00  0.00    +0.090 C 
ENDBRANCH  18  19
ENDBRANCH  17  18
BRANCH  28  29
ATOM     29  C   UNL     1       2.845   2.899   0.000  0.00  0.00    +0.022 C 
BRANCH  29  30
ATOM     30  C   UNL     1       2.063   3.164   0.000  0.00  0.00    +0.002 C 
ATOM     31  C   UNL     1       1.443   2.619   0.000  0.00  0.00    +0.000 C 
ATOM     32  C   UNL     1       1.902   3.973   0.000  0.00  0.00    +0.000 C 
ENDBRANCH  29  30
ENDBRANCH  28  29
TORSDOF 8
