REMARK  Name = 
REMARK  4 active torsions:
REMARK  status: ('A' for Active; 'I' for Inactive)
REMARK    1  A    between atoms: C_4  and  C_5
REMARK    2  A    between atoms: C_5  and  N_6
REMARK    3  A    between atoms: C_11  and  O_13
REMARK    4  A    between atoms: O_13  and  C_14
REMARK                            x       y       z     vdW  Elec       q    Type
REMARK                         _______ _______ _______ _____ _____    ______ ____
ROOT
ATOM      6  N   UNL     1      -1.205  -2.321   0.000  0.00  0.00    -0.264 NA
ATOM      7  C   UNL     1      -1.401  -3.123   0.000  0.00  0.00    +0.105 C 
ATOM      8  C   UNL     1      -2.150  -3.470   0.000  0.00  0.00    +0.160 C 
ATOM      9  O   UNL     1      -2.887  -3.101   0.000  0.00  0.00    -0.348 OA
ATOM     10  C   UNL     1      -3.059  -2.294   0.000  0.00  0.00    +0.187 C 
ATOM     11  C   UNL     1      -2.535  -1.657   0.000  0.00  0.00    +0.211 C 
ATOM     12  C   UNL     1      -1.710  -1.669   0.000  0.00  0.00    +0.119 C 
ENDROOT
BRANCH   6   5
ATOM      5  C   UNL     1      -0.398  -2.150   0.000  0.00  0.00    +0.101 C 
BRANCH   5   4
ATOM      1  C   UNL     1      -0.398   0.754   0.000  0.00  0.00    +0.130 C 
ATOM      2  N   UNL     1      -0.143  -0.030   0.000  0.00  0.00    -0.324 N 
ATOM      3  C   UNL     1      -0.628  -0.698   0.000  0.00  0.00    +0.073 A 
ATOM      4  C   UNL     1      -0.143  -1.365   0.000  0.00  0.00    +0.012 A 
ATOM     20  C   UNL     1       0.641  -1.110   0.000  0.00  0.00    +0.015 A 
ATOM     21  C   UNL     1       0.641  -0.285   0.000  0.00  0.00    +0.060 A 
ATOM     22  C   UNL     1       1.356   0.127   0.000  0.00  0.00    +0.017 A 
ATOM     23  C   UNL     1       2.070  -0.285   0.000  0.00  0.00    +0.001 A 
ATOM     24  C   UNL     1       2.070  -1.110   0.000  0.00  0.00    +0.000 A 
ATOM     25  C   UNL     1       1.356  -1.523   0.000  0.00  0.00    +0.001 A 
ENDBRANCH   5   4
ENDBRANCH   6   5
BRANCH  11  13
ATOM     13  O   UNL     1      -2.882  -0.908   0.000  0.00  0.00    -0.475 OA
BRANCH  13  14
ATOM     14  C   UNL     1      -3.704  -0.834   0.000  0.00  0.00    +0.139 A 
ATOM     15  C   UNL     1      -4.178  -1.509   0.000  0.00  0.00    +0.037 A 
ATOM     16  C   UNL     1      -5.000  -1.435   0.000  0.00  0.00    +0.003 A 
ATOM     17  C   UNL     1      -5.347  -0.686   0.000  0.00  0.00    +0.000 A 
ATOM     18  C   UNL     1      -4.872  -0.011   0.000  0.00  0.00    +0.003 A 
ATOM     19  C   UNL     1      -4.050  -0.086   0.000  0.00  0.00    +0.037 A 
ENDBRANCH  13  14
ENDBRANCH  11  13
TORSDOF 4
