REMARK  Name = 
REMARK  2 active torsions:
REMARK  status: ('A' for Active; 'I' for Inactive)
REMARK    1  A    between atoms: C_5  and  C_8
REMARK    2  A    between atoms: C_16  and  C_18
REMARK                            x       y       z     vdW  Elec       q    Type
REMARK                         _______ _______ _______ _____ _____    ______ ____
ROOT
ATOM      8  C   UNL     1      -0.397  -0.039   0.000  0.00  0.00    +0.012 A 
ATOM      9  C   UNL     1       0.244  -0.558   0.000  0.00  0.00    +0.041 A 
ATOM     10  C   UNL     1       1.163  -0.557   0.000  0.00  0.00    +0.058 C 
ATOM     11  C   UNL     1       1.713  -0.121   0.000  0.00  0.00    +0.011 C 
ATOM     12  C   UNL     1       1.582  -0.925   0.000  0.00  0.00    +0.043 C 
ATOM     13  C   UNL     1       1.629  -1.912   0.000  0.00  0.00    +0.096 C 
ATOM     14  N   UNL     1       0.813  -2.091   0.000  0.00  0.00    -0.273 N 
ATOM     15  C   UNL     1       1.225  -1.510   0.000  0.00  0.00    +0.100 C 
ATOM     16  C   UNL     1       0.125  -2.547   0.000  0.00  0.00    +0.284 C 
ATOM     17  O   UNL     1      -0.614  -2.179   0.000  0.00  0.00    -0.267 OA
ATOM     23  C   UNL     1       0.622  -0.936   0.000  0.00  0.00    +0.110 C 
ATOM     24  N   UNL     1       0.115  -1.373   0.000  0.00  0.00    -0.299 N 
ATOM     25  C   UNL     1      -0.655  -1.669   0.000  0.00  0.00    +0.261 A 
ATOM     26  O   UNL     1      -1.029  -2.404   0.000  0.00  0.00    -0.267 OA
ATOM     27  C   UNL     1      -1.296  -1.150   0.000  0.00  0.00    +0.061 A 
ATOM     28  C   UNL     1      -1.167  -0.335   0.000  0.00  0.00    +0.006 A 
ENDROOT
BRANCH   8   5
ATOM      1 CL   UNL     1       0.119   3.220   0.000  0.00  0.00    -0.082 Cl
ATOM      2  C   UNL     1      -0.010   2.406   0.000  0.00  0.00    +0.058 A 
ATOM      3  C   UNL     1       0.631   1.887   0.000  0.00  0.00    +0.011 A 
ATOM      4  C   UNL     1       0.502   1.072   0.000  0.00  0.00    +0.001 A 
ATOM      5  C   UNL     1      -0.268   0.776   0.000  0.00  0.00    +0.001 A 
ATOM      6  C   UNL     1      -0.909   1.295   0.000  0.00  0.00    +0.001 A 
ATOM      7  C   UNL     1      -0.780   2.110   0.000  0.00  0.00    +0.011 A 
ENDBRANCH   8   5
BRANCH  16  18
ATOM     18  C   UNL     1       0.176  -3.370   0.000  0.00  0.00    +0.199 A 
ATOM     19  C   UNL     1       0.872  -3.813   0.000  0.00  0.00    +0.045 A 
ATOM     20  C   UNL     1       0.665  -4.612   0.000  0.00  0.00    +0.044 A 
ATOM     21  C   UNL     1      -0.158  -4.663   0.000  0.00  0.00    +0.180 A 
ATOM     22  O   UNL     1      -0.461  -3.896   0.000  0.00  0.00    -0.446 OA
ENDBRANCH  16  18
TORSDOF 2
