REMARK  Name = 
REMARK  3 active torsions:
REMARK  status: ('A' for Active; 'I' for Inactive)
REMARK    1  A    between atoms: C_2  and  C_25
REMARK    2  A    between atoms: C_12  and  C_17
REMARK    3  A    between atoms: C_21  and  C_23
REMARK                            x       y       z     vdW  Elec       q    Type
REMARK                         _______ _______ _______ _____ _____    ______ ____
ROOT
ATOM      1  O   UNL     1       0.284  -3.490   0.000  0.00  0.00    -0.268 OA
ATOM      2  C   UNL     1       0.154  -2.640   0.000  0.00  0.00    +0.268 C 
ATOM      3  N   UNL     1       0.813  -2.091   0.000  0.00  0.00    -0.274 N 
ATOM      4  C   UNL     1       1.629  -1.912   0.000  0.00  0.00    +0.096 C 
ATOM      5  C   UNL     1       1.582  -0.925   0.000  0.00  0.00    +0.043 C 
ATOM      6  C   UNL     1       1.713  -0.121   0.000  0.00  0.00    +0.011 C 
ATOM      7  C   UNL     1       1.163  -0.557   0.000  0.00  0.00    +0.058 C 
ATOM      8  C   UNL     1       1.225  -1.510   0.000  0.00  0.00    +0.100 C 
ATOM      9  C   UNL     1       0.244  -0.558   0.000  0.00  0.00    +0.041 A 
ATOM     10  C   UNL     1      -0.397  -0.039   0.000  0.00  0.00    +0.013 A 
ATOM     11  C   UNL     1      -1.167  -0.335   0.000  0.00  0.00    +0.006 A 
ATOM     12  C   UNL     1      -1.213  -1.232   0.000  0.00  0.00    +0.056 A 
ATOM     13  C   UNL     1      -0.655  -1.669   0.000  0.00  0.00    +0.261 A 
ATOM     14  O   UNL     1      -0.706  -2.733   0.000  0.00  0.00    -0.267 OA
ATOM     15  N   UNL     1       0.115  -1.373   0.000  0.00  0.00    -0.299 N 
ATOM     16  C   UNL     1       0.622  -0.936   0.000  0.00  0.00    +0.110 C 
ENDROOT
BRANCH  12  17
ATOM     17  C   UNL     1      -1.819  -1.693   0.000  0.00  0.00    +0.005 A 
ATOM     18  C   UNL     1      -2.360  -2.095   0.000  0.00  0.00    +0.000 A 
ATOM     19  C   UNL     1      -2.965  -2.556   0.000  0.00  0.00    +0.001 A 
ATOM     20  C   UNL     1      -3.606  -2.037   0.000  0.00  0.00    +0.010 A 
ATOM     21  C   UNL     1      -3.478  -1.222   0.000  0.00  0.00    +0.068 A 
ATOM     22  C   UNL     1      -2.707  -0.926   0.000  0.00  0.00    +0.010 A 
BRANCH  21  23
ATOM     23  C   UNL     1      -4.165  -0.680   0.000  0.00  0.00    +0.100 C 
ATOM     24  N   UNL     1      -4.810  -0.145   0.000  0.00  0.00    -0.191 NA
ENDBRANCH  21  23
ENDBRANCH  12  17
BRANCH   2  25
ATOM     25  C   UNL     1      -0.614  -2.179   0.000  0.00  0.00    +0.154 A 
ATOM     26  C   UNL     1      -0.664  -1.356   0.000  0.00  0.00    +0.123 A 
ATOM     27  N   UNL     1      -1.403  -0.988   0.000  0.00  0.00    -0.239 NA
ATOM     28  C   UNL     1      -2.091  -1.444   0.000  0.00  0.00    +0.120 A 
ATOM     29  C   UNL     1      -2.040  -2.267   0.000  0.00  0.00    +0.120 A 
ATOM     30  N   UNL     1      -1.301  -2.635   0.000  0.00  0.00    -0.236 NA
ENDBRANCH   2  25
TORSDOF 3
