REMARK  Name = 
REMARK  6 active torsions:
REMARK  status: ('A' for Active; 'I' for Inactive)
REMARK    1  A    between atoms: C_2  and  C_3
REMARK    2  A    between atoms: C_3  and  N_4
REMARK    3  A    between atoms: C_5  and  C_7
REMARK    4  A    between atoms: C_7  and  C_8
REMARK    5  A    between atoms: C_13  and  C_14
REMARK    6  A    between atoms: C_16  and  C_18
REMARK                            x       y       z     vdW  Elec       q    Type
REMARK                         _______ _______ _______ _____ _____    ______ ____
ROOT
ATOM      8  C   UNL     1      -0.715   0.412   0.000  0.00  0.00    +0.012 C 
ATOM      9  C   UNL     1      -1.429   0.825   0.000  0.00  0.00    +0.022 C 
ATOM     10  C   UNL     1      -1.429   1.650   0.000  0.00  0.00    +0.094 C 
ATOM     11  N   UNL     1      -0.715   2.062   0.000  0.00  0.00    -0.276 N 
ATOM     12  C   UNL     1       0.000   1.650   0.000  0.00  0.00    +0.094 C 
ATOM     13  C   UNL     1       0.000   0.825   0.000  0.00  0.00    +0.020 C 
ATOM     16  C   UNL     1      -0.715   2.888   0.000  0.00  0.00    +0.251 C 
ATOM     17  O   UNL     1       0.000   3.300   0.000  0.00  0.00    -0.270 OA
ENDROOT
BRANCH  16  18
ATOM     18  C   UNL     1      -1.429   3.300   0.000  0.00  0.00    +0.073 A 
ATOM     19  C   UNL     1      -2.143   2.888   0.000  0.00  0.00    +0.103 A 
ATOM     20  N   UNL     1      -2.858   3.300   0.000  0.00  0.00    -0.242 NA
ATOM     21  C   UNL     1      -2.858   4.125   0.000  0.00  0.00    +0.099 A 
ATOM     22  C   UNL     1      -2.143   4.537   0.000  0.00  0.00    +0.021 A 
ATOM     23  C   UNL     1      -1.429   4.125   0.000  0.00  0.00    +0.008 A 
ENDBRANCH  16  18
BRANCH  13  14
ATOM     14  C   UNL     1       0.715   0.412   0.000  0.00  0.00    +0.002 C 
ATOM     15  C   UNL     1       0.715  -0.412   0.000  0.00  0.00    +0.000 C 
ENDBRANCH  13  14
BRANCH   8   7
ATOM      7  C   UNL     1      -0.715  -0.412   0.000  0.00  0.00    +0.087 C 
BRANCH   7   5
ATOM      4  N   UNL     1      -2.143  -0.412   0.000  0.00  0.00    -0.205 NA
ATOM      5  C   UNL     1      -1.429  -0.825   0.000  0.00  0.00    +0.241 C 
ATOM      6  O   UNL     1      -1.429  -1.650   0.000  0.00  0.00    -0.273 OA
BRANCH   4   3
ATOM      3  C   UNL     1      -2.858  -0.825   0.000  0.00  0.00    +0.115 C 
BRANCH   3   2
ATOM      1  C   UNL     1      -4.287  -0.825   0.000  0.00  0.00    +0.002 C 
ATOM      2  C   UNL     1      -3.572  -0.412   0.000  0.00  0.00    +0.023 C 
ENDBRANCH   3   2
ENDBRANCH   4   3
ENDBRANCH   7   5
ENDBRANCH   8   7
TORSDOF 6
