REMARK  Name = 
REMARK  6 active torsions:
REMARK  status: ('A' for Active; 'I' for Inactive)
REMARK    1  A    between atoms: O_2  and  C_3
REMARK    2  A    between atoms: C_5  and  S_6
REMARK    3  A    between atoms: C_10  and  C_11
REMARK    4  A    between atoms: N_13  and  C_14
REMARK    5  A    between atoms: CA_23  and  CB_24
REMARK    6  A    between atoms: CB_24  and  CG_25
REMARK                            x       y       z     vdW  Elec       q    Type
REMARK                         _______ _______ _______ _____ _____    ______ ____
ROOT
ATOM     14  C   UNK A   1      -0.715  -0.412   0.000  0.00  0.00    +0.099 C 
ATOM     15  C   UNK A   1      -0.715  -1.238   0.000  0.00  0.00    +0.043 C 
ATOM     16  C   UNK A   1       0.000  -1.650   0.000  0.00  0.00    +0.096 C 
ATOM     17  N   UNK A   1       0.715  -1.238   0.000  0.00  0.00    -0.271 N 
ATOM     18  C   UNK A   1       0.715  -0.412   0.000  0.00  0.00    +0.155 C 
ATOM     19  C   UNK A   1       0.000   0.000   0.000  0.00  0.00    +0.051 C 
ATOM     20  C   UNK A   1       1.429   0.000   0.000  0.00  0.00    +0.260 C 
ATOM     21  O   UNK A   1       1.429   0.825   0.000  0.00  0.00    -0.272 OA
ATOM     22  N   LEU A   2       2.143  -0.412   0.000  0.00  0.00    -0.196 NA
ATOM     23  CA  LEU A   2       2.143  -1.238   0.000  0.00  0.00    +0.171 C 
ATOM     28  C   LEU A   2       1.429  -1.650   0.000  0.00  0.00    +0.246 C 
ATOM     29  O   LEU A   2       1.429  -2.475   0.000  0.00  0.00    -0.273 OA
ENDROOT
BRANCH  14  13
ATOM     11  C   UNK A   1      -2.143  -0.412   0.000  0.00  0.00    +0.268 C 
ATOM     12  O   UNK A   1      -2.143  -1.238   0.000  0.00  0.00    -0.268 OA
ATOM     13  N   UNK A   1      -1.429   0.000   0.000  0.00  0.00    -0.203 NA
BRANCH  11  10
ATOM      3  C   UNK A   1      -3.572  -0.412   0.000  0.00  0.00    +0.144 A 
ATOM      4  C   UNK A   1      -4.287   0.000   0.000  0.00  0.00    +0.043 A 
ATOM      5  C   UNK A   1      -4.287   0.825   0.000  0.00  0.00    +0.028 A 
ATOM      8  C   UNK A   1      -3.572   1.238   0.000  0.00  0.00    +0.006 A 
ATOM      9  C   UNK A   1      -2.858   0.825   0.000  0.00  0.00    +0.008 A 
ATOM     10  C   UNK A   1      -2.858   0.000   0.000  0.00  0.00    +0.089 A 
BRANCH   3   2
ATOM      1  C   UNK A   1      -2.858  -1.650   0.000  0.00  0.00    +0.252 C 
ATOM      2  O   UNK A   1      -3.572  -1.238   0.000  0.00  0.00    -0.471 OA
ENDBRANCH   3   2
BRANCH   5   6
ATOM      6  S   UNK A   1      -5.001   1.238   0.000  0.00  0.00    -0.113 S 
ATOM      7  C   UNK A   1      -5.001   2.062   0.000  0.00  0.00    +0.074 C 
ENDBRANCH   5   6
ENDBRANCH  11  10
ENDBRANCH  14  13
BRANCH  23  24
ATOM     24  CB  LEU A   2       2.858  -1.650   0.000  0.00  0.00    +0.031 C 
BRANCH  24  25
ATOM     25  CG  LEU A   2       2.858  -2.475   0.000  0.00  0.00    +0.002 C 
ATOM     26  CD1 LEU A   2       3.572  -2.888   0.000  0.00  0.00    +0.000 C 
ATOM     27  CD2 LEU A   2       2.143  -2.888   0.000  0.00  0.00    +0.000 C 
ENDBRANCH  24  25
ENDBRANCH  23  24
TORSDOF 6
