REMARK  Name = 
REMARK  2 active torsions:
REMARK  status: ('A' for Active; 'I' for Inactive)
REMARK    1  A    between atoms: C_2  and  N_4
REMARK    2  A    between atoms: N_10  and  C_11
REMARK                            x       y       z     vdW  Elec       q    Type
REMARK                         _______ _______ _______ _____ _____    ______ ____
ROOT
ATOM      4  N   UNL     1       3.352   1.935   0.000  0.00  0.00    -0.271 NA
ATOM      5  C   UNL     1       3.352   1.110   0.000  0.00  0.00    +0.094 C 
ATOM      6  C   UNL     1       2.638   0.698   0.000  0.00  0.00    +0.112 C 
ATOM      7  N   UNL     1       1.923   1.110   0.000  0.00  0.00    -0.261 N 
ATOM      8  C   UNL     1       1.923   1.935   0.000  0.00  0.00    +0.113 C 
ATOM      9  C   UNL     1       1.139   2.190   0.000  0.00  0.00    +0.116 C 
ATOM     10  N   UNL     1       0.654   1.523   0.000  0.00  0.00    -0.264 N 
ATOM     17  C   UNL     1       1.139   0.856   0.000  0.00  0.00    +0.307 C 
ATOM     18  O   UNL     1       0.884   0.071   0.000  0.00  0.00    -0.252 OA
ATOM     19  C   UNL     1       2.638   2.348   0.000  0.00  0.00    +0.094 C 
ENDROOT
BRANCH  10  11
ATOM     11  C   UNL     1      -0.171   1.523   0.000  0.00  0.00    +0.077 C 
ATOM     12  C   UNL     1      -0.584   0.808   0.000  0.00  0.00    +0.020 C 
ATOM     13  C   UNL     1      -1.409   0.808   0.000  0.00  0.00    +0.002 C 
ATOM     14  C   UNL     1      -1.821   1.523   0.000  0.00  0.00    +0.000 C 
ATOM     15  C   UNL     1      -1.409   2.237   0.000  0.00  0.00    +0.002 C 
ATOM     16  C   UNL     1      -0.584   2.237   0.000  0.00  0.00    +0.020 C 
ENDBRANCH  10  11
BRANCH   4   2
ATOM      1  C   UNL     1       4.781   1.935   0.000  0.00  0.00    +0.017 C 
ATOM      2  C   UNL     1       4.067   2.348   0.000  0.00  0.00    +0.058 C 
ATOM      3  C   UNL     1       4.067   3.173   0.000  0.00  0.00    +0.017 C 
ENDBRANCH   4   2
TORSDOF 2
