REMARK  Name = 
REMARK  6 active torsions:
REMARK  status: ('A' for Active; 'I' for Inactive)
REMARK    1  A    between atoms: N_4  and  C_22
REMARK    2  A    between atoms: C_7  and  C_8
REMARK    3  A    between atoms: C_10  and  N_11
REMARK    4  A    between atoms: N_11  and  S_12
REMARK    5  A    between atoms: S_12  and  C_15
REMARK    6  A    between atoms: C_25  and  C_28
REMARK                            x       y       z     vdW  Elec       q    Type
REMARK                         _______ _______ _______ _____ _____    ______ ____
ROOT
ATOM      1  C   UNL     1       0.715  -0.412   0.000  0.00  0.00    +0.054 C 
ATOM      2  C   UNL     1       0.715  -1.238   0.000  0.00  0.00    +0.077 A 
ATOM      3  N   UNL     1       1.382  -1.722   0.000  0.00  0.00    -0.170 NA
ATOM      4  N   UNL     1       1.127  -2.507   0.000  0.00  0.00    -0.234 N 
ATOM      5  C   UNL     1       0.302  -2.507   0.000  0.00  0.00    +0.058 A 
ATOM      6  C   UNL     1      -0.183  -3.175   0.000  0.00  0.00    +0.052 C 
ATOM      7  C   UNL     1       0.047  -1.722   0.000  0.00  0.00    +0.010 A 
ENDROOT
BRANCH   4  22
ATOM     22  C   UNL     1       1.612  -3.175   0.000  0.00  0.00    +0.082 A 
ATOM     23  C   UNL     1       2.432  -3.088   0.000  0.00  0.00    +0.019 A 
ATOM     24  C   UNL     1       2.917  -3.756   0.000  0.00  0.00    +0.005 A 
ATOM     25  C   UNL     1       2.582  -4.509   0.000  0.00  0.00    +0.072 A 
ATOM     26  C   UNL     1       1.761  -4.596   0.000  0.00  0.00    +0.005 A 
ATOM     27  C   UNL     1       1.276  -3.928   0.000  0.00  0.00    +0.019 A 
BRANCH  25  28
ATOM     28  C   UNL     1       3.067  -5.177   0.000  0.00  0.00    +0.419 C 
ATOM     29  F   UNL     1       3.552  -5.844   0.000  0.00  0.00    -0.166 F 
ATOM     30  F   UNL     1       2.399  -5.662   0.000  0.00  0.00    -0.166 F 
ATOM     31  F   UNL     1       3.734  -4.692   0.000  0.00  0.00    -0.166 F 
ENDBRANCH  25  28
ENDBRANCH   4  22
BRANCH   7   8
ATOM      8  C   UNL     1      -0.738  -1.468   0.000  0.00  0.00    +0.048 C 
ATOM      9  C   UNL     1      -1.405  -1.952   0.000  0.00  0.00    +0.033 C 
ATOM     10  C   UNL     1      -2.072  -1.468   0.000  0.00  0.00    +0.120 C 
ATOM     20  C   UNL     1      -1.817  -0.683   0.000  0.00  0.00    -0.011 C 
ATOM     21  C   UNL     1      -0.993  -0.683   0.000  0.00  0.00    -0.025 C 
BRANCH  10  11
ATOM     11  N   UNL     1      -2.857  -1.722   0.000  0.00  0.00    -0.074 NA
BRANCH  11  12
ATOM     12  S   UNL     1      -3.470  -1.170   0.000  0.00  0.00    +0.083 S 
ATOM     13  O   UNL     1      -4.022  -1.784   0.000  0.00  0.00    -0.151 OA
ATOM     14  O   UNL     1      -2.918  -0.557   0.000  0.00  0.00    -0.151 OA
BRANCH  12  15
ATOM     15  C   UNL     1      -4.083  -0.618   0.000  0.00  0.00    +0.153 A 
ATOM     16  C   UNL     1      -4.890  -0.790   0.000  0.00  0.00    +0.027 A 
ATOM     17  C   UNL     1      -5.303  -0.075   0.000  0.00  0.00    +0.009 A 
ATOM     18  C   UNL     1      -4.751   0.538   0.000  0.00  0.00    +0.037 A 
ATOM     19  S   UNL     1      -3.997   0.202   0.000  0.00  0.00    -0.067 S 
ENDBRANCH  12  15
ENDBRANCH  11  12
ENDBRANCH  10  11
ENDBRANCH   7   8
TORSDOF 6
