REMARK  Name = 
REMARK  7 active torsions:
REMARK  status: ('A' for Active; 'I' for Inactive)
REMARK    1  A    between atoms: O_2  and  C_3
REMARK    2  A    between atoms: C_3  and  C_5
REMARK    3  A    between atoms: C_5  and  O_6
REMARK    4  A    between atoms: O_6  and  C_7
REMARK    5  A    between atoms: C_7  and  C_8
REMARK    6  A    between atoms: C_15  and  C_16
REMARK    7  A    between atoms: C_18  and  C_21
REMARK                            x       y       z     vdW  Elec       q    Type
REMARK                         _______ _______ _______ _____ _____    ______ ____
ROOT
ATOM      8  C   UNL     1       2.143  -3.712   0.000  0.00  0.00    +0.256 C 
ATOM      9  O   UNL     1       2.143  -4.537   0.000  0.00  0.00    -0.272 OA
ATOM     10  N   UNL     1       2.858  -3.300   0.000  0.00  0.00    -0.265 N 
ATOM     11  C   UNL     1       2.858  -2.475   0.000  0.00  0.00    +0.141 C 
ATOM     12  C   UNL     1       3.572  -2.062   0.000  0.00  0.00    +0.094 A 
ATOM     13  C   UNL     1       4.287  -2.475   0.000  0.00  0.00    +0.078 A 
ATOM     14  C   UNL     1       4.287  -3.300   0.000  0.00  0.00    +0.077 C 
ATOM     15  C   UNL     1       3.572  -3.712   0.000  0.00  0.00    +0.161 C 
ATOM     29  N   UNL     1       4.900  -1.923   0.000  0.00  0.00    -0.227 NA
ATOM     30  C   UNL     1       4.564  -1.169   0.000  0.00  0.00    +0.198 A 
ATOM     31  N   UNL     1       3.744  -1.256   0.000  0.00  0.00    -0.225 NA
ENDROOT
BRANCH  15  16
ATOM     16  C   UNL     1       3.572  -4.537   0.000  0.00  0.00    +0.255 A 
ATOM     17  N   UNL     1       4.240  -5.022   0.000  0.00  0.00    -0.189 NA
ATOM     18  C   UNL     1       3.985  -5.807   0.000  0.00  0.00    +0.203 A 
ATOM     19  N   UNL     1       3.160  -5.807   0.000  0.00  0.00    -0.056 NA
ATOM     20  O   UNL     1       2.905  -5.022   0.000  0.00  0.00    -0.335 OA
BRANCH  18  21
ATOM     21  C   UNL     1       4.470  -6.474   0.000  0.00  0.00    +0.040 A 
ATOM     22  C   UNL     1       5.290  -6.388   0.000  0.00  0.00    +0.006 A 
ATOM     23  C   UNL     1       5.775  -7.056   0.000  0.00  0.00    +0.031 A 
ATOM     24  C   UNL     1       5.440  -7.809   0.000  0.00  0.00    +0.151 A 
ATOM     25  F   UNL     1       5.925  -8.477   0.000  0.00  0.00    -0.203 F 
ATOM     26  C   UNL     1       4.619  -7.896   0.000  0.00  0.00    +0.085 A 
ATOM     27 CL   UNL     1       4.284  -8.649   0.000  0.00  0.00    -0.080 Cl
ATOM     28  C   UNL     1       4.134  -7.228   0.000  0.00  0.00    +0.017 A 
ENDBRANCH  18  21
ENDBRANCH  15  16
BRANCH   8   7
ATOM      7  C   UNL     1       1.429  -3.300   0.000  0.00  0.00    +0.228 C 
BRANCH   7   6
ATOM      6  O   UNL     1       0.715  -3.712   0.000  0.00  0.00    -0.333 OA
BRANCH   6   5
ATOM      5  C   UNL     1       0.000  -3.300   0.000  0.00  0.00    +0.252 C 
BRANCH   5   3
ATOM      3  C   UNL     1      -0.715  -3.712   0.000  0.00  0.00    +0.348 C 
ATOM      4  O   UNL     1      -0.715  -4.537   0.000  0.00  0.00    -0.247 OA
BRANCH   3   2
ATOM      1  C   UNL     1      -2.143  -3.712   0.000  0.00  0.00    +0.256 C 
ATOM      2  O   UNL     1      -1.429  -3.300   0.000  0.00  0.00    -0.443 OA
ENDBRANCH   3   2
ENDBRANCH   5   3
ENDBRANCH   6   5
ENDBRANCH   7   6
ENDBRANCH   8   7
TORSDOF 7
