REMARK  Name = 
REMARK  7 active torsions:
REMARK  status: ('A' for Active; 'I' for Inactive)
REMARK    1  A    between atoms: O_2  and  C_3
REMARK    2  A    between atoms: C_6  and  C_9
REMARK    3  A    between atoms: C_14  and  C_15
REMARK    4  A    between atoms: C_15  and  C_16
REMARK    5  A    between atoms: C_19  and  C_20
REMARK    6  A    between atoms: C_20  and  C_21
REMARK    7  A    between atoms: C_21  and  N_22
REMARK                            x       y       z     vdW  Elec       q    Type
REMARK                         _______ _______ _______ _____ _____    ______ ____
ROOT
ATOM      9  C   UNL     1      -1.098  -5.929   0.000  0.00  0.00    +0.249 C 
ATOM     10  O   UNL     1      -0.360  -6.296   0.000  0.00  0.00    -0.270 OA
ATOM     11  N   UNL     1      -1.149  -5.105   0.000  0.00  0.00    -0.276 N 
ATOM     12  C   UNL     1      -1.888  -4.737   0.000  0.00  0.00    +0.094 C 
ATOM     13  C   UNL     1      -1.938  -3.914   0.000  0.00  0.00    +0.022 C 
ATOM     14  C   UNL     1      -1.251  -3.458   0.000  0.00  0.00    +0.015 C 
ATOM     19  C   UNL     1      -0.512  -3.826   0.000  0.00  0.00    +0.022 C 
ATOM     36  C   UNL     1      -0.461  -4.650   0.000  0.00  0.00    +0.094 C 
ENDROOT
BRANCH   9   6
ATOM      3  C   UNL     1      -3.162  -7.296   0.000  0.00  0.00    +0.139 A 
ATOM      4  C   UNL     1      -3.212  -6.472   0.000  0.00  0.00    +0.037 A 
ATOM      5  C   UNL     1      -2.525  -6.016   0.000  0.00  0.00    +0.008 A 
ATOM      6  C   UNL     1      -1.786  -6.384   0.000  0.00  0.00    +0.054 A 
ATOM      7  C   UNL     1      -1.736  -7.208   0.000  0.00  0.00    +0.008 A 
ATOM      8  C   UNL     1      -2.423  -7.663   0.000  0.00  0.00    +0.037 A 
BRANCH   3   2
ATOM      1  C   UNL     1      -3.799  -8.575   0.000  0.00  0.00    +0.252 C 
ATOM      2  O   UNL     1      -3.849  -7.751   0.000  0.00  0.00    -0.471 OA
ENDBRANCH   3   2
ENDBRANCH   9   6
BRANCH  14  15
ATOM     15  C   UNL     1      -1.301  -2.635   0.000  0.00  0.00    +0.114 C 
BRANCH  15  16
ATOM     16  C   UNL     1      -2.040  -2.267   0.000  0.00  0.00    +0.365 C 
ATOM     17  O   UNL     1      -2.728  -2.723   0.000  0.00  0.00    -0.246 OA
ATOM     18  O   UNL     1      -2.091  -1.444   0.000  0.00  0.00    -0.246 OA
ENDBRANCH  15  16
ENDBRANCH  14  15
BRANCH  19  20
ATOM     20  C   UNL     1       0.176  -3.370   0.000  0.00  0.00    +0.019 C 
BRANCH  20  21
ATOM     21  C   UNL     1       0.125  -2.547   0.000  0.00  0.00    +0.072 C 
BRANCH  21  22
ATOM     22  N   UNL     1       0.813  -2.091   0.000  0.00  0.00    -0.272 NA
ATOM     23  C   UNL     1       1.629  -1.912   0.000  0.00  0.00    +0.074 C 
ATOM     24  C   UNL     1       1.582  -0.925   0.000  0.00  0.00    +0.039 C 
ATOM     25  C   UNL     1       1.713  -0.121   0.000  0.00  0.00    +0.011 C 
ATOM     26  C   UNL     1       1.163  -0.557   0.000  0.00  0.00    +0.054 C 
ATOM     27  C   UNL     1       1.225  -1.510   0.000  0.00  0.00    +0.078 C 
ATOM     28  C   UNL     1       0.244  -0.558   0.000  0.00  0.00    +0.041 A 
ATOM     29  C   UNL     1      -0.397  -0.039   0.000  0.00  0.00    +0.013 A 
ATOM     30  C   UNL     1      -1.167  -0.335   0.000  0.00  0.00    +0.006 A 
ATOM     31  C   UNL     1      -1.296  -1.150   0.000  0.00  0.00    +0.061 A 
ATOM     32  C   UNL     1      -0.655  -1.669   0.000  0.00  0.00    +0.261 A 
ATOM     33  O   UNL     1      -0.784  -2.484   0.000  0.00  0.00    -0.267 OA
ATOM     34  N   UNL     1       0.115  -1.373   0.000  0.00  0.00    -0.299 N 
ATOM     35  C   UNL     1       0.622  -0.936   0.000  0.00  0.00    +0.110 C 
ENDBRANCH  21  22
ENDBRANCH  20  21
ENDBRANCH  19  20
TORSDOF 7
