REMARK  Name = 
REMARK  5 active torsions:
REMARK  status: ('A' for Active; 'I' for Inactive)
REMARK    1  A    between atoms: C_5  and  C_6
REMARK    2  A    between atoms: C_6  and  C_7
REMARK    3  A    between atoms: C_15  and  C_16
REMARK    4  A    between atoms: C_16  and  N_17
REMARK    5  A    between atoms: C_18  and  C_20
REMARK                            x       y       z     vdW  Elec       q    Type
REMARK                         _______ _______ _______ _____ _____    ______ ____
ROOT
ATOM      1  O   UNL     1       1.645  -4.351   0.000  0.00  0.00    -0.218 OA
ATOM      2  C   UNL     1       1.816  -3.544   0.000  0.00  0.00    +0.213 C 
ATOM      3  C   UNL     1       1.264  -2.931   0.000  0.00  0.00    +0.212 C 
ATOM      4  O   UNL     1       0.444  -3.018   0.000  0.00  0.00    -0.218 OA
ATOM      5  C   UNL     1       1.677  -2.217   0.000  0.00  0.00    +0.157 C 
ATOM     14  O   UNL     1       2.483  -2.388   0.000  0.00  0.00    -0.351 OA
ATOM     15  C   UNL     1       2.570  -3.209   0.000  0.00  0.00    +0.170 C 
ENDROOT
BRANCH   5   6
ATOM      6  C   UNL     1       1.341  -1.463   0.000  0.00  0.00    +0.117 C 
BRANCH   6   7
ATOM      7  C   UNL     1       0.520  -1.377   0.000  0.00  0.00    +0.228 C 
ATOM      8  O   UNL     1       0.036  -2.044   0.000  0.00  0.00    -0.275 OA
ATOM      9  N   UNL     1       0.185  -0.623   0.000  0.00  0.00    -0.279 N 
ATOM     10  C   UNL     1      -0.622  -0.452   0.000  0.00  0.00    +0.093 C 
ATOM     11  C   UNL     1      -0.708   0.369   0.000  0.00  0.00    +0.023 C 
ATOM     12  C   UNL     1       0.045   0.704   0.000  0.00  0.00    +0.023 C 
ATOM     13  C   UNL     1       0.598   0.091   0.000  0.00  0.00    +0.093 C 
ENDBRANCH   6   7
ENDBRANCH   5   6
BRANCH  15  16
ATOM     16  C   UNL     1       3.284  -3.621   0.000  0.00  0.00    +0.147 C 
BRANCH  16  17
ATOM     17  N   UNL     1       3.284  -4.446   0.000  0.00  0.00    -0.203 NA
ATOM     18  C   UNL     1       3.999  -4.859   0.000  0.00  0.00    +0.241 C 
ATOM     19  O   UNL     1       4.713  -4.446   0.000  0.00  0.00    -0.273 OA
BRANCH  18  20
ATOM     20  C   UNL     1       3.999  -5.684   0.000  0.00  0.00    +0.078 C 
ATOM     21  C   UNL     1       4.411  -6.398   0.000  0.00  0.00    +0.010 C 
ATOM     22  C   UNL     1       3.586  -6.398   0.000  0.00  0.00    +0.010 C 
ENDBRANCH  18  20
ENDBRANCH  16  17
ENDBRANCH  15  16
TORSDOF 5
