REMARK  Name = 
REMARK  7 active torsions:
REMARK  status: ('A' for Active; 'I' for Inactive)
REMARK    1  A    between atoms: O_2  and  C_3
REMARK    2  A    between atoms: C_3  and  C_4
REMARK    3  A    between atoms: C_9  and  C_11
REMARK    4  A    between atoms: C_11  and  C_12
REMARK    5  A    between atoms: C_14  and  C_15
REMARK    6  A    between atoms: C_15  and  N_16
REMARK    7  A    between atoms: N_19  and  C_20
REMARK                            x       y       z     vdW  Elec       q    Type
REMARK                         _______ _______ _______ _____ _____    ______ ____
ROOT
ATOM     12  C   UNL     1      -2.275   2.714   0.000  0.00  0.00    +0.157 C 
ATOM     13  O   UNL     1      -1.468   2.543   0.000  0.00  0.00    -0.351 OA
ATOM     14  C   UNL     1      -1.382   1.722   0.000  0.00  0.00    +0.170 C 
ATOM     23  C   UNL     1      -2.136   1.387   0.000  0.00  0.00    +0.213 C 
ATOM     24  O   UNL     1      -2.307   0.580   0.000  0.00  0.00    -0.218 OA
ATOM     25  C   UNL     1      -2.688   2.000   0.000  0.00  0.00    +0.212 C 
ATOM     26  O   UNL     1      -3.508   1.914   0.000  0.00  0.00    -0.218 OA
ENDROOT
BRANCH  12  11
ATOM     11  C   UNL     1      -2.611   3.468   0.000  0.00  0.00    +0.117 C 
BRANCH  11   9
ATOM      4  C   UNL     1      -4.574   4.479   0.000  0.00  0.00    +0.105 C 
ATOM      5  C   UNL     1      -4.660   5.300   0.000  0.00  0.00    +0.024 C 
ATOM      6  C   UNL     1      -3.906   5.636   0.000  0.00  0.00    +0.023 C 
ATOM      7  C   UNL     1      -3.354   5.022   0.000  0.00  0.00    +0.093 C 
ATOM      8  N   UNL     1      -3.767   4.308   0.000  0.00  0.00    -0.279 N 
ATOM      9  C   UNL     1      -3.431   3.554   0.000  0.00  0.00    +0.228 C 
ATOM     10  O   UNL     1      -3.916   2.887   0.000  0.00  0.00    -0.275 OA
BRANCH   4   3
ATOM      3  C   UNL     1      -5.187   3.928   0.000  0.00  0.00    +0.162 C 
BRANCH   3   2
ATOM      1  C   UNL     1      -6.585   3.630   0.000  0.00  0.00    +0.174 C 
ATOM      2  O   UNL     1      -5.971   4.182   0.000  0.00  0.00    -0.349 OA
ENDBRANCH   3   2
ENDBRANCH   4   3
ENDBRANCH  11   9
ENDBRANCH  12  11
BRANCH  14  15
ATOM     15  C   UNL     1      -0.667   1.310   0.000  0.00  0.00    +0.149 C 
BRANCH  15  16
ATOM     16  N   UNL     1       0.047   1.722   0.000  0.00  0.00    -0.185 NA
ATOM     17  C   UNL     1       0.761   1.310   0.000  0.00  0.00    +0.339 C 
ATOM     18  O   UNL     1       0.761   0.485   0.000  0.00  0.00    -0.249 OA
ATOM     19  N   UNL     1       1.476   1.722   0.000  0.00  0.00    -0.189 NA
BRANCH  19  20
ATOM     20  C   UNL     1       2.190   1.310   0.000  0.00  0.00    +0.097 C 
ATOM     21  C   UNL     1       2.905   1.722   0.000  0.00  0.00    +0.023 C 
ATOM     22  C   UNL     1       2.190   0.485   0.000  0.00  0.00    +0.023 C 
ENDBRANCH  19  20
ENDBRANCH  15  16
ENDBRANCH  14  15
TORSDOF 7
