REMARK  Name = 
REMARK  8 active torsions:
REMARK  status: ('A' for Active; 'I' for Inactive)
REMARK    1  A    between atoms: C_2  and  C_4
REMARK    2  A    between atoms: C_4  and  C_5
REMARK    3  A    between atoms: C_4  and  N_12
REMARK    4  A    between atoms: C_5  and  C_6
REMARK    5  A    between atoms: C_13  and  C_15
REMARK    6  A    between atoms: N_20  and  S_21
REMARK    7  A    between atoms: S_21  and  C_24
REMARK    8  A    between atoms: C_30  and  C_32
REMARK                            x       y       z     vdW  Elec       q    Type
REMARK                         _______ _______ _______ _____ _____    ______ ____
ROOT
ATOM     15  C   UNL     1       2.143  -2.888   0.000  0.00  0.00    +0.177 C 
ATOM     16  C   UNL     1       1.429  -2.475   0.000  0.00  0.00    +0.121 C 
ATOM     17  N   UNL     1       1.429  -1.650   0.000  0.00  0.00    -0.273 N 
ATOM     18  C   UNL     1       2.143  -1.238   0.000  0.00  0.00    +0.113 C 
ATOM     19  C   UNL     1       2.858  -1.650   0.000  0.00  0.00    +0.118 C 
ATOM     20  N   UNL     1       2.858  -2.475   0.000  0.00  0.00    -0.145 NA
ATOM     30  C   UNL     1       0.715  -1.238   0.000  0.00  0.00    +0.249 C 
ATOM     31  O   UNL     1       0.000  -1.650   0.000  0.00  0.00    -0.270 OA
ENDROOT
BRANCH  30  32
ATOM     32  C   UNL     1       0.715  -0.412   0.000  0.00  0.00    +0.056 A 
ATOM     33  C   UNL     1       0.000   0.000   0.000  0.00  0.00    +0.005 A 
ATOM     34  C   UNL     1       0.000   0.825   0.000  0.00  0.00    +0.002 A 
ATOM     35  C   UNL     1       0.715   1.238   0.000  0.00  0.00    +0.030 A 
ATOM     36  C   UNL     1       1.429   0.825   0.000  0.00  0.00    +0.140 A 
ATOM     37  F   UNL     1       2.143   1.238   0.000  0.00  0.00    -0.204 F 
ATOM     38  C   UNL     1       1.429   0.000   0.000  0.00  0.00    +0.034 A 
ENDBRANCH  30  32
BRANCH  15  13
ATOM     12  N   UNL     1       2.858  -4.125   0.000  0.00  0.00    -0.197 NA
ATOM     13  C   UNL     1       2.143  -3.712   0.000  0.00  0.00    +0.260 C 
ATOM     14  O   UNL     1       1.429  -4.125   0.000  0.00  0.00    -0.272 OA
BRANCH  12   4
ATOM      4  C   UNL     1       2.858  -4.950   0.000  0.00  0.00    +0.174 C 
BRANCH   4   2
ATOM      1  N   UNL     1       1.429  -4.950   0.000  0.00  0.00    -0.086 NA
ATOM      2  C   UNL     1       2.143  -5.362   0.000  0.00  0.00    +0.281 C 
ATOM      3  O   UNL     1       2.143  -6.188   0.000  0.00  0.00    -0.270 OA
ENDBRANCH   4   2
BRANCH   4   5
ATOM      5  C   UNL     1       3.572  -5.362   0.000  0.00  0.00    +0.031 C 
BRANCH   5   6
ATOM      6  C   UNL     1       3.572  -6.188   0.000  0.00  0.00    +0.002 C 
ATOM      7  C   UNL     1       4.287  -6.600   0.000  0.00  0.00    +0.000 C 
ATOM      8  C   UNL     1       4.287  -7.425   0.000  0.00  0.00    +0.000 C 
ATOM      9  C   UNL     1       3.572  -7.838   0.000  0.00  0.00    +0.000 C 
ATOM     10  C   UNL     1       2.858  -7.425   0.000  0.00  0.00    +0.000 C 
ATOM     11  C   UNL     1       2.858  -6.600   0.000  0.00  0.00    +0.000 C 
ENDBRANCH   5   6
ENDBRANCH   4   5
ENDBRANCH  12   4
ENDBRANCH  15  13
BRANCH  20  21
ATOM     21  S   UNL     1       3.572  -2.888   0.000  0.00  0.00    +0.064 S 
ATOM     22  O   UNL     1       4.287  -3.300   0.000  0.00  0.00    -0.153 OA
ATOM     23  O   UNL     1       3.160  -3.602   0.000  0.00  0.00    -0.153 OA
BRANCH  21  24
ATOM     24  C   UNL     1       3.985  -2.173   0.000  0.00  0.00    +0.122 A 
ATOM     25  C   UNL     1       3.572  -1.459   0.000  0.00  0.00    +0.020 A 
ATOM     26  C   UNL     1       3.985  -0.744   0.000  0.00  0.00    +0.001 A 
ATOM     27  C   UNL     1       4.810  -0.744   0.000  0.00  0.00    +0.000 A 
ATOM     28  C   UNL     1       5.222  -1.459   0.000  0.00  0.00    +0.001 A 
ATOM     29  C   UNL     1       4.810  -2.173   0.000  0.00  0.00    +0.020 A 
ENDBRANCH  21  24
ENDBRANCH  20  21
TORSDOF 8
