REMARK  Name = 
REMARK  2 active torsions:
REMARK  status: ('A' for Active; 'I' for Inactive)
REMARK    1  A    between atoms: C_5  and  N_8
REMARK    2  A    between atoms: C_11  and  C_13
REMARK                            x       y       z     vdW  Elec       q    Type
REMARK                         _______ _______ _______ _____ _____    ______ ____
ROOT
ATOM      8  N   UNL     1      -2.723  -1.110   0.000  0.00  0.00    -0.273 NA
ATOM      9  C   UNL     1      -2.723  -0.285   0.000  0.00  0.00    +0.073 C 
ATOM     10  C   UNL     1      -1.938  -0.030   0.000  0.00  0.00    +0.028 C 
ATOM     11  C   UNL     1      -1.453  -0.698   0.000  0.00  0.00    +0.094 C 
ATOM     12  C   UNL     1      -1.938  -1.365   0.000  0.00  0.00    +0.081 C 
ENDROOT
BRANCH  11  13
ATOM     13  C   UNL     1      -0.628  -0.698   0.000  0.00  0.00    +0.207 A 
ATOM     14  N   UNL     1      -0.143  -1.365   0.000  0.00  0.00    -0.212 NA
ATOM     15  C   UNL     1       0.641  -1.110   0.000  0.00  0.00    +0.118 A 
ATOM     16  C   UNL     1       0.641  -0.285   0.000  0.00  0.00    +0.164 A 
ATOM     17  O   UNL     1      -0.143  -0.030   0.000  0.00  0.00    -0.438 OA
ATOM     18  C   UNL     1       1.356   0.127   0.000  0.00  0.00    +0.039 A 
ATOM     19  C   UNL     1       2.070  -0.285   0.000  0.00  0.00    -0.001 A 
ATOM     20  C   UNL     1       2.070  -1.110   0.000  0.00  0.00    -0.020 A 
ATOM     21  C   UNL     1       2.784  -1.523   0.000  0.00  0.00    +0.031 C 
ATOM     22  C   UNL     1       1.356  -1.523   0.000  0.00  0.00    +0.018 A 
ENDBRANCH  11  13
BRANCH   8   5
ATOM      1  C   UNL     1      -5.393  -3.050   0.000  0.00  0.00    +0.090 C 
ATOM      2  N   UNL     1      -4.725  -2.565   0.000  0.00  0.00    -0.271 NA
ATOM      3  C   UNL     1      -4.811  -1.745   0.000  0.00  0.00    +0.074 C 
ATOM      4  C   UNL     1      -4.144  -1.260   0.000  0.00  0.00    +0.033 C 
ATOM      5  C   UNL     1      -3.390  -1.595   0.000  0.00  0.00    +0.060 C 
ATOM      6  C   UNL     1      -3.304  -2.416   0.000  0.00  0.00    +0.033 C 
ATOM      7  C   UNL     1      -3.972  -2.901   0.000  0.00  0.00    +0.074 C 
ENDBRANCH   8   5
TORSDOF 2
