REMARK  Name = 
REMARK  6 active torsions:
REMARK  status: ('A' for Active; 'I' for Inactive)
REMARK    1  A    between atoms: C_2  and  C_5
REMARK    2  A    between atoms: C_8  and  C_9
REMARK    3  A    between atoms: C_9  and  N_10
REMARK    4  A    between atoms: C_15  and  C_16
REMARK    5  A    between atoms: C_18  and  C_21
REMARK    6  A    between atoms: C_24  and  C_27
REMARK                            x       y       z     vdW  Elec       q    Type
REMARK                         _______ _______ _______ _____ _____    ______ ____
ROOT
ATOM     10  N   UNL     1       2.070   1.110   0.000  0.00  0.00    -0.257 NA
ATOM     11  C   UNL     1       1.356   0.698   0.000  0.00  0.00    +0.121 C 
ATOM     12  C   UNL     1       0.641   1.110   0.000  0.00  0.00    +0.090 A 
ATOM     13  C   UNL     1       0.641   1.935   0.000  0.00  0.00    +0.077 A 
ATOM     14  C   UNL     1       1.356   2.348   0.000  0.00  0.00    +0.073 C 
ATOM     15  C   UNL     1       2.070   1.935   0.000  0.00  0.00    +0.144 C 
ATOM     31  N   UNL     1      -0.143   2.190   0.000  0.00  0.00    -0.227 NA
ATOM     32  C   UNL     1      -0.628   1.523   0.000  0.00  0.00    +0.198 A 
ATOM     33  N   UNL     1      -0.143   0.856   0.000  0.00  0.00    -0.226 NA
ENDROOT
BRANCH  15  16
ATOM     16  C   UNL     1       2.784   2.348   0.000  0.00  0.00    +0.251 A 
ATOM     17  N   UNL     1       2.871   3.168   0.000  0.00  0.00    -0.190 NA
ATOM     18  C   UNL     1       3.678   3.340   0.000  0.00  0.00    +0.203 A 
ATOM     19  N   UNL     1       4.090   2.626   0.000  0.00  0.00    -0.056 NA
ATOM     20  O   UNL     1       3.538   2.012   0.000  0.00  0.00    -0.336 OA
BRANCH  18  21
ATOM     21  C   UNL     1       4.013   4.094   0.000  0.00  0.00    +0.039 A 
ATOM     22  C   UNL     1       3.528   4.761   0.000  0.00  0.00    +0.003 A 
ATOM     23  C   UNL     1       3.864   5.515   0.000  0.00  0.00    +0.004 A 
ATOM     24  C   UNL     1       4.684   5.601   0.000  0.00  0.00    +0.071 A 
ATOM     25  C   UNL     1       5.169   4.934   0.000  0.00  0.00    +0.004 A 
ATOM     26  C   UNL     1       4.834   4.180   0.000  0.00  0.00    +0.003 A 
BRANCH  24  27
ATOM     27  C   UNL     1       5.020   6.355   0.000  0.00  0.00    +0.419 C 
ATOM     28  F   UNL     1       5.356   7.108   0.000  0.00  0.00    -0.166 F 
ATOM     29  F   UNL     1       5.774   6.019   0.000  0.00  0.00    -0.166 F 
ATOM     30  F   UNL     1       4.266   6.690   0.000  0.00  0.00    -0.166 F 
ENDBRANCH  24  27
ENDBRANCH  18  21
ENDBRANCH  15  16
BRANCH  10   9
ATOM      9  C   UNL     1       2.784   0.698   0.000  0.00  0.00    +0.100 C 
BRANCH   9   8
ATOM      5  C   UNL     1       2.784  -1.777   0.000  0.00  0.00    +0.071 A 
ATOM      6  C   UNL     1       2.070  -1.365   0.000  0.00  0.00    +0.004 A 
ATOM      7  C   UNL     1       2.070  -0.540   0.000  0.00  0.00    -0.003 A 
ATOM      8  C   UNL     1       2.784  -0.127   0.000  0.00  0.00    -0.006 A 
ATOM     34  C   UNL     1       3.499  -0.540   0.000  0.00  0.00    -0.003 A 
ATOM     35  C   UNL     1       3.499  -1.365   0.000  0.00  0.00    +0.004 A 
BRANCH   5   2
ATOM      1  F   UNL     1       2.784  -3.427   0.000  0.00  0.00    -0.166 F 
ATOM      2  C   UNL     1       2.784  -2.602   0.000  0.00  0.00    +0.419 C 
ATOM      3  F   UNL     1       3.610  -2.602   0.000  0.00  0.00    -0.166 F 
ATOM      4  F   UNL     1       1.960  -2.602   0.000  0.00  0.00    -0.166 F 
ENDBRANCH   5   2
ENDBRANCH   9   8
ENDBRANCH  10   9
TORSDOF 6
