REMARK  Name = 
REMARK  4 active torsions:
REMARK  status: ('A' for Active; 'I' for Inactive)
REMARK    1  A    between atoms: O_2  and  C_3
REMARK    2  A    between atoms: C_6  and  O_7
REMARK    3  A    between atoms: C_9  and  S_11
REMARK    4  A    between atoms: S_11  and  N_14
REMARK                            x       y       z     vdW  Elec       q    Type
REMARK                         _______ _______ _______ _____ _____    ______ ____
ROOT
ATOM     14  N   UNL     1       0.621  -2.416   0.000  0.00  0.00    -0.070 NA
ATOM     15  C   UNL     1       1.404  -2.156   0.000  0.00  0.00    +0.202 A 
ATOM     16  N   UNL     1       2.074  -2.637   0.000  0.00  0.00    -0.226 NA
ATOM     17  C   UNL     1       2.739  -2.148   0.000  0.00  0.00    +0.063 A 
ATOM     18  C   UNL     1       2.479  -1.365   0.000  0.00  0.00    +0.023 A 
ATOM     19  C   UNL     1       3.028  -0.749   0.000  0.00  0.00    +0.034 C 
ATOM     20  C   UNL     1       3.836  -0.916   0.000  0.00  0.00    +0.008 C 
ATOM     21  C   UNL     1       3.576  -0.133   0.000  0.00  0.00    +0.000 C 
ATOM     22  C   UNL     1       4.384  -0.300   0.000  0.00  0.00    +0.001 C 
ATOM     23  C   UNL     1       5.192  -0.467   0.000  0.00  0.00    +0.004 C 
ATOM     24  C   UNL     1       5.452  -1.250   0.000  0.00  0.00    +0.051 C 
ATOM     25  C   UNL     1       6.207  -1.581   0.000  0.00  0.00    +0.103 C 
ATOM     26  C   UNL     1       6.919  -1.165   0.000  0.00  0.00    +0.012 C 
ATOM     27  C   UNL     1       6.126  -2.402   0.000  0.00  0.00    +0.316 C 
ATOM     28  O   UNL     1       6.742  -2.951   0.000  0.00  0.00    -0.250 OA
ATOM     29  O   UNL     1       5.320  -2.578   0.000  0.00  0.00    -0.452 OA
ATOM     30  C   UNL     1       4.903  -1.866   0.000  0.00  0.00    +0.170 C 
ATOM     31  C   UNL     1       4.095  -1.699   0.000  0.00  0.00    +0.046 C 
ATOM     32  C   UNL     1       3.547  -2.315   0.000  0.00  0.00    +0.044 C 
ATOM     33  C   UNL     1       3.806  -3.099   0.000  0.00  0.00    +0.006 C 
ATOM     34  S   UNL     1       1.654  -1.370   0.000  0.00  0.00    -0.053 S 
ENDROOT
BRANCH  14  11
ATOM     11  S   UNL     1       0.004  -1.867   0.000  0.00  0.00    +0.098 S 
ATOM     12  O   UNL     1      -0.544  -2.483   0.000  0.00  0.00    -0.148 OA
ATOM     13  O   UNL     1       0.553  -1.251   0.000  0.00  0.00    -0.148 OA
BRANCH  11   9
ATOM      3  C   UNL     1      -2.011  -1.029   0.000  0.00  0.00    +0.140 A 
ATOM      4  C   UNL     1      -1.844  -0.222   0.000  0.00  0.00    +0.040 A 
ATOM      5  C   UNL     1      -1.061   0.038   0.000  0.00  0.00    +0.041 A 
ATOM      6  C   UNL     1      -0.445  -0.511   0.000  0.00  0.00    +0.158 A 
ATOM      9  C   UNL     1      -0.612  -1.319   0.000  0.00  0.00    +0.164 A 
ATOM     10  C   UNL     1      -1.395  -1.578   0.000  0.00  0.00    +0.060 A 
BRANCH   3   2
ATOM      1  C   UNL     1      -3.410  -0.740   0.000  0.00  0.00    +0.252 C 
ATOM      2  O   UNL     1      -2.794  -1.289   0.000  0.00  0.00    -0.471 OA
ENDBRANCH   3   2
BRANCH   6   7
ATOM      7  O   UNL     1       0.338  -0.251   0.000  0.00  0.00    -0.470 OA
ATOM      8  C   UNL     1       0.955  -0.800   0.000  0.00  0.00    +0.253 C 
ENDBRANCH   6   7
ENDBRANCH  11   9
ENDBRANCH  14  11
TORSDOF 4
