REMARK  Name = 
REMARK  4 active torsions:
REMARK  status: ('A' for Active; 'I' for Inactive)
REMARK    1  A    between atoms: C_4  and  C_13
REMARK    2  A    between atoms: C_5  and  N_6
REMARK    3  A    between atoms: N_6  and  C_7
REMARK    4  A    between atoms: C_7  and  C_8
REMARK                            x       y       z     vdW  Elec       q    Type
REMARK                         _______ _______ _______ _____ _____    ______ ____
ROOT
ATOM      1  O   UNL     1       3.834   2.858   0.000  0.00  0.00    -0.220 OA
ATOM      2  C   UNL     1       4.319   2.191   0.000  0.00  0.00    +0.184 C 
ATOM      3  C   UNL     1       5.144   2.191   0.000  0.00  0.00    +0.041 C 
ATOM      4  C   UNL     1       5.399   1.406   0.000  0.00  0.00    +0.045 C 
ATOM      5  C   UNL     1       4.732   0.921   0.000  0.00  0.00    +0.110 C 
ATOM     11  C   UNL     1       4.064   1.406   0.000  0.00  0.00    +0.198 C 
ATOM     12  O   UNL     1       3.280   1.151   0.000  0.00  0.00    -0.219 OA
ENDROOT
BRANCH   4  13
ATOM     13  C   UNL     1       6.184   1.151   0.000  0.00  0.00    -0.002 A 
ATOM     14  C   UNL     1       6.797   1.703   0.000  0.00  0.00    -0.001 A 
ATOM     15  C   UNL     1       7.582   1.448   0.000  0.00  0.00    +0.020 A 
ATOM     16  C   UNL     1       7.753   0.641   0.000  0.00  0.00    +0.099 A 
ATOM     17  N   UNL     1       7.140   0.089   0.000  0.00  0.00    -0.243 NA
ATOM     18  C   UNL     1       6.355   0.344   0.000  0.00  0.00    +0.095 A 
ENDBRANCH   4  13
BRANCH   5   6
ATOM      6  N   UNL     1       4.732   0.096   0.000  0.00  0.00    -0.216 NA
BRANCH   6   7
ATOM      7  C   UNL     1       4.017  -0.316   0.000  0.00  0.00    +0.089 C 
BRANCH   7   8
ATOM      8  C   UNL     1       4.017  -1.141   0.000  0.00  0.00    +0.017 C 
ATOM      9  C   UNL     1       4.430  -1.855   0.000  0.00  0.00    +0.001 C 
ATOM     10  C   UNL     1       3.605  -1.855   0.000  0.00  0.00    +0.001 C 
ENDBRANCH   7   8
ENDBRANCH   6   7
ENDBRANCH   5   6
TORSDOF 4
