REMARK  Name = 
REMARK  6 active torsions:
REMARK  status: ('A' for Active; 'I' for Inactive)
REMARK    1  A    between atoms: C_5  and  S_8
REMARK    2  A    between atoms: S_8  and  N_11
REMARK    3  A    between atoms: N_11  and  C_12
REMARK    4  A    between atoms: C_12  and  C_13
REMARK    5  A    between atoms: C_16  and  N_17
REMARK    6  A    between atoms: N_17  and  C_18
REMARK                            x       y       z     vdW  Elec       q    Type
REMARK                         _______ _______ _______ _____ _____    ______ ____
ROOT
ATOM     12  C   UNL     1       1.429   6.354   0.000  0.00  0.00    +0.148 C 
ENDROOT
BRANCH  12  13
ATOM     13  C   UNL     1       1.429   5.529   0.000  0.00  0.00    +0.166 C 
ATOM     14  O   UNL     1       2.096   5.044   0.000  0.00  0.00    -0.350 OA
ATOM     15  C   UNL     1       1.841   4.259   0.000  0.00  0.00    +0.162 C 
ATOM     16  C   UNL     1       1.016   4.259   0.000  0.00  0.00    +0.135 C 
ATOM     23  C   UNL     1       0.761   5.044   0.000  0.00  0.00    +0.199 C 
ATOM     24  O   UNL     1      -0.023   5.299   0.000  0.00  0.00    -0.219 OA
BRANCH  16  17
ATOM     17  N   UNL     1       0.531   3.592   0.000  0.00  0.00    -0.216 NA
BRANCH  17  18
ATOM     18  C   UNL     1      -0.289   3.678   0.000  0.00  0.00    +0.073 C 
ATOM     19  C   UNL     1      -0.841   3.065   0.000  0.00  0.00    +0.017 C 
ATOM     20  C   UNL     1      -1.595   3.400   0.000  0.00  0.00    +0.001 C 
ATOM     21  C   UNL     1      -1.508   4.221   0.000  0.00  0.00    +0.001 C 
ATOM     22  C   UNL     1      -0.702   4.392   0.000  0.00  0.00    +0.017 C 
ENDBRANCH  17  18
ENDBRANCH  16  17
ENDBRANCH  12  13
BRANCH  12  11
ATOM     11  N   UNL     1       2.143   6.766   0.000  0.00  0.00    -0.075 NA
BRANCH  11   8
ATOM      8  S   UNL     1       2.143   7.591   0.000  0.00  0.00    +0.077 S 
ATOM      9  O   UNL     1       1.318   7.591   0.000  0.00  0.00    -0.152 OA
ATOM     10  O   UNL     1       2.968   7.591   0.000  0.00  0.00    -0.152 OA
BRANCH   8   5
ATOM      1  C   UNL     1       2.143  10.891   0.000  0.00  0.00    +0.031 C 
ATOM      2  C   UNL     1       2.143  10.066   0.000  0.00  0.00    -0.022 A 
ATOM      3  C   UNL     1       2.858   9.654   0.000  0.00  0.00    -0.003 A 
ATOM      4  C   UNL     1       2.858   8.829   0.000  0.00  0.00    +0.020 A 
ATOM      5  C   UNL     1       2.143   8.416   0.000  0.00  0.00    +0.124 A 
ATOM      6  C   UNL     1       1.429   8.829   0.000  0.00  0.00    +0.020 A 
ATOM      7  C   UNL     1       1.429   9.654   0.000  0.00  0.00    -0.003 A 
ENDBRANCH   8   5
ENDBRANCH  11   8
ENDBRANCH  12  11
TORSDOF 6
