REMARK  Name = 
REMARK  5 active torsions:
REMARK  status: ('A' for Active; 'I' for Inactive)
REMARK    1  A    between atoms: O_2  and  C_3
REMARK    2  A    between atoms: C_6  and  C_7
REMARK    3  A    between atoms: C_7  and  N_8
REMARK    4  A    between atoms: N_11  and  C_12
REMARK    5  A    between atoms: C_12  and  C_13
REMARK                            x       y       z     vdW  Elec       q    Type
REMARK                         _______ _______ _______ _____ _____    ______ ____
ROOT
ATOM      8  N   UNL     1      -1.159  -2.340   0.000  0.00  0.00    -0.271 N 
ATOM      9  C   UNL     1      -1.874  -1.928   0.000  0.00  0.00    +0.120 C 
ATOM     10  C   UNL     1      -2.659  -2.183   0.000  0.00  0.00    +0.095 C 
ATOM     11  N   UNL     1      -3.143  -1.515   0.000  0.00  0.00    -0.265 NA
ATOM     22  C   UNL     1      -2.659  -0.848   0.000  0.00  0.00    +0.104 C 
ATOM     23  C   UNL     1      -1.874  -1.103   0.000  0.00  0.00    +0.151 C 
ATOM     24  O   UNL     1      -1.159  -0.690   0.000  0.00  0.00    -0.344 OA
ATOM     25  C   UNL     1      -0.445  -1.103   0.000  0.00  0.00    +0.227 C 
ATOM     26  C   UNL     1      -0.445  -1.928   0.000  0.00  0.00    +0.256 C 
ATOM     27  O   UNL     1       0.270  -2.340   0.000  0.00  0.00    -0.272 OA
ENDROOT
BRANCH   8   7
ATOM      7  C   UNL     1      -1.159  -3.165   0.000  0.00  0.00    +0.120 C 
BRANCH   7   6
ATOM      3  C   UNL     1       0.984  -4.403   0.000  0.00  0.00    +0.139 A 
ATOM      4  C   UNL     1       0.270  -4.815   0.000  0.00  0.00    +0.037 A 
ATOM      5  C   UNL     1      -0.445  -4.403   0.000  0.00  0.00    +0.001 A 
ATOM      6  C   UNL     1      -0.445  -3.578   0.000  0.00  0.00    -0.002 A 
ATOM     28  C   UNL     1       0.270  -3.165   0.000  0.00  0.00    +0.001 A 
ATOM     29  C   UNL     1       0.984  -3.578   0.000  0.00  0.00    +0.037 A 
BRANCH   3   2
ATOM      1  C   UNL     1       2.413  -4.403   0.000  0.00  0.00    +0.252 C 
ATOM      2  O   UNL     1       1.698  -4.815   0.000  0.00  0.00    -0.471 OA
ENDBRANCH   3   2
ENDBRANCH   7   6
ENDBRANCH   8   7
BRANCH  11  12
ATOM     12  C   UNL     1      -3.969  -1.515   0.000  0.00  0.00    +0.101 C 
BRANCH  12  13
ATOM     13  C   UNL     1      -4.381  -0.801   0.000  0.00  0.00    +0.014 A 
ATOM     14  C   UNL     1      -4.045  -0.047   0.000  0.00  0.00    +0.096 A 
ATOM     15  N   UNL     1      -4.659   0.505   0.000  0.00  0.00    -0.244 NA
ATOM     16  C   UNL     1      -5.373   0.092   0.000  0.00  0.00    +0.081 A 
ATOM     17  C   UNL     1      -5.202  -0.714   0.000  0.00  0.00    +0.016 A 
ATOM     18  C   UNL     1      -5.814  -1.266   0.000  0.00  0.00    +0.001 A 
ATOM     19  C   UNL     1      -6.599  -1.012   0.000  0.00  0.00    +0.000 A 
ATOM     20  C   UNL     1      -6.771  -0.204   0.000  0.00  0.00    +0.002 A 
ATOM     21  C   UNL     1      -6.158   0.347   0.000  0.00  0.00    +0.019 A 
ENDBRANCH  12  13
ENDBRANCH  11  12
TORSDOF 5
