REMARK  Name = 
REMARK  5 active torsions:
REMARK  status: ('A' for Active; 'I' for Inactive)
REMARK    1  A    between atoms: O_2  and  C_3
REMARK    2  A    between atoms: C_5  and  N_6
REMARK    3  A    between atoms: C_14  and  C_15
REMARK    4  A    between atoms: N_17  and  C_18
REMARK    5  A    between atoms: C_25  and  C_27
REMARK                            x       y       z     vdW  Elec       q    Type
REMARK                         _______ _______ _______ _____ _____    ______ ____
ROOT
ATOM      6  N   UNL     1      -0.715  -5.362   0.000  0.00  0.00    -0.162 NA
ATOM      7  C   UNL     1      -0.715  -6.188   0.000  0.00  0.00    +0.328 C 
ATOM      8  O   UNL     1      -1.429  -6.600   0.000  0.00  0.00    -0.250 OA
ATOM      9  N   UNL     1       0.000  -6.600   0.000  0.00  0.00    -0.253 N 
ATOM     10  C   UNL     1       0.715  -6.188   0.000  0.00  0.00    +0.117 C 
ATOM     11  C   UNL     1       1.429  -6.600   0.000  0.00  0.00    +0.115 C 
ATOM     12  N   UNL     1       1.429  -7.425   0.000  0.00  0.00    -0.274 N 
ATOM     13  C   UNL     1       0.715  -7.838   0.000  0.00  0.00    +0.123 C 
ATOM     14  C   UNL     1       0.000  -7.425   0.000  0.00  0.00    +0.175 C 
ATOM     25  C   UNL     1       2.143  -7.838   0.000  0.00  0.00    +0.245 C 
ATOM     26  O   UNL     1       2.143  -8.662   0.000  0.00  0.00    -0.273 OA
ENDROOT
BRANCH   6   5
ATOM      3  C   UNL     1      -2.143  -3.712   0.000  0.00  0.00    +0.140 A 
ATOM      4  C   UNL     1      -1.429  -4.125   0.000  0.00  0.00    +0.054 A 
ATOM      5  C   UNL     1      -1.429  -4.950   0.000  0.00  0.00    +0.078 A 
ATOM     29  C   UNL     1      -2.143  -5.362   0.000  0.00  0.00    +0.017 A 
ATOM     30  C   UNL     1      -2.858  -4.950   0.000  0.00  0.00    +0.004 A 
ATOM     31  C   UNL     1      -2.858  -4.125   0.000  0.00  0.00    +0.037 A 
BRANCH   3   2
ATOM      1  C   UNL     1      -2.858  -2.475   0.000  0.00  0.00    +0.252 C 
ATOM      2  O   UNL     1      -2.143  -2.888   0.000  0.00  0.00    -0.471 OA
ENDBRANCH   3   2
ENDBRANCH   6   5
BRANCH  14  15
ATOM     15  C   UNL     1      -0.715  -7.838   0.000  0.00  0.00    +0.262 C 
ATOM     16  O   UNL     1      -1.429  -7.425   0.000  0.00  0.00    -0.271 OA
ATOM     17  N   UNL     1      -0.715  -8.662   0.000  0.00  0.00    -0.196 NA
BRANCH  17  18
ATOM     18  C   UNL     1       0.000  -9.075   0.000  0.00  0.00    +0.173 C 
ATOM     19  C   UNL     1       0.715  -8.662   0.000  0.00  0.00    +0.033 C 
ATOM     20  C   UNL     1       1.429  -9.075   0.000  0.00  0.00    +0.026 C 
ATOM     21  C   UNL     1       1.429  -9.900   0.000  0.00  0.00    +0.115 C 
ATOM     22  N   UNL     1       0.715 -10.312   0.000  0.00  0.00    -0.204 NA
ATOM     23  C   UNL     1       0.000  -9.900   0.000  0.00  0.00    +0.261 C 
ATOM     24  O   UNL     1      -0.715 -10.312   0.000  0.00  0.00    -0.271 OA
ENDBRANCH  17  18
ENDBRANCH  14  15
BRANCH  25  27
ATOM     27  C   UNL     1       2.858  -7.425   0.000  0.00  0.00    +0.194 C 
ATOM     28  N   UNL     1       3.572  -7.838   0.000  0.00  0.00    -0.121 NA
ENDBRANCH  25  27
TORSDOF 5
