REMARK  Name = 
REMARK  4 active torsions:
REMARK  status: ('A' for Active; 'I' for Inactive)
REMARK    1  A    between atoms: N_4  and  C_5
REMARK    2  A    between atoms: C_9  and  O_13
REMARK    3  A    between atoms: O_13  and  C_14
REMARK    4  A    between atoms: C_14  and  C_15
REMARK                            x       y       z     vdW  Elec       q    Type
REMARK                         _______ _______ _______ _____ _____    ______ ____
ROOT
ATOM      5  C   UNL     1       1.270  -0.922   0.000  0.00  0.00    +0.154 C 
ATOM      6  C   UNL     1       0.785  -0.255   0.000  0.00  0.00    +0.166 C 
ATOM      7  O   UNL     1       1.270   0.412   0.000  0.00  0.00    -0.349 OA
ATOM      8  C   UNL     1       2.054   0.158   0.000  0.00  0.00    +0.173 C 
ATOM      9  C   UNL     1       2.839   0.412   0.000  0.00  0.00    +0.175 C 
ATOM     10  C   UNL     1       3.324  -0.255   0.000  0.00  0.00    +0.174 C 
ATOM     11  O   UNL     1       2.839  -0.922   0.000  0.00  0.00    -0.349 OA
ATOM     12  C   UNL     1       2.054  -0.667   0.000  0.00  0.00    +0.167 C 
ENDROOT
BRANCH   5   4
ATOM      1  C   UNL     1      -0.047  -2.663   0.000  0.00  0.00    +0.096 C 
ATOM      2  C   UNL     1       0.208  -1.879   0.000  0.00  0.00    +0.242 C 
ATOM      3  O   UNL     1      -0.344  -1.265   0.000  0.00  0.00    -0.273 OA
ATOM      4  N   UNL     1       1.015  -1.707   0.000  0.00  0.00    -0.202 NA
ENDBRANCH   5   4
BRANCH   9  13
ATOM     13  O   UNL     1       3.094   1.197   0.000  0.00  0.00    -0.342 OA
BRANCH  13  14
ATOM     14  C   UNL     1       2.542   1.810   0.000  0.00  0.00    +0.230 C 
BRANCH  14  15
ATOM     15  C   UNL     1       2.797   2.595   0.000  0.00  0.00    +0.291 C 
ATOM     16  N   UNL     1       2.245   3.208   0.000  0.00  0.00    -0.086 NA
ATOM     17  O   UNL     1       3.604   2.766   0.000  0.00  0.00    -0.269 OA
ENDBRANCH  14  15
ENDBRANCH  13  14
ENDBRANCH   9  13
TORSDOF 4
