REMARK  Name = 
REMARK  7 active torsions:
REMARK  status: ('A' for Active; 'I' for Inactive)
REMARK    1  A    between atoms: C_2  and  C_3
REMARK    2  A    between atoms: C_5  and  C_6
REMARK    3  A    between atoms: C_6  and  N_7
REMARK    4  A    between atoms: C_8  and  C_10
REMARK    5  A    between atoms: C_17  and  N_20
REMARK    6  A    between atoms: N_23  and  C_26
REMARK    7  A    between atoms: C_28  and  C_32
REMARK                            x       y       z     vdW  Elec       q    Type
REMARK                         _______ _______ _______ _____ _____    ______ ____
ROOT
ATOM      3  C   UNL     1       0.715  -3.712   0.000  0.00  0.00    +0.180 C 
ATOM      4  O   UNL     1       1.382  -4.197   0.000  0.00  0.00    -0.350 OA
ATOM      5  C   UNL     1       1.127  -4.982   0.000  0.00  0.00    +0.154 C 
ATOM     17  C   UNL     1       0.302  -4.982   0.000  0.00  0.00    +0.120 C 
ATOM     18  C   UNL     1       0.047  -4.197   0.000  0.00  0.00    +0.198 C 
ATOM     19  O   UNL     1      -0.738  -3.942   0.000  0.00  0.00    -0.219 OA
ENDROOT
BRANCH  17  20
ATOM     20  N   UNL     1      -0.183  -5.649   0.000  0.00  0.00    -0.267 NA
ATOM     21  C   UNL     1       0.153  -6.403   0.000  0.00  0.00    +0.094 C 
ATOM     22  C   UNL     1      -0.332  -7.071   0.000  0.00  0.00    +0.108 C 
ATOM     23  N   UNL     1      -1.153  -6.984   0.000  0.00  0.00    -0.305 N 
ATOM     24  C   UNL     1      -1.488  -6.231   0.000  0.00  0.00    +0.108 C 
ATOM     25  C   UNL     1      -1.003  -5.563   0.000  0.00  0.00    +0.094 C 
BRANCH  23  26
ATOM     26  C   UNL     1      -1.638  -7.652   0.000  0.00  0.00    +0.048 A 
ATOM     27  C   UNL     1      -1.302  -8.405   0.000  0.00  0.00    +0.018 A 
ATOM     28  C   UNL     1      -1.787  -9.073   0.000  0.00  0.00    +0.073 A 
ATOM     29  C   UNL     1      -2.608  -8.987   0.000  0.00  0.00    +0.004 A 
ATOM     30  C   UNL     1      -2.943  -8.233   0.000  0.00  0.00    +0.001 A 
ATOM     31  C   UNL     1      -2.458  -7.566   0.000  0.00  0.00    +0.015 A 
BRANCH  28  32
ATOM     32  C   UNL     1      -1.452  -9.827   0.000  0.00  0.00    +0.419 C 
ATOM     33  F   UNL     1      -1.116 -10.580   0.000  0.00  0.00    -0.166 F 
ATOM     34  F   UNL     1      -2.205 -10.162   0.000  0.00  0.00    -0.166 F 
ATOM     35  F   UNL     1      -0.698  -9.491   0.000  0.00  0.00    -0.166 F 
ENDBRANCH  28  32
ENDBRANCH  23  26
ENDBRANCH  17  20
BRANCH   3   2
ATOM      1  O   UNL     1       0.000  -2.475   0.000  0.00  0.00    -0.218 OA
ATOM      2  C   UNL     1       0.715  -2.888   0.000  0.00  0.00    +0.214 C 
ENDBRANCH   3   2
BRANCH   5   6
ATOM      6  C   UNL     1       1.612  -5.649   0.000  0.00  0.00    +0.146 C 
BRANCH   6   7
ATOM      7  N   UNL     1       2.432  -5.563   0.000  0.00  0.00    -0.199 NA
ATOM      8  C   UNL     1       2.917  -6.231   0.000  0.00  0.00    +0.266 C 
ATOM      9  O   UNL     1       2.582  -6.984   0.000  0.00  0.00    -0.268 OA
BRANCH   8  10
ATOM     10  C   UNL     1       3.738  -6.144   0.000  0.00  0.00    +0.066 A 
ATOM     11  C   UNL     1       4.073  -5.391   0.000  0.00  0.00    +0.062 A 
ATOM     12 CL   UNL     1       3.588  -4.723   0.000  0.00  0.00    -0.082 Cl
ATOM     13  C   UNL     1       4.894  -5.304   0.000  0.00  0.00    +0.012 A 
ATOM     14  C   UNL     1       5.379  -5.972   0.000  0.00  0.00    +0.001 A 
ATOM     15  C   UNL     1       5.043  -6.726   0.000  0.00  0.00    +0.000 A 
ATOM     16  C   UNL     1       4.223  -6.812   0.000  0.00  0.00    +0.005 A 
ENDBRANCH   8  10
ENDBRANCH   6   7
ENDBRANCH   5   6
TORSDOF 7
