REMARK  Name = 
REMARK  10 active torsions:
REMARK  status: ('A' for Active; 'I' for Inactive)
REMARK    1  A    between atoms: O_2  and  C_3
REMARK    2  A    between atoms: C_6  and  C_7
REMARK    3  A    between atoms: C_7  and  C_8
REMARK    4  A    between atoms: C_8  and  N_9
REMARK    5  A    between atoms: C_8  and  C_37
REMARK    6  A    between atoms: C_10  and  C_12
REMARK    7  A    between atoms: C_14  and  N_25
REMARK    8  A    between atoms: C_17  and  C_19
REMARK    9  A    between atoms: N_28  and  C_29
REMARK   10  A    between atoms: C_33  and  O_34
REMARK                            x       y       z     vdW  Elec       q    Type
REMARK                         _______ _______ _______ _____ _____    ______ ____
ROOT
ATOM     12  C   UNL     1      -1.322  -2.537   0.000  0.00  0.00    +0.156 C 
ATOM     13  C   UNL     1      -0.655  -3.022   0.000  0.00  0.00    +0.053 C 
ATOM     14  C   UNL     1      -0.910  -3.806   0.000  0.00  0.00    +0.119 C 
ATOM     15  C   UNL     1      -1.735  -3.806   0.000  0.00  0.00    +0.116 C 
ATOM     16  N   UNL     1      -1.990  -3.022   0.000  0.00  0.00    -0.266 N 
ATOM     17  C   UNL     1      -2.774  -2.767   0.000  0.00  0.00    +0.265 C 
ATOM     18  O   UNL     1      -2.946  -1.960   0.000  0.00  0.00    -0.268 OA
ENDROOT
BRANCH  17  19
ATOM     19  C   UNL     1      -3.387  -3.319   0.000  0.00  0.00    +0.114 A 
ATOM     20  C   UNL     1      -3.301  -4.139   0.000  0.00  0.00    +0.023 A 
ATOM     21  C   UNL     1      -4.055  -4.475   0.000  0.00  0.00    +0.020 A 
ATOM     22  C   UNL     1      -4.607  -3.862   0.000  0.00  0.00    +0.076 A 
ATOM     23  N   UNL     1      -4.194  -3.147   0.000  0.00  0.00    -0.320 N 
ATOM     24  C   UNL     1      -4.530  -2.393   0.000  0.00  0.00    +0.131 C 
ENDBRANCH  17  19
BRANCH  14  25
ATOM     25  N   UNL     1      -0.425  -4.474   0.000  0.00  0.00    -0.187 NA
ATOM     26  C   UNL     1       0.396  -4.387   0.000  0.00  0.00    +0.343 C 
ATOM     27  O   UNL     1       0.731  -3.634   0.000  0.00  0.00    -0.249 OA
ATOM     28  N   UNL     1       0.881  -5.055   0.000  0.00  0.00    -0.161 NA
BRANCH  28  29
ATOM     29  C   UNL     1       1.701  -4.969   0.000  0.00  0.00    +0.078 A 
ATOM     30  C   UNL     1       2.037  -4.215   0.000  0.00  0.00    +0.017 A 
ATOM     31  C   UNL     1       2.857  -4.129   0.000  0.00  0.00    +0.004 A 
ATOM     32  C   UNL     1       3.342  -4.796   0.000  0.00  0.00    +0.037 A 
ATOM     33  C   UNL     1       3.006  -5.550   0.000  0.00  0.00    +0.140 A 
ATOM     36  C   UNL     1       2.186  -5.636   0.000  0.00  0.00    +0.054 A 
BRANCH  33  34
ATOM     34  O   UNL     1       3.491  -6.217   0.000  0.00  0.00    -0.471 OA
ATOM     35  C   UNL     1       4.312  -6.131   0.000  0.00  0.00    +0.252 C 
ENDBRANCH  33  34
ENDBRANCH  28  29
ENDBRANCH  14  25
BRANCH  12  10
ATOM      9  N   UNL     1      -2.037  -1.299   0.000  0.00  0.00    -0.196 NA
ATOM     10  C   UNL     1      -1.322  -1.712   0.000  0.00  0.00    +0.260 C 
ATOM     11  O   UNL     1      -0.608  -1.299   0.000  0.00  0.00    -0.272 OA
BRANCH   9   8
ATOM      8  C   UNL     1      -2.037  -0.474   0.000  0.00  0.00    +0.179 C 
BRANCH   8  37
ATOM     37  C   UNL     1      -1.322  -0.062   0.000  0.00  0.00    +0.281 C 
ATOM     38  N   UNL     1      -0.608  -0.474   0.000  0.00  0.00    -0.086 NA
ATOM     39  O   UNL     1      -1.322   0.763   0.000  0.00  0.00    -0.270 OA
ENDBRANCH   8  37
BRANCH   8   7
ATOM      7  C   UNL     1      -2.751  -0.062   0.000  0.00  0.00    +0.057 C 
BRANCH   7   6
ATOM      3  C   UNL     1      -2.751   2.413   0.000  0.00  0.00    +0.139 A 
ATOM      4  C   UNL     1      -2.037   2.001   0.000  0.00  0.00    +0.037 A 
ATOM      5  C   UNL     1      -2.037   1.176   0.000  0.00  0.00    -0.001 A 
ATOM      6  C   UNL     1      -2.751   0.763   0.000  0.00  0.00    -0.020 A 
ATOM     40  C   UNL     1      -3.466   1.176   0.000  0.00  0.00    -0.001 A 
ATOM     41  C   UNL     1      -3.466   2.001   0.000  0.00  0.00    +0.037 A 
BRANCH   3   2
ATOM      1  C   UNL     1      -3.466   3.651   0.000  0.00  0.00    +0.252 C 
ATOM      2  O   UNL     1      -2.751   3.238   0.000  0.00  0.00    -0.471 OA
ENDBRANCH   3   2
ENDBRANCH   7   6
ENDBRANCH   8   7
ENDBRANCH   9   8
ENDBRANCH  12  10
TORSDOF 10
