REMARK  Name = 
REMARK  7 active torsions:
REMARK  status: ('A' for Active; 'I' for Inactive)
REMARK    1  A    between atoms: C_4  and  C_5
REMARK    2  A    between atoms: C_5  and  C_6
REMARK    3  A    between atoms: C_9  and  C_10
REMARK    4  A    between atoms: C_10  and  N_11
REMARK    5  A    between atoms: C_19  and  N_20
REMARK    6  A    between atoms: N_20  and  C_21
REMARK    7  A    between atoms: C_21  and  C_22
REMARK                            x       y       z     vdW  Elec       q    Type
REMARK                         _______ _______ _______ _____ _____    ______ ____
ROOT
ATOM      5  C   UNL     1       1.298  -2.111   0.000  0.00  0.00    +0.049 C 
ENDROOT
BRANCH   5   4
ATOM      1  C   UNL     1       0.131  -2.936   0.000  0.00  0.00    +0.001 C 
ATOM      2  C   UNL     1       0.714  -3.519   0.000  0.00  0.00    +0.015 C 
ATOM      3  C   UNL     1       0.131  -4.102   0.000  0.00  0.00    +0.001 C 
ATOM      4  C   UNL     1       1.298  -2.936   0.000  0.00  0.00    +0.009 C 
ATOM     18  C   UNL     1       1.881  -3.519   0.000  0.00  0.00    +0.018 C 
ATOM     19  C   UNL     1       1.298  -4.102   0.000  0.00  0.00    +0.073 C 
BRANCH  19  20
ATOM     20  N   UNL     1       1.298  -4.927   0.000  0.00  0.00    -0.219 NA
BRANCH  20  21
ATOM     21  C   UNL     1       2.012  -5.340   0.000  0.00  0.00    +0.089 C 
BRANCH  21  22
ATOM     22  C   UNL     1       2.012  -6.165   0.000  0.00  0.00    +0.017 C 
ATOM     23  C   UNL     1       2.425  -6.879   0.000  0.00  0.00    +0.001 C 
ATOM     24  C   UNL     1       1.600  -6.879   0.000  0.00  0.00    +0.001 C 
ENDBRANCH  21  22
ENDBRANCH  20  21
ENDBRANCH  19  20
ENDBRANCH   5   4
BRANCH   5   6
ATOM      6  C   UNL     1       2.012  -1.698   0.000  0.00  0.00    +0.100 A 
ATOM      7  N   UNL     1       2.099  -0.877   0.000  0.00  0.00    -0.082 NA
ATOM      8  O   UNL     1       2.905  -0.706   0.000  0.00  0.00    -0.357 OA
ATOM      9  C   UNL     1       3.318  -1.420   0.000  0.00  0.00    +0.170 A 
ATOM     17  C   UNL     1       2.766  -2.034   0.000  0.00  0.00    +0.055 A 
BRANCH   9  10
ATOM     10  C   UNL     1       4.138  -1.507   0.000  0.00  0.00    +0.141 C 
BRANCH  10  11
ATOM     11  N   UNL     1       4.623  -0.839   0.000  0.00  0.00    -0.262 NA
ATOM     12  C   UNL     1       4.288  -0.086   0.000  0.00  0.00    +0.105 C 
ATOM     13  C   UNL     1       4.773   0.582   0.000  0.00  0.00    +0.159 C 
ATOM     14  O   UNL     1       5.593   0.496   0.000  0.00  0.00    -0.351 OA
ATOM     15  C   UNL     1       5.929  -0.258   0.000  0.00  0.00    +0.159 C 
ATOM     16  C   UNL     1       5.444  -0.925   0.000  0.00  0.00    +0.105 C 
ENDBRANCH  10  11
ENDBRANCH   9  10
ENDBRANCH   5   6
TORSDOF 7
