REMARK  Name = 
REMARK  10 active torsions:
REMARK  status: ('A' for Active; 'I' for Inactive)
REMARK    1  A    between atoms: O_2  and  C_3
REMARK    2  A    between atoms: C_3  and  C_5
REMARK    3  A    between atoms: C_5  and  N_6
REMARK    4  A    between atoms: C_5  and  C_26
REMARK    5  A    between atoms: C_7  and  C_9
REMARK    6  A    between atoms: C_11  and  N_19
REMARK    7  A    between atoms: C_14  and  C_16
REMARK    8  A    between atoms: C_16  and  S_17
REMARK    9  A    between atoms: N_22  and  C_23
REMARK   10  A    between atoms: C_23  and  C_24
REMARK                            x       y       z     vdW  Elec       q    Type
REMARK                         _______ _______ _______ _____ _____    ______ ____
ROOT
ATOM      9  C   UNL     1      -2.275   2.714   0.000  0.00  0.00    +0.155 C 
ATOM     10  C   UNL     1      -1.468   2.543   0.000  0.00  0.00    +0.053 C 
ATOM     11  C   UNL     1      -1.382   1.722   0.000  0.00  0.00    +0.119 C 
ATOM     12  C   UNL     1      -2.136   1.387   0.000  0.00  0.00    +0.116 C 
ATOM     13  N   UNL     1      -2.688   2.000   0.000  0.00  0.00    -0.270 N 
ATOM     14  C   UNL     1      -3.508   1.914   0.000  0.00  0.00    +0.237 C 
ATOM     15  O   UNL     1      -3.993   2.581   0.000  0.00  0.00    -0.274 OA
ENDROOT
BRANCH  11  19
ATOM     19  N   UNL     1      -0.667   1.310   0.000  0.00  0.00    -0.187 NA
ATOM     20  C   UNL     1       0.047   1.722   0.000  0.00  0.00    +0.340 C 
ATOM     21  O   UNL     1       0.047   2.547   0.000  0.00  0.00    -0.249 OA
ATOM     22  N   UNL     1       0.761   1.310   0.000  0.00  0.00    -0.182 NA
BRANCH  22  23
ATOM     23  C   UNL     1       1.476   1.722   0.000  0.00  0.00    +0.143 C 
BRANCH  23  24
ATOM     24  C   UNL     1       2.190   1.310   0.000  0.00  0.00    -0.003 C 
ATOM     25  C   UNL     1       2.905   1.722   0.000  0.00  0.00    -0.003 C 
ENDBRANCH  23  24
ENDBRANCH  22  23
ENDBRANCH  11  19
BRANCH   9   7
ATOM      6  N   UNL     1      -3.431   3.554   0.000  0.00  0.00    -0.194 NA
ATOM      7  C   UNL     1      -2.611   3.468   0.000  0.00  0.00    +0.260 C 
ATOM      8  O   UNL     1      -2.126   4.136   0.000  0.00  0.00    -0.272 OA
BRANCH   6   5
ATOM      5  C   UNL     1      -3.767   4.308   0.000  0.00  0.00    +0.193 C 
BRANCH   5  26
ATOM     26  C   UNL     1      -3.282   4.976   0.000  0.00  0.00    +0.031 C 
ATOM     27  C   UNL     1      -2.461   4.889   0.000  0.00  0.00    +0.002 C 
ATOM     28  C   UNL     1      -3.617   5.729   0.000  0.00  0.00    +0.002 C 
ENDBRANCH   5  26
BRANCH   5   3
ATOM      3  C   UNL     1      -4.587   4.394   0.000  0.00  0.00    +0.337 C 
ATOM      4  O   UNL     1      -5.072   3.727   0.000  0.00  0.00    -0.248 OA
BRANCH   3   2
ATOM      1  C   UNL     1      -5.743   5.234   0.000  0.00  0.00    +0.256 C 
ATOM      2  O   UNL     1      -4.923   5.148   0.000  0.00  0.00    -0.443 OA
ENDBRANCH   3   2
ENDBRANCH   5   3
ENDBRANCH   6   5
ENDBRANCH   9   7
BRANCH  14  16
ATOM     16  C   UNL     1      -3.844   1.160   0.000  0.00  0.00    +0.143 C 
BRANCH  16  17
ATOM     17  S   UNL     1      -3.359   0.493   0.000  0.00  0.00    -0.130 S 
ATOM     18  C   UNL     1      -3.694  -0.261   0.000  0.00  0.00    +0.070 C 
ENDBRANCH  16  17
ENDBRANCH  14  16
TORSDOF 10
