REMARK  Name = 
REMARK  9 active torsions:
REMARK  status: ('A' for Active; 'I' for Inactive)
REMARK    1  A    between atoms: O_2  and  C_3
REMARK    2  A    between atoms: C_6  and  C_9
REMARK    3  A    between atoms: C_12  and  C_13
REMARK    4  A    between atoms: C_13  and  C_14
REMARK    5  A    between atoms: C_16  and  C_17
REMARK    6  A    between atoms: C_20  and  C_21
REMARK    7  A    between atoms: C_21  and  N_22
REMARK    8  A    between atoms: N_22  and  C_23
REMARK    9  A    between atoms: C_23  and  C_24
REMARK                            x       y       z     vdW  Elec       q    Type
REMARK                         _______ _______ _______ _____ _____    ______ ____
ROOT
ATOM     14  C   UNL     1      -5.290  -5.563   0.000  0.00  0.00    +0.027 C 
ATOM     15  C   UNL     1      -5.775  -6.231   0.000  0.00  0.00    +0.005 C 
ATOM     16  C   UNL     1      -6.596  -6.144   0.000  0.00  0.00    +0.006 C 
ATOM     20  C   UNL     1      -6.931  -5.391   0.000  0.00  0.00    +0.039 C 
ATOM     30  C   UNL     1      -6.446  -4.723   0.000  0.00  0.00    -0.033 C 
ATOM     31  C   UNL     1      -5.626  -4.810   0.000  0.00  0.00    -0.048 C 
ATOM     32  C   UNL     1      -5.141  -4.142   0.000  0.00  0.00    +0.026 C 
ENDROOT
BRANCH  16  17
ATOM     17  C   UNL     1      -7.081  -6.812   0.000  0.00  0.00    +0.000 C 
ATOM     18  C   UNL     1      -7.901  -6.726   0.000  0.00  0.00    +0.000 C 
ATOM     19  C   UNL     1      -6.745  -7.566   0.000  0.00  0.00    +0.000 C 
ENDBRANCH  16  17
BRANCH  14  13
ATOM     13  C   UNL     1      -4.470  -5.649   0.000  0.00  0.00    +0.091 C 
BRANCH  13  12
ATOM      9  C   UNL     1      -3.572  -3.712   0.000  0.00  0.00    +0.250 A 
ATOM     10  N   UNL     1      -2.905  -4.197   0.000  0.00  0.00    -0.107 NA
ATOM     11  N   UNL     1      -3.160  -4.982   0.000  0.00  0.00    -0.111 NA
ATOM     12  C   UNL     1      -3.985  -4.982   0.000  0.00  0.00    +0.227 A 
ATOM     33  O   UNL     1      -4.240  -4.197   0.000  0.00  0.00    -0.420 OA
BRANCH   9   6
ATOM      3  C   UNL     1      -3.572  -1.238   0.000  0.00  0.00    +0.139 A 
ATOM      4  C   UNL     1      -2.858  -1.650   0.000  0.00  0.00    +0.037 A 
ATOM      5  C   UNL     1      -2.858  -2.475   0.000  0.00  0.00    +0.008 A 
ATOM      6  C   UNL     1      -3.572  -2.888   0.000  0.00  0.00    +0.055 A 
ATOM      7  C   UNL     1      -4.287  -2.475   0.000  0.00  0.00    +0.008 A 
ATOM      8  C   UNL     1      -4.287  -1.650   0.000  0.00  0.00    +0.037 A 
BRANCH   3   2
ATOM      1  C   UNL     1      -4.287   0.000   0.000  0.00  0.00    +0.252 C 
ATOM      2  O   UNL     1      -3.572  -0.412   0.000  0.00  0.00    -0.471 OA
ENDBRANCH   3   2
ENDBRANCH   9   6
ENDBRANCH  13  12
ENDBRANCH  14  13
BRANCH  20  21
ATOM     21  C   UNL     1      -7.752  -5.304   0.000  0.00  0.00    +0.093 C 
BRANCH  21  22
ATOM     22  N   UNL     1      -8.087  -4.551   0.000  0.00  0.00    -0.213 NA
BRANCH  22  23
ATOM     23  C   UNL     1      -8.908  -4.465   0.000  0.00  0.00    +0.115 C 
BRANCH  23  24
ATOM     24  C   UNL     1      -9.393  -5.132   0.000  0.00  0.00    -0.002 A 
ATOM     25  C   UNL     1      -9.057  -5.886   0.000  0.00  0.00    +0.018 A 
ATOM     26  C   UNL     1      -9.542  -6.553   0.000  0.00  0.00    +0.099 A 
ATOM     27  N   UNL     1     -10.363  -6.467   0.000  0.00  0.00    -0.242 NA
ATOM     28  C   UNL     1     -10.698  -5.713   0.000  0.00  0.00    +0.099 A 
ATOM     29  C   UNL     1     -10.213  -5.046   0.000  0.00  0.00    +0.018 A 
ENDBRANCH  23  24
ENDBRANCH  22  23
ENDBRANCH  21  22
ENDBRANCH  20  21
TORSDOF 9
