REMARK  Name = 
REMARK  9 active torsions:
REMARK  status: ('A' for Active; 'I' for Inactive)
REMARK    1  A    between atoms: C_2  and  C_4
REMARK    2  A    between atoms: C_6  and  C_7
REMARK    3  A    between atoms: C_7  and  C_8
REMARK    4  A    between atoms: N_10  and  C_11
REMARK    5  A    between atoms: C_19  and  C_20
REMARK    6  A    between atoms: C_20  and  N_21
REMARK    7  A    between atoms: N_21  and  S_22
REMARK    8  A    between atoms: S_22  and  C_25
REMARK    9  A    between atoms: C_28  and  N_29
REMARK                            x       y       z     vdW  Elec       q    Type
REMARK                         _______ _______ _______ _____ _____    ______ ____
ROOT
ATOM      4  C   UNL     1      -2.751  -3.362   0.000  0.00  0.00    +0.006 C 
ATOM      5  C   UNL     1      -2.037  -3.774   0.000  0.00  0.00    +0.005 C 
ATOM      6  C   UNL     1      -2.037  -4.599   0.000  0.00  0.00    +0.027 C 
ATOM     16  C   UNL     1      -2.751  -5.012   0.000  0.00  0.00    -0.048 C 
ATOM     17  C   UNL     1      -2.751  -5.837   0.000  0.00  0.00    +0.026 C 
ATOM     18  C   UNL     1      -3.466  -4.599   0.000  0.00  0.00    -0.033 C 
ATOM     19  C   UNL     1      -3.466  -3.774   0.000  0.00  0.00    +0.041 C 
ENDROOT
BRANCH   4   2
ATOM      1  C   UNL     1      -3.466  -2.124   0.000  0.00  0.00    +0.000 C 
ATOM      2  C   UNL     1      -2.751  -2.537   0.000  0.00  0.00    +0.000 C 
ATOM      3  C   UNL     1      -2.037  -2.124   0.000  0.00  0.00    +0.000 C 
ENDBRANCH   4   2
BRANCH   6   7
ATOM      7  C   UNL     1      -1.322  -5.012   0.000  0.00  0.00    +0.091 C 
BRANCH   7   8
ATOM      8  C   UNL     1      -1.322  -5.837   0.000  0.00  0.00    +0.242 C 
ATOM      9  O   UNL     1      -2.037  -6.249   0.000  0.00  0.00    -0.273 OA
ATOM     10  N   UNL     1      -0.608  -6.249   0.000  0.00  0.00    -0.207 NA
BRANCH  10  11
ATOM     11  C   UNL     1      -0.608  -7.074   0.000  0.00  0.00    +0.095 C 
ATOM     12  C   UNL     1       0.060  -7.559   0.000  0.00  0.00    +0.022 C 
ATOM     13  C   UNL     1      -0.195  -8.344   0.000  0.00  0.00    +0.002 C 
ATOM     14  C   UNL     1      -1.020  -8.344   0.000  0.00  0.00    +0.002 C 
ATOM     15  C   UNL     1      -1.275  -7.559   0.000  0.00  0.00    +0.022 C 
ENDBRANCH  10  11
ENDBRANCH   7   8
ENDBRANCH   6   7
BRANCH  19  20
ATOM     20  C   UNL     1      -4.180  -3.362   0.000  0.00  0.00    +0.120 C 
BRANCH  20  21
ATOM     21  N   UNL     1      -4.895  -3.774   0.000  0.00  0.00    -0.077 NA
BRANCH  21  22
ATOM     22  S   UNL     1      -5.609  -3.362   0.000  0.00  0.00    +0.077 S 
ATOM     23  O   UNL     1      -5.197  -2.647   0.000  0.00  0.00    -0.152 OA
ATOM     24  O   UNL     1      -6.022  -4.076   0.000  0.00  0.00    -0.152 OA
BRANCH  22  25
ATOM     25  C   UNL     1      -6.324  -2.949   0.000  0.00  0.00    +0.124 A 
ATOM     26  C   UNL     1      -7.038  -3.362   0.000  0.00  0.00    +0.021 A 
ATOM     27  C   UNL     1      -7.753  -2.949   0.000  0.00  0.00    +0.018 A 
ATOM     28  C   UNL     1      -7.753  -2.124   0.000  0.00  0.00    +0.073 A 
ATOM     33  C   UNL     1      -7.038  -1.712   0.000  0.00  0.00    +0.018 A 
ATOM     34  C   UNL     1      -6.324  -2.124   0.000  0.00  0.00    +0.021 A 
BRANCH  28  29
ATOM     29  N   UNL     1      -8.467  -1.712   0.000  0.00  0.00    -0.179 NA
ATOM     30  C   UNL     1      -8.467  -0.887   0.000  0.00  0.00    +0.246 C 
ATOM     31  C   UNL     1      -9.181  -0.474   0.000  0.00  0.00    +0.097 C 
ATOM     32  O   UNL     1      -7.753  -0.474   0.000  0.00  0.00    -0.273 OA
ENDBRANCH  28  29
ENDBRANCH  22  25
ENDBRANCH  21  22
ENDBRANCH  20  21
ENDBRANCH  19  20
TORSDOF 9
