REMARK  Name = 
REMARK  6 active torsions:
REMARK  status: ('A' for Active; 'I' for Inactive)
REMARK    1  A    between atoms: C_5  and  O_6
REMARK    2  A    between atoms: O_6  and  C_7
REMARK    3  A    between atoms: C_7  and  C_8
REMARK    4  A    between atoms: C_11  and  C_13
REMARK    5  A    between atoms: N_16  and  C_17
REMARK    6  A    between atoms: C_17  and  C_18
REMARK                            x       y       z     vdW  Elec       q    Type
REMARK                         _______ _______ _______ _____ _____    ______ ____
ROOT
ATOM     13  C   UNL     1       3.654   4.442   0.000  0.00  0.00    +0.096 C 
ATOM     14  C   UNL     1       4.479   4.442   0.000  0.00  0.00    +0.028 C 
ATOM     15  C   UNL     1       4.734   3.658   0.000  0.00  0.00    +0.073 C 
ATOM     16  N   UNL     1       4.067   3.173   0.000  0.00  0.00    -0.268 NA
ATOM     27  C   UNL     1       3.399   3.658   0.000  0.00  0.00    +0.082 C 
ENDROOT
BRANCH  13  11
ATOM      8  C   UNL     1       2.089   5.894   0.000  0.00  0.00    +0.270 A 
ATOM      9  N   UNL     1       2.757   6.380   0.000  0.00  0.00    -0.108 NA
ATOM     10  N   UNL     1       3.424   5.894   0.000  0.00  0.00    -0.112 NA
ATOM     11  C   UNL     1       3.169   5.110   0.000  0.00  0.00    +0.227 A 
ATOM     12  O   UNL     1       2.344   5.110   0.000  0.00  0.00    -0.420 OA
BRANCH   8   7
ATOM      7  C   UNL     1       1.305   6.149   0.000  0.00  0.00    +0.291 C 
BRANCH   7   6
ATOM      6  O   UNL     1       1.133   6.957   0.000  0.00  0.00    -0.465 OA
BRANCH   6   5
ATOM      1  F   UNL     1      -2.005   7.976   0.000  0.00  0.00    -0.204 F 
ATOM      2  C   UNL     1      -1.221   7.721   0.000  0.00  0.00    +0.140 A 
ATOM      3  C   UNL     1      -0.608   8.273   0.000  0.00  0.00    +0.033 A 
ATOM      4  C   UNL     1       0.177   8.018   0.000  0.00  0.00    +0.039 A 
ATOM      5  C   UNL     1       0.349   7.211   0.000  0.00  0.00    +0.139 A 
ATOM     28  C   UNL     1      -0.265   6.659   0.000  0.00  0.00    +0.039 A 
ATOM     29  C   UNL     1      -1.049   6.914   0.000  0.00  0.00    +0.033 A 
ENDBRANCH   6   5
ENDBRANCH   7   6
ENDBRANCH   8   7
ENDBRANCH  13  11
BRANCH  16  17
ATOM     17  C   UNL     1       4.067   2.348   0.000  0.00  0.00    +0.099 C 
BRANCH  17  18
ATOM     18  C   UNL     1       3.352   1.935   0.000  0.00  0.00    -0.003 A 
ATOM     19  C   UNL     1       3.352   1.110   0.000  0.00  0.00    +0.000 A 
ATOM     20  C   UNL     1       2.638   0.698   0.000  0.00  0.00    +0.040 A 
ATOM     21  C   UNL     1       1.923   1.110   0.000  0.00  0.00    +0.176 A 
ATOM     22  O   UNL     1       1.139   0.856   0.000  0.00  0.00    -0.435 OA
ATOM     23  C   UNL     1       0.654   1.523   0.000  0.00  0.00    +0.429 C 
ATOM     24  O   UNL     1       1.139   2.190   0.000  0.00  0.00    -0.435 OA
ATOM     25  C   UNL     1       1.923   1.935   0.000  0.00  0.00    +0.176 A 
ATOM     26  C   UNL     1       2.638   2.348   0.000  0.00  0.00    +0.037 A 
ENDBRANCH  17  18
ENDBRANCH  16  17
TORSDOF 6
