REMARK  Name = 
REMARK  5 active torsions:
REMARK  status: ('A' for Active; 'I' for Inactive)
REMARK    1  A    between atoms: N_2  and  C_4
REMARK    2  A    between atoms: C_7  and  C_10
REMARK    3  A    between atoms: N_15  and  C_16
REMARK    4  A    between atoms: C_20  and  N_24
REMARK    5  A    between atoms: N_27  and  C_28
REMARK                            x       y       z     vdW  Elec       q    Type
REMARK                         _______ _______ _______ _____ _____    ______ ____
ROOT
ATOM     16  C   UNL     1      -2.059  -4.067   0.000  0.00  0.00    +0.154 C 
ATOM     17  C   UNL     1      -1.973  -3.247   0.000  0.00  0.00    +0.166 C 
ATOM     18  O   UNL     1      -1.166  -3.075   0.000  0.00  0.00    -0.350 OA
ATOM     19  C   UNL     1      -0.754  -3.789   0.000  0.00  0.00    +0.166 C 
ATOM     20  C   UNL     1       0.000  -4.125   0.000  0.00  0.00    +0.156 C 
ATOM     21  C   UNL     1      -0.086  -4.946   0.000  0.00  0.00    +0.166 C 
ATOM     22  O   UNL     1      -0.893  -5.117   0.000  0.00  0.00    -0.350 OA
ATOM     23  C   UNL     1      -1.306  -4.402   0.000  0.00  0.00    +0.166 C 
ENDROOT
BRANCH  16  15
ATOM     10  C   UNL     1      -4.917  -4.067   0.000  0.00  0.00    +0.086 A 
ATOM     11  C   UNL     1      -4.917  -3.242   0.000  0.00  0.00    +0.040 A 
ATOM     12  C   UNL     1      -4.203  -2.829   0.000  0.00  0.00    +0.103 A 
ATOM     13  N   UNL     1      -3.488  -3.242   0.000  0.00  0.00    -0.211 NA
ATOM     14  C   UNL     1      -3.488  -4.067   0.000  0.00  0.00    +0.237 A 
ATOM     15  N   UNL     1      -2.774  -4.479   0.000  0.00  0.00    -0.200 NA
ATOM     38  N   UNL     1      -4.203  -4.479   0.000  0.00  0.00    -0.212 NA
BRANCH  10   7
ATOM      4  C   UNL     1      -7.061  -5.304   0.000  0.00  0.00    +0.048 A 
ATOM      5  C   UNL     1      -7.061  -4.479   0.000  0.00  0.00    +0.015 A 
ATOM      6  C   UNL     1      -6.346  -4.067   0.000  0.00  0.00    +0.003 A 
ATOM      7  C   UNL     1      -5.632  -4.479   0.000  0.00  0.00    +0.018 A 
ATOM      8  C   UNL     1      -5.632  -5.304   0.000  0.00  0.00    +0.003 A 
ATOM      9  C   UNL     1      -6.346  -5.717   0.000  0.00  0.00    +0.015 A 
BRANCH   4   2
ATOM      1  C   UNL     1      -7.775  -6.542   0.000  0.00  0.00    +0.112 C 
ATOM      2  N   UNL     1      -7.775  -5.717   0.000  0.00  0.00    -0.304 N 
ATOM      3  C   UNL     1      -8.490  -5.304   0.000  0.00  0.00    +0.112 C 
ENDBRANCH   4   2
ENDBRANCH  10   7
ENDBRANCH  16  15
BRANCH  20  24
ATOM     24  N   UNL     1       0.715  -3.712   0.000  0.00  0.00    -0.184 NA
ATOM     25  C   UNL     1       0.715  -2.888   0.000  0.00  0.00    +0.344 C 
ATOM     26  O   UNL     1       0.000  -2.475   0.000  0.00  0.00    -0.249 OA
ATOM     27  N   UNL     1       1.429  -2.475   0.000  0.00  0.00    -0.161 NA
BRANCH  27  28
ATOM     28  C   UNL     1       1.429  -1.650   0.000  0.00  0.00    +0.075 A 
ATOM     29  C   UNL     1       0.715  -1.238   0.000  0.00  0.00    +0.017 A 
ATOM     30  C   UNL     1       0.715  -0.412   0.000  0.00  0.00    +0.001 A 
ATOM     31  C   UNL     1       1.429   0.000   0.000  0.00  0.00    +0.000 A 
ATOM     32  C   UNL     1       2.143  -0.412   0.000  0.00  0.00    +0.001 A 
ATOM     33  C   UNL     1       2.858   0.000   0.000  0.00  0.00    +0.000 A 
ATOM     34  C   UNL     1       3.572  -0.412   0.000  0.00  0.00    +0.000 A 
ATOM     35  C   UNL     1       3.572  -1.238   0.000  0.00  0.00    +0.000 A 
ATOM     36  C   UNL     1       2.858  -1.650   0.000  0.00  0.00    +0.001 A 
ATOM     37  C   UNL     1       2.143  -1.238   0.000  0.00  0.00    +0.015 A 
ENDBRANCH  27  28
ENDBRANCH  20  24
TORSDOF 5
