REMARK  Name = 
REMARK  7 active torsions:
REMARK  status: ('A' for Active; 'I' for Inactive)
REMARK    1  A    between atoms: C_2  and  C_4
REMARK    2  A    between atoms: C_6  and  C_7
REMARK    3  A    between atoms: C_7  and  C_8
REMARK    4  A    between atoms: C_11  and  C_13
REMARK    5  A    between atoms: C_22  and  C_23
REMARK    6  A    between atoms: C_23  and  N_24
REMARK    7  A    between atoms: N_24  and  C_25
REMARK                            x       y       z     vdW  Elec       q    Type
REMARK                         _______ _______ _______ _____ _____    ______ ____
ROOT
ATOM      4  C   UNL     1      -1.322  -2.537   0.000  0.00  0.00    +0.006 C 
ATOM      5  C   UNL     1      -0.608  -2.949   0.000  0.00  0.00    +0.005 C 
ATOM      6  C   UNL     1      -0.608  -3.774   0.000  0.00  0.00    +0.027 C 
ATOM     19  C   UNL     1      -1.322  -4.187   0.000  0.00  0.00    -0.048 C 
ATOM     20  C   UNL     1      -1.322  -5.012   0.000  0.00  0.00    +0.026 C 
ATOM     21  C   UNL     1      -2.037  -3.774   0.000  0.00  0.00    -0.033 C 
ATOM     22  C   UNL     1      -2.037  -2.949   0.000  0.00  0.00    +0.043 C 
ENDROOT
BRANCH   4   2
ATOM      1  C   UNL     1      -2.037  -1.299   0.000  0.00  0.00    +0.000 C 
ATOM      2  C   UNL     1      -1.322  -1.712   0.000  0.00  0.00    +0.000 C 
ATOM      3  C   UNL     1      -0.608  -1.299   0.000  0.00  0.00    +0.000 C 
ENDBRANCH   4   2
BRANCH   6   7
ATOM      7  C   UNL     1       0.107  -4.187   0.000  0.00  0.00    +0.091 C 
BRANCH   7   8
ATOM      8  C   UNL     1       0.107  -5.012   0.000  0.00  0.00    +0.227 A 
ATOM      9  N   UNL     1       0.774  -5.497   0.000  0.00  0.00    -0.111 NA
ATOM     10  N   UNL     1       0.519  -6.281   0.000  0.00  0.00    -0.106 NA
ATOM     11  C   UNL     1      -0.306  -6.281   0.000  0.00  0.00    +0.267 A 
ATOM     12  O   UNL     1      -0.561  -5.497   0.000  0.00  0.00    -0.418 OA
BRANCH  11  13
ATOM     13  C   UNL     1      -0.791  -6.949   0.000  0.00  0.00    +0.136 A 
ATOM     14  C   UNL     1      -0.536  -7.733   0.000  0.00  0.00    +0.123 A 
ATOM     15  N   UNL     1      -1.203  -8.218   0.000  0.00  0.00    -0.222 NA
ATOM     16  C   UNL     1      -1.871  -7.733   0.000  0.00  0.00    +0.179 A 
ATOM     17  N   UNL     1      -1.616  -6.949   0.000  0.00  0.00    -0.303 N 
ATOM     18  C   UNL     1      -2.101  -6.281   0.000  0.00  0.00    +0.132 C 
ENDBRANCH  11  13
ENDBRANCH   7   8
ENDBRANCH   6   7
BRANCH  22  23
ATOM     23  C   UNL     1      -2.751  -2.537   0.000  0.00  0.00    +0.117 C 
BRANCH  23  24
ATOM     24  N   UNL     1      -3.466  -2.949   0.000  0.00  0.00    -0.236 NA
BRANCH  24  25
ATOM     25  C   UNL     1      -4.180  -2.537   0.000  0.00  0.00    +0.085 A 
ATOM     26  C   UNL     1      -4.895  -2.949   0.000  0.00  0.00    +0.116 A 
ATOM     27  N   UNL     1      -5.609  -2.537   0.000  0.00  0.00    -0.226 NA
ATOM     28  C   UNL     1      -5.609  -1.712   0.000  0.00  0.00    +0.155 A 
ATOM     29  N   UNL     1      -6.324  -1.299   0.000  0.00  0.00    -0.160 NA
ATOM     30  C   UNL     1      -6.324  -0.474   0.000  0.00  0.00    +0.247 C 
ATOM     31  C   UNL     1      -7.038  -0.062   0.000  0.00  0.00    +0.097 C 
ATOM     32  O   UNL     1      -5.609  -0.062   0.000  0.00  0.00    -0.273 OA
ATOM     33  C   UNL     1      -4.895  -1.299   0.000  0.00  0.00    +0.038 A 
ATOM     34  C   UNL     1      -4.180  -1.712   0.000  0.00  0.00    +0.021 A 
ENDBRANCH  24  25
ENDBRANCH  23  24
ENDBRANCH  22  23
TORSDOF 7
