REMARK  Name = 
REMARK  10 active torsions:
REMARK  status: ('A' for Active; 'I' for Inactive)
REMARK    1  A    between atoms: O_2  and  C_3
REMARK    2  A    between atoms: C_3  and  C_5
REMARK    3  A    between atoms: C_5  and  C_6
REMARK    4  A    between atoms: C_5  and  N_15
REMARK    5  A    between atoms: C_6  and  C_7
REMARK    6  A    between atoms: C_10  and  O_11
REMARK    7  A    between atoms: C_16  and  C_18
REMARK    8  A    between atoms: N_20  and  S_33
REMARK    9  A    between atoms: N_26  and  C_27
REMARK   10  A    between atoms: S_33  and  C_36
REMARK                            x       y       z     vdW  Elec       q    Type
REMARK                         _______ _______ _______ _____ _____    ______ ____
ROOT
ATOM     18  C   UNL     1      -0.855   0.493   0.000  0.00  0.00    +0.173 C 
ATOM     19  C   UNL     1      -0.140   0.906   0.000  0.00  0.00    +0.125 C 
ATOM     20  N   UNL     1       0.574   0.493   0.000  0.00  0.00    -0.152 NA
ATOM     21  C   UNL     1       0.574  -0.332   0.000  0.00  0.00    +0.117 C 
ATOM     22  C   UNL     1      -0.140  -0.744   0.000  0.00  0.00    +0.115 C 
ATOM     23  N   UNL     1      -0.855  -0.332   0.000  0.00  0.00    -0.253 N 
ATOM     24  C   UNL     1      -1.569  -0.744   0.000  0.00  0.00    +0.324 C 
ATOM     25  O   UNL     1      -2.284  -0.332   0.000  0.00  0.00    -0.251 OA
ATOM     26  N   UNL     1      -1.569  -1.569   0.000  0.00  0.00    -0.190 NA
ENDROOT
BRANCH  26  27
ATOM     27  C   UNL     1      -0.855  -1.982   0.000  0.00  0.00    +0.097 C 
ATOM     28  C   UNL     1      -0.140  -1.569   0.000  0.00  0.00    +0.022 C 
ATOM     29  C   UNL     1       0.574  -1.982   0.000  0.00  0.00    +0.002 C 
ATOM     30  C   UNL     1       0.574  -2.807   0.000  0.00  0.00    +0.000 C 
ATOM     31  C   UNL     1      -0.140  -3.219   0.000  0.00  0.00    +0.002 C 
ATOM     32  C   UNL     1      -0.855  -2.807   0.000  0.00  0.00    +0.022 C 
ENDBRANCH  26  27
BRANCH  18  16
ATOM     15  N   UNL     1      -1.569   1.731   0.000  0.00  0.00    -0.194 NA
ATOM     16  C   UNL     1      -1.569   0.906   0.000  0.00  0.00    +0.261 C 
ATOM     17  O   UNL     1      -2.284   0.493   0.000  0.00  0.00    -0.271 OA
BRANCH  15   5
ATOM      5  C   UNL     1      -2.284   2.143   0.000  0.00  0.00    +0.198 C 
BRANCH   5   3
ATOM      3  C   UNL     1      -2.998   1.731   0.000  0.00  0.00    +0.337 C 
ATOM      4  O   UNL     1      -3.712   2.143   0.000  0.00  0.00    -0.248 OA
BRANCH   3   2
ATOM      1  C   UNL     1      -3.712   0.493   0.000  0.00  0.00    +0.256 C 
ATOM      2  O   UNL     1      -2.998   0.906   0.000  0.00  0.00    -0.443 OA
ENDBRANCH   3   2
ENDBRANCH   5   3
BRANCH   5   6
ATOM      6  C   UNL     1      -2.284   2.968   0.000  0.00  0.00    +0.059 C 
BRANCH   6   7
ATOM      7  C   UNL     1      -2.998   3.381   0.000  0.00  0.00    -0.020 A 
ATOM      8  C   UNL     1      -3.712   2.968   0.000  0.00  0.00    -0.001 A 
ATOM      9  C   UNL     1      -4.427   3.381   0.000  0.00  0.00    +0.037 A 
ATOM     10  C   UNL     1      -4.427   4.206   0.000  0.00  0.00    +0.139 A 
ATOM     13  C   UNL     1      -3.712   4.618   0.000  0.00  0.00    +0.037 A 
ATOM     14  C   UNL     1      -2.998   4.206   0.000  0.00  0.00    -0.001 A 
BRANCH  10  11
ATOM     11  O   UNL     1      -5.141   4.618   0.000  0.00  0.00    -0.471 OA
ATOM     12  C   UNL     1      -5.141   5.443   0.000  0.00  0.00    +0.252 C 
ENDBRANCH  10  11
ENDBRANCH   6   7
ENDBRANCH   5   6
ENDBRANCH  15   5
ENDBRANCH  18  16
BRANCH  20  33
ATOM     33  S   UNL     1       1.289   0.906   0.000  0.00  0.00    +0.063 S 
ATOM     34  O   UNL     1       2.003   1.318   0.000  0.00  0.00    -0.153 OA
ATOM     35  O   UNL     1       1.701   0.191   0.000  0.00  0.00    -0.153 OA
BRANCH  33  36
ATOM     36  C   UNL     1       0.876   1.620   0.000  0.00  0.00    +0.122 A 
ATOM     37  C   UNL     1       0.051   1.620   0.000  0.00  0.00    +0.020 A 
ATOM     38  C   UNL     1      -0.361   2.335   0.000  0.00  0.00    +0.001 A 
ATOM     39  C   UNL     1       0.051   3.049   0.000  0.00  0.00    +0.000 A 
ATOM     40  C   UNL     1       0.876   3.049   0.000  0.00  0.00    +0.001 A 
ATOM     41  C   UNL     1       1.289   2.335   0.000  0.00  0.00    +0.020 A 
ENDBRANCH  33  36
ENDBRANCH  20  33
TORSDOF 10
