REMARK  Name = 
REMARK  3 active torsions:
REMARK  status: ('A' for Active; 'I' for Inactive)
REMARK    1  A    between atoms: S_2  and  C_3
REMARK    2  A    between atoms: C_7  and  N_8
REMARK    3  A    between atoms: N_11  and  C_12
REMARK                            x       y       z     vdW  Elec       q    Type
REMARK                         _______ _______ _______ _____ _____    ______ ____
ROOT
ATOM      8  N   UNL     1      -0.047  -2.663   0.000  0.00  0.00    -0.161 NA
ATOM      9  C   UNL     1       0.208  -1.879   0.000  0.00  0.00    +0.344 C 
ATOM     10  O   UNL     1      -0.344  -1.265   0.000  0.00  0.00    -0.249 OA
ATOM     11  N   UNL     1       1.015  -1.707   0.000  0.00  0.00    -0.184 NA
ENDROOT
BRANCH  11  12
ATOM     12  C   UNL     1       1.270  -0.922   0.000  0.00  0.00    +0.156 C 
ATOM     13  C   UNL     1       0.785  -0.255   0.000  0.00  0.00    +0.166 C 
ATOM     14  O   UNL     1       1.270   0.412   0.000  0.00  0.00    -0.349 OA
ATOM     15  C   UNL     1       2.054   0.158   0.000  0.00  0.00    +0.177 C 
ATOM     16  C   UNL     1       2.839   0.412   0.000  0.00  0.00    +0.211 C 
ATOM     17  O   UNL     1       3.094   1.197   0.000  0.00  0.00    -0.218 OA
ATOM     18  C   UNL     1       3.324  -0.255   0.000  0.00  0.00    +0.178 C 
ATOM     19  O   UNL     1       2.839  -0.922   0.000  0.00  0.00    -0.349 OA
ATOM     20  C   UNL     1       2.054  -0.667   0.000  0.00  0.00    +0.167 C 
ENDBRANCH  11  12
BRANCH   8   7
ATOM      3  C   UNL     1      -1.916  -3.791   0.000  0.00  0.00    +0.027 A 
ATOM      4  C   UNL     1      -2.468  -3.178   0.000  0.00  0.00    +0.006 A 
ATOM      5  C   UNL     1      -2.213  -2.393   0.000  0.00  0.00    +0.002 A 
ATOM      6  C   UNL     1      -1.406  -2.222   0.000  0.00  0.00    +0.017 A 
ATOM      7  C   UNL     1      -0.854  -2.835   0.000  0.00  0.00    +0.075 A 
ATOM     21  C   UNL     1      -1.109  -3.619   0.000  0.00  0.00    +0.023 A 
BRANCH   3   2
ATOM      1  C   UNL     1      -2.978  -4.747   0.000  0.00  0.00    +0.074 C 
ATOM      2  S   UNL     1      -2.171  -4.575   0.000  0.00  0.00    -0.113 S 
ENDBRANCH   3   2
ENDBRANCH   8   7
TORSDOF 3
