REMARK  Name = 
REMARK  6 active torsions:
REMARK  status: ('A' for Active; 'I' for Inactive)
REMARK    1  A    between atoms: C_6  and  C_7
REMARK    2  A    between atoms: C_7  and  N_8
REMARK    3  A    between atoms: N_8  and  C_9
REMARK    4  A    between atoms: C_12  and  C_13
REMARK    5  A    between atoms: C_13  and  N_14
REMARK    6  A    between atoms: C_15  and  C_17
REMARK                            x       y       z     vdW  Elec       q    Type
REMARK                         _______ _______ _______ _____ _____    ______ ____
ROOT
ATOM      9  C   UNL     1       4.644  -0.022   0.000  0.00  0.00    +0.136 C 
ATOM     10  C   UNL     1       3.976  -0.507   0.000  0.00  0.00    +0.162 C 
ATOM     11  O   UNL     1       3.309  -0.022   0.000  0.00  0.00    -0.350 OA
ATOM     12  C   UNL     1       3.564   0.762   0.000  0.00  0.00    +0.169 C 
ATOM     22  C   UNL     1       4.389   0.762   0.000  0.00  0.00    +0.199 C 
ATOM     23  O   UNL     1       4.874   1.430   0.000  0.00  0.00    -0.219 OA
ENDROOT
BRANCH   9   8
ATOM      8  N   UNL     1       5.428  -0.277   0.000  0.00  0.00    -0.206 NA
BRANCH   8   7
ATOM      7  C   UNL     1       5.600  -1.084   0.000  0.00  0.00    +0.152 C 
BRANCH   7   6
ATOM      1  C   UNL     1       7.052  -0.029   0.000  0.00  0.00    +0.132 C 
ATOM      2  N   UNL     1       7.052  -0.854   0.000  0.00  0.00    -0.311 N 
ATOM      3  C   UNL     1       7.719  -1.339   0.000  0.00  0.00    +0.098 A 
ATOM      4  C   UNL     1       7.464  -2.124   0.000  0.00  0.00    +0.119 A 
ATOM      5  N   UNL     1       6.639  -2.124   0.000  0.00  0.00    -0.228 NA
ATOM      6  C   UNL     1       6.385  -1.339   0.000  0.00  0.00    +0.138 A 
ENDBRANCH   7   6
ENDBRANCH   8   7
ENDBRANCH   9   8
BRANCH  12  13
ATOM     13  C   UNL     1       3.079   1.430   0.000  0.00  0.00    +0.148 C 
BRANCH  13  14
ATOM     14  N   UNL     1       3.414   2.183   0.000  0.00  0.00    -0.199 NA
ATOM     15  C   UNL     1       2.929   2.851   0.000  0.00  0.00    +0.271 C 
ATOM     16  O   UNL     1       2.109   2.765   0.000  0.00  0.00    -0.268 OA
BRANCH  15  17
ATOM     17  C   UNL     1       3.265   3.604   0.000  0.00  0.00    +0.084 A 
ATOM     18  C   UNL     1       2.853   4.319   0.000  0.00  0.00    +0.012 A 
ATOM     19  C   UNL     1       3.405   4.932   0.000  0.00  0.00    +0.008 A 
ATOM     20  C   UNL     1       4.158   4.596   0.000  0.00  0.00    +0.036 A 
ATOM     21  S   UNL     1       4.072   3.776   0.000  0.00  0.00    -0.082 S 
ENDBRANCH  15  17
ENDBRANCH  13  14
ENDBRANCH  12  13
TORSDOF 6
