REMARK  Name = 
REMARK  6 active torsions:
REMARK  status: ('A' for Active; 'I' for Inactive)
REMARK    1  A    between atoms: O_2  and  C_3
REMARK    2  A    between atoms: C_3  and  C_4
REMARK    3  A    between atoms: N_6  and  C_7
REMARK    4  A    between atoms: C_7  and  C_8
REMARK    5  A    between atoms: C_15  and  C_16
REMARK    6  A    between atoms: C_16  and  N_17
REMARK                            x       y       z     vdW  Elec       q    Type
REMARK                         _______ _______ _______ _____ _____    ______ ____
ROOT
ATOM      8  C   UNL     1       4.765  -2.245   0.000  0.00  0.00    +0.079 C 
ATOM      9  C   UNL     1       4.867  -1.474   0.000  0.00  0.00    +0.018 C 
ATOM     10  C   UNL     1       4.275  -0.920   0.000  0.00  0.00    +0.006 C 
ATOM     11  C   UNL     1       4.601  -0.085   0.000  0.00  0.00    +0.017 C 
ATOM     12  C   UNL     1       4.636  -0.737   0.000  0.00  0.00    +0.072 C 
ATOM     13  N   UNL     1       4.168  -1.675   0.000  0.00  0.00    -0.272 NA
ATOM     14  C   UNL     1       3.258  -1.743   0.000  0.00  0.00    +0.074 C 
ATOM     15  C   UNL     1       3.401  -0.994   0.000  0.00  0.00    +0.036 C 
ENDROOT
BRANCH   8   7
ATOM      7  C   UNL     1       5.038  -3.023   0.000  0.00  0.00    +0.131 C 
BRANCH   7   6
ATOM      4  C   UNL     1       6.386  -2.550   0.000  0.00  0.00    +0.272 C 
ATOM      5  O   UNL     1       6.113  -1.771   0.000  0.00  0.00    -0.271 OA
ATOM      6  N   UNL     1       5.849  -3.176   0.000  0.00  0.00    -0.202 NA
BRANCH   4   3
ATOM      3  C   UNL     1       7.197  -2.702   0.000  0.00  0.00    +0.229 C 
BRANCH   3   2
ATOM      1  C   UNL     1       8.545  -2.228   0.000  0.00  0.00    +0.175 C 
ATOM      2  O   UNL     1       7.734  -2.076   0.000  0.00  0.00    -0.342 OA
ENDBRANCH   3   2
ENDBRANCH   4   3
ENDBRANCH   7   6
ENDBRANCH   8   7
BRANCH  15  16
ATOM     16  C   UNL     1       2.849  -0.381   0.000  0.00  0.00    +0.092 C 
BRANCH  16  17
ATOM     17  N   UNL     1       2.042  -0.552   0.000  0.00  0.00    -0.307 N 
ATOM     18  C   UNL     1       1.706  -1.306   0.000  0.00  0.00    +0.095 C 
ATOM     19  C   UNL     1       0.886  -1.220   0.000  0.00  0.00    +0.049 C 
ATOM     20  C   UNL     1       0.715  -0.412   0.000  0.00  0.00    -0.007 A 
ATOM     21  C   UNL     1       0.000   0.000   0.000  0.00  0.00    -0.003 A 
ATOM     22  C   UNL     1       0.000   0.825   0.000  0.00  0.00    -0.000 A 
ATOM     23  C   UNL     1       0.715   1.238   0.000  0.00  0.00    +0.001 A 
ATOM     24  C   UNL     1       1.429   0.825   0.000  0.00  0.00    +0.014 A 
ATOM     25  C   UNL     1       1.429   0.000   0.000  0.00  0.00    +0.044 A 
ENDBRANCH  16  17
ENDBRANCH  15  16
TORSDOF 6
