REMARK  Name = 
REMARK  7 active torsions:
REMARK  status: ('A' for Active; 'I' for Inactive)
REMARK    1  A    between atoms: C_2  and  C_4
REMARK    2  A    between atoms: C_4  and  C_5
REMARK    3  A    between atoms: C_4  and  N_12
REMARK    4  A    between atoms: C_5  and  C_6
REMARK    5  A    between atoms: C_13  and  C_15
REMARK    6  A    between atoms: C_22  and  N_24
REMARK    7  A    between atoms: C_25  and  C_27
REMARK                            x       y       z     vdW  Elec       q    Type
REMARK                         _______ _______ _______ _____ _____    ______ ____
ROOT
ATOM     15  C   UNL     1       2.079  -2.864   0.000  0.00  0.00    +0.200 C 
ATOM     16  O   UNL     1       1.549  -3.496   0.000  0.00  0.00    -0.216 OA
ATOM     17  C   UNL     1       2.362  -2.089   0.000  0.00  0.00    +0.075 C 
ATOM     18  C   UNL     1       3.174  -1.946   0.000  0.00  0.00    +0.187 C 
ATOM     19  O   UNL     1       3.456  -1.171   0.000  0.00  0.00    -0.220 OA
ATOM     20  C   UNL     1       3.704  -2.578   0.000  0.00  0.00    +0.202 C 
ATOM     21  O   UNL     1       4.517  -2.434   0.000  0.00  0.00    -0.219 OA
ATOM     22  C   UNL     1       3.422  -3.353   0.000  0.00  0.00    +0.131 C 
ATOM     23  C   UNL     1       2.610  -3.496   0.000  0.00  0.00    +0.064 C 
ENDROOT
BRANCH  15  13
ATOM     12  N   UNL     1       0.650  -2.864   0.000  0.00  0.00    -0.195 NA
ATOM     13  C   UNL     1       1.365  -2.452   0.000  0.00  0.00    +0.269 C 
ATOM     14  O   UNL     1       1.365  -1.627   0.000  0.00  0.00    -0.271 OA
BRANCH  12   4
ATOM      4  C   UNL     1      -0.064  -2.452   0.000  0.00  0.00    +0.179 C 
BRANCH   4   2
ATOM      1  N   UNL     1       0.650  -1.214   0.000  0.00  0.00    -0.086 NA
ATOM      2  C   UNL     1      -0.064  -1.627   0.000  0.00  0.00    +0.281 C 
ATOM      3  O   UNL     1      -0.778  -1.214   0.000  0.00  0.00    -0.270 OA
ENDBRANCH   4   2
BRANCH   4   5
ATOM      5  C   UNL     1      -0.778  -2.864   0.000  0.00  0.00    +0.057 C 
BRANCH   5   6
ATOM      6  C   UNL     1      -1.493  -2.452   0.000  0.00  0.00    -0.020 A 
ATOM      7  C   UNL     1      -2.207  -2.864   0.000  0.00  0.00    -0.004 A 
ATOM      8  C   UNL     1      -2.922  -2.452   0.000  0.00  0.00    -0.000 A 
ATOM      9  C   UNL     1      -2.922  -1.627   0.000  0.00  0.00    -0.000 A 
ATOM     10  C   UNL     1      -2.207  -1.214   0.000  0.00  0.00    -0.000 A 
ATOM     11  C   UNL     1      -1.493  -1.627   0.000  0.00  0.00    -0.004 A 
ENDBRANCH   5   6
ENDBRANCH   4   5
ENDBRANCH  12   4
ENDBRANCH  15  13
BRANCH  22  24
ATOM     24  N   UNL     1       3.953  -3.985   0.000  0.00  0.00    -0.198 NA
ATOM     25  C   UNL     1       4.765  -3.842   0.000  0.00  0.00    +0.300 C 
ATOM     26  O   UNL     1       5.047  -3.066   0.000  0.00  0.00    -0.265 OA
BRANCH  25  27
ATOM     27  C   UNL     1       5.295  -4.474   0.000  0.00  0.00    +0.200 A 
ATOM     28  C   UNL     1       6.118  -4.416   0.000  0.00  0.00    +0.046 A 
ATOM     29  C   UNL     1       6.427  -5.181   0.000  0.00  0.00    +0.044 A 
ATOM     30  C   UNL     1       5.795  -5.711   0.000  0.00  0.00    +0.180 A 
ATOM     31  O   UNL     1       5.096  -5.274   0.000  0.00  0.00    -0.446 OA
ENDBRANCH  25  27
ENDBRANCH  22  24
TORSDOF 7
