REMARK  Name = 
REMARK  3 active torsions:
REMARK  status: ('A' for Active; 'I' for Inactive)
REMARK    1  A    between atoms: C_4  and  C_13
REMARK    2  A    between atoms: N_5  and  C_7
REMARK    3  A    between atoms: C_15  and  C_18
REMARK                            x       y       z     vdW  Elec       q    Type
REMARK                         _______ _______ _______ _____ _____    ______ ____
ROOT
ATOM      1  O   UNL     1      -0.548   2.408   0.000  0.00  0.00    -0.222 OA
ATOM      2  C   UNL     1      -1.333   2.153   0.000  0.00  0.00    +0.170 C 
ATOM      3  C   UNL     1      -1.588   1.369   0.000  0.00  0.00    +0.060 C 
ATOM      4  C   UNL     1      -2.413   1.369   0.000  0.00  0.00    +0.140 C 
ATOM      5  N   UNL     1      -2.668   2.153   0.000  0.00  0.00    -0.265 NA
ATOM      6  C   UNL     1      -2.000   2.638   0.000  0.00  0.00    +0.106 C 
ENDROOT
BRANCH   5   7
ATOM      7  C   UNL     1      -3.452   2.408   0.000  0.00  0.00    +0.063 C 
ATOM      8  C   UNL     1      -4.065   1.856   0.000  0.00  0.00    +0.048 C 
ATOM      9  C   UNL     1      -4.850   2.111   0.000  0.00  0.00    +0.144 C 
ATOM     10  O   UNL     1      -5.021   2.918   0.000  0.00  0.00    -0.354 OA
ATOM     11  C   UNL     1      -4.408   3.470   0.000  0.00  0.00    +0.144 C 
ATOM     12  C   UNL     1      -3.624   3.215   0.000  0.00  0.00    +0.048 C 
ENDBRANCH   5   7
BRANCH   4  13
ATOM     13  C   UNL     1      -2.898   0.701   0.000  0.00  0.00    +0.251 A 
ATOM     14  N   UNL     1      -2.643  -0.083   0.000  0.00  0.00    -0.194 NA
ATOM     15  C   UNL     1      -3.310  -0.568   0.000  0.00  0.00    +0.180 A 
ATOM     16  N   UNL     1      -3.978  -0.083   0.000  0.00  0.00    -0.061 NA
ATOM     17  O   UNL     1      -3.723   0.701   0.000  0.00  0.00    -0.336 OA
BRANCH  15  18
ATOM     18  C   UNL     1      -3.310  -1.393   0.000  0.00  0.00    +0.062 C 
ATOM     19  C   UNL     1      -2.898  -2.108   0.000  0.00  0.00    +0.008 C 
ATOM     20  C   UNL     1      -3.723  -2.108   0.000  0.00  0.00    +0.008 C 
ENDBRANCH  15  18
ENDBRANCH   4  13
TORSDOF 3
