REMARK  Name = 
REMARK  5 active torsions:
REMARK  status: ('A' for Active; 'I' for Inactive)
REMARK    1  A    between atoms: C_2  and  N_4
REMARK    2  A    between atoms: N_4  and  C_5
REMARK    3  A    between atoms: C_5  and  C_6
REMARK    4  A    between atoms: C_8  and  C_9
REMARK    5  A    between atoms: C_13  and  N_14
REMARK                            x       y       z     vdW  Elec       q    Type
REMARK                         _______ _______ _______ _____ _____    ______ ____
ROOT
ATOM      6  C   UNL     1       1.256  -1.005   0.000  0.00  0.00    +0.150 C 
ATOM      7  O   UNL     1       1.924  -1.490   0.000  0.00  0.00    -0.350 OA
ATOM      8  C   UNL     1       1.669  -2.275   0.000  0.00  0.00    +0.180 C 
ATOM     11  C   UNL     1       0.844  -2.275   0.000  0.00  0.00    +0.198 C 
ATOM     12  O   UNL     1       0.359  -2.942   0.000  0.00  0.00    -0.219 OA
ATOM     13  C   UNL     1       0.589  -1.490   0.000  0.00  0.00    +0.120 C 
ENDROOT
BRANCH  13  14
ATOM     14  N   UNL     1      -0.196  -1.235   0.000  0.00  0.00    -0.270 NA
ATOM     15  C   UNL     1      -0.863  -1.720   0.000  0.00  0.00    +0.072 C 
ATOM     16  C   UNL     1      -1.530  -1.235   0.000  0.00  0.00    +0.019 C 
ATOM     17  C   UNL     1      -1.276  -0.451   0.000  0.00  0.00    +0.019 C 
ATOM     18  C   UNL     1      -0.451  -0.451   0.000  0.00  0.00    +0.072 C 
ENDBRANCH  13  14
BRANCH   8   9
ATOM      9  C   UNL     1       2.154  -2.942   0.000  0.00  0.00    +0.214 C 
ATOM     10  O   UNL     1       2.974  -2.856   0.000  0.00  0.00    -0.218 OA
ENDBRANCH   8   9
BRANCH   6   5
ATOM      5  C   UNL     1       1.256  -0.180   0.000  0.00  0.00    +0.120 C 
BRANCH   5   4
ATOM      4  N   UNL     1       0.542   0.232   0.000  0.00  0.00    -0.217 NA
BRANCH   4   2
ATOM      1  C   UNL     1      -0.172   1.470   0.000  0.00  0.00    +0.019 C 
ATOM      2  C   UNL     1       0.542   1.057   0.000  0.00  0.00    +0.073 C 
ATOM      3  C   UNL     1       1.256   1.470   0.000  0.00  0.00    +0.019 C 
ENDBRANCH   4   2
ENDBRANCH   5   4
ENDBRANCH   6   5
TORSDOF 5
