REMARK  Name = 
REMARK  6 active torsions:
REMARK  status: ('A' for Active; 'I' for Inactive)
REMARK    1  A    between atoms: C_4  and  N_19
REMARK    2  A    between atoms: C_6  and  C_7
REMARK    3  A    between atoms: C_9  and  C_12
REMARK    4  A    between atoms: C_20  and  C_22
REMARK    5  A    between atoms: C_22  and  O_23
REMARK    6  A    between atoms: O_23  and  C_24
REMARK                            x       y       z     vdW  Elec       q    Type
REMARK                         _______ _______ _______ _____ _____    ______ ____
ROOT
ATOM      1  C   UNL     1       2.143  -2.888   0.000  0.00  0.00    +0.090 C 
ATOM      2  N   UNL     1       2.143  -3.712   0.000  0.00  0.00    -0.264 NA
ATOM      3  C   UNL     1       2.811  -4.197   0.000  0.00  0.00    +0.094 C 
ATOM      4  C   UNL     1       2.556  -4.982   0.000  0.00  0.00    +0.113 C 
ATOM      5  C   UNL     1       1.731  -4.982   0.000  0.00  0.00    +0.049 C 
ATOM      6  C   UNL     1       1.476  -4.197   0.000  0.00  0.00    +0.139 C 
ENDROOT
BRANCH   6   7
ATOM      7  C   UNL     1       0.691  -3.942   0.000  0.00  0.00    +0.251 A 
ATOM      8  N   UNL     1       0.024  -4.427   0.000  0.00  0.00    -0.190 NA
ATOM      9  C   UNL     1      -0.643  -3.942   0.000  0.00  0.00    +0.203 A 
ATOM     10  N   UNL     1      -0.389  -3.158   0.000  0.00  0.00    -0.056 NA
ATOM     11  O   UNL     1       0.436  -3.158   0.000  0.00  0.00    -0.336 OA
BRANCH   9  12
ATOM     12  C   UNL     1      -1.428  -4.197   0.000  0.00  0.00    +0.039 A 
ATOM     13  C   UNL     1      -1.600  -5.004   0.000  0.00  0.00    +0.004 A 
ATOM     14  C   UNL     1      -2.384  -5.259   0.000  0.00  0.00    +0.011 A 
ATOM     15  C   UNL     1      -2.997  -4.707   0.000  0.00  0.00    +0.058 A 
ATOM     16 CL   UNL     1      -3.782  -4.962   0.000  0.00  0.00    -0.082 Cl
ATOM     17  C   UNL     1      -2.826  -3.900   0.000  0.00  0.00    +0.011 A 
ATOM     18  C   UNL     1      -2.041  -3.645   0.000  0.00  0.00    +0.004 A 
ENDBRANCH   9  12
ENDBRANCH   6   7
BRANCH   4  19
ATOM     19  N   UNL     1       3.041  -5.649   0.000  0.00  0.00    -0.203 NA
ATOM     20  C   UNL     1       3.861  -5.563   0.000  0.00  0.00    +0.286 C 
ATOM     21  O   UNL     1       4.197  -4.810   0.000  0.00  0.00    -0.269 OA
BRANCH  20  22
ATOM     22  C   UNL     1       4.346  -6.231   0.000  0.00  0.00    +0.291 C 
BRANCH  22  23
ATOM     23  O   UNL     1       5.167  -6.144   0.000  0.00  0.00    -0.466 OA
BRANCH  23  24
ATOM     24  C   UNL     1       5.652  -6.812   0.000  0.00  0.00    +0.139 A 
ATOM     25  C   UNL     1       6.472  -6.726   0.000  0.00  0.00    +0.037 A 
ATOM     26  C   UNL     1       6.957  -7.393   0.000  0.00  0.00    +0.003 A 
ATOM     27  C   UNL     1       6.622  -8.147   0.000  0.00  0.00    +0.000 A 
ATOM     28  C   UNL     1       5.801  -8.233   0.000  0.00  0.00    +0.003 A 
ATOM     29  C   UNL     1       5.316  -7.566   0.000  0.00  0.00    +0.037 A 
ENDBRANCH  23  24
ENDBRANCH  22  23
ENDBRANCH  20  22
ENDBRANCH   4  19
TORSDOF 6
