REMARK  Name = 
REMARK  4 active torsions:
REMARK  status: ('A' for Active; 'I' for Inactive)
REMARK    1  A    between atoms: N_2  and  C_4
REMARK    2  A    between atoms: C_7  and  C_10
REMARK    3  A    between atoms: C_13  and  C_15
REMARK    4  A    between atoms: N_18  and  C_20
REMARK                            x       y       z     vdW  Elec       q    Type
REMARK                         _______ _______ _______ _____ _____    ______ ____
ROOT
ATOM     10  C   UNL     1       2.024  -3.041   0.000  0.00  0.00    +0.250 A 
ATOM     11  N   UNL     1       2.692  -3.525   0.000  0.00  0.00    -0.107 NA
ATOM     12  N   UNL     1       2.437  -4.310   0.000  0.00  0.00    -0.111 NA
ATOM     13  C   UNL     1       1.612  -4.310   0.000  0.00  0.00    +0.227 A 
ATOM     14  O   UNL     1       1.357  -3.525   0.000  0.00  0.00    -0.419 OA
ENDROOT
BRANCH  10   7
ATOM      4  C   UNL     1       2.024  -0.566   0.000  0.00  0.00    +0.048 A 
ATOM      5  C   UNL     1       2.739  -0.978   0.000  0.00  0.00    +0.015 A 
ATOM      6  C   UNL     1       2.739  -1.803   0.000  0.00  0.00    +0.006 A 
ATOM      7  C   UNL     1       2.024  -2.216   0.000  0.00  0.00    +0.055 A 
ATOM      8  C   UNL     1       1.310  -1.803   0.000  0.00  0.00    +0.006 A 
ATOM      9  C   UNL     1       1.310  -0.978   0.000  0.00  0.00    +0.015 A 
BRANCH   4   2
ATOM      1  C   UNL     1       1.310   0.672   0.000  0.00  0.00    +0.112 C 
ATOM      2  N   UNL     1       2.024   0.260   0.000  0.00  0.00    -0.304 N 
ATOM      3  C   UNL     1       2.739   0.672   0.000  0.00  0.00    +0.112 C 
ENDBRANCH   4   2
ENDBRANCH  10   7
BRANCH  13  15
ATOM     15  C   UNL     1       1.127  -4.977   0.000  0.00  0.00    +0.096 C 
ATOM     16  C   UNL     1       1.382  -5.762   0.000  0.00  0.00    +0.028 C 
ATOM     17  C   UNL     1       0.715  -6.247   0.000  0.00  0.00    +0.073 C 
ATOM     18  N   UNL     1       0.047  -5.762   0.000  0.00  0.00    -0.273 NA
ATOM     19  C   UNL     1       0.302  -4.977   0.000  0.00  0.00    +0.081 C 
BRANCH  18  20
ATOM     20  C   UNL     1      -0.738  -6.017   0.000  0.00  0.00    +0.060 C 
ATOM     21  C   UNL     1      -0.909  -6.824   0.000  0.00  0.00    +0.033 C 
ATOM     22  C   UNL     1      -1.694  -7.079   0.000  0.00  0.00    +0.074 C 
ATOM     23  N   UNL     1      -2.307  -6.527   0.000  0.00  0.00    -0.271 NA
ATOM     24  C   UNL     1      -3.091  -6.782   0.000  0.00  0.00    +0.090 C 
ATOM     25  C   UNL     1      -2.135  -5.720   0.000  0.00  0.00    +0.074 C 
ATOM     26  C   UNL     1      -1.351  -5.465   0.000  0.00  0.00    +0.033 C 
ENDBRANCH  18  20
ENDBRANCH  13  15
TORSDOF 4
