REMARK  Name = 
REMARK  9 active torsions:
REMARK  status: ('A' for Active; 'I' for Inactive)
REMARK    1  A    between atoms: O_2  and  C_3
REMARK    2  A    between atoms: C_6  and  C_7
REMARK    3  A    between atoms: C_7  and  N_8
REMARK    4  A    between atoms: C_9  and  C_11
REMARK    5  A    between atoms: C_11  and  C_12
REMARK    6  A    between atoms: C_12  and  C_13
REMARK    7  A    between atoms: C_20  and  N_23
REMARK    8  A    between atoms: N_23  and  C_24
REMARK    9  A    between atoms: C_24  and  C_25
REMARK                            x       y       z     vdW  Elec       q    Type
REMARK                         _______ _______ _______ _____ _____    ______ ____
ROOT
ATOM     13  C   UNL     1      -2.858   3.342   0.000  0.00  0.00    +0.080 C 
ATOM     14  C   UNL     1      -2.687   4.149   0.000  0.00  0.00    +0.131 C 
ATOM     15  N   UNL     1      -1.902   4.404   0.000  0.00  0.00    -0.203 NA
ATOM     16  C   UNL     1      -1.289   3.852   0.000  0.00  0.00    +0.256 C 
ATOM     17  O   UNL     1      -0.504   4.107   0.000  0.00  0.00    -0.272 OA
ATOM     18  C   UNL     1      -1.460   3.045   0.000  0.00  0.00    +0.138 C 
ATOM     19  C   UNL     1      -0.975   2.378   0.000  0.00  0.00    +0.044 C 
ATOM     20  C   UNL     1      -1.460   1.710   0.000  0.00  0.00    +0.091 C 
ATOM     21  C   UNL     1      -2.245   1.965   0.000  0.00  0.00    +0.090 C 
ATOM     22  N   UNL     1      -2.245   2.790   0.000  0.00  0.00    -0.265 NA
ENDROOT
BRANCH  13  12
ATOM     12  C   UNL     1      -3.643   3.087   0.000  0.00  0.00    +0.027 C 
BRANCH  12  11
ATOM     11  C   UNL     1      -4.256   3.639   0.000  0.00  0.00    +0.088 C 
BRANCH  11   9
ATOM      8  N   UNL     1      -5.654   3.936   0.000  0.00  0.00    -0.201 NA
ATOM      9  C   UNL     1      -5.040   3.384   0.000  0.00  0.00    +0.242 C 
ATOM     10  O   UNL     1      -5.212   2.577   0.000  0.00  0.00    -0.273 OA
BRANCH   8   7
ATOM      7  C   UNL     1      -6.438   3.682   0.000  0.00  0.00    +0.141 C 
BRANCH   7   6
ATOM      3  C   UNL     1      -8.277   5.338   0.000  0.00  0.00    +0.139 A 
ATOM      4  C   UNL     1      -7.493   5.593   0.000  0.00  0.00    +0.037 A 
ATOM      5  C   UNL     1      -6.880   5.040   0.000  0.00  0.00    +0.001 A 
ATOM      6  C   UNL     1      -7.051   4.234   0.000  0.00  0.00    -0.000 A 
ATOM     35  C   UNL     1      -7.836   3.979   0.000  0.00  0.00    +0.001 A 
ATOM     36  C   UNL     1      -8.449   4.531   0.000  0.00  0.00    +0.037 A 
BRANCH   3   2
ATOM      1  C   UNL     1      -9.675   5.635   0.000  0.00  0.00    +0.252 C 
ATOM      2  O   UNL     1      -8.890   5.890   0.000  0.00  0.00    -0.471 OA
ENDBRANCH   3   2
ENDBRANCH   7   6
ENDBRANCH   8   7
ENDBRANCH  11   9
ENDBRANCH  12  11
ENDBRANCH  13  12
BRANCH  20  23
ATOM     23  N   UNL     1      -1.205   0.926   0.000  0.00  0.00    -0.213 NA
BRANCH  23  24
ATOM     24  C   UNL     1      -0.398   0.754   0.000  0.00  0.00    +0.116 C 
BRANCH  24  25
ATOM     25  C   UNL     1      -0.143  -0.030   0.000  0.00  0.00    +0.014 A 
ATOM     26  C   UNL     1      -0.628  -0.698   0.000  0.00  0.00    +0.073 A 
ATOM     27  N   UNL     1      -0.143  -1.365   0.000  0.00  0.00    -0.324 N 
ATOM     28  C   UNL     1      -0.398  -2.150   0.000  0.00  0.00    +0.130 C 
ATOM     29  C   UNL     1       0.641  -1.110   0.000  0.00  0.00    +0.060 A 
ATOM     30  C   UNL     1       0.641  -0.285   0.000  0.00  0.00    +0.015 A 
ATOM     31  C   UNL     1       1.356   0.127   0.000  0.00  0.00    +0.001 A 
ATOM     32  C   UNL     1       2.070  -0.285   0.000  0.00  0.00    +0.000 A 
ATOM     33  C   UNL     1       2.070  -1.110   0.000  0.00  0.00    +0.001 A 
ATOM     34  C   UNL     1       1.356  -1.523   0.000  0.00  0.00    +0.017 A 
ENDBRANCH  24  25
ENDBRANCH  23  24
ENDBRANCH  20  23
TORSDOF 9
