REMARK  Name = 
REMARK  4 active torsions:
REMARK  status: ('A' for Active; 'I' for Inactive)
REMARK    1  A    between atoms: C_2  and  C_3
REMARK    2  A    between atoms: C_3  and  C_4
REMARK    3  A    between atoms: C_18  and  N_24
REMARK    4  A    between atoms: C_25  and  C_27
REMARK                            x       y       z     vdW  Elec       q    Type
REMARK                         _______ _______ _______ _____ _____    ______ ____
ROOT
ATOM      1  O   UNL     1       1.711  -2.972   0.000  0.00  0.00    -0.274 OA
ATOM      2  C   UNL     1       1.037  -2.497   0.000  0.00  0.00    +0.231 C 
ATOM      9  N   UNL     1       1.111  -1.675   0.000  0.00  0.00    -0.271 N 
ATOM     10  C   UNL     1       0.489  -1.132   0.000  0.00  0.00    +0.096 C 
ATOM     11  C   UNL     1       0.814  -0.374   0.000  0.00  0.00    +0.045 C 
ATOM     12  C   UNL     1       1.635  -0.448   0.000  0.00  0.00    +0.124 C 
ATOM     13  N   UNL     1       2.150   0.197   0.000  0.00  0.00    -0.204 NA
ATOM     14  C   UNL     1       2.975   0.197   0.000  0.00  0.00    +0.260 C 
ATOM     15  O   UNL     1       3.333   0.941   0.000  0.00  0.00    -0.272 OA
ATOM     16  C   UNL     1       3.489  -0.448   0.000  0.00  0.00    +0.155 C 
ATOM     17  C   UNL     1       4.311  -0.374   0.000  0.00  0.00    +0.053 C 
ATOM     18  C   UNL     1       4.635  -1.132   0.000  0.00  0.00    +0.117 C 
ATOM     19  C   UNL     1       4.014  -1.675   0.000  0.00  0.00    +0.115 C 
ATOM     20  N   UNL     1       3.305  -1.252   0.000  0.00  0.00    -0.270 N 
ATOM     21  C   UNL     1       2.562  -1.610   0.000  0.00  0.00    +0.246 C 
ATOM     22  O   UNL     1       2.562  -2.435   0.000  0.00  0.00    -0.273 OA
ATOM     23  C   UNL     1       1.819  -1.252   0.000  0.00  0.00    +0.172 C 
ENDROOT
BRANCH  18  24
ATOM     24  N   UNL     1       5.439  -1.316   0.000  0.00  0.00    -0.205 NA
ATOM     25  C   UNL     1       6.000  -0.711   0.000  0.00  0.00    +0.241 C 
ATOM     26  O   UNL     1       5.757   0.077   0.000  0.00  0.00    -0.273 OA
BRANCH  25  27
ATOM     27  C   UNL     1       6.805  -0.895   0.000  0.00  0.00    +0.078 C 
ATOM     28  C   UNL     1       7.593  -0.651   0.000  0.00  0.00    +0.010 C 
ATOM     29  C   UNL     1       7.410  -1.456   0.000  0.00  0.00    +0.010 C 
ENDBRANCH  25  27
ENDBRANCH  18  24
BRANCH   2   3
ATOM      3  C   UNL     1       0.288  -2.844   0.000  0.00  0.00    +0.118 C 
BRANCH   3   4
ATOM      4  C   UNL     1       0.214  -3.665   0.000  0.00  0.00    +0.016 A 
ATOM      5  C   UNL     1       0.835  -4.208   0.000  0.00  0.00    +0.003 A 
ATOM      6  C   UNL     1       0.511  -4.967   0.000  0.00  0.00    +0.007 A 
ATOM      7  C   UNL     1      -0.310  -4.893   0.000  0.00  0.00    +0.035 A 
ATOM      8  S   UNL     1      -0.494  -4.088   0.000  0.00  0.00    -0.090 S 
ENDBRANCH   3   4
ENDBRANCH   2   3
TORSDOF 4
