REMARK  Name = 
REMARK  6 active torsions:
REMARK  status: ('A' for Active; 'I' for Inactive)
REMARK    1  A    between atoms: C_2  and  O_5
REMARK    2  A    between atoms: O_5  and  C_6
REMARK    3  A    between atoms: C_9  and  N_10
REMARK    4  A    between atoms: N_20  and  C_21
REMARK    5  A    between atoms: C_21  and  C_22
REMARK    6  A    between atoms: C_22  and  N_23
REMARK                            x       y       z     vdW  Elec       q    Type
REMARK                         _______ _______ _______ _____ _____    ______ ____
ROOT
ATOM     10  N   UNL     1      -0.937  -1.532   0.000  0.00  0.00    -0.162 NA
ATOM     11  C   UNL     1      -0.223  -1.944   0.000  0.00  0.00    +0.327 C 
ATOM     12  O   UNL     1      -0.223  -2.769   0.000  0.00  0.00    -0.250 OA
ATOM     13  N   UNL     1       0.492  -1.532   0.000  0.00  0.00    -0.263 N 
ATOM     14  C   UNL     1       0.492  -0.707   0.000  0.00  0.00    +0.095 C 
ATOM     15  C   UNL     1       1.206  -0.294   0.000  0.00  0.00    +0.022 C 
ATOM     16  C   UNL     1       1.921  -0.707   0.000  0.00  0.00    +0.012 C 
ATOM     17  C   UNL     1       2.566  -0.192   0.000  0.00  0.00    +0.085 C 
ATOM     18  C   UNL     1       3.370  -0.376   0.000  0.00  0.00    +0.226 C 
ATOM     19  O   UNL     1       3.884   0.269   0.000  0.00  0.00    -0.275 OA
ATOM     20  N   UNL     1       3.728  -1.119   0.000  0.00  0.00    -0.278 N 
ATOM     29  C   UNL     1       3.370  -1.862   0.000  0.00  0.00    +0.094 C 
ATOM     30  C   UNL     1       2.566  -2.046   0.000  0.00  0.00    +0.023 C 
ATOM     31  C   UNL     1       1.921  -1.532   0.000  0.00  0.00    +0.022 C 
ATOM     32  C   UNL     1       1.206  -1.944   0.000  0.00  0.00    +0.095 C 
ENDROOT
BRANCH  10   9
ATOM      6  C   UNL     1      -3.081  -2.769   0.000  0.00  0.00    +0.147 A 
ATOM      7  C   UNL     1      -3.081  -1.944   0.000  0.00  0.00    +0.039 A 
ATOM      8  C   UNL     1      -2.366  -1.532   0.000  0.00  0.00    +0.020 A 
ATOM      9  C   UNL     1      -1.652  -1.944   0.000  0.00  0.00    +0.075 A 
ATOM     33  C   UNL     1      -1.652  -2.769   0.000  0.00  0.00    +0.020 A 
ATOM     34  C   UNL     1      -2.366  -3.182   0.000  0.00  0.00    +0.039 A 
BRANCH   6   5
ATOM      5  O   UNL     1      -3.795  -3.182   0.000  0.00  0.00    -0.404 OA
BRANCH   5   2
ATOM      1  F   UNL     1      -3.795  -4.832   0.000  0.00  0.00    -0.133 F 
ATOM      2  C   UNL     1      -3.795  -4.007   0.000  0.00  0.00    +0.575 C 
ATOM      3  F   UNL     1      -2.970  -4.007   0.000  0.00  0.00    -0.133 F 
ATOM      4  F   UNL     1      -4.620  -4.007   0.000  0.00  0.00    -0.133 F 
ENDBRANCH   5   2
ENDBRANCH   6   5
ENDBRANCH  10   9
BRANCH  20  21
ATOM     21  C   UNL     1       4.553  -1.119   0.000  0.00  0.00    +0.115 C 
BRANCH  21  22
ATOM     22  C   UNL     1       4.965  -0.405   0.000  0.00  0.00    +0.117 C 
BRANCH  22  23
ATOM     23  N   UNL     1       5.790  -0.405   0.000  0.00  0.00    -0.259 N 
ATOM     24  C   UNL     1       6.275   0.263   0.000  0.00  0.00    +0.118 C 
ATOM     25  C   UNL     1       7.060   0.008   0.000  0.00  0.00    +0.138 C 
ATOM     26  N   UNL     1       7.060  -0.817   0.000  0.00  0.00    -0.187 NA
ATOM     27  C   UNL     1       6.275  -1.072   0.000  0.00  0.00    +0.323 C 
ATOM     28  O   UNL     1       6.020  -1.857   0.000  0.00  0.00    -0.251 OA
ENDBRANCH  22  23
ENDBRANCH  21  22
ENDBRANCH  20  21
TORSDOF 6
