REMARK  Name = 
REMARK  4 active torsions:
REMARK  status: ('A' for Active; 'I' for Inactive)
REMARK    1  A    between atoms: C_2  and  C_4
REMARK    2  A    between atoms: C_15  and  N_16
REMARK    3  A    between atoms: N_16  and  S_17
REMARK    4  A    between atoms: S_17  and  C_20
REMARK                            x       y       z     vdW  Elec       q    Type
REMARK                         _______ _______ _______ _____ _____    ______ ____
ROOT
ATOM      4  C   UNL     1       0.343  -2.800   0.000  0.00  0.00    +0.329 C 
ATOM      5  O   UNL     1       0.545  -3.639   0.000  0.00  0.00    -0.263 OA
ATOM      6  N   UNL     1       0.813  -2.091   0.000  0.00  0.00    -0.270 N 
ATOM      7  C   UNL     1       1.629  -1.912   0.000  0.00  0.00    +0.096 C 
ATOM      8  C   UNL     1       1.582  -0.925   0.000  0.00  0.00    +0.043 C 
ATOM      9  C   UNL     1       1.713  -0.121   0.000  0.00  0.00    +0.011 C 
ATOM     10  C   UNL     1       1.163  -0.557   0.000  0.00  0.00    +0.058 C 
ATOM     11  C   UNL     1       1.225  -1.510   0.000  0.00  0.00    +0.100 C 
ATOM     12  C   UNL     1       0.244  -0.558   0.000  0.00  0.00    +0.041 A 
ATOM     13  C   UNL     1      -0.397  -0.039   0.000  0.00  0.00    +0.014 A 
ATOM     14  C   UNL     1      -1.167  -0.335   0.000  0.00  0.00    +0.024 A 
ATOM     15  C   UNL     1      -1.296  -1.150   0.000  0.00  0.00    +0.147 A 
ATOM     26  C   UNL     1      -0.655  -1.669   0.000  0.00  0.00    +0.277 A 
ATOM     27  O   UNL     1      -0.714  -2.646   0.000  0.00  0.00    -0.266 OA
ATOM     28  N   UNL     1       0.115  -1.373   0.000  0.00  0.00    -0.298 N 
ATOM     29  C   UNL     1       0.622  -0.936   0.000  0.00  0.00    +0.110 C 
ENDROOT
BRANCH   4   2
ATOM      1  O   UNL     1      -1.278  -2.469   0.000  0.00  0.00    -0.235 OA
ATOM      2  C   UNL     1      -0.332  -2.227   0.000  0.00  0.00    +0.440 C 
ATOM      3  O   UNL     1      -0.387  -1.310   0.000  0.00  0.00    -0.235 OA
ENDBRANCH   4   2
BRANCH  15  16
ATOM     16  N   UNL     1      -2.093  -1.488   0.000  0.00  0.00    -0.092 NA
BRANCH  16  17
ATOM     17  S   UNL     1      -2.776  -1.004   0.000  0.00  0.00    +0.093 S 
ATOM     18  O   UNL     1      -2.339  -0.245   0.000  0.00  0.00    -0.148 OA
ATOM     19  O   UNL     1      -3.336  -1.674   0.000  0.00  0.00    -0.148 OA
BRANCH  17  20
ATOM     20  C   UNL     1      -3.349  -0.407   0.000  0.00  0.00    +0.127 A 
ATOM     21  C   UNL     1      -4.119  -0.703   0.000  0.00  0.00    +0.020 A 
ATOM     22  C   UNL     1      -4.760  -0.184   0.000  0.00  0.00    +0.001 A 
ATOM     23  C   UNL     1      -4.631   0.631   0.000  0.00  0.00    +0.000 A 
ATOM     24  C   UNL     1      -3.861   0.927   0.000  0.00  0.00    +0.001 A 
ATOM     25  C   UNL     1      -3.220   0.408   0.000  0.00  0.00    +0.020 A 
ENDBRANCH  17  20
ENDBRANCH  16  17
ENDBRANCH  15  16
TORSDOF 4
