REMARK  Name = 
REMARK  7 active torsions:
REMARK  status: ('A' for Active; 'I' for Inactive)
REMARK    1  A    between atoms: C_2  and  C_3
REMARK    2  A    between atoms: C_3  and  C_4
REMARK    3  A    between atoms: C_7  and  C_8
REMARK    4  A    between atoms: C_8  and  C_9
REMARK    5  A    between atoms: C_11  and  C_12
REMARK    6  A    between atoms: C_15  and  C_16
REMARK    7  A    between atoms: C_16  and  N_17
REMARK                            x       y       z     vdW  Elec       q    Type
REMARK                         _______ _______ _______ _____ _____    ______ ____
ROOT
ATOM      9  C   UNL     1       3.177  -5.748   0.000  0.00  0.00    +0.027 C 
ATOM     10  C   UNL     1       2.692  -6.415   0.000  0.00  0.00    +0.005 C 
ATOM     11  C   UNL     1       1.871  -6.329   0.000  0.00  0.00    +0.006 C 
ATOM     15  C   UNL     1       1.536  -5.576   0.000  0.00  0.00    +0.037 C 
ATOM     29  C   UNL     1       2.021  -4.908   0.000  0.00  0.00    -0.034 C 
ATOM     30  C   UNL     1       2.841  -4.994   0.000  0.00  0.00    -0.048 C 
ATOM     31  C   UNL     1       3.326  -4.327   0.000  0.00  0.00    +0.026 C 
ENDROOT
BRANCH  11  12
ATOM     12  C   UNL     1       1.386  -6.997   0.000  0.00  0.00    +0.000 C 
ATOM     13  C   UNL     1       0.566  -6.910   0.000  0.00  0.00    +0.000 C 
ATOM     14  C   UNL     1       1.722  -7.750   0.000  0.00  0.00    +0.000 C 
ENDBRANCH  11  12
BRANCH   9   8
ATOM      8  C   UNL     1       3.997  -5.834   0.000  0.00  0.00    +0.091 C 
BRANCH   8   7
ATOM      4  C   UNL     1       4.895  -3.897   0.000  0.00  0.00    +0.226 A 
ATOM      5  N   UNL     1       5.562  -4.382   0.000  0.00  0.00    -0.112 NA
ATOM      6  N   UNL     1       5.307  -5.167   0.000  0.00  0.00    -0.112 NA
ATOM      7  C   UNL     1       4.482  -5.167   0.000  0.00  0.00    +0.226 A 
ATOM     32  O   UNL     1       4.227  -4.382   0.000  0.00  0.00    -0.423 OA
BRANCH   4   3
ATOM      3  C   UNL     1       4.895  -3.072   0.000  0.00  0.00    +0.087 C 
BRANCH   3   2
ATOM      1  C   UNL     1       5.609  -1.835   0.000  0.00  0.00    +0.001 C 
ATOM      2  C   UNL     1       5.609  -2.660   0.000  0.00  0.00    +0.010 C 
ENDBRANCH   3   2
ENDBRANCH   4   3
ENDBRANCH   8   7
ENDBRANCH   9   8
BRANCH  15  16
ATOM     16  C   UNL     1       0.715  -5.489   0.000  0.00  0.00    +0.076 C 
BRANCH  16  17
ATOM     17  N   UNL     1       0.380  -4.736   0.000  0.00  0.00    -0.269 NA
ATOM     18  C   UNL     1      -0.441  -4.649   0.000  0.00  0.00    +0.094 C 
ATOM     19  C   UNL     1      -0.776  -3.896   0.000  0.00  0.00    +0.111 C 
ATOM     20  N   UNL     1      -0.291  -3.228   0.000  0.00  0.00    -0.275 N 
ATOM     21  C   UNL     1       0.529  -3.315   0.000  0.00  0.00    +0.111 C 
ATOM     22  C   UNL     1       0.865  -4.068   0.000  0.00  0.00    +0.094 C 
ATOM     23  C   UNL     1      -0.627  -2.475   0.000  0.00  0.00    +0.220 A 
ATOM     24  N   UNL     1      -1.448  -2.388   0.000  0.00  0.00    -0.212 NA
ATOM     25  C   UNL     1      -1.783  -1.635   0.000  0.00  0.00    +0.103 A 
ATOM     26  C   UNL     1      -1.298  -0.967   0.000  0.00  0.00    +0.041 A 
ATOM     27  C   UNL     1      -0.478  -1.054   0.000  0.00  0.00    +0.103 A 
ATOM     28  N   UNL     1      -0.142  -1.807   0.000  0.00  0.00    -0.212 NA
ENDBRANCH  16  17
ENDBRANCH  15  16
TORSDOF 7
