REMARK  Name = 
REMARK  5 active torsions:
REMARK  status: ('A' for Active; 'I' for Inactive)
REMARK    1  A    between atoms: C_7  and  C_8
REMARK    2  A    between atoms: C_14  and  N_15
REMARK    3  A    between atoms: N_15  and  S_16
REMARK    4  A    between atoms: S_16  and  C_19
REMARK    5  A    between atoms: C_23  and  C_25
REMARK                            x       y       z     vdW  Elec       q    Type
REMARK                         _______ _______ _______ _____ _____    ______ ____
ROOT
ATOM      8  C   UNL     1      -0.608  -2.124   0.000  0.00  0.00    +0.045 C 
ATOM      9  C   UNL     1       0.060  -2.609   0.000  0.00  0.00    +0.041 C 
ATOM     10  C   UNL     1      -0.195  -3.394   0.000  0.00  0.00    +0.184 C 
ATOM     11  O   UNL     1       0.290  -4.061   0.000  0.00  0.00    -0.220 OA
ATOM     12  C   UNL     1      -1.020  -3.394   0.000  0.00  0.00    +0.200 C 
ATOM     13  O   UNL     1      -1.505  -4.061   0.000  0.00  0.00    -0.219 OA
ATOM     14  C   UNL     1      -1.275  -2.609   0.000  0.00  0.00    +0.135 C 
ENDROOT
BRANCH   8   7
ATOM      1  C   UNL     1      -2.037  -1.299   0.000  0.00  0.00    +0.031 C 
ATOM      2  C   UNL     1      -1.322  -0.887   0.000  0.00  0.00    -0.026 A 
ATOM      3  C   UNL     1      -1.322  -0.062   0.000  0.00  0.00    -0.005 A 
ATOM      4  C   UNL     1      -0.608   0.351   0.000  0.00  0.00    -0.000 A 
ATOM      5  C   UNL     1       0.107  -0.062   0.000  0.00  0.00    -0.000 A 
ATOM      6  C   UNL     1       0.107  -0.887   0.000  0.00  0.00    -0.005 A 
ATOM      7  C   UNL     1      -0.608  -1.299   0.000  0.00  0.00    -0.025 A 
ENDBRANCH   8   7
BRANCH  14  15
ATOM     15  N   UNL     1      -2.060  -2.354   0.000  0.00  0.00    -0.076 NA
BRANCH  15  16
ATOM     16  S   UNL     1      -2.673  -2.906   0.000  0.00  0.00    +0.077 S 
ATOM     17  O   UNL     1      -3.225  -2.293   0.000  0.00  0.00    -0.152 OA
ATOM     18  O   UNL     1      -2.121  -3.519   0.000  0.00  0.00    -0.152 OA
BRANCH  16  19
ATOM     19  C   UNL     1      -3.286  -3.458   0.000  0.00  0.00    +0.124 A 
ATOM     20  C   UNL     1      -3.115  -4.265   0.000  0.00  0.00    +0.020 A 
ATOM     21  C   UNL     1      -3.728  -4.817   0.000  0.00  0.00    +0.002 A 
ATOM     22  C   UNL     1      -4.512  -4.562   0.000  0.00  0.00    +0.010 A 
ATOM     23  C   UNL     1      -4.684  -3.755   0.000  0.00  0.00    +0.070 A 
ATOM     24  C   UNL     1      -4.071  -3.203   0.000  0.00  0.00    +0.030 A 
BRANCH  23  25
ATOM     25  C   UNL     1      -5.468  -3.500   0.000  0.00  0.00    +0.100 C 
ATOM     26  N   UNL     1      -6.253  -3.245   0.000  0.00  0.00    -0.191 NA
ENDBRANCH  23  25
ENDBRANCH  16  19
ENDBRANCH  15  16
ENDBRANCH  14  15
TORSDOF 5
