REMARK  Name = 
REMARK  9 active torsions:
REMARK  status: ('A' for Active; 'I' for Inactive)
REMARK    1  A    between atoms: C_2  and  N_3
REMARK    2  A    between atoms: C_2  and  O_12
REMARK    3  A    between atoms: N_3  and  C_4
REMARK    4  A    between atoms: C_8  and  C_10
REMARK    5  A    between atoms: O_12  and  C_13
REMARK    6  A    between atoms: C_17  and  N_21
REMARK    7  A    between atoms: C_25  and  S_26
REMARK    8  A    between atoms: S_26  and  C_27
REMARK    9  A    between atoms: C_27  and  C_28
REMARK                            x       y       z     vdW  Elec       q    Type
REMARK                         _______ _______ _______ _____ _____    ______ ____
ROOT
ATOM     13  C   UNL     1       1.270  -0.922   0.000  0.00  0.00    +0.227 C 
ATOM     14  C   UNL     1       0.785  -0.255   0.000  0.00  0.00    +0.188 C 
ATOM     15  O   UNL     1       1.270   0.412   0.000  0.00  0.00    -0.348 OA
ATOM     16  C   UNL     1       2.054   0.158   0.000  0.00  0.00    +0.171 C 
ATOM     17  C   UNL     1       2.839   0.412   0.000  0.00  0.00    +0.168 C 
ATOM     18  C   UNL     1       3.324  -0.255   0.000  0.00  0.00    +0.169 C 
ATOM     19  O   UNL     1       2.839  -0.922   0.000  0.00  0.00    -0.348 OA
ATOM     20  C   UNL     1       2.054  -0.667   0.000  0.00  0.00    +0.187 C 
ENDROOT
BRANCH  17  21
ATOM     21  N   UNL     1       3.094   1.197   0.000  0.00  0.00    -0.205 N 
ATOM     22  N   UNL     1       2.609   1.865   0.000  0.00  0.00    -0.042 NA
ATOM     23  N   UNL     1       3.094   2.532   0.000  0.00  0.00    -0.022 NA
ATOM     24  N   UNL     1       3.878   2.277   0.000  0.00  0.00    -0.101 NA
ATOM     25  C   UNL     1       3.878   1.452   0.000  0.00  0.00    +0.211 A 
BRANCH  25  26
ATOM     26  S   UNL     1       4.546   0.967   0.000  0.00  0.00    -0.066 S 
BRANCH  26  27
ATOM     27  C   UNL     1       5.300   1.303   0.000  0.00  0.00    +0.129 C 
BRANCH  27  28
ATOM     28  C   UNL     1       5.967   0.818   0.000  0.00  0.00    +0.134 A 
ATOM     29  C   UNL     1       6.752   1.073   0.000  0.00  0.00    +0.037 A 
ATOM     30  C   UNL     1       7.236   0.405   0.000  0.00  0.00    +0.043 A 
ATOM     31  C   UNL     1       6.752  -0.262   0.000  0.00  0.00    +0.179 A 
ATOM     32  O   UNL     1       5.967  -0.007   0.000  0.00  0.00    -0.454 OA
ENDBRANCH  27  28
ENDBRANCH  26  27
ENDBRANCH  25  26
ENDBRANCH  17  21
BRANCH  13  12
ATOM     12  O   UNL     1       1.015  -1.707   0.000  0.00  0.00    -0.456 OA
BRANCH  12   2
ATOM      1  S   UNL     1      -0.344  -1.265   0.000  0.00  0.00    +0.008 S 
ATOM      2  C   UNL     1       0.208  -1.879   0.000  0.00  0.00    +0.253 C 
BRANCH   2   3
ATOM      3  N   UNL     1      -0.047  -2.663   0.000  0.00  0.00    -0.173 NA
BRANCH   3   4
ATOM      4  C   UNL     1      -0.854  -2.835   0.000  0.00  0.00    +0.075 A 
ATOM      5  C   UNL     1      -1.109  -3.619   0.000  0.00  0.00    +0.017 A 
ATOM      6  C   UNL     1      -1.916  -3.791   0.000  0.00  0.00    +0.002 A 
ATOM      7  C   UNL     1      -2.468  -3.178   0.000  0.00  0.00    +0.010 A 
ATOM      8  C   UNL     1      -2.213  -2.393   0.000  0.00  0.00    +0.070 A 
ATOM      9  C   UNL     1      -1.406  -2.222   0.000  0.00  0.00    +0.027 A 
BRANCH   8  10
ATOM     10  C   UNL     1      -2.765  -1.780   0.000  0.00  0.00    +0.100 C 
ATOM     11  N   UNL     1      -3.317  -1.167   0.000  0.00  0.00    -0.191 NA
ENDBRANCH   8  10
ENDBRANCH   3   4
ENDBRANCH   2   3
ENDBRANCH  12   2
ENDBRANCH  13  12
TORSDOF 9
