REMARK  Name = 
REMARK  8 active torsions:
REMARK  status: ('A' for Active; 'I' for Inactive)
REMARK    1  A    between atoms: O_2  and  C_3
REMARK    2  A    between atoms: C_6  and  N_7
REMARK    3  A    between atoms: N_7  and  C_8
REMARK    4  A    between atoms: C_8  and  C_9
REMARK    5  A    between atoms: C_13  and  C_14
REMARK    6  A    between atoms: C_14  and  C_15
REMARK    7  A    between atoms: C_18  and  C_20
REMARK    8  A    between atoms: C_27  and  C_28
REMARK                            x       y       z     vdW  Elec       q    Type
REMARK                         _______ _______ _______ _____ _____    ______ ____
ROOT
ATOM      9  C   UNL     1       1.536   5.590   0.000  0.00  0.00    +0.043 C 
ATOM     10  C   UNL     1       1.536   4.765   0.000  0.00  0.00    -0.033 C 
ATOM     11  C   UNL     1       0.821   4.353   0.000  0.00  0.00    -0.048 C 
ATOM     12  C   UNL     1       0.821   3.528   0.000  0.00  0.00    +0.026 C 
ATOM     13  C   UNL     1       0.107   4.765   0.000  0.00  0.00    +0.027 C 
ATOM     26  C   UNL     1       0.107   5.590   0.000  0.00  0.00    +0.005 C 
ATOM     27  C   UNL     1       0.821   6.003   0.000  0.00  0.00    +0.006 C 
ENDROOT
BRANCH  27  28
ATOM     28  C   UNL     1       0.821   6.828   0.000  0.00  0.00    +0.000 C 
ATOM     29  C   UNL     1       1.536   7.240   0.000  0.00  0.00    +0.000 C 
ATOM     30  C   UNL     1       0.107   7.240   0.000  0.00  0.00    +0.000 C 
ENDBRANCH  27  28
BRANCH   9   8
ATOM      8  C   UNL     1       2.250   6.003   0.000  0.00  0.00    +0.117 C 
BRANCH   8   7
ATOM      7  N   UNL     1       2.250   6.828   0.000  0.00  0.00    -0.236 NA
BRANCH   7   6
ATOM      3  C   UNL     1       4.394   8.065   0.000  0.00  0.00    +0.225 A 
ATOM      4  C   UNL     1       4.394   7.240   0.000  0.00  0.00    +0.059 A 
ATOM      5  C   UNL     1       3.679   6.828   0.000  0.00  0.00    +0.022 A 
ATOM      6  C   UNL     1       2.965   7.240   0.000  0.00  0.00    +0.085 A 
ATOM     31  C   UNL     1       2.965   8.065   0.000  0.00  0.00    +0.118 A 
ATOM     32  N   UNL     1       3.679   8.478   0.000  0.00  0.00    -0.209 NA
BRANCH   3   2
ATOM      1  C   UNL     1       5.108   9.303   0.000  0.00  0.00    +0.254 C 
ATOM      2  O   UNL     1       5.108   8.478   0.000  0.00  0.00    -0.456 OA
ENDBRANCH   3   2
ENDBRANCH   7   6
ENDBRANCH   8   7
ENDBRANCH   9   8
BRANCH  13  14
ATOM     14  C   UNL     1      -0.608   4.353   0.000  0.00  0.00    +0.091 C 
BRANCH  14  15
ATOM     15  C   UNL     1      -0.608   3.528   0.000  0.00  0.00    +0.227 A 
ATOM     16  N   UNL     1       0.060   3.043   0.000  0.00  0.00    -0.111 NA
ATOM     17  N   UNL     1      -0.195   2.258   0.000  0.00  0.00    -0.106 NA
ATOM     18  C   UNL     1      -1.020   2.258   0.000  0.00  0.00    +0.267 A 
ATOM     19  O   UNL     1      -1.275   3.043   0.000  0.00  0.00    -0.418 OA
BRANCH  18  20
ATOM     20  C   UNL     1      -1.505   1.591   0.000  0.00  0.00    +0.136 A 
ATOM     21  C   UNL     1      -1.250   0.806   0.000  0.00  0.00    +0.123 A 
ATOM     22  N   UNL     1      -1.918   0.321   0.000  0.00  0.00    -0.222 NA
ATOM     23  C   UNL     1      -2.585   0.806   0.000  0.00  0.00    +0.179 A 
ATOM     24  N   UNL     1      -2.330   1.591   0.000  0.00  0.00    -0.303 N 
ATOM     25  C   UNL     1      -2.815   2.258   0.000  0.00  0.00    +0.132 C 
ENDBRANCH  18  20
ENDBRANCH  14  15
ENDBRANCH  13  14
TORSDOF 8
