REMARK  Name = 
REMARK  4 active torsions:
REMARK  status: ('A' for Active; 'I' for Inactive)
REMARK    1  A    between atoms: C_2  and  C_3
REMARK    2  A    between atoms: C_8  and  C_9
REMARK    3  A    between atoms: C_9  and  C_10
REMARK    4  A    between atoms: N_20  and  C_21
REMARK                            x       y       z     vdW  Elec       q    Type
REMARK                         _______ _______ _______ _____ _____    ______ ____
ROOT
ATOM      3  C   UNL     1       4.895  -2.949   0.000  0.00  0.00    +0.020 C 
ATOM      4  C   UNL     1       5.609  -2.537   0.000  0.00  0.00    +0.095 C 
ATOM      5  N   UNL     1       6.324  -2.949   0.000  0.00  0.00    -0.263 N 
ATOM      6  C   UNL     1       6.324  -3.774   0.000  0.00  0.00    +0.095 C 
ATOM      7  C   UNL     1       5.609  -4.187   0.000  0.00  0.00    +0.022 C 
ATOM      8  C   UNL     1       4.895  -3.774   0.000  0.00  0.00    +0.012 C 
ATOM     18  C   UNL     1       7.038  -2.537   0.000  0.00  0.00    +0.323 C 
ATOM     19  O   UNL     1       7.753  -2.949   0.000  0.00  0.00    -0.251 OA
ATOM     20  N   UNL     1       7.038  -1.712   0.000  0.00  0.00    -0.190 NA
ENDROOT
BRANCH  20  21
ATOM     21  C   UNL     1       7.753  -1.299   0.000  0.00  0.00    +0.097 C 
ATOM     22  C   UNL     1       7.753  -0.474   0.000  0.00  0.00    +0.022 C 
ATOM     23  C   UNL     1       8.467  -0.062   0.000  0.00  0.00    +0.002 C 
ATOM     24  C   UNL     1       9.181  -0.474   0.000  0.00  0.00    +0.000 C 
ATOM     25  C   UNL     1       9.181  -1.299   0.000  0.00  0.00    +0.002 C 
ATOM     26  C   UNL     1       8.467  -1.712   0.000  0.00  0.00    +0.022 C 
ENDBRANCH  20  21
BRANCH   3   2
ATOM      1  C   UNL     1       3.466  -2.949   0.000  0.00  0.00    +0.000 C 
ATOM      2  C   UNL     1       4.180  -2.537   0.000  0.00  0.00    +0.002 C 
ENDBRANCH   3   2
BRANCH   8   9
ATOM      9  C   UNL     1       4.180  -4.187   0.000  0.00  0.00    +0.087 C 
BRANCH   9  10
ATOM     10  C   UNL     1       4.180  -5.012   0.000  0.00  0.00    +0.247 C 
ATOM     11  O   UNL     1       4.895  -5.424   0.000  0.00  0.00    -0.273 OA
ATOM     12  N   UNL     1       3.466  -5.424   0.000  0.00  0.00    -0.154 NA
ATOM     13  C   UNL     1       3.466  -6.249   0.000  0.00  0.00    +0.186 A 
ATOM     14  N   UNL     1       4.133  -6.734   0.000  0.00  0.00    -0.221 NA
ATOM     15  C   UNL     1       3.878  -7.519   0.000  0.00  0.00    +0.108 A 
ATOM     16  C   UNL     1       3.053  -7.519   0.000  0.00  0.00    +0.059 A 
ATOM     17  S   UNL     1       2.798  -6.734   0.000  0.00  0.00    -0.049 S 
ENDBRANCH   9  10
ENDBRANCH   8   9
TORSDOF 4
