REMARK  Name = 
REMARK  6 active torsions:
REMARK  status: ('A' for Active; 'I' for Inactive)
REMARK    1  A    between atoms: C_3  and  C_8
REMARK    2  A    between atoms: C_11  and  C_13
REMARK    3  A    between atoms: N_17  and  C_18
REMARK    4  A    between atoms: C_18  and  C_19
REMARK    5  A    between atoms: C_19  and  C_20
REMARK    6  A    between atoms: C_20  and  C_21
REMARK                            x       y       z     vdW  Elec       q    Type
REMARK                         _______ _______ _______ _____ _____    ______ ____
ROOT
ATOM     13  C   UNL     1       4.112  -2.294   0.000  0.00  0.00    +0.138 C 
ATOM     14  C   UNL     1       4.937  -2.294   0.000  0.00  0.00    +0.027 C 
ATOM     15  C   UNL     1       5.192  -3.078   0.000  0.00  0.00    +0.019 C 
ATOM     16  C   UNL     1       4.524  -3.563   0.000  0.00  0.00    +0.073 C 
ATOM     17  N   UNL     1       3.857  -3.078   0.000  0.00  0.00    -0.266 NA
ENDROOT
BRANCH  13  11
ATOM      8  C   UNL     1       3.215  -0.357   0.000  0.00  0.00    +0.208 A 
ATOM      9  N   UNL     1       2.547  -0.842   0.000  0.00  0.00    -0.056 NA
ATOM     10  O   UNL     1       2.802  -1.626   0.000  0.00  0.00    -0.336 OA
ATOM     11  C   UNL     1       3.627  -1.626   0.000  0.00  0.00    +0.251 A 
ATOM     12  N   UNL     1       3.882  -0.842   0.000  0.00  0.00    -0.189 NA
BRANCH   8   3
ATOM      1  N   UNL     1       1.786   0.468   0.000  0.00  0.00    -0.107 NA
ATOM      2  C   UNL     1       2.500   0.881   0.000  0.00  0.00    +0.176 A 
ATOM      3  C   UNL     1       3.215   0.468   0.000  0.00  0.00    +0.093 A 
ATOM      4  C   UNL     1       3.929   0.881   0.000  0.00  0.00    +0.107 A 
ATOM      5  N   UNL     1       3.929   1.706   0.000  0.00  0.00    -0.222 NA
ATOM      6  C   UNL     1       3.215   2.118   0.000  0.00  0.00    +0.200 A 
ATOM      7  N   UNL     1       2.500   1.706   0.000  0.00  0.00    -0.206 NA
ENDBRANCH   8   3
ENDBRANCH  13  11
BRANCH  17  18
ATOM     18  C   UNL     1       3.072  -3.333   0.000  0.00  0.00    +0.073 C 
BRANCH  18  19
ATOM     19  C   UNL     1       2.459  -2.781   0.000  0.00  0.00    +0.022 C 
BRANCH  19  20
ATOM     20  C   UNL     1       1.675  -3.036   0.000  0.00  0.00    +0.028 C 
BRANCH  20  21
ATOM     21  C   UNL     1       1.062  -2.484   0.000  0.00  0.00    -0.022 A 
ATOM     22  C   UNL     1       0.277  -2.739   0.000  0.00  0.00    -0.004 A 
ATOM     23  C   UNL     1      -0.336  -2.187   0.000  0.00  0.00    -0.000 A 
ATOM     24  C   UNL     1      -0.165  -1.380   0.000  0.00  0.00    -0.000 A 
ATOM     25  C   UNL     1       0.620  -1.125   0.000  0.00  0.00    -0.000 A 
ATOM     26  C   UNL     1       1.233  -1.677   0.000  0.00  0.00    -0.004 A 
ENDBRANCH  20  21
ENDBRANCH  19  20
ENDBRANCH  18  19
ENDBRANCH  17  18
TORSDOF 6
