REMARK  Name = 
REMARK  5 active torsions:
REMARK  status: ('A' for Active; 'I' for Inactive)
REMARK    1  A    between atoms: C_5  and  C_6
REMARK    2  A    between atoms: C_6  and  N_7
REMARK    3  A    between atoms: C_12  and  C_13
REMARK    4  A    between atoms: C_15  and  C_16
REMARK    5  A    between atoms: C_16  and  C_17
REMARK                            x       y       z     vdW  Elec       q    Type
REMARK                         _______ _______ _______ _____ _____    ______ ____
ROOT
ATOM      7  N   UNL     1       2.943  -3.335   0.000  0.00  0.00    -0.260 NA
ATOM      8  C   UNL     1       3.611  -3.820   0.000  0.00  0.00    +0.106 C 
ATOM      9  C   UNL     1       3.356  -4.605   0.000  0.00  0.00    +0.170 C 
ATOM     10  O   UNL     1       3.841  -5.272   0.000  0.00  0.00    -0.222 OA
ATOM     11  C   UNL     1       2.531  -4.605   0.000  0.00  0.00    +0.060 C 
ATOM     12  C   UNL     1       2.276  -3.820   0.000  0.00  0.00    +0.140 C 
ENDROOT
BRANCH  12  13
ATOM     13  C   UNL     1       1.491  -3.565   0.000  0.00  0.00    +0.251 A 
ATOM     14  N   UNL     1       0.824  -4.050   0.000  0.00  0.00    -0.193 NA
ATOM     15  C   UNL     1       0.156  -3.565   0.000  0.00  0.00    +0.185 A 
ATOM     23  N   UNL     1       0.411  -2.780   0.000  0.00  0.00    -0.060 NA
ATOM     24  O   UNL     1       1.236  -2.780   0.000  0.00  0.00    -0.336 OA
BRANCH  15  16
ATOM     16  C   UNL     1      -0.628  -3.820   0.000  0.00  0.00    +0.095 C 
BRANCH  16  17
ATOM     17  C   UNL     1      -1.242  -3.268   0.000  0.00  0.00    -0.014 A 
ATOM     18  C   UNL     1      -2.026  -3.523   0.000  0.00  0.00    -0.004 A 
ATOM     19  C   UNL     1      -2.639  -2.971   0.000  0.00  0.00    -0.000 A 
ATOM     20  C   UNL     1      -2.468  -2.164   0.000  0.00  0.00    -0.000 A 
ATOM     21  C   UNL     1      -1.683  -1.909   0.000  0.00  0.00    -0.000 A 
ATOM     22  C   UNL     1      -1.070  -2.461   0.000  0.00  0.00    -0.004 A 
ENDBRANCH  16  17
ENDBRANCH  15  16
ENDBRANCH  12  13
BRANCH   7   6
ATOM      6  C   UNL     1       2.943  -2.510   0.000  0.00  0.00    +0.100 C 
BRANCH   6   5
ATOM      1  C   UNL     1       5.801  -0.860   0.000  0.00  0.00    +0.031 C 
ATOM      2  C   UNL     1       5.087  -1.272   0.000  0.00  0.00    -0.022 A 
ATOM      3  C   UNL     1       5.087  -2.098   0.000  0.00  0.00    -0.005 A 
ATOM      4  C   UNL     1       4.372  -2.510   0.000  0.00  0.00    -0.003 A 
ATOM      5  C   UNL     1       3.658  -2.098   0.000  0.00  0.00    -0.006 A 
ATOM     25  C   UNL     1       3.658  -1.272   0.000  0.00  0.00    -0.003 A 
ATOM     26  C   UNL     1       4.372  -0.860   0.000  0.00  0.00    -0.005 A 
ENDBRANCH   6   5
ENDBRANCH   7   6
TORSDOF 5
