REMARK  Name = 
REMARK  5 active torsions:
REMARK  status: ('A' for Active; 'I' for Inactive)
REMARK    1  A    between atoms: C_5  and  C_6
REMARK    2  A    between atoms: C_6  and  N_7
REMARK    3  A    between atoms: C_12  and  C_13
REMARK    4  A    between atoms: C_18  and  C_19
REMARK    5  A    between atoms: C_19  and  C_20
REMARK                            x       y       z     vdW  Elec       q    Type
REMARK                         _______ _______ _______ _____ _____    ______ ____
ROOT
ATOM      7  N   UNL     1       2.070   1.110   0.000  0.00  0.00    -0.257 NA
ATOM      8  C   UNL     1       1.356   0.698   0.000  0.00  0.00    +0.121 C 
ATOM      9  C   UNL     1       0.641   1.110   0.000  0.00  0.00    +0.090 A 
ATOM     10  C   UNL     1       0.641   1.935   0.000  0.00  0.00    +0.077 A 
ATOM     11  C   UNL     1       1.356   2.348   0.000  0.00  0.00    +0.072 C 
ATOM     12  C   UNL     1       2.070   1.935   0.000  0.00  0.00    +0.142 C 
ATOM     28  N   UNL     1      -0.143   2.190   0.000  0.00  0.00    -0.227 NA
ATOM     29  C   UNL     1      -0.628   1.523   0.000  0.00  0.00    +0.198 A 
ATOM     30  N   UNL     1      -0.143   0.856   0.000  0.00  0.00    -0.226 NA
ENDROOT
BRANCH  12  13
ATOM     13  C   UNL     1       2.784   2.348   0.000  0.00  0.00    +0.241 C 
ATOM     14  O   UNL     1       2.784   3.173   0.000  0.00  0.00    -0.273 OA
ATOM     15  N   UNL     1       3.499   1.935   0.000  0.00  0.00    -0.278 N 
ATOM     16  C   UNL     1       4.213   2.348   0.000  0.00  0.00    +0.093 C 
ATOM     17  C   UNL     1       4.928   1.935   0.000  0.00  0.00    +0.022 C 
ATOM     18  C   UNL     1       4.928   1.110   0.000  0.00  0.00    +0.008 C 
ATOM     26  C   UNL     1       4.213   0.698   0.000  0.00  0.00    +0.022 C 
ATOM     27  C   UNL     1       3.499   1.110   0.000  0.00  0.00    +0.093 C 
BRANCH  18  19
ATOM     19  C   UNL     1       5.642   0.698   0.000  0.00  0.00    +0.026 C 
BRANCH  19  20
ATOM     20  C   UNL     1       5.642  -0.127   0.000  0.00  0.00    -0.022 A 
ATOM     21  C   UNL     1       6.357  -0.540   0.000  0.00  0.00    -0.004 A 
ATOM     22  C   UNL     1       6.357  -1.365   0.000  0.00  0.00    -0.000 A 
ATOM     23  C   UNL     1       5.642  -1.777   0.000  0.00  0.00    -0.000 A 
ATOM     24  C   UNL     1       4.928  -1.365   0.000  0.00  0.00    -0.000 A 
ATOM     25  C   UNL     1       4.928  -0.540   0.000  0.00  0.00    -0.004 A 
ENDBRANCH  19  20
ENDBRANCH  18  19
ENDBRANCH  12  13
BRANCH   7   6
ATOM      6  C   UNL     1       2.784   0.698   0.000  0.00  0.00    +0.100 C 
BRANCH   6   5
ATOM      1 CL   UNL     1       2.784  -2.602   0.000  0.00  0.00    -0.082 Cl
ATOM      2  C   UNL     1       2.784  -1.777   0.000  0.00  0.00    +0.058 A 
ATOM      3  C   UNL     1       2.070  -1.365   0.000  0.00  0.00    +0.011 A 
ATOM      4  C   UNL     1       2.070  -0.540   0.000  0.00  0.00    -0.002 A 
ATOM      5  C   UNL     1       2.784  -0.127   0.000  0.00  0.00    -0.006 A 
ATOM     31  C   UNL     1       3.499  -0.540   0.000  0.00  0.00    -0.002 A 
ATOM     32  C   UNL     1       3.499  -1.365   0.000  0.00  0.00    +0.011 A 
ENDBRANCH   6   5
ENDBRANCH   7   6
TORSDOF 5
