REMARK  Name = 
REMARK  7 active torsions:
REMARK  status: ('A' for Active; 'I' for Inactive)
REMARK    1  A    between atoms: C_2  and  C_5
REMARK    2  A    between atoms: C_5  and  C_6
REMARK    3  A    between atoms: N_8  and  C_9
REMARK    4  A    between atoms: C_12  and  C_15
REMARK    5  A    between atoms: N_20  and  C_21
REMARK    6  A    between atoms: C_21  and  C_22
REMARK    7  A    between atoms: C_24  and  C_25
REMARK                            x       y       z     vdW  Elec       q    Type
REMARK                         _______ _______ _______ _____ _____    ______ ____
ROOT
ATOM      9  C   UNL     1       0.715  -1.238   0.000  0.00  0.00    +0.073 A 
ATOM     10  C   UNL     1       1.429  -1.650   0.000  0.00  0.00    +0.016 A 
ATOM     11  C   UNL     1       1.429  -2.475   0.000  0.00  0.00    -0.001 A 
ATOM     12  C   UNL     1       0.715  -2.888   0.000  0.00  0.00    +0.006 A 
ATOM     13  C   UNL     1       0.000  -2.475   0.000  0.00  0.00    -0.001 A 
ATOM     14  C   UNL     1       0.000  -1.650   0.000  0.00  0.00    +0.016 A 
ENDROOT
BRANCH  12  15
ATOM     15  C   UNL     1       0.715  -3.712   0.000  0.00  0.00    +0.159 C 
ATOM     16  O   UNL     1       1.429  -4.125   0.000  0.00  0.00    -0.341 OA
ATOM     17  C   UNL     1       1.429  -4.950   0.000  0.00  0.00    +0.227 C 
ATOM     18  C   UNL     1       0.715  -5.362   0.000  0.00  0.00    +0.256 C 
ATOM     19  O   UNL     1       0.715  -6.188   0.000  0.00  0.00    -0.272 OA
ATOM     20  N   UNL     1       0.000  -4.950   0.000  0.00  0.00    -0.272 N 
ATOM     24  C   UNL     1       0.000  -4.125   0.000  0.00  0.00    +0.140 C 
BRANCH  24  25
ATOM     25  C   UNL     1      -0.715  -3.712   0.000  0.00  0.00    +0.205 C 
ATOM     26  O   UNL     1      -0.715  -2.888   0.000  0.00  0.00    -0.218 OA
ENDBRANCH  24  25
BRANCH  20  21
ATOM     21  C   UNL     1      -0.715  -5.362   0.000  0.00  0.00    +0.114 C 
BRANCH  21  22
ATOM     22  C   UNL     1      -0.715  -6.188   0.000  0.00  0.00    +0.131 C 
ATOM     23  N   UNL     1       0.000  -6.600   0.000  0.00  0.00    -0.130 NA
ENDBRANCH  21  22
ENDBRANCH  20  21
ENDBRANCH  12  15
BRANCH   9   8
ATOM      6  C   UNL     1       0.000   0.000   0.000  0.00  0.00    +0.246 C 
ATOM      7  O   UNL     1      -0.715  -0.412   0.000  0.00  0.00    -0.273 OA
ATOM      8  N   UNL     1       0.715  -0.412   0.000  0.00  0.00    -0.179 NA
BRANCH   6   5
ATOM      5  C   UNL     1       0.000   0.825   0.000  0.00  0.00    +0.087 C 
BRANCH   5   2
ATOM      1  C   UNL     1      -1.429   1.650   0.000  0.00  0.00    +0.000 C 
ATOM      2  C   UNL     1      -0.715   1.238   0.000  0.00  0.00    +0.009 C 
ATOM      3  C   UNL     1      -1.127   0.523   0.000  0.00  0.00    +0.000 C 
ATOM      4  C   UNL     1      -0.302   1.952   0.000  0.00  0.00    +0.000 C 
ENDBRANCH   5   2
ENDBRANCH   6   5
ENDBRANCH   9   8
TORSDOF 7
