REMARK  Name = 
REMARK  5 active torsions:
REMARK  status: ('A' for Active; 'I' for Inactive)
REMARK    1  A    between atoms: N_3  and  C_4
REMARK    2  A    between atoms: C_4  and  C_5
REMARK    3  A    between atoms: C_12  and  C_13
REMARK    4  A    between atoms: C_13  and  N_14
REMARK    5  A    between atoms: N_23  and  C_24
REMARK                            x       y       z     vdW  Elec       q    Type
REMARK                         _______ _______ _______ _____ _____    ______ ____
ROOT
ATOM      5  C   UNL     1       4.765  -2.245   0.000  0.00  0.00    +0.079 C 
ATOM      6  C   UNL     1       4.867  -1.474   0.000  0.00  0.00    +0.018 C 
ATOM      7  C   UNL     1       4.275  -0.920   0.000  0.00  0.00    +0.006 C 
ATOM      8  C   UNL     1       4.601  -0.085   0.000  0.00  0.00    +0.017 C 
ATOM      9  C   UNL     1       4.636  -0.737   0.000  0.00  0.00    +0.072 C 
ATOM     10  N   UNL     1       4.168  -1.675   0.000  0.00  0.00    -0.272 NA
ATOM     11  C   UNL     1       3.258  -1.743   0.000  0.00  0.00    +0.074 C 
ATOM     12  C   UNL     1       3.401  -0.994   0.000  0.00  0.00    +0.036 C 
ENDROOT
BRANCH   5   4
ATOM      4  C   UNL     1       5.038  -3.023   0.000  0.00  0.00    +0.133 C 
BRANCH   4   3
ATOM      1  O   UNL     1       5.585  -4.580   0.000  0.00  0.00    -0.249 OA
ATOM      2  C   UNL     1       6.123  -3.954   0.000  0.00  0.00    +0.344 C 
ATOM      3  N   UNL     1       5.849  -3.176   0.000  0.00  0.00    -0.185 NA
ATOM     23  N   UNL     1       6.933  -4.106   0.000  0.00  0.00    -0.161 NA
BRANCH  23  24
ATOM     24  C   UNL     1       7.207  -4.885   0.000  0.00  0.00    +0.075 A 
ATOM     25  C   UNL     1       8.018  -5.037   0.000  0.00  0.00    +0.017 A 
ATOM     26  C   UNL     1       8.291  -5.815   0.000  0.00  0.00    +0.001 A 
ATOM     27  C   UNL     1       7.754  -6.441   0.000  0.00  0.00    +0.000 A 
ATOM     28  C   UNL     1       6.943  -6.289   0.000  0.00  0.00    +0.001 A 
ATOM     29  C   UNL     1       6.670  -5.511   0.000  0.00  0.00    +0.017 A 
ENDBRANCH  23  24
ENDBRANCH   4   3
ENDBRANCH   5   4
BRANCH  12  13
ATOM     13  C   UNL     1       2.849  -0.381   0.000  0.00  0.00    +0.092 C 
BRANCH  13  14
ATOM     14  N   UNL     1       2.042  -0.552   0.000  0.00  0.00    -0.307 N 
ATOM     15  C   UNL     1       1.706  -1.306   0.000  0.00  0.00    +0.095 C 
ATOM     16  C   UNL     1       0.886  -1.220   0.000  0.00  0.00    +0.049 C 
ATOM     17  C   UNL     1       0.715  -0.412   0.000  0.00  0.00    -0.007 A 
ATOM     18  C   UNL     1       0.000   0.000   0.000  0.00  0.00    -0.003 A 
ATOM     19  C   UNL     1       0.000   0.825   0.000  0.00  0.00    -0.000 A 
ATOM     20  C   UNL     1       0.715   1.238   0.000  0.00  0.00    +0.001 A 
ATOM     21  C   UNL     1       1.429   0.825   0.000  0.00  0.00    +0.014 A 
ATOM     22  C   UNL     1       1.429   0.000   0.000  0.00  0.00    +0.044 A 
ENDBRANCH  13  14
ENDBRANCH  12  13
TORSDOF 5
