REMARK  Name = 
REMARK  5 active torsions:
REMARK  status: ('A' for Active; 'I' for Inactive)
REMARK    1  A    between atoms: C_8  and  C_10
REMARK    2  A    between atoms: C_10  and  C_11
REMARK    3  A    between atoms: C_13  and  C_14
REMARK    4  A    between atoms: C_14  and  N_15
REMARK    5  A    between atoms: C_16  and  C_18
REMARK                            x       y       z     vdW  Elec       q    Type
REMARK                         _______ _______ _______ _____ _____    ______ ____
ROOT
ATOM     11  C   UNL     1      -2.840  11.790   0.000  0.00  0.00    +0.157 C 
ATOM     12  O   UNL     1      -2.033  11.619   0.000  0.00  0.00    -0.351 OA
ATOM     13  C   UNL     1      -1.946  10.798   0.000  0.00  0.00    +0.170 C 
ATOM     21  C   UNL     1      -2.700  10.463   0.000  0.00  0.00    +0.213 C 
ATOM     22  O   UNL     1      -2.872   9.656   0.000  0.00  0.00    -0.218 OA
ATOM     23  C   UNL     1      -3.252  11.076   0.000  0.00  0.00    +0.212 C 
ATOM     24  O   UNL     1      -4.073  10.989   0.000  0.00  0.00    -0.218 OA
ENDROOT
BRANCH  11  10
ATOM     10  C   UNL     1      -3.175  12.544   0.000  0.00  0.00    +0.117 C 
BRANCH  10   8
ATOM      1  C   UNL     1      -5.338  15.645   0.000  0.00  0.00    +0.000 C 
ATOM      2  C   UNL     1      -5.002  14.891   0.000  0.00  0.00    +0.003 C 
ATOM      3  C   UNL     1      -4.182  14.805   0.000  0.00  0.00    +0.022 C 
ATOM      4  C   UNL     1      -3.846  14.051   0.000  0.00  0.00    +0.093 C 
ATOM      5  N   UNL     1      -4.331  13.384   0.000  0.00  0.00    -0.279 N 
ATOM      6  C   UNL     1      -5.152  13.470   0.000  0.00  0.00    +0.093 C 
ATOM      7  C   UNL     1      -5.487  14.224   0.000  0.00  0.00    +0.022 C 
ATOM      8  C   UNL     1      -3.996  12.630   0.000  0.00  0.00    +0.228 C 
ATOM      9  O   UNL     1      -4.481  11.963   0.000  0.00  0.00    -0.275 OA
ENDBRANCH  10   8
ENDBRANCH  11  10
BRANCH  13  14
ATOM     14  C   UNL     1      -1.232  10.386   0.000  0.00  0.00    +0.147 C 
BRANCH  14  15
ATOM     15  N   UNL     1      -1.232   9.561   0.000  0.00  0.00    -0.203 NA
ATOM     16  C   UNL     1      -0.517   9.148   0.000  0.00  0.00    +0.241 C 
ATOM     17  O   UNL     1       0.197   9.561   0.000  0.00  0.00    -0.273 OA
BRANCH  16  18
ATOM     18  C   UNL     1      -0.517   8.323   0.000  0.00  0.00    +0.078 C 
ATOM     19  C   UNL     1      -0.105   7.609   0.000  0.00  0.00    +0.010 C 
ATOM     20  C   UNL     1      -0.930   7.609   0.000  0.00  0.00    +0.010 C 
ENDBRANCH  16  18
ENDBRANCH  14  15
ENDBRANCH  13  14
TORSDOF 5
