REMARK  Name = 
REMARK  10 active torsions:
REMARK  status: ('A' for Active; 'I' for Inactive)
REMARK    1  A    between atoms: O_2  and  C_3
REMARK    2  A    between atoms: C_6  and  C_7
REMARK    3  A    between atoms: C_7  and  N_8
REMARK    4  A    between atoms: N_8  and  C_9
REMARK    5  A    between atoms: C_9  and  C_10
REMARK    6  A    between atoms: C_12  and  C_13
REMARK    7  A    between atoms: C_13  and  C_14
REMARK    8  A    between atoms: C_17  and  C_18
REMARK    9  A    between atoms: C_18  and  O_19
REMARK   10  A    between atoms: O_19  and  C_20
REMARK                            x       y       z     vdW  Elec       q    Type
REMARK                         _______ _______ _______ _____ _____    ______ ____
ROOT
ATOM     10  C   UNL     1       3.572  -1.238   0.000  0.00  0.00    +0.163 C 
ATOM     11  O   UNL     1       2.858  -1.650   0.000  0.00  0.00    -0.354 OA
ATOM     12  C   UNL     1       2.143  -1.238   0.000  0.00  0.00    +0.121 C 
ATOM     27  C   UNL     1       2.143  -0.412   0.000  0.00  0.00    +0.033 C 
ATOM     28  C   UNL     1       2.858   0.000   0.000  0.00  0.00    +0.038 C 
ATOM     29  C   UNL     1       3.572  -0.412   0.000  0.00  0.00    +0.180 C 
ATOM     30  O   UNL     1       4.287   0.000   0.000  0.00  0.00    -0.220 OA
ENDROOT
BRANCH  10   9
ATOM      9  C   UNL     1       4.287  -1.650   0.000  0.00  0.00    +0.121 C 
BRANCH   9   8
ATOM      8  N   UNL     1       5.001  -1.238   0.000  0.00  0.00    -0.211 NA
BRANCH   8   7
ATOM      7  C   UNL     1       5.716  -1.650   0.000  0.00  0.00    +0.115 C 
BRANCH   7   6
ATOM      3  C   UNL     1       7.859  -0.412   0.000  0.00  0.00    +0.139 A 
ATOM      4  C   UNL     1       7.859  -1.238   0.000  0.00  0.00    +0.037 A 
ATOM      5  C   UNL     1       7.145  -1.650   0.000  0.00  0.00    +0.000 A 
ATOM      6  C   UNL     1       6.430  -1.238   0.000  0.00  0.00    -0.005 A 
ATOM     31  C   UNL     1       6.430  -0.412   0.000  0.00  0.00    +0.000 A 
ATOM     32  C   UNL     1       7.145   0.000   0.000  0.00  0.00    +0.037 A 
BRANCH   3   2
ATOM      1  C   UNL     1       8.574   0.825   0.000  0.00  0.00    +0.252 C 
ATOM      2  O   UNL     1       8.574   0.000   0.000  0.00  0.00    -0.471 OA
ENDBRANCH   3   2
ENDBRANCH   7   6
ENDBRANCH   8   7
ENDBRANCH   9   8
ENDBRANCH  10   9
BRANCH  12  13
ATOM     13  C   UNL     1       1.429  -1.650   0.000  0.00  0.00    +0.079 C 
BRANCH  13  14
ATOM     14  C   UNL     1       1.429  -2.475   0.000  0.00  0.00    +0.103 A 
ATOM     15  N   UNL     1       2.096  -2.960   0.000  0.00  0.00    -0.082 NA
ATOM     16  O   UNL     1       1.841  -3.744   0.000  0.00  0.00    -0.354 OA
ATOM     17  C   UNL     1       1.016  -3.744   0.000  0.00  0.00    +0.198 A 
ATOM     26  C   UNL     1       0.761  -2.960   0.000  0.00  0.00    +0.057 A 
BRANCH  17  18
ATOM     18  C   UNL     1       0.531  -4.412   0.000  0.00  0.00    +0.272 C 
BRANCH  18  19
ATOM     19  O   UNL     1       0.867  -5.166   0.000  0.00  0.00    -0.467 OA
BRANCH  19  20
ATOM     20  C   UNL     1       0.382  -5.833   0.000  0.00  0.00    +0.139 A 
ATOM     21  C   UNL     1       0.718  -6.587   0.000  0.00  0.00    +0.037 A 
ATOM     22  C   UNL     1       0.233  -7.254   0.000  0.00  0.00    +0.003 A 
ATOM     23  C   UNL     1      -0.588  -7.168   0.000  0.00  0.00    +0.000 A 
ATOM     24  C   UNL     1      -0.923  -6.414   0.000  0.00  0.00    +0.003 A 
ATOM     25  C   UNL     1      -0.438  -5.747   0.000  0.00  0.00    +0.037 A 
ENDBRANCH  19  20
ENDBRANCH  18  19
ENDBRANCH  17  18
ENDBRANCH  13  14
ENDBRANCH  12  13
TORSDOF 10
