REMARK  Name = 
REMARK  7 active torsions:
REMARK  status: ('A' for Active; 'I' for Inactive)
REMARK    1  A    between atoms: N_2  and  C_3
REMARK    2  A    between atoms: N_2  and  C_22
REMARK    3  A    between atoms: C_3  and  C_4
REMARK    4  A    between atoms: C_11  and  C_12
REMARK    5  A    between atoms: C_12  and  N_13
REMARK    6  A    between atoms: N_16  and  C_17
REMARK    7  A    between atoms: C_22  and  C_23
REMARK                            x       y       z     vdW  Elec       q    Type
REMARK                         _______ _______ _______ _____ _____    ______ ____
ROOT
ATOM      4  C   UNL     1       1.661  -1.343   0.000  0.00  0.00    +0.032 C 
ATOM      5  C   UNL     1       1.814  -2.106   0.000  0.00  0.00    +0.073 C 
ATOM      6  N   UNL     1       1.065  -1.759   0.000  0.00  0.00    -0.272 NA
ATOM      7  C   UNL     1       1.205  -0.720   0.000  0.00  0.00    +0.072 C 
ATOM      8  C   UNL     1       0.961  -0.114   0.000  0.00  0.00    +0.017 C 
ATOM      9  C   UNL     1       0.923  -1.010   0.000  0.00  0.00    +0.005 C 
ATOM     10  C   UNL     1       0.119  -1.362   0.000  0.00  0.00    +0.018 C 
ATOM     11  C   UNL     1       0.226  -2.118   0.000  0.00  0.00    +0.079 C 
ENDROOT
BRANCH   4   3
ATOM      3  C   UNL     1       2.307  -0.828   0.000  0.00  0.00    +0.074 C 
BRANCH   3   2
ATOM      1  C   UNL     1       3.197  -1.946   0.000  0.00  0.00    +0.090 C 
ATOM      2  N   UNL     1       3.075  -1.130   0.000  0.00  0.00    -0.268 NA
BRANCH   2  22
ATOM     22  C   UNL     1       3.720  -0.616   0.000  0.00  0.00    +0.099 C 
BRANCH  22  23
ATOM     23  C   UNL     1       4.488  -0.918   0.000  0.00  0.00    -0.006 A 
ATOM     24  C   UNL     1       5.133  -0.404   0.000  0.00  0.00    -0.003 A 
ATOM     25  C   UNL     1       5.901  -0.706   0.000  0.00  0.00    -0.000 A 
ATOM     26  C   UNL     1       6.023  -1.522   0.000  0.00  0.00    -0.000 A 
ATOM     27  C   UNL     1       5.378  -2.036   0.000  0.00  0.00    -0.000 A 
ATOM     28  C   UNL     1       4.610  -1.734   0.000  0.00  0.00    -0.003 A 
ENDBRANCH  22  23
ENDBRANCH   2  22
ENDBRANCH   3   2
ENDBRANCH   4   3
BRANCH  11  12
ATOM     12  C   UNL     1      -0.179  -2.836   0.000  0.00  0.00    +0.133 C 
BRANCH  12  13
ATOM     13  N   UNL     1      -1.004  -2.845   0.000  0.00  0.00    -0.185 NA
ATOM     14  C   UNL     1      -1.408  -3.564   0.000  0.00  0.00    +0.344 C 
ATOM     15  O   UNL     1      -0.988  -4.274   0.000  0.00  0.00    -0.249 OA
ATOM     16  N   UNL     1      -2.233  -3.573   0.000  0.00  0.00    -0.160 NA
BRANCH  16  17
ATOM     17  C   UNL     1      -2.638  -4.292   0.000  0.00  0.00    +0.082 A 
ATOM     18  C   UNL     1      -2.295  -5.042   0.000  0.00  0.00    +0.052 A 
ATOM     19  S   UNL     1      -2.902  -5.600   0.000  0.00  0.00    -0.085 S 
ATOM     20  C   UNL     1      -3.620  -5.196   0.000  0.00  0.00    +0.037 A 
ATOM     21  C   UNL     1      -3.458  -4.387   0.000  0.00  0.00    +0.024 A 
ENDBRANCH  16  17
ENDBRANCH  12  13
ENDBRANCH  11  12
TORSDOF 7
