REMARK  Name = 
REMARK  7 active torsions:
REMARK  status: ('A' for Active; 'I' for Inactive)
REMARK    1  A    between atoms: O_2  and  C_3
REMARK    2  A    between atoms: C_6  and  C_7
REMARK    3  A    between atoms: C_7  and  N_8
REMARK    4  A    between atoms: N_8  and  C_9
REMARK    5  A    between atoms: C_9  and  C_10
REMARK    6  A    between atoms: C_10  and  C_11
REMARK    7  A    between atoms: C_14  and  C_16
REMARK                            x       y       z     vdW  Elec       q    Type
REMARK                         _______ _______ _______ _____ _____    ______ ____
ROOT
ATOM      9  C   UNL     1      -2.503  -2.531   0.000  0.00  0.00    +0.120 C 
ATOM     24  C   UNL     1      -1.919  -3.115   0.000  0.00  0.00    +0.161 C 
ATOM     25  O   UNL     1      -2.503  -3.698   0.000  0.00  0.00    -0.351 OA
ATOM     26  C   UNL     1      -3.086  -3.115   0.000  0.00  0.00    +0.161 C 
ENDROOT
BRANCH   9   8
ATOM      8  N   UNL     1      -1.919  -1.948   0.000  0.00  0.00    -0.211 NA
BRANCH   8   7
ATOM      7  C   UNL     1      -2.133  -1.151   0.000  0.00  0.00    +0.115 C 
BRANCH   7   6
ATOM      3  C   UNL     1      -0.383   0.599   0.000  0.00  0.00    +0.139 A 
ATOM      4  C   UNL     1      -0.169  -0.198   0.000  0.00  0.00    +0.037 A 
ATOM      5  C   UNL     1      -0.752  -0.781   0.000  0.00  0.00    +0.000 A 
ATOM      6  C   UNL     1      -1.549  -0.568   0.000  0.00  0.00    -0.005 A 
ATOM     27  C   UNL     1      -1.763   0.229   0.000  0.00  0.00    +0.000 A 
ATOM     28  C   UNL     1      -1.180   0.812   0.000  0.00  0.00    +0.037 A 
BRANCH   3   2
ATOM      1  C   UNL     1      -0.013   1.979   0.000  0.00  0.00    +0.252 C 
ATOM      2  O   UNL     1       0.201   1.182   0.000  0.00  0.00    -0.471 OA
ENDBRANCH   3   2
ENDBRANCH   7   6
ENDBRANCH   8   7
ENDBRANCH   9   8
BRANCH   9  10
ATOM     10  C   UNL     1      -3.086  -1.948   0.000  0.00  0.00    +0.070 C 
BRANCH  10  11
ATOM     11  C   UNL     1      -3.883  -2.162   0.000  0.00  0.00    +0.102 A 
ATOM     12  N   UNL     1      -4.178  -2.932   0.000  0.00  0.00    -0.081 NA
ATOM     13  O   UNL     1      -5.002  -2.889   0.000  0.00  0.00    -0.349 OA
ATOM     14  C   UNL     1      -5.216  -2.092   0.000  0.00  0.00    +0.230 A 
ATOM     15  C   UNL     1      -4.524  -1.642   0.000  0.00  0.00    +0.063 A 
BRANCH  14  16
ATOM     16  C   UNL     1      -5.986  -1.796   0.000  0.00  0.00    +0.286 C 
ATOM     17  O   UNL     1      -6.115  -0.981   0.000  0.00  0.00    -0.266 OA
ATOM     18  N   UNL     1      -6.627  -2.315   0.000  0.00  0.00    -0.274 N 
ATOM     19  C   UNL     1      -6.498  -3.130   0.000  0.00  0.00    +0.094 C 
ATOM     20  C   UNL     1      -7.139  -3.649   0.000  0.00  0.00    +0.022 C 
ATOM     21  C   UNL     1      -7.910  -3.354   0.000  0.00  0.00    +0.004 C 
ATOM     22  C   UNL     1      -8.039  -2.539   0.000  0.00  0.00    +0.022 C 
ATOM     23  C   UNL     1      -7.397  -2.020   0.000  0.00  0.00    +0.094 C 
ENDBRANCH  14  16
ENDBRANCH  10  11
ENDBRANCH   9  10
TORSDOF 7
