REMARK  Name = 
REMARK  6 active torsions:
REMARK  status: ('A' for Active; 'I' for Inactive)
REMARK    1  A    between atoms: O_2  and  C_3
REMARK    2  A    between atoms: C_8  and  N_9
REMARK    3  A    between atoms: C_15  and  C_17
REMARK    4  A    between atoms: C_24  and  C_25
REMARK    5  A    between atoms: C_25  and  N_26
REMARK    6  A    between atoms: C_28  and  C_31
REMARK                            x       y       z     vdW  Elec       q    Type
REMARK                         _______ _______ _______ _____ _____    ______ ____
ROOT
ATOM     17  C   UNL     1       1.661  -1.343   0.000  0.00  0.00    +0.093 C 
ATOM     18  C   UNL     1       1.814  -2.106   0.000  0.00  0.00    +0.081 C 
ATOM     19  N   UNL     1       1.065  -1.759   0.000  0.00  0.00    -0.272 NA
ATOM     20  C   UNL     1       1.205  -0.720   0.000  0.00  0.00    +0.072 C 
ATOM     21  C   UNL     1       0.961  -0.114   0.000  0.00  0.00    +0.018 C 
ATOM     22  C   UNL     1       0.923  -1.010   0.000  0.00  0.00    +0.013 C 
ATOM     23  C   UNL     1       0.119  -1.362   0.000  0.00  0.00    +0.019 C 
ATOM     24  C   UNL     1       0.226  -2.118   0.000  0.00  0.00    +0.082 C 
ENDROOT
BRANCH  17  15
ATOM      9  N   UNL     1       1.939   1.619   0.000  0.00  0.00    -0.302 N 
ATOM     10  C   UNL     1       2.707   1.317   0.000  0.00  0.00    +0.112 C 
ATOM     11  C   UNL     1       2.829   0.501   0.000  0.00  0.00    +0.115 C 
ATOM     12  N   UNL     1       2.184  -0.013   0.000  0.00  0.00    -0.276 N 
ATOM     13  C   UNL     1       1.416   0.289   0.000  0.00  0.00    +0.115 C 
ATOM     14  C   UNL     1       1.294   1.105   0.000  0.00  0.00    +0.112 C 
ATOM     15  C   UNL     1       2.307  -0.828   0.000  0.00  0.00    +0.227 C 
ATOM     16  O   UNL     1       3.075  -1.130   0.000  0.00  0.00    -0.275 OA
BRANCH   9   8
ATOM      3  C   UNL     1       1.049   2.737   0.000  0.00  0.00    +0.152 A 
ATOM      4  C   UNL     1       0.926   3.553   0.000  0.00  0.00    +0.038 A 
ATOM      5  C   UNL     1       1.571   4.067   0.000  0.00  0.00    +0.003 A 
ATOM      6  C   UNL     1       2.339   3.765   0.000  0.00  0.00    +0.001 A 
ATOM      7  C   UNL     1       2.462   2.949   0.000  0.00  0.00    +0.018 A 
ATOM      8  C   UNL     1       1.816   2.435   0.000  0.00  0.00    +0.082 A 
BRANCH   3   2
ATOM      1  C   UNL     1      -0.364   2.524   0.000  0.00  0.00    +0.253 C 
ATOM      2  O   UNL     1       0.403   2.223   0.000  0.00  0.00    -0.470 OA
ENDBRANCH   3   2
ENDBRANCH   9   8
ENDBRANCH  17  15
BRANCH  24  25
ATOM     25  C   UNL     1      -0.179  -2.836   0.000  0.00  0.00    +0.145 C 
BRANCH  25  26
ATOM     26  N   UNL     1      -1.004  -2.845   0.000  0.00  0.00    -0.229 N 
ATOM     27  C   UNL     1      -1.481  -3.518   0.000  0.00  0.00    +0.116 A 
ATOM     28  C   UNL     1      -2.269  -3.271   0.000  0.00  0.00    +0.128 A 
ATOM     29  N   UNL     1      -2.277  -2.446   0.000  0.00  0.00    -0.131 NA
ATOM     30  N   UNL     1      -1.496  -2.183   0.000  0.00  0.00    -0.064 NA
BRANCH  28  31
ATOM     31  C   UNL     1      -2.931  -3.763   0.000  0.00  0.00    +0.165 C 
ATOM     32  C   UNL     1      -3.593  -4.255   0.000  0.00  0.00    +0.039 C 
ATOM     33  C   UNL     1      -3.423  -3.101   0.000  0.00  0.00    +0.039 C 
ATOM     34  O   UNL     1      -2.439  -4.426   0.000  0.00  0.00    -0.219 OA
ENDBRANCH  28  31
ENDBRANCH  25  26
ENDBRANCH  24  25
TORSDOF 6
