REMARK  Name = 
REMARK  5 active torsions:
REMARK  status: ('A' for Active; 'I' for Inactive)
REMARK    1  A    between atoms: O_2  and  C_3
REMARK    2  A    between atoms: C_6  and  C_9
REMARK    3  A    between atoms: C_18  and  N_26
REMARK    4  A    between atoms: C_27  and  C_29
REMARK    5  A    between atoms: C_29  and  S_30
REMARK                            x       y       z     vdW  Elec       q    Type
REMARK                         _______ _______ _______ _____ _____    ______ ____
ROOT
ATOM      9  C   UNL     1       0.601  -1.680   0.000  0.00  0.00    +0.000 A 
ATOM     10  C   UNL     1       0.418  -0.876   0.000  0.00  0.00    +0.001 A 
ATOM     11  C   UNL     1       1.023  -0.315   0.000  0.00  0.00    +0.017 A 
ATOM     12  C   UNL     1       1.811  -0.558   0.000  0.00  0.00    +0.078 A 
ATOM     13  N   UNL     1       2.325   0.087   0.000  0.00  0.00    -0.178 NA
ATOM     14  C   UNL     1       3.150   0.087   0.000  0.00  0.00    +0.264 C 
ATOM     15  O   UNL     1       3.508   0.830   0.000  0.00  0.00    -0.271 OA
ATOM     16  C   UNL     1       3.665  -0.558   0.000  0.00  0.00    +0.156 C 
ATOM     17  C   UNL     1       4.453  -0.315   0.000  0.00  0.00    +0.051 C 
ATOM     18  C   UNL     1       5.058  -0.876   0.000  0.00  0.00    +0.099 C 
ATOM     19  C   UNL     1       4.874  -1.680   0.000  0.00  0.00    +0.043 C 
ATOM     20  C   UNL     1       4.086  -1.923   0.000  0.00  0.00    +0.096 C 
ATOM     21  N   UNL     1       3.481  -1.362   0.000  0.00  0.00    -0.269 N 
ATOM     22  C   UNL     1       2.738  -1.720   0.000  0.00  0.00    +0.251 C 
ATOM     23  O   UNL     1       2.738  -2.545   0.000  0.00  0.00    -0.270 OA
ATOM     24  C   UNL     1       1.994  -1.362   0.000  0.00  0.00    +0.069 A 
ATOM     25  C   UNL     1       1.390  -1.923   0.000  0.00  0.00    +0.006 A 
ENDROOT
BRANCH   9   6
ATOM      3  C   UNL     1      -1.213  -3.364   0.000  0.00  0.00    +0.139 A 
ATOM      4  C   UNL     1      -1.397  -2.559   0.000  0.00  0.00    +0.037 A 
ATOM      5  C   UNL     1      -0.792  -1.998   0.000  0.00  0.00    +0.003 A 
ATOM      6  C   UNL     1      -0.003  -2.241   0.000  0.00  0.00    +0.000 A 
ATOM      7  C   UNL     1       0.180  -3.046   0.000  0.00  0.00    +0.003 A 
ATOM      8  C   UNL     1      -0.425  -3.607   0.000  0.00  0.00    +0.037 A 
BRANCH   3   2
ATOM      1  C   UNL     1      -1.634  -4.729   0.000  0.00  0.00    +0.252 C 
ATOM      2  O   UNL     1      -1.818  -3.925   0.000  0.00  0.00    -0.471 OA
ENDBRANCH   3   2
ENDBRANCH   9   6
BRANCH  18  26
ATOM     26  N   UNL     1       5.846  -0.633   0.000  0.00  0.00    -0.206 NA
ATOM     27  C   UNL     1       6.451  -1.194   0.000  0.00  0.00    +0.252 C 
ATOM     28  O   UNL     1       6.267  -1.998   0.000  0.00  0.00    -0.272 OA
BRANCH  27  29
ATOM     29  C   UNL     1       7.239  -0.951   0.000  0.00  0.00    +0.144 C 
BRANCH  29  30
ATOM     30  S   UNL     1       7.844  -1.512   0.000  0.00  0.00    -0.130 S 
ATOM     31  C   UNL     1       8.632  -1.269   0.000  0.00  0.00    +0.070 C 
ENDBRANCH  29  30
ENDBRANCH  27  29
ENDBRANCH  18  26
TORSDOF 5
