REMARK  Name = 
REMARK  9 active torsions:
REMARK  status: ('A' for Active; 'I' for Inactive)
REMARK    1  A    between atoms: O_2  and  C_3
REMARK    2  A    between atoms: C_6  and  C_7
REMARK    3  A    between atoms: C_7  and  N_8
REMARK    4  A    between atoms: C_9  and  C_11
REMARK    5  A    between atoms: C_11  and  C_12
REMARK    6  A    between atoms: C_12  and  C_13
REMARK    7  A    between atoms: C_20  and  N_23
REMARK    8  A    between atoms: N_23  and  C_24
REMARK    9  A    between atoms: C_24  and  C_25
REMARK                            x       y       z     vdW  Elec       q    Type
REMARK                         _______ _______ _______ _____ _____    ______ ____
ROOT
ATOM     13  C   UNL     1       2.858  -3.300   0.000  0.00  0.00    +0.080 C 
ATOM     14  C   UNL     1       2.858  -2.475   0.000  0.00  0.00    +0.131 C 
ATOM     15  N   UNL     1       3.572  -2.062   0.000  0.00  0.00    -0.203 NA
ATOM     16  C   UNL     1       4.287  -2.475   0.000  0.00  0.00    +0.256 C 
ATOM     17  O   UNL     1       5.001  -2.062   0.000  0.00  0.00    -0.272 OA
ATOM     18  C   UNL     1       4.287  -3.300   0.000  0.00  0.00    +0.138 C 
ATOM     19  C   UNL     1       4.900  -3.852   0.000  0.00  0.00    +0.044 C 
ATOM     20  C   UNL     1       4.564  -4.606   0.000  0.00  0.00    +0.091 C 
ATOM     21  C   UNL     1       3.744  -4.519   0.000  0.00  0.00    +0.090 C 
ATOM     22  N   UNL     1       3.572  -3.712   0.000  0.00  0.00    -0.265 NA
ENDROOT
BRANCH  13  12
ATOM     12  C   UNL     1       2.143  -3.712   0.000  0.00  0.00    +0.027 C 
BRANCH  12  11
ATOM     11  C   UNL     1       1.429  -3.300   0.000  0.00  0.00    +0.088 C 
BRANCH  11   9
ATOM      8  N   UNL     1       0.000  -3.300   0.000  0.00  0.00    -0.201 NA
ATOM      9  C   UNL     1       0.715  -3.712   0.000  0.00  0.00    +0.242 C 
ATOM     10  O   UNL     1       0.715  -4.537   0.000  0.00  0.00    -0.273 OA
BRANCH   8   7
ATOM      7  C   UNL     1      -0.715  -3.712   0.000  0.00  0.00    +0.141 C 
BRANCH   7   6
ATOM      3  C   UNL     1      -2.858  -2.475   0.000  0.00  0.00    +0.139 A 
ATOM      4  C   UNL     1      -2.143  -2.062   0.000  0.00  0.00    +0.037 A 
ATOM      5  C   UNL     1      -1.429  -2.475   0.000  0.00  0.00    +0.001 A 
ATOM      6  C   UNL     1      -1.429  -3.300   0.000  0.00  0.00    -0.000 A 
ATOM     32  C   UNL     1      -2.143  -3.712   0.000  0.00  0.00    +0.001 A 
ATOM     33  C   UNL     1      -2.858  -3.300   0.000  0.00  0.00    +0.037 A 
BRANCH   3   2
ATOM      1  C   UNL     1      -4.287  -2.475   0.000  0.00  0.00    +0.252 C 
ATOM      2  O   UNL     1      -3.572  -2.062   0.000  0.00  0.00    -0.471 OA
ENDBRANCH   3   2
ENDBRANCH   7   6
ENDBRANCH   8   7
ENDBRANCH  11   9
ENDBRANCH  12  11
ENDBRANCH  13  12
BRANCH  20  23
ATOM     23  N   UNL     1       4.977  -5.320   0.000  0.00  0.00    -0.213 NA
BRANCH  23  24
ATOM     24  C   UNL     1       5.802  -5.320   0.000  0.00  0.00    +0.115 C 
BRANCH  24  25
ATOM     25  C   UNL     1       6.214  -6.035   0.000  0.00  0.00    -0.005 A 
ATOM     26  C   UNL     1       7.039  -6.035   0.000  0.00  0.00    -0.001 A 
ATOM     27  C   UNL     1       7.452  -6.749   0.000  0.00  0.00    +0.029 A 
ATOM     28  C   UNL     1       7.039  -7.464   0.000  0.00  0.00    +0.140 A 
ATOM     29  F   UNL     1       7.452  -8.178   0.000  0.00  0.00    -0.204 F 
ATOM     30  C   UNL     1       6.214  -7.464   0.000  0.00  0.00    +0.029 A 
ATOM     31  C   UNL     1       5.802  -6.749   0.000  0.00  0.00    -0.001 A 
ENDBRANCH  24  25
ENDBRANCH  23  24
ENDBRANCH  20  23
TORSDOF 9
