REMARK  Name = 
REMARK  3 active torsions:
REMARK  status: ('A' for Active; 'I' for Inactive)
REMARK    1  A    between atoms: O_2  and  C_3
REMARK    2  A    between atoms: C_8  and  N_9
REMARK    3  A    between atoms: C_19  and  C_26
REMARK                            x       y       z     vdW  Elec       q    Type
REMARK                         _______ _______ _______ _____ _____    ______ ____
ROOT
ATOM      9  N   UNL     1      -0.614  -2.179   0.000  0.00  0.00    -0.159 NA
ATOM     10  C   UNL     1       0.125  -2.547   0.000  0.00  0.00    +0.328 C 
ATOM     11  O   UNL     1       0.176  -3.370   0.000  0.00  0.00    -0.250 OA
ATOM     12  N   UNL     1       0.813  -2.091   0.000  0.00  0.00    -0.262 N 
ATOM     13  C   UNL     1       1.629  -1.912   0.000  0.00  0.00    +0.097 C 
ATOM     14  C   UNL     1       1.582  -0.925   0.000  0.00  0.00    +0.043 C 
ATOM     15  C   UNL     1       1.713  -0.121   0.000  0.00  0.00    +0.011 C 
ATOM     16  C   UNL     1       1.163  -0.557   0.000  0.00  0.00    +0.058 C 
ATOM     17  C   UNL     1       1.225  -1.510   0.000  0.00  0.00    +0.101 C 
ATOM     18  C   UNL     1       0.244  -0.558   0.000  0.00  0.00    +0.041 A 
ATOM     19  C   UNL     1      -0.397  -0.039   0.000  0.00  0.00    +0.013 A 
ATOM     20  C   UNL     1      -1.167  -0.335   0.000  0.00  0.00    +0.006 A 
ATOM     21  C   UNL     1      -1.296  -1.150   0.000  0.00  0.00    +0.061 A 
ATOM     22  C   UNL     1      -0.655  -1.669   0.000  0.00  0.00    +0.261 A 
ATOM     23  O   UNL     1      -1.238  -2.252   0.000  0.00  0.00    -0.267 OA
ATOM     24  N   UNL     1       0.115  -1.373   0.000  0.00  0.00    -0.299 N 
ATOM     25  C   UNL     1       0.622  -0.936   0.000  0.00  0.00    +0.110 C 
ENDROOT
BRANCH   9   8
ATOM      3  C   UNL     1      -2.040  -2.267   0.000  0.00  0.00    +0.154 A 
ATOM      4  C   UNL     1      -2.728  -2.723   0.000  0.00  0.00    +0.038 A 
ATOM      5  C   UNL     1      -2.677  -3.546   0.000  0.00  0.00    +0.003 A 
ATOM      6  C   UNL     1      -1.938  -3.914   0.000  0.00  0.00    +0.002 A 
ATOM      7  C   UNL     1      -1.251  -3.458   0.000  0.00  0.00    +0.020 A 
ATOM      8  C   UNL     1      -1.301  -2.635   0.000  0.00  0.00    +0.109 A 
BRANCH   3   2
ATOM      1  C   UNL     1      -2.829  -1.076   0.000  0.00  0.00    +0.253 C 
ATOM      2  O   UNL     1      -2.091  -1.444   0.000  0.00  0.00    -0.470 OA
ENDBRANCH   3   2
ENDBRANCH   9   8
BRANCH  19  26
ATOM     26  C   UNL     1      -0.268   0.776   0.000  0.00  0.00    +0.020 A 
ATOM     27  C   UNL     1      -0.909   1.295   0.000  0.00  0.00    +0.003 A 
ATOM     28  C   UNL     1      -0.780   2.110   0.000  0.00  0.00    +0.021 A 
ATOM     29  C   UNL     1      -0.010   2.406   0.000  0.00  0.00    +0.099 A 
ATOM     30  N   UNL     1       0.631   1.887   0.000  0.00  0.00    -0.242 NA
ATOM     31  C   UNL     1       0.502   1.072   0.000  0.00  0.00    +0.099 A 
ENDBRANCH  19  26
TORSDOF 3
