REMARK  Name = 
REMARK  5 active torsions:
REMARK  status: ('A' for Active; 'I' for Inactive)
REMARK    1  A    between atoms: C_2  and  C_4
REMARK    2  A    between atoms: C_7  and  N_10
REMARK    3  A    between atoms: C_14  and  C_15
REMARK    4  A    between atoms: C_17  and  N_18
REMARK    5  A    between atoms: N_21  and  C_22
REMARK                            x       y       z     vdW  Elec       q    Type
REMARK                         _______ _______ _______ _____ _____    ______ ____
ROOT
ATOM     10  N   UNL     1       3.658  -4.572   0.000  0.00  0.00    -0.234 N 
ATOM     11  N   UNL     1       4.325  -5.057   0.000  0.00  0.00    -0.170 NA
ATOM     12  C   UNL     1       4.070  -5.842   0.000  0.00  0.00    +0.077 A 
ATOM     13  C   UNL     1       4.555  -6.510   0.000  0.00  0.00    +0.054 C 
ATOM     14  C   UNL     1       3.245  -5.842   0.000  0.00  0.00    +0.010 A 
ATOM     30  C   UNL     1       2.990  -5.057   0.000  0.00  0.00    +0.058 A 
ATOM     31  C   UNL     1       2.206  -4.803   0.000  0.00  0.00    +0.052 C 
ENDROOT
BRANCH  10   7
ATOM      4  C   UNL     1       3.658  -2.098   0.000  0.00  0.00    -0.022 A 
ATOM      5  C   UNL     1       4.372  -2.510   0.000  0.00  0.00    -0.003 A 
ATOM      6  C   UNL     1       4.372  -3.335   0.000  0.00  0.00    +0.019 A 
ATOM      7  C   UNL     1       3.658  -3.748   0.000  0.00  0.00    +0.082 A 
ATOM      8  C   UNL     1       2.943  -3.335   0.000  0.00  0.00    +0.019 A 
ATOM      9  C   UNL     1       2.943  -2.510   0.000  0.00  0.00    -0.003 A 
BRANCH   4   2
ATOM      1  C   UNL     1       2.943  -0.860   0.000  0.00  0.00    +0.005 C 
ATOM      2  C   UNL     1       3.658  -1.272   0.000  0.00  0.00    +0.022 C 
ATOM      3  C   UNL     1       4.372  -0.860   0.000  0.00  0.00    +0.005 C 
ENDBRANCH   4   2
ENDBRANCH  10   7
BRANCH  14  15
ATOM     15  C   UNL     1       2.760  -6.510   0.000  0.00  0.00    +0.048 C 
ATOM     16  C   UNL     1       3.015  -7.294   0.000  0.00  0.00    +0.035 C 
ATOM     17  C   UNL     1       2.348  -7.779   0.000  0.00  0.00    +0.119 C 
ATOM     28  C   UNL     1       1.680  -7.294   0.000  0.00  0.00    -0.009 C 
ATOM     29  C   UNL     1       1.935  -6.510   0.000  0.00  0.00    -0.025 C 
BRANCH  17  18
ATOM     18  N   UNL     1       2.348  -8.604   0.000  0.00  0.00    -0.184 NA
ATOM     19  C   UNL     1       1.633  -9.017   0.000  0.00  0.00    +0.344 C 
ATOM     20  O   UNL     1       0.919  -8.604   0.000  0.00  0.00    -0.249 OA
ATOM     21  N   UNL     1       1.633  -9.841   0.000  0.00  0.00    -0.161 NA
BRANCH  21  22
ATOM     22  C   UNL     1       0.919 -10.254   0.000  0.00  0.00    +0.075 A 
ATOM     23  C   UNL     1       0.919 -11.079   0.000  0.00  0.00    +0.017 A 
ATOM     24  C   UNL     1       0.204 -11.492   0.000  0.00  0.00    +0.001 A 
ATOM     25  C   UNL     1      -0.510 -11.079   0.000  0.00  0.00    +0.000 A 
ATOM     26  C   UNL     1      -0.510 -10.254   0.000  0.00  0.00    +0.001 A 
ATOM     27  C   UNL     1       0.204  -9.841   0.000  0.00  0.00    +0.017 A 
ENDBRANCH  21  22
ENDBRANCH  17  18
ENDBRANCH  14  15
TORSDOF 5
