REMARK  Name = 
REMARK  7 active torsions:
REMARK  status: ('A' for Active; 'I' for Inactive)
REMARK    1  A    between atoms: C_2  and  N_4
REMARK    2  A    between atoms: N_7  and  C_8
REMARK    3  A    between atoms: C_8  and  C_9
REMARK    4  A    between atoms: C_11  and  C_12
REMARK    5  A    between atoms: C_12  and  C_13
REMARK    6  A    between atoms: N_15  and  C_16
REMARK    7  A    between atoms: C_16  and  C_17
REMARK                            x       y       z     vdW  Elec       q    Type
REMARK                         _______ _______ _______ _____ _____    ______ ____
ROOT
ATOM      9  C   UNL     1      -2.688   0.620   0.000  0.00  0.00    +0.170 C 
ATOM     10  O   UNL     1      -2.136   1.233   0.000  0.00  0.00    -0.351 OA
ATOM     11  C   UNL     1      -1.382   0.897   0.000  0.00  0.00    +0.157 C 
ATOM     19  C   UNL     1      -1.468   0.077   0.000  0.00  0.00    +0.212 C 
ATOM     20  O   UNL     1      -0.855  -0.475   0.000  0.00  0.00    -0.218 OA
ATOM     21  C   UNL     1      -2.275  -0.095   0.000  0.00  0.00    +0.213 C 
ATOM     22  O   UNL     1      -2.611  -0.848   0.000  0.00  0.00    -0.218 OA
ENDROOT
BRANCH   9   8
ATOM      8  C   UNL     1      -3.508   0.706   0.000  0.00  0.00    +0.149 C 
BRANCH   8   7
ATOM      4  N   UNL     1      -5.298  -0.542   0.000  0.00  0.00    -0.189 NA
ATOM      5  C   UNL     1      -4.814   0.125   0.000  0.00  0.00    +0.339 C 
ATOM      6  O   UNL     1      -5.149   0.879   0.000  0.00  0.00    -0.249 OA
ATOM      7  N   UNL     1      -3.993   0.039   0.000  0.00  0.00    -0.185 NA
BRANCH   4   2
ATOM      1  C   UNL     1      -6.604  -1.124   0.000  0.00  0.00    +0.023 C 
ATOM      2  C   UNL     1      -6.119  -0.456   0.000  0.00  0.00    +0.097 C 
ATOM      3  C   UNL     1      -6.455   0.297   0.000  0.00  0.00    +0.023 C 
ENDBRANCH   4   2
ENDBRANCH   8   7
ENDBRANCH   9   8
BRANCH  11  12
ATOM     12  C   UNL     1      -0.667   1.310   0.000  0.00  0.00    +0.119 C 
BRANCH  12  13
ATOM     13  C   UNL     1       0.047   0.897   0.000  0.00  0.00    +0.245 C 
ATOM     14  O   UNL     1       0.047   0.072   0.000  0.00  0.00    -0.273 OA
ATOM     15  N   UNL     1       0.761   1.310   0.000  0.00  0.00    -0.191 NA
BRANCH  15  16
ATOM     16  C   UNL     1       1.476   0.897   0.000  0.00  0.00    +0.191 C 
BRANCH  16  17
ATOM     17  C   UNL     1       2.190   1.310   0.000  0.00  0.00    -0.054 C 
ATOM     18  C   UNL     1       2.905   1.722   0.000  0.00  0.00    -0.012 C 
ENDBRANCH  16  17
ENDBRANCH  15  16
ENDBRANCH  12  13
ENDBRANCH  11  12
TORSDOF 7
