REMARK  Name = 
REMARK  3 active torsions:
REMARK  status: ('A' for Active; 'I' for Inactive)
REMARK    1  A    between atoms: O_2  and  C_3
REMARK    2  A    between atoms: C_8  and  N_9
REMARK    3  A    between atoms: C_21  and  C_22
REMARK                            x       y       z     vdW  Elec       q    Type
REMARK                         _______ _______ _______ _____ _____    ______ ____
ROOT
ATOM      9  N   UNL     1      -0.379  -2.183   0.000  0.00  0.00    -0.159 NA
ATOM     10  C   UNL     1       0.363  -2.764   0.000  0.00  0.00    +0.328 C 
ATOM     11  O   UNL     1       0.804  -3.516   0.000  0.00  0.00    -0.250 OA
ATOM     12  N   UNL     1       0.813  -2.091   0.000  0.00  0.00    -0.262 N 
ATOM     13  C   UNL     1       1.629  -1.912   0.000  0.00  0.00    +0.097 C 
ATOM     14  C   UNL     1       1.582  -0.925   0.000  0.00  0.00    +0.043 C 
ATOM     15  C   UNL     1       1.713  -0.121   0.000  0.00  0.00    +0.011 C 
ATOM     16  C   UNL     1       1.163  -0.557   0.000  0.00  0.00    +0.058 C 
ATOM     17  C   UNL     1       1.225  -1.510   0.000  0.00  0.00    +0.101 C 
ATOM     18  C   UNL     1       0.244  -0.558   0.000  0.00  0.00    +0.041 A 
ATOM     19  C   UNL     1      -0.397  -0.039   0.000  0.00  0.00    +0.013 A 
ATOM     20  C   UNL     1      -1.167  -0.335   0.000  0.00  0.00    +0.002 A 
ATOM     21  C   UNL     1      -1.296  -1.150   0.000  0.00  0.00    +0.034 A 
ATOM     28  C   UNL     1      -0.655  -1.669   0.000  0.00  0.00    +0.257 A 
ATOM     29  O   UNL     1      -0.524  -2.697   0.000  0.00  0.00    -0.267 OA
ATOM     30  N   UNL     1       0.115  -1.373   0.000  0.00  0.00    -0.299 N 
ATOM     31  C   UNL     1       0.622  -0.936   0.000  0.00  0.00    +0.110 C 
ENDROOT
BRANCH   9   8
ATOM      3  C   UNL     1      -1.875  -2.432   0.000  0.00  0.00    +0.154 A 
ATOM      4  C   UNL     1      -2.728  -2.723   0.000  0.00  0.00    +0.038 A 
ATOM      5  C   UNL     1      -2.677  -3.546   0.000  0.00  0.00    +0.003 A 
ATOM      6  C   UNL     1      -1.938  -3.914   0.000  0.00  0.00    +0.002 A 
ATOM      7  C   UNL     1      -1.251  -3.458   0.000  0.00  0.00    +0.020 A 
ATOM      8  C   UNL     1      -1.301  -2.635   0.000  0.00  0.00    +0.109 A 
BRANCH   3   2
ATOM      1  C   UNL     1      -2.831  -1.446   0.000  0.00  0.00    +0.253 C 
ATOM      2  O   UNL     1      -1.982  -1.805   0.000  0.00  0.00    -0.470 OA
ENDBRANCH   3   2
ENDBRANCH   9   8
BRANCH  21  22
ATOM     22  C   UNL     1      -2.066  -1.445   0.000  0.00  0.00    +0.027 C 
ATOM     23  C   UNL     1      -2.195  -2.260   0.000  0.00  0.00    +0.005 C 
ATOM     24  C   UNL     1      -2.965  -2.556   0.000  0.00  0.00    +0.000 C 
ATOM     25  C   UNL     1      -3.606  -2.037   0.000  0.00  0.00    +0.000 C 
ATOM     26  C   UNL     1      -3.478  -1.222   0.000  0.00  0.00    +0.000 C 
ATOM     27  C   UNL     1      -2.707  -0.926   0.000  0.00  0.00    +0.005 C 
ENDBRANCH  21  22
TORSDOF 3
