REMARK  Name = 
REMARK  6 active torsions:
REMARK  status: ('A' for Active; 'I' for Inactive)
REMARK    1  A    between atoms: C_4  and  C_19
REMARK    2  A    between atoms: C_5  and  N_6
REMARK    3  A    between atoms: C_7  and  C_9
REMARK    4  A    between atoms: C_9  and  O_10
REMARK    5  A    between atoms: O_10  and  C_11
REMARK    6  A    between atoms: C_22  and  C_25
REMARK                            x       y       z     vdW  Elec       q    Type
REMARK                         _______ _______ _______ _____ _____    ______ ____
ROOT
ATOM      1  O   UNL     1       0.122  -3.765   0.000  0.00  0.00    -0.220 OA
ATOM      2  C   UNL     1       0.458  -3.011   0.000  0.00  0.00    +0.184 C 
ATOM      3  C   UNL     1       0.045  -2.297   0.000  0.00  0.00    +0.042 C 
ATOM      4  C   UNL     1       0.597  -1.684   0.000  0.00  0.00    +0.049 C 
ATOM      5  C   UNL     1       1.351  -2.019   0.000  0.00  0.00    +0.132 C 
ATOM     17  C   UNL     1       1.264  -2.840   0.000  0.00  0.00    +0.202 C 
ATOM     18  O   UNL     1       1.877  -3.392   0.000  0.00  0.00    -0.219 OA
ENDROOT
BRANCH   4  19
ATOM     19  C   UNL     1       0.425  -0.877   0.000  0.00  0.00    -0.002 A 
ATOM     20  C   UNL     1      -0.359  -0.622   0.000  0.00  0.00    +0.095 A 
ATOM     21  N   UNL     1      -0.531   0.185   0.000  0.00  0.00    -0.240 NA
ATOM     22  C   UNL     1       0.082   0.737   0.000  0.00  0.00    +0.153 A 
ATOM     23  C   UNL     1       0.867   0.482   0.000  0.00  0.00    +0.023 A 
ATOM     24  C   UNL     1       1.039  -0.325   0.000  0.00  0.00    -0.001 A 
BRANCH  22  25
ATOM     25  C   UNL     1      -0.089   1.544   0.000  0.00  0.00    +0.435 C 
ATOM     26  F   UNL     1      -0.261   2.351   0.000  0.00  0.00    -0.164 F 
ATOM     27  F   UNL     1       0.718   1.716   0.000  0.00  0.00    -0.164 F 
ATOM     28  F   UNL     1      -0.896   1.372   0.000  0.00  0.00    -0.164 F 
ENDBRANCH  22  25
ENDBRANCH   4  19
BRANCH   5   6
ATOM      6  N   UNL     1       2.065  -1.607   0.000  0.00  0.00    -0.201 NA
ATOM      7  C   UNL     1       2.780  -2.019   0.000  0.00  0.00    +0.286 C 
ATOM      8  O   UNL     1       2.780  -2.845   0.000  0.00  0.00    -0.269 OA
BRANCH   7   9
ATOM      9  C   UNL     1       3.494  -1.607   0.000  0.00  0.00    +0.291 C 
BRANCH   9  10
ATOM     10  O   UNL     1       4.209  -2.019   0.000  0.00  0.00    -0.466 OA
BRANCH  10  11
ATOM     11  C   UNL     1       4.923  -1.607   0.000  0.00  0.00    +0.139 A 
ATOM     12  C   UNL     1       4.923  -0.782   0.000  0.00  0.00    +0.037 A 
ATOM     13  C   UNL     1       5.638  -0.369   0.000  0.00  0.00    +0.003 A 
ATOM     14  C   UNL     1       6.352  -0.782   0.000  0.00  0.00    +0.000 A 
ATOM     15  C   UNL     1       6.352  -1.607   0.000  0.00  0.00    +0.003 A 
ATOM     16  C   UNL     1       5.638  -2.019   0.000  0.00  0.00    +0.037 A 
ENDBRANCH  10  11
ENDBRANCH   9  10
ENDBRANCH   7   9
ENDBRANCH   5   6
TORSDOF 6
