REMARK  Name = 
REMARK  2 active torsions:
REMARK  status: ('A' for Active; 'I' for Inactive)
REMARK    1  A    between atoms: C_5  and  C_8
REMARK    2  A    between atoms: C_13  and  C_15
REMARK                            x       y       z     vdW  Elec       q    Type
REMARK                         _______ _______ _______ _____ _____    ______ ____
ROOT
ATOM      8  C   UNL     1      -3.390  -1.595   0.000  0.00  0.00    +0.249 C 
ATOM      9  O   UNL     1      -3.304  -2.416   0.000  0.00  0.00    -0.270 OA
ATOM     10  N   UNL     1      -2.723  -1.110   0.000  0.00  0.00    -0.276 N 
ATOM     11  C   UNL     1      -2.723  -0.285   0.000  0.00  0.00    +0.094 C 
ATOM     12  C   UNL     1      -1.938  -0.030   0.000  0.00  0.00    +0.031 C 
ATOM     13  C   UNL     1      -1.453  -0.698   0.000  0.00  0.00    +0.080 C 
ATOM     14  C   UNL     1      -1.938  -1.365   0.000  0.00  0.00    +0.101 C 
ENDROOT
BRANCH  13  15
ATOM     15  C   UNL     1      -0.628  -0.698   0.000  0.00  0.00    +0.140 A 
ATOM     16  N   UNL     1      -0.143  -1.365   0.000  0.00  0.00    -0.229 NA
ATOM     17  C   UNL     1       0.641  -1.110   0.000  0.00  0.00    +0.102 A 
ATOM     18  C   UNL     1       0.641  -0.285   0.000  0.00  0.00    +0.100 A 
ATOM     19  N   UNL     1      -0.143  -0.030   0.000  0.00  0.00    -0.229 NA
ATOM     20  C   UNL     1       1.356   0.127   0.000  0.00  0.00    +0.023 A 
ATOM     21  C   UNL     1       2.070  -0.285   0.000  0.00  0.00    +0.031 A 
ATOM     22  C   UNL     1       2.070  -1.110   0.000  0.00  0.00    +0.142 A 
ATOM     23  F   UNL     1       2.784  -1.523   0.000  0.00  0.00    -0.204 F 
ATOM     24  C   UNL     1       1.356  -1.523   0.000  0.00  0.00    +0.050 A 
ENDBRANCH  13  15
BRANCH   8   5
ATOM      1  F   UNL     1      -6.405  -0.253   0.000  0.00  0.00    -0.204 F 
ATOM      2  C   UNL     1      -5.651  -0.589   0.000  0.00  0.00    +0.140 A 
ATOM      3  C   UNL     1      -4.984  -0.104   0.000  0.00  0.00    +0.030 A 
ATOM      4  C   UNL     1      -4.230  -0.439   0.000  0.00  0.00    +0.007 A 
ATOM      5  C   UNL     1      -4.144  -1.260   0.000  0.00  0.00    +0.054 A 
ATOM      6  C   UNL     1      -4.811  -1.745   0.000  0.00  0.00    +0.007 A 
ATOM      7  C   UNL     1      -5.565  -1.409   0.000  0.00  0.00    +0.030 A 
ENDBRANCH   8   5
TORSDOF 2
