REMARK  Name = 
REMARK  5 active torsions:
REMARK  status: ('A' for Active; 'I' for Inactive)
REMARK    1  A    between atoms: C_2  and  N_3
REMARK    2  A    between atoms: C_2  and  C_25
REMARK    3  A    between atoms: C_4  and  C_6
REMARK    4  A    between atoms: C_13  and  N_15
REMARK    5  A    between atoms: N_18  and  C_19
REMARK                            x       y       z     vdW  Elec       q    Type
REMARK                         _______ _______ _______ _____ _____    ______ ____
ROOT
ATOM      6  C   UNL     1      -4.201  -4.614   0.000  0.00  0.00    +0.200 C 
ATOM      7  O   UNL     1      -4.483  -3.838   0.000  0.00  0.00    -0.216 OA
ATOM      8  C   UNL     1      -3.670  -5.246   0.000  0.00  0.00    +0.075 C 
ATOM      9  C   UNL     1      -3.953  -6.021   0.000  0.00  0.00    +0.187 C 
ATOM     10  O   UNL     1      -3.422  -6.653   0.000  0.00  0.00    -0.220 OA
ATOM     11  C   UNL     1      -4.765  -6.164   0.000  0.00  0.00    +0.202 C 
ATOM     12  O   UNL     1      -5.047  -6.939   0.000  0.00  0.00    -0.219 OA
ATOM     13  C   UNL     1      -5.295  -5.532   0.000  0.00  0.00    +0.133 C 
ATOM     14  C   UNL     1      -5.013  -4.757   0.000  0.00  0.00    +0.064 C 
ENDROOT
BRANCH  13  15
ATOM     15  N   UNL     1      -6.108  -5.676   0.000  0.00  0.00    -0.186 NA
ATOM     16  C   UNL     1      -6.390  -6.451   0.000  0.00  0.00    +0.339 C 
ATOM     17  O   UNL     1      -5.860  -7.083   0.000  0.00  0.00    -0.249 OA
ATOM     18  N   UNL     1      -7.202  -6.594   0.000  0.00  0.00    -0.189 NA
BRANCH  18  19
ATOM     19  C   UNL     1      -7.484  -7.369   0.000  0.00  0.00    +0.097 C 
ATOM     20  C   UNL     1      -6.954  -8.001   0.000  0.00  0.00    +0.022 C 
ATOM     21  C   UNL     1      -7.236  -8.777   0.000  0.00  0.00    +0.002 C 
ATOM     22  C   UNL     1      -8.049  -8.920   0.000  0.00  0.00    +0.000 C 
ATOM     23  C   UNL     1      -8.579  -8.288   0.000  0.00  0.00    +0.002 C 
ATOM     24  C   UNL     1      -8.297  -7.513   0.000  0.00  0.00    +0.022 C 
ENDBRANCH  18  19
ENDBRANCH  13  15
BRANCH   6   4
ATOM      3  N   UNL     1      -2.772  -4.614   0.000  0.00  0.00    -0.196 NA
ATOM      4  C   UNL     1      -3.486  -4.201   0.000  0.00  0.00    +0.269 C 
ATOM      5  O   UNL     1      -3.486  -3.376   0.000  0.00  0.00    -0.271 OA
BRANCH   3   2
ATOM      1  C   UNL     1      -2.057  -3.376   0.000  0.00  0.00    +0.033 C 
ATOM      2  C   UNL     1      -2.057  -4.201   0.000  0.00  0.00    +0.175 C 
BRANCH   2  25
ATOM     25  C   UNL     1      -1.343  -4.614   0.000  0.00  0.00    +0.281 C 
ATOM     26  N   UNL     1      -0.628  -4.201   0.000  0.00  0.00    -0.086 NA
ATOM     27  O   UNL     1      -1.343  -5.439   0.000  0.00  0.00    -0.270 OA
ENDBRANCH   2  25
ENDBRANCH   3   2
ENDBRANCH   6   4
TORSDOF 5
