REMARK  Name = 
REMARK  5 active torsions:
REMARK  status: ('A' for Active; 'I' for Inactive)
REMARK    1  A    between atoms: C_2  and  C_3
REMARK    2  A    between atoms: C_3  and  N_4
REMARK    3  A    between atoms: N_7  and  C_8
REMARK    4  A    between atoms: C_12  and  N_16
REMARK    5  A    between atoms: C_19  and  C_23
REMARK                            x       y       z     vdW  Elec       q    Type
REMARK                         _______ _______ _______ _____ _____    ______ ____
ROOT
ATOM      8  C   UNL     1       9.136   1.354   0.000  0.00  0.00    +0.156 C 
ATOM      9  C   UNL     1       9.222   2.174   0.000  0.00  0.00    +0.166 C 
ATOM     10  O   UNL     1      10.029   2.346   0.000  0.00  0.00    -0.350 OA
ATOM     11  C   UNL     1      10.442   1.631   0.000  0.00  0.00    +0.166 C 
ATOM     12  C   UNL     1      11.196   1.296   0.000  0.00  0.00    +0.154 C 
ATOM     13  C   UNL     1      11.109   0.475   0.000  0.00  0.00    +0.166 C 
ATOM     14  O   UNL     1      10.302   0.304   0.000  0.00  0.00    -0.350 OA
ATOM     15  C   UNL     1       9.890   1.018   0.000  0.00  0.00    +0.166 C 
ENDROOT
BRANCH  12  16
ATOM     16  N   UNL     1      11.910   1.708   0.000  0.00  0.00    -0.200 NA
ATOM     17  C   UNL     1      12.624   1.296   0.000  0.00  0.00    +0.237 A 
ATOM     18  N   UNL     1      13.339   1.708   0.000  0.00  0.00    -0.209 NA
ATOM     19  C   UNL     1      14.053   1.296   0.000  0.00  0.00    +0.120 A 
ATOM     20  C   UNL     1      14.053   0.471   0.000  0.00  0.00    +0.043 A 
ATOM     21  C   UNL     1      13.339   0.058   0.000  0.00  0.00    +0.104 A 
ATOM     22  N   UNL     1      12.624   0.471   0.000  0.00  0.00    -0.211 NA
BRANCH  19  23
ATOM     23  C   UNL     1      14.768   1.708   0.000  0.00  0.00    +0.163 A 
ATOM     24  C   UNL     1      14.854   2.529   0.000  0.00  0.00    +0.042 A 
ATOM     25  C   UNL     1      15.661   2.700   0.000  0.00  0.00    +0.044 A 
ATOM     26  C   UNL     1      16.074   1.986   0.000  0.00  0.00    +0.180 A 
ATOM     27  O   UNL     1      15.522   1.373   0.000  0.00  0.00    -0.449 OA
ENDBRANCH  19  23
ENDBRANCH  12  16
BRANCH   8   7
ATOM      4  N   UNL     1       6.993   0.941   0.000  0.00  0.00    -0.182 NA
ATOM      5  C   UNL     1       7.707   1.354   0.000  0.00  0.00    +0.340 C 
ATOM      6  O   UNL     1       7.707   2.179   0.000  0.00  0.00    -0.249 OA
ATOM      7  N   UNL     1       8.422   0.941   0.000  0.00  0.00    -0.184 NA
BRANCH   4   3
ATOM      3  C   UNL     1       6.278   1.354   0.000  0.00  0.00    +0.143 C 
BRANCH   3   2
ATOM      1  C   UNL     1       4.849   1.354   0.000  0.00  0.00    -0.003 C 
ATOM      2  C   UNL     1       5.564   0.941   0.000  0.00  0.00    -0.003 C 
ENDBRANCH   3   2
ENDBRANCH   4   3
ENDBRANCH   8   7
TORSDOF 5
