REMARK  Name = 
REMARK  8 active torsions:
REMARK  status: ('A' for Active; 'I' for Inactive)
REMARK    1  A    between atoms: O_2  and  C_3
REMARK    2  A    between atoms: C_6  and  C_7
REMARK    3  A    between atoms: C_8  and  C_9
REMARK    4  A    between atoms: C_18  and  N_25
REMARK    5  A    between atoms: C_26  and  C_28
REMARK    6  A    between atoms: C_28  and  C_29
REMARK    7  A    between atoms: C_29  and  C_32
REMARK    8  A    between atoms: C_32  and  C_33
REMARK                            x       y       z     vdW  Elec       q    Type
REMARK                         _______ _______ _______ _____ _____    ______ ____
ROOT
ATOM      9  C   UNL     1       0.595  -1.673   0.000  0.00  0.00    +0.000 A 
ATOM     10  C   UNL     1       0.421  -0.867   0.000  0.00  0.00    +0.001 A 
ATOM     11  C   UNL     1       1.032  -0.313   0.000  0.00  0.00    +0.017 A 
ATOM     12  C   UNL     1       1.817  -0.565   0.000  0.00  0.00    +0.078 A 
ATOM     13  N   UNL     1       2.339   0.074   0.000  0.00  0.00    -0.178 NA
ATOM     14  C   UNL     1       3.164   0.065   0.000  0.00  0.00    +0.264 C 
ATOM     15  O   UNL     1       3.530   0.804   0.000  0.00  0.00    -0.271 OA
ATOM     16  C   UNL     1       3.671  -0.586   0.000  0.00  0.00    +0.156 C 
ATOM     17  C   UNL     1       4.493  -0.521   0.000  0.00  0.00    +0.053 C 
ATOM     18  C   UNL     1       4.809  -1.283   0.000  0.00  0.00    +0.117 C 
ATOM     19  C   UNL     1       4.182  -1.819   0.000  0.00  0.00    +0.116 C 
ATOM     20  N   UNL     1       3.478  -1.388   0.000  0.00  0.00    -0.268 N 
ATOM     21  C   UNL     1       2.731  -1.737   0.000  0.00  0.00    +0.251 C 
ATOM     22  O   UNL     1       2.722  -2.562   0.000  0.00  0.00    -0.270 OA
ATOM     23  C   UNL     1       1.992  -1.371   0.000  0.00  0.00    +0.069 A 
ATOM     24  C   UNL     1       1.381  -1.925   0.000  0.00  0.00    +0.006 A 
ENDROOT
BRANCH  18  25
ATOM     25  N   UNL     1       5.611  -1.476   0.000  0.00  0.00    -0.205 NA
ATOM     26  C   UNL     1       6.179  -0.877   0.000  0.00  0.00    +0.241 C 
ATOM     27  O   UNL     1       5.945  -0.086   0.000  0.00  0.00    -0.273 OA
BRANCH  26  28
ATOM     28  C   UNL     1       6.981  -1.070   0.000  0.00  0.00    +0.087 C 
BRANCH  28  29
ATOM     29  C   UNL     1       7.549  -0.471   0.000  0.00  0.00    +0.019 C 
ATOM     30  C   UNL     1       8.148  -1.039   0.000  0.00  0.00    +0.001 C 
ATOM     31  C   UNL     1       6.951   0.097   0.000  0.00  0.00    +0.001 C 
BRANCH  29  32
ATOM     32  C   UNL     1       8.117   0.127   0.000  0.00  0.00    +0.115 C 
BRANCH  32  33
ATOM     33  C   UNL     1       8.919  -0.065   0.000  0.00  0.00    +0.365 C 
ATOM     34  O   UNL     1       9.487   0.533   0.000  0.00  0.00    -0.246 OA
ATOM     35  O   UNL     1       9.154  -0.856   0.000  0.00  0.00    -0.246 OA
ENDBRANCH  32  33
ENDBRANCH  29  32
ENDBRANCH  28  29
ENDBRANCH  26  28
ENDBRANCH  18  25
BRANCH   9   8
ATOM      7  C   UNL     1      -0.801  -1.976   0.000  0.00  0.00    +0.000 C 
ATOM      8  C   UNL     1      -0.016  -2.228   0.000  0.00  0.00    +0.000 C 
BRANCH   7   6
ATOM      3  C   UNL     1      -2.634  -3.639   0.000  0.00  0.00    +0.139 A 
ATOM      4  C   UNL     1      -2.809  -2.833   0.000  0.00  0.00    +0.037 A 
ATOM      5  C   UNL     1      -2.198  -2.278   0.000  0.00  0.00    +0.003 A 
ATOM      6  C   UNL     1      -1.412  -2.530   0.000  0.00  0.00    +0.000 A 
ATOM     36  C   UNL     1      -1.238  -3.337   0.000  0.00  0.00    +0.003 A 
ATOM     37  C   UNL     1      -1.849  -3.891   0.000  0.00  0.00    +0.037 A 
BRANCH   3   2
ATOM      1  C   UNL     1      -3.071  -5.000   0.000  0.00  0.00    +0.252 C 
ATOM      2  O   UNL     1      -3.245  -4.193   0.000  0.00  0.00    -0.471 OA
ENDBRANCH   3   2
ENDBRANCH   7   6
ENDBRANCH   9   8
TORSDOF 8
