REMARK  Name = 
REMARK  9 active torsions:
REMARK  status: ('A' for Active; 'I' for Inactive)
REMARK    1  A    between atoms: C_2  and  C_4
REMARK    2  A    between atoms: C_6  and  C_7
REMARK    3  A    between atoms: C_7  and  C_8
REMARK    4  A    between atoms: C_11  and  C_13
REMARK    5  A    between atoms: C_20  and  C_21
REMARK    6  A    between atoms: C_21  and  N_22
REMARK    7  A    between atoms: N_22  and  C_23
REMARK    8  A    between atoms: C_23  and  C_24
REMARK    9  A    between atoms: C_24  and  N_25
REMARK                            x       y       z     vdW  Elec       q    Type
REMARK                         _______ _______ _______ _____ _____    ______ ____
ROOT
ATOM      4  C   UNL     1      -0.715  -2.888   0.000  0.00  0.00    +0.006 C 
ATOM      5  C   UNL     1      -1.429  -2.475   0.000  0.00  0.00    +0.005 C 
ATOM      6  C   UNL     1      -1.429  -1.650   0.000  0.00  0.00    +0.027 C 
ATOM     17  C   UNL     1      -0.715  -1.238   0.000  0.00  0.00    -0.048 C 
ATOM     18  C   UNL     1      -0.715  -0.412   0.000  0.00  0.00    +0.026 C 
ATOM     19  C   UNL     1       0.000  -1.650   0.000  0.00  0.00    -0.033 C 
ATOM     20  C   UNL     1       0.000  -2.475   0.000  0.00  0.00    +0.039 C 
ENDROOT
BRANCH   4   2
ATOM      1  C   UNL     1       0.000  -4.125   0.000  0.00  0.00    +0.000 C 
ATOM      2  C   UNL     1      -0.715  -3.712   0.000  0.00  0.00    +0.000 C 
ATOM      3  C   UNL     1      -1.429  -4.125   0.000  0.00  0.00    +0.000 C 
ENDBRANCH   4   2
BRANCH   6   7
ATOM      7  C   UNL     1      -2.143  -1.238   0.000  0.00  0.00    +0.091 C 
BRANCH   7   8
ATOM      8  C   UNL     1      -2.143  -0.412   0.000  0.00  0.00    +0.226 A 
ATOM      9  N   UNL     1      -2.811   0.072   0.000  0.00  0.00    -0.112 NA
ATOM     10  N   UNL     1      -2.556   0.857   0.000  0.00  0.00    -0.112 NA
ATOM     11  C   UNL     1      -1.731   0.857   0.000  0.00  0.00    +0.225 A 
ATOM     12  O   UNL     1      -1.476   0.072   0.000  0.00  0.00    -0.423 OA
BRANCH  11  13
ATOM     13  C   UNL     1      -1.246   1.524   0.000  0.00  0.00    +0.070 C 
ATOM     14  C   UNL     1      -0.761   2.192   0.000  0.00  0.00    +0.009 C 
ATOM     15  C   UNL     1      -1.913   2.009   0.000  0.00  0.00    +0.009 C 
ATOM     16  C   UNL     1      -0.579   1.040   0.000  0.00  0.00    +0.009 C 
ENDBRANCH  11  13
ENDBRANCH   7   8
ENDBRANCH   6   7
BRANCH  20  21
ATOM     21  C   UNL     1       0.715  -2.888   0.000  0.00  0.00    +0.093 C 
BRANCH  21  22
ATOM     22  N   UNL     1       1.429  -2.475   0.000  0.00  0.00    -0.216 NA
BRANCH  22  23
ATOM     23  C   UNL     1       2.143  -2.888   0.000  0.00  0.00    +0.106 C 
BRANCH  23  24
ATOM     24  C   UNL     1       2.858  -2.475   0.000  0.00  0.00    +0.091 C 
BRANCH  24  25
ATOM     25  N   UNL     1       3.572  -2.888   0.000  0.00  0.00    -0.267 NA
ATOM     26  C   UNL     1       4.287  -2.475   0.000  0.00  0.00    +0.105 C 
ATOM     27  C   UNL     1       5.001  -2.888   0.000  0.00  0.00    +0.159 C 
ATOM     28  O   UNL     1       5.001  -3.712   0.000  0.00  0.00    -0.351 OA
ATOM     29  C   UNL     1       4.287  -4.125   0.000  0.00  0.00    +0.159 C 
ATOM     30  C   UNL     1       3.572  -3.712   0.000  0.00  0.00    +0.105 C 
ENDBRANCH  24  25
ENDBRANCH  23  24
ENDBRANCH  22  23
ENDBRANCH  21  22
ENDBRANCH  20  21
TORSDOF 9
