REMARK  Name = 
REMARK  6 active torsions:
REMARK  status: ('A' for Active; 'I' for Inactive)
REMARK    1  A    between atoms: O_2  and  C_3
REMARK    2  A    between atoms: C_5  and  N_6
REMARK    3  A    between atoms: C_7  and  O_9
REMARK    4  A    between atoms: O_9  and  C_10
REMARK    5  A    between atoms: C_14  and  N_18
REMARK    6  A    between atoms: C_21  and  C_25
REMARK                            x       y       z     vdW  Elec       q    Type
REMARK                         _______ _______ _______ _____ _____    ______ ____
ROOT
ATOM     10  C   UNL     1       1.270  -0.922   0.000  0.00  0.00    +0.229 C 
ATOM     11  C   UNL     1       0.785  -0.255   0.000  0.00  0.00    +0.188 C 
ATOM     12  O   UNL     1       1.270   0.412   0.000  0.00  0.00    -0.348 OA
ATOM     13  C   UNL     1       2.054   0.158   0.000  0.00  0.00    +0.168 C 
ATOM     14  C   UNL     1       2.839   0.412   0.000  0.00  0.00    +0.155 C 
ATOM     15  C   UNL     1       3.324  -0.255   0.000  0.00  0.00    +0.166 C 
ATOM     16  O   UNL     1       2.839  -0.922   0.000  0.00  0.00    -0.348 OA
ATOM     17  C   UNL     1       2.054  -0.667   0.000  0.00  0.00    +0.186 C 
ENDROOT
BRANCH  14  18
ATOM     18  N   UNL     1       3.094   1.197   0.000  0.00  0.00    -0.200 NA
ATOM     19  C   UNL     1       3.901   1.369   0.000  0.00  0.00    +0.236 A 
ATOM     20  N   UNL     1       4.156   2.153   0.000  0.00  0.00    -0.217 NA
ATOM     21  C   UNL     1       4.963   2.325   0.000  0.00  0.00    +0.063 A 
ATOM     22  C   UNL     1       5.515   1.712   0.000  0.00  0.00    +0.035 A 
ATOM     23  C   UNL     1       5.260   0.927   0.000  0.00  0.00    +0.103 A 
ATOM     24  N   UNL     1       4.453   0.756   0.000  0.00  0.00    -0.211 NA
BRANCH  21  25
ATOM     25  C   UNL     1       5.218   3.109   0.000  0.00  0.00    +0.036 C 
ATOM     26  C   UNL     1       5.473   3.894   0.000  0.00  0.00    +0.006 C 
ATOM     27  C   UNL     1       6.002   2.854   0.000  0.00  0.00    +0.006 C 
ATOM     28  C   UNL     1       4.433   3.364   0.000  0.00  0.00    +0.006 C 
ENDBRANCH  21  25
ENDBRANCH  14  18
BRANCH  10   9
ATOM      9  O   UNL     1       1.015  -1.707   0.000  0.00  0.00    -0.432 OA
BRANCH   9   7
ATOM      6  N   UNL     1      -0.047  -2.663   0.000  0.00  0.00    -0.142 NA
ATOM      7  C   UNL     1       0.208  -1.879   0.000  0.00  0.00    +0.425 C 
ATOM      8  O   UNL     1      -0.344  -1.265   0.000  0.00  0.00    -0.224 OA
BRANCH   6   5
ATOM      3  C   UNL     1      -2.213  -2.393   0.000  0.00  0.00    +0.140 A 
ATOM      4  C   UNL     1      -1.406  -2.222   0.000  0.00  0.00    +0.054 A 
ATOM      5  C   UNL     1      -0.854  -2.835   0.000  0.00  0.00    +0.080 A 
ATOM     29  C   UNL     1      -1.109  -3.619   0.000  0.00  0.00    +0.017 A 
ATOM     30  C   UNL     1      -1.916  -3.791   0.000  0.00  0.00    +0.004 A 
ATOM     31  C   UNL     1      -2.468  -3.178   0.000  0.00  0.00    +0.037 A 
BRANCH   3   2
ATOM      1  C   UNL     1      -3.572  -1.952   0.000  0.00  0.00    +0.252 C 
ATOM      2  O   UNL     1      -2.765  -1.780   0.000  0.00  0.00    -0.471 OA
ENDBRANCH   3   2
ENDBRANCH   6   5
ENDBRANCH   9   7
ENDBRANCH  10   9
TORSDOF 6
