REMARK  Name = 
REMARK  7 active torsions:
REMARK  status: ('A' for Active; 'I' for Inactive)
REMARK    1  A    between atoms: O_2  and  C_3
REMARK    2  A    between atoms: C_3  and  C_5
REMARK    3  A    between atoms: C_5  and  C_6
REMARK    4  A    between atoms: C_5  and  N_13
REMARK    5  A    between atoms: C_6  and  C_7
REMARK    6  A    between atoms: C_14  and  C_16
REMARK    7  A    between atoms: N_24  and  C_25
REMARK                            x       y       z     vdW  Elec       q    Type
REMARK                         _______ _______ _______ _____ _____    ______ ____
ROOT
ATOM     13  N   UNL     1       4.508  -2.475   0.000  0.00  0.00    -0.194 NA
ATOM     14  C   UNL     1       5.333  -2.475   0.000  0.00  0.00    +0.261 C 
ATOM     15  O   UNL     1       5.745  -1.760   0.000  0.00  0.00    -0.271 OA
ENDROOT
BRANCH  14  16
ATOM     16  C   UNL     1       5.745  -3.189   0.000  0.00  0.00    +0.172 C 
ATOM     17  C   UNL     1       6.570  -3.189   0.000  0.00  0.00    +0.118 C 
ATOM     18  N   UNL     1       6.983  -3.904   0.000  0.00  0.00    -0.214 NA
ATOM     19  C   UNL     1       6.570  -4.618   0.000  0.00  0.00    +0.110 C 
ATOM     20  C   UNL     1       5.745  -4.618   0.000  0.00  0.00    +0.114 C 
ATOM     21  N   UNL     1       5.333  -3.904   0.000  0.00  0.00    -0.253 N 
ATOM     22  C   UNL     1       4.508  -3.904   0.000  0.00  0.00    +0.324 C 
ATOM     23  O   UNL     1       4.095  -3.189   0.000  0.00  0.00    -0.251 OA
ATOM     24  N   UNL     1       4.095  -4.618   0.000  0.00  0.00    -0.190 NA
BRANCH  24  25
ATOM     25  C   UNL     1       3.270  -4.618   0.000  0.00  0.00    +0.097 C 
ATOM     26  C   UNL     1       2.858  -5.333   0.000  0.00  0.00    +0.023 C 
ATOM     27  C   UNL     1       2.858  -3.904   0.000  0.00  0.00    +0.023 C 
ENDBRANCH  24  25
ENDBRANCH  14  16
BRANCH  13   5
ATOM      5  C   UNL     1       4.095  -1.760   0.000  0.00  0.00    +0.198 C 
BRANCH   5   3
ATOM      3  C   UNL     1       3.270  -1.760   0.000  0.00  0.00    +0.337 C 
ATOM      4  O   UNL     1       2.858  -1.046   0.000  0.00  0.00    -0.248 OA
BRANCH   3   2
ATOM      1  C   UNL     1       2.033  -2.475   0.000  0.00  0.00    +0.256 C 
ATOM      2  O   UNL     1       2.858  -2.475   0.000  0.00  0.00    -0.443 OA
ENDBRANCH   3   2
ENDBRANCH   5   3
BRANCH   5   6
ATOM      6  C   UNL     1       4.508  -1.046   0.000  0.00  0.00    +0.061 C 
BRANCH   6   7
ATOM      7  C   UNL     1       4.095  -0.332   0.000  0.00  0.00    -0.001 A 
ATOM      8  C   UNL     1       3.270  -0.332   0.000  0.00  0.00    -0.001 A 
ATOM      9  C   UNL     1       2.858   0.383   0.000  0.00  0.00    +0.020 A 
ATOM     10  C   UNL     1       3.270   1.097   0.000  0.00  0.00    +0.099 A 
ATOM     11  N   UNL     1       4.095   1.097   0.000  0.00  0.00    -0.243 NA
ATOM     12  C   UNL     1       4.508   0.383   0.000  0.00  0.00    +0.095 A 
ENDBRANCH   6   7
ENDBRANCH   5   6
ENDBRANCH  13   5
TORSDOF 7
