REMARK  Name = 
REMARK  5 active torsions:
REMARK  status: ('A' for Active; 'I' for Inactive)
REMARK    1  A    between atoms: O_2  and  C_3
REMARK    2  A    between atoms: C_6  and  S_9
REMARK    3  A    between atoms: S_9  and  N_12
REMARK    4  A    between atoms: C_17  and  O_19
REMARK    5  A    between atoms: O_19  and  C_20
REMARK                            x       y       z     vdW  Elec       q    Type
REMARK                         _______ _______ _______ _____ _____    ______ ____
ROOT
ATOM     12  N   UNL     1       0.094  -5.402   0.000  0.00  0.00    -0.149 NA
ATOM     13  C   UNL     1       0.838  -5.760   0.000  0.00  0.00    +0.128 C 
ATOM     14  C   UNL     1       1.021  -6.565   0.000  0.00  0.00    +0.161 C 
ATOM     15  O   UNL     1       0.507  -7.210   0.000  0.00  0.00    -0.348 OA
ATOM     16  C   UNL     1      -0.318  -7.210   0.000  0.00  0.00    +0.187 C 
ATOM     17  C   UNL     1      -0.833  -6.565   0.000  0.00  0.00    +0.215 C 
ATOM     18  C   UNL     1      -0.649  -5.760   0.000  0.00  0.00    +0.142 C 
ENDROOT
BRANCH  12   9
ATOM      9  S   UNL     1       0.094  -4.577   0.000  0.00  0.00    +0.063 S 
ATOM     10  O   UNL     1      -0.731  -4.577   0.000  0.00  0.00    -0.153 OA
ATOM     11  O   UNL     1       0.919  -4.577   0.000  0.00  0.00    -0.153 OA
BRANCH   9   6
ATOM      3  C   UNL     1       0.094  -2.102   0.000  0.00  0.00    +0.139 A 
ATOM      4  C   UNL     1       0.809  -2.515   0.000  0.00  0.00    +0.038 A 
ATOM      5  C   UNL     1       0.809  -3.340   0.000  0.00  0.00    +0.023 A 
ATOM      6  C   UNL     1       0.094  -3.752   0.000  0.00  0.00    +0.122 A 
ATOM      7  C   UNL     1      -0.620  -3.340   0.000  0.00  0.00    +0.023 A 
ATOM      8  C   UNL     1      -0.620  -2.515   0.000  0.00  0.00    +0.038 A 
BRANCH   3   2
ATOM      1  C   UNL     1      -0.620  -0.865   0.000  0.00  0.00    +0.252 C 
ATOM      2  O   UNL     1       0.094  -1.277   0.000  0.00  0.00    -0.471 OA
ENDBRANCH   3   2
ENDBRANCH   9   6
ENDBRANCH  12   9
BRANCH  17  19
ATOM     19  O   UNL     1      -1.637  -6.748   0.000  0.00  0.00    -0.459 OA
BRANCH  19  20
ATOM     20  C   UNL     1      -2.198  -6.143   0.000  0.00  0.00    +0.245 A 
ATOM     21  C   UNL     1      -3.002  -6.327   0.000  0.00  0.00    +0.156 A 
ATOM     22  N   UNL     1      -3.563  -5.722   0.000  0.00  0.00    -0.236 NA
ATOM     23  C   UNL     1      -3.320  -4.934   0.000  0.00  0.00    +0.120 A 
ATOM     24  C   UNL     1      -2.516  -4.750   0.000  0.00  0.00    +0.123 A 
ATOM     25  N   UNL     1      -1.955  -5.355   0.000  0.00  0.00    -0.207 NA
ENDBRANCH  19  20
ENDBRANCH  17  19
TORSDOF 5
