REMARK  Name = 
REMARK  6 active torsions:
REMARK  status: ('A' for Active; 'I' for Inactive)
REMARK    1  A    between atoms: O_2  and  C_3
REMARK    2  A    between atoms: C_8  and  C_9
REMARK    3  A    between atoms: C_9  and  N_10
REMARK    4  A    between atoms: N_10  and  C_11
REMARK    5  A    between atoms: C_17  and  N_20
REMARK    6  A    between atoms: N_23  and  C_26
REMARK                            x       y       z     vdW  Elec       q    Type
REMARK                         _______ _______ _______ _____ _____    ______ ____
ROOT
ATOM     11  C   UNL     1       1.989  -0.542   0.000  0.00  0.00    +0.135 C 
ATOM     12  C   UNL     1       1.060  -0.557   0.000  0.00  0.00    +0.166 C 
ATOM     13  C   UNL     1       0.740  -1.266   0.000  0.00  0.00    +0.176 C 
ATOM     14  O   UNL     1       0.120  -1.643   0.000  0.00  0.00    -0.327 OA
ATOM     15  C   UNL     1       0.640  -0.930   0.000  0.00  0.00    +0.253 C 
ATOM     16  O   UNL     1       0.500  -0.117   0.000  0.00  0.00    -0.328 OA
ATOM     17  C   UNL     1       1.611  -0.930   0.000  0.00  0.00    +0.147 C 
ATOM     18  C   UNL     1       2.127  -1.359   0.000  0.00  0.00    +0.190 C 
ATOM     19  O   UNL     1       2.539  -2.074   0.000  0.00  0.00    -0.220 OA
ENDROOT
BRANCH  17  20
ATOM     20  N   UNL     1       1.331  -1.706   0.000  0.00  0.00    -0.265 NA
ATOM     21  C   UNL     1       1.863  -2.337   0.000  0.00  0.00    +0.094 C 
ATOM     22  C   UNL     1       1.583  -3.113   0.000  0.00  0.00    +0.108 C 
ATOM     23  N   UNL     1       0.771  -3.258   0.000  0.00  0.00    -0.305 N 
ATOM     24  C   UNL     1       0.239  -2.628   0.000  0.00  0.00    +0.108 C 
ATOM     25  C   UNL     1       0.519  -1.852   0.000  0.00  0.00    +0.094 C 
BRANCH  23  26
ATOM     26  C   UNL     1       0.490  -4.034   0.000  0.00  0.00    +0.048 A 
ATOM     27  C   UNL     1       1.022  -4.665   0.000  0.00  0.00    +0.015 A 
ATOM     28  C   UNL     1       0.742  -5.441   0.000  0.00  0.00    +0.001 A 
ATOM     29  C   UNL     1      -0.070  -5.586   0.000  0.00  0.00    +0.000 A 
ATOM     30  C   UNL     1      -0.602  -4.955   0.000  0.00  0.00    +0.001 A 
ATOM     31  C   UNL     1      -0.322  -4.180   0.000  0.00  0.00    +0.015 A 
ENDBRANCH  23  26
ENDBRANCH  17  20
BRANCH  11  10
ATOM     10  N   UNL     1       2.517   0.093   0.000  0.00  0.00    -0.209 NA
BRANCH  10   9
ATOM      9  C   UNL     1       2.231   0.867   0.000  0.00  0.00    +0.118 C 
BRANCH   9   8
ATOM      3  C   UNL     1       2.472   2.275   0.000  0.00  0.00    +0.136 A 
ATOM      4  C   UNL     1       2.999   2.910   0.000  0.00  0.00    +0.037 A 
ATOM      5  C   UNL     1       3.812   2.770   0.000  0.00  0.00    +0.003 A 
ATOM      6  C   UNL     1       4.098   1.996   0.000  0.00  0.00    -0.000 A 
ATOM      7  C   UNL     1       3.571   1.362   0.000  0.00  0.00    +0.000 A 
ATOM      8  C   UNL     1       2.758   1.501   0.000  0.00  0.00    +0.029 A 
BRANCH   3   2
ATOM      1  C   UNL     1       1.373   3.188   0.000  0.00  0.00    +0.252 C 
ATOM      2  O   UNL     1       1.659   2.414   0.000  0.00  0.00    -0.472 OA
ENDBRANCH   3   2
ENDBRANCH   9   8
ENDBRANCH  10   9
ENDBRANCH  11  10
TORSDOF 6
