REMARK  Name = 
REMARK  11 active torsions:
REMARK  status: ('A' for Active; 'I' for Inactive)
REMARK    1  A    between atoms: O_2  and  C_3
REMARK    2  A    between atoms: C_6  and  C_7
REMARK    3  A    between atoms: C_7  and  C_8
REMARK    4  A    between atoms: C_8  and  N_9
REMARK    5  A    between atoms: C_8  and  C_33
REMARK    6  A    between atoms: C_10  and  C_12
REMARK    7  A    between atoms: C_14  and  N_15
REMARK    8  A    between atoms: C_16  and  C_18
REMARK    9  A    between atoms: C_18  and  C_19
REMARK   10  A    between atoms: C_19  and  C_20
REMARK   11  A    between atoms: C_20  and  C_21
REMARK                            x       y       z     vdW  Elec       q    Type
REMARK                         _______ _______ _______ _____ _____    ______ ____
ROOT
ATOM     12  C   UNL     1       0.715  -2.888   0.000  0.00  0.00    +0.033 C 
ATOM     13  C   UNL     1       0.715  -3.712   0.000  0.00  0.00    -0.002 C 
ATOM     14  C   UNL     1       0.000  -4.125   0.000  0.00  0.00    +0.150 C 
ATOM     28  C   UNL     1      -0.715  -3.712   0.000  0.00  0.00    +0.206 C 
ATOM     29  O   UNL     1      -1.429  -4.125   0.000  0.00  0.00    -0.218 OA
ATOM     30  C   UNL     1      -0.715  -2.888   0.000  0.00  0.00    +0.189 C 
ATOM     31  O   UNL     1      -1.429  -2.475   0.000  0.00  0.00    -0.220 OA
ATOM     32  C   UNL     1       0.000  -2.475   0.000  0.00  0.00    +0.066 C 
ENDROOT
BRANCH  12  10
ATOM      9  N   UNL     1       1.429  -1.650   0.000  0.00  0.00    -0.194 NA
ATOM     10  C   UNL     1       1.429  -2.475   0.000  0.00  0.00    +0.261 C 
ATOM     11  O   UNL     1       2.143  -2.888   0.000  0.00  0.00    -0.269 OA
BRANCH   9   8
ATOM      8  C   UNL     1       2.143  -1.238   0.000  0.00  0.00    +0.179 C 
BRANCH   8  33
ATOM     33  C   UNL     1       2.858  -1.650   0.000  0.00  0.00    +0.281 C 
ATOM     34  N   UNL     1       2.858  -2.475   0.000  0.00  0.00    -0.086 NA
ATOM     35  O   UNL     1       3.572  -1.238   0.000  0.00  0.00    -0.270 OA
ENDBRANCH   8  33
BRANCH   8   7
ATOM      7  C   UNL     1       2.143  -0.412   0.000  0.00  0.00    +0.057 C 
BRANCH   7   6
ATOM      3  C   UNL     1       4.287   0.825   0.000  0.00  0.00    +0.139 A 
ATOM      4  C   UNL     1       4.287   0.000   0.000  0.00  0.00    +0.037 A 
ATOM      5  C   UNL     1       3.572  -0.412   0.000  0.00  0.00    -0.001 A 
ATOM      6  C   UNL     1       2.858   0.000   0.000  0.00  0.00    -0.020 A 
ATOM     36  C   UNL     1       2.858   0.825   0.000  0.00  0.00    -0.001 A 
ATOM     37  C   UNL     1       3.572   1.238   0.000  0.00  0.00    +0.037 A 
BRANCH   3   2
ATOM      1  C   UNL     1       5.001   2.062   0.000  0.00  0.00    +0.252 C 
ATOM      2  O   UNL     1       5.001   1.238   0.000  0.00  0.00    -0.471 OA
ENDBRANCH   3   2
ENDBRANCH   7   6
ENDBRANCH   8   7
ENDBRANCH   9   8
ENDBRANCH  12  10
BRANCH  14  15
ATOM     15  N   UNL     1       0.000  -4.950   0.000  0.00  0.00    -0.200 NA
ATOM     16  C   UNL     1       0.715  -5.362   0.000  0.00  0.00    +0.242 C 
ATOM     17  O   UNL     1       1.429  -4.950   0.000  0.00  0.00    -0.273 OA
BRANCH  16  18
ATOM     18  C   UNL     1       0.715  -6.188   0.000  0.00  0.00    +0.087 C 
BRANCH  18  19
ATOM     19  C   UNL     1       1.429  -6.600   0.000  0.00  0.00    +0.019 C 
ATOM     24  C   UNL     1       1.764  -5.846   0.000  0.00  0.00    +0.001 C 
ATOM     25  C   UNL     1       2.585  -5.933   0.000  0.00  0.00    +0.000 C 
ATOM     26  C   UNL     1       2.756  -6.739   0.000  0.00  0.00    +0.000 C 
ATOM     27  C   UNL     1       2.042  -7.152   0.000  0.00  0.00    +0.001 C 
BRANCH  19  20
ATOM     20  C   UNL     1       0.944  -7.267   0.000  0.00  0.00    +0.115 C 
BRANCH  20  21
ATOM     21  C   UNL     1       1.280  -8.021   0.000  0.00  0.00    +0.365 C 
ATOM     22  O   UNL     1       2.100  -8.107   0.000  0.00  0.00    -0.246 OA
ATOM     23  O   UNL     1       0.795  -8.689   0.000  0.00  0.00    -0.246 OA
ENDBRANCH  20  21
ENDBRANCH  19  20
ENDBRANCH  18  19
ENDBRANCH  16  18
ENDBRANCH  14  15
TORSDOF 11
