REMARK  Name = 
REMARK  4 active torsions:
REMARK  status: ('A' for Active; 'I' for Inactive)
REMARK    1  A    between atoms: N_4  and  C_5
REMARK    2  A    between atoms: C_8  and  C_11
REMARK    3  A    between atoms: N_17  and  S_19
REMARK    4  A    between atoms: S_19  and  C_22
REMARK                            x       y       z     vdW  Elec       q    Type
REMARK                         _______ _______ _______ _____ _____    ______ ____
ROOT
ATOM     11  C   UNL     1      -0.397  -0.039   0.000  0.00  0.00    +0.012 A 
ATOM     12  C   UNL     1       0.244  -0.558   0.000  0.00  0.00    +0.041 A 
ATOM     13  C   UNL     1       1.163  -0.557   0.000  0.00  0.00    +0.056 C 
ATOM     14  C   UNL     1       1.713  -0.121   0.000  0.00  0.00    +0.011 C 
ATOM     15  C   UNL     1       1.582  -0.925   0.000  0.00  0.00    +0.041 C 
ATOM     16  C   UNL     1       1.629  -1.912   0.000  0.00  0.00    +0.098 C 
ATOM     17  N   UNL     1       0.813  -2.091   0.000  0.00  0.00    -0.155 NA
ATOM     18  C   UNL     1       1.225  -1.510   0.000  0.00  0.00    +0.102 C 
ATOM     27  C   UNL     1       0.622  -0.936   0.000  0.00  0.00    +0.110 C 
ATOM     28  N   UNL     1       0.115  -1.373   0.000  0.00  0.00    -0.299 N 
ATOM     29  C   UNL     1      -0.655  -1.669   0.000  0.00  0.00    +0.261 A 
ATOM     30  O   UNL     1      -0.784  -2.484   0.000  0.00  0.00    -0.267 OA
ATOM     31  C   UNL     1      -1.296  -1.150   0.000  0.00  0.00    +0.061 A 
ATOM     32  C   UNL     1      -1.167  -0.335   0.000  0.00  0.00    +0.006 A 
ENDROOT
BRANCH  11   8
ATOM      5  C   UNL     1      -0.010   2.406   0.000  0.00  0.00    +0.073 A 
ATOM      6  C   UNL     1       0.631   1.887   0.000  0.00  0.00    +0.017 A 
ATOM      7  C   UNL     1       0.502   1.072   0.000  0.00  0.00    +0.001 A 
ATOM      8  C   UNL     1      -0.268   0.776   0.000  0.00  0.00    +0.001 A 
ATOM      9  C   UNL     1      -0.909   1.295   0.000  0.00  0.00    +0.001 A 
ATOM     10  C   UNL     1      -0.780   2.110   0.000  0.00  0.00    +0.017 A 
BRANCH   5   4
ATOM      1  C   UNL     1      -0.393   4.554   0.000  0.00  0.00    +0.097 C 
ATOM      2  C   UNL     1      -0.522   3.740   0.000  0.00  0.00    +0.246 C 
ATOM      3  O   UNL     1      -1.292   3.444   0.000  0.00  0.00    -0.273 OA
ATOM      4  N   UNL     1       0.119   3.220   0.000  0.00  0.00    -0.179 NA
ENDBRANCH   5   4
ENDBRANCH  11   8
BRANCH  17  19
ATOM     19  S   UNL     1       0.125  -2.547   0.000  0.00  0.00    +0.069 S 
ATOM     20  O   UNL     1      -0.331  -1.859   0.000  0.00  0.00    -0.152 OA
ATOM     21  O   UNL     1       0.581  -3.235   0.000  0.00  0.00    -0.152 OA
BRANCH  19  22
ATOM     22  C   UNL     1      -0.563  -3.003   0.000  0.00  0.00    +0.152 A 
ATOM     23  C   UNL     1      -0.599  -3.827   0.000  0.00  0.00    +0.027 A 
ATOM     24  C   UNL     1      -1.393  -4.048   0.000  0.00  0.00    +0.009 A 
ATOM     25  C   UNL     1      -1.849  -3.360   0.000  0.00  0.00    +0.037 A 
ATOM     26  S   UNL     1      -1.336  -2.714   0.000  0.00  0.00    -0.067 S 
ENDBRANCH  19  22
ENDBRANCH  17  19
TORSDOF 4
