REMARK  Name = 
REMARK  9 active torsions:
REMARK  status: ('A' for Active; 'I' for Inactive)
REMARK    1  A    between atoms: O_2  and  C_3
REMARK    2  A    between atoms: C_6  and  O_7
REMARK    3  A    between atoms: C_9  and  S_11
REMARK    4  A    between atoms: S_11  and  N_14
REMARK    5  A    between atoms: N_14  and  C_15
REMARK    6  A    between atoms: C_19  and  O_23
REMARK    7  A    between atoms: O_23  and  C_24
REMARK    8  A    between atoms: N_26  and  C_27
REMARK    9  A    between atoms: C_29  and  C_33
REMARK                            x       y       z     vdW  Elec       q    Type
REMARK                         _______ _______ _______ _____ _____    ______ ____
ROOT
ATOM     15  C   UNL     1       1.270  -0.922   0.000  0.00  0.00    +0.157 C 
ATOM     16  C   UNL     1       0.785  -0.255   0.000  0.00  0.00    +0.164 C 
ATOM     17  O   UNL     1       1.270   0.412   0.000  0.00  0.00    -0.348 OA
ATOM     18  C   UNL     1       2.054   0.158   0.000  0.00  0.00    +0.186 C 
ATOM     19  C   UNL     1       2.839   0.412   0.000  0.00  0.00    +0.229 C 
ATOM     20  C   UNL     1       3.324  -0.255   0.000  0.00  0.00    +0.188 C 
ATOM     21  O   UNL     1       2.839  -0.922   0.000  0.00  0.00    -0.348 OA
ATOM     22  C   UNL     1       2.054  -0.667   0.000  0.00  0.00    +0.166 C 
ENDROOT
BRANCH  15  14
ATOM     14  N   UNL     1       1.015  -1.707   0.000  0.00  0.00    -0.074 NA
BRANCH  14  11
ATOM     11  S   UNL     1       0.208  -1.879   0.000  0.00  0.00    +0.080 S 
ATOM     12  O   UNL     1       0.379  -2.686   0.000  0.00  0.00    -0.151 OA
ATOM     13  O   UNL     1       0.036  -1.072   0.000  0.00  0.00    -0.151 OA
BRANCH  11   9
ATOM      3  C   UNL     1      -1.661  -3.006   0.000  0.00  0.00    +0.140 A 
ATOM      4  C   UNL     1      -2.213  -2.393   0.000  0.00  0.00    +0.040 A 
ATOM      5  C   UNL     1      -1.958  -1.609   0.000  0.00  0.00    +0.041 A 
ATOM      6  C   UNL     1      -1.151  -1.437   0.000  0.00  0.00    +0.157 A 
ATOM      9  C   UNL     1      -0.599  -2.050   0.000  0.00  0.00    +0.160 A 
ATOM     10  C   UNL     1      -0.854  -2.835   0.000  0.00  0.00    +0.060 A 
BRANCH   3   2
ATOM      1  C   UNL     1      -2.723  -3.962   0.000  0.00  0.00    +0.252 C 
ATOM      2  O   UNL     1      -1.916  -3.791   0.000  0.00  0.00    -0.471 OA
ENDBRANCH   3   2
BRANCH   6   7
ATOM      7  O   UNL     1      -0.896  -0.652   0.000  0.00  0.00    -0.470 OA
ATOM      8  C   UNL     1      -0.089  -0.481   0.000  0.00  0.00    +0.253 C 
ENDBRANCH   6   7
ENDBRANCH  11   9
ENDBRANCH  14  11
ENDBRANCH  15  14
BRANCH  19  23
ATOM     23  O   UNL     1       3.094   1.197   0.000  0.00  0.00    -0.432 OA
BRANCH  23  24
ATOM     24  C   UNL     1       3.901   1.369   0.000  0.00  0.00    +0.425 C 
ATOM     25  O   UNL     1       4.453   0.756   0.000  0.00  0.00    -0.224 OA
ATOM     26  N   UNL     1       4.156   2.153   0.000  0.00  0.00    -0.142 NA
BRANCH  26  27
ATOM     27  C   UNL     1       4.963   2.325   0.000  0.00  0.00    +0.077 A 
ATOM     28  C   UNL     1       5.218   3.109   0.000  0.00  0.00    +0.021 A 
ATOM     29  C   UNL     1       6.024   3.281   0.000  0.00  0.00    +0.073 A 
ATOM     30  C   UNL     1       6.577   2.668   0.000  0.00  0.00    +0.004 A 
ATOM     31  C   UNL     1       6.322   1.883   0.000  0.00  0.00    +0.001 A 
ATOM     32  C   UNL     1       5.515   1.712   0.000  0.00  0.00    +0.017 A 
BRANCH  29  33
ATOM     33  C   UNL     1       6.279   4.066   0.000  0.00  0.00    +0.419 C 
ATOM     34  F   UNL     1       6.534   4.850   0.000  0.00  0.00    -0.166 F 
ATOM     35  F   UNL     1       7.064   3.811   0.000  0.00  0.00    -0.166 F 
ATOM     36  F   UNL     1       5.495   4.321   0.000  0.00  0.00    -0.166 F 
ENDBRANCH  29  33
ENDBRANCH  26  27
ENDBRANCH  23  24
ENDBRANCH  19  23
TORSDOF 9
