REMARK  Name = 
REMARK  7 active torsions:
REMARK  status: ('A' for Active; 'I' for Inactive)
REMARK    1  A    between atoms: N_2  and  C_4
REMARK    2  A    between atoms: C_7  and  C_10
REMARK    3  A    between atoms: C_13  and  C_15
REMARK    4  A    between atoms: N_18  and  C_19
REMARK    5  A    between atoms: C_19  and  C_20
REMARK    6  A    between atoms: C_24  and  O_25
REMARK    7  A    between atoms: O_25  and  C_26
REMARK                            x       y       z     vdW  Elec       q    Type
REMARK                         _______ _______ _______ _____ _____    ______ ____
ROOT
ATOM     15  C   UNL     1      -2.412  -5.272   0.000  0.00  0.00    +0.096 C 
ATOM     16  C   UNL     1      -2.157  -6.057   0.000  0.00  0.00    +0.028 C 
ATOM     17  C   UNL     1      -2.824  -6.542   0.000  0.00  0.00    +0.073 C 
ATOM     18  N   UNL     1      -3.492  -6.057   0.000  0.00  0.00    -0.268 NA
ATOM     31  C   UNL     1      -3.237  -5.272   0.000  0.00  0.00    +0.082 C 
ENDROOT
BRANCH  15  13
ATOM     10  C   UNL     1      -1.514  -3.335   0.000  0.00  0.00    +0.250 A 
ATOM     11  N   UNL     1      -0.847  -3.820   0.000  0.00  0.00    -0.107 NA
ATOM     12  N   UNL     1      -1.102  -4.605   0.000  0.00  0.00    -0.111 NA
ATOM     13  C   UNL     1      -1.927  -4.605   0.000  0.00  0.00    +0.227 A 
ATOM     14  O   UNL     1      -2.182  -3.820   0.000  0.00  0.00    -0.419 OA
BRANCH  10   7
ATOM      4  C   UNL     1      -1.514  -0.860   0.000  0.00  0.00    +0.048 A 
ATOM      5  C   UNL     1      -0.800  -1.272   0.000  0.00  0.00    +0.015 A 
ATOM      6  C   UNL     1      -0.800  -2.098   0.000  0.00  0.00    +0.006 A 
ATOM      7  C   UNL     1      -1.514  -2.510   0.000  0.00  0.00    +0.055 A 
ATOM      8  C   UNL     1      -2.229  -2.098   0.000  0.00  0.00    +0.006 A 
ATOM      9  C   UNL     1      -2.229  -1.272   0.000  0.00  0.00    +0.015 A 
BRANCH   4   2
ATOM      1  C   UNL     1      -2.229   0.378   0.000  0.00  0.00    +0.112 C 
ATOM      2  N   UNL     1      -1.514  -0.035   0.000  0.00  0.00    -0.304 N 
ATOM      3  C   UNL     1      -0.800   0.378   0.000  0.00  0.00    +0.112 C 
ENDBRANCH   4   2
ENDBRANCH  10   7
ENDBRANCH  15  13
BRANCH  18  19
ATOM     19  C   UNL     1      -4.276  -6.312   0.000  0.00  0.00    +0.099 C 
BRANCH  19  20
ATOM     20  C   UNL     1      -4.448  -7.119   0.000  0.00  0.00    -0.003 A 
ATOM     21  C   UNL     1      -3.835  -7.671   0.000  0.00  0.00    -0.003 A 
ATOM     22  C   UNL     1      -4.006  -8.477   0.000  0.00  0.00    +0.003 A 
ATOM     23  C   UNL     1      -4.791  -8.732   0.000  0.00  0.00    +0.037 A 
ATOM     24  C   UNL     1      -5.404  -8.180   0.000  0.00  0.00    +0.147 A 
ATOM     30  C   UNL     1      -5.232  -7.373   0.000  0.00  0.00    +0.034 A 
BRANCH  24  25
ATOM     25  O   UNL     1      -6.189  -8.435   0.000  0.00  0.00    -0.404 OA
BRANCH  25  26
ATOM     26  C   UNL     1      -6.360  -9.242   0.000  0.00  0.00    +0.575 C 
ATOM     27  F   UNL     1      -6.532 -10.049   0.000  0.00  0.00    -0.133 F 
ATOM     28  F   UNL     1      -7.167  -9.071   0.000  0.00  0.00    -0.133 F 
ATOM     29  F   UNL     1      -5.553  -9.414   0.000  0.00  0.00    -0.133 F 
ENDBRANCH  25  26
ENDBRANCH  24  25
ENDBRANCH  19  20
ENDBRANCH  18  19
TORSDOF 7
