REMARK  Name = 
REMARK  9 active torsions:
REMARK  status: ('A' for Active; 'I' for Inactive)
REMARK    1  A    between atoms: N_4  and  C_5
REMARK    2  A    between atoms: C_5  and  C_6
REMARK    3  A    between atoms: C_6  and  N_7
REMARK    4  A    between atoms: C_8  and  C_10
REMARK    5  A    between atoms: C_10  and  C_11
REMARK    6  A    between atoms: C_16  and  C_17
REMARK    7  A    between atoms: C_17  and  C_18
REMARK    8  A    between atoms: C_21  and  C_23
REMARK    9  A    between atoms: C_26  and  C_29
REMARK                            x       y       z     vdW  Elec       q    Type
REMARK                         _______ _______ _______ _____ _____    ______ ____
ROOT
ATOM     11  C   UNL     1       3.660  -6.987   0.000  0.00  0.00    +0.012 C 
ATOM     12  C   UNL     1       2.849  -7.143   0.000  0.00  0.00    +0.019 C 
ATOM     13  C   UNL     1       2.309  -6.519   0.000  0.00  0.00    +0.089 C 
ATOM     14  N   UNL     1       2.579  -5.739   0.000  0.00  0.00    -0.218 NA
ATOM     15  C   UNL     1       3.389  -5.583   0.000  0.00  0.00    +0.089 C 
ATOM     16  C   UNL     1       3.930  -6.207   0.000  0.00  0.00    +0.024 C 
ENDROOT
BRANCH  11  10
ATOM     10  C   UNL     1       4.200  -7.610   0.000  0.00  0.00    +0.087 C 
BRANCH  10   8
ATOM      7  N   UNL     1       3.119  -8.546   0.000  0.00  0.00    -0.204 NA
ATOM      8  C   UNL     1       3.930  -8.390   0.000  0.00  0.00    +0.241 C 
ATOM      9  O   UNL     1       4.470  -9.014   0.000  0.00  0.00    -0.273 OA
BRANCH   7   6
ATOM      6  C   UNL     1       2.579  -7.922   0.000  0.00  0.00    +0.138 C 
BRANCH   6   5
ATOM      5  C   UNL     1       1.769  -8.078   0.000  0.00  0.00    +0.138 C 
BRANCH   5   4
ATOM      1  C   UNL     1      -0.121  -6.987   0.000  0.00  0.00    +0.096 C 
ATOM      2  C   UNL     1       0.419  -7.610   0.000  0.00  0.00    +0.242 C 
ATOM      3  O   UNL     1       0.149  -8.390   0.000  0.00  0.00    -0.273 OA
ATOM      4  N   UNL     1       1.229  -7.454   0.000  0.00  0.00    -0.204 NA
ENDBRANCH   5   4
ENDBRANCH   6   5
ENDBRANCH   7   6
ENDBRANCH  10   8
ENDBRANCH  11  10
BRANCH  16  17
ATOM     17  C   UNL     1       4.740  -6.051   0.000  0.00  0.00    +0.051 C 
BRANCH  17  18
ATOM     18  C   UNL     1       5.010  -5.272   0.000  0.00  0.00    +0.101 A 
ATOM     19  N   UNL     1       4.538  -4.595   0.000  0.00  0.00    -0.081 NA
ATOM     20  O   UNL     1       5.036  -3.937   0.000  0.00  0.00    -0.354 OA
ATOM     21  C   UNL     1       5.815  -4.207   0.000  0.00  0.00    +0.177 A 
ATOM     22  C   UNL     1       5.799  -5.032   0.000  0.00  0.00    +0.058 A 
BRANCH  21  23
ATOM     23  C   UNL     1       6.492  -3.735   0.000  0.00  0.00    +0.037 A 
ATOM     24  C   UNL     1       6.421  -2.913   0.000  0.00  0.00    +0.003 A 
ATOM     25  C   UNL     1       7.098  -2.441   0.000  0.00  0.00    -0.004 A 
ATOM     26  C   UNL     1       7.845  -2.791   0.000  0.00  0.00    -0.023 A 
ATOM     27  C   UNL     1       7.915  -3.613   0.000  0.00  0.00    -0.004 A 
ATOM     28  C   UNL     1       7.239  -4.085   0.000  0.00  0.00    +0.003 A 
BRANCH  26  29
ATOM     29  C   UNL     1       8.522  -2.319   0.000  0.00  0.00    +0.019 C 
ATOM     30  C   UNL     1       9.198  -1.847   0.000  0.00  0.00    +0.004 C 
ATOM     31  C   UNL     1       8.994  -2.996   0.000  0.00  0.00    +0.004 C 
ATOM     32  C   UNL     1       8.050  -1.643   0.000  0.00  0.00    +0.004 C 
ENDBRANCH  26  29
ENDBRANCH  21  23
ENDBRANCH  17  18
ENDBRANCH  16  17
TORSDOF 9
