REMARK  Name = 
REMARK  6 active torsions:
REMARK  status: ('A' for Active; 'I' for Inactive)
REMARK    1  A    between atoms: C_2  and  N_4
REMARK    2  A    between atoms: C_13  and  N_15
REMARK    3  A    between atoms: C_16  and  C_18
REMARK    4  A    between atoms: C_21  and  O_22
REMARK    5  A    between atoms: O_22  and  C_23
REMARK    6  A    between atoms: C_23  and  C_24
REMARK                            x       y       z     vdW  Elec       q    Type
REMARK                         _______ _______ _______ _____ _____    ______ ____
ROOT
ATOM      4  N   UNL     1       2.006   6.149   0.000  0.00  0.00    -0.190 NA
ATOM      5  C   UNL     1       2.249   5.360   0.000  0.00  0.00    +0.323 C 
ATOM      6  O   UNL     1       1.688   4.756   0.000  0.00  0.00    -0.251 OA
ATOM      7  N   UNL     1       3.053   5.177   0.000  0.00  0.00    -0.261 N 
ATOM      8  C   UNL     1       3.568   5.822   0.000  0.00  0.00    +0.095 C 
ATOM      9  C   UNL     1       4.393   5.822   0.000  0.00  0.00    +0.024 C 
ATOM     10  C   UNL     1       4.907   5.177   0.000  0.00  0.00    +0.037 C 
ATOM     11  C   UNL     1       4.724   4.372   0.000  0.00  0.00    +0.174 C 
ATOM     12  O   UNL     1       5.369   3.858   0.000  0.00  0.00    -0.221 OA
ATOM     13  C   UNL     1       3.980   4.014   0.000  0.00  0.00    +0.146 C 
ATOM     14  C   UNL     1       3.237   4.372   0.000  0.00  0.00    +0.119 C 
ENDROOT
BRANCH   4   2
ATOM      1  C   UNL     1       0.959   7.121   0.000  0.00  0.00    +0.023 C 
ATOM      2  C   UNL     1       1.202   6.332   0.000  0.00  0.00    +0.097 C 
ATOM      3  C   UNL     1       0.640   5.728   0.000  0.00  0.00    +0.023 C 
ENDBRANCH   4   2
BRANCH  13  15
ATOM     15  N   UNL     1       3.980   3.189   0.000  0.00  0.00    -0.199 NA
ATOM     16  C   UNL     1       4.695   2.777   0.000  0.00  0.00    +0.265 C 
ATOM     17  O   UNL     1       5.409   3.189   0.000  0.00  0.00    -0.268 OA
BRANCH  16  18
ATOM     18  C   UNL     1       4.695   1.952   0.000  0.00  0.00    +0.055 A 
ATOM     19  C   UNL     1       5.409   1.540   0.000  0.00  0.00    +0.008 A 
ATOM     20  C   UNL     1       5.409   0.715   0.000  0.00  0.00    +0.037 A 
ATOM     21  C   UNL     1       4.695   0.302   0.000  0.00  0.00    +0.139 A 
ATOM     27  C   UNL     1       3.980   0.715   0.000  0.00  0.00    +0.037 A 
ATOM     28  C   UNL     1       3.980   1.540   0.000  0.00  0.00    +0.008 A 
BRANCH  21  22
ATOM     22  O   UNL     1       4.695  -0.523   0.000  0.00  0.00    -0.466 OA
BRANCH  22  23
ATOM     23  C   UNL     1       5.409  -0.935   0.000  0.00  0.00    +0.293 C 
BRANCH  23  24
ATOM     24  C   UNL     1       5.409  -1.760   0.000  0.00  0.00    +0.305 C 
ATOM     25  N   UNL     1       6.124  -2.173   0.000  0.00  0.00    -0.085 NA
ATOM     26  O   UNL     1       4.695  -2.173   0.000  0.00  0.00    -0.268 OA
ENDBRANCH  23  24
ENDBRANCH  22  23
ENDBRANCH  21  22
ENDBRANCH  16  18
ENDBRANCH  13  15
TORSDOF 6
