REMARK  Name = 
REMARK  4 active torsions:
REMARK  status: ('A' for Active; 'I' for Inactive)
REMARK    1  A    between atoms: O_2  and  C_3
REMARK    2  A    between atoms: C_6  and  C_9
REMARK    3  A    between atoms: C_16  and  C_17
REMARK    4  A    between atoms: C_19  and  C_22
REMARK                            x       y       z     vdW  Elec       q    Type
REMARK                         _______ _______ _______ _____ _____    ______ ____
ROOT
ATOM      9  C   UNL     1      -2.276  -3.262   0.000  0.00  0.00    +0.250 C 
ATOM     10  O   UNL     1      -1.455  -3.349   0.000  0.00  0.00    -0.270 OA
ATOM     11  N   UNL     1      -2.611  -2.509   0.000  0.00  0.00    -0.263 N 
ATOM     12  C   UNL     1      -3.432  -2.422   0.000  0.00  0.00    +0.141 C 
ATOM     13  C   UNL     1      -3.767  -1.669   0.000  0.00  0.00    +0.094 A 
ATOM     14  C   UNL     1      -3.282  -1.001   0.000  0.00  0.00    +0.078 A 
ATOM     15  C   UNL     1      -2.462  -1.088   0.000  0.00  0.00    +0.077 C 
ATOM     16  C   UNL     1      -2.126  -1.841   0.000  0.00  0.00    +0.161 C 
ATOM     32  N   UNL     1      -3.767  -0.334   0.000  0.00  0.00    -0.227 NA
ATOM     33  C   UNL     1      -4.552  -0.589   0.000  0.00  0.00    +0.198 A 
ATOM     34  N   UNL     1      -4.552  -1.414   0.000  0.00  0.00    -0.225 NA
ENDROOT
BRANCH   9   6
ATOM      3  C   UNL     1      -3.730  -5.265   0.000  0.00  0.00    +0.139 A 
ATOM      4  C   UNL     1      -4.066  -4.511   0.000  0.00  0.00    +0.037 A 
ATOM      5  C   UNL     1      -3.581  -3.844   0.000  0.00  0.00    +0.008 A 
ATOM      6  C   UNL     1      -2.760  -3.930   0.000  0.00  0.00    +0.054 A 
ATOM      7  C   UNL     1      -2.425  -4.684   0.000  0.00  0.00    +0.008 A 
ATOM      8  C   UNL     1      -2.910  -5.351   0.000  0.00  0.00    +0.037 A 
BRANCH   3   2
ATOM      1  C   UNL     1      -3.880  -6.686   0.000  0.00  0.00    +0.252 C 
ATOM      2  O   UNL     1      -4.215  -5.932   0.000  0.00  0.00    -0.471 OA
ENDBRANCH   3   2
ENDBRANCH   9   6
BRANCH  16  17
ATOM     17  C   UNL     1      -1.306  -1.927   0.000  0.00  0.00    +0.255 A 
ATOM     18  N   UNL     1      -0.754  -1.314   0.000  0.00  0.00    -0.189 NA
ATOM     19  C   UNL     1       0.000  -1.650   0.000  0.00  0.00    +0.203 A 
ATOM     20  N   UNL     1      -0.086  -2.470   0.000  0.00  0.00    -0.056 NA
ATOM     21  O   UNL     1      -0.893  -2.642   0.000  0.00  0.00    -0.335 OA
BRANCH  19  22
ATOM     22  C   UNL     1       0.715  -1.238   0.000  0.00  0.00    +0.039 A 
ATOM     23  C   UNL     1       0.715  -0.412   0.000  0.00  0.00    +0.003 A 
ATOM     24  C   UNL     1       1.429   0.000   0.000  0.00  0.00    +0.000 A 
ATOM     25  C   UNL     1       2.143  -0.412   0.000  0.00  0.00    +0.000 A 
ATOM     26  C   UNL     1       2.858   0.000   0.000  0.00  0.00    +0.000 A 
ATOM     27  C   UNL     1       3.572  -0.412   0.000  0.00  0.00    +0.000 A 
ATOM     28  C   UNL     1       3.572  -1.238   0.000  0.00  0.00    +0.000 A 
ATOM     29  C   UNL     1       2.858  -1.650   0.000  0.00  0.00    +0.000 A 
ATOM     30  C   UNL     1       2.143  -1.238   0.000  0.00  0.00    +0.000 A 
ATOM     31  C   UNL     1       1.429  -1.650   0.000  0.00  0.00    +0.003 A 
ENDBRANCH  19  22
ENDBRANCH  16  17
TORSDOF 4
