REMARK  Name = 
REMARK  4 active torsions:
REMARK  status: ('A' for Active; 'I' for Inactive)
REMARK    1  A    between atoms: C_4  and  C_17
REMARK    2  A    between atoms: N_5  and  C_6
REMARK    3  A    between atoms: C_6  and  C_7
REMARK    4  A    between atoms: C_19  and  C_22
REMARK                            x       y       z     vdW  Elec       q    Type
REMARK                         _______ _______ _______ _____ _____    ______ ____
ROOT
ATOM      1  O   UNL     1      -3.287   0.451   0.000  0.00  0.00    -0.222 OA
ATOM      2  C   UNL     1      -2.533   0.786   0.000  0.00  0.00    +0.170 C 
ATOM      3  C   UNL     1      -2.361   1.593   0.000  0.00  0.00    +0.060 C 
ATOM      4  C   UNL     1      -1.541   1.679   0.000  0.00  0.00    +0.140 C 
ATOM      5  N   UNL     1      -1.205   0.926   0.000  0.00  0.00    -0.260 NA
ATOM     16  C   UNL     1      -1.819   0.374   0.000  0.00  0.00    +0.106 C 
ENDROOT
BRANCH   4  17
ATOM     17  C   UNL     1      -1.129   2.394   0.000  0.00  0.00    +0.251 A 
ATOM     18  N   UNL     1      -1.464   3.147   0.000  0.00  0.00    -0.190 NA
ATOM     19  C   UNL     1      -0.851   3.700   0.000  0.00  0.00    +0.203 A 
ATOM     20  N   UNL     1      -0.137   3.287   0.000  0.00  0.00    -0.056 NA
ATOM     21  O   UNL     1      -0.308   2.480   0.000  0.00  0.00    -0.336 OA
BRANCH  19  22
ATOM     22  C   UNL     1      -0.937   4.520   0.000  0.00  0.00    +0.039 A 
ATOM     23  C   UNL     1      -1.691   4.856   0.000  0.00  0.00    +0.005 A 
ATOM     24  C   UNL     1      -1.777   5.676   0.000  0.00  0.00    +0.030 A 
ATOM     25  C   UNL     1      -1.110   6.161   0.000  0.00  0.00    +0.140 A 
ATOM     26  F   UNL     1      -1.196   6.981   0.000  0.00  0.00    -0.204 F 
ATOM     27  C   UNL     1      -0.356   5.825   0.000  0.00  0.00    +0.030 A 
ATOM     28  C   UNL     1      -0.270   5.005   0.000  0.00  0.00    +0.005 A 
ENDBRANCH  19  22
ENDBRANCH   4  17
BRANCH   5   6
ATOM      6  C   UNL     1      -0.398   0.754   0.000  0.00  0.00    +0.101 C 
BRANCH   6   7
ATOM      7  C   UNL     1      -0.143  -0.030   0.000  0.00  0.00    +0.014 A 
ATOM      8  C   UNL     1      -0.628  -0.698   0.000  0.00  0.00    +0.096 A 
ATOM      9  N   UNL     1      -0.143  -1.365   0.000  0.00  0.00    -0.244 NA
ATOM     10  C   UNL     1       0.641  -1.110   0.000  0.00  0.00    +0.081 A 
ATOM     11  C   UNL     1       0.641  -0.285   0.000  0.00  0.00    +0.016 A 
ATOM     12  C   UNL     1       1.356   0.127   0.000  0.00  0.00    +0.001 A 
ATOM     13  C   UNL     1       2.070  -0.285   0.000  0.00  0.00    +0.000 A 
ATOM     14  C   UNL     1       2.070  -1.110   0.000  0.00  0.00    +0.002 A 
ATOM     15  C   UNL     1       1.356  -1.523   0.000  0.00  0.00    +0.019 A 
ENDBRANCH   6   7
ENDBRANCH   5   6
TORSDOF 4
