REMARK  Name = 
REMARK  1 active torsions:
REMARK  status: ('A' for Active; 'I' for Inactive)
REMARK    1  A    between atoms: C_2  and  N_4
REMARK                            x       y       z     vdW  Elec       q    Type
REMARK                         _______ _______ _______ _____ _____    ______ ____
ROOT
ATOM      4  N   UNL     1       4.067   3.173   0.000  0.00  0.00    -0.190 NA
ATOM      5  C   UNL     1       4.067   2.348   0.000  0.00  0.00    +0.323 C 
ATOM      6  O   UNL     1       4.781   1.935   0.000  0.00  0.00    -0.251 OA
ATOM      7  N   UNL     1       3.352   1.935   0.000  0.00  0.00    -0.259 N 
ATOM      8  C   UNL     1       3.352   1.110   0.000  0.00  0.00    +0.117 C 
ATOM      9  C   UNL     1       2.638   0.698   0.000  0.00  0.00    +0.117 C 
ATOM     10  N   UNL     1       1.923   1.110   0.000  0.00  0.00    -0.259 N 
ATOM     11  C   UNL     1       1.923   1.935   0.000  0.00  0.00    +0.118 C 
ATOM     12  C   UNL     1       1.139   2.190   0.000  0.00  0.00    +0.138 C 
ATOM     13  N   UNL     1       0.654   1.523   0.000  0.00  0.00    -0.187 NA
ATOM     14  C   UNL     1       1.139   0.856   0.000  0.00  0.00    +0.323 C 
ATOM     15  O   UNL     1       0.884   0.071   0.000  0.00  0.00    -0.251 OA
ATOM     16  C   UNL     1       2.638   2.348   0.000  0.00  0.00    +0.117 C 
ENDROOT
BRANCH   4   2
ATOM      1  C   UNL     1       4.781   4.410   0.000  0.00  0.00    +0.023 C 
ATOM      2  C   UNL     1       4.781   3.585   0.000  0.00  0.00    +0.097 C 
ATOM      3  C   UNL     1       5.496   3.173   0.000  0.00  0.00    +0.023 C 
ENDBRANCH   4   2
TORSDOF 1
