REMARK  Name = 
REMARK  3 active torsions:
REMARK  status: ('A' for Active; 'I' for Inactive)
REMARK    1  A    between atoms: C_4  and  N_5
REMARK    2  A    between atoms: N_8  and  C_9
REMARK    3  A    between atoms: N_21  and  C_22
REMARK                            x       y       z     vdW  Elec       q    Type
REMARK                         _______ _______ _______ _____ _____    ______ ____
ROOT
ATOM      9  C   UNL     1      -1.296  -1.150   0.000  0.00  0.00    +0.131 A 
ATOM     10  C   UNL     1      -1.167  -0.335   0.000  0.00  0.00    +0.023 A 
ATOM     11  C   UNL     1      -0.397  -0.039   0.000  0.00  0.00    +0.014 A 
ATOM     12  C   UNL     1       0.244  -0.558   0.000  0.00  0.00    +0.041 A 
ATOM     13  C   UNL     1       1.163  -0.557   0.000  0.00  0.00    +0.058 C 
ATOM     14  C   UNL     1       1.713  -0.121   0.000  0.00  0.00    +0.011 C 
ATOM     15  C   UNL     1       1.582  -0.925   0.000  0.00  0.00    +0.043 C 
ATOM     16  C   UNL     1       1.629  -1.912   0.000  0.00  0.00    +0.097 C 
ATOM     17  N   UNL     1       0.813  -2.091   0.000  0.00  0.00    -0.262 N 
ATOM     18  C   UNL     1       1.225  -1.510   0.000  0.00  0.00    +0.101 C 
ATOM     19  C   UNL     1       0.125  -2.547   0.000  0.00  0.00    +0.323 C 
ATOM     20  O   UNL     1      -0.614  -2.179   0.000  0.00  0.00    -0.251 OA
ATOM     21  N   UNL     1       0.176  -3.370   0.000  0.00  0.00    -0.190 NA
ATOM     28  C   UNL     1       0.622  -0.936   0.000  0.00  0.00    +0.110 C 
ATOM     29  N   UNL     1       0.115  -1.373   0.000  0.00  0.00    -0.298 N 
ATOM     30  C   UNL     1      -0.655  -1.669   0.000  0.00  0.00    +0.276 A 
ATOM     31  O   UNL     1      -1.029  -2.404   0.000  0.00  0.00    -0.266 OA
ENDROOT
BRANCH  21  22
ATOM     22  C   UNL     1       0.914  -3.738   0.000  0.00  0.00    +0.097 C 
ATOM     23  C   UNL     1       1.602  -3.283   0.000  0.00  0.00    +0.022 C 
ATOM     24  C   UNL     1       2.340  -3.650   0.000  0.00  0.00    +0.002 C 
ATOM     25  C   UNL     1       2.391  -4.474   0.000  0.00  0.00    +0.000 C 
ATOM     26  C   UNL     1       1.703  -4.929   0.000  0.00  0.00    +0.002 C 
ATOM     27  C   UNL     1       0.965  -4.562   0.000  0.00  0.00    +0.022 C 
ENDBRANCH  21  22
BRANCH   9   8
ATOM      5  N   UNL     1      -2.578  -0.111   0.000  0.00  0.00    -0.161 NA
ATOM      6  C   UNL     1      -2.707  -0.926   0.000  0.00  0.00    +0.348 C 
ATOM      7  O   UNL     1      -3.478  -1.222   0.000  0.00  0.00    -0.248 OA
ATOM      8  N   UNL     1      -2.066  -1.445   0.000  0.00  0.00    -0.156 NA
BRANCH   5   4
ATOM      1  F   UNL     1      -3.603   2.557   0.000  0.00  0.00    -0.204 F 
ATOM      2  C   UNL     1      -3.732   1.742   0.000  0.00  0.00    +0.141 A 
ATOM      3  C   UNL     1      -3.091   1.223   0.000  0.00  0.00    +0.046 A 
ATOM      4  C   UNL     1      -3.220   0.408   0.000  0.00  0.00    +0.077 A 
ATOM     32  C   UNL     1      -3.990   0.112   0.000  0.00  0.00    +0.017 A 
ATOM     33  C   UNL     1      -4.631   0.631   0.000  0.00  0.00    +0.004 A 
ATOM     34  C   UNL     1      -4.502   1.446   0.000  0.00  0.00    +0.030 A 
ENDBRANCH   5   4
ENDBRANCH   9   8
TORSDOF 3
