REMARK  Name = 
REMARK  8 active torsions:
REMARK  status: ('A' for Active; 'I' for Inactive)
REMARK    1  A    between atoms: N_6  and  C_7
REMARK    2  A    between atoms: C_7  and  C_8
REMARK    3  A    between atoms: C_11  and  C_14
REMARK    4  A    between atoms: C_18  and  N_19
REMARK    5  A    between atoms: C_20  and  C_22
REMARK    6  A    between atoms: C_25  and  O_26
REMARK    7  A    between atoms: O_26  and  C_27
REMARK    8  A    between atoms: C_27  and  C_28
REMARK                            x       y       z     vdW  Elec       q    Type
REMARK                         _______ _______ _______ _____ _____    ______ ____
ROOT
ATOM      1  O   UNL     1       3.899   7.342   0.000  0.00  0.00    -0.221 OA
ATOM      2  C   UNL     1       3.434   6.660   0.000  0.00  0.00    +0.173 C 
ATOM      3  C   UNL     1       3.847   5.946   0.000  0.00  0.00    +0.036 C 
ATOM      4  C   UNL     1       3.545   5.178   0.000  0.00  0.00    +0.020 C 
ATOM      5  C   UNL     1       2.757   4.934   0.000  0.00  0.00    +0.073 C 
ATOM      6  N   UNL     1       2.075   5.399   0.000  0.00  0.00    -0.267 NA
ATOM     17  C   UNL     1       2.014   6.222   0.000  0.00  0.00    +0.097 C 
ATOM     18  C   UNL     1       2.619   6.783   0.000  0.00  0.00    +0.142 C 
ENDROOT
BRANCH  18  19
ATOM     19  N   UNL     1       2.375   7.571   0.000  0.00  0.00    -0.199 NA
ATOM     20  C   UNL     1       1.571   7.755   0.000  0.00  0.00    +0.265 C 
ATOM     21  O   UNL     1       1.010   7.150   0.000  0.00  0.00    -0.268 OA
BRANCH  20  22
ATOM     22  C   UNL     1       1.328   8.543   0.000  0.00  0.00    +0.055 A 
ATOM     23  C   UNL     1       0.523   8.727   0.000  0.00  0.00    +0.008 A 
ATOM     24  C   UNL     1       0.280   9.515   0.000  0.00  0.00    +0.037 A 
ATOM     25  C   UNL     1       0.842  10.120   0.000  0.00  0.00    +0.139 A 
ATOM     34  C   UNL     1       1.646   9.937   0.000  0.00  0.00    +0.037 A 
ATOM     35  C   UNL     1       1.889   9.148   0.000  0.00  0.00    +0.008 A 
BRANCH  25  26
ATOM     26  O   UNL     1       0.598  10.908   0.000  0.00  0.00    -0.471 OA
BRANCH  26  27
ATOM     27  C   UNL     1      -0.206  11.092   0.000  0.00  0.00    +0.232 C 
BRANCH  27  28
ATOM     28  C   UNL     1      -0.449  11.880   0.000  0.00  0.00    +0.021 A 
ATOM     29  C   UNL     1      -1.254  12.064   0.000  0.00  0.00    -0.001 A 
ATOM     30  C   UNL     1      -1.497  12.852   0.000  0.00  0.00    -0.000 A 
ATOM     31  C   UNL     1      -0.935  13.457   0.000  0.00  0.00    -0.000 A 
ATOM     32  C   UNL     1      -0.131  13.273   0.000  0.00  0.00    -0.000 A 
ATOM     33  C   UNL     1       0.112  12.485   0.000  0.00  0.00    -0.001 A 
ENDBRANCH  27  28
ENDBRANCH  26  27
ENDBRANCH  25  26
ENDBRANCH  20  22
ENDBRANCH  18  19
BRANCH   6   7
ATOM      7  C   UNL     1       1.361   4.987   0.000  0.00  0.00    +0.099 C 
BRANCH   7   8
ATOM      8  C   UNL     1       1.361   4.162   0.000  0.00  0.00    -0.006 A 
ATOM      9  C   UNL     1       2.075   3.749   0.000  0.00  0.00    -0.003 A 
ATOM     10  C   UNL     1       2.075   2.924   0.000  0.00  0.00    +0.006 A 
ATOM     11  C   UNL     1       1.361   2.512   0.000  0.00  0.00    +0.080 A 
ATOM     12  C   UNL     1       0.646   2.924   0.000  0.00  0.00    +0.006 A 
ATOM     13  C   UNL     1       0.646   3.749   0.000  0.00  0.00    -0.003 A 
BRANCH  11  14
ATOM     14  C   UNL     1       1.361   1.687   0.000  0.00  0.00    +0.388 C 
ATOM     15  O   UNL     1       0.646   1.274   0.000  0.00  0.00    -0.241 OA
ATOM     16  O   UNL     1       2.075   1.274   0.000  0.00  0.00    -0.241 OA
ENDBRANCH  11  14
ENDBRANCH   7   8
ENDBRANCH   6   7
TORSDOF 8
