REMARK  Name = 
REMARK  9 active torsions:
REMARK  status: ('A' for Active; 'I' for Inactive)
REMARK    1  A    between atoms: O_2  and  C_3
REMARK    2  A    between atoms: C_6  and  O_7
REMARK    3  A    between atoms: C_9  and  S_11
REMARK    4  A    between atoms: S_11  and  N_14
REMARK    5  A    between atoms: N_14  and  C_15
REMARK    6  A    between atoms: C_15  and  C_16
REMARK    7  A    between atoms: C_23  and  C_24
REMARK    8  A    between atoms: C_26  and  C_30
REMARK    9  A    between atoms: C_33  and  N_36
REMARK                            x       y       z     vdW  Elec       q    Type
REMARK                         _______ _______ _______ _____ _____    ______ ____
ROOT
ATOM     16  C   UNL     1       1.814  -2.106   0.000  0.00  0.00    +0.077 C 
ATOM     17  C   UNL     1       1.661  -1.343   0.000  0.00  0.00    +0.018 C 
ATOM     18  C   UNL     1       0.923  -1.010   0.000  0.00  0.00    +0.010 C 
ATOM     19  C   UNL     1       0.961  -0.114   0.000  0.00  0.00    +0.018 C 
ATOM     20  C   UNL     1       1.205  -0.720   0.000  0.00  0.00    +0.072 C 
ATOM     21  N   UNL     1       1.065  -1.759   0.000  0.00  0.00    -0.272 NA
ATOM     22  C   UNL     1       0.226  -2.118   0.000  0.00  0.00    +0.078 C 
ATOM     23  C   UNL     1       0.119  -1.362   0.000  0.00  0.00    +0.056 C 
ENDROOT
BRANCH  23  24
ATOM     24  C   UNL     1      -0.602  -0.960   0.000  0.00  0.00    +0.058 A 
ATOM     25  C   UNL     1      -1.350  -1.307   0.000  0.00  0.00    +0.035 A 
ATOM     26  C   UNL     1      -1.911  -0.703   0.000  0.00  0.00    +0.102 A 
ATOM     27  N   UNL     1      -1.510   0.018   0.000  0.00  0.00    -0.170 NA
ATOM     28  N   UNL     1      -0.700  -0.141   0.000  0.00  0.00    -0.253 N 
ATOM     29  C   UNL     1      -0.095   0.420   0.000  0.00  0.00    +0.153 C 
BRANCH  26  30
ATOM     30  C   UNL     1      -2.730  -0.801   0.000  0.00  0.00    +0.019 A 
ATOM     31  C   UNL     1      -3.055  -1.560   0.000  0.00  0.00    +0.003 A 
ATOM     32  C   UNL     1      -3.874  -1.658   0.000  0.00  0.00    +0.015 A 
ATOM     33  C   UNL     1      -4.369  -0.998   0.000  0.00  0.00    +0.048 A 
ATOM     34  C   UNL     1      -4.044  -0.239   0.000  0.00  0.00    +0.015 A 
ATOM     35  C   UNL     1      -3.225  -0.141   0.000  0.00  0.00    +0.003 A 
BRANCH  33  36
ATOM     36  N   UNL     1      -5.188  -1.097   0.000  0.00  0.00    -0.304 N 
ATOM     37  C   UNL     1      -5.512  -1.855   0.000  0.00  0.00    +0.112 C 
ATOM     38  C   UNL     1      -5.683  -0.437   0.000  0.00  0.00    +0.112 C 
ENDBRANCH  33  36
ENDBRANCH  26  30
ENDBRANCH  23  24
BRANCH  16  15
ATOM     15  C   UNL     1       2.324  -2.754   0.000  0.00  0.00    +0.131 C 
BRANCH  15  14
ATOM     14  N   UNL     1       2.018  -3.520   0.000  0.00  0.00    -0.076 NA
BRANCH  14  11
ATOM     11  S   UNL     1       2.529  -4.168   0.000  0.00  0.00    +0.080 S 
ATOM     12  O   UNL     1       3.177  -3.658   0.000  0.00  0.00    -0.151 OA
ATOM     13  O   UNL     1       1.881  -4.678   0.000  0.00  0.00    -0.151 OA
BRANCH  11   9
ATOM      3  C   UNL     1       4.366  -5.346   0.000  0.00  0.00    +0.140 A 
ATOM      4  C   UNL     1       4.060  -6.112   0.000  0.00  0.00    +0.040 A 
ATOM      5  C   UNL     1       3.244  -6.230   0.000  0.00  0.00    +0.041 A 
ATOM      6  C   UNL     1       2.733  -5.582   0.000  0.00  0.00    +0.157 A 
ATOM      9  C   UNL     1       3.039  -4.816   0.000  0.00  0.00    +0.160 A 
ATOM     10  C   UNL     1       3.856  -4.698   0.000  0.00  0.00    +0.060 A 
BRANCH   3   2
ATOM      1  C   UNL     1       5.693  -5.876   0.000  0.00  0.00    +0.252 C 
ATOM      2  O   UNL     1       5.183  -5.228   0.000  0.00  0.00    -0.471 OA
ENDBRANCH   3   2
BRANCH   6   7
ATOM      7  O   UNL     1       1.917  -5.700   0.000  0.00  0.00    -0.470 OA
ATOM      8  C   UNL     1       1.406  -5.052   0.000  0.00  0.00    +0.253 C 
ENDBRANCH   6   7
ENDBRANCH  11   9
ENDBRANCH  14  11
ENDBRANCH  15  14
ENDBRANCH  16  15
TORSDOF 9
