REMARK  Name = 
REMARK  4 active torsions:
REMARK  status: ('A' for Active; 'I' for Inactive)
REMARK    1  A    between atoms: O_2  and  C_3
REMARK    2  A    between atoms: C_6  and  C_9
REMARK    3  A    between atoms: C_15  and  N_16
REMARK    4  A    between atoms: C_17  and  C_19
REMARK                            x       y       z     vdW  Elec       q    Type
REMARK                         _______ _______ _______ _____ _____    ______ ____
ROOT
ATOM      9  C   UNL     1       0.715   3.466   0.000  0.00  0.00    +0.048 C 
ATOM     10  C   UNL     1       1.382   2.981   0.000  0.00  0.00    +0.042 C 
ATOM     11  C   UNL     1       1.127   2.196   0.000  0.00  0.00    +0.184 C 
ATOM     12  O   UNL     1       1.612   1.529   0.000  0.00  0.00    -0.220 OA
ATOM     13  C   UNL     1       0.302   2.196   0.000  0.00  0.00    +0.202 C 
ATOM     14  O   UNL     1      -0.183   1.529   0.000  0.00  0.00    -0.219 OA
ATOM     15  C   UNL     1       0.047   2.981   0.000  0.00  0.00    +0.132 C 
ENDROOT
BRANCH   9   6
ATOM      3  C   UNL     1       0.715   5.941   0.000  0.00  0.00    +0.139 A 
ATOM      4  C   UNL     1       1.429   5.529   0.000  0.00  0.00    +0.037 A 
ATOM      5  C   UNL     1       1.429   4.704   0.000  0.00  0.00    -0.001 A 
ATOM      6  C   UNL     1       0.715   4.291   0.000  0.00  0.00    -0.020 A 
ATOM      7  C   UNL     1       0.000   4.704   0.000  0.00  0.00    -0.001 A 
ATOM      8  C   UNL     1       0.000   5.529   0.000  0.00  0.00    +0.037 A 
BRANCH   3   2
ATOM      1  C   UNL     1       0.000   7.179   0.000  0.00  0.00    +0.252 C 
ATOM      2  O   UNL     1       0.715   6.766   0.000  0.00  0.00    -0.471 OA
ENDBRANCH   3   2
ENDBRANCH   9   6
BRANCH  15  16
ATOM     16  N   UNL     1      -0.738   3.236   0.000  0.00  0.00    -0.204 NA
ATOM     17  C   UNL     1      -1.351   2.684   0.000  0.00  0.00    +0.241 C 
ATOM     18  O   UNL     1      -1.179   1.877   0.000  0.00  0.00    -0.273 OA
BRANCH  17  19
ATOM     19  C   UNL     1      -2.135   2.939   0.000  0.00  0.00    +0.078 C 
ATOM     20  C   UNL     1      -2.803   2.454   0.000  0.00  0.00    +0.009 C 
ATOM     21  C   UNL     1      -3.470   2.939   0.000  0.00  0.00    +0.001 C 
ATOM     22  C   UNL     1      -3.215   3.724   0.000  0.00  0.00    +0.001 C 
ATOM     23  C   UNL     1      -2.390   3.724   0.000  0.00  0.00    +0.009 C 
ENDBRANCH  17  19
ENDBRANCH  15  16
TORSDOF 4
