REMARK  Name = 
REMARK  6 active torsions:
REMARK  status: ('A' for Active; 'I' for Inactive)
REMARK    1  A    between atoms: C_5  and  C_6
REMARK    2  A    between atoms: C_6  and  C_7
REMARK    3  A    between atoms: N_12  and  C_15
REMARK    4  A    between atoms: C_23  and  C_24
REMARK    5  A    between atoms: C_24  and  N_25
REMARK    6  A    between atoms: N_28  and  C_29
REMARK                            x       y       z     vdW  Elec       q    Type
REMARK                         _______ _______ _______ _____ _____    ______ ____
ROOT
ATOM      1  O   UNL     1       2.143  -2.888   0.000  0.00  0.00    -0.218 OA
ATOM      2  C   UNL     1       2.143  -3.712   0.000  0.00  0.00    +0.213 C 
ATOM      3  C   UNL     1       2.811  -4.197   0.000  0.00  0.00    +0.212 C 
ATOM      4  O   UNL     1       3.595  -3.942   0.000  0.00  0.00    -0.218 OA
ATOM      5  C   UNL     1       2.556  -4.982   0.000  0.00  0.00    +0.157 C 
ATOM     22  O   UNL     1       1.731  -4.982   0.000  0.00  0.00    -0.351 OA
ATOM     23  C   UNL     1       1.476  -4.197   0.000  0.00  0.00    +0.170 C 
ENDROOT
BRANCH   5   6
ATOM      6  C   UNL     1       3.041  -5.649   0.000  0.00  0.00    +0.117 C 
BRANCH   6   7
ATOM      7  C   UNL     1       3.861  -5.563   0.000  0.00  0.00    +0.228 C 
ATOM      8  O   UNL     1       4.197  -4.810   0.000  0.00  0.00    -0.275 OA
ATOM      9  N   UNL     1       4.346  -6.231   0.000  0.00  0.00    -0.276 N 
ATOM     10  C   UNL     1       5.167  -6.144   0.000  0.00  0.00    +0.115 C 
ATOM     11  C   UNL     1       5.652  -6.812   0.000  0.00  0.00    +0.112 C 
ATOM     12  N   UNL     1       5.316  -7.566   0.000  0.00  0.00    -0.304 N 
ATOM     13  C   UNL     1       4.496  -7.652   0.000  0.00  0.00    +0.112 C 
ATOM     14  C   UNL     1       4.011  -6.984   0.000  0.00  0.00    +0.115 C 
BRANCH  12  15
ATOM     15  C   UNL     1       5.801  -8.233   0.000  0.00  0.00    +0.048 A 
ATOM     16  C   UNL     1       6.622  -8.147   0.000  0.00  0.00    +0.017 A 
ATOM     17  C   UNL     1       7.106  -8.814   0.000  0.00  0.00    +0.031 A 
ATOM     18  C   UNL     1       6.771  -9.568   0.000  0.00  0.00    +0.140 A 
ATOM     19  F   UNL     1       7.256 -10.235   0.000  0.00  0.00    -0.204 F 
ATOM     20  C   UNL     1       5.950  -9.654   0.000  0.00  0.00    +0.031 A 
ATOM     21  C   UNL     1       5.465  -8.987   0.000  0.00  0.00    +0.017 A 
ENDBRANCH  12  15
ENDBRANCH   6   7
ENDBRANCH   5   6
BRANCH  23  24
ATOM     24  C   UNL     1       0.691  -3.942   0.000  0.00  0.00    +0.149 C 
BRANCH  24  25
ATOM     25  N   UNL     1       0.078  -4.495   0.000  0.00  0.00    -0.184 NA
ATOM     26  C   UNL     1      -0.706  -4.240   0.000  0.00  0.00    +0.344 C 
ATOM     27  O   UNL     1      -0.878  -3.433   0.000  0.00  0.00    -0.249 OA
ATOM     28  N   UNL     1      -1.319  -4.792   0.000  0.00  0.00    -0.159 NA
BRANCH  28  29
ATOM     29  C   UNL     1      -2.104  -4.537   0.000  0.00  0.00    +0.102 A 
ATOM     30  C   UNL     1      -2.717  -5.089   0.000  0.00  0.00    +0.021 A 
ATOM     31  C   UNL     1      -3.502  -4.834   0.000  0.00  0.00    +0.031 A 
ATOM     32  C   UNL     1      -3.673  -4.027   0.000  0.00  0.00    +0.142 A 
ATOM     33  F   UNL     1      -4.458  -3.772   0.000  0.00  0.00    -0.204 F 
ATOM     34  C   UNL     1      -3.060  -3.475   0.000  0.00  0.00    +0.061 A 
ATOM     35  C   UNL     1      -2.276  -3.730   0.000  0.00  0.00    +0.158 A 
ATOM     36  F   UNL     1      -1.663  -3.178   0.000  0.00  0.00    -0.203 F 
ENDBRANCH  28  29
ENDBRANCH  24  25
ENDBRANCH  23  24
TORSDOF 6
