REMARK  Name = 
REMARK  8 active torsions:
REMARK  status: ('A' for Active; 'I' for Inactive)
REMARK    1  A    between atoms: N_2  and  C_3
REMARK    2  A    between atoms: N_2  and  C_11
REMARK    3  A    between atoms: C_3  and  C_4
REMARK    4  A    between atoms: C_4  and  C_5
REMARK    5  A    between atoms: C_12  and  C_13
REMARK    6  A    between atoms: C_13  and  N_14
REMARK    7  A    between atoms: N_17  and  C_18
REMARK    8  A    between atoms: C_27  and  C_28
REMARK                            x       y       z     vdW  Elec       q    Type
REMARK                         _______ _______ _______ _____ _____    ______ ____
ROOT
ATOM     11  C   UNL     1      -0.086  -1.655   0.000  0.00  0.00    +0.120 C 
ATOM     12  C   UNL     1       0.000  -2.475   0.000  0.00  0.00    +0.154 C 
ATOM     26  O   UNL     1      -0.754  -2.811   0.000  0.00  0.00    -0.350 OA
ATOM     27  C   UNL     1      -1.306  -2.197   0.000  0.00  0.00    +0.180 C 
ATOM     30  C   UNL     1      -0.893  -1.483   0.000  0.00  0.00    +0.198 C 
ATOM     31  O   UNL     1      -1.229  -0.729   0.000  0.00  0.00    -0.219 OA
ENDROOT
BRANCH  11   2
ATOM      1  C   UNL     1       1.312  -1.357   0.000  0.00  0.00    +0.090 C 
ATOM      2  N   UNL     1       0.527  -1.103   0.000  0.00  0.00    -0.268 NA
BRANCH   2   3
ATOM      3  C   UNL     1       0.355  -0.295   0.000  0.00  0.00    +0.079 C 
BRANCH   3   4
ATOM      4  C   UNL     1       0.968   0.257   0.000  0.00  0.00    +0.063 C 
BRANCH   4   5
ATOM      5  C   UNL     1       0.797   1.063   0.000  0.00  0.00    +0.060 A 
ATOM      6  N   UNL     1       0.012   1.318   0.000  0.00  0.00    -0.248 NA
ATOM      7  C   UNL     1      -0.159   2.125   0.000  0.00  0.00    +0.098 A 
ATOM      8  C   UNL     1       0.454   2.677   0.000  0.00  0.00    +0.021 A 
ATOM      9  C   UNL     1       1.238   2.422   0.000  0.00  0.00    +0.003 A 
ATOM     10  C   UNL     1       1.410   1.615   0.000  0.00  0.00    +0.015 A 
ENDBRANCH   4   5
ENDBRANCH   3   4
ENDBRANCH   2   3
ENDBRANCH  11   2
BRANCH  27  28
ATOM     28  C   UNL     1      -2.126  -2.284   0.000  0.00  0.00    +0.214 C 
ATOM     29  O   UNL     1      -2.611  -1.616   0.000  0.00  0.00    -0.218 OA
ENDBRANCH  27  28
BRANCH  12  13
ATOM     13  C   UNL     1       0.715  -2.888   0.000  0.00  0.00    +0.148 C 
BRANCH  13  14
ATOM     14  N   UNL     1       1.429  -2.475   0.000  0.00  0.00    -0.184 NA
ATOM     15  C   UNL     1       2.143  -2.888   0.000  0.00  0.00    +0.344 C 
ATOM     16  O   UNL     1       2.143  -3.712   0.000  0.00  0.00    -0.249 OA
ATOM     17  N   UNL     1       2.858  -2.475   0.000  0.00  0.00    -0.159 NA
BRANCH  17  18
ATOM     18  C   UNL     1       3.572  -2.888   0.000  0.00  0.00    +0.102 A 
ATOM     19  C   UNL     1       4.287  -2.475   0.000  0.00  0.00    +0.021 A 
ATOM     20  C   UNL     1       5.001  -2.888   0.000  0.00  0.00    +0.031 A 
ATOM     21  C   UNL     1       5.001  -3.712   0.000  0.00  0.00    +0.142 A 
ATOM     22  F   UNL     1       5.716  -4.125   0.000  0.00  0.00    -0.204 F 
ATOM     23  C   UNL     1       4.287  -4.125   0.000  0.00  0.00    +0.061 A 
ATOM     24  C   UNL     1       3.572  -3.712   0.000  0.00  0.00    +0.158 A 
ATOM     25  F   UNL     1       2.858  -4.125   0.000  0.00  0.00    -0.203 F 
ENDBRANCH  17  18
ENDBRANCH  13  14
ENDBRANCH  12  13
TORSDOF 8
