REMARK  Name = 
REMARK  4 active torsions:
REMARK  status: ('A' for Active; 'I' for Inactive)
REMARK    1  A    between atoms: C_2  and  C_26
REMARK    2  A    between atoms: C_8  and  C_9
REMARK    3  A    between atoms: C_11  and  C_14
REMARK    4  A    between atoms: C_29  and  C_32
REMARK                            x       y       z     vdW  Elec       q    Type
REMARK                         _______ _______ _______ _____ _____    ______ ____
ROOT
ATOM      1  O   UNL     1       4.983   0.287   0.000  0.00  0.00    -0.270 OA
ATOM      2  C   UNL     1       5.319  -0.467   0.000  0.00  0.00    +0.250 C 
ATOM      3  N   UNL     1       4.834  -1.134   0.000  0.00  0.00    -0.263 N 
ATOM      4  C   UNL     1       5.169  -1.888   0.000  0.00  0.00    +0.141 C 
ATOM      5  C   UNL     1       4.684  -2.555   0.000  0.00  0.00    +0.094 A 
ATOM      6  C   UNL     1       3.864  -2.469   0.000  0.00  0.00    +0.078 A 
ATOM      7  C   UNL     1       3.528  -1.715   0.000  0.00  0.00    +0.077 C 
ATOM      8  C   UNL     1       4.013  -1.048   0.000  0.00  0.00    +0.161 C 
ATOM     23  N   UNL     1       3.528  -3.223   0.000  0.00  0.00    -0.227 NA
ATOM     24  C   UNL     1       4.141  -3.775   0.000  0.00  0.00    +0.198 A 
ATOM     25  N   UNL     1       4.856  -3.362   0.000  0.00  0.00    -0.225 NA
ENDROOT
BRANCH   2  26
ATOM     26  C   UNL     1       6.139  -0.553   0.000  0.00  0.00    +0.054 A 
ATOM     27  C   UNL     1       6.624   0.115   0.000  0.00  0.00    +0.005 A 
ATOM     28  C   UNL     1       7.445   0.028   0.000  0.00  0.00    +0.010 A 
ATOM     29  C   UNL     1       7.780  -0.725   0.000  0.00  0.00    +0.068 A 
ATOM     30  C   UNL     1       7.295  -1.393   0.000  0.00  0.00    +0.010 A 
ATOM     31  C   UNL     1       6.475  -1.306   0.000  0.00  0.00    +0.005 A 
BRANCH  29  32
ATOM     32  C   UNL     1       8.601  -0.811   0.000  0.00  0.00    +0.100 C 
ATOM     33  N   UNL     1       9.421  -0.898   0.000  0.00  0.00    -0.191 NA
ENDBRANCH  29  32
ENDBRANCH   2  26
BRANCH   8   9
ATOM      9  C   UNL     1       3.678  -0.294   0.000  0.00  0.00    +0.255 A 
ATOM     10  N   UNL     1       2.871  -0.122   0.000  0.00  0.00    -0.189 NA
ATOM     11  C   UNL     1       2.784   0.698   0.000  0.00  0.00    +0.203 A 
ATOM     12  N   UNL     1       3.538   1.034   0.000  0.00  0.00    -0.056 NA
ATOM     13  O   UNL     1       4.090   0.420   0.000  0.00  0.00    -0.335 OA
BRANCH  11  14
ATOM     14  C   UNL     1       2.070   1.110   0.000  0.00  0.00    +0.042 A 
ATOM     15  C   UNL     1       1.356   0.698   0.000  0.00  0.00    +0.043 A 
ATOM     16  C   UNL     1       0.641   1.110   0.000  0.00  0.00    +0.177 A 
ATOM     17  C   UNL     1       0.641   1.935   0.000  0.00  0.00    +0.176 A 
ATOM     18  O   UNL     1      -0.143   2.190   0.000  0.00  0.00    -0.435 OA
ATOM     19  C   UNL     1      -0.628   1.523   0.000  0.00  0.00    +0.429 C 
ATOM     20  O   UNL     1      -0.143   0.856   0.000  0.00  0.00    -0.435 OA
ATOM     21  C   UNL     1       1.356   2.348   0.000  0.00  0.00    +0.040 A 
ATOM     22  C   UNL     1       2.070   1.935   0.000  0.00  0.00    +0.006 A 
ENDBRANCH  11  14
ENDBRANCH   8   9
TORSDOF 4
