REMARK  Name = 
REMARK  2 active torsions:
REMARK  status: ('A' for Active; 'I' for Inactive)
REMARK    1  A    between atoms: N_8  and  C_9
REMARK    2  A    between atoms: C_9  and  C_10
REMARK                            x       y       z     vdW  Elec       q    Type
REMARK                         _______ _______ _______ _____ _____    ______ ____
ROOT
ATOM      1  C   UNL     1       4.067   2.348   0.000  0.00  0.00    +0.090 C 
ATOM      2  N   UNL     1       3.352   1.935   0.000  0.00  0.00    -0.269 NA
ATOM      3  C   UNL     1       3.352   1.110   0.000  0.00  0.00    +0.094 C 
ATOM      4  C   UNL     1       2.638   0.698   0.000  0.00  0.00    +0.112 C 
ATOM      5  N   UNL     1       1.923   1.110   0.000  0.00  0.00    -0.261 N 
ATOM      6  C   UNL     1       1.923   1.935   0.000  0.00  0.00    +0.113 C 
ATOM      7  C   UNL     1       1.139   2.190   0.000  0.00  0.00    +0.116 C 
ATOM      8  N   UNL     1       0.654   1.523   0.000  0.00  0.00    -0.258 N 
ATOM     16  C   UNL     1       1.139   0.856   0.000  0.00  0.00    +0.308 C 
ATOM     17  O   UNL     1       0.884   0.071   0.000  0.00  0.00    -0.252 OA
ATOM     18  C   UNL     1       2.638   2.348   0.000  0.00  0.00    +0.094 C 
ENDROOT
BRANCH   8   9
ATOM      9  C   UNL     1      -0.171   1.523   0.000  0.00  0.00    +0.123 C 
BRANCH   9  10
ATOM     10  C   UNL     1      -0.584   2.237   0.000  0.00  0.00    +0.017 A 
ATOM     11  C   UNL     1      -1.409   2.237   0.000  0.00  0.00    +0.001 A 
ATOM     12  C   UNL     1      -1.821   2.952   0.000  0.00  0.00    +0.020 A 
ATOM     13  C   UNL     1      -1.409   3.666   0.000  0.00  0.00    +0.099 A 
ATOM     14  N   UNL     1      -0.584   3.666   0.000  0.00  0.00    -0.243 NA
ATOM     15  C   UNL     1      -0.171   2.952   0.000  0.00  0.00    +0.096 A 
ENDBRANCH   9  10
ENDBRANCH   8   9
TORSDOF 2
