REMARK  Name = 
REMARK  4 active torsions:
REMARK  status: ('A' for Active; 'I' for Inactive)
REMARK    1  A    between atoms: N_2  and  C_4
REMARK    2  A    between atoms: C_7  and  C_10
REMARK    3  A    between atoms: C_14  and  C_16
REMARK    4  A    between atoms: C_23  and  C_24
REMARK                            x       y       z     vdW  Elec       q    Type
REMARK                         _______ _______ _______ _____ _____    ______ ____
ROOT
ATOM     10  C   UNL     1       3.043   0.285   0.000  0.00  0.00    +0.102 A 
ATOM     11  N   UNL     1       3.557  -0.360   0.000  0.00  0.00    -0.170 NA
ATOM     12  N   UNL     1       3.102  -1.048   0.000  0.00  0.00    -0.253 N 
ATOM     13  C   UNL     1       3.391  -1.821   0.000  0.00  0.00    +0.153 C 
ATOM     14  C   UNL     1       2.307  -0.828   0.000  0.00  0.00    +0.058 A 
ATOM     15  C   UNL     1       2.270  -0.004   0.000  0.00  0.00    +0.035 A 
ENDROOT
BRANCH  14  16
ATOM     16  C   UNL     1       1.661  -1.343   0.000  0.00  0.00    +0.056 C 
ATOM     17  C   UNL     1       1.814  -2.106   0.000  0.00  0.00    +0.078 C 
ATOM     18  N   UNL     1       1.065  -1.759   0.000  0.00  0.00    -0.272 NA
ATOM     19  C   UNL     1       1.205  -0.720   0.000  0.00  0.00    +0.072 C 
ATOM     20  C   UNL     1       0.961  -0.114   0.000  0.00  0.00    +0.018 C 
ATOM     21  C   UNL     1       0.923  -1.010   0.000  0.00  0.00    +0.010 C 
ATOM     22  C   UNL     1       0.119  -1.362   0.000  0.00  0.00    +0.018 C 
ATOM     23  C   UNL     1       0.226  -2.118   0.000  0.00  0.00    +0.077 C 
BRANCH  23  24
ATOM     24  C   UNL     1      -0.179  -2.836   0.000  0.00  0.00    +0.125 C 
ATOM     25  N   UNL     1       0.241  -3.546   0.000  0.00  0.00    -0.130 NA
ENDBRANCH  23  24
ENDBRANCH  14  16
BRANCH  10   7
ATOM      4  C   UNL     1       3.702   2.671   0.000  0.00  0.00    +0.048 A 
ATOM      5  C   UNL     1       4.281   2.083   0.000  0.00  0.00    +0.015 A 
ATOM      6  C   UNL     1       4.061   1.288   0.000  0.00  0.00    +0.003 A 
ATOM      7  C   UNL     1       3.263   1.080   0.000  0.00  0.00    +0.019 A 
ATOM      8  C   UNL     1       2.684   1.668   0.000  0.00  0.00    +0.003 A 
ATOM      9  C   UNL     1       2.904   2.464   0.000  0.00  0.00    +0.015 A 
BRANCH   4   2
ATOM      1  C   UNL     1       3.343   4.054   0.000  0.00  0.00    +0.112 C 
ATOM      2  N   UNL     1       3.922   3.466   0.000  0.00  0.00    -0.304 N 
ATOM      3  C   UNL     1       4.721   3.673   0.000  0.00  0.00    +0.112 C 
ENDBRANCH   4   2
ENDBRANCH  10   7
TORSDOF 4
