REMARK  Name = 
REMARK  5 active torsions:
REMARK  status: ('A' for Active; 'I' for Inactive)
REMARK    1  A    between atoms: C_5  and  C_6
REMARK    2  A    between atoms: C_6  and  N_7
REMARK    3  A    between atoms: C_17  and  C_19
REMARK    4  A    between atoms: C_19  and  O_20
REMARK    5  A    between atoms: O_20  and  C_21
REMARK                            x       y       z     vdW  Elec       q    Type
REMARK                         _______ _______ _______ _____ _____    ______ ____
ROOT
ATOM      7  N   UNL     1       0.715  -0.412   0.000  0.00  0.00    -0.271 N 
ATOM      8  C   UNL     1       0.000   0.000   0.000  0.00  0.00    +0.124 C 
ATOM      9  C   UNL     1      -0.785  -0.255   0.000  0.00  0.00    +0.116 C 
ATOM     10  N   UNL     1      -1.270   0.412   0.000  0.00  0.00    -0.272 N 
ATOM     11  C   UNL     1      -0.785   1.080   0.000  0.00  0.00    +0.125 C 
ATOM     12  C   UNL     1       0.000   0.825   0.000  0.00  0.00    +0.155 C 
ATOM     13  O   UNL     1       0.715   1.238   0.000  0.00  0.00    -0.343 OA
ATOM     14  C   UNL     1       1.429   0.825   0.000  0.00  0.00    +0.227 C 
ATOM     15  C   UNL     1       1.429   0.000   0.000  0.00  0.00    +0.256 C 
ATOM     16  O   UNL     1       2.143  -0.412   0.000  0.00  0.00    -0.272 OA
ATOM     17  C   UNL     1      -2.095   0.412   0.000  0.00  0.00    +0.270 C 
ATOM     18  O   UNL     1      -2.507  -0.302   0.000  0.00  0.00    -0.271 OA
ENDROOT
BRANCH   7   6
ATOM      6  C   UNL     1       0.715  -1.238   0.000  0.00  0.00    +0.120 C 
BRANCH   6   5
ATOM      1  F   UNL     1       3.572  -2.888   0.000  0.00  0.00    -0.204 F 
ATOM      2  C   UNL     1       2.858  -2.475   0.000  0.00  0.00    +0.140 A 
ATOM      3  C   UNL     1       2.143  -2.888   0.000  0.00  0.00    +0.029 A 
ATOM      4  C   UNL     1       1.429  -2.475   0.000  0.00  0.00    -0.000 A 
ATOM      5  C   UNL     1       1.429  -1.650   0.000  0.00  0.00    -0.002 A 
ATOM     27  C   UNL     1       2.143  -1.238   0.000  0.00  0.00    -0.000 A 
ATOM     28  C   UNL     1       2.858  -1.650   0.000  0.00  0.00    +0.029 A 
ENDBRANCH   6   5
ENDBRANCH   7   6
BRANCH  17  19
ATOM     19  C   UNL     1      -2.507   1.127   0.000  0.00  0.00    +0.290 C 
BRANCH  19  20
ATOM     20  O   UNL     1      -3.332   1.127   0.000  0.00  0.00    -0.466 OA
BRANCH  20  21
ATOM     21  C   UNL     1      -3.744   1.841   0.000  0.00  0.00    +0.139 A 
ATOM     22  C   UNL     1      -4.569   1.841   0.000  0.00  0.00    +0.037 A 
ATOM     23  C   UNL     1      -4.982   2.556   0.000  0.00  0.00    +0.003 A 
ATOM     24  C   UNL     1      -4.569   3.270   0.000  0.00  0.00    +0.000 A 
ATOM     25  C   UNL     1      -3.744   3.270   0.000  0.00  0.00    +0.003 A 
ATOM     26  C   UNL     1      -3.332   2.556   0.000  0.00  0.00    +0.037 A 
ENDBRANCH  20  21
ENDBRANCH  19  20
ENDBRANCH  17  19
TORSDOF 5
