REMARK  Name = 
REMARK  7 active torsions:
REMARK  status: ('A' for Active; 'I' for Inactive)
REMARK    1  A    between atoms: C_2  and  C_5
REMARK    2  A    between atoms: C_8  and  C_11
REMARK    3  A    between atoms: C_13  and  C_14
REMARK    4  A    between atoms: C_14  and  C_15
REMARK    5  A    between atoms: C_20  and  C_21
REMARK    6  A    between atoms: C_21  and  C_22
REMARK    7  A    between atoms: N_24  and  C_25
REMARK                            x       y       z     vdW  Elec       q    Type
REMARK                         _______ _______ _______ _____ _____    ______ ____
ROOT
ATOM     11  C   UNL     1      -1.306  -1.927   0.000  0.00  0.00    +0.177 A 
ATOM     12  C   UNL     1      -0.754  -1.314   0.000  0.00  0.00    +0.058 A 
ATOM     13  C   UNL     1       0.000  -1.650   0.000  0.00  0.00    +0.101 A 
ATOM     28  N   UNL     1      -0.086  -2.470   0.000  0.00  0.00    -0.081 NA
ATOM     29  O   UNL     1      -0.893  -2.642   0.000  0.00  0.00    -0.354 OA
ENDROOT
BRANCH  11   8
ATOM      5  C   UNL     1      -3.767  -1.669   0.000  0.00  0.00    -0.023 A 
ATOM      6  C   UNL     1      -3.282  -1.001   0.000  0.00  0.00    -0.004 A 
ATOM      7  C   UNL     1      -2.462  -1.088   0.000  0.00  0.00    +0.003 A 
ATOM      8  C   UNL     1      -2.126  -1.841   0.000  0.00  0.00    +0.037 A 
ATOM      9  C   UNL     1      -2.611  -2.509   0.000  0.00  0.00    +0.003 A 
ATOM     10  C   UNL     1      -3.432  -2.422   0.000  0.00  0.00    -0.004 A 
BRANCH   5   2
ATOM      1  C   UNL     1      -5.408  -1.496   0.000  0.00  0.00    +0.004 C 
ATOM      2  C   UNL     1      -4.588  -1.583   0.000  0.00  0.00    +0.019 C 
ATOM      3  C   UNL     1      -4.674  -2.403   0.000  0.00  0.00    +0.004 C 
ATOM      4  C   UNL     1      -4.501  -0.762   0.000  0.00  0.00    +0.004 C 
ENDBRANCH   5   2
ENDBRANCH  11   8
BRANCH  13  14
ATOM     14  C   UNL     1       0.715  -1.238   0.000  0.00  0.00    +0.051 C 
BRANCH  14  15
ATOM     15  C   UNL     1       0.715  -0.412   0.000  0.00  0.00    +0.024 C 
ATOM     16  C   UNL     1       0.000   0.000   0.000  0.00  0.00    +0.089 C 
ATOM     17  N   UNL     1       0.000   0.825   0.000  0.00  0.00    -0.218 NA
ATOM     18  C   UNL     1       0.715   1.238   0.000  0.00  0.00    +0.089 C 
ATOM     19  C   UNL     1       1.429   0.825   0.000  0.00  0.00    +0.019 C 
ATOM     20  C   UNL     1       1.429   0.000   0.000  0.00  0.00    +0.012 C 
BRANCH  20  21
ATOM     21  C   UNL     1       2.143  -0.412   0.000  0.00  0.00    +0.087 C 
BRANCH  21  22
ATOM     22  C   UNL     1       2.143  -1.238   0.000  0.00  0.00    +0.241 C 
ATOM     23  O   UNL     1       1.429  -1.650   0.000  0.00  0.00    -0.273 OA
ATOM     24  N   UNL     1       2.858  -1.650   0.000  0.00  0.00    -0.207 NA
BRANCH  24  25
ATOM     25  C   UNL     1       2.858  -2.475   0.000  0.00  0.00    +0.095 C 
ATOM     26  C   UNL     1       3.270  -3.189   0.000  0.00  0.00    +0.023 C 
ATOM     27  C   UNL     1       2.445  -3.189   0.000  0.00  0.00    +0.023 C 
ENDBRANCH  24  25
ENDBRANCH  21  22
ENDBRANCH  20  21
ENDBRANCH  14  15
ENDBRANCH  13  14
TORSDOF 7
