REMARK  Name = 
REMARK  8 active torsions:
REMARK  status: ('A' for Active; 'I' for Inactive)
REMARK    1  A    between atoms: O_2  and  C_3
REMARK    2  A    between atoms: C_3  and  C_4
REMARK    3  A    between atoms: N_8  and  C_9
REMARK    4  A    between atoms: C_9  and  C_10
REMARK    5  A    between atoms: C_17  and  C_18
REMARK    6  A    between atoms: C_18  and  N_19
REMARK    7  A    between atoms: N_19  and  S_20
REMARK    8  A    between atoms: S_20  and  C_23
REMARK                            x       y       z     vdW  Elec       q    Type
REMARK                         _______ _______ _______ _____ _____    ______ ____
ROOT
ATOM     10  C   UNL     1       1.661  -1.343   0.000  0.00  0.00    +0.032 C 
ATOM     11  C   UNL     1       1.814  -2.106   0.000  0.00  0.00    +0.073 C 
ATOM     12  N   UNL     1       1.065  -1.759   0.000  0.00  0.00    -0.272 NA
ATOM     13  C   UNL     1       1.205  -0.720   0.000  0.00  0.00    +0.072 C 
ATOM     14  C   UNL     1       0.961  -0.114   0.000  0.00  0.00    +0.017 C 
ATOM     15  C   UNL     1       0.923  -1.010   0.000  0.00  0.00    +0.005 C 
ATOM     16  C   UNL     1       0.119  -1.362   0.000  0.00  0.00    +0.018 C 
ATOM     17  C   UNL     1       0.226  -2.118   0.000  0.00  0.00    +0.077 C 
ENDROOT
BRANCH  10   9
ATOM      9  C   UNL     1       2.307  -0.828   0.000  0.00  0.00    +0.073 C 
BRANCH   9   8
ATOM      4  C   UNL     1       3.770  -0.686   0.000  0.00  0.00    +0.087 C 
ATOM      5  C   UNL     1       4.407  -1.211   0.000  0.00  0.00    +0.020 C 
ATOM      6  C   UNL     1       4.105  -1.978   0.000  0.00  0.00    +0.019 C 
ATOM      7  C   UNL     1       3.282  -1.929   0.000  0.00  0.00    +0.072 C 
ATOM      8  N   UNL     1       3.075  -1.130   0.000  0.00  0.00    -0.272 NA
BRANCH   4   3
ATOM      3  C   UNL     1       3.820   0.137   0.000  0.00  0.00    +0.158 C 
BRANCH   3   2
ATOM      1  C   UNL     1       4.607   1.329   0.000  0.00  0.00    +0.174 C 
ATOM      2  O   UNL     1       4.558   0.506   0.000  0.00  0.00    -0.350 OA
ENDBRANCH   3   2
ENDBRANCH   4   3
ENDBRANCH   9   8
ENDBRANCH  10   9
BRANCH  17  18
ATOM     18  C   UNL     1      -0.179  -2.836   0.000  0.00  0.00    +0.131 C 
BRANCH  18  19
ATOM     19  N   UNL     1       0.241  -3.546   0.000  0.00  0.00    -0.076 NA
BRANCH  19  20
ATOM     20  S   UNL     1      -0.163  -4.265   0.000  0.00  0.00    +0.083 S 
ATOM     21  O   UNL     1      -0.882  -3.860   0.000  0.00  0.00    -0.151 OA
ATOM     22  O   UNL     1       0.556  -4.670   0.000  0.00  0.00    -0.151 OA
BRANCH  20  23
ATOM     23  C   UNL     1      -0.568  -4.984   0.000  0.00  0.00    +0.153 A 
ATOM     24  C   UNL     1      -0.225  -5.734   0.000  0.00  0.00    +0.027 A 
ATOM     25  C   UNL     1      -0.832  -6.293   0.000  0.00  0.00    +0.009 A 
ATOM     26  C   UNL     1      -1.550  -5.888   0.000  0.00  0.00    +0.037 A 
ATOM     27  S   UNL     1      -1.388  -5.079   0.000  0.00  0.00    -0.067 S 
ENDBRANCH  20  23
ENDBRANCH  19  20
ENDBRANCH  18  19
ENDBRANCH  17  18
TORSDOF 8
