REMARK  Name = 
REMARK  5 active torsions:
REMARK  status: ('A' for Active; 'I' for Inactive)
REMARK    1  A    between atoms: C_3  and  C_4
REMARK    2  A    between atoms: C_4  and  N_5
REMARK    3  A    between atoms: N_8  and  C_9
REMARK    4  A    between atoms: C_17  and  N_18
REMARK    5  A    between atoms: N_18  and  C_19
REMARK                            x       y       z     vdW  Elec       q    Type
REMARK                         _______ _______ _______ _____ _____    ______ ____
ROOT
ATOM      1  O   UNL     1      -4.403  -2.339   0.000  0.00  0.00    -0.219 OA
ATOM      2  C   UNL     1      -4.232  -3.146   0.000  0.00  0.00    +0.199 C 
ATOM      3  C   UNL     1      -3.478  -3.482   0.000  0.00  0.00    +0.169 C 
ATOM     15  O   UNL     1      -3.564  -4.302   0.000  0.00  0.00    -0.350 OA
ATOM     16  C   UNL     1      -4.371  -4.474   0.000  0.00  0.00    +0.162 C 
ATOM     17  C   UNL     1      -4.784  -3.760   0.000  0.00  0.00    +0.135 C 
ENDROOT
BRANCH   3   4
ATOM      4  C   UNL     1      -2.764  -3.069   0.000  0.00  0.00    +0.149 C 
BRANCH   4   5
ATOM      5  N   UNL     1      -2.049  -3.482   0.000  0.00  0.00    -0.184 NA
ATOM      6  C   UNL     1      -1.335  -3.069   0.000  0.00  0.00    +0.344 C 
ATOM      7  O   UNL     1      -1.335  -2.244   0.000  0.00  0.00    -0.249 OA
ATOM      8  N   UNL     1      -0.620  -3.482   0.000  0.00  0.00    -0.161 NA
BRANCH   8   9
ATOM      9  C   UNL     1       0.094  -3.069   0.000  0.00  0.00    +0.075 A 
ATOM     10  C   UNL     1       0.094  -2.244   0.000  0.00  0.00    +0.017 A 
ATOM     11  C   UNL     1       0.809  -1.832   0.000  0.00  0.00    +0.001 A 
ATOM     12  C   UNL     1       1.523  -2.244   0.000  0.00  0.00    +0.000 A 
ATOM     13  C   UNL     1       1.523  -3.069   0.000  0.00  0.00    +0.001 A 
ATOM     14  C   UNL     1       0.809  -3.482   0.000  0.00  0.00    +0.017 A 
ENDBRANCH   8   9
ENDBRANCH   4   5
ENDBRANCH   3   4
BRANCH  17  18
ATOM     18  N   UNL     1      -5.604  -3.673   0.000  0.00  0.00    -0.216 NA
BRANCH  18  19
ATOM     19  C   UNL     1      -6.089  -4.341   0.000  0.00  0.00    +0.073 C 
ATOM     20  C   UNL     1      -5.754  -5.094   0.000  0.00  0.00    +0.023 C 
ATOM     21  C   UNL     1      -6.239  -5.762   0.000  0.00  0.00    +0.068 C 
ATOM     22  C   UNL     1      -7.059  -5.676   0.000  0.00  0.00    +0.264 C 
ATOM     23  F   UNL     1      -7.002  -6.498   0.000  0.00  0.00    -0.204 F 
ATOM     24  F   UNL     1      -7.860  -5.875   0.000  0.00  0.00    -0.204 F 
ATOM     25  C   UNL     1      -7.395  -4.922   0.000  0.00  0.00    +0.068 C 
ATOM     26  C   UNL     1      -6.910  -4.254   0.000  0.00  0.00    +0.023 C 
ENDBRANCH  18  19
ENDBRANCH  17  18
TORSDOF 5
