REMARK  Name = 
REMARK  3 active torsions:
REMARK  status: ('A' for Active; 'I' for Inactive)
REMARK    1  A    between atoms: O_2  and  C_3
REMARK    2  A    between atoms: C_6  and  C_7
REMARK    3  A    between atoms: C_7  and  N_8
REMARK                            x       y       z     vdW  Elec       q    Type
REMARK                         _______ _______ _______ _____ _____    ______ ____
ROOT
ATOM      8  N   UNL     1       3.352   1.935   0.000  0.00  0.00    -0.266 NA
ATOM      9  C   UNL     1       3.352   1.110   0.000  0.00  0.00    +0.094 C 
ATOM     10  C   UNL     1       2.638   0.698   0.000  0.00  0.00    +0.112 C 
ATOM     11  N   UNL     1       1.923   1.110   0.000  0.00  0.00    -0.261 N 
ATOM     12  C   UNL     1       1.923   1.935   0.000  0.00  0.00    +0.113 C 
ATOM     13  C   UNL     1       1.139   2.190   0.000  0.00  0.00    +0.116 C 
ATOM     14  N   UNL     1       0.654   1.523   0.000  0.00  0.00    -0.261 N 
ATOM     15  C   UNL     1      -0.171   1.523   0.000  0.00  0.00    +0.117 C 
ATOM     16  C   UNL     1       1.139   0.856   0.000  0.00  0.00    +0.307 C 
ATOM     17  O   UNL     1       0.884   0.071   0.000  0.00  0.00    -0.252 OA
ATOM     18  C   UNL     1       2.638   2.348   0.000  0.00  0.00    +0.094 C 
ENDROOT
BRANCH   8   7
ATOM      7  C   UNL     1       4.067   2.348   0.000  0.00  0.00    +0.101 C 
BRANCH   7   6
ATOM      3  C   UNL     1       6.210   1.110   0.000  0.00  0.00    +0.225 A 
ATOM      4  C   UNL     1       5.496   0.698   0.000  0.00  0.00    +0.057 A 
ATOM      5  C   UNL     1       4.781   1.110   0.000  0.00  0.00    +0.003 A 
ATOM      6  C   UNL     1       4.781   1.935   0.000  0.00  0.00    +0.013 A 
ATOM     19  C   UNL     1       5.496   2.348   0.000  0.00  0.00    +0.099 A 
ATOM     20  N   UNL     1       6.210   1.935   0.000  0.00  0.00    -0.210 NA
BRANCH   3   2
ATOM      1  C   UNL     1       7.639   1.110   0.000  0.00  0.00    +0.254 C 
ATOM      2  O   UNL     1       6.925   0.698   0.000  0.00  0.00    -0.456 OA
ENDBRANCH   3   2
ENDBRANCH   7   6
ENDBRANCH   8   7
TORSDOF 3
