REMARK  Name = 
REMARK  5 active torsions:
REMARK  status: ('A' for Active; 'I' for Inactive)
REMARK    1  A    between atoms: C_6  and  N_7
REMARK    2  A    between atoms: N_10  and  C_11
REMARK    3  A    between atoms: C_16  and  C_17
REMARK    4  A    between atoms: C_17  and  C_18
REMARK    5  A    between atoms: C_18  and  C_19
REMARK                            x       y       z     vdW  Elec       q    Type
REMARK                         _______ _______ _______ _____ _____    ______ ____
ROOT
ATOM     11  C   UNL     1      -0.628  -0.698   0.000  0.00  0.00    +0.115 C 
ATOM     12  C   UNL     1      -0.143  -1.365   0.000  0.00  0.00    +0.049 C 
ATOM     13  C   UNL     1       0.641  -1.110   0.000  0.00  0.00    +0.138 C 
ATOM     14  N   UNL     1       0.641  -0.285   0.000  0.00  0.00    -0.265 NA
ATOM     15  C   UNL     1      -0.143  -0.030   0.000  0.00  0.00    +0.094 C 
ATOM     16  C   UNL     1       1.356   0.127   0.000  0.00  0.00    +0.080 C 
ATOM     27  C   UNL     1       2.070  -0.285   0.000  0.00  0.00    +0.131 C 
ATOM     28  N   UNL     1       2.070  -1.110   0.000  0.00  0.00    -0.203 NA
ATOM     29  C   UNL     1       1.356  -1.523   0.000  0.00  0.00    +0.256 C 
ATOM     30  O   UNL     1       1.356  -2.348   0.000  0.00  0.00    -0.272 OA
ENDROOT
BRANCH  11  10
ATOM      7  N   UNL     1      -2.691  -1.412   0.000  0.00  0.00    -0.159 NA
ATOM      8  C   UNL     1      -1.866  -1.412   0.000  0.00  0.00    +0.344 C 
ATOM      9  O   UNL     1      -1.453  -2.127   0.000  0.00  0.00    -0.249 OA
ATOM     10  N   UNL     1      -1.453  -0.698   0.000  0.00  0.00    -0.187 NA
BRANCH   7   6
ATOM      1  F   UNL     1      -4.341  -4.270   0.000  0.00  0.00    -0.204 F 
ATOM      2  C   UNL     1      -3.928  -3.556   0.000  0.00  0.00    +0.142 A 
ATOM      3  C   UNL     1      -4.341  -2.841   0.000  0.00  0.00    +0.061 A 
ATOM      4  C   UNL     1      -3.928  -2.127   0.000  0.00  0.00    +0.158 A 
ATOM      5  F   UNL     1      -4.341  -1.412   0.000  0.00  0.00    -0.203 F 
ATOM      6  C   UNL     1      -3.103  -2.127   0.000  0.00  0.00    +0.102 A 
ATOM     31  C   UNL     1      -2.691  -2.841   0.000  0.00  0.00    +0.021 A 
ATOM     32  C   UNL     1      -3.103  -3.556   0.000  0.00  0.00    +0.031 A 
ENDBRANCH   7   6
ENDBRANCH  11  10
BRANCH  16  17
ATOM     17  C   UNL     1       1.356   0.952   0.000  0.00  0.00    +0.027 C 
BRANCH  17  18
ATOM     18  C   UNL     1       2.070   1.365   0.000  0.00  0.00    +0.087 C 
BRANCH  18  19
ATOM     19  C   UNL     1       2.070   2.190   0.000  0.00  0.00    +0.226 C 
ATOM     20  O   UNL     1       1.356   2.602   0.000  0.00  0.00    -0.275 OA
ATOM     21  N   UNL     1       2.784   2.602   0.000  0.00  0.00    -0.280 N 
ATOM     22  C   UNL     1       2.784   3.427   0.000  0.00  0.00    +0.093 C 
ATOM     23  C   UNL     1       3.499   3.840   0.000  0.00  0.00    +0.022 C 
ATOM     24  C   UNL     1       4.213   3.427   0.000  0.00  0.00    +0.004 C 
ATOM     25  C   UNL     1       4.213   2.602   0.000  0.00  0.00    +0.022 C 
ATOM     26  C   UNL     1       3.499   2.190   0.000  0.00  0.00    +0.093 C 
ENDBRANCH  18  19
ENDBRANCH  17  18
ENDBRANCH  16  17
TORSDOF 5
