REMARK  Name = 
REMARK  6 active torsions:
REMARK  status: ('A' for Active; 'I' for Inactive)
REMARK    1  A    between atoms: C_2  and  C_9
REMARK    2  A    between atoms: C_16  and  C_17
REMARK    3  A    between atoms: C_17  and  N_18
REMARK    4  A    between atoms: C_20  and  C_21
REMARK    5  A    between atoms: C_21  and  S_22
REMARK    6  A    between atoms: S_22  and  C_23
REMARK                            x       y       z     vdW  Elec       q    Type
REMARK                         _______ _______ _______ _____ _____    ______ ____
ROOT
ATOM      9  C   UNL     1       1.661  -1.343   0.000  0.00  0.00    +0.095 C 
ATOM     10  C   UNL     1       1.814  -2.106   0.000  0.00  0.00    +0.081 C 
ATOM     11  N   UNL     1       1.065  -1.759   0.000  0.00  0.00    -0.272 NA
ATOM     12  C   UNL     1       1.205  -0.720   0.000  0.00  0.00    +0.072 C 
ATOM     13  C   UNL     1       0.961  -0.114   0.000  0.00  0.00    +0.018 C 
ATOM     14  C   UNL     1       0.923  -1.010   0.000  0.00  0.00    +0.013 C 
ATOM     15  C   UNL     1       0.119  -1.362   0.000  0.00  0.00    +0.019 C 
ATOM     16  C   UNL     1       0.226  -2.118   0.000  0.00  0.00    +0.082 C 
ENDROOT
BRANCH   9   2
ATOM      1  O   UNL     1       3.075  -1.130   0.000  0.00  0.00    -0.273 OA
ATOM      2  C   UNL     1       2.307  -0.828   0.000  0.00  0.00    +0.248 C 
ATOM      3  N   UNL     1       2.184  -0.013   0.000  0.00  0.00    -0.154 NA
ATOM      4  C   UNL     1       2.829   0.501   0.000  0.00  0.00    +0.186 A 
ATOM      5  N   UNL     1       2.793   1.326   0.000  0.00  0.00    -0.221 NA
ATOM      6  C   UNL     1       3.565   1.615   0.000  0.00  0.00    +0.108 A 
ATOM      7  C   UNL     1       4.079   0.970   0.000  0.00  0.00    +0.059 A 
ATOM      8  S   UNL     1       3.624   0.282   0.000  0.00  0.00    -0.049 S 
ENDBRANCH   9   2
BRANCH  16  17
ATOM     17  C   UNL     1      -0.179  -2.836   0.000  0.00  0.00    +0.145 C 
BRANCH  17  18
ATOM     18  N   UNL     1      -1.004  -2.845   0.000  0.00  0.00    -0.229 N 
ATOM     19  C   UNL     1      -1.481  -3.518   0.000  0.00  0.00    +0.114 A 
ATOM     20  C   UNL     1      -2.269  -3.271   0.000  0.00  0.00    +0.112 A 
ATOM     29  N   UNL     1      -2.277  -2.446   0.000  0.00  0.00    -0.132 NA
ATOM     30  N   UNL     1      -1.496  -2.183   0.000  0.00  0.00    -0.064 NA
BRANCH  20  21
ATOM     21  C   UNL     1      -2.931  -3.763   0.000  0.00  0.00    +0.111 C 
BRANCH  21  22
ATOM     22  S   UNL     1      -2.836  -4.583   0.000  0.00  0.00    -0.107 S 
BRANCH  22  23
ATOM     23  C   UNL     1      -3.498  -5.075   0.000  0.00  0.00    +0.026 A 
ATOM     24  C   UNL     1      -3.403  -5.894   0.000  0.00  0.00    +0.006 A 
ATOM     25  C   UNL     1      -4.065  -6.386   0.000  0.00  0.00    +0.001 A 
ATOM     26  C   UNL     1      -4.822  -6.059   0.000  0.00  0.00    +0.000 A 
ATOM     27  C   UNL     1      -4.917  -5.239   0.000  0.00  0.00    +0.001 A 
ATOM     28  C   UNL     1      -4.255  -4.747   0.000  0.00  0.00    +0.006 A 
ENDBRANCH  22  23
ENDBRANCH  21  22
ENDBRANCH  20  21
ENDBRANCH  17  18
ENDBRANCH  16  17
TORSDOF 6
