REMARK  Name = 
REMARK  7 active torsions:
REMARK  status: ('A' for Active; 'I' for Inactive)
REMARK    1  A    between atoms: N_4  and  C_21
REMARK    2  A    between atoms: C_7  and  C_8
REMARK    3  A    between atoms: C_10  and  N_11
REMARK    4  A    between atoms: C_12  and  C_14
REMARK    5  A    between atoms: C_14  and  C_15
REMARK    6  A    between atoms: C_15  and  C_16
REMARK    7  A    between atoms: C_24  and  C_27
REMARK                            x       y       z     vdW  Elec       q    Type
REMARK                         _______ _______ _______ _____ _____    ______ ____
ROOT
ATOM      1  C   UNL     1       0.255  -6.238   0.000  0.00  0.00    +0.054 C 
ATOM      2  C   UNL     1       0.084  -5.431   0.000  0.00  0.00    +0.077 A 
ATOM      3  N   UNL     1      -0.670  -5.095   0.000  0.00  0.00    -0.170 NA
ATOM      4  N   UNL     1      -0.584  -4.275   0.000  0.00  0.00    -0.234 N 
ATOM      5  C   UNL     1       0.223  -4.103   0.000  0.00  0.00    +0.058 A 
ATOM      6  C   UNL     1       0.559  -3.350   0.000  0.00  0.00    +0.052 C 
ATOM      7  C   UNL     1       0.636  -4.818   0.000  0.00  0.00    +0.010 A 
ENDROOT
BRANCH   4  21
ATOM     21  C   UNL     1      -1.197  -3.723   0.000  0.00  0.00    +0.082 A 
ATOM     22  C   UNL     1      -1.981  -3.978   0.000  0.00  0.00    +0.019 A 
ATOM     23  C   UNL     1      -2.595  -3.426   0.000  0.00  0.00    -0.003 A 
ATOM     24  C   UNL     1      -2.423  -2.619   0.000  0.00  0.00    -0.023 A 
ATOM     25  C   UNL     1      -1.638  -2.364   0.000  0.00  0.00    -0.003 A 
ATOM     26  C   UNL     1      -1.025  -2.916   0.000  0.00  0.00    +0.019 A 
BRANCH  24  27
ATOM     27  C   UNL     1      -3.036  -2.067   0.000  0.00  0.00    +0.019 C 
ATOM     28  C   UNL     1      -3.649  -1.515   0.000  0.00  0.00    +0.004 C 
ATOM     29  C   UNL     1      -2.484  -1.454   0.000  0.00  0.00    +0.004 C 
ATOM     30  C   UNL     1      -3.588  -2.680   0.000  0.00  0.00    +0.004 C 
ENDBRANCH  24  27
ENDBRANCH   4  21
BRANCH   7   8
ATOM      8  C   UNL     1       1.456  -4.904   0.000  0.00  0.00    +0.048 C 
ATOM      9  C   UNL     1       2.008  -4.291   0.000  0.00  0.00    +0.035 C 
ATOM     10  C   UNL     1       2.762  -4.627   0.000  0.00  0.00    +0.118 C 
ATOM     19  C   UNL     1       2.676  -5.447   0.000  0.00  0.00    -0.009 C 
ATOM     20  C   UNL     1       1.869  -5.619   0.000  0.00  0.00    -0.025 C 
BRANCH  10  11
ATOM     11  N   UNL     1       3.477  -4.214   0.000  0.00  0.00    -0.203 NA
ATOM     12  C   UNL     1       4.191  -4.627   0.000  0.00  0.00    +0.242 C 
ATOM     13  O   UNL     1       4.191  -5.452   0.000  0.00  0.00    -0.273 OA
BRANCH  12  14
ATOM     14  C   UNL     1       4.905  -4.214   0.000  0.00  0.00    +0.099 C 
BRANCH  14  15
ATOM     15  C   UNL     1       5.620  -4.627   0.000  0.00  0.00    +0.124 C 
BRANCH  15  16
ATOM     16  C   UNL     1       6.334  -4.214   0.000  0.00  0.00    +0.365 C 
ATOM     17  O   UNL     1       7.049  -4.627   0.000  0.00  0.00    -0.246 OA
ATOM     18  O   UNL     1       6.334  -3.389   0.000  0.00  0.00    -0.246 OA
ENDBRANCH  15  16
ENDBRANCH  14  15
ENDBRANCH  12  14
ENDBRANCH  10  11
ENDBRANCH   7   8
TORSDOF 7
