REMARK  Name = 
REMARK  9 active torsions:
REMARK  status: ('A' for Active; 'I' for Inactive)
REMARK    1  A    between atoms: O_2  and  C_3
REMARK    2  A    between atoms: C_3  and  C_4
REMARK    3  A    between atoms: N_6  and  C_7
REMARK    4  A    between atoms: C_7  and  C_8
REMARK    5  A    between atoms: C_12  and  C_13
REMARK    6  A    between atoms: C_13  and  C_14
REMARK    7  A    between atoms: N_16  and  C_17
REMARK    8  A    between atoms: C_17  and  C_18
REMARK    9  A    between atoms: C_26  and  C_27
REMARK                            x       y       z     vdW  Elec       q    Type
REMARK                         _______ _______ _______ _____ _____    ______ ____
ROOT
ATOM      8  C   UNL     1       7.145  -9.075   0.000  0.00  0.00    +0.043 C 
ATOM      9  C   UNL     1       7.859  -8.662   0.000  0.00  0.00    -0.033 C 
ATOM     10  C   UNL     1       8.574  -9.075   0.000  0.00  0.00    -0.048 C 
ATOM     11  C   UNL     1       9.288  -8.662   0.000  0.00  0.00    +0.026 C 
ATOM     12  C   UNL     1       8.574  -9.900   0.000  0.00  0.00    +0.027 C 
ATOM     25  C   UNL     1       7.859 -10.312   0.000  0.00  0.00    +0.005 C 
ATOM     26  C   UNL     1       7.145  -9.900   0.000  0.00  0.00    +0.006 C 
ENDROOT
BRANCH  26  27
ATOM     27  C   UNL     1       6.430 -10.312   0.000  0.00  0.00    +0.000 C 
ATOM     28  C   UNL     1       5.716  -9.900   0.000  0.00  0.00    +0.000 C 
ATOM     29  C   UNL     1       6.430 -11.137   0.000  0.00  0.00    +0.000 C 
ENDBRANCH  26  27
BRANCH   8   7
ATOM      7  C   UNL     1       6.430  -8.662   0.000  0.00  0.00    +0.119 C 
BRANCH   7   6
ATOM      4  C   UNL     1       5.001  -8.662   0.000  0.00  0.00    +0.272 C 
ATOM      5  O   UNL     1       5.001  -7.838   0.000  0.00  0.00    -0.271 OA
ATOM      6  N   UNL     1       5.716  -9.075   0.000  0.00  0.00    -0.203 NA
BRANCH   4   3
ATOM      3  C   UNL     1       4.287  -9.075   0.000  0.00  0.00    +0.229 C 
BRANCH   3   2
ATOM      1  C   UNL     1       2.858  -9.075   0.000  0.00  0.00    +0.175 C 
ATOM      2  O   UNL     1       3.572  -8.662   0.000  0.00  0.00    -0.342 OA
ENDBRANCH   3   2
ENDBRANCH   4   3
ENDBRANCH   7   6
ENDBRANCH   8   7
BRANCH  12  13
ATOM     13  C   UNL     1       9.288 -10.312   0.000  0.00  0.00    +0.091 C 
BRANCH  13  14
ATOM     14  C   UNL     1      10.003  -9.900   0.000  0.00  0.00    +0.242 C 
ATOM     15  O   UNL     1      10.003  -9.075   0.000  0.00  0.00    -0.273 OA
ATOM     16  N   UNL     1      10.717 -10.312   0.000  0.00  0.00    -0.201 NA
BRANCH  16  17
ATOM     17  C   UNL     1      11.431  -9.900   0.000  0.00  0.00    +0.141 C 
BRANCH  17  18
ATOM     18  C   UNL     1      12.146 -10.312   0.000  0.00  0.00    -0.000 A 
ATOM     19  C   UNL     1      12.861  -9.900   0.000  0.00  0.00    -0.000 A 
ATOM     20  C   UNL     1      13.575 -10.312   0.000  0.00  0.00    +0.029 A 
ATOM     21  C   UNL     1      13.575 -11.137   0.000  0.00  0.00    +0.140 A 
ATOM     22  F   UNL     1      14.289 -11.550   0.000  0.00  0.00    -0.204 F 
ATOM     23  C   UNL     1      12.861 -11.550   0.000  0.00  0.00    +0.029 A 
ATOM     24  C   UNL     1      12.146 -11.137   0.000  0.00  0.00    -0.000 A 
ENDBRANCH  17  18
ENDBRANCH  16  17
ENDBRANCH  13  14
ENDBRANCH  12  13
TORSDOF 9
