REMARK  Name = 
REMARK  7 active torsions:
REMARK  status: ('A' for Active; 'I' for Inactive)
REMARK    1  A    between atoms: C_2  and  C_4
REMARK    2  A    between atoms: C_6  and  C_7
REMARK    3  A    between atoms: C_7  and  C_8
REMARK    4  A    between atoms: N_10  and  C_12
REMARK    5  A    between atoms: C_12  and  C_13
REMARK    6  A    between atoms: C_13  and  C_14
REMARK    7  A    between atoms: C_19  and  C_20
REMARK                            x       y       z     vdW  Elec       q    Type
REMARK                         _______ _______ _______ _____ _____    ______ ____
ROOT
ATOM      4  C   UNL     1      -3.572   2.062   0.000  0.00  0.00    +0.007 C 
ATOM      5  C   UNL     1      -2.858   2.475   0.000  0.00  0.00    +0.005 C 
ATOM      6  C   UNL     1      -2.143   2.062   0.000  0.00  0.00    +0.027 C 
ATOM     16  C   UNL     1      -2.143   1.238   0.000  0.00  0.00    -0.048 C 
ATOM     17  C   UNL     1      -1.429   0.825   0.000  0.00  0.00    +0.026 C 
ATOM     18  C   UNL     1      -2.858   0.825   0.000  0.00  0.00    -0.032 C 
ATOM     19  C   UNL     1      -3.572   1.238   0.000  0.00  0.00    +0.054 C 
ENDROOT
BRANCH   4   2
ATOM      1  C   UNL     1      -5.001   2.062   0.000  0.00  0.00    +0.000 C 
ATOM      2  C   UNL     1      -4.287   2.475   0.000  0.00  0.00    +0.000 C 
ATOM      3  C   UNL     1      -4.287   3.300   0.000  0.00  0.00    +0.000 C 
ENDBRANCH   4   2
BRANCH  19  20
ATOM     20  C   UNL     1      -4.287   0.825   0.000  0.00  0.00    +0.186 C 
ATOM     21  O   UNL     1      -4.287   0.000   0.000  0.00  0.00    -0.220 OA
ENDBRANCH  19  20
BRANCH   6   7
ATOM      7  C   UNL     1      -1.429   2.475   0.000  0.00  0.00    +0.089 C 
BRANCH   7   8
ATOM      8  C   UNL     1      -0.715   2.062   0.000  0.00  0.00    +0.226 C 
ATOM      9  O   UNL     1      -0.715   1.238   0.000  0.00  0.00    -0.275 OA
ATOM     10  N   UNL     1       0.000   2.475   0.000  0.00  0.00    -0.277 N 
ATOM     11  C   UNL     1       0.000   3.300   0.000  0.00  0.00    +0.115 C 
BRANCH  10  12
ATOM     12  C   UNL     1       0.715   2.062   0.000  0.00  0.00    +0.110 C 
BRANCH  12  13
ATOM     13  C   UNL     1       1.429   2.475   0.000  0.00  0.00    +0.127 C 
BRANCH  13  14
ATOM     14  C   UNL     1       2.143   2.062   0.000  0.00  0.00    +0.075 C 
ATOM     15  N   UNL     1       2.858   1.650   0.000  0.00  0.00    -0.196 NA
ENDBRANCH  13  14
ENDBRANCH  12  13
ENDBRANCH  10  12
ENDBRANCH   7   8
ENDBRANCH   6   7
TORSDOF 7
