REMARK  Name = 
REMARK  6 active torsions:
REMARK  status: ('A' for Active; 'I' for Inactive)
REMARK    1  A    between atoms: O_2  and  C_3
REMARK    2  A    between atoms: C_7  and  C_8
REMARK    3  A    between atoms: C_8  and  N_9
REMARK    4  A    between atoms: N_9  and  C_10
REMARK    5  A    between atoms: C_16  and  C_17
REMARK    6  A    between atoms: C_20  and  C_23
REMARK                            x       y       z     vdW  Elec       q    Type
REMARK                         _______ _______ _______ _____ _____    ______ ____
ROOT
ATOM     10  C   UNL     1       0.715  -1.238   0.000  0.00  0.00    +0.110 C 
ATOM     11  C   UNL     1       1.382  -1.722   0.000  0.00  0.00    +0.198 C 
ATOM     12  O   UNL     1       2.167  -1.468   0.000  0.00  0.00    -0.219 OA
ATOM     13  C   UNL     1       1.127  -2.507   0.000  0.00  0.00    +0.184 C 
ATOM     14  O   UNL     1       1.612  -3.175   0.000  0.00  0.00    -0.220 OA
ATOM     15  C   UNL     1       0.302  -2.507   0.000  0.00  0.00    +0.041 C 
ATOM     16  C   UNL     1       0.047  -1.722   0.000  0.00  0.00    +0.045 C 
ENDROOT
BRANCH  16  17
ATOM     17  C   UNL     1      -0.738  -1.468   0.000  0.00  0.00    -0.002 A 
ATOM     18  C   UNL     1      -1.351  -2.019   0.000  0.00  0.00    +0.094 A 
ATOM     19  N   UNL     1      -2.135  -1.765   0.000  0.00  0.00    -0.240 NA
ATOM     20  C   UNL     1      -2.307  -0.958   0.000  0.00  0.00    +0.153 A 
ATOM     21  C   UNL     1      -1.694  -0.406   0.000  0.00  0.00    +0.023 A 
ATOM     22  C   UNL     1      -0.909  -0.660   0.000  0.00  0.00    -0.001 A 
BRANCH  20  23
ATOM     23  C   UNL     1      -3.091  -0.703   0.000  0.00  0.00    +0.435 C 
ATOM     24  F   UNL     1      -3.876  -0.448   0.000  0.00  0.00    -0.164 F 
ATOM     25  F   UNL     1      -2.837   0.082   0.000  0.00  0.00    -0.164 F 
ATOM     26  F   UNL     1      -3.346  -1.487   0.000  0.00  0.00    -0.164 F 
ENDBRANCH  20  23
ENDBRANCH  16  17
BRANCH  10   9
ATOM      9  N   UNL     1       0.715  -0.412   0.000  0.00  0.00    -0.212 NA
BRANCH   9   8
ATOM      8  C   UNL     1       1.429   0.000   0.000  0.00  0.00    +0.115 C 
BRANCH   8   7
ATOM      3  C   UNL     1       0.715   2.062   0.000  0.00  0.00    +0.138 A 
ATOM      4  C   UNL     1       1.429   2.475   0.000  0.00  0.00    +0.037 A 
ATOM      5  C   UNL     1       2.143   2.062   0.000  0.00  0.00    +0.003 A 
ATOM      6  C   UNL     1       2.143   1.238   0.000  0.00  0.00    -0.003 A 
ATOM      7  C   UNL     1       1.429   0.825   0.000  0.00  0.00    -0.002 A 
ATOM     27  C   UNL     1       0.715   1.238   0.000  0.00  0.00    +0.034 A 
BRANCH   3   2
ATOM      1  C   UNL     1       0.000   3.300   0.000  0.00  0.00    +0.252 C 
ATOM      2  O   UNL     1       0.000   2.475   0.000  0.00  0.00    -0.471 OA
ENDBRANCH   3   2
ENDBRANCH   8   7
ENDBRANCH   9   8
ENDBRANCH  10   9
TORSDOF 6
