REMARK  Name = 
REMARK  6 active torsions:
REMARK  status: ('A' for Active; 'I' for Inactive)
REMARK    1  A    between atoms: C_2  and  O_11
REMARK    2  A    between atoms: N_3  and  C_4
REMARK    3  A    between atoms: C_4  and  C_5
REMARK    4  A    between atoms: O_11  and  C_12
REMARK    5  A    between atoms: C_16  and  N_20
REMARK    6  A    between atoms: C_23  and  C_27
REMARK                            x       y       z     vdW  Elec       q    Type
REMARK                         _______ _______ _______ _____ _____    ______ ____
ROOT
ATOM     12  C   UNL     1       5.193  -3.590   0.000  0.00  0.00    +0.229 C 
ATOM     13  C   UNL     1       4.439  -3.925   0.000  0.00  0.00    +0.188 C 
ATOM     14  O   UNL     1       3.887  -3.312   0.000  0.00  0.00    -0.348 OA
ATOM     15  C   UNL     1       4.300  -2.598   0.000  0.00  0.00    +0.168 C 
ATOM     16  C   UNL     1       4.213  -1.777   0.000  0.00  0.00    +0.155 C 
ATOM     17  C   UNL     1       4.967  -1.442   0.000  0.00  0.00    +0.166 C 
ATOM     18  O   UNL     1       5.519  -2.055   0.000  0.00  0.00    -0.348 OA
ATOM     19  C   UNL     1       5.107  -2.769   0.000  0.00  0.00    +0.186 C 
ENDROOT
BRANCH  16  20
ATOM     20  N   UNL     1       3.499  -1.365   0.000  0.00  0.00    -0.200 NA
ATOM     21  C   UNL     1       3.499  -0.540   0.000  0.00  0.00    +0.237 A 
ATOM     22  N   UNL     1       2.784  -0.127   0.000  0.00  0.00    -0.212 NA
ATOM     23  C   UNL     1       2.784   0.698   0.000  0.00  0.00    +0.086 A 
ATOM     24  C   UNL     1       3.499   1.110   0.000  0.00  0.00    +0.040 A 
ATOM     25  C   UNL     1       4.213   0.698   0.000  0.00  0.00    +0.103 A 
ATOM     26  N   UNL     1       4.213  -0.127   0.000  0.00  0.00    -0.211 NA
BRANCH  23  27
ATOM     27  C   UNL     1       2.070   1.110   0.000  0.00  0.00    +0.021 A 
ATOM     28  C   UNL     1       1.356   0.698   0.000  0.00  0.00    +0.042 A 
ATOM     29  C   UNL     1       0.641   1.110   0.000  0.00  0.00    +0.176 A 
ATOM     30  C   UNL     1       0.641   1.935   0.000  0.00  0.00    +0.176 A 
ATOM     31  O   UNL     1      -0.143   2.190   0.000  0.00  0.00    -0.435 OA
ATOM     32  C   UNL     1      -0.628   1.523   0.000  0.00  0.00    +0.429 C 
ATOM     33  O   UNL     1      -0.143   0.856   0.000  0.00  0.00    -0.435 OA
ATOM     34  C   UNL     1       1.356   2.348   0.000  0.00  0.00    +0.040 A 
ATOM     35  C   UNL     1       2.070   1.935   0.000  0.00  0.00    +0.005 A 
ENDBRANCH  23  27
ENDBRANCH  16  20
BRANCH  12  11
ATOM     11  O   UNL     1       5.907  -4.002   0.000  0.00  0.00    -0.432 OA
BRANCH  11   2
ATOM      1  O   UNL     1       5.193  -5.239   0.000  0.00  0.00    -0.225 OA
ATOM      2  C   UNL     1       5.907  -4.827   0.000  0.00  0.00    +0.421 C 
ATOM      3  N   UNL     1       6.622  -5.239   0.000  0.00  0.00    -0.164 NA
BRANCH   3   4
ATOM      4  C   UNL     1       6.622  -6.064   0.000  0.00  0.00    +0.145 C 
BRANCH   4   5
ATOM      5  C   UNL     1       7.336  -6.477   0.000  0.00  0.00    -0.000 A 
ATOM      6  C   UNL     1       8.051  -6.064   0.000  0.00  0.00    -0.003 A 
ATOM      7  C   UNL     1       8.765  -6.477   0.000  0.00  0.00    -0.000 A 
ATOM      8  C   UNL     1       8.765  -7.302   0.000  0.00  0.00    -0.000 A 
ATOM      9  C   UNL     1       8.051  -7.715   0.000  0.00  0.00    -0.000 A 
ATOM     10  C   UNL     1       7.336  -7.302   0.000  0.00  0.00    -0.003 A 
ENDBRANCH   4   5
ENDBRANCH   3   4
ENDBRANCH  11   2
ENDBRANCH  12  11
TORSDOF 6
