REMARK  Name = 
REMARK  8 active torsions:
REMARK  status: ('A' for Active; 'I' for Inactive)
REMARK    1  A    between atoms: O_2  and  C_3
REMARK    2  A    between atoms: C_3  and  C_4
REMARK    3  A    between atoms: N_8  and  C_9
REMARK    4  A    between atoms: C_10  and  C_11
REMARK    5  A    between atoms: C_11  and  N_12
REMARK    6  A    between atoms: N_12  and  C_13
REMARK    7  A    between atoms: C_13  and  C_14
REMARK    8  A    between atoms: C_22  and  C_23
REMARK                            x       y       z     vdW  Elec       q    Type
REMARK                         _______ _______ _______ _____ _____    ______ ____
ROOT
ATOM      9  C   UNL     1      -0.357  -4.258   0.000  0.00  0.00    +0.120 C 
ATOM     10  C   UNL     1      -1.024  -4.743   0.000  0.00  0.00    +0.150 C 
ATOM     21  O   UNL     1      -1.692  -4.258   0.000  0.00  0.00    -0.350 OA
ATOM     22  C   UNL     1      -1.437  -3.473   0.000  0.00  0.00    +0.180 C 
ATOM     25  C   UNL     1      -0.612  -3.473   0.000  0.00  0.00    +0.198 C 
ATOM     26  O   UNL     1      -0.127  -2.806   0.000  0.00  0.00    -0.219 OA
ENDROOT
BRANCH   9   8
ATOM      4  C   UNL     1       1.095  -4.028   0.000  0.00  0.00    +0.087 C 
ATOM      5  C   UNL     1       1.762  -4.513   0.000  0.00  0.00    +0.020 C 
ATOM      6  C   UNL     1       1.508  -5.297   0.000  0.00  0.00    +0.019 C 
ATOM      7  C   UNL     1       0.682  -5.297   0.000  0.00  0.00    +0.072 C 
ATOM      8  N   UNL     1       0.428  -4.513   0.000  0.00  0.00    -0.269 NA
BRANCH   4   3
ATOM      3  C   UNL     1       1.095  -3.203   0.000  0.00  0.00    +0.158 C 
BRANCH   3   2
ATOM      1  C   UNL     1       1.810  -1.965   0.000  0.00  0.00    +0.174 C 
ATOM      2  O   UNL     1       1.810  -2.790   0.000  0.00  0.00    -0.350 OA
ENDBRANCH   3   2
ENDBRANCH   4   3
ENDBRANCH   9   8
BRANCH  22  23
ATOM     23  C   UNL     1      -1.922  -2.806   0.000  0.00  0.00    +0.214 C 
ATOM     24  O   UNL     1      -1.586  -2.052   0.000  0.00  0.00    -0.218 OA
ENDBRANCH  22  23
BRANCH  10  11
ATOM     11  C   UNL     1      -1.024  -5.568   0.000  0.00  0.00    +0.120 C 
BRANCH  11  12
ATOM     12  N   UNL     1      -1.739  -5.980   0.000  0.00  0.00    -0.211 NA
BRANCH  12  13
ATOM     13  C   UNL     1      -1.739  -6.805   0.000  0.00  0.00    +0.115 C 
BRANCH  13  14
ATOM     14  C   UNL     1      -2.453  -7.218   0.000  0.00  0.00    -0.004 A 
ATOM     15  C   UNL     1      -2.453  -8.043   0.000  0.00  0.00    -0.003 A 
ATOM     16  C   UNL     1      -3.168  -8.455   0.000  0.00  0.00    +0.001 A 
ATOM     17  C   UNL     1      -3.882  -8.043   0.000  0.00  0.00    +0.011 A 
ATOM     18  C   UNL     1      -3.882  -7.218   0.000  0.00  0.00    +0.057 A 
ATOM     19 CL   UNL     1      -4.597  -6.805   0.000  0.00  0.00    -0.082 Cl
ATOM     20  C   UNL     1      -3.168  -6.805   0.000  0.00  0.00    +0.009 A 
ENDBRANCH  13  14
ENDBRANCH  12  13
ENDBRANCH  11  12
ENDBRANCH  10  11
TORSDOF 8
