REMARK  Name = 
REMARK  4 active torsions:
REMARK  status: ('A' for Active; 'I' for Inactive)
REMARK    1  A    between atoms: C_5  and  C_8
REMARK    2  A    between atoms: C_11  and  C_13
REMARK    3  A    between atoms: N_16  and  C_17
REMARK    4  A    between atoms: C_17  and  C_18
REMARK                            x       y       z     vdW  Elec       q    Type
REMARK                         _______ _______ _______ _____ _____    ______ ____
ROOT
ATOM      8  C   UNL     1       0.715   3.466   0.000  0.00  0.00    +0.250 A 
ATOM      9  N   UNL     1       1.382   2.981   0.000  0.00  0.00    -0.107 NA
ATOM     10  N   UNL     1       1.127   2.196   0.000  0.00  0.00    -0.111 NA
ATOM     11  C   UNL     1       0.302   2.196   0.000  0.00  0.00    +0.227 A 
ATOM     12  O   UNL     1       0.047   2.981   0.000  0.00  0.00    -0.419 OA
ENDROOT
BRANCH   8   5
ATOM      1 CL   UNL     1       0.715   6.766   0.000  0.00  0.00    -0.082 Cl
ATOM      2  C   UNL     1       0.715   5.941   0.000  0.00  0.00    +0.058 A 
ATOM      3  C   UNL     1       1.429   5.529   0.000  0.00  0.00    +0.012 A 
ATOM      4  C   UNL     1       1.429   4.704   0.000  0.00  0.00    +0.006 A 
ATOM      5  C   UNL     1       0.715   4.291   0.000  0.00  0.00    +0.055 A 
ATOM      6  C   UNL     1       0.000   4.704   0.000  0.00  0.00    +0.006 A 
ATOM      7  C   UNL     1       0.000   5.529   0.000  0.00  0.00    +0.012 A 
ENDBRANCH   8   5
BRANCH  11  13
ATOM     13  C   UNL     1      -0.183   1.529   0.000  0.00  0.00    +0.096 C 
ATOM     14  C   UNL     1       0.072   0.745   0.000  0.00  0.00    +0.028 C 
ATOM     15  C   UNL     1      -0.596   0.260   0.000  0.00  0.00    +0.073 C 
ATOM     16  N   UNL     1      -1.263   0.745   0.000  0.00  0.00    -0.266 NA
ATOM     23  C   UNL     1      -1.008   1.529   0.000  0.00  0.00    +0.082 C 
BRANCH  16  17
ATOM     17  C   UNL     1      -2.047   0.489   0.000  0.00  0.00    +0.139 C 
BRANCH  17  18
ATOM     18  C   UNL     1      -2.661   1.042   0.000  0.00  0.00    +0.155 A 
ATOM     19  N   UNL     1      -3.468   0.870   0.000  0.00  0.00    -0.226 NA
ATOM     20  C   UNL     1      -3.880   1.585   0.000  0.00  0.00    +0.121 A 
ATOM     21  C   UNL     1      -3.328   2.198   0.000  0.00  0.00    +0.121 A 
ATOM     22  N   UNL     1      -2.574   1.862   0.000  0.00  0.00    -0.226 NA
ENDBRANCH  17  18
ENDBRANCH  16  17
ENDBRANCH  11  13
TORSDOF 4
