REMARK  Name = 
REMARK  9 active torsions:
REMARK  status: ('A' for Active; 'I' for Inactive)
REMARK    1  A    between atoms: N_2  and  C_3
REMARK    2  A    between atoms: C_3  and  C_4
REMARK    3  A    between atoms: C_6  and  C_8
REMARK    4  A    between atoms: C_8  and  C_9
REMARK    5  A    between atoms: C_14  and  C_15
REMARK    6  A    between atoms: C_15  and  C_16
REMARK    7  A    between atoms: C_19  and  C_20
REMARK    8  A    between atoms: C_20  and  O_21
REMARK    9  A    between atoms: O_21  and  C_22
REMARK                            x       y       z     vdW  Elec       q    Type
REMARK                         _______ _______ _______ _____ _____    ______ ____
ROOT
ATOM      9  C   UNL     1       4.352  -7.293   0.000  0.00  0.00    +0.012 C 
ATOM     10  C   UNL     1       3.527  -7.293   0.000  0.00  0.00    +0.019 C 
ATOM     11  C   UNL     1       3.115  -6.579   0.000  0.00  0.00    +0.089 C 
ATOM     12  N   UNL     1       3.527  -5.864   0.000  0.00  0.00    -0.218 NA
ATOM     13  C   UNL     1       4.352  -5.864   0.000  0.00  0.00    +0.089 C 
ATOM     14  C   UNL     1       4.764  -6.579   0.000  0.00  0.00    +0.024 C 
ENDROOT
BRANCH   9   8
ATOM      8  C   UNL     1       4.764  -8.008   0.000  0.00  0.00    +0.085 C 
BRANCH   8   6
ATOM      1  C   UNL     1       3.115  -9.437   0.000  0.00  0.00    +0.116 C 
ATOM      2  N   UNL     1       3.527  -8.722   0.000  0.00  0.00    -0.266 N 
ATOM      6  C   UNL     1       4.352  -8.722   0.000  0.00  0.00    +0.226 C 
ATOM      7  O   UNL     1       4.764  -9.437   0.000  0.00  0.00    -0.275 OA
BRANCH   2   3
ATOM      3  C   UNL     1       3.115  -8.008   0.000  0.00  0.00    +0.172 C 
BRANCH   3   4
ATOM      4  C   UNL     1       2.289  -8.008   0.000  0.00  0.00    -0.056 C 
ATOM      5  C   UNL     1       1.464  -8.008   0.000  0.00  0.00    -0.012 C 
ENDBRANCH   3   4
ENDBRANCH   2   3
ENDBRANCH   8   6
ENDBRANCH   9   8
BRANCH  14  15
ATOM     15  C   UNL     1       5.590  -6.579   0.000  0.00  0.00    +0.051 C 
BRANCH  15  16
ATOM     16  C   UNL     1       6.002  -5.864   0.000  0.00  0.00    +0.100 A 
ATOM     17  N   UNL     1       5.667  -5.111   0.000  0.00  0.00    -0.082 NA
ATOM     18  O   UNL     1       6.280  -4.559   0.000  0.00  0.00    -0.354 OA
ATOM     19  C   UNL     1       6.994  -4.971   0.000  0.00  0.00    +0.198 A 
ATOM     28  C   UNL     1       6.822  -5.778   0.000  0.00  0.00    +0.057 A 
BRANCH  19  20
ATOM     20  C   UNL     1       7.748  -4.636   0.000  0.00  0.00    +0.272 C 
BRANCH  20  21
ATOM     21  O   UNL     1       7.834  -3.815   0.000  0.00  0.00    -0.467 OA
BRANCH  21  22
ATOM     22  C   UNL     1       8.588  -3.480   0.000  0.00  0.00    +0.139 A 
ATOM     23  C   UNL     1       8.674  -2.659   0.000  0.00  0.00    +0.037 A 
ATOM     24  C   UNL     1       9.428  -2.324   0.000  0.00  0.00    +0.003 A 
ATOM     25  C   UNL     1      10.095  -2.809   0.000  0.00  0.00    +0.000 A 
ATOM     26  C   UNL     1      10.009  -3.629   0.000  0.00  0.00    +0.003 A 
ATOM     27  C   UNL     1       9.255  -3.965   0.000  0.00  0.00    +0.037 A 
ENDBRANCH  21  22
ENDBRANCH  20  21
ENDBRANCH  19  20
ENDBRANCH  15  16
ENDBRANCH  14  15
TORSDOF 9
