REMARK  Name = 
REMARK  6 active torsions:
REMARK  status: ('A' for Active; 'I' for Inactive)
REMARK    1  A    between atoms: O_2  and  C_3
REMARK    2  A    between atoms: C_3  and  C_5
REMARK    3  A    between atoms: N_10  and  S_11
REMARK    4  A    between atoms: S_11  and  C_14
REMARK    5  A    between atoms: N_19  and  C_20
REMARK    6  A    between atoms: C_20  and  C_21
REMARK                            x       y       z     vdW  Elec       q    Type
REMARK                         _______ _______ _______ _____ _____    ______ ____
ROOT
ATOM      5  C   UNL     1       2.070   1.110   0.000  0.00  0.00    +0.184 C 
ATOM      6  C   UNL     1       1.356   0.698   0.000  0.00  0.00    +0.076 C 
ATOM      7  C   UNL     1       0.641   1.110   0.000  0.00  0.00    +0.076 A 
ATOM      8  C   UNL     1       0.641   1.935   0.000  0.00  0.00    +0.070 A 
ATOM      9  C   UNL     1       1.356   2.348   0.000  0.00  0.00    +0.141 C 
ATOM     10  N   UNL     1       2.070   1.935   0.000  0.00  0.00    -0.139 NA
ATOM     19  N   UNL     1      -0.143   2.190   0.000  0.00  0.00    -0.307 N 
ATOM     27  C   UNL     1      -0.628   1.523   0.000  0.00  0.00    +0.178 A 
ATOM     28  N   UNL     1      -0.143   0.856   0.000  0.00  0.00    -0.229 NA
ENDROOT
BRANCH  10  11
ATOM     11  S   UNL     1       2.784   2.348   0.000  0.00  0.00    +0.070 S 
ATOM     12  O   UNL     1       3.197   1.633   0.000  0.00  0.00    -0.152 OA
ATOM     13  O   UNL     1       2.372   3.062   0.000  0.00  0.00    -0.152 OA
BRANCH  11  14
ATOM     14  C   UNL     1       3.499   2.760   0.000  0.00  0.00    +0.152 A 
ATOM     15  C   UNL     1       3.585   3.581   0.000  0.00  0.00    +0.027 A 
ATOM     16  C   UNL     1       4.392   3.752   0.000  0.00  0.00    +0.009 A 
ATOM     17  C   UNL     1       4.805   3.038   0.000  0.00  0.00    +0.037 A 
ATOM     18  S   UNL     1       4.253   2.425   0.000  0.00  0.00    -0.067 S 
ENDBRANCH  11  14
ENDBRANCH  10  11
BRANCH   5   3
ATOM      3  C   UNL     1       2.784   0.698   0.000  0.00  0.00    +0.334 C 
ATOM      4  O   UNL     1       2.784  -0.127   0.000  0.00  0.00    -0.249 OA
BRANCH   3   2
ATOM      1  C   UNL     1       4.213   0.698   0.000  0.00  0.00    +0.256 C 
ATOM      2  O   UNL     1       3.499   1.110   0.000  0.00  0.00    -0.443 OA
ENDBRANCH   3   2
ENDBRANCH   5   3
BRANCH  19  20
ATOM     20  C   UNL     1      -0.398   2.975   0.000  0.00  0.00    +0.134 C 
BRANCH  20  21
ATOM     21  C   UNL     1       0.154   3.588   0.000  0.00  0.00    +0.000 A 
ATOM     22  C   UNL     1      -0.101   4.373   0.000  0.00  0.00    -0.002 A 
ATOM     23  C   UNL     1       0.451   4.986   0.000  0.00  0.00    -0.000 A 
ATOM     24  C   UNL     1       1.258   4.814   0.000  0.00  0.00    -0.000 A 
ATOM     25  C   UNL     1       1.513   4.030   0.000  0.00  0.00    -0.000 A 
ATOM     26  C   UNL     1       0.961   3.417   0.000  0.00  0.00    -0.002 A 
ENDBRANCH  20  21
ENDBRANCH  19  20
TORSDOF 6
