REMARK  Name = 
REMARK  5 active torsions:
REMARK  status: ('A' for Active; 'I' for Inactive)
REMARK    1  A    between atoms: C_2  and  N_4
REMARK    2  A    between atoms: N_4  and  C_5
REMARK    3  A    between atoms: C_8  and  C_9
REMARK    4  A    between atoms: C_9  and  N_10
REMARK    5  A    between atoms: C_11  and  C_13
REMARK                            x       y       z     vdW  Elec       q    Type
REMARK                         _______ _______ _______ _____ _____    ______ ____
ROOT
ATOM      5  C   UNL     1       3.595  -1.611   0.000  0.00  0.00    +0.135 C 
ATOM      6  C   UNL     1       4.262  -2.096   0.000  0.00  0.00    +0.162 C 
ATOM      7  O   UNL     1       4.007  -2.881   0.000  0.00  0.00    -0.350 OA
ATOM      8  C   UNL     1       3.182  -2.881   0.000  0.00  0.00    +0.169 C 
ATOM     18  C   UNL     1       2.928  -2.096   0.000  0.00  0.00    +0.199 C 
ATOM     19  O   UNL     1       2.143  -1.841   0.000  0.00  0.00    -0.219 OA
ENDROOT
BRANCH   5   4
ATOM      4  N   UNL     1       3.595  -0.786   0.000  0.00  0.00    -0.216 NA
BRANCH   4   2
ATOM      1  C   UNL     1       4.309   0.451   0.000  0.00  0.00    +0.019 C 
ATOM      2  C   UNL     1       4.309  -0.374   0.000  0.00  0.00    +0.073 C 
ATOM      3  C   UNL     1       5.024  -0.786   0.000  0.00  0.00    +0.019 C 
ENDBRANCH   4   2
ENDBRANCH   5   4
BRANCH   8   9
ATOM      9  C   UNL     1       2.697  -3.548   0.000  0.00  0.00    +0.147 C 
BRANCH   9  10
ATOM     10  N   UNL     1       1.877  -3.462   0.000  0.00  0.00    -0.203 NA
ATOM     11  C   UNL     1       1.392  -4.130   0.000  0.00  0.00    +0.241 C 
ATOM     12  O   UNL     1       1.728  -4.883   0.000  0.00  0.00    -0.273 OA
BRANCH  11  13
ATOM     13  C   UNL     1       0.572  -4.043   0.000  0.00  0.00    +0.078 C 
ATOM     14  C   UNL     1       0.020  -4.656   0.000  0.00  0.00    +0.009 C 
ATOM     15  C   UNL     1      -0.734  -4.321   0.000  0.00  0.00    +0.001 C 
ATOM     16  C   UNL     1      -0.648  -3.500   0.000  0.00  0.00    +0.001 C 
ATOM     17  C   UNL     1       0.159  -3.329   0.000  0.00  0.00    +0.009 C 
ENDBRANCH  11  13
ENDBRANCH   9  10
ENDBRANCH   8   9
TORSDOF 5
