REMARK  Name = 
REMARK  7 active torsions:
REMARK  status: ('A' for Active; 'I' for Inactive)
REMARK    1  A    between atoms: O_2  and  C_3
REMARK    2  A    between atoms: C_3  and  C_4
REMARK    3  A    between atoms: C_6  and  C_7
REMARK    4  A    between atoms: C_7  and  C_8
REMARK    5  A    between atoms: C_8  and  N_12
REMARK    6  A    between atoms: N_12  and  C_13
REMARK    7  A    between atoms: C_13  and  C_14
REMARK                            x       y       z     vdW  Elec       q    Type
REMARK                         _______ _______ _______ _____ _____    ______ ____
ROOT
ATOM      7  C   UNL     1      -0.711   3.664   0.000  0.00  0.00    +0.070 C 
ENDROOT
BRANCH   7   6
ATOM      4  C   UNL     1      -2.841   3.521   0.000  0.00  0.00    +0.184 A 
ATOM      5  C   UNL     1      -2.149   3.970   0.000  0.00  0.00    +0.056 A 
ATOM      6  C   UNL     1      -1.508   3.451   0.000  0.00  0.00    +0.102 A 
ATOM     17  N   UNL     1      -1.804   2.680   0.000  0.00  0.00    -0.082 NA
ATOM     18  O   UNL     1      -2.628   2.724   0.000  0.00  0.00    -0.356 OA
BRANCH   4   3
ATOM      3  C   UNL     1      -3.611   3.816   0.000  0.00  0.00    +0.209 C 
BRANCH   3   2
ATOM      1  C   UNL     1      -5.023   3.593   0.000  0.00  0.00    +0.175 C 
ATOM      2  O   UNL     1      -4.253   3.297   0.000  0.00  0.00    -0.343 OA
ENDBRANCH   3   2
ENDBRANCH   4   3
ENDBRANCH   7   6
BRANCH   7   8
ATOM      8  C   UNL     1      -0.128   3.081   0.000  0.00  0.00    +0.119 C 
ATOM      9  C   UNL     1       0.456   2.498   0.000  0.00  0.00    +0.161 C 
ATOM     10  O   UNL     1      -0.128   1.914   0.000  0.00  0.00    -0.351 OA
ATOM     11  C   UNL     1      -0.711   2.498   0.000  0.00  0.00    +0.161 C 
BRANCH   8  12
ATOM     12  N   UNL     1       0.456   3.664   0.000  0.00  0.00    -0.215 NA
BRANCH  12  13
ATOM     13  C   UNL     1       0.242   4.461   0.000  0.00  0.00    +0.089 C 
BRANCH  13  14
ATOM     14  C   UNL     1       0.825   5.045   0.000  0.00  0.00    +0.017 C 
ATOM     15  C   UNL     1       0.612   5.841   0.000  0.00  0.00    +0.001 C 
ATOM     16  C   UNL     1       1.622   4.831   0.000  0.00  0.00    +0.001 C 
ENDBRANCH  13  14
ENDBRANCH  12  13
ENDBRANCH   8  12
ENDBRANCH   7   8
TORSDOF 7
