REMARK  Name = 
REMARK  7 active torsions:
REMARK  status: ('A' for Active; 'I' for Inactive)
REMARK    1  A    between atoms: C_2  and  C_4
REMARK    2  A    between atoms: C_4  and  C_5
REMARK    3  A    between atoms: C_5  and  C_6
REMARK    4  A    between atoms: N_8  and  C_9
REMARK    5  A    between atoms: C_13  and  N_17
REMARK    6  A    between atoms: C_21  and  O_22
REMARK    7  A    between atoms: O_22  and  C_23
REMARK                            x       y       z     vdW  Elec       q    Type
REMARK                         _______ _______ _______ _____ _____    ______ ____
ROOT
ATOM      9  C   UNL     1       7.128   4.570   0.000  0.00  0.00    +0.154 C 
ATOM     10  C   UNL     1       7.680   3.957   0.000  0.00  0.00    +0.166 C 
ATOM     11  O   UNL     1       7.267   3.242   0.000  0.00  0.00    -0.350 OA
ATOM     12  C   UNL     1       6.460   3.413   0.000  0.00  0.00    +0.169 C 
ATOM     13  C   UNL     1       5.706   3.078   0.000  0.00  0.00    +0.170 C 
ATOM     14  C   UNL     1       5.154   3.691   0.000  0.00  0.00    +0.169 C 
ATOM     15  O   UNL     1       5.567   4.405   0.000  0.00  0.00    -0.350 OA
ATOM     16  C   UNL     1       6.374   4.234   0.000  0.00  0.00    +0.167 C 
ENDROOT
BRANCH  13  17
ATOM     17  N   UNL     1       5.535   2.271   0.000  0.00  0.00    -0.180 N 
ATOM     18  N   UNL     1       6.087   1.658   0.000  0.00  0.00    -0.040 NA
ATOM     19  N   UNL     1       5.674   0.943   0.000  0.00  0.00    -0.020 NA
ATOM     20  N   UNL     1       4.867   1.115   0.000  0.00  0.00    -0.071 NA
ATOM     21  C   UNL     1       4.781   1.935   0.000  0.00  0.00    +0.343 A 
BRANCH  21  22
ATOM     22  O   UNL     1       4.067   2.348   0.000  0.00  0.00    -0.421 OA
BRANCH  22  23
ATOM     23  C   UNL     1       3.352   1.935   0.000  0.00  0.00    +0.152 A 
ATOM     24  C   UNL     1       3.352   1.110   0.000  0.00  0.00    +0.041 A 
ATOM     25  C   UNL     1       2.638   0.698   0.000  0.00  0.00    +0.043 A 
ATOM     26  C   UNL     1       1.923   1.110   0.000  0.00  0.00    +0.177 A 
ATOM     27  O   UNL     1       1.139   0.856   0.000  0.00  0.00    -0.435 OA
ATOM     28  C   UNL     1       0.654   1.523   0.000  0.00  0.00    +0.429 C 
ATOM     29  O   UNL     1       1.139   2.190   0.000  0.00  0.00    -0.435 OA
ATOM     30  C   UNL     1       1.923   1.935   0.000  0.00  0.00    +0.179 A 
ATOM     31  C   UNL     1       2.638   2.348   0.000  0.00  0.00    +0.078 A 
ENDBRANCH  22  23
ENDBRANCH  21  22
ENDBRANCH  13  17
BRANCH   9   8
ATOM      6  C   UNL     1       8.084   5.631   0.000  0.00  0.00    +0.242 C 
ATOM      7  O   UNL     1       8.697   5.079   0.000  0.00  0.00    -0.273 OA
ATOM      8  N   UNL     1       7.299   5.377   0.000  0.00  0.00    -0.202 NA
BRANCH   6   5
ATOM      5  C   UNL     1       8.255   6.439   0.000  0.00  0.00    +0.099 C 
BRANCH   5   4
ATOM      4  C   UNL     1       9.040   6.693   0.000  0.00  0.00    +0.124 C 
BRANCH   4   2
ATOM      1  O   UNL     1       9.996   7.755   0.000  0.00  0.00    -0.246 OA
ATOM      2  C   UNL     1       9.211   7.500   0.000  0.00  0.00    +0.365 C 
ATOM      3  O   UNL     1       8.598   8.052   0.000  0.00  0.00    -0.246 OA
ENDBRANCH   4   2
ENDBRANCH   5   4
ENDBRANCH   6   5
ENDBRANCH   9   8
TORSDOF 7
