REMARK  Name = 
REMARK  7 active torsions:
REMARK  status: ('A' for Active; 'I' for Inactive)
REMARK    1  A    between atoms: O_2  and  C_3
REMARK    2  A    between atoms: C_3  and  C_4
REMARK    3  A    between atoms: C_12  and  C_13
REMARK    4  A    between atoms: C_16  and  C_18
REMARK    5  A    between atoms: N_22  and  C_23
REMARK    6  A    between atoms: C_23  and  C_24
REMARK    7  A    between atoms: C_27  and  C_30
REMARK                            x       y       z     vdW  Elec       q    Type
REMARK                         _______ _______ _______ _____ _____    ______ ____
ROOT
ATOM     13  C   UNL     1       0.381  -2.790   0.000  0.00  0.00    +0.208 A 
ATOM     14  N   UNL     1      -0.287  -3.275   0.000  0.00  0.00    -0.056 NA
ATOM     15  O   UNL     1      -0.032  -4.060   0.000  0.00  0.00    -0.336 OA
ATOM     16  C   UNL     1       0.793  -4.060   0.000  0.00  0.00    +0.251 A 
ATOM     17  N   UNL     1       1.048  -3.275   0.000  0.00  0.00    -0.189 NA
ENDROOT
BRANCH  13  12
ATOM      4  C   UNL     1      -1.763  -1.553   0.000  0.00  0.00    +0.277 C 
ATOM      5  O   UNL     1      -1.763  -0.728   0.000  0.00  0.00    -0.270 OA
ATOM      6  N   UNL     1      -1.048  -1.965   0.000  0.00  0.00    -0.158 NA
ATOM      7  C   UNL     1      -0.334  -1.553   0.000  0.00  0.00    +0.161 A 
ATOM      8  N   UNL     1      -0.334  -0.728   0.000  0.00  0.00    -0.207 NA
ATOM      9  C   UNL     1       0.381  -0.315   0.000  0.00  0.00    +0.200 A 
ATOM     10  N   UNL     1       1.095  -0.728   0.000  0.00  0.00    -0.222 NA
ATOM     11  C   UNL     1       1.095  -1.553   0.000  0.00  0.00    +0.107 A 
ATOM     12  C   UNL     1       0.381  -1.965   0.000  0.00  0.00    +0.092 A 
BRANCH   4   3
ATOM      3  C   UNL     1      -2.477  -1.965   0.000  0.00  0.00    +0.229 C 
BRANCH   3   2
ATOM      1  C   UNL     1      -3.906  -1.965   0.000  0.00  0.00    +0.175 C 
ATOM      2  O   UNL     1      -3.192  -1.553   0.000  0.00  0.00    -0.342 OA
ENDBRANCH   3   2
ENDBRANCH   4   3
ENDBRANCH  13  12
BRANCH  16  18
ATOM     18  C   UNL     1       1.278  -4.727   0.000  0.00  0.00    +0.138 C 
ATOM     19  C   UNL     1       1.023  -5.512   0.000  0.00  0.00    +0.027 C 
ATOM     20  C   UNL     1       1.690  -5.997   0.000  0.00  0.00    +0.019 C 
ATOM     21  C   UNL     1       2.358  -5.512   0.000  0.00  0.00    +0.073 C 
ATOM     22  N   UNL     1       2.103  -4.727   0.000  0.00  0.00    -0.263 NA
BRANCH  22  23
ATOM     23  C   UNL     1       2.588  -4.060   0.000  0.00  0.00    +0.099 C 
BRANCH  23  24
ATOM     24  C   UNL     1       3.408  -4.146   0.000  0.00  0.00    -0.006 A 
ATOM     25  C   UNL     1       3.893  -3.479   0.000  0.00  0.00    -0.002 A 
ATOM     26  C   UNL     1       4.714  -3.565   0.000  0.00  0.00    +0.010 A 
ATOM     27  C   UNL     1       5.049  -4.319   0.000  0.00  0.00    +0.068 A 
ATOM     28  C   UNL     1       4.564  -4.986   0.000  0.00  0.00    +0.010 A 
ATOM     29  C   UNL     1       3.744  -4.900   0.000  0.00  0.00    -0.002 A 
BRANCH  27  30
ATOM     30  C   UNL     1       5.870  -4.405   0.000  0.00  0.00    +0.100 C 
ATOM     31  N   UNL     1       6.690  -4.491   0.000  0.00  0.00    -0.191 NA
ENDBRANCH  27  30
ENDBRANCH  23  24
ENDBRANCH  22  23
ENDBRANCH  16  18
TORSDOF 7
