REMARK  Name = 
REMARK  7 active torsions:
REMARK  status: ('A' for Active; 'I' for Inactive)
REMARK    1  A    between atoms: C_2  and  N_4
REMARK    2  A    between atoms: N_7  and  C_8
REMARK    3  A    between atoms: C_13  and  C_14
REMARK    4  A    between atoms: C_14  and  C_15
REMARK    5  A    between atoms: C_15  and  C_16
REMARK    6  A    between atoms: N_18  and  C_19
REMARK    7  A    between atoms: C_19  and  C_20
REMARK                            x       y       z     vdW  Elec       q    Type
REMARK                         _______ _______ _______ _____ _____    ______ ____
ROOT
ATOM      8  C   UNL     1      -3.135   2.131   0.000  0.00  0.00    +0.115 C 
ATOM      9  C   UNL     1      -3.471   1.377   0.000  0.00  0.00    +0.049 C 
ATOM     10  C   UNL     1      -2.858   0.825   0.000  0.00  0.00    +0.138 C 
ATOM     11  N   UNL     1      -2.143   1.238   0.000  0.00  0.00    -0.265 NA
ATOM     12  C   UNL     1      -2.315   2.045   0.000  0.00  0.00    +0.094 C 
ATOM     13  C   UNL     1      -1.429   0.825   0.000  0.00  0.00    +0.080 C 
ATOM     26  C   UNL     1      -1.429   0.000   0.000  0.00  0.00    +0.131 C 
ATOM     27  N   UNL     1      -2.143  -0.412   0.000  0.00  0.00    -0.203 NA
ATOM     28  C   UNL     1      -2.858   0.000   0.000  0.00  0.00    +0.256 C 
ATOM     29  O   UNL     1      -3.572  -0.412   0.000  0.00  0.00    -0.272 OA
ENDROOT
BRANCH   8   7
ATOM      4  N   UNL     1      -4.785   3.560   0.000  0.00  0.00    -0.189 NA
ATOM      5  C   UNL     1      -4.373   2.845   0.000  0.00  0.00    +0.339 C 
ATOM      6  O   UNL     1      -4.785   2.131   0.000  0.00  0.00    -0.249 OA
ATOM      7  N   UNL     1      -3.548   2.845   0.000  0.00  0.00    -0.187 NA
BRANCH   4   2
ATOM      1  C   UNL     1      -6.023   4.274   0.000  0.00  0.00    +0.023 C 
ATOM      2  C   UNL     1      -5.610   3.560   0.000  0.00  0.00    +0.097 C 
ATOM      3  C   UNL     1      -6.023   2.845   0.000  0.00  0.00    +0.023 C 
ENDBRANCH   4   2
ENDBRANCH   8   7
BRANCH  13  14
ATOM     14  C   UNL     1      -0.715   1.238   0.000  0.00  0.00    +0.027 C 
BRANCH  14  15
ATOM     15  C   UNL     1       0.000   0.825   0.000  0.00  0.00    +0.088 C 
BRANCH  15  16
ATOM     16  C   UNL     1       0.715   1.238   0.000  0.00  0.00    +0.242 C 
ATOM     17  O   UNL     1       0.715   2.062   0.000  0.00  0.00    -0.273 OA
ATOM     18  N   UNL     1       1.429   0.825   0.000  0.00  0.00    -0.201 NA
BRANCH  18  19
ATOM     19  C   UNL     1       2.143   1.238   0.000  0.00  0.00    +0.141 C 
BRANCH  19  20
ATOM     20  C   UNL     1       2.858   0.825   0.000  0.00  0.00    -0.001 A 
ATOM     21  C   UNL     1       3.572   1.238   0.000  0.00  0.00    -0.003 A 
ATOM     22  C   UNL     1       4.287   0.825   0.000  0.00  0.00    -0.000 A 
ATOM     23  C   UNL     1       4.287   0.000   0.000  0.00  0.00    -0.000 A 
ATOM     24  C   UNL     1       3.572  -0.412   0.000  0.00  0.00    -0.000 A 
ATOM     25  C   UNL     1       2.858   0.000   0.000  0.00  0.00    -0.003 A 
ENDBRANCH  19  20
ENDBRANCH  18  19
ENDBRANCH  15  16
ENDBRANCH  14  15
ENDBRANCH  13  14
TORSDOF 7
