REMARK  Name = 
REMARK  5 active torsions:
REMARK  status: ('A' for Active; 'I' for Inactive)
REMARK    1  A    between atoms: C_2  and  C_3
REMARK    2  A    between atoms: C_5  and  C_6
REMARK    3  A    between atoms: C_6  and  N_7
REMARK    4  A    between atoms: C_8  and  C_10
REMARK    5  A    between atoms: C_18  and  N_21
REMARK                            x       y       z     vdW  Elec       q    Type
REMARK                         _______ _______ _______ _____ _____    ______ ____
ROOT
ATOM      3  C   UNL     1       2.751  -2.537   0.000  0.00  0.00    +0.180 C 
ATOM      4  O   UNL     1       3.419  -3.022   0.000  0.00  0.00    -0.350 OA
ATOM      5  C   UNL     1       3.164  -3.806   0.000  0.00  0.00    +0.154 C 
ATOM     18  C   UNL     1       2.339  -3.806   0.000  0.00  0.00    +0.120 C 
ATOM     19  C   UNL     1       2.084  -3.022   0.000  0.00  0.00    +0.198 C 
ATOM     20  O   UNL     1       1.299  -2.767   0.000  0.00  0.00    -0.219 OA
ENDROOT
BRANCH  18  21
ATOM     21  N   UNL     1       1.854  -4.474   0.000  0.00  0.00    -0.270 NA
ATOM     22  C   UNL     1       2.109  -5.258   0.000  0.00  0.00    +0.072 C 
ATOM     23  C   UNL     1       1.441  -5.743   0.000  0.00  0.00    +0.019 C 
ATOM     24  C   UNL     1       0.774  -5.258   0.000  0.00  0.00    +0.019 C 
ATOM     25  C   UNL     1       1.029  -4.474   0.000  0.00  0.00    +0.072 C 
ENDBRANCH  18  21
BRANCH   3   2
ATOM      1  O   UNL     1       2.037  -1.299   0.000  0.00  0.00    -0.218 OA
ATOM      2  C   UNL     1       2.751  -1.712   0.000  0.00  0.00    +0.214 C 
ENDBRANCH   3   2
BRANCH   5   6
ATOM      6  C   UNL     1       3.649  -4.474   0.000  0.00  0.00    +0.146 C 
BRANCH   6   7
ATOM      7  N   UNL     1       3.313  -5.227   0.000  0.00  0.00    -0.199 NA
ATOM      8  C   UNL     1       3.798  -5.895   0.000  0.00  0.00    +0.265 C 
ATOM      9  O   UNL     1       4.618  -5.809   0.000  0.00  0.00    -0.268 OA
BRANCH   8  10
ATOM     10  C   UNL     1       3.462  -6.648   0.000  0.00  0.00    +0.056 A 
ATOM     11  C   UNL     1       3.947  -7.316   0.000  0.00  0.00    +0.018 A 
ATOM     12  C   UNL     1       3.612  -8.069   0.000  0.00  0.00    +0.085 A 
ATOM     13 CL   UNL     1       4.097  -8.737   0.000  0.00  0.00    -0.080 Cl
ATOM     14  C   UNL     1       2.791  -8.156   0.000  0.00  0.00    +0.151 A 
ATOM     15  F   UNL     1       2.456  -8.909   0.000  0.00  0.00    -0.203 F 
ATOM     16  C   UNL     1       2.306  -7.488   0.000  0.00  0.00    +0.031 A 
ATOM     17  C   UNL     1       2.642  -6.735   0.000  0.00  0.00    +0.007 A 
ENDBRANCH   8  10
ENDBRANCH   6   7
ENDBRANCH   5   6
TORSDOF 5
