REMARK  Name = 
REMARK  6 active torsions:
REMARK  status: ('A' for Active; 'I' for Inactive)
REMARK    1  A    between atoms: C_2  and  C_3
REMARK    2  A    between atoms: C_6  and  N_9
REMARK    3  A    between atoms: N_9  and  C_10
REMARK    4  A    between atoms: C_10  and  C_11
REMARK    5  A    between atoms: C_11  and  C_12
REMARK    6  A    between atoms: C_15  and  C_16
REMARK                            x       y       z     vdW  Elec       q    Type
REMARK                         _______ _______ _______ _____ _____    ______ ____
ROOT
ATOM     10  C   UNL     1       1.580   3.622   0.000  0.00  0.00    +0.119 C 
ATOM     19  C   UNL     1       2.163   3.038   0.000  0.00  0.00    +0.161 C 
ATOM     20  O   UNL     1       1.580   2.455   0.000  0.00  0.00    -0.351 OA
ATOM     21  C   UNL     1       0.997   3.038   0.000  0.00  0.00    +0.161 C 
ENDROOT
BRANCH  10   9
ATOM      9  N   UNL     1       2.163   4.205   0.000  0.00  0.00    -0.217 NA
BRANCH   9   6
ATOM      3  C   UNL     1       1.523   6.596   0.000  0.00  0.00    +0.033 C 
ATOM      4  C   UNL     1       2.320   6.382   0.000  0.00  0.00    +0.004 C 
ATOM      5  C   UNL     1       2.533   5.585   0.000  0.00  0.00    +0.017 C 
ATOM      6  C   UNL     1       1.950   5.002   0.000  0.00  0.00    +0.073 C 
ATOM      7  C   UNL     1       1.153   5.216   0.000  0.00  0.00    +0.017 C 
ATOM      8  C   UNL     1       0.939   6.013   0.000  0.00  0.00    +0.004 C 
BRANCH   3   2
ATOM      1  O   UNL     1       0.512   7.606   0.000  0.00  0.00    -0.220 OA
ATOM      2  C   UNL     1       1.309   7.393   0.000  0.00  0.00    +0.182 C 
ENDBRANCH   3   2
ENDBRANCH   9   6
ENDBRANCH  10   9
BRANCH  10  11
ATOM     11  C   UNL     1       0.997   4.205   0.000  0.00  0.00    +0.070 C 
BRANCH  11  12
ATOM     12  C   UNL     1       0.200   3.992   0.000  0.00  0.00    +0.102 A 
ATOM     13  N   UNL     1      -0.096   3.221   0.000  0.00  0.00    -0.082 NA
ATOM     14  O   UNL     1      -0.920   3.265   0.000  0.00  0.00    -0.355 OA
ATOM     15  C   UNL     1      -1.133   4.061   0.000  0.00  0.00    +0.187 A 
ATOM     18  C   UNL     1      -0.442   4.511   0.000  0.00  0.00    +0.056 A 
BRANCH  15  16
ATOM     16  C   UNL     1      -1.904   4.357   0.000  0.00  0.00    +0.249 C 
ATOM     17  O   UNL     1      -2.545   3.838   0.000  0.00  0.00    -0.212 OA
ENDBRANCH  15  16
ENDBRANCH  11  12
ENDBRANCH  10  11
TORSDOF 6
