REMARK  Name = 
REMARK  6 active torsions:
REMARK  status: ('A' for Active; 'I' for Inactive)
REMARK    1  A    between atoms: C_2  and  N_4
REMARK    2  A    between atoms: C_5  and  O_7
REMARK    3  A    between atoms: O_7  and  C_8
REMARK    4  A    between atoms: C_8  and  C_9
REMARK    5  A    between atoms: C_16  and  C_17
REMARK    6  A    between atoms: C_22  and  C_24
REMARK                            x       y       z     vdW  Elec       q    Type
REMARK                         _______ _______ _______ _____ _____    ______ ____
ROOT
ATOM      9  C   UNL     1       1.814  -2.106   0.000  0.00  0.00    +0.102 C 
ATOM     10  C   UNL     1       1.661  -1.343   0.000  0.00  0.00    +0.020 C 
ATOM     11  C   UNL     1       0.923  -1.010   0.000  0.00  0.00    +0.010 C 
ATOM     12  C   UNL     1       0.961  -0.114   0.000  0.00  0.00    +0.018 C 
ATOM     13  C   UNL     1       1.205  -0.720   0.000  0.00  0.00    +0.072 C 
ATOM     14  N   UNL     1       1.065  -1.759   0.000  0.00  0.00    -0.270 NA
ATOM     15  C   UNL     1       0.226  -2.118   0.000  0.00  0.00    +0.078 C 
ATOM     16  C   UNL     1       0.119  -1.362   0.000  0.00  0.00    +0.056 C 
ENDROOT
BRANCH  16  17
ATOM     17  C   UNL     1      -0.602  -0.960   0.000  0.00  0.00    +0.063 A 
ATOM     18  N   UNL     1      -1.310  -1.384   0.000  0.00  0.00    -0.235 NA
ATOM     19  C   UNL     1      -2.030  -0.982   0.000  0.00  0.00    +0.139 A 
ATOM     20  C   UNL     1      -2.739  -1.405   0.000  0.00  0.00    +0.074 C 
ATOM     21  N   UNL     1      -2.043  -0.157   0.000  0.00  0.00    -0.231 NA
ATOM     22  C   UNL     1      -1.335   0.266   0.000  0.00  0.00    +0.084 A 
ATOM     23  C   UNL     1      -0.614  -0.136   0.000  0.00  0.00    +0.034 A 
BRANCH  22  24
ATOM     24  C   UNL     1      -1.347   1.091   0.000  0.00  0.00    +0.018 A 
ATOM     25  C   UNL     1      -2.067   1.493   0.000  0.00  0.00    +0.004 A 
ATOM     26  C   UNL     1      -2.080   2.318   0.000  0.00  0.00    +0.030 A 
ATOM     27  C   UNL     1      -1.372   2.741   0.000  0.00  0.00    +0.140 A 
ATOM     28  F   UNL     1      -1.384   3.566   0.000  0.00  0.00    -0.204 F 
ATOM     29  C   UNL     1      -0.651   2.339   0.000  0.00  0.00    +0.030 A 
ATOM     30  C   UNL     1      -0.639   1.514   0.000  0.00  0.00    +0.004 A 
ENDBRANCH  22  24
ENDBRANCH  16  17
BRANCH   9   8
ATOM      8  C   UNL     1       2.324  -2.754   0.000  0.00  0.00    +0.226 C 
BRANCH   8   7
ATOM      7  O   UNL     1       2.018  -3.520   0.000  0.00  0.00    -0.432 OA
BRANCH   7   5
ATOM      4  N   UNL     1       2.223  -4.934   0.000  0.00  0.00    -0.170 NA
ATOM      5  C   UNL     1       2.529  -4.168   0.000  0.00  0.00    +0.421 C 
ATOM      6  O   UNL     1       3.345  -4.050   0.000  0.00  0.00    -0.225 OA
BRANCH   4   2
ATOM      1  C   UNL     1       2.427  -6.348   0.000  0.00  0.00    +0.024 C 
ATOM      2  C   UNL     1       2.733  -5.582   0.000  0.00  0.00    +0.099 C 
ATOM      3  C   UNL     1       3.550  -5.464   0.000  0.00  0.00    +0.024 C 
ENDBRANCH   4   2
ENDBRANCH   7   5
ENDBRANCH   8   7
ENDBRANCH   9   8
TORSDOF 6
