REMARK  Name = 
REMARK  10 active torsions:
REMARK  status: ('A' for Active; 'I' for Inactive)
REMARK    1  A    between atoms: S_2  and  C_3
REMARK    2  A    between atoms: C_3  and  C_4
REMARK    3  A    between atoms: C_8  and  N_25
REMARK    4  A    between atoms: C_10  and  C_11
REMARK    5  A    between atoms: N_13  and  C_14
REMARK    6  A    between atoms: C_14  and  C_15
REMARK    7  A    between atoms: C_14  and  C_22
REMARK    8  A    between atoms: C_15  and  C_16
REMARK    9  A    between atoms: N_28  and  C_29
REMARK   10  A    between atoms: C_29  and  C_30
REMARK                            x       y       z     vdW  Elec       q    Type
REMARK                         _______ _______ _______ _____ _____    ______ ____
ROOT
ATOM      4  C   UNL     1      -3.555  -3.491   0.000  0.00  0.00    +0.237 C 
ATOM      5  O   UNL     1      -3.070  -2.824   0.000  0.00  0.00    -0.274 OA
ATOM      6  N   UNL     1      -3.220  -4.245   0.000  0.00  0.00    -0.270 N 
ATOM      7  C   UNL     1      -2.413  -4.417   0.000  0.00  0.00    +0.116 C 
ATOM      8  C   UNL     1      -2.326  -5.237   0.000  0.00  0.00    +0.119 C 
ATOM      9  C   UNL     1      -3.080  -5.572   0.000  0.00  0.00    +0.053 C 
ATOM     10  C   UNL     1      -3.632  -4.959   0.000  0.00  0.00    +0.155 C 
ENDROOT
BRANCH   8  25
ATOM     25  N   UNL     1      -1.612  -5.649   0.000  0.00  0.00    -0.187 NA
ATOM     26  C   UNL     1      -0.897  -5.237   0.000  0.00  0.00    +0.340 C 
ATOM     27  O   UNL     1      -0.897  -4.412   0.000  0.00  0.00    -0.249 OA
ATOM     28  N   UNL     1      -0.183  -5.649   0.000  0.00  0.00    -0.182 NA
BRANCH  28  29
ATOM     29  C   UNL     1       0.531  -5.237   0.000  0.00  0.00    +0.143 C 
BRANCH  29  30
ATOM     30  C   UNL     1       1.246  -5.649   0.000  0.00  0.00    -0.003 C 
ATOM     31  C   UNL     1       1.960  -5.237   0.000  0.00  0.00    -0.003 C 
ENDBRANCH  29  30
ENDBRANCH  28  29
ENDBRANCH   8  25
BRANCH  10  11
ATOM     11  C   UNL     1      -4.453  -5.046   0.000  0.00  0.00    +0.260 C 
ATOM     12  O   UNL     1      -4.788  -5.799   0.000  0.00  0.00    -0.272 OA
ATOM     13  N   UNL     1      -4.938  -4.378   0.000  0.00  0.00    -0.196 NA
BRANCH  13  14
ATOM     14  C   UNL     1      -5.758  -4.465   0.000  0.00  0.00    +0.179 C 
BRANCH  14  22
ATOM     22  C   UNL     1      -6.093  -5.218   0.000  0.00  0.00    +0.281 C 
ATOM     23  N   UNL     1      -5.609  -5.886   0.000  0.00  0.00    -0.086 NA
ATOM     24  O   UNL     1      -6.914  -5.304   0.000  0.00  0.00    -0.270 OA
ENDBRANCH  14  22
BRANCH  14  15
ATOM     15  C   UNL     1      -6.243  -3.797   0.000  0.00  0.00    +0.057 C 
BRANCH  15  16
ATOM     16  C   UNL     1      -7.063  -3.883   0.000  0.00  0.00    -0.020 A 
ATOM     17  C   UNL     1      -7.399  -4.637   0.000  0.00  0.00    -0.004 A 
ATOM     18  C   UNL     1      -8.219  -4.723   0.000  0.00  0.00    -0.000 A 
ATOM     19  C   UNL     1      -8.704  -4.056   0.000  0.00  0.00    -0.000 A 
ATOM     20  C   UNL     1      -8.369  -3.302   0.000  0.00  0.00    -0.000 A 
ATOM     21  C   UNL     1      -7.548  -3.216   0.000  0.00  0.00    -0.004 A 
ENDBRANCH  15  16
ENDBRANCH  14  15
ENDBRANCH  13  14
ENDBRANCH  10  11
BRANCH   4   3
ATOM      3  C   UNL     1      -4.376  -3.405   0.000  0.00  0.00    +0.143 C 
BRANCH   3   2
ATOM      1  C   UNL     1      -5.532  -2.565   0.000  0.00  0.00    +0.070 C 
ATOM      2  S   UNL     1      -4.711  -2.651   0.000  0.00  0.00    -0.130 S 
ENDBRANCH   3   2
ENDBRANCH   4   3
TORSDOF 10
