REMARK  Name = 
REMARK  5 active torsions:
REMARK  status: ('A' for Active; 'I' for Inactive)
REMARK    1  A    between atoms: S_2  and  N_5
REMARK    2  A    between atoms: N_5  and  C_6
REMARK    3  A    between atoms: C_6  and  C_7
REMARK    4  A    between atoms: C_9  and  C_10
REMARK    5  A    between atoms: C_10  and  C_11
REMARK                            x       y       z     vdW  Elec       q    Type
REMARK                         _______ _______ _______ _____ _____    ______ ____
ROOT
ATOM      7  C   UNL     1       2.318  -1.961   0.000  0.00  0.00    +0.167 C 
ATOM      8  O   UNL     1       2.986  -2.446   0.000  0.00  0.00    -0.351 OA
ATOM      9  C   UNL     1       2.731  -3.231   0.000  0.00  0.00    +0.157 C 
ATOM     18  C   UNL     1       1.906  -3.231   0.000  0.00  0.00    +0.212 C 
ATOM     19  O   UNL     1       1.421  -3.898   0.000  0.00  0.00    -0.218 OA
ATOM     20  C   UNL     1       1.651  -2.446   0.000  0.00  0.00    +0.213 C 
ATOM     21  O   UNL     1       0.866  -2.191   0.000  0.00  0.00    -0.218 OA
ENDROOT
BRANCH   7   6
ATOM      6  C   UNL     1       2.318  -1.136   0.000  0.00  0.00    +0.147 C 
BRANCH   6   5
ATOM      5  N   UNL     1       1.604  -0.724   0.000  0.00  0.00    -0.079 NA
BRANCH   5   2
ATOM      1  C   UNL     1       1.604   0.926   0.000  0.00  0.00    +0.197 C 
ATOM      2  S   UNL     1       1.604   0.101   0.000  0.00  0.00    +0.059 S 
ATOM      3  O   UNL     1       0.779   0.101   0.000  0.00  0.00    -0.156 OA
ATOM      4  O   UNL     1       2.429   0.101   0.000  0.00  0.00    -0.156 OA
ENDBRANCH   5   2
ENDBRANCH   6   5
ENDBRANCH   7   6
BRANCH   9  10
ATOM     10  C   UNL     1       3.216  -3.898   0.000  0.00  0.00    +0.117 C 
BRANCH  10  11
ATOM     11  C   UNL     1       4.036  -3.812   0.000  0.00  0.00    +0.228 C 
ATOM     12  O   UNL     1       4.372  -3.058   0.000  0.00  0.00    -0.275 OA
ATOM     13  N   UNL     1       4.521  -4.479   0.000  0.00  0.00    -0.279 N 
ATOM     14  C   UNL     1       5.346  -4.479   0.000  0.00  0.00    +0.093 C 
ATOM     15  C   UNL     1       5.601  -5.264   0.000  0.00  0.00    +0.023 C 
ATOM     16  C   UNL     1       4.934  -5.749   0.000  0.00  0.00    +0.023 C 
ATOM     17  C   UNL     1       4.266  -5.264   0.000  0.00  0.00    +0.093 C 
ENDBRANCH  10  11
ENDBRANCH   9  10
TORSDOF 5
