REMARK  Name = 
REMARK  6 active torsions:
REMARK  status: ('A' for Active; 'I' for Inactive)
REMARK    1  A    between atoms: C_2  and  N_3
REMARK    2  A    between atoms: N_6  and  C_7
REMARK    3  A    between atoms: C_7  and  C_8
REMARK    4  A    between atoms: C_12  and  C_13
REMARK    5  A    between atoms: C_13  and  C_14
REMARK    6  A    between atoms: C_24  and  C_25
REMARK                            x       y       z     vdW  Elec       q    Type
REMARK                         _______ _______ _______ _____ _____    ______ ____
ROOT
ATOM      8  C   UNL     1       6.430  -7.838   0.000  0.00  0.00    +0.043 C 
ATOM      9  C   UNL     1       7.145  -7.425   0.000  0.00  0.00    -0.033 C 
ATOM     10  C   UNL     1       7.859  -7.838   0.000  0.00  0.00    -0.048 C 
ATOM     11  C   UNL     1       8.574  -7.425   0.000  0.00  0.00    +0.026 C 
ATOM     12  C   UNL     1       7.859  -8.662   0.000  0.00  0.00    +0.027 C 
ATOM     23  C   UNL     1       7.145  -9.075   0.000  0.00  0.00    +0.005 C 
ATOM     24  C   UNL     1       6.430  -8.662   0.000  0.00  0.00    +0.006 C 
ENDROOT
BRANCH  24  25
ATOM     25  C   UNL     1       5.716  -9.075   0.000  0.00  0.00    +0.000 C 
ATOM     26  C   UNL     1       5.001  -8.662   0.000  0.00  0.00    +0.000 C 
ATOM     27  C   UNL     1       5.716  -9.900   0.000  0.00  0.00    +0.000 C 
ENDBRANCH  24  25
BRANCH   8   7
ATOM      7  C   UNL     1       5.716  -7.425   0.000  0.00  0.00    +0.121 C 
BRANCH   7   6
ATOM      3  N   UNL     1       3.572  -7.838   0.000  0.00  0.00    -0.187 NA
ATOM      4  C   UNL     1       4.287  -7.425   0.000  0.00  0.00    +0.339 C 
ATOM      5  O   UNL     1       4.287  -6.600   0.000  0.00  0.00    -0.249 OA
ATOM      6  N   UNL     1       5.001  -7.838   0.000  0.00  0.00    -0.187 NA
BRANCH   3   2
ATOM      1  C   UNL     1       2.143  -7.838   0.000  0.00  0.00    +0.025 C 
ATOM      2  C   UNL     1       2.858  -7.425   0.000  0.00  0.00    +0.117 C 
ENDBRANCH   3   2
ENDBRANCH   7   6
ENDBRANCH   8   7
BRANCH  12  13
ATOM     13  C   UNL     1       8.574  -9.075   0.000  0.00  0.00    +0.089 C 
BRANCH  13  14
ATOM     14  C   UNL     1       9.288  -8.662   0.000  0.00  0.00    +0.226 C 
ATOM     15  O   UNL     1       9.288  -7.838   0.000  0.00  0.00    -0.275 OA
ATOM     16  N   UNL     1      10.003  -9.075   0.000  0.00  0.00    -0.277 N 
ATOM     17  C   UNL     1      10.717  -8.662   0.000  0.00  0.00    +0.111 C 
ATOM     18  C   UNL     1      11.431  -9.075   0.000  0.00  0.00    +0.094 C 
ATOM     19  N   UNL     1      11.431  -9.900   0.000  0.00  0.00    -0.269 NA
ATOM     20  C   UNL     1      12.146 -10.312   0.000  0.00  0.00    +0.090 C 
ATOM     21  C   UNL     1      10.717 -10.312   0.000  0.00  0.00    +0.094 C 
ATOM     22  C   UNL     1      10.003  -9.900   0.000  0.00  0.00    +0.111 C 
ENDBRANCH  13  14
ENDBRANCH  12  13
TORSDOF 6
