REMARK  Name = 
REMARK  10 active torsions:
REMARK  status: ('A' for Active; 'I' for Inactive)
REMARK    1  A    between atoms: C_2  and  C_5
REMARK    2  A    between atoms: C_5  and  C_6
REMARK    3  A    between atoms: C_11  and  N_12
REMARK    4  A    between atoms: N_15  and  C_16
REMARK    5  A    between atoms: C_16  and  C_17
REMARK    6  A    between atoms: C_19  and  C_20
REMARK    7  A    between atoms: N_22  and  C_23
REMARK    8  A    between atoms: C_23  and  C_24
REMARK    9  A    between atoms: C_23  and  C_34
REMARK   10  A    between atoms: C_24  and  C_25
REMARK                            x       y       z     vdW  Elec       q    Type
REMARK                         _______ _______ _______ _____ _____    ______ ____
ROOT
ATOM      6  C   UNL     1      -6.902   0.808   0.000  0.00  0.00    +0.226 C 
ATOM      7  O   UNL     1      -7.387   1.476   0.000  0.00  0.00    -0.275 OA
ATOM      8  N   UNL     1      -6.081   0.894   0.000  0.00  0.00    -0.272 N 
ATOM      9  C   UNL     1      -5.669   1.609   0.000  0.00  0.00    +0.096 C 
ATOM     10  C   UNL     1      -4.862   1.438   0.000  0.00  0.00    +0.045 C 
ATOM     11  C   UNL     1      -4.776   0.617   0.000  0.00  0.00    +0.126 C 
ATOM     19  C   UNL     1      -5.529   0.281   0.000  0.00  0.00    +0.174 C 
ENDROOT
BRANCH  11  12
ATOM     12  N   UNL     1      -4.061   0.204   0.000  0.00  0.00    -0.187 NA
ATOM     13  C   UNL     1      -3.347   0.617   0.000  0.00  0.00    +0.340 C 
ATOM     14  O   UNL     1      -3.347   1.442   0.000  0.00  0.00    -0.249 OA
ATOM     15  N   UNL     1      -2.632   0.204   0.000  0.00  0.00    -0.182 NA
BRANCH  15  16
ATOM     16  C   UNL     1      -1.918   0.617   0.000  0.00  0.00    +0.143 C 
BRANCH  16  17
ATOM     17  C   UNL     1      -1.203   0.204   0.000  0.00  0.00    -0.003 C 
ATOM     18  C   UNL     1      -0.489   0.617   0.000  0.00  0.00    -0.003 C 
ENDBRANCH  16  17
ENDBRANCH  15  16
ENDBRANCH  11  12
BRANCH  19  20
ATOM     20  C   UNL     1      -5.701  -0.525   0.000  0.00  0.00    +0.262 C 
ATOM     21  O   UNL     1      -6.485  -0.780   0.000  0.00  0.00    -0.271 OA
ATOM     22  N   UNL     1      -5.088  -1.078   0.000  0.00  0.00    -0.196 NA
BRANCH  22  23
ATOM     23  C   UNL     1      -5.259  -1.885   0.000  0.00  0.00    +0.179 C 
BRANCH  23  34
ATOM     34  C   UNL     1      -6.044  -2.139   0.000  0.00  0.00    +0.281 C 
ATOM     35  N   UNL     1      -6.657  -1.587   0.000  0.00  0.00    -0.086 NA
ATOM     36  O   UNL     1      -6.215  -2.946   0.000  0.00  0.00    -0.270 OA
ENDBRANCH  23  34
BRANCH  23  24
ATOM     24  C   UNL     1      -4.646  -2.437   0.000  0.00  0.00    +0.059 C 
BRANCH  24  25
ATOM     25  C   UNL     1      -4.818  -3.244   0.000  0.00  0.00    +0.001 A 
ATOM     26  C   UNL     1      -5.571  -3.579   0.000  0.00  0.00    +0.095 A 
ATOM     27  N   UNL     1      -5.485  -4.400   0.000  0.00  0.00    -0.244 NA
ATOM     28  C   UNL     1      -4.678  -4.571   0.000  0.00  0.00    +0.081 A 
ATOM     29  C   UNL     1      -4.266  -3.857   0.000  0.00  0.00    +0.015 A 
ATOM     30  C   UNL     1      -3.441  -3.857   0.000  0.00  0.00    +0.001 A 
ATOM     31  C   UNL     1      -3.028  -4.571   0.000  0.00  0.00    +0.000 A 
ATOM     32  C   UNL     1      -3.441  -5.286   0.000  0.00  0.00    +0.002 A 
ATOM     33  C   UNL     1      -4.266  -5.286   0.000  0.00  0.00    +0.019 A 
ENDBRANCH  24  25
ENDBRANCH  23  24
ENDBRANCH  22  23
ENDBRANCH  19  20
BRANCH   6   5
ATOM      5  C   UNL     1      -7.237   0.055   0.000  0.00  0.00    +0.085 C 
BRANCH   5   2
ATOM      1  C   UNL     1      -8.878  -0.118   0.000  0.00  0.00    +0.000 C 
ATOM      2  C   UNL     1      -8.058  -0.032   0.000  0.00  0.00    +0.009 C 
ATOM      3  C   UNL     1      -8.144   0.789   0.000  0.00  0.00    +0.000 C 
ATOM      4  C   UNL     1      -7.972  -0.852   0.000  0.00  0.00    +0.000 C 
ENDBRANCH   5   2
ENDBRANCH   6   5
TORSDOF 10
