REMARK  Name = 
REMARK  9 active torsions:
REMARK  status: ('A' for Active; 'I' for Inactive)
REMARK    1  A    between atoms: N_2  and  C_4
REMARK    2  A    between atoms: C_4  and  C_5
REMARK    3  A    between atoms: C_5  and  N_6
REMARK    4  A    between atoms: N_6  and  C_8
REMARK    5  A    between atoms: C_11  and  C_12
REMARK    6  A    between atoms: C_15  and  C_16
REMARK    7  A    between atoms: C_16  and  N_17
REMARK    8  A    between atoms: C_18  and  C_20
REMARK    9  A    between atoms: C_23  and  C_26
REMARK                            x       y       z     vdW  Elec       q    Type
REMARK                         _______ _______ _______ _____ _____    ______ ____
ROOT
ATOM      8  C   UNL     1       1.683  -3.969   0.000  0.00  0.00    +0.120 C 
ATOM      9  C   UNL     1       1.769  -3.148   0.000  0.00  0.00    +0.198 C 
ATOM     10  O   UNL     1       1.156  -2.596   0.000  0.00  0.00    -0.219 OA
ATOM     11  C   UNL     1       2.576  -2.977   0.000  0.00  0.00    +0.180 C 
ATOM     14  O   UNL     1       2.989  -3.692   0.000  0.00  0.00    -0.350 OA
ATOM     15  C   UNL     1       2.437  -4.305   0.000  0.00  0.00    +0.154 C 
ENDROOT
BRANCH   8   6
ATOM      6  N   UNL     1       0.968  -4.381   0.000  0.00  0.00    -0.267 NA
ATOM      7  C   UNL     1       0.968  -5.207   0.000  0.00  0.00    +0.090 C 
BRANCH   6   5
ATOM      5  C   UNL     1       0.254  -3.969   0.000  0.00  0.00    +0.090 C 
BRANCH   5   4
ATOM      4  C   UNL     1      -0.461  -4.381   0.000  0.00  0.00    +0.090 C 
BRANCH   4   2
ATOM      1  C   UNL     1      -1.889  -4.381   0.000  0.00  0.00    +0.090 C 
ATOM      2  N   UNL     1      -1.175  -3.969   0.000  0.00  0.00    -0.269 NA
ATOM      3  C   UNL     1      -1.175  -3.144   0.000  0.00  0.00    +0.090 C 
ENDBRANCH   4   2
ENDBRANCH   5   4
ENDBRANCH   6   5
ENDBRANCH   8   6
BRANCH  11  12
ATOM     12  C   UNL     1       2.912  -2.223   0.000  0.00  0.00    +0.214 C 
ATOM     13  O   UNL     1       3.732  -2.137   0.000  0.00  0.00    -0.218 OA
ENDBRANCH  11  12
BRANCH  15  16
ATOM     16  C   UNL     1       2.608  -5.112   0.000  0.00  0.00    +0.146 C 
BRANCH  16  17
ATOM     17  N   UNL     1       1.995  -5.664   0.000  0.00  0.00    -0.199 NA
ATOM     18  C   UNL     1       2.167  -6.471   0.000  0.00  0.00    +0.265 C 
ATOM     19  O   UNL     1       1.553  -7.023   0.000  0.00  0.00    -0.268 OA
BRANCH  18  20
ATOM     20  C   UNL     1       2.951  -6.726   0.000  0.00  0.00    +0.055 A 
ATOM     21  C   UNL     1       3.564  -6.173   0.000  0.00  0.00    +0.005 A 
ATOM     22  C   UNL     1       4.349  -6.428   0.000  0.00  0.00    +0.004 A 
ATOM     23  C   UNL     1       4.520  -7.235   0.000  0.00  0.00    +0.071 A 
ATOM     24  C   UNL     1       3.907  -7.787   0.000  0.00  0.00    +0.004 A 
ATOM     25  C   UNL     1       3.123  -7.532   0.000  0.00  0.00    +0.005 A 
BRANCH  23  26
ATOM     26  C   UNL     1       5.305  -7.490   0.000  0.00  0.00    +0.419 C 
ATOM     27  F   UNL     1       6.090  -7.745   0.000  0.00  0.00    -0.166 F 
ATOM     28  F   UNL     1       5.050  -8.275   0.000  0.00  0.00    -0.166 F 
ATOM     29  F   UNL     1       5.560  -6.706   0.000  0.00  0.00    -0.166 F 
ENDBRANCH  23  26
ENDBRANCH  18  20
ENDBRANCH  16  17
ENDBRANCH  15  16
TORSDOF 9
