REMARK  Name = 
REMARK  6 active torsions:
REMARK  status: ('A' for Active; 'I' for Inactive)
REMARK    1  A    between atoms: O_2  and  C_3
REMARK    2  A    between atoms: C_6  and  O_7
REMARK    3  A    between atoms: O_7  and  C_8
REMARK    4  A    between atoms: N_13  and  S_15
REMARK    5  A    between atoms: S_15  and  C_18
REMARK    6  A    between atoms: C_21  and  O_22
REMARK                            x       y       z     vdW  Elec       q    Type
REMARK                         _______ _______ _______ _____ _____    ______ ____
ROOT
ATOM      8  C   UNL     1      -0.401  -3.868   0.000  0.00  0.00    +0.213 C 
ATOM      9  C   UNL     1       0.281  -3.403   0.000  0.00  0.00    +0.187 C 
ATOM     10  O   UNL     1       1.069  -3.646   0.000  0.00  0.00    -0.348 OA
ATOM     11  C   UNL     1       1.371  -4.414   0.000  0.00  0.00    +0.161 C 
ATOM     12  C   UNL     1       0.958  -5.128   0.000  0.00  0.00    +0.128 C 
ATOM     13  N   UNL     1       0.142  -5.251   0.000  0.00  0.00    -0.149 NA
ATOM     14  C   UNL     1      -0.462  -4.690   0.000  0.00  0.00    +0.142 C 
ENDROOT
BRANCH  13  15
ATOM     15  S   UNL     1      -0.101  -6.040   0.000  0.00  0.00    +0.063 S 
ATOM     16  O   UNL     1      -0.889  -5.797   0.000  0.00  0.00    -0.153 OA
ATOM     17  O   UNL     1       0.688  -6.283   0.000  0.00  0.00    -0.153 OA
BRANCH  15  18
ATOM     18  C   UNL     1      -0.344  -6.828   0.000  0.00  0.00    +0.122 A 
ATOM     19  C   UNL     1       0.217  -7.433   0.000  0.00  0.00    +0.023 A 
ATOM     20  C   UNL     1      -0.026  -8.221   0.000  0.00  0.00    +0.038 A 
ATOM     21  C   UNL     1      -0.830  -8.405   0.000  0.00  0.00    +0.139 A 
ATOM     24  C   UNL     1      -1.391  -7.800   0.000  0.00  0.00    +0.038 A 
ATOM     25  C   UNL     1      -1.148  -7.012   0.000  0.00  0.00    +0.023 A 
BRANCH  21  22
ATOM     22  O   UNL     1      -1.073  -9.193   0.000  0.00  0.00    -0.471 OA
ATOM     23  C   UNL     1      -0.512  -9.798   0.000  0.00  0.00    +0.252 C 
ENDBRANCH  21  22
ENDBRANCH  15  18
ENDBRANCH  13  15
BRANCH   8   7
ATOM      7  O   UNL     1      -1.115  -3.455   0.000  0.00  0.00    -0.475 OA
BRANCH   7   6
ATOM      3  C   UNL     1      -1.115  -0.980   0.000  0.00  0.00    +0.139 A 
ATOM      4  C   UNL     1      -0.401  -1.393   0.000  0.00  0.00    +0.040 A 
ATOM      5  C   UNL     1      -0.401  -2.217   0.000  0.00  0.00    +0.040 A 
ATOM      6  C   UNL     1      -1.115  -2.630   0.000  0.00  0.00    +0.139 A 
ATOM     26  C   UNL     1      -1.830  -2.217   0.000  0.00  0.00    +0.040 A 
ATOM     27  C   UNL     1      -1.830  -1.393   0.000  0.00  0.00    +0.040 A 
BRANCH   3   2
ATOM      1  C   UNL     1      -1.830   0.258   0.000  0.00  0.00    +0.252 C 
ATOM      2  O   UNL     1      -1.115  -0.155   0.000  0.00  0.00    -0.471 OA
ENDBRANCH   3   2
ENDBRANCH   7   6
ENDBRANCH   8   7
TORSDOF 6
