REMARK  Name = 
REMARK  7 active torsions:
REMARK  status: ('A' for Active; 'I' for Inactive)
REMARK    1  A    between atoms: C_2  and  C_4
REMARK    2  A    between atoms: N_7  and  C_10
REMARK    3  A    between atoms: C_12  and  C_16
REMARK    4  A    between atoms: C_19  and  C_21
REMARK    5  A    between atoms: N_25  and  C_26
REMARK    6  A    between atoms: C_26  and  C_27
REMARK    7  A    between atoms: C_30  and  C_33
REMARK                            x       y       z     vdW  Elec       q    Type
REMARK                         _______ _______ _______ _____ _____    ______ ____
ROOT
ATOM     16  C   UNL     1       0.381  -2.790   0.000  0.00  0.00    +0.203 A 
ATOM     17  N   UNL     1      -0.287  -3.275   0.000  0.00  0.00    -0.056 NA
ATOM     18  O   UNL     1      -0.032  -4.060   0.000  0.00  0.00    -0.336 OA
ATOM     19  C   UNL     1       0.793  -4.060   0.000  0.00  0.00    +0.251 A 
ATOM     20  N   UNL     1       1.048  -3.275   0.000  0.00  0.00    -0.190 NA
ENDROOT
BRANCH  16  12
ATOM     10  C   UNL     1       1.095  -0.728   0.000  0.00  0.00    +0.132 A 
ATOM     11  C   UNL     1       1.095  -1.553   0.000  0.00  0.00    +0.037 A 
ATOM     12  C   UNL     1       0.381  -1.965   0.000  0.00  0.00    +0.043 A 
ATOM     13  C   UNL     1      -0.334  -1.553   0.000  0.00  0.00    +0.024 A 
ATOM     14  C   UNL     1      -0.334  -0.728   0.000  0.00  0.00    +0.100 A 
ATOM     15  N   UNL     1       0.381  -0.315   0.000  0.00  0.00    -0.229 NA
BRANCH  10   7
ATOM      4  C   UNL     1       3.238   0.510   0.000  0.00  0.00    +0.083 C 
ATOM      5  C   UNL     1       3.238  -0.315   0.000  0.00  0.00    +0.031 C 
ATOM      6  C   UNL     1       2.524  -0.728   0.000  0.00  0.00    +0.093 C 
ATOM      7  N   UNL     1       1.810  -0.315   0.000  0.00  0.00    -0.293 N 
ATOM      8  C   UNL     1       1.810   0.510   0.000  0.00  0.00    +0.093 C 
ATOM      9  C   UNL     1       2.524   0.922   0.000  0.00  0.00    +0.031 C 
BRANCH   4   2
ATOM      1  N   UNL     1       3.953   1.747   0.000  0.00  0.00    -0.088 NA
ATOM      2  C   UNL     1       3.953   0.922   0.000  0.00  0.00    +0.260 C 
ATOM      3  O   UNL     1       4.667   0.510   0.000  0.00  0.00    -0.272 OA
ENDBRANCH   4   2
ENDBRANCH  10   7
ENDBRANCH  16  12
BRANCH  19  21
ATOM     21  C   UNL     1       1.278  -4.727   0.000  0.00  0.00    +0.138 C 
ATOM     22  C   UNL     1       1.023  -5.512   0.000  0.00  0.00    +0.027 C 
ATOM     23  C   UNL     1       1.690  -5.997   0.000  0.00  0.00    +0.019 C 
ATOM     24  C   UNL     1       2.358  -5.512   0.000  0.00  0.00    +0.073 C 
ATOM     25  N   UNL     1       2.103  -4.727   0.000  0.00  0.00    -0.263 NA
BRANCH  25  26
ATOM     26  C   UNL     1       2.588  -4.060   0.000  0.00  0.00    +0.099 C 
BRANCH  26  27
ATOM     27  C   UNL     1       3.408  -4.146   0.000  0.00  0.00    -0.006 A 
ATOM     28  C   UNL     1       3.893  -3.479   0.000  0.00  0.00    -0.002 A 
ATOM     29  C   UNL     1       4.714  -3.565   0.000  0.00  0.00    +0.010 A 
ATOM     30  C   UNL     1       5.049  -4.319   0.000  0.00  0.00    +0.068 A 
ATOM     31  C   UNL     1       4.564  -4.986   0.000  0.00  0.00    +0.010 A 
ATOM     32  C   UNL     1       3.744  -4.900   0.000  0.00  0.00    -0.002 A 
BRANCH  30  33
ATOM     33  C   UNL     1       5.870  -4.405   0.000  0.00  0.00    +0.100 C 
ATOM     34  N   UNL     1       6.690  -4.491   0.000  0.00  0.00    -0.191 NA
ENDBRANCH  30  33
ENDBRANCH  26  27
ENDBRANCH  25  26
ENDBRANCH  19  21
TORSDOF 7
