REMARK  Name = 
REMARK  3 active torsions:
REMARK  status: ('A' for Active; 'I' for Inactive)
REMARK    1  A    between atoms: C_5  and  N_8
REMARK    2  A    between atoms: C_19  and  C_21
REMARK    3  A    between atoms: C_24  and  C_27
REMARK                            x       y       z     vdW  Elec       q    Type
REMARK                         _______ _______ _______ _____ _____    ______ ____
ROOT
ATOM      8  N   UNL     1       3.352   1.935   0.000  0.00  0.00    -0.190 N 
ATOM      9  C   UNL     1       3.352   1.110   0.000  0.00  0.00    +0.333 C 
ATOM     10  O   UNL     1       4.067   0.698   0.000  0.00  0.00    -0.250 OA
ATOM     11  N   UNL     1       2.638   0.698   0.000  0.00  0.00    -0.187 NA
ATOM     12  C   UNL     1       1.923   1.110   0.000  0.00  0.00    +0.126 C 
ATOM     13  C   UNL     1       1.139   0.856   0.000  0.00  0.00    +0.045 C 
ATOM     14  C   UNL     1       0.654   1.523   0.000  0.00  0.00    +0.096 C 
ATOM     15  N   UNL     1       1.139   2.190   0.000  0.00  0.00    -0.268 N 
ATOM     16  C   UNL     1       1.923   1.935   0.000  0.00  0.00    +0.173 C 
ATOM     17  C   UNL     1       2.638   2.348   0.000  0.00  0.00    +0.256 C 
ATOM     18  O   UNL     1       2.638   3.173   0.000  0.00  0.00    -0.272 OA
ATOM     19  C   UNL     1       0.884   2.975   0.000  0.00  0.00    +0.249 C 
ATOM     20  O   UNL     1       0.077   3.147   0.000  0.00  0.00    -0.270 OA
ENDROOT
BRANCH   8   5
ATOM      1  F   UNL     1       6.210   3.585   0.000  0.00  0.00    -0.204 F 
ATOM      2  C   UNL     1       5.496   3.173   0.000  0.00  0.00    +0.140 A 
ATOM      3  C   UNL     1       5.496   2.348   0.000  0.00  0.00    +0.031 A 
ATOM      4  C   UNL     1       4.781   1.935   0.000  0.00  0.00    +0.018 A 
ATOM      5  C   UNL     1       4.067   2.348   0.000  0.00  0.00    +0.062 A 
ATOM      6  C   UNL     1       4.067   3.173   0.000  0.00  0.00    +0.018 A 
ATOM      7  C   UNL     1       4.781   3.585   0.000  0.00  0.00    +0.031 A 
ENDBRANCH   8   5
BRANCH  19  21
ATOM     21  C   UNL     1       1.436   3.588   0.000  0.00  0.00    +0.054 A 
ATOM     22  C   UNL     1       1.181   4.373   0.000  0.00  0.00    +0.005 A 
ATOM     23  C   UNL     1       1.733   4.986   0.000  0.00  0.00    +0.000 A 
ATOM     24  C   UNL     1       2.540   4.814   0.000  0.00  0.00    +0.000 A 
ATOM     25  C   UNL     1       2.795   4.030   0.000  0.00  0.00    +0.000 A 
ATOM     26  C   UNL     1       2.243   3.417   0.000  0.00  0.00    +0.005 A 
BRANCH  24  27
ATOM     27  C   UNL     1       3.092   5.427   0.000  0.00  0.00    +0.000 A 
ATOM     28  C   UNL     1       2.837   6.212   0.000  0.00  0.00    +0.000 A 
ATOM     29  C   UNL     1       3.389   6.825   0.000  0.00  0.00    +0.000 A 
ATOM     30  C   UNL     1       4.196   6.654   0.000  0.00  0.00    +0.000 A 
ATOM     31  C   UNL     1       4.451   5.869   0.000  0.00  0.00    +0.000 A 
ATOM     32  C   UNL     1       3.899   5.256   0.000  0.00  0.00    +0.000 A 
ENDBRANCH  24  27
ENDBRANCH  19  21
TORSDOF 3
