REMARK  Name = 
REMARK  6 active torsions:
REMARK  status: ('A' for Active; 'I' for Inactive)
REMARK    1  A    between atoms: C_2  and  C_3
REMARK    2  A    between atoms: C_3  and  S_4
REMARK    3  A    between atoms: S_4  and  C_7
REMARK    4  A    between atoms: N_13  and  C_14
REMARK    5  A    between atoms: CA_23  and  CB_24
REMARK    6  A    between atoms: CB_24  and  CG_25
REMARK                            x       y       z     vdW  Elec       q    Type
REMARK                         _______ _______ _______ _____ _____    ______ ____
ROOT
ATOM     14  C   UNK A   1      -0.786   1.999   0.000  0.00  0.00    +0.099 C 
ATOM     15  C   UNK A   1      -0.531   1.215   0.000  0.00  0.00    +0.043 C 
ATOM     16  C   UNK A   1       0.276   1.043   0.000  0.00  0.00    +0.096 C 
ATOM     17  N   UNK A   1       0.828   1.656   0.000  0.00  0.00    -0.271 N 
ATOM     18  C   UNK A   1       0.573   2.441   0.000  0.00  0.00    +0.155 C 
ATOM     19  C   UNK A   1      -0.234   2.612   0.000  0.00  0.00    +0.051 C 
ATOM     20  C   UNK A   1       1.125   3.054   0.000  0.00  0.00    +0.260 C 
ATOM     21  O   UNK A   1       0.870   3.838   0.000  0.00  0.00    -0.272 OA
ATOM     22  N   TRP A   2       1.932   2.882   0.000  0.00  0.00    -0.196 NA
ATOM     23  CA  TRP A   2       2.187   2.098   0.000  0.00  0.00    +0.176 C 
ATOM     34  C   TRP A   2       1.635   1.485   0.000  0.00  0.00    +0.246 C 
ATOM     35  O   TRP A   2       1.890   0.700   0.000  0.00  0.00    -0.273 OA
ENDROOT
BRANCH  14  13
ATOM      1  O   UNK A   1      -1.890   0.773   0.000  0.00  0.00    -0.271 OA
ATOM      2  C   UNK A   1      -2.145   1.558   0.000  0.00  0.00    +0.266 C 
ATOM     13  N   UNK A   1      -1.593   2.171   0.000  0.00  0.00    -0.206 NA
BRANCH   2   3
ATOM      3  C   UNK A   1      -2.952   1.729   0.000  0.00  0.00    +0.242 C 
BRANCH   3   4
ATOM      4  S   UNK A   1      -3.504   1.116   0.000  0.00  0.00    +0.018 S 
ATOM      5  O   UNK A   1      -2.891   0.564   0.000  0.00  0.00    -0.168 OA
ATOM      6  O   UNK A   1      -4.117   1.668   0.000  0.00  0.00    -0.168 OA
BRANCH   4   7
ATOM      7  C   UNK A   1      -4.056   0.503   0.000  0.00  0.00    +0.106 A 
ATOM      8  C   UNK A   1      -3.801  -0.282   0.000  0.00  0.00    +0.018 A 
ATOM      9  C   UNK A   1      -4.353  -0.895   0.000  0.00  0.00    +0.001 A 
ATOM     10  C   UNK A   1      -5.160  -0.723   0.000  0.00  0.00    +0.000 A 
ATOM     11  C   UNK A   1      -5.415   0.061   0.000  0.00  0.00    +0.001 A 
ATOM     12  C   UNK A   1      -4.863   0.674   0.000  0.00  0.00    +0.018 A 
ENDBRANCH   4   7
ENDBRANCH   3   4
ENDBRANCH   2   3
ENDBRANCH  14  13
BRANCH  23  24
ATOM     24  CB  TRP A   2       2.994   1.926   0.000  0.00  0.00    +0.059 C 
BRANCH  24  25
ATOM     25  CG  TRP A   2       3.249   1.141   0.000  0.00  0.00    +0.001 A 
ATOM     26  CD1 TRP A   2       2.764   0.474   0.000  0.00  0.00    +0.095 A 
ATOM     27  NE1 TRP A   2       3.249  -0.193   0.000  0.00  0.00    -0.244 NA
ATOM     28  CE2 TRP A   2       4.033   0.062   0.000  0.00  0.00    +0.081 A 
ATOM     29  CD2 TRP A   2       4.033   0.887   0.000  0.00  0.00    +0.015 A 
ATOM     30  CE3 TRP A   2       4.748   1.299   0.000  0.00  0.00    +0.001 A 
ATOM     31  CZ3 TRP A   2       5.462   0.887   0.000  0.00  0.00    +0.000 A 
ATOM     32  CH2 TRP A   2       5.462   0.062   0.000  0.00  0.00    +0.002 A 
ATOM     33  CZ2 TRP A   2       4.748  -0.351   0.000  0.00  0.00    +0.019 A 
ENDBRANCH  24  25
ENDBRANCH  23  24
TORSDOF 6
