REMARK  Name = 
REMARK  7 active torsions:
REMARK  status: ('A' for Active; 'I' for Inactive)
REMARK    1  A    between atoms: O_2  and  C_3
REMARK    2  A    between atoms: C_3  and  C_4
REMARK    3  A    between atoms: N_8  and  C_9
REMARK    4  A    between atoms: C_12  and  C_13
REMARK    5  A    between atoms: C_16  and  C_17
REMARK    6  A    between atoms: C_17  and  N_18
REMARK    7  A    between atoms: C_19  and  C_21
REMARK                            x       y       z     vdW  Elec       q    Type
REMARK                         _______ _______ _______ _____ _____    ______ ____
ROOT
ATOM      9  C   UNL     1      -1.833  -3.020   0.000  0.00  0.00    +0.120 C 
ATOM     10  C   UNL     1      -2.500  -3.505   0.000  0.00  0.00    +0.198 C 
ATOM     11  O   UNL     1      -2.500  -4.330   0.000  0.00  0.00    -0.219 OA
ATOM     12  C   UNL     1      -3.167  -3.020   0.000  0.00  0.00    +0.180 C 
ATOM     15  O   UNL     1      -2.913  -2.236   0.000  0.00  0.00    -0.350 OA
ATOM     16  C   UNL     1      -2.088  -2.236   0.000  0.00  0.00    +0.154 C 
ENDROOT
BRANCH   9   8
ATOM      4  C   UNL     1      -0.381  -2.790   0.000  0.00  0.00    +0.087 C 
ATOM      5  C   UNL     1       0.287  -3.275   0.000  0.00  0.00    +0.020 C 
ATOM      6  C   UNL     1       0.032  -4.060   0.000  0.00  0.00    +0.019 C 
ATOM      7  C   UNL     1      -0.793  -4.060   0.000  0.00  0.00    +0.072 C 
ATOM      8  N   UNL     1      -1.048  -3.275   0.000  0.00  0.00    -0.269 NA
BRANCH   4   3
ATOM      3  C   UNL     1      -0.381  -1.965   0.000  0.00  0.00    +0.158 C 
BRANCH   3   2
ATOM      1  C   UNL     1       1.048  -1.965   0.000  0.00  0.00    +0.174 C 
ATOM      2  O   UNL     1       0.334  -1.553   0.000  0.00  0.00    -0.350 OA
ENDBRANCH   3   2
ENDBRANCH   4   3
ENDBRANCH   9   8
BRANCH  12  13
ATOM     13  C   UNL     1      -3.952  -3.275   0.000  0.00  0.00    +0.214 C 
ATOM     14  O   UNL     1      -4.565  -2.723   0.000  0.00  0.00    -0.218 OA
ENDBRANCH  12  13
BRANCH  16  17
ATOM     17  C   UNL     1      -1.603  -1.568   0.000  0.00  0.00    +0.146 C 
BRANCH  17  18
ATOM     18  N   UNL     1      -0.782  -1.655   0.000  0.00  0.00    -0.199 NA
ATOM     19  C   UNL     1      -0.297  -0.987   0.000  0.00  0.00    +0.265 C 
ATOM     20  O   UNL     1       0.523  -1.073   0.000  0.00  0.00    -0.268 OA
BRANCH  19  21
ATOM     21  C   UNL     1      -0.633  -0.233   0.000  0.00  0.00    +0.056 A 
ATOM     22  C   UNL     1      -1.453  -0.147   0.000  0.00  0.00    +0.018 A 
ATOM     23  C   UNL     1      -1.789   0.607   0.000  0.00  0.00    +0.085 A 
ATOM     24 CL   UNL     1      -2.609   0.693   0.000  0.00  0.00    -0.080 Cl
ATOM     25  C   UNL     1      -1.304   1.274   0.000  0.00  0.00    +0.151 A 
ATOM     26  F   UNL     1      -1.639   2.028   0.000  0.00  0.00    -0.203 F 
ATOM     27  C   UNL     1      -0.483   1.188   0.000  0.00  0.00    +0.031 A 
ATOM     28  C   UNL     1      -0.148   0.434   0.000  0.00  0.00    +0.007 A 
ENDBRANCH  19  21
ENDBRANCH  17  18
ENDBRANCH  16  17
TORSDOF 7
