REMARK  Name = 
REMARK  8 active torsions:
REMARK  status: ('A' for Active; 'I' for Inactive)
REMARK    1  A    between atoms: C_2  and  C_3
REMARK    2  A    between atoms: C_5  and  O_27
REMARK    3  A    between atoms: C_10  and  C_11
REMARK    4  A    between atoms: C_11  and  C_12
REMARK    5  A    between atoms: N_14  and  C_15
REMARK    6  A    between atoms: C_15  and  C_16
REMARK    7  A    between atoms: O_27  and  C_28
REMARK    8  A    between atoms: N_30  and  C_31
REMARK                            x       y       z     vdW  Elec       q    Type
REMARK                         _______ _______ _______ _____ _____    ______ ____
ROOT
ATOM      1  C   UNL     1       0.899  -2.282   0.000  0.00  0.00    +0.006 C 
ATOM      2  C   UNL     1       1.429  -1.650   0.000  0.00  0.00    +0.068 C 
ATOM      5  C   UNL     1       0.715  -1.238   0.000  0.00  0.00    +0.173 C 
ATOM      6  C   UNL     1       0.715  -0.412   0.000  0.00  0.00    +0.044 C 
ATOM      7  C   UNL     1       1.429   0.000   0.000  0.00  0.00    +0.004 C 
ATOM      8  C   UNL     1       2.143  -0.412   0.000  0.00  0.00    +0.003 C 
ATOM      9  C   UNL     1       2.143   0.412   0.000  0.00  0.00    +0.000 C 
ATOM     10  C   UNL     1       2.858   0.000   0.000  0.00  0.00    +0.040 C 
ATOM     22  C   UNL     1       3.572  -0.412   0.000  0.00  0.00    +0.152 C 
ATOM     23  O   UNL     1       4.287   0.000   0.000  0.00  0.00    -0.223 OA
ATOM     24  C   UNL     1       3.572  -1.238   0.000  0.00  0.00    +0.033 C 
ATOM     25  C   UNL     1       2.858  -1.650   0.000  0.00  0.00    +0.003 C 
ATOM     26  C   UNL     1       2.143  -1.238   0.000  0.00  0.00    +0.006 C 
ENDROOT
BRANCH   2   3
ATOM      3  C   UNL     1       1.959  -2.282   0.000  0.00  0.00    +0.185 C 
ATOM      4  O   UNL     1       2.772  -2.139   0.000  0.00  0.00    -0.220 OA
ENDBRANCH   2   3
BRANCH  10  11
ATOM     11  C   UNL     1       2.858   0.825   0.000  0.00  0.00    +0.089 C 
BRANCH  11  12
ATOM     12  C   UNL     1       3.572   1.238   0.000  0.00  0.00    +0.242 C 
ATOM     13  O   UNL     1       4.287   0.825   0.000  0.00  0.00    -0.273 OA
ATOM     14  N   UNL     1       3.572   2.062   0.000  0.00  0.00    -0.201 NA
BRANCH  14  15
ATOM     15  C   UNL     1       4.287   2.475   0.000  0.00  0.00    +0.141 C 
BRANCH  15  16
ATOM     16  C   UNL     1       4.287   3.300   0.000  0.00  0.00    -0.001 A 
ATOM     17  C   UNL     1       3.572   3.712   0.000  0.00  0.00    -0.003 A 
ATOM     18  C   UNL     1       3.572   4.537   0.000  0.00  0.00    -0.000 A 
ATOM     19  C   UNL     1       4.287   4.950   0.000  0.00  0.00    -0.000 A 
ATOM     20  C   UNL     1       5.001   4.537   0.000  0.00  0.00    -0.000 A 
ATOM     21  C   UNL     1       5.001   3.712   0.000  0.00  0.00    -0.003 A 
ENDBRANCH  15  16
ENDBRANCH  14  15
ENDBRANCH  11  12
ENDBRANCH  10  11
BRANCH   5  27
ATOM     27  O   UNL     1       0.000  -1.650   0.000  0.00  0.00    -0.437 OA
BRANCH  27  28
ATOM     28  C   UNL     1      -0.715  -1.238   0.000  0.00  0.00    +0.421 C 
ATOM     29  O   UNL     1      -0.715  -0.412   0.000  0.00  0.00    -0.225 OA
ATOM     30  N   UNL     1      -1.429  -1.650   0.000  0.00  0.00    -0.170 NA
BRANCH  30  31
ATOM     31  C   UNL     1      -1.429  -2.475   0.000  0.00  0.00    +0.099 C 
ATOM     32  C   UNL     1      -0.715  -2.888   0.000  0.00  0.00    +0.022 C 
ATOM     33  C   UNL     1      -0.715  -3.712   0.000  0.00  0.00    +0.002 C 
ATOM     34  C   UNL     1      -1.429  -4.125   0.000  0.00  0.00    +0.000 C 
ATOM     35  C   UNL     1      -2.143  -3.712   0.000  0.00  0.00    +0.002 C 
ATOM     36  C   UNL     1      -2.143  -2.888   0.000  0.00  0.00    +0.022 C 
ENDBRANCH  30  31
ENDBRANCH  27  28
ENDBRANCH   5  27
TORSDOF 8
