REMARK  Name = 
REMARK  11 active torsions:
REMARK  status: ('A' for Active; 'I' for Inactive)
REMARK    1  A    between atoms: S_2  and  C_3
REMARK    2  A    between atoms: C_3  and  C_4
REMARK    3  A    between atoms: N_6  and  C_7
REMARK    4  A    between atoms: C_11  and  C_13
REMARK    5  A    between atoms: N_15  and  C_16
REMARK    6  A    between atoms: C_16  and  C_17
REMARK    7  A    between atoms: C_16  and  C_24
REMARK    8  A    between atoms: C_17  and  C_18
REMARK    9  A    between atoms: C_27  and  C_29
REMARK   10  A    between atoms: C_29  and  C_30
REMARK   11  A    between atoms: C_30  and  C_31
REMARK                            x       y       z     vdW  Elec       q    Type
REMARK                         _______ _______ _______ _____ _____    ______ ____
ROOT
ATOM      7  C   UNL     1      -2.858  -3.300   0.000  0.00  0.00    +0.099 C 
ATOM      8  C   UNL     1      -2.143  -2.888   0.000  0.00  0.00    +0.043 C 
ATOM      9  C   UNL     1      -1.429  -3.300   0.000  0.00  0.00    +0.096 C 
ATOM     10  N   UNL     1      -1.429  -4.125   0.000  0.00  0.00    -0.273 N 
ATOM     11  C   UNL     1      -2.143  -4.537   0.000  0.00  0.00    +0.155 C 
ATOM     12  C   UNL     1      -2.858  -4.125   0.000  0.00  0.00    +0.051 C 
ATOM     27  C   UNL     1      -0.715  -4.537   0.000  0.00  0.00    +0.227 C 
ATOM     28  O   UNL     1      -0.715  -5.362   0.000  0.00  0.00    -0.275 OA
ENDROOT
BRANCH   7   6
ATOM      4  C   UNL     1      -3.572  -2.062   0.000  0.00  0.00    +0.252 C 
ATOM      5  O   UNL     1      -2.858  -1.650   0.000  0.00  0.00    -0.272 OA
ATOM      6  N   UNL     1      -3.572  -2.888   0.000  0.00  0.00    -0.206 NA
BRANCH   4   3
ATOM      3  C   UNL     1      -4.287  -1.650   0.000  0.00  0.00    +0.144 C 
BRANCH   3   2
ATOM      1  C   UNL     1      -5.001  -0.412   0.000  0.00  0.00    +0.070 C 
ATOM      2  S   UNL     1      -4.287  -0.825   0.000  0.00  0.00    -0.130 S 
ENDBRANCH   3   2
ENDBRANCH   4   3
ENDBRANCH   7   6
BRANCH  11  13
ATOM     13  C   UNL     1      -2.143  -5.362   0.000  0.00  0.00    +0.260 C 
ATOM     14  O   UNL     1      -2.858  -5.775   0.000  0.00  0.00    -0.272 OA
ATOM     15  N   UNL     1      -1.429  -5.775   0.000  0.00  0.00    -0.196 NA
BRANCH  15  16
ATOM     16  C   UNL     1      -1.429  -6.600   0.000  0.00  0.00    +0.174 C 
BRANCH  16  24
ATOM     24  C   UNL     1      -2.143  -7.013   0.000  0.00  0.00    +0.281 C 
ATOM     25  N   UNL     1      -2.143  -7.838   0.000  0.00  0.00    -0.086 NA
ATOM     26  O   UNL     1      -2.858  -6.600   0.000  0.00  0.00    -0.270 OA
ENDBRANCH  16  24
BRANCH  16  17
ATOM     17  C   UNL     1      -0.715  -7.013   0.000  0.00  0.00    +0.031 C 
BRANCH  17  18
ATOM     18  C   UNL     1      -0.715  -7.838   0.000  0.00  0.00    +0.002 C 
ATOM     19  C   UNL     1       0.000  -8.250   0.000  0.00  0.00    +0.000 C 
ATOM     20  C   UNL     1       0.000  -9.075   0.000  0.00  0.00    +0.000 C 
ATOM     21  C   UNL     1      -0.715  -9.488   0.000  0.00  0.00    +0.000 C 
ATOM     22  C   UNL     1      -1.429  -9.075   0.000  0.00  0.00    +0.000 C 
ATOM     23  C   UNL     1      -1.429  -8.250   0.000  0.00  0.00    +0.000 C 
ENDBRANCH  17  18
ENDBRANCH  16  17
ENDBRANCH  15  16
ENDBRANCH  11  13
BRANCH  27  29
ATOM     29  C   UNL     1       0.000  -4.125   0.000  0.00  0.00    +0.097 C 
BRANCH  29  30
ATOM     30  C   UNL     1       0.715  -4.537   0.000  0.00  0.00    +0.124 C 
BRANCH  30  31
ATOM     31  C   UNL     1       1.429  -4.125   0.000  0.00  0.00    +0.365 C 
ATOM     32  O   UNL     1       1.429  -3.300   0.000  0.00  0.00    -0.246 OA
ATOM     33  O   UNL     1       2.143  -4.537   0.000  0.00  0.00    -0.246 OA
ENDBRANCH  30  31
ENDBRANCH  29  30
ENDBRANCH  27  29
TORSDOF 11
