REMARK  Name = 
REMARK  10 active torsions:
REMARK  status: ('A' for Active; 'I' for Inactive)
REMARK    1  A    between atoms: C_2  and  C_4
REMARK    2  A    between atoms: C_4  and  N_5
REMARK    3  A    between atoms: C_4  and  C_30
REMARK    4  A    between atoms: C_6  and  C_8
REMARK    5  A    between atoms: C_10  and  N_21
REMARK    6  A    between atoms: C_14  and  C_16
REMARK    7  A    between atoms: C_16  and  C_17
REMARK    8  A    between atoms: C_17  and  C_18
REMARK    9  A    between atoms: C_22  and  C_24
REMARK   10  A    between atoms: C_24  and  C_25
REMARK                            x       y       z     vdW  Elec       q    Type
REMARK                         _______ _______ _______ _____ _____    ______ ____
ROOT
ATOM      8  C   UNL     1       0.000  -1.650   0.000  0.00  0.00    +0.155 C 
ATOM      9  C   UNL     1      -0.715  -2.062   0.000  0.00  0.00    +0.051 C 
ATOM     10  C   UNL     1      -1.429  -1.650   0.000  0.00  0.00    +0.099 C 
ATOM     11  C   UNL     1      -1.429  -0.825   0.000  0.00  0.00    +0.043 C 
ATOM     12  C   UNL     1      -0.715  -0.412   0.000  0.00  0.00    +0.096 C 
ATOM     13  N   UNL     1       0.000  -0.825   0.000  0.00  0.00    -0.273 N 
ATOM     14  C   UNL     1       0.715  -0.412   0.000  0.00  0.00    +0.227 C 
ATOM     15  O   UNL     1       1.429  -0.825   0.000  0.00  0.00    -0.275 OA
ENDROOT
BRANCH   8   6
ATOM      5  N   UNL     1       1.429  -1.650   0.000  0.00  0.00    -0.196 NA
ATOM      6  C   UNL     1       0.715  -2.062   0.000  0.00  0.00    +0.260 C 
ATOM      7  O   UNL     1       0.715  -2.888   0.000  0.00  0.00    -0.272 OA
BRANCH   5   4
ATOM      4  C   UNL     1       2.143  -2.062   0.000  0.00  0.00    +0.174 C 
BRANCH   4   2
ATOM      1  C   UNL     1       2.858  -3.300   0.000  0.00  0.00    +0.002 C 
ATOM      2  C   UNL     1       2.143  -2.888   0.000  0.00  0.00    +0.029 C 
ATOM      3  C   UNL     1       1.429  -3.300   0.000  0.00  0.00    +0.002 C 
ENDBRANCH   4   2
BRANCH   4  30
ATOM     30  C   UNL     1       2.858  -1.650   0.000  0.00  0.00    +0.281 C 
ATOM     31  N   UNL     1       3.572  -2.062   0.000  0.00  0.00    -0.086 NA
ATOM     32  O   UNL     1       2.858  -0.825   0.000  0.00  0.00    -0.270 OA
ENDBRANCH   4  30
ENDBRANCH   5   4
ENDBRANCH   8   6
BRANCH  10  21
ATOM     21  N   UNL     1      -2.143  -2.062   0.000  0.00  0.00    -0.207 NA
ATOM     22  C   UNL     1      -2.858  -1.650   0.000  0.00  0.00    +0.246 C 
ATOM     23  O   UNL     1      -2.858  -0.825   0.000  0.00  0.00    -0.273 OA
BRANCH  22  24
ATOM     24  C   UNL     1      -3.572  -2.062   0.000  0.00  0.00    +0.120 C 
BRANCH  24  25
ATOM     25  C   UNL     1      -4.287  -1.650   0.000  0.00  0.00    +0.016 A 
ATOM     26  C   UNL     1      -5.040  -1.986   0.000  0.00  0.00    +0.003 A 
ATOM     27  C   UNL     1      -5.593  -1.373   0.000  0.00  0.00    +0.007 A 
ATOM     28  C   UNL     1      -5.180  -0.658   0.000  0.00  0.00    +0.035 A 
ATOM     29  S   UNL     1      -4.373  -0.830   0.000  0.00  0.00    -0.090 S 
ENDBRANCH  24  25
ENDBRANCH  22  24
ENDBRANCH  10  21
BRANCH  14  16
ATOM     16  C   UNL     1       0.715   0.412   0.000  0.00  0.00    +0.097 C 
BRANCH  16  17
ATOM     17  C   UNL     1       1.429   0.825   0.000  0.00  0.00    +0.124 C 
BRANCH  17  18
ATOM     18  C   UNL     1       1.429   1.650   0.000  0.00  0.00    +0.365 C 
ATOM     19  O   UNL     1       2.143   2.062   0.000  0.00  0.00    -0.246 OA
ATOM     20  O   UNL     1       0.715   2.062   0.000  0.00  0.00    -0.246 OA
ENDBRANCH  17  18
ENDBRANCH  16  17
ENDBRANCH  14  16
TORSDOF 10
