REMARK  Name = 
REMARK  4 active torsions:
REMARK  status: ('A' for Active; 'I' for Inactive)
REMARK    1  A    between atoms: C_4  and  C_20
REMARK    2  A    between atoms: C_5  and  N_6
REMARK    3  A    between atoms: C_7  and  C_9
REMARK    4  A    between atoms: C_23  and  N_26
REMARK                            x       y       z     vdW  Elec       q    Type
REMARK                         _______ _______ _______ _____ _____    ______ ____
ROOT
ATOM      1  O   UNL     1      -4.628  -0.881   0.000  0.00  0.00    -0.220 OA
ATOM      2  C   UNL     1      -3.961  -0.396   0.000  0.00  0.00    +0.184 C 
ATOM      3  C   UNL     1      -3.961   0.429   0.000  0.00  0.00    +0.042 C 
ATOM      4  C   UNL     1      -3.176   0.684   0.000  0.00  0.00    +0.049 C 
ATOM      5  C   UNL     1      -2.691   0.017   0.000  0.00  0.00    +0.133 C 
ATOM     18  C   UNL     1      -3.176  -0.651   0.000  0.00  0.00    +0.202 C 
ATOM     19  O   UNL     1      -2.921  -1.435   0.000  0.00  0.00    -0.219 OA
ENDROOT
BRANCH   4  20
ATOM     20  C   UNL     1      -2.921   1.469   0.000  0.00  0.00    -0.001 A 
ATOM     21  C   UNL     1      -3.473   2.082   0.000  0.00  0.00    +0.000 A 
ATOM     22  C   UNL     1      -3.218   2.866   0.000  0.00  0.00    +0.034 A 
ATOM     23  C   UNL     1      -2.411   3.038   0.000  0.00  0.00    +0.132 A 
ATOM     24  N   UNL     1      -1.859   2.425   0.000  0.00  0.00    -0.229 NA
ATOM     25  C   UNL     1      -2.114   1.640   0.000  0.00  0.00    +0.096 A 
BRANCH  23  26
ATOM     26  N   UNL     1      -2.156   3.822   0.000  0.00  0.00    -0.288 N 
ATOM     27  C   UNL     1      -2.708   4.436   0.000  0.00  0.00    +0.124 C 
ATOM     28  C   UNL     1      -2.453   5.220   0.000  0.00  0.00    +0.164 C 
ATOM     29  O   UNL     1      -1.646   5.392   0.000  0.00  0.00    -0.350 OA
ATOM     30  C   UNL     1      -1.094   4.779   0.000  0.00  0.00    +0.164 C 
ATOM     31  C   UNL     1      -1.349   3.994   0.000  0.00  0.00    +0.124 C 
ENDBRANCH  23  26
ENDBRANCH   4  20
BRANCH   5   6
ATOM      6  N   UNL     1      -1.866   0.017   0.000  0.00  0.00    -0.199 NA
ATOM      7  C   UNL     1      -1.453  -0.698   0.000  0.00  0.00    +0.289 C 
ATOM      8  O   UNL     1      -1.866  -1.412   0.000  0.00  0.00    -0.266 OA
BRANCH   7   9
ATOM      9  C   UNL     1      -0.628  -0.698   0.000  0.00  0.00    +0.166 A 
ATOM     10  N   UNL     1      -0.143  -1.365   0.000  0.00  0.00    -0.234 NA
ATOM     11  C   UNL     1       0.641  -1.110   0.000  0.00  0.00    +0.088 A 
ATOM     12  C   UNL     1       0.641  -0.285   0.000  0.00  0.00    +0.049 A 
ATOM     13  S   UNL     1      -0.143  -0.030   0.000  0.00  0.00    -0.062 S 
ATOM     14  C   UNL     1       1.356   0.127   0.000  0.00  0.00    +0.008 A 
ATOM     15  C   UNL     1       2.070  -0.285   0.000  0.00  0.00    +0.001 A 
ATOM     16  C   UNL     1       2.070  -1.110   0.000  0.00  0.00    +0.002 A 
ATOM     17  C   UNL     1       1.356  -1.523   0.000  0.00  0.00    +0.020 A 
ENDBRANCH   7   9
ENDBRANCH   5   6
TORSDOF 4
