REMARK  Name = 
REMARK  8 active torsions:
REMARK  status: ('A' for Active; 'I' for Inactive)
REMARK    1  A    between atoms: N_4  and  C_5
REMARK    2  A    between atoms: C_8  and  S_11
REMARK    3  A    between atoms: S_11  and  N_14
REMARK    4  A    between atoms: N_14  and  C_15
REMARK    5  A    between atoms: C_19  and  N_23
REMARK    6  A    between atoms: C_27  and  O_28
REMARK    7  A    between atoms: O_28  and  C_29
REMARK    8  A    between atoms: C_32  and  N_35
REMARK                            x       y       z     vdW  Elec       q    Type
REMARK                         _______ _______ _______ _____ _____    ______ ____
ROOT
ATOM     15  C   UNL     1       1.270  -0.922   0.000  0.00  0.00    +0.157 C 
ATOM     16  C   UNL     1       0.785  -0.255   0.000  0.00  0.00    +0.164 C 
ATOM     17  O   UNL     1       1.270   0.412   0.000  0.00  0.00    -0.350 OA
ATOM     18  C   UNL     1       2.054   0.158   0.000  0.00  0.00    +0.169 C 
ATOM     19  C   UNL     1       2.839   0.412   0.000  0.00  0.00    +0.170 C 
ATOM     20  C   UNL     1       3.324  -0.255   0.000  0.00  0.00    +0.169 C 
ATOM     21  O   UNL     1       2.839  -0.922   0.000  0.00  0.00    -0.350 OA
ATOM     22  C   UNL     1       2.054  -0.667   0.000  0.00  0.00    +0.164 C 
ENDROOT
BRANCH  19  23
ATOM     23  N   UNL     1       3.094   1.197   0.000  0.00  0.00    -0.180 N 
ATOM     24  N   UNL     1       2.609   1.865   0.000  0.00  0.00    -0.040 NA
ATOM     25  N   UNL     1       3.094   2.532   0.000  0.00  0.00    -0.020 NA
ATOM     26  N   UNL     1       3.878   2.277   0.000  0.00  0.00    -0.071 NA
ATOM     27  C   UNL     1       3.878   1.452   0.000  0.00  0.00    +0.343 A 
BRANCH  27  28
ATOM     28  O   UNL     1       4.546   0.967   0.000  0.00  0.00    -0.421 OA
BRANCH  28  29
ATOM     29  C   UNL     1       5.300   1.303   0.000  0.00  0.00    +0.149 A 
ATOM     30  C   UNL     1       5.386   2.123   0.000  0.00  0.00    +0.039 A 
ATOM     31  C   UNL     1       6.139   2.459   0.000  0.00  0.00    +0.022 A 
ATOM     32  C   UNL     1       6.807   1.974   0.000  0.00  0.00    +0.085 A 
ATOM     33  C   UNL     1       6.721   1.153   0.000  0.00  0.00    +0.022 A 
ATOM     34  C   UNL     1       5.967   0.818   0.000  0.00  0.00    +0.039 A 
BRANCH  32  35
ATOM     35  N   UNL     1       7.561   2.309   0.000  0.00  0.00    -0.208 N 
ATOM     36  C   UNL     1       7.732   3.116   0.000  0.00  0.00    +0.202 A 
ATOM     37  N   UNL     1       8.553   3.203   0.000  0.00  0.00    -0.200 NA
ATOM     38  C   UNL     1       8.888   2.449   0.000  0.00  0.00    +0.221 A 
ATOM     39  N   UNL     1       8.275   1.897   0.000  0.00  0.00    -0.141 NA
ENDBRANCH  32  35
ENDBRANCH  28  29
ENDBRANCH  27  28
ENDBRANCH  19  23
BRANCH  15  14
ATOM     14  N   UNL     1       1.015  -1.707   0.000  0.00  0.00    -0.074 NA
BRANCH  14  11
ATOM     11  S   UNL     1       0.208  -1.879   0.000  0.00  0.00    +0.077 S 
ATOM     12  O   UNL     1       0.036  -1.072   0.000  0.00  0.00    -0.152 OA
ATOM     13  O   UNL     1      -0.599  -2.050   0.000  0.00  0.00    -0.152 OA
BRANCH  11   8
ATOM      5  C   UNL     1       0.722  -4.299   0.000  0.00  0.00    +0.073 A 
ATOM      6  C   UNL     1      -0.062  -4.045   0.000  0.00  0.00    +0.018 A 
ATOM      7  C   UNL     1      -0.234  -3.237   0.000  0.00  0.00    +0.021 A 
ATOM      8  C   UNL     1       0.379  -2.686   0.000  0.00  0.00    +0.124 A 
ATOM      9  C   UNL     1       1.164  -2.940   0.000  0.00  0.00    +0.021 A 
ATOM     10  C   UNL     1       1.335  -3.747   0.000  0.00  0.00    +0.018 A 
BRANCH   5   4
ATOM      1  C   UNL     1       1.850  -6.168   0.000  0.00  0.00    +0.097 C 
ATOM      2  C   UNL     1       1.678  -5.361   0.000  0.00  0.00    +0.246 C 
ATOM      3  O   UNL     1       2.292  -4.809   0.000  0.00  0.00    -0.273 OA
ATOM      4  N   UNL     1       0.894  -5.106   0.000  0.00  0.00    -0.179 NA
ENDBRANCH   5   4
ENDBRANCH  11   8
ENDBRANCH  14  11
ENDBRANCH  15  14
TORSDOF 8
