REMARK  Name = 
REMARK  7 active torsions:
REMARK  status: ('A' for Active; 'I' for Inactive)
REMARK    1  A    between atoms: C_2  and  C_4
REMARK    2  A    between atoms: C_4  and  C_5
REMARK    3  A    between atoms: C_5  and  N_6
REMARK    4  A    between atoms: C_7  and  C_9
REMARK    5  A    between atoms: C_11  and  N_12
REMARK    6  A    between atoms: N_12  and  S_13
REMARK    7  A    between atoms: S_13  and  C_16
REMARK                            x       y       z     vdW  Elec       q    Type
REMARK                         _______ _______ _______ _____ _____    ______ ____
ROOT
ATOM      9  C   UNL     1       5.716  -4.125   0.000  0.00  0.00    +0.033 C 
ATOM     10  C   UNL     1       6.430  -3.712   0.000  0.00  0.00    -0.004 C 
ATOM     11  C   UNL     1       7.145  -4.125   0.000  0.00  0.00    +0.152 C 
ATOM     21  C   UNL     1       7.145  -4.950   0.000  0.00  0.00    +0.204 C 
ATOM     22  O   UNL     1       7.859  -5.362   0.000  0.00  0.00    -0.218 OA
ATOM     23  C   UNL     1       6.430  -5.362   0.000  0.00  0.00    +0.188 C 
ATOM     24  O   UNL     1       6.430  -6.188   0.000  0.00  0.00    -0.220 OA
ATOM     25  C   UNL     1       5.716  -4.950   0.000  0.00  0.00    +0.066 C 
ENDROOT
BRANCH   9   7
ATOM      6  N   UNL     1       4.287  -4.125   0.000  0.00  0.00    -0.201 NA
ATOM      7  C   UNL     1       5.001  -3.712   0.000  0.00  0.00    +0.261 C 
ATOM      8  O   UNL     1       5.001  -2.888   0.000  0.00  0.00    -0.269 OA
BRANCH   6   5
ATOM      5  C   UNL     1       3.572  -3.712   0.000  0.00  0.00    +0.125 C 
BRANCH   5   4
ATOM      4  C   UNL     1       2.858  -4.125   0.000  0.00  0.00    +0.112 C 
BRANCH   4   2
ATOM      1  N   UNL     1       1.429  -4.125   0.000  0.00  0.00    -0.088 NA
ATOM      2  C   UNL     1       2.143  -3.712   0.000  0.00  0.00    +0.263 C 
ATOM      3  O   UNL     1       2.143  -2.888   0.000  0.00  0.00    -0.272 OA
ENDBRANCH   4   2
ENDBRANCH   5   4
ENDBRANCH   6   5
ENDBRANCH   9   7
BRANCH  11  12
ATOM     12  N   UNL     1       7.859  -3.712   0.000  0.00  0.00    -0.072 NA
BRANCH  12  13
ATOM     13  S   UNL     1       8.574  -4.125   0.000  0.00  0.00    +0.083 S 
ATOM     14  O   UNL     1       8.161  -4.840   0.000  0.00  0.00    -0.151 OA
ATOM     15  O   UNL     1       8.986  -3.410   0.000  0.00  0.00    -0.151 OA
BRANCH  13  16
ATOM     16  C   UNL     1       9.288  -4.537   0.000  0.00  0.00    +0.153 A 
ATOM     17  C   UNL     1      10.042  -4.202   0.000  0.00  0.00    +0.027 A 
ATOM     18  C   UNL     1      10.594  -4.815   0.000  0.00  0.00    +0.009 A 
ATOM     19  C   UNL     1      10.181  -5.529   0.000  0.00  0.00    +0.037 A 
ATOM     20  S   UNL     1       9.374  -5.358   0.000  0.00  0.00    -0.067 S 
ENDBRANCH  13  16
ENDBRANCH  12  13
ENDBRANCH  11  12
TORSDOF 7
