REMARK  Name = 
REMARK  6 active torsions:
REMARK  status: ('A' for Active; 'I' for Inactive)
REMARK    1  A    between atoms: C_2  and  N_3
REMARK    2  A    between atoms: C_2  and  C_33
REMARK    3  A    between atoms: C_4  and  C_6
REMARK    4  A    between atoms: C_6  and  C_7
REMARK    5  A    between atoms: C_12  and  C_14
REMARK    6  A    between atoms: C_25  and  C_27
REMARK                            x       y       z     vdW  Elec       q    Type
REMARK                         _______ _______ _______ _____ _____    ______ ____
ROOT
ATOM      7  C   UNL     1       2.143   1.238   0.000  0.00  0.00    +0.050 C 
ATOM      8  C   UNL     1       2.858   0.825   0.000  0.00  0.00    +0.063 A 
ATOM      9  C   UNL     1       2.858   0.000   0.000  0.00  0.00    +0.023 A 
ATOM     10  C   UNL     1       2.143  -0.412   0.000  0.00  0.00    +0.034 C 
ATOM     11  C   UNL     1       1.429   0.000   0.000  0.00  0.00    +0.010 C 
ATOM     12  C   UNL     1       0.715  -0.412   0.000  0.00  0.00    +0.059 C 
ATOM     13  C   UNL     1       1.245  -1.044   0.000  0.00  0.00    +0.005 C 
ATOM     16  C   UNL     1       0.000   0.000   0.000  0.00  0.00    +0.154 C 
ATOM     17  O   UNL     1      -0.715  -0.412   0.000  0.00  0.00    -0.223 OA
ATOM     18  C   UNL     1       0.000   0.825   0.000  0.00  0.00    +0.033 C 
ATOM     19  C   UNL     1       0.715   1.238   0.000  0.00  0.00    +0.003 C 
ATOM     20  C   UNL     1       1.429   0.825   0.000  0.00  0.00    +0.006 C 
ATOM     21  C   UNL     1       1.429   1.650   0.000  0.00  0.00    +0.000 C 
ATOM     22  S   UNL     1       3.643  -0.255   0.000  0.00  0.00    -0.054 S 
ATOM     23  C   UNL     1       4.127   0.412   0.000  0.00  0.00    +0.186 A 
ATOM     24  N   UNL     1       4.952   0.412   0.000  0.00  0.00    -0.148 NA
ATOM     25  C   UNL     1       5.365  -0.302   0.000  0.00  0.00    +0.305 C 
ATOM     26  O   UNL     1       4.952  -1.016   0.000  0.00  0.00    -0.265 OA
ATOM     32  N   UNL     1       3.643   1.080   0.000  0.00  0.00    -0.227 NA
ENDROOT
BRANCH  25  27
ATOM     27  C   UNL     1       6.190  -0.302   0.000  0.00  0.00    +0.201 A 
ATOM     28  C   UNL     1       6.675   0.365   0.000  0.00  0.00    +0.046 A 
ATOM     29  C   UNL     1       7.460   0.111   0.000  0.00  0.00    +0.044 A 
ATOM     30  C   UNL     1       7.460  -0.715   0.000  0.00  0.00    +0.180 A 
ATOM     31  O   UNL     1       6.675  -0.969   0.000  0.00  0.00    -0.446 OA
ENDBRANCH  25  27
BRANCH  12  14
ATOM     14  C   UNL     1       0.184  -1.044   0.000  0.00  0.00    +0.184 C 
ATOM     15  O   UNL     1      -0.628  -0.901   0.000  0.00  0.00    -0.220 OA
ENDBRANCH  12  14
BRANCH   7   6
ATOM      6  C   UNL     1       2.143   2.062   0.000  0.00  0.00    +0.093 C 
BRANCH   6   4
ATOM      3  N   UNL     1       1.429   3.300   0.000  0.00  0.00    -0.203 NA
ATOM      4  C   UNL     1       1.429   2.475   0.000  0.00  0.00    +0.242 C 
ATOM      5  O   UNL     1       0.715   2.062   0.000  0.00  0.00    -0.273 OA
BRANCH   3   2
ATOM      1  C   UNL     1       0.000   3.300   0.000  0.00  0.00    +0.028 C 
ATOM      2  C   UNL     1       0.715   3.712   0.000  0.00  0.00    +0.118 C 
BRANCH   2  33
ATOM     33  C   UNL     1       0.715   4.537   0.000  0.00  0.00    -0.003 A 
ATOM     34  C   UNL     1       0.000   4.950   0.000  0.00  0.00    -0.003 A 
ATOM     35  C   UNL     1       0.000   5.775   0.000  0.00  0.00    -0.000 A 
ATOM     36  C   UNL     1       0.715   6.188   0.000  0.00  0.00    -0.000 A 
ATOM     37  C   UNL     1       1.429   5.775   0.000  0.00  0.00    -0.000 A 
ATOM     38  C   UNL     1       1.429   4.950   0.000  0.00  0.00    -0.003 A 
ENDBRANCH   2  33
ENDBRANCH   3   2
ENDBRANCH   6   4
ENDBRANCH   7   6
TORSDOF 6
