REMARK  Name = 
REMARK  3 active torsions:
REMARK  status: ('A' for Active; 'I' for Inactive)
REMARK    1  A    between atoms: S_2  and  N_5
REMARK    2  A    between atoms: C_10  and  O_12
REMARK    3  A    between atoms: O_12  and  C_13
REMARK                            x       y       z     vdW  Elec       q    Type
REMARK                         _______ _______ _______ _____ _____    ______ ____
ROOT
ATOM      5  N   UNL     1       1.273   0.825   0.000  0.00  0.00    -0.153 NA
ATOM      6  C   UNL     1       0.971   1.593   0.000  0.00  0.00    +0.128 C 
ATOM      7  C   UNL     1       1.384   2.307   0.000  0.00  0.00    +0.161 C 
ATOM      8  O   UNL     1       2.200   2.430   0.000  0.00  0.00    -0.348 OA
ATOM      9  C   UNL     1       2.804   1.869   0.000  0.00  0.00    +0.187 C 
ATOM     10  C   UNL     1       2.743   1.046   0.000  0.00  0.00    +0.213 C 
ATOM     11  C   UNL     1       2.061   0.581   0.000  0.00  0.00    +0.141 C 
ENDROOT
BRANCH   5   2
ATOM      1  C   UNL     1       0.150  -0.385   0.000  0.00  0.00    +0.196 C 
ATOM      2  S   UNL     1       0.712   0.220   0.000  0.00  0.00    +0.046 S 
ATOM      3  O   UNL     1       1.316  -0.341   0.000  0.00  0.00    -0.157 OA
ATOM      4  O   UNL     1       0.107   0.781   0.000  0.00  0.00    -0.157 OA
ENDBRANCH   5   2
BRANCH  10  12
ATOM     12  O   UNL     1       3.457   0.634   0.000  0.00  0.00    -0.475 OA
BRANCH  12  13
ATOM     13  C   UNL     1       3.457  -0.191   0.000  0.00  0.00    +0.139 A 
ATOM     14  C   UNL     1       4.172  -0.604   0.000  0.00  0.00    +0.037 A 
ATOM     15  C   UNL     1       4.172  -1.429   0.000  0.00  0.00    +0.003 A 
ATOM     16  C   UNL     1       3.457  -1.841   0.000  0.00  0.00    +0.000 A 
ATOM     17  C   UNL     1       2.743  -1.429   0.000  0.00  0.00    +0.003 A 
ATOM     18  C   UNL     1       2.743  -0.604   0.000  0.00  0.00    +0.037 A 
ENDBRANCH  12  13
ENDBRANCH  10  12
TORSDOF 3
