REMARK  Name = 
REMARK  5 active torsions:
REMARK  status: ('A' for Active; 'I' for Inactive)
REMARK    1  A    between atoms: C_2  and  C_4
REMARK    2  A    between atoms: C_4  and  C_5
REMARK    3  A    between atoms: N_7  and  C_8
REMARK    4  A    between atoms: C_11  and  C_14
REMARK    5  A    between atoms: CA_20  and  C_21
REMARK                            x       y       z     vdW  Elec       q    Type
REMARK                         _______ _______ _______ _____ _____    ______ ____
ROOT
ATOM      8  C   UNL     1       3.572  -5.362   0.000  0.00  0.00    +0.073 A 
ATOM      9  C   UNL     1       4.287  -4.950   0.000  0.00  0.00    +0.016 A 
ATOM     10  C   UNL     1       5.001  -5.362   0.000  0.00  0.00    -0.001 A 
ATOM     11  C   UNL     1       5.001  -6.188   0.000  0.00  0.00    +0.006 A 
ATOM     12  C   UNL     1       4.287  -6.600   0.000  0.00  0.00    -0.001 A 
ATOM     13  C   UNL     1       3.572  -6.188   0.000  0.00  0.00    +0.016 A 
ENDROOT
BRANCH  11  14
ATOM     14  C   UNL     1       5.716  -6.600   0.000  0.00  0.00    +0.160 C 
ATOM     15  O   UNL     1       6.430  -6.188   0.000  0.00  0.00    -0.341 OA
ATOM     16  C   UNL     1       7.145  -6.600   0.000  0.00  0.00    +0.229 C 
ATOM     17  C   UNL     1       7.145  -7.425   0.000  0.00  0.00    +0.272 C 
ATOM     18  O   UNL     1       7.859  -7.838   0.000  0.00  0.00    -0.271 OA
ATOM     19  N   UNL     1       6.430  -7.838   0.000  0.00  0.00    -0.199 NA
ATOM     20  CA  UNL     1       5.716  -7.425   0.000  0.00  0.00    +0.159 C 
BRANCH  20  21
ATOM     21  C   UNL     1       5.001  -7.838   0.000  0.00  0.00    +0.206 C 
ATOM     22  O   UNL     1       4.287  -7.425   0.000  0.00  0.00    -0.218 OA
ENDBRANCH  20  21
ENDBRANCH  11  14
BRANCH   8   7
ATOM      5  C   UNL     1       2.143  -5.362   0.000  0.00  0.00    +0.246 C 
ATOM      6  O   UNL     1       2.143  -6.188   0.000  0.00  0.00    -0.273 OA
ATOM      7  N   UNL     1       2.858  -4.950   0.000  0.00  0.00    -0.179 NA
BRANCH   5   4
ATOM      4  C   UNL     1       1.429  -4.950   0.000  0.00  0.00    +0.087 C 
BRANCH   4   2
ATOM      1  C   UNL     1       0.000  -4.950   0.000  0.00  0.00    +0.001 C 
ATOM      2  C   UNL     1       0.715  -5.362   0.000  0.00  0.00    +0.009 C 
ATOM      3  C   UNL     1       0.715  -6.188   0.000  0.00  0.00    +0.001 C 
ENDBRANCH   4   2
ENDBRANCH   5   4
ENDBRANCH   8   7
TORSDOF 5
