REMARK  Name = 
REMARK  8 active torsions:
REMARK  status: ('A' for Active; 'I' for Inactive)
REMARK    1  A    between atoms: O_2  and  C_3
REMARK    2  A    between atoms: C_5  and  N_6
REMARK    3  A    between atoms: C_12  and  C_13
REMARK    4  A    between atoms: C_13  and  C_14
REMARK    5  A    between atoms: C_17  and  C_18
REMARK    6  A    between atoms: C_18  and  C_19
REMARK    7  A    between atoms: C_26  and  O_27
REMARK    8  A    between atoms: C_29  and  O_30
REMARK                            x       y       z     vdW  Elec       q    Type
REMARK                         _______ _______ _______ _____ _____    ______ ____
ROOT
ATOM      6  N   UNL     1      -3.572   1.238   0.000  0.00  0.00    -0.162 NA
ATOM      7  C   UNL     1      -2.858   0.825   0.000  0.00  0.00    +0.327 C 
ATOM      8  O   UNL     1      -2.858   0.000   0.000  0.00  0.00    -0.250 OA
ATOM      9  N   UNL     1      -2.143   1.238   0.000  0.00  0.00    -0.263 N 
ATOM     10  C   UNL     1      -2.143   2.062   0.000  0.00  0.00    +0.095 C 
ATOM     11  C   UNL     1      -1.429   2.475   0.000  0.00  0.00    +0.022 C 
ATOM     12  C   UNL     1      -0.715   2.062   0.000  0.00  0.00    +0.015 C 
ATOM     17  C   UNL     1      -0.715   1.238   0.000  0.00  0.00    +0.026 C 
ATOM     33  C   UNL     1      -1.429   0.825   0.000  0.00  0.00    +0.095 C 
ENDROOT
BRANCH   6   5
ATOM      3  C   UNL     1      -5.716   0.825   0.000  0.00  0.00    +0.140 A 
ATOM      4  C   UNL     1      -5.001   1.238   0.000  0.00  0.00    +0.054 A 
ATOM      5  C   UNL     1      -4.287   0.825   0.000  0.00  0.00    +0.078 A 
ATOM     34  C   UNL     1      -4.287   0.000   0.000  0.00  0.00    +0.017 A 
ATOM     35  C   UNL     1      -5.001  -0.412   0.000  0.00  0.00    +0.004 A 
ATOM     36  C   UNL     1      -5.716   0.000   0.000  0.00  0.00    +0.037 A 
BRANCH   3   2
ATOM      1  C   UNL     1      -7.145   0.825   0.000  0.00  0.00    +0.252 C 
ATOM      2  O   UNL     1      -6.430   1.238   0.000  0.00  0.00    -0.471 OA
ENDBRANCH   3   2
ENDBRANCH   6   5
BRANCH  12  13
ATOM     13  C   UNL     1       0.000   2.475   0.000  0.00  0.00    +0.114 C 
BRANCH  13  14
ATOM     14  C   UNL     1       0.000   3.300   0.000  0.00  0.00    +0.365 C 
ATOM     15  O   UNL     1      -0.715   3.712   0.000  0.00  0.00    -0.246 OA
ATOM     16  O   UNL     1       0.715   3.712   0.000  0.00  0.00    -0.246 OA
ENDBRANCH  13  14
ENDBRANCH  12  13
BRANCH  17  18
ATOM     18  C   UNL     1       0.000   0.825   0.000  0.00  0.00    +0.047 C 
BRANCH  18  19
ATOM     19  C   UNL     1       0.000   0.000   0.000  0.00  0.00    +0.054 C 
ATOM     20  N   UNL     1      -0.715  -0.412   0.000  0.00  0.00    -0.274 NA
ATOM     21  C   UNL     1      -0.715  -1.238   0.000  0.00  0.00    +0.130 C 
ATOM     22  C   UNL     1       0.000  -1.650   0.000  0.00  0.00    +0.053 C 
ATOM     23  C   UNL     1       0.715  -1.238   0.000  0.00  0.00    -0.016 A 
ATOM     24  C   UNL     1       0.715  -0.412   0.000  0.00  0.00    +0.012 A 
ATOM     25  C   UNL     1       1.429   0.000   0.000  0.00  0.00    +0.041 A 
ATOM     26  C   UNL     1       2.143  -0.412   0.000  0.00  0.00    +0.172 A 
ATOM     29  C   UNL     1       2.143  -1.238   0.000  0.00  0.00    +0.172 A 
ATOM     32  C   UNL     1       1.429  -1.650   0.000  0.00  0.00    +0.036 A 
BRANCH  26  27
ATOM     27  O   UNL     1       2.858   0.000   0.000  0.00  0.00    -0.468 OA
ATOM     28  C   UNL     1       3.572  -0.412   0.000  0.00  0.00    +0.253 C 
ENDBRANCH  26  27
BRANCH  29  30
ATOM     30  O   UNL     1       2.858  -1.650   0.000  0.00  0.00    -0.468 OA
ATOM     31  C   UNL     1       3.572  -1.238   0.000  0.00  0.00    +0.253 C 
ENDBRANCH  29  30
ENDBRANCH  18  19
ENDBRANCH  17  18
TORSDOF 8
