REMARK  Name = 
REMARK  6 active torsions:
REMARK  status: ('A' for Active; 'I' for Inactive)
REMARK    1  A    between atoms: C_2  and  C_5
REMARK    2  A    between atoms: C_8  and  C_11
REMARK    3  A    between atoms: C_13  and  C_14
REMARK    4  A    between atoms: C_14  and  C_15
REMARK    5  A    between atoms: C_20  and  C_21
REMARK    6  A    between atoms: C_21  and  C_22
REMARK                            x       y       z     vdW  Elec       q    Type
REMARK                         _______ _______ _______ _____ _____    ______ ____
ROOT
ATOM     14  C   UNL     1       5.077  -4.474   0.000  0.00  0.00    +0.051 C 
ENDROOT
BRANCH  14  15
ATOM     15  C   UNL     1       5.898  -4.387   0.000  0.00  0.00    +0.024 C 
ATOM     16  C   UNL     1       6.234  -3.634   0.000  0.00  0.00    +0.089 C 
ATOM     17  N   UNL     1       7.054  -3.547   0.000  0.00  0.00    -0.218 NA
ATOM     18  C   UNL     1       7.539  -4.215   0.000  0.00  0.00    +0.089 C 
ATOM     19  C   UNL     1       7.203  -4.969   0.000  0.00  0.00    +0.019 C 
ATOM     20  C   UNL     1       6.383  -5.055   0.000  0.00  0.00    +0.012 C 
BRANCH  20  21
ATOM     21  C   UNL     1       6.047  -5.809   0.000  0.00  0.00    +0.085 C 
BRANCH  21  22
ATOM     22  C   UNL     1       6.532  -6.476   0.000  0.00  0.00    +0.226 C 
ATOM     23  O   UNL     1       7.353  -6.390   0.000  0.00  0.00    -0.275 OA
ATOM     24  N   UNL     1       6.197  -7.230   0.000  0.00  0.00    -0.280 N 
ATOM     25  C   UNL     1       6.682  -7.897   0.000  0.00  0.00    +0.093 C 
ATOM     26  C   UNL     1       6.346  -8.651   0.000  0.00  0.00    +0.022 C 
ATOM     27  C   UNL     1       5.526  -8.737   0.000  0.00  0.00    +0.004 C 
ATOM     28  C   UNL     1       5.041  -8.069   0.000  0.00  0.00    +0.022 C 
ATOM     29  C   UNL     1       5.376  -7.316   0.000  0.00  0.00    +0.093 C 
ENDBRANCH  21  22
ENDBRANCH  20  21
ENDBRANCH  14  15
BRANCH  14  13
ATOM     11  C   UNL     1       4.180  -2.537   0.000  0.00  0.00    +0.177 A 
ATOM     12  C   UNL     1       4.848  -3.022   0.000  0.00  0.00    +0.058 A 
ATOM     13  C   UNL     1       4.593  -3.806   0.000  0.00  0.00    +0.101 A 
ATOM     30  N   UNL     1       3.768  -3.806   0.000  0.00  0.00    -0.081 NA
ATOM     31  O   UNL     1       3.513  -3.022   0.000  0.00  0.00    -0.354 OA
BRANCH  11   8
ATOM      5  C   UNL     1       4.180  -0.062   0.000  0.00  0.00    -0.023 A 
ATOM      6  C   UNL     1       4.895  -0.474   0.000  0.00  0.00    -0.004 A 
ATOM      7  C   UNL     1       4.895  -1.299   0.000  0.00  0.00    +0.003 A 
ATOM      8  C   UNL     1       4.180  -1.712   0.000  0.00  0.00    +0.037 A 
ATOM      9  C   UNL     1       3.466  -1.299   0.000  0.00  0.00    +0.003 A 
ATOM     10  C   UNL     1       3.466  -0.474   0.000  0.00  0.00    -0.004 A 
BRANCH   5   2
ATOM      1  C   UNL     1       4.180   1.588   0.000  0.00  0.00    +0.004 C 
ATOM      2  C   UNL     1       4.180   0.763   0.000  0.00  0.00    +0.019 C 
ATOM      3  C   UNL     1       3.355   0.763   0.000  0.00  0.00    +0.004 C 
ATOM      4  C   UNL     1       5.005   0.763   0.000  0.00  0.00    +0.004 C 
ENDBRANCH   5   2
ENDBRANCH  11   8
ENDBRANCH  14  13
TORSDOF 6
