REMARK  Name = 
REMARK  2 active torsions:
REMARK  status: ('A' for Active; 'I' for Inactive)
REMARK    1  A    between atoms: C_2  and  C_19
REMARK    2  A    between atoms: N_9  and  C_12
REMARK                            x       y       z     vdW  Elec       q    Type
REMARK                         _______ _______ _______ _____ _____    ______ ____
ROOT
ATOM      1  O   UNL     1       4.067   3.173   0.000  0.00  0.00    -0.270 OA
ATOM      2  C   UNL     1       4.067   2.348   0.000  0.00  0.00    +0.251 C 
ATOM      3  N   UNL     1       3.352   1.935   0.000  0.00  0.00    -0.273 N 
ATOM      4  C   UNL     1       3.352   1.110   0.000  0.00  0.00    +0.115 C 
ATOM      5  C   UNL     1       2.638   0.698   0.000  0.00  0.00    +0.116 C 
ATOM      6  N   UNL     1       1.923   1.110   0.000  0.00  0.00    -0.260 N 
ATOM      7  C   UNL     1       1.923   1.935   0.000  0.00  0.00    +0.117 C 
ATOM      8  C   UNL     1       1.139   2.190   0.000  0.00  0.00    +0.121 C 
ATOM      9  N   UNL     1       0.654   1.523   0.000  0.00  0.00    -0.241 N 
ATOM     10  C   UNL     1       1.139   0.856   0.000  0.00  0.00    +0.311 C 
ATOM     11  O   UNL     1       0.884   0.071   0.000  0.00  0.00    -0.252 OA
ATOM     18  C   UNL     1       2.638   2.348   0.000  0.00  0.00    +0.115 C 
ENDROOT
BRANCH   9  12
ATOM     12  C   UNL     1      -0.171   1.523   0.000  0.00  0.00    +0.055 A 
ATOM     13  C   UNL     1      -0.584   0.808   0.000  0.00  0.00    +0.015 A 
ATOM     14  C   UNL     1      -1.409   0.808   0.000  0.00  0.00    +0.001 A 
ATOM     15  C   UNL     1      -1.821   1.523   0.000  0.00  0.00    +0.000 A 
ATOM     16  C   UNL     1      -1.409   2.237   0.000  0.00  0.00    +0.001 A 
ATOM     17  C   UNL     1      -0.584   2.237   0.000  0.00  0.00    +0.015 A 
ENDBRANCH   9  12
BRANCH   2  19
ATOM     19  C   UNL     1       4.781   1.935   0.000  0.00  0.00    +0.073 A 
ATOM     20  C   UNL     1       5.496   2.348   0.000  0.00  0.00    +0.008 A 
ATOM     21  C   UNL     1       6.210   1.935   0.000  0.00  0.00    +0.021 A 
ATOM     22  C   UNL     1       6.210   1.110   0.000  0.00  0.00    +0.099 A 
ATOM     23  N   UNL     1       5.496   0.698   0.000  0.00  0.00    -0.242 NA
ATOM     24  C   UNL     1       4.781   1.110   0.000  0.00  0.00    +0.103 A 
ENDBRANCH   2  19
TORSDOF 2
