REMARK  Name = 
REMARK  8 active torsions:
REMARK  status: ('A' for Active; 'I' for Inactive)
REMARK    1  A    between atoms: N_2  and  C_4
REMARK    2  A    between atoms: C_4  and  C_5
REMARK    3  A    between atoms: C_5  and  N_6
REMARK    4  A    between atoms: C_7  and  C_9
REMARK    5  A    between atoms: C_9  and  C_10
REMARK    6  A    between atoms: C_12  and  C_13
REMARK    7  A    between atoms: C_13  and  N_14
REMARK    8  A    between atoms: N_17  and  C_18
REMARK                            x       y       z     vdW  Elec       q    Type
REMARK                         _______ _______ _______ _____ _____    ______ ____
ROOT
ATOM     10  C   UNL     1       4.520  -8.904   0.000  0.00  0.00    +0.157 C 
ATOM     11  O   UNL     1       5.273  -8.569   0.000  0.00  0.00    -0.351 OA
ATOM     12  C   UNL     1       5.825  -9.182   0.000  0.00  0.00    +0.170 C 
ATOM     24  C   UNL     1       5.413  -9.896   0.000  0.00  0.00    +0.213 C 
ATOM     25  O   UNL     1       5.748 -10.650   0.000  0.00  0.00    -0.218 OA
ATOM     26  C   UNL     1       4.606  -9.725   0.000  0.00  0.00    +0.212 C 
ATOM     27  O   UNL     1       3.993 -10.277   0.000  0.00  0.00    -0.218 OA
ENDROOT
BRANCH  10   9
ATOM      9  C   UNL     1       3.805  -8.492   0.000  0.00  0.00    +0.119 C 
BRANCH   9   7
ATOM      6  N   UNL     1       2.376  -8.492   0.000  0.00  0.00    -0.204 NA
ATOM      7  C   UNL     1       3.091  -8.904   0.000  0.00  0.00    +0.244 C 
ATOM      8  O   UNL     1       3.091  -9.729   0.000  0.00  0.00    -0.273 OA
BRANCH   6   5
ATOM      5  C   UNL     1       1.662  -8.904   0.000  0.00  0.00    +0.132 C 
BRANCH   5   4
ATOM      4  C   UNL     1       0.947  -8.492   0.000  0.00  0.00    +0.096 C 
BRANCH   4   2
ATOM      1  C   UNL     1      -0.482  -8.492   0.000  0.00  0.00    +0.090 C 
ATOM      2  N   UNL     1       0.233  -8.904   0.000  0.00  0.00    -0.269 NA
ATOM      3  C   UNL     1       0.233  -9.729   0.000  0.00  0.00    +0.090 C 
ENDBRANCH   4   2
ENDBRANCH   5   4
ENDBRANCH   6   5
ENDBRANCH   9   7
ENDBRANCH  10   9
BRANCH  12  13
ATOM     13  C   UNL     1       6.646  -9.095   0.000  0.00  0.00    +0.149 C 
BRANCH  13  14
ATOM     14  N   UNL     1       6.981  -8.342   0.000  0.00  0.00    -0.185 NA
ATOM     15  C   UNL     1       7.802  -8.256   0.000  0.00  0.00    +0.339 C 
ATOM     16  O   UNL     1       8.287  -8.923   0.000  0.00  0.00    -0.249 OA
ATOM     17  N   UNL     1       8.137  -7.502   0.000  0.00  0.00    -0.189 NA
BRANCH  17  18
ATOM     18  C   UNL     1       8.958  -7.416   0.000  0.00  0.00    +0.097 C 
ATOM     19  C   UNL     1       9.293  -6.662   0.000  0.00  0.00    +0.022 C 
ATOM     20  C   UNL     1      10.114  -6.576   0.000  0.00  0.00    +0.002 C 
ATOM     21  C   UNL     1      10.599  -7.243   0.000  0.00  0.00    +0.000 C 
ATOM     22  C   UNL     1      10.263  -7.997   0.000  0.00  0.00    +0.002 C 
ATOM     23  C   UNL     1       9.443  -8.083   0.000  0.00  0.00    +0.022 C 
ENDBRANCH  17  18
ENDBRANCH  13  14
ENDBRANCH  12  13
TORSDOF 8
