REMARK  Name = 
REMARK  7 active torsions:
REMARK  status: ('A' for Active; 'I' for Inactive)
REMARK    1  A    between atoms: C_2  and  C_4
REMARK    2  A    between atoms: C_4  and  C_5
REMARK    3  A    between atoms: C_5  and  N_6
REMARK    4  A    between atoms: C_5  and  C_29
REMARK    5  A    between atoms: C_7  and  C_9
REMARK    6  A    between atoms: C_16  and  N_18
REMARK    7  A    between atoms: C_19  and  C_21
REMARK                            x       y       z     vdW  Elec       q    Type
REMARK                         _______ _______ _______ _____ _____    ______ ____
ROOT
ATOM      9  C   UNL     1       8.187  -6.737   0.000  0.00  0.00    +0.200 C 
ATOM     10  O   UNL     1       7.657  -7.369   0.000  0.00  0.00    -0.216 OA
ATOM     11  C   UNL     1       8.469  -5.962   0.000  0.00  0.00    +0.075 C 
ATOM     12  C   UNL     1       9.282  -5.819   0.000  0.00  0.00    +0.187 C 
ATOM     13  O   UNL     1       9.564  -5.043   0.000  0.00  0.00    -0.220 OA
ATOM     14  C   UNL     1       9.812  -6.451   0.000  0.00  0.00    +0.202 C 
ATOM     15  O   UNL     1      10.625  -6.308   0.000  0.00  0.00    -0.219 OA
ATOM     16  C   UNL     1       9.530  -7.226   0.000  0.00  0.00    +0.131 C 
ATOM     17  C   UNL     1       8.717  -7.369   0.000  0.00  0.00    +0.064 C 
ENDROOT
BRANCH   9   7
ATOM      6  N   UNL     1       6.758  -6.737   0.000  0.00  0.00    -0.196 NA
ATOM      7  C   UNL     1       7.473  -6.325   0.000  0.00  0.00    +0.269 C 
ATOM      8  O   UNL     1       7.473  -5.500   0.000  0.00  0.00    -0.271 OA
BRANCH   6   5
ATOM      5  C   UNL     1       6.044  -6.325   0.000  0.00  0.00    +0.174 C 
BRANCH   5  29
ATOM     29  C   UNL     1       6.044  -5.500   0.000  0.00  0.00    +0.281 C 
ATOM     30  N   UNL     1       6.758  -5.087   0.000  0.00  0.00    -0.086 NA
ATOM     31  O   UNL     1       5.329  -5.087   0.000  0.00  0.00    -0.270 OA
ENDBRANCH   5  29
BRANCH   5   4
ATOM      4  C   UNL     1       5.329  -6.737   0.000  0.00  0.00    +0.031 C 
BRANCH   4   2
ATOM      1  C   UNL     1       3.900  -6.737   0.000  0.00  0.00    +0.000 C 
ATOM      2  C   UNL     1       4.615  -6.325   0.000  0.00  0.00    +0.002 C 
ATOM      3  C   UNL     1       4.615  -5.500   0.000  0.00  0.00    +0.000 C 
ENDBRANCH   4   2
ENDBRANCH   5   4
ENDBRANCH   6   5
ENDBRANCH   9   7
BRANCH  16  18
ATOM     18  N   UNL     1      10.060  -7.858   0.000  0.00  0.00    -0.201 NA
ATOM     19  C   UNL     1      10.873  -7.715   0.000  0.00  0.00    +0.265 C 
ATOM     20  O   UNL     1      11.155  -6.939   0.000  0.00  0.00    -0.268 OA
BRANCH  19  21
ATOM     21  C   UNL     1      11.403  -8.347   0.000  0.00  0.00    +0.056 A 
ATOM     22  C   UNL     1      12.216  -8.203   0.000  0.00  0.00    +0.018 A 
ATOM     23  C   UNL     1      12.746  -8.835   0.000  0.00  0.00    +0.085 A 
ATOM     24 CL   UNL     1      13.558  -8.692   0.000  0.00  0.00    -0.080 Cl
ATOM     25  C   UNL     1      12.464  -9.611   0.000  0.00  0.00    +0.151 A 
ATOM     26  F   UNL     1      12.994 -10.243   0.000  0.00  0.00    -0.203 F 
ATOM     27  C   UNL     1      11.651  -9.754   0.000  0.00  0.00    +0.031 A 
ATOM     28  C   UNL     1      11.121  -9.122   0.000  0.00  0.00    +0.007 A 
ENDBRANCH  19  21
ENDBRANCH  16  18
TORSDOF 7
