REMARK  Name = 
REMARK  9 active torsions:
REMARK  status: ('A' for Active; 'I' for Inactive)
REMARK    1  A    between atoms: C_2  and  C_3
REMARK    2  A    between atoms: C_3  and  N_4
REMARK    3  A    between atoms: N_7  and  C_8
REMARK    4  A    between atoms: C_10  and  C_16
REMARK    5  A    between atoms: N_18  and  C_19
REMARK    6  A    between atoms: C_19  and  C_20
REMARK    7  A    between atoms: C_19  and  C_29
REMARK    8  A    between atoms: C_20  and  C_21
REMARK    9  A    between atoms: C_24  and  O_25
REMARK                            x       y       z     vdW  Elec       q    Type
REMARK                         _______ _______ _______ _____ _____    ______ ____
ROOT
ATOM     16  C   UNL     1       5.001  -7.838   0.000  0.00  0.00    +0.261 C 
ATOM     17  O   UNL     1       5.716  -8.250   0.000  0.00  0.00    -0.269 OA
ATOM     18  N   UNL     1       5.001  -7.013   0.000  0.00  0.00    -0.194 NA
ENDROOT
BRANCH  16  10
ATOM      8  C   UNL     1       2.858  -8.250   0.000  0.00  0.00    +0.152 C 
ATOM      9  C   UNL     1       3.572  -7.838   0.000  0.00  0.00    -0.002 C 
ATOM     10  C   UNL     1       4.287  -8.250   0.000  0.00  0.00    +0.033 C 
ATOM     11  C   UNL     1       4.287  -9.075   0.000  0.00  0.00    +0.066 C 
ATOM     12  C   UNL     1       3.572  -9.488   0.000  0.00  0.00    +0.189 C 
ATOM     13  O   UNL     1       3.572 -10.312   0.000  0.00  0.00    -0.220 OA
ATOM     14  C   UNL     1       2.858  -9.075   0.000  0.00  0.00    +0.206 C 
ATOM     15  O   UNL     1       2.143  -9.488   0.000  0.00  0.00    -0.218 OA
BRANCH   8   7
ATOM      4  N   UNL     1       0.715  -7.838   0.000  0.00  0.00    -0.187 NA
ATOM      5  C   UNL     1       1.429  -8.250   0.000  0.00  0.00    +0.340 C 
ATOM      6  O   UNL     1       1.429  -9.075   0.000  0.00  0.00    -0.249 OA
ATOM      7  N   UNL     1       2.143  -7.838   0.000  0.00  0.00    -0.182 NA
BRANCH   4   3
ATOM      3  C   UNL     1       0.000  -8.250   0.000  0.00  0.00    +0.117 C 
BRANCH   3   2
ATOM      1  C   UNL     1      -1.429  -8.250   0.000  0.00  0.00    +0.002 C 
ATOM      2  C   UNL     1      -0.715  -7.838   0.000  0.00  0.00    +0.023 C 
ENDBRANCH   3   2
ENDBRANCH   4   3
ENDBRANCH   8   7
ENDBRANCH  16  10
BRANCH  18  19
ATOM     19  C   UNL     1       5.716  -6.600   0.000  0.00  0.00    +0.179 C 
BRANCH  19  29
ATOM     29  C   UNL     1       6.430  -7.013   0.000  0.00  0.00    +0.281 C 
ATOM     30  N   UNL     1       7.145  -6.600   0.000  0.00  0.00    -0.086 NA
ATOM     31  O   UNL     1       6.430  -7.838   0.000  0.00  0.00    -0.270 OA
ENDBRANCH  19  29
BRANCH  19  20
ATOM     20  C   UNL     1       5.716  -5.775   0.000  0.00  0.00    +0.057 C 
BRANCH  20  21
ATOM     21  C   UNL     1       6.430  -5.362   0.000  0.00  0.00    -0.020 A 
ATOM     22  C   UNL     1       6.430  -4.537   0.000  0.00  0.00    -0.001 A 
ATOM     23  C   UNL     1       7.145  -4.125   0.000  0.00  0.00    +0.037 A 
ATOM     24  C   UNL     1       7.859  -4.537   0.000  0.00  0.00    +0.139 A 
ATOM     27  C   UNL     1       7.859  -5.362   0.000  0.00  0.00    +0.037 A 
ATOM     28  C   UNL     1       7.145  -5.775   0.000  0.00  0.00    -0.001 A 
BRANCH  24  25
ATOM     25  O   UNL     1       8.574  -4.125   0.000  0.00  0.00    -0.471 OA
ATOM     26  C   UNL     1       8.574  -3.300   0.000  0.00  0.00    +0.252 C 
ENDBRANCH  24  25
ENDBRANCH  20  21
ENDBRANCH  19  20
ENDBRANCH  18  19
TORSDOF 9
