REMARK  Name = 
REMARK  3 active torsions:
REMARK  status: ('A' for Active; 'I' for Inactive)
REMARK    1  A    between atoms: C_2  and  C_5
REMARK    2  A    between atoms: C_12  and  C_14
REMARK    3  A    between atoms: C_19  and  C_21
REMARK                            x       y       z     vdW  Elec       q    Type
REMARK                         _______ _______ _______ _____ _____    ______ ____
ROOT
ATOM      5  C   UNL     1       2.070   1.110   0.000  0.00  0.00    +0.073 A 
ATOM      6  C   UNL     1       1.356   0.698   0.000  0.00  0.00    +0.025 A 
ATOM      7  C   UNL     1       0.641   1.110   0.000  0.00  0.00    +0.100 A 
ATOM      8  C   UNL     1       0.641   1.935   0.000  0.00  0.00    +0.100 A 
ATOM      9  C   UNL     1       1.356   2.348   0.000  0.00  0.00    +0.021 A 
ATOM     10  C   UNL     1       2.070   1.935   0.000  0.00  0.00    +0.005 A 
ATOM     11  N   UNL     1      -0.143   2.190   0.000  0.00  0.00    -0.229 NA
ATOM     12  C   UNL     1      -0.628   1.523   0.000  0.00  0.00    +0.140 A 
ATOM     13  N   UNL     1      -0.143   0.856   0.000  0.00  0.00    -0.229 NA
ENDROOT
BRANCH  12  14
ATOM     14  C   UNL     1      -1.453   1.523   0.000  0.00  0.00    +0.080 C 
ATOM     15  C   UNL     1      -1.938   0.856   0.000  0.00  0.00    +0.031 C 
ATOM     16  C   UNL     1      -2.723   1.110   0.000  0.00  0.00    +0.094 C 
ATOM     17  N   UNL     1      -2.723   1.935   0.000  0.00  0.00    -0.276 N 
ATOM     18  C   UNL     1      -1.938   2.190   0.000  0.00  0.00    +0.101 C 
ATOM     19  C   UNL     1      -3.390   2.420   0.000  0.00  0.00    +0.249 C 
ATOM     20  O   UNL     1      -4.144   2.085   0.000  0.00  0.00    -0.270 OA
BRANCH  19  21
ATOM     21  C   UNL     1      -3.304   3.241   0.000  0.00  0.00    +0.054 A 
ATOM     22  C   UNL     1      -3.972   3.726   0.000  0.00  0.00    +0.005 A 
ATOM     23  C   UNL     1      -3.885   4.546   0.000  0.00  0.00    +0.000 A 
ATOM     24  C   UNL     1      -3.132   4.882   0.000  0.00  0.00    +0.000 A 
ATOM     25  C   UNL     1      -2.464   4.397   0.000  0.00  0.00    +0.000 A 
ATOM     26  C   UNL     1      -2.550   3.576   0.000  0.00  0.00    +0.005 A 
ENDBRANCH  19  21
ENDBRANCH  12  14
BRANCH   5   2
ATOM      1  F   UNL     1       3.499   0.285   0.000  0.00  0.00    -0.166 F 
ATOM      2  C   UNL     1       2.784   0.698   0.000  0.00  0.00    +0.419 C 
ATOM      3  F   UNL     1       3.197   1.412   0.000  0.00  0.00    -0.166 F 
ATOM      4  F   UNL     1       2.372  -0.017   0.000  0.00  0.00    -0.166 F 
ENDBRANCH   5   2
TORSDOF 3
