REMARK  Name = 
REMARK  4 active torsions:
REMARK  status: ('A' for Active; 'I' for Inactive)
REMARK    1  A    between atoms: O_2  and  C_3
REMARK    2  A    between atoms: C_8  and  N_9
REMARK    3  A    between atoms: N_12  and  C_13
REMARK    4  A    between atoms: C_23  and  C_25
REMARK                            x       y       z     vdW  Elec       q    Type
REMARK                         _______ _______ _______ _____ _____    ______ ____
ROOT
ATOM     13  C   UNL     1      -1.296  -1.150   0.000  0.00  0.00    +0.131 A 
ATOM     14  C   UNL     1      -1.167  -0.335   0.000  0.00  0.00    +0.023 A 
ATOM     15  C   UNL     1      -0.397  -0.039   0.000  0.00  0.00    +0.014 A 
ATOM     16  C   UNL     1       0.244  -0.558   0.000  0.00  0.00    +0.041 A 
ATOM     17  C   UNL     1       1.163  -0.557   0.000  0.00  0.00    +0.058 C 
ATOM     18  C   UNL     1       1.713  -0.121   0.000  0.00  0.00    +0.011 C 
ATOM     19  C   UNL     1       1.582  -0.925   0.000  0.00  0.00    +0.043 C 
ATOM     20  C   UNL     1       1.629  -1.912   0.000  0.00  0.00    +0.096 C 
ATOM     21  N   UNL     1       0.813  -2.091   0.000  0.00  0.00    -0.270 N 
ATOM     22  C   UNL     1       1.225  -1.510   0.000  0.00  0.00    +0.100 C 
ATOM     23  C   UNL     1       0.352  -2.836   0.000  0.00  0.00    +0.329 C 
ATOM     24  O   UNL     1       0.458  -3.664   0.000  0.00  0.00    -0.263 OA
ATOM     28  C   UNL     1       0.622  -0.936   0.000  0.00  0.00    +0.110 C 
ATOM     29  N   UNL     1       0.115  -1.373   0.000  0.00  0.00    -0.298 N 
ATOM     30  C   UNL     1      -0.655  -1.669   0.000  0.00  0.00    +0.276 A 
ATOM     31  O   UNL     1      -0.795  -2.649   0.000  0.00  0.00    -0.266 OA
ENDROOT
BRANCH  13  12
ATOM      9  N   UNL     1      -3.595  -1.323   0.000  0.00  0.00    -0.158 NA
ATOM     10  C   UNL     1      -2.921  -0.777   0.000  0.00  0.00    +0.348 C 
ATOM     11  O   UNL     1      -2.951   0.069   0.000  0.00  0.00    -0.248 OA
ATOM     12  N   UNL     1      -2.179  -1.228   0.000  0.00  0.00    -0.156 NA
BRANCH   9   8
ATOM      3  C   UNL     1      -4.931  -0.849   0.000  0.00  0.00    +0.154 A 
ATOM      4  C   UNL     1      -5.463  -0.218   0.000  0.00  0.00    +0.038 A 
ATOM      5  C   UNL     1      -5.183   0.558   0.000  0.00  0.00    +0.003 A 
ATOM      6  C   UNL     1      -4.371   0.704   0.000  0.00  0.00    +0.002 A 
ATOM      7  C   UNL     1      -3.839   0.073   0.000  0.00  0.00    +0.020 A 
ATOM      8  C   UNL     1      -4.119  -0.703   0.000  0.00  0.00    +0.109 A 
BRANCH   3   2
ATOM      1  C   UNL     1      -6.023  -1.770   0.000  0.00  0.00    +0.253 C 
ATOM      2  O   UNL     1      -5.210  -1.625   0.000  0.00  0.00    -0.470 OA
ENDBRANCH   3   2
ENDBRANCH   9   8
ENDBRANCH  13  12
BRANCH  23  25
ATOM     25  C   UNL     1      -0.415  -2.280   0.000  0.00  0.00    +0.440 C 
ATOM     26  O   UNL     1      -0.383  -1.324   0.000  0.00  0.00    -0.235 OA
ATOM     27  O   UNL     1      -1.351  -2.447   0.000  0.00  0.00    -0.235 OA
ENDBRANCH  23  25
TORSDOF 4
