REMARK  Name = 
REMARK  7 active torsions:
REMARK  status: ('A' for Active; 'I' for Inactive)
REMARK    1  A    between atoms: C_2  and  C_4
REMARK    2  A    between atoms: C_6  and  C_7
REMARK    3  A    between atoms: C_7  and  C_8
REMARK    4  A    between atoms: C_11  and  C_13
REMARK    5  A    between atoms: C_22  and  C_23
REMARK    6  A    between atoms: C_23  and  N_24
REMARK    7  A    between atoms: C_25  and  C_27
REMARK                            x       y       z     vdW  Elec       q    Type
REMARK                         _______ _______ _______ _____ _____    ______ ____
ROOT
ATOM      4  C   UNL     1       2.858  -2.475   0.000  0.00  0.00    +0.006 C 
ATOM      5  C   UNL     1       3.572  -2.888   0.000  0.00  0.00    +0.005 C 
ATOM      6  C   UNL     1       3.572  -3.712   0.000  0.00  0.00    +0.027 C 
ATOM     19  C   UNL     1       2.858  -4.125   0.000  0.00  0.00    -0.048 C 
ATOM     20  C   UNL     1       2.858  -4.950   0.000  0.00  0.00    +0.026 C 
ATOM     21  C   UNL     1       2.143  -3.712   0.000  0.00  0.00    -0.033 C 
ATOM     22  C   UNL     1       2.143  -2.888   0.000  0.00  0.00    +0.043 C 
ENDROOT
BRANCH   4   2
ATOM      1  C   UNL     1       2.143  -1.238   0.000  0.00  0.00    +0.000 C 
ATOM      2  C   UNL     1       2.858  -1.650   0.000  0.00  0.00    +0.000 C 
ATOM      3  C   UNL     1       3.572  -1.238   0.000  0.00  0.00    +0.000 C 
ENDBRANCH   4   2
BRANCH   6   7
ATOM      7  C   UNL     1       4.287  -4.125   0.000  0.00  0.00    +0.091 C 
BRANCH   7   8
ATOM      8  C   UNL     1       4.287  -4.950   0.000  0.00  0.00    +0.227 A 
ATOM      9  N   UNL     1       4.954  -5.435   0.000  0.00  0.00    -0.111 NA
ATOM     10  N   UNL     1       4.699  -6.220   0.000  0.00  0.00    -0.107 NA
ATOM     11  C   UNL     1       3.874  -6.220   0.000  0.00  0.00    +0.250 A 
ATOM     12  O   UNL     1       3.619  -5.435   0.000  0.00  0.00    -0.420 OA
BRANCH  11  13
ATOM     13  C   UNL     1       3.389  -6.887   0.000  0.00  0.00    +0.058 A 
ATOM     14  C   UNL     1       3.725  -7.641   0.000  0.00  0.00    +0.025 A 
ATOM     15  C   UNL     1       3.240  -8.308   0.000  0.00  0.00    +0.099 A 
ATOM     16  N   UNL     1       2.420  -8.222   0.000  0.00  0.00    -0.242 NA
ATOM     17  C   UNL     1       2.084  -7.468   0.000  0.00  0.00    +0.099 A 
ATOM     18  C   UNL     1       2.569  -6.801   0.000  0.00  0.00    +0.025 A 
ENDBRANCH  11  13
ENDBRANCH   7   8
ENDBRANCH   6   7
BRANCH  22  23
ATOM     23  C   UNL     1       1.429  -2.475   0.000  0.00  0.00    +0.120 C 
BRANCH  23  24
ATOM     24  N   UNL     1       1.429  -1.650   0.000  0.00  0.00    -0.200 NA
ATOM     25  C   UNL     1       0.715  -1.238   0.000  0.00  0.00    +0.284 C 
ATOM     26  O   UNL     1       0.000  -1.650   0.000  0.00  0.00    -0.267 OA
BRANCH  25  27
ATOM     27  C   UNL     1       0.715  -0.412   0.000  0.00  0.00    +0.155 A 
ATOM     28  C   UNL     1       0.000   0.000   0.000  0.00  0.00    +0.123 A 
ATOM     29  N   UNL     1       0.000   0.825   0.000  0.00  0.00    -0.239 NA
ATOM     30  C   UNL     1       0.715   1.238   0.000  0.00  0.00    +0.120 A 
ATOM     31  C   UNL     1       1.429   0.825   0.000  0.00  0.00    +0.120 A 
ATOM     32  N   UNL     1       1.429   0.000   0.000  0.00  0.00    -0.236 NA
ENDBRANCH  25  27
ENDBRANCH  23  24
ENDBRANCH  22  23
TORSDOF 7
