REMARK  Name = 
REMARK  6 active torsions:
REMARK  status: ('A' for Active; 'I' for Inactive)
REMARK    1  A    between atoms: N_3  and  C_4
REMARK    2  A    between atoms: C_4  and  C_5
REMARK    3  A    between atoms: N_11  and  C_12
REMARK    4  A    between atoms: C_16  and  O_20
REMARK    5  A    between atoms: O_20  and  C_21
REMARK    6  A    between atoms: C_21  and  C_22
REMARK                            x       y       z     vdW  Elec       q    Type
REMARK                         _______ _______ _______ _____ _____    ______ ____
ROOT
ATOM     12  C   UNL     1       1.270  -0.922   0.000  0.00  0.00    +0.156 C 
ATOM     13  C   UNL     1       0.785  -0.255   0.000  0.00  0.00    +0.166 C 
ATOM     14  O   UNL     1       1.270   0.412   0.000  0.00  0.00    -0.349 OA
ATOM     15  C   UNL     1       2.054   0.158   0.000  0.00  0.00    +0.173 C 
ATOM     16  C   UNL     1       2.839   0.412   0.000  0.00  0.00    +0.175 C 
ATOM     17  C   UNL     1       3.324  -0.255   0.000  0.00  0.00    +0.174 C 
ATOM     18  O   UNL     1       2.839  -0.922   0.000  0.00  0.00    -0.349 OA
ATOM     19  C   UNL     1       2.054  -0.667   0.000  0.00  0.00    +0.167 C 
ENDROOT
BRANCH  12  11
ATOM      1  O   UNL     1      -0.344  -1.265   0.000  0.00  0.00    -0.249 OA
ATOM      2  C   UNL     1       0.208  -1.879   0.000  0.00  0.00    +0.340 C 
ATOM      3  N   UNL     1      -0.047  -2.663   0.000  0.00  0.00    -0.182 NA
ATOM     11  N   UNL     1       1.015  -1.707   0.000  0.00  0.00    -0.184 NA
BRANCH   3   4
ATOM      4  C   UNL     1      -0.854  -2.835   0.000  0.00  0.00    +0.143 C 
BRANCH   4   5
ATOM      5  C   UNL     1      -1.109  -3.619   0.000  0.00  0.00    -0.001 A 
ATOM      6  C   UNL     1      -0.557  -4.232   0.000  0.00  0.00    -0.003 A 
ATOM      7  C   UNL     1      -0.812  -5.017   0.000  0.00  0.00    -0.000 A 
ATOM      8  C   UNL     1      -1.619  -5.189   0.000  0.00  0.00    -0.000 A 
ATOM      9  C   UNL     1      -2.171  -4.575   0.000  0.00  0.00    -0.000 A 
ATOM     10  C   UNL     1      -1.916  -3.791   0.000  0.00  0.00    -0.003 A 
ENDBRANCH   4   5
ENDBRANCH   3   4
ENDBRANCH  12  11
BRANCH  16  20
ATOM     20  O   UNL     1       3.094   1.197   0.000  0.00  0.00    -0.346 OA
BRANCH  20  21
ATOM     21  C   UNL     1       2.542   1.810   0.000  0.00  0.00    +0.169 C 
BRANCH  21  22
ATOM     22  C   UNL     1       2.797   2.595   0.000  0.00  0.00    +0.007 A 
ATOM     23  C   UNL     1       2.245   3.208   0.000  0.00  0.00    -0.002 A 
ATOM     24  C   UNL     1       2.499   3.993   0.000  0.00  0.00    -0.000 A 
ATOM     25  C   UNL     1       3.307   4.164   0.000  0.00  0.00    -0.000 A 
ATOM     26  C   UNL     1       3.858   3.551   0.000  0.00  0.00    -0.000 A 
ATOM     27  C   UNL     1       3.604   2.766   0.000  0.00  0.00    -0.002 A 
ENDBRANCH  21  22
ENDBRANCH  20  21
ENDBRANCH  16  20
TORSDOF 6
