REMARK  Name = 
REMARK  2 active torsions:
REMARK  status: ('A' for Active; 'I' for Inactive)
REMARK    1  A    between atoms: C_2  and  C_4
REMARK    2  A    between atoms: C_18  and  C_21
REMARK                            x       y       z     vdW  Elec       q    Type
REMARK                         _______ _______ _______ _____ _____    ______ ____
ROOT
ATOM      4  C   UNL     1       6.912   0.608   0.000  0.00  0.00    +0.306 C 
ATOM      5  O   UNL     1       7.517   1.169   0.000  0.00  0.00    -0.265 OA
ATOM      6  N   UNL     1       6.124   0.851   0.000  0.00  0.00    -0.268 N 
ATOM      7  C   UNL     1       5.940   1.655   0.000  0.00  0.00    +0.115 C 
ATOM      8  C   UNL     1       5.152   1.899   0.000  0.00  0.00    +0.116 C 
ATOM      9  N   UNL     1       4.547   1.337   0.000  0.00  0.00    -0.266 N 
ATOM     10  C   UNL     1       4.731   0.533   0.000  0.00  0.00    +0.174 C 
ATOM     11  C   UNL     1       5.519   0.290   0.000  0.00  0.00    +0.123 C 
ATOM     12  C   UNL     1       4.216  -0.112   0.000  0.00  0.00    +0.265 C 
ATOM     13  O   UNL     1       4.574  -0.855   0.000  0.00  0.00    -0.271 OA
ATOM     14  N   UNL     1       3.391  -0.112   0.000  0.00  0.00    -0.178 NA
ATOM     15  C   UNL     1       2.877   0.533   0.000  0.00  0.00    +0.078 A 
ATOM     16  C   UNL     1       3.060   1.337   0.000  0.00  0.00    +0.069 A 
ATOM     17  C   UNL     1       2.456   1.899   0.000  0.00  0.00    +0.006 A 
ATOM     18  C   UNL     1       1.667   1.655   0.000  0.00  0.00    +0.000 A 
ATOM     19  C   UNL     1       1.484   0.851   0.000  0.00  0.00    +0.001 A 
ATOM     20  C   UNL     1       2.088   0.290   0.000  0.00  0.00    +0.017 A 
ATOM     28  C   UNL     1       3.804   1.695   0.000  0.00  0.00    +0.251 C 
ATOM     29  O   UNL     1       3.804   2.520   0.000  0.00  0.00    -0.270 OA
ENDROOT
BRANCH  18  21
ATOM     21  C   UNL     1       1.062   2.216   0.000  0.00  0.00    +0.000 A 
ATOM     22  C   UNL     1       0.274   1.973   0.000  0.00  0.00    +0.001 A 
ATOM     23  C   UNL     1      -0.331   2.534   0.000  0.00  0.00    +0.011 A 
ATOM     24  C   UNL     1      -0.147   3.339   0.000  0.00  0.00    +0.058 A 
ATOM     25 CL   UNL     1      -0.752   3.900   0.000  0.00  0.00    -0.082 Cl
ATOM     26  C   UNL     1       0.641   3.582   0.000  0.00  0.00    +0.011 A 
ATOM     27  C   UNL     1       1.246   3.021   0.000  0.00  0.00    +0.001 A 
ENDBRANCH  18  21
BRANCH   4   2
ATOM      1  N   UNL     1       7.884  -0.440   0.000  0.00  0.00    -0.080 NA
ATOM      2  C   UNL     1       7.096  -0.197   0.000  0.00  0.00    +0.338 C 
ATOM      3  O   UNL     1       6.491  -0.758   0.000  0.00  0.00    -0.262 OA
ENDBRANCH   4   2
TORSDOF 2
