REMARK  Name = 
REMARK  6 active torsions:
REMARK  status: ('A' for Active; 'I' for Inactive)
REMARK    1  A    between atoms: O_2  and  C_3
REMARK    2  A    between atoms: C_5  and  N_6
REMARK    3  A    between atoms: N_9  and  C_10
REMARK    4  A    between atoms: C_16  and  N_19
REMARK    5  A    between atoms: N_22  and  C_25
REMARK    6  A    between atoms: C_30  and  O_31
REMARK                            x       y       z     vdW  Elec       q    Type
REMARK                         _______ _______ _______ _____ _____    ______ ____
ROOT
ATOM     10  C   UNL     1       1.989  -0.542   0.000  0.00  0.00    +0.158 C 
ATOM     11  C   UNL     1       1.060  -0.557   0.000  0.00  0.00    +0.170 C 
ATOM     12  C   UNL     1       0.740  -1.266   0.000  0.00  0.00    +0.176 C 
ATOM     13  O   UNL     1       0.120  -1.643   0.000  0.00  0.00    -0.327 OA
ATOM     14  C   UNL     1       0.640  -0.930   0.000  0.00  0.00    +0.253 C 
ATOM     15  O   UNL     1       0.500  -0.117   0.000  0.00  0.00    -0.327 OA
ATOM     16  C   UNL     1       1.611  -0.930   0.000  0.00  0.00    +0.147 C 
ATOM     17  C   UNL     1       2.127  -1.359   0.000  0.00  0.00    +0.194 C 
ATOM     18  O   UNL     1       2.539  -2.074   0.000  0.00  0.00    -0.220 OA
ENDROOT
BRANCH  16  19
ATOM     19  N   UNL     1       1.331  -1.706   0.000  0.00  0.00    -0.265 NA
ATOM     20  C   UNL     1       1.863  -2.337   0.000  0.00  0.00    +0.094 C 
ATOM     21  C   UNL     1       1.583  -3.113   0.000  0.00  0.00    +0.108 C 
ATOM     22  N   UNL     1       0.771  -3.258   0.000  0.00  0.00    -0.302 N 
ATOM     23  C   UNL     1       0.239  -2.628   0.000  0.00  0.00    +0.108 C 
ATOM     24  C   UNL     1       0.519  -1.852   0.000  0.00  0.00    +0.094 C 
BRANCH  22  25
ATOM     25  C   UNL     1       0.490  -4.034   0.000  0.00  0.00    +0.082 A 
ATOM     26  C   UNL     1       1.022  -4.665   0.000  0.00  0.00    +0.018 A 
ATOM     27  C   UNL     1       0.742  -5.441   0.000  0.00  0.00    +0.001 A 
ATOM     28  C   UNL     1      -0.070  -5.586   0.000  0.00  0.00    +0.003 A 
ATOM     29  C   UNL     1      -0.602  -4.955   0.000  0.00  0.00    +0.038 A 
ATOM     30  C   UNL     1      -0.322  -4.180   0.000  0.00  0.00    +0.152 A 
BRANCH  30  31
ATOM     31  O   UNL     1      -0.854  -3.549   0.000  0.00  0.00    -0.470 OA
ATOM     32  C   UNL     1      -0.573  -2.773   0.000  0.00  0.00    +0.253 C 
ENDBRANCH  30  31
ENDBRANCH  22  25
ENDBRANCH  16  19
BRANCH  10   9
ATOM      6  N   UNL     1       2.758   1.501   0.000  0.00  0.00    -0.161 NA
ATOM      7  C   UNL     1       2.231   0.867   0.000  0.00  0.00    +0.344 C 
ATOM      8  O   UNL     1       1.417   1.006   0.000  0.00  0.00    -0.249 OA
ATOM      9  N   UNL     1       2.517   0.093   0.000  0.00  0.00    -0.183 NA
BRANCH   6   5
ATOM      3  C   UNL     1       2.713   3.683   0.000  0.00  0.00    +0.140 A 
ATOM      4  C   UNL     1       2.999   2.910   0.000  0.00  0.00    +0.054 A 
ATOM      5  C   UNL     1       2.472   2.275   0.000  0.00  0.00    +0.078 A 
ATOM     33  C   UNL     1       1.659   2.414   0.000  0.00  0.00    +0.017 A 
ATOM     34  C   UNL     1       1.373   3.188   0.000  0.00  0.00    +0.004 A 
ATOM     35  C   UNL     1       1.900   3.823   0.000  0.00  0.00    +0.037 A 
BRANCH   3   2
ATOM      1  C   UNL     1       2.955   5.092   0.000  0.00  0.00    +0.252 C 
ATOM      2  O   UNL     1       3.241   4.318   0.000  0.00  0.00    -0.471 OA
ENDBRANCH   3   2
ENDBRANCH   6   5
ENDBRANCH  10   9
TORSDOF 6
