REMARK  Name = 
REMARK  7 active torsions:
REMARK  status: ('A' for Active; 'I' for Inactive)
REMARK    1  A    between atoms: C_2  and  C_3
REMARK    2  A    between atoms: C_8  and  C_9
REMARK    3  A    between atoms: C_9  and  C_10
REMARK    4  A    between atoms: N_12  and  C_13
REMARK    5  A    between atoms: C_13  and  C_14
REMARK    6  A    between atoms: C_14  and  O_15
REMARK    7  A    between atoms: C_17  and  C_19
REMARK                            x       y       z     vdW  Elec       q    Type
REMARK                         _______ _______ _______ _____ _____    ______ ____
ROOT
ATOM      3  C   UNL     1      -4.287  -4.125   0.000  0.00  0.00    +0.020 C 
ATOM      4  C   UNL     1      -5.001  -3.712   0.000  0.00  0.00    +0.094 C 
ATOM      5  N   UNL     1      -5.001  -2.888   0.000  0.00  0.00    -0.276 N 
ATOM      6  C   UNL     1      -4.287  -2.475   0.000  0.00  0.00    +0.094 C 
ATOM      7  C   UNL     1      -3.572  -2.888   0.000  0.00  0.00    +0.022 C 
ATOM      8  C   UNL     1      -3.572  -3.712   0.000  0.00  0.00    +0.012 C 
ATOM     17  C   UNL     1      -5.716  -2.475   0.000  0.00  0.00    +0.249 C 
ATOM     18  O   UNL     1      -5.716  -1.650   0.000  0.00  0.00    -0.270 OA
ENDROOT
BRANCH  17  19
ATOM     19  C   UNL     1      -6.430  -2.888   0.000  0.00  0.00    +0.054 A 
ATOM     20  C   UNL     1      -6.430  -3.712   0.000  0.00  0.00    +0.007 A 
ATOM     21  C   UNL     1      -7.145  -4.125   0.000  0.00  0.00    +0.030 A 
ATOM     22  C   UNL     1      -7.859  -3.712   0.000  0.00  0.00    +0.140 A 
ATOM     23  F   UNL     1      -8.574  -4.125   0.000  0.00  0.00    -0.204 F 
ATOM     24  C   UNL     1      -7.859  -2.888   0.000  0.00  0.00    +0.030 A 
ATOM     25  C   UNL     1      -7.145  -2.475   0.000  0.00  0.00    +0.007 A 
ENDBRANCH  17  19
BRANCH   3   2
ATOM      1  C   UNL     1      -3.572  -5.362   0.000  0.00  0.00    +0.000 C 
ATOM      2  C   UNL     1      -4.287  -4.950   0.000  0.00  0.00    +0.002 C 
ENDBRANCH   3   2
BRANCH   8   9
ATOM      9  C   UNL     1      -2.858  -4.125   0.000  0.00  0.00    +0.087 C 
BRANCH   9  10
ATOM     10  C   UNL     1      -2.143  -3.712   0.000  0.00  0.00    +0.241 C 
ATOM     11  O   UNL     1      -2.143  -2.888   0.000  0.00  0.00    -0.273 OA
ATOM     12  N   UNL     1      -1.429  -4.125   0.000  0.00  0.00    -0.203 NA
BRANCH  12  13
ATOM     13  C   UNL     1      -0.715  -3.712   0.000  0.00  0.00    +0.147 C 
BRANCH  13  14
ATOM     14  C   UNL     1       0.000  -4.125   0.000  0.00  0.00    +0.166 C 
BRANCH  14  15
ATOM     15  O   UNL     1       0.715  -3.712   0.000  0.00  0.00    -0.349 OA
ATOM     16  C   UNL     1       1.429  -4.125   0.000  0.00  0.00    +0.174 C 
ENDBRANCH  14  15
ENDBRANCH  13  14
ENDBRANCH  12  13
ENDBRANCH   9  10
ENDBRANCH   8   9
TORSDOF 7
