REMARK  Name = 
REMARK  7 active torsions:
REMARK  status: ('A' for Active; 'I' for Inactive)
REMARK    1  A    between atoms: C_2  and  C_4
REMARK    2  A    between atoms: C_7  and  N_8
REMARK    3  A    between atoms: N_11  and  C_12
REMARK    4  A    between atoms: C_16  and  O_20
REMARK    5  A    between atoms: O_20  and  C_21
REMARK    6  A    between atoms: N_23  and  C_24
REMARK    7  A    between atoms: C_26  and  C_30
REMARK                            x       y       z     vdW  Elec       q    Type
REMARK                         _______ _______ _______ _____ _____    ______ ____
ROOT
ATOM     12  C   UNL     1       1.270  -0.922   0.000  0.00  0.00    +0.156 C 
ATOM     13  C   UNL     1       0.785  -0.255   0.000  0.00  0.00    +0.166 C 
ATOM     14  O   UNL     1       1.270   0.412   0.000  0.00  0.00    -0.348 OA
ATOM     15  C   UNL     1       2.054   0.158   0.000  0.00  0.00    +0.186 C 
ATOM     16  C   UNL     1       2.839   0.412   0.000  0.00  0.00    +0.229 C 
ATOM     17  C   UNL     1       3.324  -0.255   0.000  0.00  0.00    +0.188 C 
ATOM     18  O   UNL     1       2.839  -0.922   0.000  0.00  0.00    -0.348 OA
ATOM     19  C   UNL     1       2.054  -0.667   0.000  0.00  0.00    +0.168 C 
ENDROOT
BRANCH  12  11
ATOM      8  N   UNL     1      -0.047  -2.663   0.000  0.00  0.00    -0.161 NA
ATOM      9  C   UNL     1       0.208  -1.879   0.000  0.00  0.00    +0.344 C 
ATOM     10  O   UNL     1      -0.344  -1.265   0.000  0.00  0.00    -0.249 OA
ATOM     11  N   UNL     1       1.015  -1.707   0.000  0.00  0.00    -0.184 NA
BRANCH   8   7
ATOM      4  C   UNL     1      -2.468  -3.178   0.000  0.00  0.00    +0.035 A 
ATOM      5  C   UNL     1      -2.213  -2.393   0.000  0.00  0.00    +0.004 A 
ATOM      6  C   UNL     1      -1.406  -2.222   0.000  0.00  0.00    +0.017 A 
ATOM      7  C   UNL     1      -0.854  -2.835   0.000  0.00  0.00    +0.075 A 
ATOM     34  C   UNL     1      -1.109  -3.619   0.000  0.00  0.00    +0.017 A 
ATOM     35  C   UNL     1      -1.916  -3.791   0.000  0.00  0.00    +0.004 A 
BRANCH   4   2
ATOM      1  C   UNL     1      -3.530  -4.134   0.000  0.00  0.00    +0.077 C 
ATOM      2  C   UNL     1      -3.275  -3.349   0.000  0.00  0.00    +0.173 C 
ATOM      3  O   UNL     1      -3.827  -2.736   0.000  0.00  0.00    -0.291 OA
ENDBRANCH   4   2
ENDBRANCH   8   7
ENDBRANCH  12  11
BRANCH  16  20
ATOM     20  O   UNL     1       3.094   1.197   0.000  0.00  0.00    -0.432 OA
BRANCH  20  21
ATOM     21  C   UNL     1       3.901   1.369   0.000  0.00  0.00    +0.425 C 
ATOM     22  O   UNL     1       4.453   0.756   0.000  0.00  0.00    -0.224 OA
ATOM     23  N   UNL     1       4.156   2.153   0.000  0.00  0.00    -0.142 NA
BRANCH  23  24
ATOM     24  C   UNL     1       4.963   2.325   0.000  0.00  0.00    +0.077 A 
ATOM     25  C   UNL     1       5.218   3.109   0.000  0.00  0.00    +0.021 A 
ATOM     26  C   UNL     1       6.024   3.281   0.000  0.00  0.00    +0.073 A 
ATOM     27  C   UNL     1       6.577   2.668   0.000  0.00  0.00    +0.004 A 
ATOM     28  C   UNL     1       6.322   1.883   0.000  0.00  0.00    +0.001 A 
ATOM     29  C   UNL     1       5.515   1.712   0.000  0.00  0.00    +0.017 A 
BRANCH  26  30
ATOM     30  C   UNL     1       6.279   4.066   0.000  0.00  0.00    +0.419 C 
ATOM     31  F   UNL     1       6.534   4.850   0.000  0.00  0.00    -0.166 F 
ATOM     32  F   UNL     1       7.064   3.811   0.000  0.00  0.00    -0.166 F 
ATOM     33  F   UNL     1       5.495   4.321   0.000  0.00  0.00    -0.166 F 
ENDBRANCH  26  30
ENDBRANCH  23  24
ENDBRANCH  20  21
ENDBRANCH  16  20
TORSDOF 7
