REMARK  Name = 
REMARK  2 active torsions:
REMARK  status: ('A' for Active; 'I' for Inactive)
REMARK    1  A    between atoms: C_2  and  N_3
REMARK    2  A    between atoms: N_13  and  C_16
REMARK                            x       y       z     vdW  Elec       q    Type
REMARK                         _______ _______ _______ _____ _____    ______ ____
ROOT
ATOM      3  N   UNL     1      -0.584   0.017   0.000  0.00  0.00    -0.188 NA
ATOM      4  C   UNL     1      -0.171  -0.698   0.000  0.00  0.00    +0.323 C 
ATOM      5  O   UNL     1      -0.584  -1.412   0.000  0.00  0.00    -0.251 OA
ATOM      6  N   UNL     1       0.654  -0.698   0.000  0.00  0.00    -0.259 N 
ATOM      7  C   UNL     1       1.139  -0.030   0.000  0.00  0.00    +0.126 C 
ATOM      8  C   UNL     1       1.923  -0.285   0.000  0.00  0.00    +0.156 C 
ATOM      9  O   UNL     1       2.638   0.127   0.000  0.00  0.00    -0.343 OA
ATOM     10  C   UNL     1       3.352  -0.285   0.000  0.00  0.00    +0.227 C 
ATOM     11  C   UNL     1       3.352  -1.110   0.000  0.00  0.00    +0.260 C 
ATOM     12  O   UNL     1       4.067  -1.523   0.000  0.00  0.00    -0.272 OA
ATOM     13  N   UNL     1       2.638  -1.523   0.000  0.00  0.00    -0.254 N 
ATOM     14  C   UNL     1       1.923  -1.110   0.000  0.00  0.00    +0.128 C 
ATOM     15  C   UNL     1       1.139  -1.365   0.000  0.00  0.00    +0.118 C 
ENDROOT
BRANCH  13  16
ATOM     16  C   UNL     1       2.638  -2.348   0.000  0.00  0.00    +0.054 A 
ATOM     17  C   UNL     1       3.352  -2.760   0.000  0.00  0.00    +0.015 A 
ATOM     18  C   UNL     1       3.352  -3.585   0.000  0.00  0.00    +0.001 A 
ATOM     19  C   UNL     1       2.638  -3.998   0.000  0.00  0.00    +0.000 A 
ATOM     20  C   UNL     1       1.923  -3.585   0.000  0.00  0.00    +0.001 A 
ATOM     21  C   UNL     1       1.923  -2.760   0.000  0.00  0.00    +0.015 A 
ENDBRANCH  13  16
BRANCH   3   2
ATOM      1  C   UNL     1      -1.821   0.731   0.000  0.00  0.00    +0.025 C 
ATOM      2  C   UNL     1      -1.409   0.017   0.000  0.00  0.00    +0.117 C 
ENDBRANCH   3   2
TORSDOF 2
