REMARK  Name = 
REMARK  10 active torsions:
REMARK  status: ('A' for Active; 'I' for Inactive)
REMARK    1  A    between atoms: C_2  and  C_3
REMARK    2  A    between atoms: C_3  and  C_4
REMARK    3  A    between atoms: C_7  and  C_8
REMARK    4  A    between atoms: C_8  and  C_9
REMARK    5  A    between atoms: C_11  and  C_12
REMARK    6  A    between atoms: C_15  and  C_16
REMARK    7  A    between atoms: C_16  and  N_17
REMARK    8  A    between atoms: N_20  and  C_21
REMARK    9  A    between atoms: C_21  and  C_22
REMARK   10  A    between atoms: C_22  and  O_23
REMARK                            x       y       z     vdW  Elec       q    Type
REMARK                         _______ _______ _______ _____ _____    ______ ____
ROOT
ATOM      9  C   UNL     1       3.010  -6.403   0.000  0.00  0.00    +0.027 C 
ATOM     10  C   UNL     1       3.831  -6.489   0.000  0.00  0.00    +0.005 C 
ATOM     11  C   UNL     1       4.167  -7.243   0.000  0.00  0.00    +0.006 C 
ATOM     15  C   UNL     1       3.682  -7.910   0.000  0.00  0.00    +0.037 C 
ATOM     27  C   UNL     1       2.861  -7.824   0.000  0.00  0.00    -0.034 C 
ATOM     28  C   UNL     1       2.526  -7.071   0.000  0.00  0.00    -0.048 C 
ATOM     29  C   UNL     1       1.705  -6.984   0.000  0.00  0.00    +0.026 C 
ENDROOT
BRANCH  11  12
ATOM     12  C   UNL     1       4.987  -7.329   0.000  0.00  0.00    +0.000 C 
ATOM     13  C   UNL     1       5.323  -8.083   0.000  0.00  0.00    +0.000 C 
ATOM     14  C   UNL     1       5.472  -6.662   0.000  0.00  0.00    +0.000 C 
ENDBRANCH  11  12
BRANCH   9   8
ATOM      8  C   UNL     1       2.675  -5.649   0.000  0.00  0.00    +0.091 C 
BRANCH   8   7
ATOM      4  C   UNL     1       3.572  -3.712   0.000  0.00  0.00    +0.226 A 
ATOM      5  N   UNL     1       4.240  -4.197   0.000  0.00  0.00    -0.112 NA
ATOM      6  N   UNL     1       3.985  -4.982   0.000  0.00  0.00    -0.112 NA
ATOM      7  C   UNL     1       3.160  -4.982   0.000  0.00  0.00    +0.226 A 
ATOM     30  O   UNL     1       2.905  -4.197   0.000  0.00  0.00    -0.423 OA
BRANCH   4   3
ATOM      3  C   UNL     1       3.572  -2.888   0.000  0.00  0.00    +0.087 C 
BRANCH   3   2
ATOM      1  C   UNL     1       4.287  -1.650   0.000  0.00  0.00    +0.001 C 
ATOM      2  C   UNL     1       4.287  -2.475   0.000  0.00  0.00    +0.010 C 
ENDBRANCH   3   2
ENDBRANCH   4   3
ENDBRANCH   8   7
ENDBRANCH   9   8
BRANCH  15  16
ATOM     16  C   UNL     1       4.017  -8.664   0.000  0.00  0.00    +0.076 C 
BRANCH  16  17
ATOM     17  N   UNL     1       3.532  -9.332   0.000  0.00  0.00    -0.270 NA
ATOM     18  C   UNL     1       3.868 -10.085   0.000  0.00  0.00    +0.090 C 
ATOM     19  C   UNL     1       3.383 -10.753   0.000  0.00  0.00    +0.090 C 
ATOM     20  N   UNL     1       2.562 -10.666   0.000  0.00  0.00    -0.268 NA
ATOM     25  C   UNL     1       2.227  -9.913   0.000  0.00  0.00    +0.090 C 
ATOM     26  C   UNL     1       2.712  -9.245   0.000  0.00  0.00    +0.090 C 
BRANCH  20  21
ATOM     21  C   UNL     1       2.078 -11.334   0.000  0.00  0.00    +0.105 C 
BRANCH  21  22
ATOM     22  C   UNL     1       2.413 -12.088   0.000  0.00  0.00    +0.160 C 
BRANCH  22  23
ATOM     23  O   UNL     1       1.928 -12.755   0.000  0.00  0.00    -0.350 OA
ATOM     24  C   UNL     1       2.264 -13.509   0.000  0.00  0.00    +0.174 C 
ENDBRANCH  22  23
ENDBRANCH  21  22
ENDBRANCH  20  21
ENDBRANCH  16  17
ENDBRANCH  15  16
TORSDOF 10
