REMARK  Name = 
REMARK  6 active torsions:
REMARK  status: ('A' for Active; 'I' for Inactive)
REMARK    1  A    between atoms: C_7  and  C_8
REMARK    2  A    between atoms: C_8  and  C_9
REMARK    3  A    between atoms: C_12  and  C_13
REMARK    4  A    between atoms: C_13  and  C_14
REMARK    5  A    between atoms: C_14  and  N_15
REMARK    6  A    between atoms: N_18  and  C_21
REMARK                            x       y       z     vdW  Elec       q    Type
REMARK                         _______ _______ _______ _____ _____    ______ ____
ROOT
ATOM     13  C   UNL     1       0.000  -6.600   0.000  0.00  0.00    +0.019 C 
ENDROOT
BRANCH  13  12
ATOM      1  C   UNL     1       2.143  -3.712   0.000  0.00  0.00    +0.095 C 
ATOM      2  C   UNL     1       1.429  -4.125   0.000  0.00  0.00    +0.226 C 
ATOM      3  O   UNL     1       0.715  -3.712   0.000  0.00  0.00    -0.275 OA
ATOM      4  N   UNL     1       1.429  -4.950   0.000  0.00  0.00    -0.280 N 
ATOM      5  C   UNL     1       2.143  -5.362   0.000  0.00  0.00    +0.093 C 
ATOM      6  C   UNL     1       2.143  -6.188   0.000  0.00  0.00    +0.022 C 
ATOM      7  C   UNL     1       1.429  -6.600   0.000  0.00  0.00    +0.015 C 
ATOM     12  C   UNL     1       0.715  -6.188   0.000  0.00  0.00    +0.022 C 
ATOM     28  C   UNL     1       0.715  -5.362   0.000  0.00  0.00    +0.093 C 
BRANCH   7   8
ATOM      8  C   UNL     1       1.429  -7.425   0.000  0.00  0.00    +0.114 C 
BRANCH   8   9
ATOM      9  C   UNL     1       2.143  -7.838   0.000  0.00  0.00    +0.365 C 
ATOM     10  O   UNL     1       2.858  -7.425   0.000  0.00  0.00    -0.246 OA
ATOM     11  O   UNL     1       2.143  -8.662   0.000  0.00  0.00    -0.246 OA
ENDBRANCH   8   9
ENDBRANCH   7   8
ENDBRANCH  13  12
BRANCH  13  14
ATOM     14  C   UNL     1       0.000  -7.425   0.000  0.00  0.00    +0.072 C 
BRANCH  14  15
ATOM     15  N   UNL     1      -0.715  -7.838   0.000  0.00  0.00    -0.270 NA
ATOM     16  C   UNL     1      -0.715  -8.662   0.000  0.00  0.00    +0.094 C 
ATOM     17  C   UNL     1      -1.429  -9.075   0.000  0.00  0.00    +0.108 C 
ATOM     18  N   UNL     1      -2.143  -8.662   0.000  0.00  0.00    -0.305 N 
ATOM     19  C   UNL     1      -2.143  -7.838   0.000  0.00  0.00    +0.108 C 
ATOM     20  C   UNL     1      -1.429  -7.425   0.000  0.00  0.00    +0.094 C 
BRANCH  18  21
ATOM     21  C   UNL     1      -2.858  -9.075   0.000  0.00  0.00    +0.048 A 
ATOM     22  C   UNL     1      -2.858  -9.900   0.000  0.00  0.00    +0.017 A 
ATOM     23  C   UNL     1      -3.572 -10.312   0.000  0.00  0.00    +0.031 A 
ATOM     24  C   UNL     1      -4.287  -9.900   0.000  0.00  0.00    +0.140 A 
ATOM     25  F   UNL     1      -5.001 -10.312   0.000  0.00  0.00    -0.204 F 
ATOM     26  C   UNL     1      -4.287  -9.075   0.000  0.00  0.00    +0.031 A 
ATOM     27  C   UNL     1      -3.572  -8.662   0.000  0.00  0.00    +0.017 A 
ENDBRANCH  18  21
ENDBRANCH  14  15
ENDBRANCH  13  14
TORSDOF 6
