REMARK  Name = 
REMARK  8 active torsions:
REMARK  status: ('A' for Active; 'I' for Inactive)
REMARK    1  A    between atoms: C_2  and  C_3
REMARK    2  A    between atoms: C_3  and  S_4
REMARK    3  A    between atoms: S_4  and  N_7
REMARK    4  A    between atoms: N_7  and  C_8
REMARK    5  A    between atoms: C_11  and  C_14
REMARK    6  A    between atoms: N_19  and  C_20
REMARK    7  A    between atoms: C_20  and  C_21
REMARK    8  A    between atoms: C_26  and  C_27
REMARK                            x       y       z     vdW  Elec       q    Type
REMARK                         _______ _______ _______ _____ _____    ______ ____
ROOT
ATOM     14  C   UNL     1       0.715  -3.712   0.000  0.00  0.00    +0.159 C 
ATOM     15  O   UNL     1       1.429  -4.125   0.000  0.00  0.00    -0.341 OA
ATOM     16  C   UNL     1       1.429  -4.950   0.000  0.00  0.00    +0.227 C 
ATOM     17  C   UNL     1       0.715  -5.362   0.000  0.00  0.00    +0.256 C 
ATOM     18  O   UNL     1       0.715  -6.188   0.000  0.00  0.00    -0.272 OA
ATOM     19  N   UNL     1       0.000  -4.950   0.000  0.00  0.00    -0.265 N 
ATOM     26  C   UNL     1       0.000  -4.125   0.000  0.00  0.00    +0.140 C 
ENDROOT
BRANCH  14  11
ATOM      8  C   UNL     1       0.715  -1.238   0.000  0.00  0.00    +0.091 A 
ATOM      9  C   UNL     1       1.429  -1.650   0.000  0.00  0.00    +0.018 A 
ATOM     10  C   UNL     1       1.429  -2.475   0.000  0.00  0.00    -0.001 A 
ATOM     11  C   UNL     1       0.715  -2.888   0.000  0.00  0.00    +0.006 A 
ATOM     12  C   UNL     1       0.000  -2.475   0.000  0.00  0.00    -0.001 A 
ATOM     13  C   UNL     1       0.000  -1.650   0.000  0.00  0.00    +0.018 A 
BRANCH   8   7
ATOM      7  N   UNL     1       0.715  -0.412   0.000  0.00  0.00    -0.101 NA
BRANCH   7   4
ATOM      4  S   UNL     1       0.000   0.000   0.000  0.00  0.00    +0.073 S 
ATOM      5  O   UNL     1      -0.412  -0.715   0.000  0.00  0.00    -0.153 OA
ATOM      6  O   UNL     1       0.412   0.715   0.000  0.00  0.00    -0.153 OA
BRANCH   4   3
ATOM      3  C   UNL     1      -0.715   0.412   0.000  0.00  0.00    +0.174 C 
BRANCH   3   2
ATOM      1  C   UNL     1      -1.429   1.650   0.000  0.00  0.00    +0.002 C 
ATOM      2  C   UNL     1      -0.715   1.238   0.000  0.00  0.00    +0.027 C 
ENDBRANCH   3   2
ENDBRANCH   4   3
ENDBRANCH   7   4
ENDBRANCH   8   7
ENDBRANCH  14  11
BRANCH  26  27
ATOM     27  C   UNL     1      -0.715  -3.712   0.000  0.00  0.00    +0.205 C 
ATOM     28  O   UNL     1      -0.715  -2.888   0.000  0.00  0.00    -0.218 OA
ENDBRANCH  26  27
BRANCH  19  20
ATOM     20  C   UNL     1      -0.715  -5.362   0.000  0.00  0.00    +0.179 C 
BRANCH  20  21
ATOM     21  C   UNL     1      -0.715  -6.188   0.000  0.00  0.00    +0.246 C 
ATOM     22  O   UNL     1       0.000  -6.600   0.000  0.00  0.00    -0.273 OA
ATOM     23  N   UNL     1      -1.429  -6.600   0.000  0.00  0.00    -0.275 N 
ATOM     24  C   UNL     1      -1.429  -7.425   0.000  0.00  0.00    +0.115 C 
ATOM     25  C   UNL     1      -2.143  -6.188   0.000  0.00  0.00    +0.115 C 
ENDBRANCH  20  21
ENDBRANCH  19  20
TORSDOF 8
