REMARK  Name = 
REMARK  4 active torsions:
REMARK  status: ('A' for Active; 'I' for Inactive)
REMARK    1  A    between atoms: C_2  and  C_4
REMARK    2  A    between atoms: C_11  and  C_13
REMARK    3  A    between atoms: N_16  and  C_17
REMARK    4  A    between atoms: C_17  and  C_18
REMARK                            x       y       z     vdW  Elec       q    Type
REMARK                         _______ _______ _______ _____ _____    ______ ____
ROOT
ATOM      4  C   UNL     1       3.279   1.238   0.000  0.00  0.00    +0.076 A 
ATOM      5  C   UNL     1       3.993   0.825   0.000  0.00  0.00    +0.006 A 
ATOM      6  C   UNL     1       3.993   0.000   0.000  0.00  0.00    +0.002 A 
ATOM      7  C   UNL     1       3.279  -0.412   0.000  0.00  0.00    +0.021 A 
ATOM      8  C   UNL     1       2.564   0.000   0.000  0.00  0.00    +0.100 A 
ATOM      9  C   UNL     1       2.564   0.825   0.000  0.00  0.00    +0.105 A 
ATOM     10  N   UNL     1       1.780   1.080   0.000  0.00  0.00    -0.229 NA
ATOM     11  C   UNL     1       1.295   0.412   0.000  0.00  0.00    +0.140 A 
ATOM     12  N   UNL     1       1.780  -0.255   0.000  0.00  0.00    -0.229 NA
ENDROOT
BRANCH  11  13
ATOM     13  C   UNL     1       0.470   0.412   0.000  0.00  0.00    +0.076 C 
ATOM     14  C   UNL     1      -0.015  -0.255   0.000  0.00  0.00    +0.026 C 
ATOM     15  C   UNL     1      -0.800   0.000   0.000  0.00  0.00    +0.073 C 
ATOM     16  N   UNL     1      -0.800   0.825   0.000  0.00  0.00    -0.267 NA
ATOM     24  C   UNL     1      -0.015   1.080   0.000  0.00  0.00    +0.080 C 
BRANCH  16  17
ATOM     17  C   UNL     1      -1.467   1.310   0.000  0.00  0.00    +0.119 C 
BRANCH  17  18
ATOM     18  C   UNL     1      -1.381   2.130   0.000  0.00  0.00    +0.075 A 
ATOM     19  N   UNL     1      -2.048   2.615   0.000  0.00  0.00    -0.247 NA
ATOM     20  C   UNL     1      -1.962   3.436   0.000  0.00  0.00    +0.098 A 
ATOM     21  C   UNL     1      -1.208   3.771   0.000  0.00  0.00    +0.021 A 
ATOM     22  C   UNL     1      -0.541   3.286   0.000  0.00  0.00    +0.003 A 
ATOM     23  C   UNL     1      -0.627   2.466   0.000  0.00  0.00    +0.016 A 
ENDBRANCH  17  18
ENDBRANCH  16  17
ENDBRANCH  11  13
BRANCH   4   2
ATOM      1  N   UNL     1       3.993   2.475   0.000  0.00  0.00    -0.084 NA
ATOM      2  C   UNL     1       3.279   2.062   0.000  0.00  0.00    +0.286 C 
ATOM      3  O   UNL     1       2.564   2.475   0.000  0.00  0.00    -0.267 OA
ENDBRANCH   4   2
TORSDOF 4
