REMARK  Name = 
REMARK  6 active torsions:
REMARK  status: ('A' for Active; 'I' for Inactive)
REMARK    1  A    between atoms: C_2  and  N_4
REMARK    2  A    between atoms: C_5  and  C_7
REMARK    3  A    between atoms: C_7  and  C_8
REMARK    4  A    between atoms: C_10  and  C_11
REMARK    5  A    between atoms: C_11  and  N_12
REMARK    6  A    between atoms: N_15  and  C_16
REMARK                            x       y       z     vdW  Elec       q    Type
REMARK                         _______ _______ _______ _____ _____    ______ ____
ROOT
ATOM      8  C   UNL     1      -0.893  -1.483   0.000  0.00  0.00    +0.157 C 
ATOM      9  O   UNL     1      -0.086  -1.655   0.000  0.00  0.00    -0.351 OA
ATOM     10  C   UNL     1       0.000  -2.475   0.000  0.00  0.00    +0.170 C 
ATOM     22  C   UNL     1      -0.754  -2.811   0.000  0.00  0.00    +0.213 C 
ATOM     23  O   UNL     1      -0.925  -3.618   0.000  0.00  0.00    -0.218 OA
ATOM     24  C   UNL     1      -1.306  -2.197   0.000  0.00  0.00    +0.212 C 
ATOM     25  O   UNL     1      -2.126  -2.284   0.000  0.00  0.00    -0.218 OA
ENDROOT
BRANCH   8   7
ATOM      7  C   UNL     1      -1.229  -0.729   0.000  0.00  0.00    +0.119 C 
BRANCH   7   5
ATOM      4  N   UNL     1      -2.385   0.111   0.000  0.00  0.00    -0.207 NA
ATOM      5  C   UNL     1      -2.049  -0.643   0.000  0.00  0.00    +0.244 C 
ATOM      6  O   UNL     1      -2.534  -1.310   0.000  0.00  0.00    -0.273 OA
BRANCH   4   2
ATOM      1  C   UNL     1      -3.541   0.951   0.000  0.00  0.00    +0.023 C 
ATOM      2  C   UNL     1      -3.205   0.197   0.000  0.00  0.00    +0.095 C 
ATOM      3  C   UNL     1      -3.690  -0.471   0.000  0.00  0.00    +0.023 C 
ENDBRANCH   4   2
ENDBRANCH   7   5
ENDBRANCH   8   7
BRANCH  10  11
ATOM     11  C   UNL     1       0.715  -2.888   0.000  0.00  0.00    +0.149 C 
BRANCH  11  12
ATOM     12  N   UNL     1       1.429  -2.475   0.000  0.00  0.00    -0.185 NA
ATOM     13  C   UNL     1       2.143  -2.888   0.000  0.00  0.00    +0.339 C 
ATOM     14  O   UNL     1       2.143  -3.712   0.000  0.00  0.00    -0.249 OA
ATOM     15  N   UNL     1       2.858  -2.475   0.000  0.00  0.00    -0.189 NA
BRANCH  15  16
ATOM     16  C   UNL     1       3.572  -2.888   0.000  0.00  0.00    +0.097 C 
ATOM     17  C   UNL     1       4.287  -2.475   0.000  0.00  0.00    +0.022 C 
ATOM     18  C   UNL     1       5.001  -2.888   0.000  0.00  0.00    +0.002 C 
ATOM     19  C   UNL     1       5.001  -3.712   0.000  0.00  0.00    +0.000 C 
ATOM     20  C   UNL     1       4.287  -4.125   0.000  0.00  0.00    +0.002 C 
ATOM     21  C   UNL     1       3.572  -3.712   0.000  0.00  0.00    +0.022 C 
ENDBRANCH  15  16
ENDBRANCH  11  12
ENDBRANCH  10  11
TORSDOF 6
