REMARK  Name = 
REMARK  8 active torsions:
REMARK  status: ('A' for Active; 'I' for Inactive)
REMARK    1  A    between atoms: C_4  and  C_5
REMARK    2  A    between atoms: C_9  and  N_29
REMARK    3  A    between atoms: C_11  and  C_12
REMARK    4  A    between atoms: N_14  and  C_15
REMARK    5  A    between atoms: C_15  and  C_16
REMARK    6  A    between atoms: C_15  and  C_26
REMARK    7  A    between atoms: C_16  and  C_17
REMARK    8  A    between atoms: N_32  and  C_33
REMARK                            x       y       z     vdW  Elec       q    Type
REMARK                         _______ _______ _______ _____ _____    ______ ____
ROOT
ATOM      5  C   UNL     1      -2.615   2.878   0.000  0.00  0.00    +0.249 C 
ATOM      6  O   UNL     1      -3.369   3.214   0.000  0.00  0.00    -0.270 OA
ATOM      7  N   UNL     1      -1.948   3.363   0.000  0.00  0.00    -0.268 N 
ATOM      8  C   UNL     1      -1.948   4.188   0.000  0.00  0.00    +0.116 C 
ATOM      9  C   UNL     1      -1.163   4.443   0.000  0.00  0.00    +0.119 C 
ATOM     10  C   UNL     1      -0.678   3.775   0.000  0.00  0.00    +0.053 C 
ATOM     11  C   UNL     1      -1.163   3.108   0.000  0.00  0.00    +0.156 C 
ENDROOT
BRANCH   5   4
ATOM      1  C   UNL     1      -3.950   1.908   0.000  0.00  0.00    +0.027 C 
ATOM      2  C   UNL     1      -3.196   1.573   0.000  0.00  0.00    -0.039 C 
ATOM      3  C   UNL     1      -3.110   0.752   0.000  0.00  0.00    +0.027 C 
ATOM      4  C   UNL     1      -2.529   2.058   0.000  0.00  0.00    +0.049 C 
ENDBRANCH   5   4
BRANCH   9  29
ATOM     29  N   UNL     1      -0.908   5.228   0.000  0.00  0.00    -0.187 NA
ATOM     30  C   UNL     1      -0.101   5.399   0.000  0.00  0.00    +0.344 C 
ATOM     31  O   UNL     1       0.451   4.786   0.000  0.00  0.00    -0.249 OA
ATOM     32  N   UNL     1       0.154   6.184   0.000  0.00  0.00    -0.159 NA
BRANCH  32  33
ATOM     33  C   UNL     1      -0.398   6.797   0.000  0.00  0.00    +0.102 A 
ATOM     34  C   UNL     1      -1.205   6.625   0.000  0.00  0.00    +0.158 A 
ATOM     35  F   UNL     1      -1.460   5.841   0.000  0.00  0.00    -0.203 F 
ATOM     36  C   UNL     1      -1.758   7.238   0.000  0.00  0.00    +0.061 A 
ATOM     37  C   UNL     1      -1.502   8.023   0.000  0.00  0.00    +0.142 A 
ATOM     38  F   UNL     1      -2.054   8.636   0.000  0.00  0.00    -0.204 F 
ATOM     39  C   UNL     1      -0.696   8.194   0.000  0.00  0.00    +0.031 A 
ATOM     40  C   UNL     1      -0.143   7.581   0.000  0.00  0.00    +0.021 A 
ENDBRANCH  32  33
ENDBRANCH   9  29
BRANCH  11  12
ATOM     12  C   UNL     1      -0.908   2.323   0.000  0.00  0.00    +0.260 C 
ATOM     13  O   UNL     1      -0.101   2.152   0.000  0.00  0.00    -0.272 OA
ATOM     14  N   UNL     1      -1.460   1.710   0.000  0.00  0.00    -0.196 NA
BRANCH  14  15
ATOM     15  C   UNL     1      -1.205   0.926   0.000  0.00  0.00    +0.179 C 
BRANCH  15  26
ATOM     26  C   UNL     1      -1.758   0.313   0.000  0.00  0.00    +0.281 C 
ATOM     27  N   UNL     1      -2.564   0.484   0.000  0.00  0.00    -0.086 NA
ATOM     28  O   UNL     1      -1.502  -0.472   0.000  0.00  0.00    -0.270 OA
ENDBRANCH  15  26
BRANCH  15  16
ATOM     16  C   UNL     1      -0.398   0.754   0.000  0.00  0.00    +0.059 C 
BRANCH  16  17
ATOM     17  C   UNL     1      -0.143  -0.030   0.000  0.00  0.00    +0.001 A 
ATOM     18  C   UNL     1      -0.628  -0.698   0.000  0.00  0.00    +0.095 A 
ATOM     19  N   UNL     1      -0.143  -1.365   0.000  0.00  0.00    -0.244 NA
ATOM     20  C   UNL     1       0.641  -1.110   0.000  0.00  0.00    +0.081 A 
ATOM     21  C   UNL     1       0.641  -0.285   0.000  0.00  0.00    +0.015 A 
ATOM     22  C   UNL     1       1.356   0.127   0.000  0.00  0.00    +0.001 A 
ATOM     23  C   UNL     1       2.070  -0.285   0.000  0.00  0.00    +0.000 A 
ATOM     24  C   UNL     1       2.070  -1.110   0.000  0.00  0.00    +0.002 A 
ATOM     25  C   UNL     1       1.356  -1.523   0.000  0.00  0.00    +0.019 A 
ENDBRANCH  16  17
ENDBRANCH  15  16
ENDBRANCH  14  15
ENDBRANCH  11  12
TORSDOF 8
