REMARK  Name = 
REMARK  8 active torsions:
REMARK  status: ('A' for Active; 'I' for Inactive)
REMARK    1  A    between atoms: C_2  and  C_10
REMARK    2  A    between atoms: N_3  and  C_4
REMARK    3  A    between atoms: C_4  and  C_5
REMARK    4  A    between atoms: C_17  and  C_18
REMARK    5  A    between atoms: C_18  and  N_19
REMARK    6  A    between atoms: C_21  and  C_22
REMARK    7  A    between atoms: C_22  and  S_23
REMARK    8  A    between atoms: S_23  and  C_24
REMARK                            x       y       z     vdW  Elec       q    Type
REMARK                         _______ _______ _______ _____ _____    ______ ____
ROOT
ATOM     10  C   UNL     1       1.661  -1.343   0.000  0.00  0.00    +0.094 C 
ATOM     11  C   UNL     1       1.814  -2.106   0.000  0.00  0.00    +0.081 C 
ATOM     12  N   UNL     1       1.065  -1.759   0.000  0.00  0.00    -0.272 NA
ATOM     13  C   UNL     1       1.205  -0.720   0.000  0.00  0.00    +0.072 C 
ATOM     14  C   UNL     1       0.961  -0.114   0.000  0.00  0.00    +0.018 C 
ATOM     15  C   UNL     1       0.923  -1.010   0.000  0.00  0.00    +0.013 C 
ATOM     16  C   UNL     1       0.119  -1.362   0.000  0.00  0.00    +0.019 C 
ATOM     17  C   UNL     1       0.226  -2.118   0.000  0.00  0.00    +0.082 C 
ENDROOT
BRANCH  10   2
ATOM      1  O   UNL     1       3.075  -1.130   0.000  0.00  0.00    -0.273 OA
ATOM      2  C   UNL     1       2.307  -0.828   0.000  0.00  0.00    +0.243 C 
ATOM      3  N   UNL     1       2.184  -0.013   0.000  0.00  0.00    -0.197 NA
BRANCH   3   4
ATOM      4  C   UNL     1       2.829   0.501   0.000  0.00  0.00    +0.179 C 
BRANCH   4   5
ATOM      5  C   UNL     1       2.707   1.317   0.000  0.00  0.00    +0.145 A 
ATOM      6  C   UNL     1       1.975   1.698   0.000  0.00  0.00    +0.038 A 
ATOM      7  C   UNL     1       2.110   2.511   0.000  0.00  0.00    +0.043 A 
ATOM      8  C   UNL     1       2.926   2.634   0.000  0.00  0.00    +0.179 A 
ATOM      9  O   UNL     1       3.295   1.896   0.000  0.00  0.00    -0.453 OA
ENDBRANCH   4   5
ENDBRANCH   3   4
ENDBRANCH  10   2
BRANCH  17  18
ATOM     18  C   UNL     1      -0.179  -2.836   0.000  0.00  0.00    +0.145 C 
BRANCH  18  19
ATOM     19  N   UNL     1      -1.004  -2.845   0.000  0.00  0.00    -0.229 N 
ATOM     20  C   UNL     1      -1.481  -3.518   0.000  0.00  0.00    +0.114 A 
ATOM     21  C   UNL     1      -2.269  -3.271   0.000  0.00  0.00    +0.112 A 
ATOM     30  N   UNL     1      -2.277  -2.446   0.000  0.00  0.00    -0.132 NA
ATOM     31  N   UNL     1      -1.496  -2.183   0.000  0.00  0.00    -0.064 NA
BRANCH  21  22
ATOM     22  C   UNL     1      -2.931  -3.763   0.000  0.00  0.00    +0.111 C 
BRANCH  22  23
ATOM     23  S   UNL     1      -2.836  -4.583   0.000  0.00  0.00    -0.107 S 
BRANCH  23  24
ATOM     24  C   UNL     1      -3.498  -5.075   0.000  0.00  0.00    +0.026 A 
ATOM     25  C   UNL     1      -3.403  -5.894   0.000  0.00  0.00    +0.006 A 
ATOM     26  C   UNL     1      -4.065  -6.386   0.000  0.00  0.00    +0.001 A 
ATOM     27  C   UNL     1      -4.822  -6.059   0.000  0.00  0.00    +0.000 A 
ATOM     28  C   UNL     1      -4.917  -5.239   0.000  0.00  0.00    +0.001 A 
ATOM     29  C   UNL     1      -4.255  -4.747   0.000  0.00  0.00    +0.006 A 
ENDBRANCH  23  24
ENDBRANCH  22  23
ENDBRANCH  21  22
ENDBRANCH  18  19
ENDBRANCH  17  18
TORSDOF 8
