REMARK  Name = 
REMARK  4 active torsions:
REMARK  status: ('A' for Active; 'I' for Inactive)
REMARK    1  A    between atoms: O_2  and  C_3
REMARK    2  A    between atoms: C_8  and  N_9
REMARK    3  A    between atoms: N_12  and  C_13
REMARK    4  A    between atoms: N_25  and  C_26
REMARK                            x       y       z     vdW  Elec       q    Type
REMARK                         _______ _______ _______ _____ _____    ______ ____
ROOT
ATOM     13  C   UNL     1      -1.296  -1.150   0.000  0.00  0.00    +0.131 A 
ATOM     14  C   UNL     1      -1.167  -0.335   0.000  0.00  0.00    +0.023 A 
ATOM     15  C   UNL     1      -0.397  -0.039   0.000  0.00  0.00    +0.014 A 
ATOM     16  C   UNL     1       0.244  -0.558   0.000  0.00  0.00    +0.041 A 
ATOM     17  C   UNL     1       1.163  -0.557   0.000  0.00  0.00    +0.058 C 
ATOM     18  C   UNL     1       1.713  -0.121   0.000  0.00  0.00    +0.011 C 
ATOM     19  C   UNL     1       1.582  -0.925   0.000  0.00  0.00    +0.043 C 
ATOM     20  C   UNL     1       1.629  -1.912   0.000  0.00  0.00    +0.097 C 
ATOM     21  N   UNL     1       0.813  -2.091   0.000  0.00  0.00    -0.262 N 
ATOM     22  C   UNL     1       1.225  -1.510   0.000  0.00  0.00    +0.101 C 
ATOM     23  C   UNL     1       0.125  -2.547   0.000  0.00  0.00    +0.323 C 
ATOM     24  O   UNL     1      -0.614  -2.179   0.000  0.00  0.00    -0.251 OA
ATOM     25  N   UNL     1       0.176  -3.370   0.000  0.00  0.00    -0.190 NA
ATOM     32  C   UNL     1       0.622  -0.936   0.000  0.00  0.00    +0.110 C 
ATOM     33  N   UNL     1       0.115  -1.373   0.000  0.00  0.00    -0.298 N 
ATOM     34  C   UNL     1      -0.655  -1.669   0.000  0.00  0.00    +0.276 A 
ATOM     35  O   UNL     1      -1.029  -2.404   0.000  0.00  0.00    -0.266 OA
ENDROOT
BRANCH  25  26
ATOM     26  C   UNL     1       0.914  -3.738   0.000  0.00  0.00    +0.097 C 
ATOM     27  C   UNL     1       1.602  -3.283   0.000  0.00  0.00    +0.022 C 
ATOM     28  C   UNL     1       2.340  -3.650   0.000  0.00  0.00    +0.002 C 
ATOM     29  C   UNL     1       2.391  -4.474   0.000  0.00  0.00    +0.000 C 
ATOM     30  C   UNL     1       1.703  -4.929   0.000  0.00  0.00    +0.002 C 
ATOM     31  C   UNL     1       0.965  -4.562   0.000  0.00  0.00    +0.022 C 
ENDBRANCH  25  26
BRANCH  13  12
ATOM      9  N   UNL     1      -2.578  -0.111   0.000  0.00  0.00    -0.158 NA
ATOM     10  C   UNL     1      -2.707  -0.926   0.000  0.00  0.00    +0.348 C 
ATOM     11  O   UNL     1      -3.478  -1.222   0.000  0.00  0.00    -0.248 OA
ATOM     12  N   UNL     1      -2.066  -1.445   0.000  0.00  0.00    -0.156 NA
BRANCH   9   8
ATOM      3  C   UNL     1      -3.990   0.112   0.000  0.00  0.00    +0.154 A 
ATOM      4  C   UNL     1      -4.631   0.631   0.000  0.00  0.00    +0.038 A 
ATOM      5  C   UNL     1      -4.502   1.446   0.000  0.00  0.00    +0.003 A 
ATOM      6  C   UNL     1      -3.732   1.742   0.000  0.00  0.00    +0.002 A 
ATOM      7  C   UNL     1      -3.091   1.223   0.000  0.00  0.00    +0.020 A 
ATOM      8  C   UNL     1      -3.220   0.408   0.000  0.00  0.00    +0.109 A 
BRANCH   3   2
ATOM      1  C   UNL     1      -4.889  -0.999   0.000  0.00  0.00    +0.253 C 
ATOM      2  O   UNL     1      -4.119  -0.703   0.000  0.00  0.00    -0.470 OA
ENDBRANCH   3   2
ENDBRANCH   9   8
ENDBRANCH  13  12
TORSDOF 4
