REMARK  Name = 
REMARK  6 active torsions:
REMARK  status: ('A' for Active; 'I' for Inactive)
REMARK    1  A    between atoms: C_2  and  C_5
REMARK    2  A    between atoms: C_5  and  C_6
REMARK    3  A    between atoms: C_15  and  C_17
REMARK    4  A    between atoms: C_25  and  C_26
REMARK    5  A    between atoms: C_26  and  C_27
REMARK    6  A    between atoms: C_32  and  C_35
REMARK                            x       y       z     vdW  Elec       q    Type
REMARK                         _______ _______ _______ _____ _____    ______ ____
ROOT
ATOM      6  C   UNL     1       5.365  -0.302   0.000  0.00  0.00    +0.247 C 
ATOM      7  O   UNL     1       4.952  -1.016   0.000  0.00  0.00    -0.273 OA
ATOM      8  N   UNL     1       4.952   0.412   0.000  0.00  0.00    -0.154 NA
ATOM      9  C   UNL     1       4.127   0.412   0.000  0.00  0.00    +0.185 A 
ATOM     10  N   UNL     1       3.643   1.080   0.000  0.00  0.00    -0.227 NA
ATOM     11  C   UNL     1       2.858   0.825   0.000  0.00  0.00    +0.063 A 
ATOM     12  C   UNL     1       2.858   0.000   0.000  0.00  0.00    +0.023 A 
ATOM     13  C   UNL     1       2.143  -0.412   0.000  0.00  0.00    +0.034 C 
ATOM     14  C   UNL     1       1.429   0.000   0.000  0.00  0.00    +0.010 C 
ATOM     15  C   UNL     1       0.715  -0.412   0.000  0.00  0.00    +0.059 C 
ATOM     16  C   UNL     1       1.245  -1.044   0.000  0.00  0.00    +0.005 C 
ATOM     19  C   UNL     1       0.000   0.000   0.000  0.00  0.00    +0.154 C 
ATOM     20  O   UNL     1      -0.715  -0.412   0.000  0.00  0.00    -0.223 OA
ATOM     21  C   UNL     1       0.000   0.825   0.000  0.00  0.00    +0.033 C 
ATOM     22  C   UNL     1       0.715   1.238   0.000  0.00  0.00    +0.003 C 
ATOM     23  C   UNL     1       1.429   0.825   0.000  0.00  0.00    +0.006 C 
ATOM     24  C   UNL     1       1.429   1.650   0.000  0.00  0.00    +0.000 C 
ATOM     25  C   UNL     1       2.143   1.238   0.000  0.00  0.00    +0.050 C 
ATOM     38  S   UNL     1       3.643  -0.255   0.000  0.00  0.00    -0.054 S 
ENDROOT
BRANCH  15  17
ATOM     17  C   UNL     1       0.184  -1.044   0.000  0.00  0.00    +0.184 C 
ATOM     18  O   UNL     1      -0.628  -0.901   0.000  0.00  0.00    -0.220 OA
ENDBRANCH  15  17
BRANCH   6   5
ATOM      5  C   UNL     1       6.190  -0.302   0.000  0.00  0.00    +0.087 C 
BRANCH   5   2
ATOM      1  C   UNL     1       7.015  -1.731   0.000  0.00  0.00    +0.000 C 
ATOM      2  C   UNL     1       6.602  -1.016   0.000  0.00  0.00    +0.009 C 
ATOM      3  C   UNL     1       7.317  -0.604   0.000  0.00  0.00    +0.000 C 
ATOM      4  C   UNL     1       5.888  -1.429   0.000  0.00  0.00    +0.000 C 
ENDBRANCH   5   2
ENDBRANCH   6   5
BRANCH  25  26
ATOM     26  C   UNL     1       2.143   2.062   0.000  0.00  0.00    +0.091 C 
BRANCH  26  27
ATOM     27  C   UNL     1       1.429   2.475   0.000  0.00  0.00    +0.226 C 
ATOM     28  O   UNL     1       0.715   2.062   0.000  0.00  0.00    -0.275 OA
ATOM     29  N   UNL     1       1.429   3.300   0.000  0.00  0.00    -0.280 N 
ATOM     30  C   UNL     1       0.715   3.712   0.000  0.00  0.00    +0.094 C 
ATOM     31  C   UNL     1       0.715   4.537   0.000  0.00  0.00    +0.031 C 
ATOM     32  C   UNL     1       1.429   4.950   0.000  0.00  0.00    +0.083 C 
ATOM     33  C   UNL     1       2.143   4.537   0.000  0.00  0.00    +0.031 C 
ATOM     34  C   UNL     1       2.143   3.712   0.000  0.00  0.00    +0.094 C 
BRANCH  32  35
ATOM     35  C   UNL     1       1.429   5.775   0.000  0.00  0.00    +0.260 C 
ATOM     36  N   UNL     1       0.715   6.188   0.000  0.00  0.00    -0.088 NA
ATOM     37  O   UNL     1       2.143   6.188   0.000  0.00  0.00    -0.272 OA
ENDBRANCH  32  35
ENDBRANCH  26  27
ENDBRANCH  25  26
TORSDOF 6
