REMARK  Name = 
REMARK  6 active torsions:
REMARK  status: ('A' for Active; 'I' for Inactive)
REMARK    1  A    between atoms: C_2  and  C_3
REMARK    2  A    between atoms: C_2  and  C_16
REMARK    3  A    between atoms: N_9  and  C_10
REMARK    4  A    between atoms: C_10  and  C_11
REMARK    5  A    between atoms: C_19  and  N_20
REMARK    6  A    between atoms: C_21  and  C_23
REMARK                            x       y       z     vdW  Elec       q    Type
REMARK                         _______ _______ _______ _____ _____    ______ ____
ROOT
ATOM      1  O   UNL     1       0.000   9.203   0.000  0.00  0.00    -0.216 OA
ATOM      2  C   UNL     1      -0.715   8.790   0.000  0.00  0.00    +0.195 C 
ENDROOT
BRANCH   2   3
ATOM      3  C   UNL     1      -1.429   9.203   0.000  0.00  0.00    +0.140 C 
ATOM      4  C   UNL     1      -2.143   8.790   0.000  0.00  0.00    +0.165 C 
ATOM      5  O   UNL     1      -2.858   9.203   0.000  0.00  0.00    -0.343 OA
ATOM      6  C   UNL     1      -2.858  10.028   0.000  0.00  0.00    +0.227 C 
ATOM      7  C   UNL     1      -2.143  10.440   0.000  0.00  0.00    +0.256 C 
ATOM      8  O   UNL     1      -2.143  11.265   0.000  0.00  0.00    -0.272 OA
ATOM      9  N   UNL     1      -1.429  10.028   0.000  0.00  0.00    -0.267 N 
BRANCH   9  10
ATOM     10  C   UNL     1      -0.715  10.440   0.000  0.00  0.00    +0.160 C 
BRANCH  10  11
ATOM     11  C   UNL     1      -0.715  11.265   0.000  0.00  0.00    +0.159 A 
ATOM     12  N   UNL     1      -1.382  11.750   0.000  0.00  0.00    -0.226 NA
ATOM     13  C   UNL     1      -1.127  12.535   0.000  0.00  0.00    +0.121 A 
ATOM     14  C   UNL     1      -0.302  12.535   0.000  0.00  0.00    +0.121 A 
ATOM     15  N   UNL     1      -0.047  11.750   0.000  0.00  0.00    -0.226 NA
ENDBRANCH  10  11
ENDBRANCH   9  10
ENDBRANCH   2   3
BRANCH   2  16
ATOM     16  C   UNL     1      -0.715   7.965   0.000  0.00  0.00    +0.010 A 
ATOM     17  C   UNL     1       0.000   7.553   0.000  0.00  0.00    -0.000 A 
ATOM     18  C   UNL     1       0.000   6.728   0.000  0.00  0.00    +0.016 A 
ATOM     19  C   UNL     1      -0.715   6.315   0.000  0.00  0.00    +0.073 A 
ATOM     26  C   UNL     1      -1.429   6.728   0.000  0.00  0.00    +0.016 A 
ATOM     27  C   UNL     1      -1.429   7.553   0.000  0.00  0.00    -0.000 A 
BRANCH  19  20
ATOM     20  N   UNL     1      -0.715   5.490   0.000  0.00  0.00    -0.179 NA
ATOM     21  C   UNL     1       0.000   5.078   0.000  0.00  0.00    +0.245 C 
ATOM     22  O   UNL     1       0.715   5.490   0.000  0.00  0.00    -0.273 OA
BRANCH  21  23
ATOM     23  C   UNL     1       0.000   4.253   0.000  0.00  0.00    +0.079 C 
ATOM     24  C   UNL     1       0.412   3.538   0.000  0.00  0.00    +0.010 C 
ATOM     25  C   UNL     1      -0.412   3.538   0.000  0.00  0.00    +0.010 C 
ENDBRANCH  21  23
ENDBRANCH  19  20
ENDBRANCH   2  16
TORSDOF 6
