REMARK  Name = 
REMARK  7 active torsions:
REMARK  status: ('A' for Active; 'I' for Inactive)
REMARK    1  A    between atoms: O_2  and  C_3
REMARK    2  A    between atoms: C_7  and  C_8
REMARK    3  A    between atoms: C_8  and  N_9
REMARK    4  A    between atoms: N_9  and  C_10
REMARK    5  A    between atoms: C_10  and  C_11
REMARK    6  A    between atoms: C_11  and  C_12
REMARK    7  A    between atoms: C_15  and  C_17
REMARK                            x       y       z     vdW  Elec       q    Type
REMARK                         _______ _______ _______ _____ _____    ______ ____
ROOT
ATOM     10  C   UNL     1       3.009   3.622   0.000  0.00  0.00    +0.120 C 
ATOM     21  C   UNL     1       3.592   3.038   0.000  0.00  0.00    +0.161 C 
ATOM     22  O   UNL     1       3.009   2.455   0.000  0.00  0.00    -0.351 OA
ATOM     23  C   UNL     1       2.425   3.038   0.000  0.00  0.00    +0.161 C 
ENDROOT
BRANCH  10   9
ATOM      9  N   UNL     1       3.592   4.205   0.000  0.00  0.00    -0.211 NA
BRANCH   9   8
ATOM      8  C   UNL     1       3.379   5.002   0.000  0.00  0.00    +0.115 C 
BRANCH   8   7
ATOM      3  C   UNL     1       4.332   6.966   0.000  0.00  0.00    +0.138 A 
ATOM      4  C   UNL     1       5.129   6.752   0.000  0.00  0.00    +0.037 A 
ATOM      5  C   UNL     1       5.342   5.955   0.000  0.00  0.00    +0.003 A 
ATOM      6  C   UNL     1       4.759   5.372   0.000  0.00  0.00    -0.003 A 
ATOM      7  C   UNL     1       3.962   5.585   0.000  0.00  0.00    -0.002 A 
ATOM     24  C   UNL     1       3.748   6.382   0.000  0.00  0.00    +0.034 A 
BRANCH   3   2
ATOM      1  C   UNL     1       4.702   8.346   0.000  0.00  0.00    +0.252 C 
ATOM      2  O   UNL     1       4.118   7.763   0.000  0.00  0.00    -0.471 OA
ENDBRANCH   3   2
ENDBRANCH   8   7
ENDBRANCH   9   8
ENDBRANCH  10   9
BRANCH  10  11
ATOM     11  C   UNL     1       2.425   4.205   0.000  0.00  0.00    +0.070 C 
BRANCH  11  12
ATOM     12  C   UNL     1       1.629   3.992   0.000  0.00  0.00    +0.102 A 
ATOM     13  N   UNL     1       1.333   3.221   0.000  0.00  0.00    -0.082 NA
ATOM     14  O   UNL     1       0.509   3.265   0.000  0.00  0.00    -0.356 OA
ATOM     15  C   UNL     1       0.296   4.061   0.000  0.00  0.00    +0.181 A 
ATOM     16  C   UNL     1       0.988   4.511   0.000  0.00  0.00    +0.056 A 
BRANCH  15  17
ATOM     17  C   UNL     1      -0.475   4.357   0.000  0.00  0.00    +0.180 C 
ATOM     18  C   UNL     1      -1.245   4.653   0.000  0.00  0.00    +0.041 C 
ATOM     19  C   UNL     1      -0.179   5.127   0.000  0.00  0.00    +0.041 C 
ATOM     20  O   UNL     1      -0.770   3.587   0.000  0.00  0.00    -0.218 OA
ENDBRANCH  15  17
ENDBRANCH  11  12
ENDBRANCH  10  11
TORSDOF 7
