REMARK  Name = 
REMARK  5 active torsions:
REMARK  status: ('A' for Active; 'I' for Inactive)
REMARK    1  A    between atoms: C_2  and  O_5
REMARK    2  A    between atoms: O_5  and  C_6
REMARK    3  A    between atoms: C_9  and  N_12
REMARK    4  A    between atoms: C_17  and  N_23
REMARK    5  A    between atoms: C_24  and  C_26
REMARK                            x       y       z     vdW  Elec       q    Type
REMARK                         _______ _______ _______ _____ _____    ______ ____
ROOT
ATOM     12  N   UNL     1       0.654  -0.698   0.000  0.00  0.00    -0.191 N 
ATOM     13  C   UNL     1       1.139  -0.030   0.000  0.00  0.00    +0.254 C 
ATOM     14  O   UNL     1       0.884   0.754   0.000  0.00  0.00    -0.272 OA
ATOM     15  C   UNL     1       1.923  -0.285   0.000  0.00  0.00    +0.156 C 
ATOM     16  C   UNL     1       2.638   0.127   0.000  0.00  0.00    +0.051 C 
ATOM     17  C   UNL     1       3.352  -0.285   0.000  0.00  0.00    +0.100 C 
ATOM     18  C   UNL     1       3.352  -1.110   0.000  0.00  0.00    +0.043 C 
ATOM     19  C   UNL     1       2.638  -1.523   0.000  0.00  0.00    +0.097 C 
ATOM     20  N   UNL     1       1.923  -1.110   0.000  0.00  0.00    -0.257 N 
ATOM     21  C   UNL     1       1.139  -1.365   0.000  0.00  0.00    +0.317 C 
ATOM     22  O   UNL     1       0.884  -2.150   0.000  0.00  0.00    -0.252 OA
ENDROOT
BRANCH  12   9
ATOM      6  C   UNL     1      -1.821  -0.698   0.000  0.00  0.00    +0.147 A 
ATOM      7  C   UNL     1      -1.409   0.017   0.000  0.00  0.00    +0.038 A 
ATOM      8  C   UNL     1      -0.584   0.017   0.000  0.00  0.00    +0.018 A 
ATOM      9  C   UNL     1      -0.171  -0.698   0.000  0.00  0.00    +0.062 A 
ATOM     10  C   UNL     1      -0.584  -1.412   0.000  0.00  0.00    +0.018 A 
ATOM     11  C   UNL     1      -1.409  -1.412   0.000  0.00  0.00    +0.038 A 
BRANCH   6   5
ATOM      5  O   UNL     1      -2.646  -0.698   0.000  0.00  0.00    -0.404 OA
BRANCH   5   2
ATOM      1  F   UNL     1      -3.471  -2.127   0.000  0.00  0.00    -0.133 F 
ATOM      2  C   UNL     1      -3.059  -1.412   0.000  0.00  0.00    +0.575 C 
ATOM      3  F   UNL     1      -2.344  -1.825   0.000  0.00  0.00    -0.133 F 
ATOM      4  F   UNL     1      -3.773  -1.000   0.000  0.00  0.00    -0.133 F 
ENDBRANCH   5   2
ENDBRANCH   6   5
ENDBRANCH  12   9
BRANCH  17  23
ATOM     23  N   UNL     1       4.067   0.127   0.000  0.00  0.00    -0.202 NA
ATOM     24  C   UNL     1       4.067   0.952   0.000  0.00  0.00    +0.284 C 
ATOM     25  O   UNL     1       3.352   1.365   0.000  0.00  0.00    -0.267 OA
BRANCH  24  26
ATOM     26  C   UNL     1       4.781   1.365   0.000  0.00  0.00    +0.155 A 
ATOM     27  C   UNL     1       4.781   2.190   0.000  0.00  0.00    +0.123 A 
ATOM     28  N   UNL     1       5.496   2.602   0.000  0.00  0.00    -0.239 NA
ATOM     29  C   UNL     1       6.210   2.190   0.000  0.00  0.00    +0.120 A 
ATOM     30  C   UNL     1       6.210   1.365   0.000  0.00  0.00    +0.120 A 
ATOM     31  N   UNL     1       5.496   0.952   0.000  0.00  0.00    -0.236 NA
ENDBRANCH  24  26
ENDBRANCH  17  23
TORSDOF 5
