REMARK  Name = 
REMARK  9 active torsions:
REMARK  status: ('A' for Active; 'I' for Inactive)
REMARK    1  A    between atoms: S_2  and  C_3
REMARK    2  A    between atoms: C_3  and  C_4
REMARK    3  A    between atoms: C_8  and  N_28
REMARK    4  A    between atoms: C_10  and  C_11
REMARK    5  A    between atoms: N_13  and  C_14
REMARK    6  A    between atoms: C_14  and  C_15
REMARK    7  A    between atoms: C_14  and  C_25
REMARK    8  A    between atoms: C_15  and  C_16
REMARK    9  A    between atoms: N_31  and  C_32
REMARK                            x       y       z     vdW  Elec       q    Type
REMARK                         _______ _______ _______ _____ _____    ______ ____
ROOT
ATOM      4  C   UNL     1      -2.615   2.878   0.000  0.00  0.00    +0.237 C 
ATOM      5  O   UNL     1      -3.369   3.214   0.000  0.00  0.00    -0.274 OA
ATOM      6  N   UNL     1      -1.948   3.363   0.000  0.00  0.00    -0.270 N 
ATOM      7  C   UNL     1      -1.948   4.188   0.000  0.00  0.00    +0.116 C 
ATOM      8  C   UNL     1      -1.163   4.443   0.000  0.00  0.00    +0.119 C 
ATOM      9  C   UNL     1      -0.678   3.775   0.000  0.00  0.00    +0.053 C 
ATOM     10  C   UNL     1      -1.163   3.108   0.000  0.00  0.00    +0.155 C 
ENDROOT
BRANCH   8  28
ATOM     28  N   UNL     1      -0.908   5.228   0.000  0.00  0.00    -0.187 NA
ATOM     29  C   UNL     1      -0.101   5.399   0.000  0.00  0.00    +0.344 C 
ATOM     30  O   UNL     1       0.451   4.786   0.000  0.00  0.00    -0.249 OA
ATOM     31  N   UNL     1       0.154   6.184   0.000  0.00  0.00    -0.159 NA
BRANCH  31  32
ATOM     32  C   UNL     1      -0.398   6.797   0.000  0.00  0.00    +0.102 A 
ATOM     33  C   UNL     1      -1.205   6.625   0.000  0.00  0.00    +0.158 A 
ATOM     34  F   UNL     1      -1.460   5.841   0.000  0.00  0.00    -0.203 F 
ATOM     35  C   UNL     1      -1.758   7.238   0.000  0.00  0.00    +0.061 A 
ATOM     36  C   UNL     1      -1.502   8.023   0.000  0.00  0.00    +0.142 A 
ATOM     37  F   UNL     1      -2.054   8.636   0.000  0.00  0.00    -0.204 F 
ATOM     38  C   UNL     1      -0.696   8.194   0.000  0.00  0.00    +0.031 A 
ATOM     39  C   UNL     1      -0.143   7.581   0.000  0.00  0.00    +0.021 A 
ENDBRANCH  31  32
ENDBRANCH   8  28
BRANCH  10  11
ATOM     11  C   UNL     1      -0.908   2.323   0.000  0.00  0.00    +0.260 C 
ATOM     12  O   UNL     1      -0.101   2.152   0.000  0.00  0.00    -0.272 OA
ATOM     13  N   UNL     1      -1.460   1.710   0.000  0.00  0.00    -0.196 NA
BRANCH  13  14
ATOM     14  C   UNL     1      -1.205   0.926   0.000  0.00  0.00    +0.179 C 
BRANCH  14  25
ATOM     25  C   UNL     1      -1.758   0.313   0.000  0.00  0.00    +0.281 C 
ATOM     26  N   UNL     1      -2.564   0.484   0.000  0.00  0.00    -0.086 NA
ATOM     27  O   UNL     1      -1.502  -0.472   0.000  0.00  0.00    -0.270 OA
ENDBRANCH  14  25
BRANCH  14  15
ATOM     15  C   UNL     1      -0.398   0.754   0.000  0.00  0.00    +0.059 C 
BRANCH  15  16
ATOM     16  C   UNL     1      -0.143  -0.030   0.000  0.00  0.00    +0.001 A 
ATOM     17  C   UNL     1      -0.628  -0.698   0.000  0.00  0.00    +0.095 A 
ATOM     18  N   UNL     1      -0.143  -1.365   0.000  0.00  0.00    -0.244 NA
ATOM     19  C   UNL     1       0.641  -1.110   0.000  0.00  0.00    +0.081 A 
ATOM     20  C   UNL     1       0.641  -0.285   0.000  0.00  0.00    +0.015 A 
ATOM     21  C   UNL     1       1.356   0.127   0.000  0.00  0.00    +0.001 A 
ATOM     22  C   UNL     1       2.070  -0.285   0.000  0.00  0.00    +0.000 A 
ATOM     23  C   UNL     1       2.070  -1.110   0.000  0.00  0.00    +0.002 A 
ATOM     24  C   UNL     1       1.356  -1.523   0.000  0.00  0.00    +0.019 A 
ENDBRANCH  15  16
ENDBRANCH  14  15
ENDBRANCH  13  14
ENDBRANCH  10  11
BRANCH   4   3
ATOM      3  C   UNL     1      -2.529   2.058   0.000  0.00  0.00    +0.143 C 
BRANCH   3   2
ATOM      1  C   UNL     1      -3.110   0.752   0.000  0.00  0.00    +0.070 C 
ATOM      2  S   UNL     1      -3.196   1.573   0.000  0.00  0.00    -0.130 S 
ENDBRANCH   3   2
ENDBRANCH   4   3
TORSDOF 9
