REMARK  Name = 
REMARK  4 active torsions:
REMARK  status: ('A' for Active; 'I' for Inactive)
REMARK    1  A    between atoms: C_2  and  C_5
REMARK    2  A    between atoms: C_14  and  C_17
REMARK    3  A    between atoms: N_19  and  C_20
REMARK    4  A    between atoms: N_28  and  C_31
REMARK                            x       y       z     vdW  Elec       q    Type
REMARK                         _______ _______ _______ _____ _____    ______ ____
ROOT
ATOM     17  C   UNL     1       4.781   1.935   0.000  0.00  0.00    +0.241 C 
ATOM     18  O   UNL     1       4.781   1.110   0.000  0.00  0.00    -0.273 OA
ATOM     19  N   UNL     1       4.067   2.348   0.000  0.00  0.00    -0.207 NA
ENDROOT
BRANCH  17  14
ATOM      5  C   UNL     1       8.354   4.823   0.000  0.00  0.00    +0.157 A 
ATOM      6  C   UNL     1       9.068   4.410   0.000  0.00  0.00    +0.044 A 
ATOM      7  C   UNL     1       9.068   3.585   0.000  0.00  0.00    +0.103 A 
ATOM      8  N   UNL     1       8.354   3.173   0.000  0.00  0.00    -0.212 NA
ATOM      9  C   UNL     1       7.639   3.585   0.000  0.00  0.00    +0.220 A 
ATOM     10  N   UNL     1       7.639   4.410   0.000  0.00  0.00    -0.210 NA
ATOM     11  N   UNL     1       6.925   3.173   0.000  0.00  0.00    -0.278 N 
ATOM     12  C   UNL     1       6.925   2.348   0.000  0.00  0.00    +0.094 C 
ATOM     13  C   UNL     1       6.210   1.935   0.000  0.00  0.00    +0.031 C 
ATOM     14  C   UNL     1       5.496   2.348   0.000  0.00  0.00    +0.082 C 
ATOM     15  C   UNL     1       5.496   3.173   0.000  0.00  0.00    +0.031 C 
ATOM     16  C   UNL     1       6.210   3.585   0.000  0.00  0.00    +0.094 C 
BRANCH   5   2
ATOM      1  F   UNL     1       8.354   6.473   0.000  0.00  0.00    -0.164 F 
ATOM      2  C   UNL     1       8.354   5.648   0.000  0.00  0.00    +0.435 C 
ATOM      3  F   UNL     1       7.529   5.648   0.000  0.00  0.00    -0.164 F 
ATOM      4  F   UNL     1       9.179   5.648   0.000  0.00  0.00    -0.164 F 
ENDBRANCH   5   2
ENDBRANCH  17  14
BRANCH  19  20
ATOM     20  C   UNL     1       3.352   1.935   0.000  0.00  0.00    +0.099 C 
ATOM     21  C   UNL     1       3.352   1.110   0.000  0.00  0.00    +0.043 C 
ATOM     22  C   UNL     1       2.638   0.698   0.000  0.00  0.00    +0.097 C 
ATOM     23  N   UNL     1       1.923   1.110   0.000  0.00  0.00    -0.257 N 
ATOM     24  C   UNL     1       1.923   1.935   0.000  0.00  0.00    +0.156 C 
ATOM     25  C   UNL     1       2.638   2.348   0.000  0.00  0.00    +0.051 C 
ATOM     26  C   UNL     1       1.139   2.190   0.000  0.00  0.00    +0.254 C 
ATOM     27  O   UNL     1       0.884   2.975   0.000  0.00  0.00    -0.272 OA
ATOM     28  N   UNL     1       0.654   1.523   0.000  0.00  0.00    -0.191 N 
ATOM     29  C   UNL     1       1.139   0.856   0.000  0.00  0.00    +0.317 C 
ATOM     30  O   UNL     1       0.884   0.071   0.000  0.00  0.00    -0.252 OA
BRANCH  28  31
ATOM     31  C   UNL     1      -0.171   1.523   0.000  0.00  0.00    +0.062 A 
ATOM     32  C   UNL     1      -0.584   0.808   0.000  0.00  0.00    +0.016 A 
ATOM     33  C   UNL     1      -1.409   0.808   0.000  0.00  0.00    +0.013 A 
ATOM     34  C   UNL     1      -1.821   1.523   0.000  0.00  0.00    +0.058 A 
ATOM     35 CL   UNL     1      -2.646   1.523   0.000  0.00  0.00    -0.082 Cl
ATOM     36  C   UNL     1      -1.409   2.237   0.000  0.00  0.00    +0.013 A 
ATOM     37  C   UNL     1      -0.584   2.237   0.000  0.00  0.00    +0.016 A 
ENDBRANCH  28  31
ENDBRANCH  19  20
TORSDOF 4
