REMARK  Name = 
REMARK  6 active torsions:
REMARK  status: ('A' for Active; 'I' for Inactive)
REMARK    1  A    between atoms: C_2  and  C_4
REMARK    2  A    between atoms: N_8  and  C_9
REMARK    3  A    between atoms: C_13  and  O_17
REMARK    4  A    between atoms: O_17  and  C_18
REMARK    5  A    between atoms: N_20  and  C_21
REMARK    6  A    between atoms: C_23  and  C_27
REMARK                            x       y       z     vdW  Elec       q    Type
REMARK                         _______ _______ _______ _____ _____    ______ ____
ROOT
ATOM      9  C   UNL     1       1.270  -0.922   0.000  0.00  0.00    +0.167 C 
ATOM     10  C   UNL     1       0.785  -0.255   0.000  0.00  0.00    +0.169 C 
ATOM     11  O   UNL     1       1.270   0.412   0.000  0.00  0.00    -0.348 OA
ATOM     12  C   UNL     1       2.054   0.158   0.000  0.00  0.00    +0.187 C 
ATOM     13  C   UNL     1       2.839   0.412   0.000  0.00  0.00    +0.229 C 
ATOM     14  C   UNL     1       3.324  -0.255   0.000  0.00  0.00    +0.188 C 
ATOM     15  O   UNL     1       2.839  -0.922   0.000  0.00  0.00    -0.348 OA
ATOM     16  C   UNL     1       2.054  -0.667   0.000  0.00  0.00    +0.171 C 
ENDROOT
BRANCH   9   8
ATOM      4  C   UNL     1       1.500  -2.374   0.000  0.00  0.00    +0.161 A 
ATOM      5  N   UNL     1       1.015  -3.042   0.000  0.00  0.00    -0.113 NA
ATOM      6  N   UNL     1       0.230  -2.787   0.000  0.00  0.00    -0.023 NA
ATOM      7  N   UNL     1       0.230  -1.962   0.000  0.00  0.00    -0.043 NA
ATOM      8  N   UNL     1       1.015  -1.707   0.000  0.00  0.00    -0.214 N 
BRANCH   4   2
ATOM      1  C   UNL     1       2.737  -3.089   0.000  0.00  0.00    +0.008 C 
ATOM      2  C   UNL     1       2.325  -2.374   0.000  0.00  0.00    +0.060 C 
ATOM      3  C   UNL     1       2.737  -1.660   0.000  0.00  0.00    +0.008 C 
ENDBRANCH   4   2
ENDBRANCH   9   8
BRANCH  13  17
ATOM     17  O   UNL     1       3.094   1.197   0.000  0.00  0.00    -0.432 OA
BRANCH  17  18
ATOM     18  C   UNL     1       3.901   1.369   0.000  0.00  0.00    +0.425 C 
ATOM     19  O   UNL     1       4.453   0.756   0.000  0.00  0.00    -0.224 OA
ATOM     20  N   UNL     1       4.156   2.153   0.000  0.00  0.00    -0.142 NA
BRANCH  20  21
ATOM     21  C   UNL     1       4.963   2.325   0.000  0.00  0.00    +0.077 A 
ATOM     22  C   UNL     1       5.218   3.109   0.000  0.00  0.00    +0.027 A 
ATOM     23  C   UNL     1       6.024   3.281   0.000  0.00  0.00    +0.070 A 
ATOM     24  C   UNL     1       6.577   2.668   0.000  0.00  0.00    +0.010 A 
ATOM     25  C   UNL     1       6.322   1.883   0.000  0.00  0.00    +0.002 A 
ATOM     26  C   UNL     1       5.515   1.712   0.000  0.00  0.00    +0.017 A 
BRANCH  23  27
ATOM     27  C   UNL     1       6.279   4.066   0.000  0.00  0.00    +0.100 C 
ATOM     28  N   UNL     1       6.534   4.850   0.000  0.00  0.00    -0.191 NA
ENDBRANCH  23  27
ENDBRANCH  20  21
ENDBRANCH  17  18
ENDBRANCH  13  17
TORSDOF 6
