REMARK  Name = 
REMARK  9 active torsions:
REMARK  status: ('A' for Active; 'I' for Inactive)
REMARK    1  A    between atoms: O_2  and  C_3
REMARK    2  A    between atoms: C_6  and  C_7
REMARK    3  A    between atoms: C_7  and  C_8
REMARK    4  A    between atoms: C_13  and  C_14
REMARK    5  A    between atoms: C_14  and  C_15
REMARK    6  A    between atoms: C_18  and  C_19
REMARK    7  A    between atoms: C_19  and  C_20
REMARK    8  A    between atoms: C_20  and  N_21
REMARK    9  A    between atoms: C_25  and  C_26
REMARK                            x       y       z     vdW  Elec       q    Type
REMARK                         _______ _______ _______ _____ _____    ______ ____
ROOT
ATOM      8  C   UNL     1       1.322   7.240   0.000  0.00  0.00    +0.230 C 
ATOM      9  O   UNL     1       0.608   6.828   0.000  0.00  0.00    -0.275 OA
ATOM     10  N   UNL     1       2.037   6.828   0.000  0.00  0.00    -0.279 N 
ATOM     11  C   UNL     1       2.751   7.240   0.000  0.00  0.00    +0.093 C 
ATOM     12  C   UNL     1       3.466   6.828   0.000  0.00  0.00    +0.022 C 
ATOM     13  C   UNL     1       3.466   6.003   0.000  0.00  0.00    +0.015 C 
ATOM     18  C   UNL     1       2.751   5.590   0.000  0.00  0.00    +0.022 C 
ATOM     29  C   UNL     1       2.037   6.003   0.000  0.00  0.00    +0.093 C 
ENDROOT
BRANCH   8   7
ATOM      7  C   UNL     1       1.322   8.065   0.000  0.00  0.00    +0.112 C 
BRANCH   7   6
ATOM      3  C   UNL     1      -0.821   9.303   0.000  0.00  0.00    +0.139 A 
ATOM      4  C   UNL     1      -0.107   9.715   0.000  0.00  0.00    +0.037 A 
ATOM      5  C   UNL     1       0.608   9.303   0.000  0.00  0.00    -0.001 A 
ATOM      6  C   UNL     1       0.608   8.478   0.000  0.00  0.00    -0.013 A 
ATOM     30  C   UNL     1      -0.107   8.065   0.000  0.00  0.00    -0.001 A 
ATOM     31  C   UNL     1      -0.821   8.478   0.000  0.00  0.00    +0.037 A 
BRANCH   3   2
ATOM      1  C   UNL     1      -2.250   9.303   0.000  0.00  0.00    +0.252 C 
ATOM      2  O   UNL     1      -1.536   9.715   0.000  0.00  0.00    -0.471 OA
ENDBRANCH   3   2
ENDBRANCH   7   6
ENDBRANCH   8   7
BRANCH  13  14
ATOM     14  C   UNL     1       4.180   5.590   0.000  0.00  0.00    +0.114 C 
BRANCH  14  15
ATOM     15  C   UNL     1       4.895   6.003   0.000  0.00  0.00    +0.365 C 
ATOM     16  O   UNL     1       4.895   6.828   0.000  0.00  0.00    -0.246 OA
ATOM     17  O   UNL     1       5.609   5.590   0.000  0.00  0.00    -0.246 OA
ENDBRANCH  14  15
ENDBRANCH  13  14
BRANCH  18  19
ATOM     19  C   UNL     1       2.751   4.765   0.000  0.00  0.00    +0.019 C 
BRANCH  19  20
ATOM     20  C   UNL     1       3.466   4.353   0.000  0.00  0.00    +0.073 C 
BRANCH  20  21
ATOM     21  N   UNL     1       3.466   3.528   0.000  0.00  0.00    -0.266 NA
ATOM     22  C   UNL     1       2.798   3.043   0.000  0.00  0.00    +0.073 C 
ATOM     23  C   UNL     1       3.053   2.258   0.000  0.00  0.00    +0.019 C 
ATOM     24  C   UNL     1       3.878   2.258   0.000  0.00  0.00    +0.027 C 
ATOM     25  C   UNL     1       4.133   3.043   0.000  0.00  0.00    +0.138 C 
BRANCH  25  26
ATOM     26  C   UNL     1       4.918   3.298   0.000  0.00  0.00    +0.275 C 
ATOM     27  N   UNL     1       5.531   2.746   0.000  0.00  0.00    -0.087 NA
ATOM     28  O   UNL     1       5.089   4.105   0.000  0.00  0.00    -0.270 OA
ENDBRANCH  25  26
ENDBRANCH  20  21
ENDBRANCH  19  20
ENDBRANCH  18  19
TORSDOF 9
