REMARK  Name = 
REMARK  9 active torsions:
REMARK  status: ('A' for Active; 'I' for Inactive)
REMARK    1  A    between atoms: O_2  and  C_3
REMARK    2  A    between atoms: C_6  and  N_7
REMARK    3  A    between atoms: N_10  and  C_11
REMARK    4  A    between atoms: C_11  and  C_12
REMARK    5  A    between atoms: C_14  and  C_15
REMARK    6  A    between atoms: C_15  and  C_16
REMARK    7  A    between atoms: C_19  and  C_20
REMARK    8  A    between atoms: C_20  and  O_21
REMARK    9  A    between atoms: O_21  and  C_22
REMARK                            x       y       z     vdW  Elec       q    Type
REMARK                         _______ _______ _______ _____ _____    ______ ____
ROOT
ATOM     12  C   UNL     1       0.000   0.000   0.000  0.00  0.00    +0.167 C 
ATOM     13  O   UNL     1       0.715  -0.412   0.000  0.00  0.00    -0.354 OA
ATOM     14  C   UNL     1       0.715  -1.238   0.000  0.00  0.00    +0.121 C 
ATOM     29  C   UNL     1       0.000  -1.650   0.000  0.00  0.00    +0.033 C 
ATOM     30  C   UNL     1      -0.715  -1.238   0.000  0.00  0.00    +0.038 C 
ATOM     31  C   UNL     1      -0.715  -0.412   0.000  0.00  0.00    +0.181 C 
ATOM     32  O   UNL     1      -1.429   0.000   0.000  0.00  0.00    -0.220 OA
ENDROOT
BRANCH  12  11
ATOM     11  C   UNL     1       0.000   0.825   0.000  0.00  0.00    +0.149 C 
BRANCH  11  10
ATOM      7  N   UNL     1      -1.429   2.475   0.000  0.00  0.00    -0.161 NA
ATOM      8  C   UNL     1      -0.715   2.062   0.000  0.00  0.00    +0.344 C 
ATOM      9  O   UNL     1       0.000   2.475   0.000  0.00  0.00    -0.249 OA
ATOM     10  N   UNL     1      -0.715   1.238   0.000  0.00  0.00    -0.184 NA
BRANCH   7   6
ATOM      3  C   UNL     1      -1.429   4.950   0.000  0.00  0.00    +0.139 A 
ATOM      4  C   UNL     1      -0.715   4.537   0.000  0.00  0.00    +0.038 A 
ATOM      5  C   UNL     1      -0.715   3.712   0.000  0.00  0.00    +0.020 A 
ATOM      6  C   UNL     1      -1.429   3.300   0.000  0.00  0.00    +0.075 A 
ATOM     33  C   UNL     1      -2.143   3.712   0.000  0.00  0.00    +0.020 A 
ATOM     34  C   UNL     1      -2.143   4.537   0.000  0.00  0.00    +0.038 A 
BRANCH   3   2
ATOM      1  C   UNL     1      -2.143   6.188   0.000  0.00  0.00    +0.252 C 
ATOM      2  O   UNL     1      -1.429   5.775   0.000  0.00  0.00    -0.471 OA
ENDBRANCH   3   2
ENDBRANCH   7   6
ENDBRANCH  11  10
ENDBRANCH  12  11
BRANCH  14  15
ATOM     15  C   UNL     1       1.429  -1.650   0.000  0.00  0.00    +0.079 C 
BRANCH  15  16
ATOM     16  C   UNL     1       1.429  -2.475   0.000  0.00  0.00    +0.103 A 
ATOM     17  N   UNL     1       2.096  -2.960   0.000  0.00  0.00    -0.082 NA
ATOM     18  O   UNL     1       1.841  -3.744   0.000  0.00  0.00    -0.354 OA
ATOM     19  C   UNL     1       1.016  -3.744   0.000  0.00  0.00    +0.198 A 
ATOM     28  C   UNL     1       0.761  -2.960   0.000  0.00  0.00    +0.057 A 
BRANCH  19  20
ATOM     20  C   UNL     1       0.531  -4.412   0.000  0.00  0.00    +0.272 C 
BRANCH  20  21
ATOM     21  O   UNL     1       0.867  -5.166   0.000  0.00  0.00    -0.467 OA
BRANCH  21  22
ATOM     22  C   UNL     1       0.382  -5.833   0.000  0.00  0.00    +0.139 A 
ATOM     23  C   UNL     1       0.718  -6.587   0.000  0.00  0.00    +0.037 A 
ATOM     24  C   UNL     1       0.233  -7.254   0.000  0.00  0.00    +0.003 A 
ATOM     25  C   UNL     1      -0.588  -7.168   0.000  0.00  0.00    +0.000 A 
ATOM     26  C   UNL     1      -0.923  -6.414   0.000  0.00  0.00    +0.003 A 
ATOM     27  C   UNL     1      -0.438  -5.747   0.000  0.00  0.00    +0.037 A 
ENDBRANCH  21  22
ENDBRANCH  20  21
ENDBRANCH  19  20
ENDBRANCH  15  16
ENDBRANCH  14  15
TORSDOF 9
