REMARK  Name = 
REMARK  4 active torsions:
REMARK  status: ('A' for Active; 'I' for Inactive)
REMARK    1  A    between atoms: N_2  and  C_4
REMARK    2  A    between atoms: C_7  and  C_8
REMARK    3  A    between atoms: C_8  and  N_9
REMARK    4  A    between atoms: N_9  and  S_10
REMARK                            x       y       z     vdW  Elec       q    Type
REMARK                         _______ _______ _______ _____ _____    ______ ____
ROOT
ATOM      4  C   UNL     1       0.568   1.114   0.000  0.00  0.00    +0.121 C 
ATOM      5  C   UNL     1       1.235   0.629   0.000  0.00  0.00    +0.161 C 
ATOM      6  O   UNL     1       0.980  -0.155   0.000  0.00  0.00    -0.351 OA
ATOM      7  C   UNL     1       0.155  -0.155   0.000  0.00  0.00    +0.166 C 
ATOM     14  C   UNL     1      -0.100   0.629   0.000  0.00  0.00    +0.197 C 
ATOM     15  O   UNL     1      -0.884   0.884   0.000  0.00  0.00    -0.219 OA
ENDROOT
BRANCH   4   2
ATOM      1  C   UNL     1       1.282   2.352   0.000  0.00  0.00    +0.090 C 
ATOM      2  N   UNL     1       0.568   1.939   0.000  0.00  0.00    -0.267 NA
ATOM      3  C   UNL     1      -0.147   2.352   0.000  0.00  0.00    +0.090 C 
ENDBRANCH   4   2
BRANCH   7   8
ATOM      8  C   UNL     1      -0.330  -0.823   0.000  0.00  0.00    +0.147 C 
BRANCH   8   9
ATOM      9  N   UNL     1      -1.150  -0.737   0.000  0.00  0.00    -0.079 NA
BRANCH   9  10
ATOM     10  S   UNL     1      -1.635  -1.404   0.000  0.00  0.00    +0.059 S 
ATOM     11  C   UNL     1      -2.120  -2.071   0.000  0.00  0.00    +0.197 C 
ATOM     12  O   UNL     1      -2.303  -0.919   0.000  0.00  0.00    -0.156 OA
ATOM     13  O   UNL     1      -0.968  -1.889   0.000  0.00  0.00    -0.156 OA
ENDBRANCH   9  10
ENDBRANCH   8   9
ENDBRANCH   7   8
TORSDOF 4
