REMARK  Name = 
REMARK  8 active torsions:
REMARK  status: ('A' for Active; 'I' for Inactive)
REMARK    1  A    between atoms: C_3  and  C_4
REMARK    2  A    between atoms: C_4  and  N_5
REMARK    3  A    between atoms: C_6  and  C_8
REMARK    4  A    between atoms: C_13  and  N_14
REMARK    5  A    between atoms: N_14  and  C_15
REMARK    6  A    between atoms: N_14  and  C_21
REMARK    7  A    between atoms: C_15  and  C_16
REMARK    8  A    between atoms: C_21  and  C_22
REMARK                            x       y       z     vdW  Elec       q    Type
REMARK                         _______ _______ _______ _____ _____    ______ ____
ROOT
ATOM      1  O   UNL     1       1.738  -2.278   0.000  0.00  0.00    -0.219 OA
ATOM      2  C   UNL     1       1.125  -2.830   0.000  0.00  0.00    +0.198 C 
ATOM      3  C   UNL     1       1.211  -3.650   0.000  0.00  0.00    +0.168 C 
ATOM     11  O   UNL     1       0.457  -3.986   0.000  0.00  0.00    -0.350 OA
ATOM     12  C   UNL     1      -0.095  -3.373   0.000  0.00  0.00    +0.161 C 
ATOM     13  C   UNL     1       0.318  -2.658   0.000  0.00  0.00    +0.121 C 
ENDROOT
BRANCH   3   4
ATOM      4  C   UNL     1       1.925  -4.063   0.000  0.00  0.00    +0.147 C 
BRANCH   4   5
ATOM      5  N   UNL     1       1.925  -4.888   0.000  0.00  0.00    -0.203 NA
ATOM      6  C   UNL     1       2.640  -5.300   0.000  0.00  0.00    +0.241 C 
ATOM      7  O   UNL     1       3.354  -4.888   0.000  0.00  0.00    -0.273 OA
BRANCH   6   8
ATOM      8  C   UNL     1       2.640  -6.125   0.000  0.00  0.00    +0.078 C 
ATOM      9  C   UNL     1       3.052  -6.840   0.000  0.00  0.00    +0.010 C 
ATOM     10  C   UNL     1       2.227  -6.840   0.000  0.00  0.00    +0.010 C 
ENDBRANCH   6   8
ENDBRANCH   4   5
ENDBRANCH   3   4
BRANCH  13  14
ATOM     14  N   UNL     1      -0.018  -1.905   0.000  0.00  0.00    -0.257 NA
BRANCH  14  15
ATOM     15  C   UNL     1      -0.839  -1.819   0.000  0.00  0.00    +0.139 C 
BRANCH  15  16
ATOM     16  C   UNL     1      -1.323  -2.486   0.000  0.00  0.00    +0.155 A 
ATOM     17  N   UNL     1      -2.148  -2.486   0.000  0.00  0.00    -0.226 NA
ATOM     18  C   UNL     1      -2.403  -3.271   0.000  0.00  0.00    +0.121 A 
ATOM     19  C   UNL     1      -1.736  -3.756   0.000  0.00  0.00    +0.121 A 
ATOM     20  N   UNL     1      -1.069  -3.271   0.000  0.00  0.00    -0.226 NA
ENDBRANCH  15  16
ENDBRANCH  14  15
BRANCH  14  21
ATOM     21  C   UNL     1       0.467  -1.237   0.000  0.00  0.00    +0.139 C 
BRANCH  21  22
ATOM     22  C   UNL     1       0.131  -0.484   0.000  0.00  0.00    +0.155 A 
ATOM     23  N   UNL     1      -0.676  -0.312   0.000  0.00  0.00    -0.226 NA
ATOM     24  C   UNL     1      -0.762   0.508   0.000  0.00  0.00    +0.121 A 
ATOM     25  C   UNL     1      -0.008   0.844   0.000  0.00  0.00    +0.121 A 
ATOM     26  N   UNL     1       0.544   0.231   0.000  0.00  0.00    -0.226 NA
ENDBRANCH  21  22
ENDBRANCH  14  21
ENDBRANCH  13  14
TORSDOF 8
