REMARK  Name = 
REMARK  5 active torsions:
REMARK  status: ('A' for Active; 'I' for Inactive)
REMARK    1  A    between atoms: C_2  and  C_26
REMARK    2  A    between atoms: C_12  and  N_13
REMARK    3  A    between atoms: N_13  and  S_14
REMARK    4  A    between atoms: S_14  and  C_17
REMARK    5  A    between atoms: C_29  and  C_32
REMARK                            x       y       z     vdW  Elec       q    Type
REMARK                         _______ _______ _______ _____ _____    ______ ____
ROOT
ATOM      1  O   UNL     1       0.616  -3.433   0.000  0.00  0.00    -0.270 OA
ATOM      2  C   UNL     1       0.200  -2.661   0.000  0.00  0.00    +0.249 C 
ATOM      3  N   UNL     1       0.813  -2.091   0.000  0.00  0.00    -0.276 N 
ATOM      4  C   UNL     1       1.629  -1.912   0.000  0.00  0.00    +0.096 C 
ATOM      5  C   UNL     1       1.582  -0.925   0.000  0.00  0.00    +0.043 C 
ATOM      6  C   UNL     1       1.713  -0.121   0.000  0.00  0.00    +0.011 C 
ATOM      7  C   UNL     1       1.163  -0.557   0.000  0.00  0.00    +0.058 C 
ATOM      8  C   UNL     1       1.225  -1.510   0.000  0.00  0.00    +0.099 C 
ATOM      9  C   UNL     1       0.244  -0.558   0.000  0.00  0.00    +0.041 A 
ATOM     10  C   UNL     1      -0.397  -0.039   0.000  0.00  0.00    +0.014 A 
ATOM     11  C   UNL     1      -1.167  -0.335   0.000  0.00  0.00    +0.024 A 
ATOM     12  C   UNL     1      -1.213  -1.232   0.000  0.00  0.00    +0.147 A 
ATOM     22  C   UNL     1      -0.655  -1.669   0.000  0.00  0.00    +0.277 A 
ATOM     23  O   UNL     1      -0.533  -2.699   0.000  0.00  0.00    -0.266 OA
ATOM     24  N   UNL     1       0.115  -1.373   0.000  0.00  0.00    -0.298 N 
ATOM     25  C   UNL     1       0.622  -0.936   0.000  0.00  0.00    +0.110 C 
ENDROOT
BRANCH   2  26
ATOM     26  C   UNL     1      -0.614  -2.179   0.000  0.00  0.00    +0.054 A 
ATOM     27  C   UNL     1      -1.301  -2.635   0.000  0.00  0.00    +0.005 A 
ATOM     28  C   UNL     1      -2.040  -2.267   0.000  0.00  0.00    +0.000 A 
ATOM     29  C   UNL     1      -2.091  -1.444   0.000  0.00  0.00    +0.000 A 
ATOM     30  C   UNL     1      -1.403  -0.988   0.000  0.00  0.00    +0.000 A 
ATOM     31  C   UNL     1      -0.664  -1.356   0.000  0.00  0.00    +0.005 A 
BRANCH  29  32
ATOM     32  C   UNL     1      -2.829  -1.076   0.000  0.00  0.00    +0.000 A 
ATOM     33  C   UNL     1      -3.517  -1.532   0.000  0.00  0.00    +0.000 A 
ATOM     34  C   UNL     1      -4.255  -1.164   0.000  0.00  0.00    +0.000 A 
ATOM     35  C   UNL     1      -4.306  -0.340   0.000  0.00  0.00    +0.000 A 
ATOM     36  C   UNL     1      -3.618   0.115   0.000  0.00  0.00    +0.000 A 
ATOM     37  C   UNL     1      -2.880  -0.252   0.000  0.00  0.00    +0.000 A 
ENDBRANCH  29  32
ENDBRANCH   2  26
BRANCH  12  13
ATOM     13  N   UNL     1      -1.770  -1.866   0.000  0.00  0.00    -0.091 NA
BRANCH  13  14
ATOM     14  S   UNL     1      -2.675  -1.435   0.000  0.00  0.00    +0.099 S 
ATOM     15  O   UNL     1      -3.220  -2.095   0.000  0.00  0.00    -0.148 OA
ATOM     16  O   UNL     1      -2.353  -0.564   0.000  0.00  0.00    -0.148 OA
BRANCH  14  17
ATOM     17  C   UNL     1      -3.349  -0.407   0.000  0.00  0.00    +0.156 A 
ATOM     18  C   UNL     1      -3.305   0.417   0.000  0.00  0.00    +0.027 A 
ATOM     19  C   UNL     1      -4.076   0.712   0.000  0.00  0.00    +0.009 A 
ATOM     20  C   UNL     1      -4.595   0.071   0.000  0.00  0.00    +0.037 A 
ATOM     21  S   UNL     1      -4.145  -0.621   0.000  0.00  0.00    -0.066 S 
ENDBRANCH  14  17
ENDBRANCH  13  14
ENDBRANCH  12  13
TORSDOF 5
