REMARK  Name = 
REMARK  4 active torsions:
REMARK  status: ('A' for Active; 'I' for Inactive)
REMARK    1  A    between atoms: C_2  and  C_3
REMARK    2  A    between atoms: N_5  and  C_6
REMARK    3  A    between atoms: C_6  and  C_7
REMARK    4  A    between atoms: C_14  and  C_15
REMARK                            x       y       z     vdW  Elec       q    Type
REMARK                         _______ _______ _______ _____ _____    ______ ____
ROOT
ATOM      7  C   UNL     1       1.814  -2.106   0.000  0.00  0.00    +0.082 C 
ATOM      8  C   UNL     1       1.661  -1.343   0.000  0.00  0.00    +0.019 C 
ATOM      9  C   UNL     1       0.923  -1.010   0.000  0.00  0.00    +0.013 C 
ATOM     10  C   UNL     1       0.961  -0.114   0.000  0.00  0.00    +0.018 C 
ATOM     11  C   UNL     1       1.205  -0.720   0.000  0.00  0.00    +0.072 C 
ATOM     12  N   UNL     1       1.065  -1.759   0.000  0.00  0.00    -0.272 NA
ATOM     13  C   UNL     1       0.226  -2.118   0.000  0.00  0.00    +0.081 C 
ATOM     14  C   UNL     1       0.119  -1.362   0.000  0.00  0.00    +0.093 C 
ENDROOT
BRANCH  14  15
ATOM     15  C   UNL     1      -0.602  -0.960   0.000  0.00  0.00    +0.227 C 
ATOM     16  O   UNL     1      -1.310  -1.384   0.000  0.00  0.00    -0.275 OA
ATOM     17  N   UNL     1      -0.614  -0.136   0.000  0.00  0.00    -0.274 N 
ATOM     18  C   UNL     1      -1.335   0.266   0.000  0.00  0.00    +0.125 C 
ATOM     19  C   UNL     1      -1.347   1.091   0.000  0.00  0.00    +0.164 C 
ATOM     20  O   UNL     1      -0.639   1.514   0.000  0.00  0.00    -0.350 OA
ATOM     21  C   UNL     1       0.082   1.113   0.000  0.00  0.00    +0.164 C 
ATOM     22  C   UNL     1       0.094   0.288   0.000  0.00  0.00    +0.125 C 
ENDBRANCH  14  15
BRANCH   7   6
ATOM      6  C   UNL     1       2.324  -2.754   0.000  0.00  0.00    +0.145 C 
BRANCH   6   5
ATOM      3  C   UNL     1       1.164  -4.546   0.000  0.00  0.00    +0.134 A 
ATOM      4  C   UNL     1       1.219  -3.722   0.000  0.00  0.00    +0.116 A 
ATOM      5  N   UNL     1       2.018  -3.520   0.000  0.00  0.00    -0.229 N 
ATOM     23  N   UNL     1       2.458  -4.218   0.000  0.00  0.00    -0.064 NA
ATOM     24  N   UNL     1       1.930  -4.852   0.000  0.00  0.00    -0.130 NA
BRANCH   3   2
ATOM      1  O   UNL     1       0.498  -5.810   0.000  0.00  0.00    -0.213 OA
ATOM      2  C   UNL     1       0.466  -4.986   0.000  0.00  0.00    +0.231 C 
ENDBRANCH   3   2
ENDBRANCH   6   5
ENDBRANCH   7   6
TORSDOF 4
