REMARK  Name = 
REMARK  7 active torsions:
REMARK  status: ('A' for Active; 'I' for Inactive)
REMARK    1  A    between atoms: C_4  and  C_27
REMARK    2  A    between atoms: C_6  and  C_7
REMARK    3  A    between atoms: C_14  and  C_15
REMARK    4  A    between atoms: C_15  and  N_16
REMARK    5  A    between atoms: C_17  and  C_19
REMARK    6  A    between atoms: C_19  and  O_20
REMARK    7  A    between atoms: O_20  and  C_21
REMARK                            x       y       z     vdW  Elec       q    Type
REMARK                         _______ _______ _______ _____ _____    ______ ____
ROOT
ATOM      7  C   UNL     1       0.897  -4.412   0.000  0.00  0.00    +0.056 C 
ATOM      8  C   UNL     1       1.666  -4.293   0.000  0.00  0.00    +0.078 C 
ATOM      9  N   UNL     1       1.287  -5.026   0.000  0.00  0.00    -0.272 NA
ATOM     10  C   UNL     1       0.255  -4.840   0.000  0.00  0.00    +0.072 C 
ATOM     11  C   UNL     1      -0.361  -5.058   0.000  0.00  0.00    +0.018 C 
ATOM     12  C   UNL     1       0.533  -5.135   0.000  0.00  0.00    +0.010 C 
ATOM     13  C   UNL     1       0.849  -5.954   0.000  0.00  0.00    +0.018 C 
ATOM     14  C   UNL     1       1.608  -5.880   0.000  0.00  0.00    +0.079 C 
ENDROOT
BRANCH   7   6
ATOM      1  C   UNL     1      -0.897  -4.412   0.000  0.00  0.00    +0.153 C 
ATOM      2  N   UNL     1      -0.412  -3.744   0.000  0.00  0.00    -0.253 N 
ATOM      3  N   UNL     1      -0.667  -2.960   0.000  0.00  0.00    -0.170 NA
ATOM      4  C   UNL     1       0.000  -2.475   0.000  0.00  0.00    +0.102 A 
ATOM      5  C   UNL     1       0.667  -2.960   0.000  0.00  0.00    +0.035 A 
ATOM      6  C   UNL     1       0.412  -3.744   0.000  0.00  0.00    +0.058 A 
BRANCH   4  27
ATOM     27  C   UNL     1       0.000  -1.650   0.000  0.00  0.00    +0.019 A 
ATOM     28  C   UNL     1       0.715  -1.238   0.000  0.00  0.00    +0.002 A 
ATOM     29  C   UNL     1       0.715  -0.412   0.000  0.00  0.00    +0.000 A 
ATOM     30  C   UNL     1       0.000   0.000   0.000  0.00  0.00    +0.000 A 
ATOM     31  C   UNL     1       0.000   0.825   0.000  0.00  0.00    +0.000 A 
ATOM     32  C   UNL     1       0.715   1.238   0.000  0.00  0.00    +0.000 A 
ATOM     33  C   UNL     1       1.429   0.825   0.000  0.00  0.00    +0.000 A 
ATOM     34  C   UNL     1       1.429   0.000   0.000  0.00  0.00    +0.000 A 
ATOM     35  C   UNL     1      -0.715  -0.412   0.000  0.00  0.00    +0.000 A 
ATOM     36  C   UNL     1      -0.715  -1.238   0.000  0.00  0.00    +0.002 A 
ENDBRANCH   4  27
ENDBRANCH   7   6
BRANCH  14  15
ATOM     15  C   UNL     1       2.308  -6.316   0.000  0.00  0.00    +0.131 C 
BRANCH  15  16
ATOM     16  N   UNL     1       2.280  -7.141   0.000  0.00  0.00    -0.201 NA
ATOM     17  C   UNL     1       2.981  -7.577   0.000  0.00  0.00    +0.286 C 
ATOM     18  O   UNL     1       3.708  -7.189   0.000  0.00  0.00    -0.269 OA
BRANCH  17  19
ATOM     19  C   UNL     1       2.953  -8.402   0.000  0.00  0.00    +0.291 C 
BRANCH  19  20
ATOM     20  O   UNL     1       3.653  -8.838   0.000  0.00  0.00    -0.466 OA
BRANCH  20  21
ATOM     21  C   UNL     1       3.625  -9.663   0.000  0.00  0.00    +0.139 A 
ATOM     22  C   UNL     1       4.325 -10.099   0.000  0.00  0.00    +0.037 A 
ATOM     23  C   UNL     1       4.298 -10.924   0.000  0.00  0.00    +0.003 A 
ATOM     24  C   UNL     1       3.570 -11.312   0.000  0.00  0.00    +0.000 A 
ATOM     25  C   UNL     1       2.869 -10.875   0.000  0.00  0.00    +0.003 A 
ATOM     26  C   UNL     1       2.897 -10.051   0.000  0.00  0.00    +0.037 A 
ENDBRANCH  20  21
ENDBRANCH  19  20
ENDBRANCH  17  19
ENDBRANCH  15  16
ENDBRANCH  14  15
TORSDOF 7
