REMARK  Name = 
REMARK  6 active torsions:
REMARK  status: ('A' for Active; 'I' for Inactive)
REMARK    1  A    between atoms: C_2  and  C_5
REMARK    2  A    between atoms: C_8  and  C_11
REMARK    3  A    between atoms: C_13  and  C_14
REMARK    4  A    between atoms: C_14  and  C_15
REMARK    5  A    between atoms: C_20  and  C_21
REMARK    6  A    between atoms: C_21  and  C_22
REMARK                            x       y       z     vdW  Elec       q    Type
REMARK                         _______ _______ _______ _____ _____    ______ ____
ROOT
ATOM     14  C   UNL     1       0.290  -3.236   0.000  0.00  0.00    +0.051 C 
ENDROOT
BRANCH  14  15
ATOM     15  C   UNL     1       1.110  -3.150   0.000  0.00  0.00    +0.024 C 
ATOM     16  C   UNL     1       1.446  -2.396   0.000  0.00  0.00    +0.089 C 
ATOM     17  N   UNL     1       2.266  -2.310   0.000  0.00  0.00    -0.218 NA
ATOM     18  C   UNL     1       2.751  -2.977   0.000  0.00  0.00    +0.089 C 
ATOM     19  C   UNL     1       2.416  -3.731   0.000  0.00  0.00    +0.019 C 
ATOM     20  C   UNL     1       1.595  -3.817   0.000  0.00  0.00    +0.012 C 
BRANCH  20  21
ATOM     21  C   UNL     1       1.260  -4.571   0.000  0.00  0.00    +0.087 C 
BRANCH  21  22
ATOM     22  C   UNL     1       0.439  -4.657   0.000  0.00  0.00    +0.247 C 
ATOM     23  O   UNL     1      -0.046  -3.990   0.000  0.00  0.00    -0.273 OA
ATOM     24  N   UNL     1       0.103  -5.411   0.000  0.00  0.00    -0.154 NA
ATOM     25  C   UNL     1      -0.717  -5.497   0.000  0.00  0.00    +0.186 A 
ATOM     26  N   UNL     1      -1.129  -6.212   0.000  0.00  0.00    -0.221 NA
ATOM     27  C   UNL     1      -1.937  -6.040   0.000  0.00  0.00    +0.108 A 
ATOM     28  C   UNL     1      -2.023  -5.220   0.000  0.00  0.00    +0.059 A 
ATOM     29  S   UNL     1      -1.269  -4.884   0.000  0.00  0.00    -0.049 S 
ENDBRANCH  21  22
ENDBRANCH  20  21
ENDBRANCH  14  15
BRANCH  14  13
ATOM     11  C   UNL     1      -0.608  -1.299   0.000  0.00  0.00    +0.177 A 
ATOM     12  C   UNL     1       0.060  -1.784   0.000  0.00  0.00    +0.058 A 
ATOM     13  C   UNL     1      -0.195  -2.569   0.000  0.00  0.00    +0.101 A 
ATOM     30  N   UNL     1      -1.020  -2.569   0.000  0.00  0.00    -0.081 NA
ATOM     31  O   UNL     1      -1.275  -1.784   0.000  0.00  0.00    -0.354 OA
BRANCH  11   8
ATOM      5  C   UNL     1      -0.608   1.176   0.000  0.00  0.00    -0.023 A 
ATOM      6  C   UNL     1       0.107   0.763   0.000  0.00  0.00    -0.004 A 
ATOM      7  C   UNL     1       0.107  -0.062   0.000  0.00  0.00    +0.003 A 
ATOM      8  C   UNL     1      -0.608  -0.474   0.000  0.00  0.00    +0.037 A 
ATOM      9  C   UNL     1      -1.322  -0.062   0.000  0.00  0.00    +0.003 A 
ATOM     10  C   UNL     1      -1.322   0.763   0.000  0.00  0.00    -0.004 A 
BRANCH   5   2
ATOM      1  C   UNL     1      -0.608   2.826   0.000  0.00  0.00    +0.004 C 
ATOM      2  C   UNL     1      -0.608   2.001   0.000  0.00  0.00    +0.019 C 
ATOM      3  C   UNL     1      -1.433   2.001   0.000  0.00  0.00    +0.004 C 
ATOM      4  C   UNL     1       0.217   2.001   0.000  0.00  0.00    +0.004 C 
ENDBRANCH   5   2
ENDBRANCH  11   8
ENDBRANCH  14  13
TORSDOF 6
