REMARK  Name = 
REMARK  3 active torsions:
REMARK  status: ('A' for Active; 'I' for Inactive)
REMARK    1  A    between atoms: C_9  and  N_10
REMARK    2  A    between atoms: C_14  and  C_15
REMARK    3  A    between atoms: C_18  and  C_21
REMARK                            x       y       z     vdW  Elec       q    Type
REMARK                         _______ _______ _______ _____ _____    ______ ____
ROOT
ATOM     10  N   UNL     1       1.824  -2.119   0.000  0.00  0.00    -0.210 N 
ATOM     11  N   UNL     1       2.609  -2.374   0.000  0.00  0.00    -0.043 NA
ATOM     12  N   UNL     1       2.609  -3.199   0.000  0.00  0.00    -0.023 NA
ATOM     13  N   UNL     1       1.824  -3.454   0.000  0.00  0.00    -0.108 NA
ATOM     14  C   UNL     1       1.339  -2.787   0.000  0.00  0.00    +0.184 A 
ENDROOT
BRANCH  10   9
ATOM      1  O   UNL     1      -0.255   0.785   0.000  0.00  0.00    -0.218 OA
ATOM      2  C   UNL     1       0.000   0.000   0.000  0.00  0.00    +0.211 C 
ATOM      3  C   UNL     1      -0.485  -0.667   0.000  0.00  0.00    +0.178 C 
ATOM      4  O   UNL     1       0.000  -1.335   0.000  0.00  0.00    -0.349 OA
ATOM      5  C   UNL     1       0.785  -1.080   0.000  0.00  0.00    +0.170 C 
ATOM      6  C   UNL     1       0.785  -0.255   0.000  0.00  0.00    +0.177 C 
ATOM      7  O   UNL     1       1.569   0.000   0.000  0.00  0.00    -0.349 OA
ATOM      8  C   UNL     1       2.054  -0.667   0.000  0.00  0.00    +0.169 C 
ATOM      9  C   UNL     1       1.569  -1.335   0.000  0.00  0.00    +0.167 C 
ENDBRANCH  10   9
BRANCH  14  15
ATOM     15  C   UNL     1       0.514  -2.787   0.000  0.00  0.00    +0.037 A 
ATOM     16  C   UNL     1       0.102  -3.501   0.000  0.00  0.00    +0.003 A 
ATOM     17  C   UNL     1      -0.723  -3.501   0.000  0.00  0.00    +0.000 A 
ATOM     18  C   UNL     1      -1.136  -2.787   0.000  0.00  0.00    +0.000 A 
ATOM     19  C   UNL     1      -0.723  -2.072   0.000  0.00  0.00    +0.000 A 
ATOM     20  C   UNL     1       0.102  -2.072   0.000  0.00  0.00    +0.003 A 
BRANCH  18  21
ATOM     21  C   UNL     1      -1.961  -2.787   0.000  0.00  0.00    +0.000 A 
ATOM     22  C   UNL     1      -2.373  -3.501   0.000  0.00  0.00    +0.000 A 
ATOM     23  C   UNL     1      -3.198  -3.501   0.000  0.00  0.00    +0.000 A 
ATOM     24  C   UNL     1      -3.611  -2.787   0.000  0.00  0.00    +0.000 A 
ATOM     25  C   UNL     1      -3.198  -2.072   0.000  0.00  0.00    +0.000 A 
ATOM     26  C   UNL     1      -2.373  -2.072   0.000  0.00  0.00    +0.000 A 
ENDBRANCH  18  21
ENDBRANCH  14  15
TORSDOF 3
