REMARK  Name = 
REMARK  6 active torsions:
REMARK  status: ('A' for Active; 'I' for Inactive)
REMARK    1  A    between atoms: C_5  and  S_8
REMARK    2  A    between atoms: S_8  and  N_11
REMARK    3  A    between atoms: N_11  and  C_12
REMARK    4  A    between atoms: C_12  and  C_13
REMARK    5  A    between atoms: C_16  and  N_17
REMARK    6  A    between atoms: N_17  and  C_18
REMARK                            x       y       z     vdW  Elec       q    Type
REMARK                         _______ _______ _______ _____ _____    ______ ____
ROOT
ATOM     13  C   UNL     1       2.037  -1.299   0.000  0.00  0.00    +0.166 C 
ATOM     14  O   UNL     1       2.704  -1.784   0.000  0.00  0.00    -0.350 OA
ATOM     15  C   UNL     1       2.449  -2.569   0.000  0.00  0.00    +0.162 C 
ATOM     16  C   UNL     1       1.624  -2.569   0.000  0.00  0.00    +0.135 C 
ATOM     24  C   UNL     1       1.369  -1.784   0.000  0.00  0.00    +0.199 C 
ATOM     25  O   UNL     1       0.585  -1.529   0.000  0.00  0.00    -0.219 OA
ENDROOT
BRANCH  13  12
ATOM     12  C   UNL     1       2.037  -0.474   0.000  0.00  0.00    +0.148 C 
BRANCH  12  11
ATOM     11  N   UNL     1       2.751  -0.062   0.000  0.00  0.00    -0.075 NA
BRANCH  11   8
ATOM      8  S   UNL     1       2.751   0.763   0.000  0.00  0.00    +0.077 S 
ATOM      9  O   UNL     1       1.926   0.763   0.000  0.00  0.00    -0.152 OA
ATOM     10  O   UNL     1       3.576   0.763   0.000  0.00  0.00    -0.152 OA
BRANCH   8   5
ATOM      1  C   UNL     1       2.751   4.063   0.000  0.00  0.00    +0.031 C 
ATOM      2  C   UNL     1       2.751   3.238   0.000  0.00  0.00    -0.022 A 
ATOM      3  C   UNL     1       3.466   2.826   0.000  0.00  0.00    -0.003 A 
ATOM      4  C   UNL     1       3.466   2.001   0.000  0.00  0.00    +0.020 A 
ATOM      5  C   UNL     1       2.751   1.588   0.000  0.00  0.00    +0.124 A 
ATOM      6  C   UNL     1       2.037   2.001   0.000  0.00  0.00    +0.020 A 
ATOM      7  C   UNL     1       2.037   2.826   0.000  0.00  0.00    -0.003 A 
ENDBRANCH   8   5
ENDBRANCH  11   8
ENDBRANCH  12  11
ENDBRANCH  13  12
BRANCH  16  17
ATOM     17  N   UNL     1       1.139  -3.236   0.000  0.00  0.00    -0.216 NA
BRANCH  17  18
ATOM     18  C   UNL     1       0.319  -3.150   0.000  0.00  0.00    +0.076 C 
ATOM     19  C   UNL     1      -0.166  -3.817   0.000  0.00  0.00    +0.036 C 
ATOM     20  C   UNL     1      -0.987  -3.731   0.000  0.00  0.00    +0.090 C 
ATOM     21  N   UNL     1      -1.322  -2.977   0.000  0.00  0.00    -0.218 NA
ATOM     22  C   UNL     1      -0.837  -2.310   0.000  0.00  0.00    +0.090 C 
ATOM     23  C   UNL     1      -0.017  -2.396   0.000  0.00  0.00    +0.036 C 
ENDBRANCH  17  18
ENDBRANCH  16  17
TORSDOF 6
