REMARK  Name = 
REMARK  8 active torsions:
REMARK  status: ('A' for Active; 'I' for Inactive)
REMARK    1  A    between atoms: O_2  and  C_3
REMARK    2  A    between atoms: C_3  and  C_4
REMARK    3  A    between atoms: C_4  and  N_5
REMARK    4  A    between atoms: N_5  and  C_6
REMARK    5  A    between atoms: C_9  and  C_12
REMARK    6  A    between atoms: C_15  and  C_17
REMARK    7  A    between atoms: N_21  and  C_22
REMARK    8  A    between atoms: C_22  and  C_23
REMARK                            x       y       z     vdW  Elec       q    Type
REMARK                         _______ _______ _______ _____ _____    ______ ____
ROOT
ATOM     12  C   UNL     1      -3.781  -1.730   0.000  0.00  0.00    +0.205 A 
ATOM     13  N   UNL     1      -4.394  -1.178   0.000  0.00  0.00    -0.056 NA
ATOM     14  O   UNL     1      -4.059  -0.424   0.000  0.00  0.00    -0.336 OA
ATOM     15  C   UNL     1      -3.238  -0.510   0.000  0.00  0.00    +0.251 A 
ATOM     16  N   UNL     1      -3.067  -1.317   0.000  0.00  0.00    -0.190 NA
ENDROOT
BRANCH  12   9
ATOM      6  C   UNL     1      -4.040  -4.191   0.000  0.00  0.00    +0.148 A 
ATOM      7  C   UNL     1      -4.707  -3.706   0.000  0.00  0.00    +0.036 A 
ATOM      8  C   UNL     1      -4.621  -2.886   0.000  0.00  0.00    +0.008 A 
ATOM      9  C   UNL     1      -3.868  -2.550   0.000  0.00  0.00    +0.058 A 
ATOM     10  C   UNL     1      -3.200  -3.035   0.000  0.00  0.00    +0.103 A 
ATOM     11  N   UNL     1      -3.286  -3.856   0.000  0.00  0.00    -0.228 NA
BRANCH   6   5
ATOM      5  N   UNL     1      -4.126  -5.012   0.000  0.00  0.00    -0.218 NA
BRANCH   5   4
ATOM      4  C   UNL     1      -3.459  -5.497   0.000  0.00  0.00    +0.146 C 
BRANCH   4   3
ATOM      3  C   UNL     1      -3.545  -6.317   0.000  0.00  0.00    +0.166 C 
BRANCH   3   2
ATOM      1  C   UNL     1      -2.964  -7.622   0.000  0.00  0.00    +0.174 C 
ATOM      2  O   UNL     1      -2.878  -6.802   0.000  0.00  0.00    -0.349 OA
ENDBRANCH   3   2
ENDBRANCH   4   3
ENDBRANCH   5   4
ENDBRANCH   6   5
ENDBRANCH  12   9
BRANCH  15  17
ATOM     17  C   UNL     1      -2.686   0.103   0.000  0.00  0.00    +0.138 C 
ATOM     18  C   UNL     1      -2.858   0.910   0.000  0.00  0.00    +0.027 C 
ATOM     19  C   UNL     1      -2.143   1.322   0.000  0.00  0.00    +0.019 C 
ATOM     20  C   UNL     1      -1.530   0.770   0.000  0.00  0.00    +0.073 C 
ATOM     21  N   UNL     1      -1.866   0.017   0.000  0.00  0.00    -0.260 NA
BRANCH  21  22
ATOM     22  C   UNL     1      -1.453  -0.698   0.000  0.00  0.00    +0.138 C 
BRANCH  22  23
ATOM     23  C   UNL     1      -0.628  -0.698   0.000  0.00  0.00    +0.139 A 
ATOM     24  C   UNL     1      -0.143  -1.365   0.000  0.00  0.00    +0.037 A 
ATOM     25  C   UNL     1       0.641  -1.110   0.000  0.00  0.00    +0.037 A 
ATOM     26  C   UNL     1       0.641  -0.285   0.000  0.00  0.00    +0.145 A 
ATOM     27  O   UNL     1      -0.143  -0.030   0.000  0.00  0.00    -0.456 OA
ATOM     28  C   UNL     1       1.356   0.127   0.000  0.00  0.00    +0.037 A 
ATOM     29  C   UNL     1       2.070  -0.285   0.000  0.00  0.00    +0.003 A 
ATOM     30  C   UNL     1       2.070  -1.110   0.000  0.00  0.00    +0.000 A 
ATOM     31  C   UNL     1       1.356  -1.523   0.000  0.00  0.00    +0.003 A 
ENDBRANCH  22  23
ENDBRANCH  21  22
ENDBRANCH  15  17
TORSDOF 8
