REMARK  Name = 
REMARK  5 active torsions:
REMARK  status: ('A' for Active; 'I' for Inactive)
REMARK    1  A    between atoms: O_2  and  C_3
REMARK    2  A    between atoms: C_8  and  C_9
REMARK    3  A    between atoms: C_9  and  N_10
REMARK    4  A    between atoms: C_13  and  C_15
REMARK    5  A    between atoms: C_18  and  C_20
REMARK                            x       y       z     vdW  Elec       q    Type
REMARK                         _______ _______ _______ _____ _____    ______ ____
ROOT
ATOM     10  N   UNL     1       2.024  -3.041   0.000  0.00  0.00    -0.268 NA
ATOM     11  C   UNL     1       2.692  -3.525   0.000  0.00  0.00    +0.073 C 
ATOM     12  C   UNL     1       2.437  -4.310   0.000  0.00  0.00    +0.028 C 
ATOM     13  C   UNL     1       1.612  -4.310   0.000  0.00  0.00    +0.096 C 
ATOM     14  C   UNL     1       1.357  -3.525   0.000  0.00  0.00    +0.082 C 
ENDROOT
BRANCH  13  15
ATOM     15  C   UNL     1       1.127  -4.977   0.000  0.00  0.00    +0.227 A 
ATOM     16  N   UNL     1       1.382  -5.762   0.000  0.00  0.00    -0.111 NA
ATOM     17  N   UNL     1       0.715  -6.247   0.000  0.00  0.00    -0.107 NA
ATOM     18  C   UNL     1       0.047  -5.762   0.000  0.00  0.00    +0.250 A 
ATOM     19  O   UNL     1       0.302  -4.977   0.000  0.00  0.00    -0.419 OA
BRANCH  18  20
ATOM     20  C   UNL     1      -0.738  -6.017   0.000  0.00  0.00    +0.058 A 
ATOM     21  C   UNL     1      -0.909  -6.824   0.000  0.00  0.00    +0.025 A 
ATOM     22  C   UNL     1      -1.694  -7.079   0.000  0.00  0.00    +0.099 A 
ATOM     23  N   UNL     1      -2.307  -6.527   0.000  0.00  0.00    -0.242 NA
ATOM     24  C   UNL     1      -2.135  -5.720   0.000  0.00  0.00    +0.099 A 
ATOM     25  C   UNL     1      -1.351  -5.465   0.000  0.00  0.00    +0.025 A 
ENDBRANCH  18  20
ENDBRANCH  13  15
BRANCH  10   9
ATOM      9  C   UNL     1       2.024  -2.216   0.000  0.00  0.00    +0.102 C 
BRANCH   9   8
ATOM      3  C   UNL     1       2.739  -0.978   0.000  0.00  0.00    +0.136 A 
ATOM      4  C   UNL     1       3.453  -0.566   0.000  0.00  0.00    +0.037 A 
ATOM      5  C   UNL     1       4.168  -0.978   0.000  0.00  0.00    +0.003 A 
ATOM      6  C   UNL     1       4.168  -1.803   0.000  0.00  0.00    -0.000 A 
ATOM      7  C   UNL     1       3.453  -2.216   0.000  0.00  0.00    +0.000 A 
ATOM      8  C   UNL     1       2.739  -1.803   0.000  0.00  0.00    +0.028 A 
BRANCH   3   2
ATOM      1  C   UNL     1       2.024   0.260   0.000  0.00  0.00    +0.252 C 
ATOM      2  O   UNL     1       2.024  -0.566   0.000  0.00  0.00    -0.472 OA
ENDBRANCH   3   2
ENDBRANCH   9   8
ENDBRANCH  10   9
TORSDOF 5
