REMARK  Name = 
REMARK  7 active torsions:
REMARK  status: ('A' for Active; 'I' for Inactive)
REMARK    1  A    between atoms: C_2  and  N_4
REMARK    2  A    between atoms: C_11  and  C_13
REMARK    3  A    between atoms: N_15  and  C_16
REMARK    4  A    between atoms: C_16  and  C_17
REMARK    5  A    between atoms: C_16  and  C_27
REMARK    6  A    between atoms: C_17  and  C_18
REMARK    7  A    between atoms: C_30  and  C_32
REMARK                            x       y       z     vdW  Elec       q    Type
REMARK                         _______ _______ _______ _____ _____    ______ ____
ROOT
ATOM      4  N   UNL     1      -4.646   4.579   0.000  0.00  0.00    -0.190 NA
ATOM      5  C   UNL     1      -4.391   3.794   0.000  0.00  0.00    +0.323 C 
ATOM      6  O   UNL     1      -4.943   3.181   0.000  0.00  0.00    -0.251 OA
ATOM      7  N   UNL     1      -3.584   3.623   0.000  0.00  0.00    -0.259 N 
ATOM      8  C   UNL     1      -3.032   4.236   0.000  0.00  0.00    +0.117 C 
ATOM      9  C   UNL     1      -2.225   4.064   0.000  0.00  0.00    +0.115 C 
ATOM     10  N   UNL     1      -1.970   3.280   0.000  0.00  0.00    -0.270 N 
ATOM     11  C   UNL     1      -2.522   2.666   0.000  0.00  0.00    +0.174 C 
ATOM     12  C   UNL     1      -3.329   2.838   0.000  0.00  0.00    +0.124 C 
ATOM     30  C   UNL     1      -1.163   3.108   0.000  0.00  0.00    +0.226 C 
ATOM     31  O   UNL     1      -0.908   2.323   0.000  0.00  0.00    -0.275 OA
ENDROOT
BRANCH  30  32
ATOM     32  C   UNL     1      -0.611   3.721   0.000  0.00  0.00    +0.080 C 
ATOM     33  C   UNL     1      -0.866   4.506   0.000  0.00  0.00    +0.028 C 
ATOM     34  C   UNL     1      -0.314   5.119   0.000  0.00  0.00    +0.089 C 
ATOM     35  N   UNL     1       0.493   4.947   0.000  0.00  0.00    -0.218 NA
ATOM     36  C   UNL     1       0.748   4.163   0.000  0.00  0.00    +0.089 C 
ATOM     37  C   UNL     1       0.196   3.550   0.000  0.00  0.00    +0.028 C 
ENDBRANCH  30  32
BRANCH   4   2
ATOM      1  C   UNL     1      -5.708   5.535   0.000  0.00  0.00    +0.023 C 
ATOM      2  C   UNL     1      -5.453   4.750   0.000  0.00  0.00    +0.097 C 
ATOM      3  C   UNL     1      -6.005   4.137   0.000  0.00  0.00    +0.023 C 
ENDBRANCH   4   2
BRANCH  11  13
ATOM     13  C   UNL     1      -2.267   1.882   0.000  0.00  0.00    +0.262 C 
ATOM     14  O   UNL     1      -2.819   1.269   0.000  0.00  0.00    -0.271 OA
ATOM     15  N   UNL     1      -1.460   1.710   0.000  0.00  0.00    -0.196 NA
BRANCH  15  16
ATOM     16  C   UNL     1      -1.205   0.926   0.000  0.00  0.00    +0.179 C 
BRANCH  16  27
ATOM     27  C   UNL     1      -1.758   0.313   0.000  0.00  0.00    +0.281 C 
ATOM     28  N   UNL     1      -1.502  -0.472   0.000  0.00  0.00    -0.086 NA
ATOM     29  O   UNL     1      -2.564   0.484   0.000  0.00  0.00    -0.270 OA
ENDBRANCH  16  27
BRANCH  16  17
ATOM     17  C   UNL     1      -0.398   0.754   0.000  0.00  0.00    +0.059 C 
BRANCH  17  18
ATOM     18  C   UNL     1      -0.143  -0.030   0.000  0.00  0.00    +0.001 A 
ATOM     19  C   UNL     1      -0.628  -0.698   0.000  0.00  0.00    +0.095 A 
ATOM     20  N   UNL     1      -0.143  -1.365   0.000  0.00  0.00    -0.244 NA
ATOM     21  C   UNL     1       0.641  -1.110   0.000  0.00  0.00    +0.081 A 
ATOM     22  C   UNL     1       0.641  -0.285   0.000  0.00  0.00    +0.015 A 
ATOM     23  C   UNL     1       1.356   0.127   0.000  0.00  0.00    +0.001 A 
ATOM     24  C   UNL     1       2.070  -0.285   0.000  0.00  0.00    +0.000 A 
ATOM     25  C   UNL     1       2.070  -1.110   0.000  0.00  0.00    +0.002 A 
ATOM     26  C   UNL     1       1.356  -1.523   0.000  0.00  0.00    +0.019 A 
ENDBRANCH  17  18
ENDBRANCH  16  17
ENDBRANCH  15  16
ENDBRANCH  11  13
TORSDOF 7
