REMARK  Name = 
REMARK  2 active torsions:
REMARK  status: ('A' for Active; 'I' for Inactive)
REMARK    1  A    between atoms: C_6  and  C_7
REMARK    2  A    between atoms: C_9  and  C_12
REMARK                            x       y       z     vdW  Elec       q    Type
REMARK                         _______ _______ _______ _____ _____    ______ ____
ROOT
ATOM      7  C   UNL     1      -2.047  -3.270   0.000  0.00  0.00    +0.251 A 
ATOM      8  N   UNL     1      -2.715  -3.755   0.000  0.00  0.00    -0.188 NA
ATOM      9  C   UNL     1      -3.382  -3.270   0.000  0.00  0.00    +0.221 A 
ATOM     10  N   UNL     1      -3.127  -2.486   0.000  0.00  0.00    -0.054 NA
ATOM     11  O   UNL     1      -2.303  -2.486   0.000  0.00  0.00    -0.336 OA
ENDROOT
BRANCH   9  12
ATOM     12  C   UNL     1      -4.167  -3.525   0.000  0.00  0.00    +0.120 A 
ATOM     13  N   UNL     1      -4.338  -4.332   0.000  0.00  0.00    -0.238 NA
ATOM     14  C   UNL     1      -5.123  -4.587   0.000  0.00  0.00    +0.128 A 
ATOM     15  C   UNL     1      -5.736  -4.035   0.000  0.00  0.00    +0.159 A 
ATOM     16  F   UNL     1      -6.521  -4.290   0.000  0.00  0.00    -0.203 F 
ATOM     17  C   UNL     1      -5.565  -3.228   0.000  0.00  0.00    +0.033 A 
ATOM     18  C   UNL     1      -4.780  -2.973   0.000  0.00  0.00    +0.025 A 
ENDBRANCH   9  12
BRANCH   7   6
ATOM      1  C   UNL     1      -0.596  -2.216   0.000  0.00  0.00    +0.090 C 
ATOM      2  N   UNL     1      -0.596  -3.041   0.000  0.00  0.00    -0.265 NA
ATOM      3  C   UNL     1       0.072  -3.525   0.000  0.00  0.00    +0.073 C 
ATOM      4  C   UNL     1      -0.183  -4.310   0.000  0.00  0.00    +0.019 C 
ATOM      5  C   UNL     1      -1.008  -4.310   0.000  0.00  0.00    +0.027 C 
ATOM      6  C   UNL     1      -1.263  -3.525   0.000  0.00  0.00    +0.138 C 
ENDBRANCH   7   6
TORSDOF 2
