REMARK  Name = 
REMARK  9 active torsions:
REMARK  status: ('A' for Active; 'I' for Inactive)
REMARK    1  A    between atoms: S_2  and  C_3
REMARK    2  A    between atoms: C_7  and  N_8
REMARK    3  A    between atoms: N_11  and  C_12
REMARK    4  A    between atoms: C_16  and  C_17
REMARK    5  A    between atoms: N_19  and  C_20
REMARK    6  A    between atoms: C_20  and  C_21
REMARK    7  A    between atoms: C_20  and  C_27
REMARK    8  A    between atoms: C_21  and  C_22
REMARK    9  A    between atoms: C_30  and  C_32
REMARK                            x       y       z     vdW  Elec       q    Type
REMARK                         _______ _______ _______ _____ _____    ______ ____
ROOT
ATOM     12  C   UNL     1       2.858   4.704   0.000  0.00  0.00    +0.126 C 
ATOM     13  C   UNL     1       3.525   4.219   0.000  0.00  0.00    +0.045 C 
ATOM     14  C   UNL     1       3.270   3.434   0.000  0.00  0.00    +0.096 C 
ATOM     15  N   UNL     1       2.445   3.434   0.000  0.00  0.00    -0.267 N 
ATOM     16  C   UNL     1       2.190   4.219   0.000  0.00  0.00    +0.174 C 
ATOM     30  C   UNL     1       1.960   2.767   0.000  0.00  0.00    +0.265 C 
ATOM     31  O   UNL     1       1.140   2.853   0.000  0.00  0.00    -0.268 OA
ENDROOT
BRANCH  30  32
ATOM     32  C   UNL     1       2.296   2.013   0.000  0.00  0.00    +0.114 A 
ATOM     33  C   UNL     1       3.103   1.841   0.000  0.00  0.00    +0.023 A 
ATOM     34  C   UNL     1       3.189   1.021   0.000  0.00  0.00    +0.020 A 
ATOM     35  C   UNL     1       2.436   0.685   0.000  0.00  0.00    +0.076 A 
ATOM     36  N   UNL     1       1.883   1.298   0.000  0.00  0.00    -0.320 N 
ATOM     37  C   UNL     1       1.063   1.212   0.000  0.00  0.00    +0.131 C 
ENDBRANCH  30  32
BRANCH  12  11
ATOM      8  N   UNL     1       3.572   6.766   0.000  0.00  0.00    -0.161 NA
ATOM      9  C   UNL     1       3.572   5.941   0.000  0.00  0.00    +0.344 C 
ATOM     10  O   UNL     1       4.287   5.529   0.000  0.00  0.00    -0.249 OA
ATOM     11  N   UNL     1       2.858   5.529   0.000  0.00  0.00    -0.186 NA
BRANCH   8   7
ATOM      3  C   UNL     1       5.001   8.416   0.000  0.00  0.00    +0.027 A 
ATOM      4  C   UNL     1       5.716   8.004   0.000  0.00  0.00    +0.006 A 
ATOM      5  C   UNL     1       5.716   7.179   0.000  0.00  0.00    +0.002 A 
ATOM      6  C   UNL     1       5.001   6.766   0.000  0.00  0.00    +0.017 A 
ATOM      7  C   UNL     1       4.287   7.179   0.000  0.00  0.00    +0.075 A 
ATOM     38  C   UNL     1       4.287   8.004   0.000  0.00  0.00    +0.023 A 
BRANCH   3   2
ATOM      1  C   UNL     1       5.716   9.654   0.000  0.00  0.00    +0.074 C 
ATOM      2  S   UNL     1       5.001   9.241   0.000  0.00  0.00    -0.113 S 
ENDBRANCH   3   2
ENDBRANCH   8   7
ENDBRANCH  12  11
BRANCH  16  17
ATOM     17  C   UNL     1       1.406   4.474   0.000  0.00  0.00    +0.262 C 
ATOM     18  O   UNL     1       1.234   5.281   0.000  0.00  0.00    -0.271 OA
ATOM     19  N   UNL     1       0.793   3.922   0.000  0.00  0.00    -0.196 NA
BRANCH  19  20
ATOM     20  C   UNL     1       0.008   4.176   0.000  0.00  0.00    +0.179 C 
BRANCH  20  27
ATOM     27  C   UNL     1      -0.163   4.984   0.000  0.00  0.00    +0.281 C 
ATOM     28  N   UNL     1      -0.948   5.238   0.000  0.00  0.00    -0.086 NA
ATOM     29  O   UNL     1       0.450   5.535   0.000  0.00  0.00    -0.270 OA
ENDBRANCH  20  27
BRANCH  20  21
ATOM     21  C   UNL     1      -0.605   3.624   0.000  0.00  0.00    +0.064 C 
BRANCH  21  22
ATOM     22  C   UNL     1      -1.390   3.879   0.000  0.00  0.00    +0.010 A 
ATOM     23  C   UNL     1      -2.057   3.394   0.000  0.00  0.00    +0.003 A 
ATOM     24  C   UNL     1      -2.724   3.879   0.000  0.00  0.00    +0.007 A 
ATOM     25  C   UNL     1      -2.470   4.664   0.000  0.00  0.00    +0.035 A 
ATOM     26  S   UNL     1      -1.645   4.664   0.000  0.00  0.00    -0.091 S 
ENDBRANCH  21  22
ENDBRANCH  20  21
ENDBRANCH  19  20
ENDBRANCH  16  17
TORSDOF 9
