REMARK  Name = 
REMARK  4 active torsions:
REMARK  status: ('A' for Active; 'I' for Inactive)
REMARK    1  A    between atoms: O_2  and  C_3
REMARK    2  A    between atoms: C_6  and  C_9
REMARK    3  A    between atoms: C_15  and  N_16
REMARK    4  A    between atoms: C_17  and  C_19
REMARK                            x       y       z     vdW  Elec       q    Type
REMARK                         _______ _______ _______ _____ _____    ______ ____
ROOT
ATOM      9  C   UNL     1      -3.612  -1.314   0.000  0.00  0.00    +0.048 C 
ATOM     10  C   UNL     1      -4.164  -1.927   0.000  0.00  0.00    +0.042 C 
ATOM     11  C   UNL     1      -3.751  -2.642   0.000  0.00  0.00    +0.184 C 
ATOM     12  O   UNL     1      -4.087  -3.396   0.000  0.00  0.00    -0.220 OA
ATOM     13  C   UNL     1      -2.944  -2.470   0.000  0.00  0.00    +0.202 C 
ATOM     14  O   UNL     1      -2.331  -3.022   0.000  0.00  0.00    -0.219 OA
ATOM     15  C   UNL     1      -2.858  -1.650   0.000  0.00  0.00    +0.132 C 
ENDROOT
BRANCH   9   6
ATOM      3  C   UNL     1      -4.126   1.107   0.000  0.00  0.00    +0.139 A 
ATOM      4  C   UNL     1      -3.341   0.852   0.000  0.00  0.00    +0.037 A 
ATOM      5  C   UNL     1      -3.170   0.045   0.000  0.00  0.00    -0.001 A 
ATOM      6  C   UNL     1      -3.783  -0.507   0.000  0.00  0.00    -0.020 A 
ATOM      7  C   UNL     1      -4.568  -0.253   0.000  0.00  0.00    -0.001 A 
ATOM      8  C   UNL     1      -4.739   0.554   0.000  0.00  0.00    +0.037 A 
BRANCH   3   2
ATOM      1  C   UNL     1      -5.082   2.168   0.000  0.00  0.00    +0.252 C 
ATOM      2  O   UNL     1      -4.298   1.913   0.000  0.00  0.00    -0.471 OA
ENDBRANCH   3   2
ENDBRANCH   9   6
BRANCH  15  16
ATOM     16  N   UNL     1      -2.143  -1.238   0.000  0.00  0.00    -0.200 NA
ATOM     17  C   UNL     1      -1.429  -1.650   0.000  0.00  0.00    +0.265 C 
ATOM     18  O   UNL     1      -1.429  -2.475   0.000  0.00  0.00    -0.268 OA
BRANCH  17  19
ATOM     19  C   UNL     1      -0.715  -1.238   0.000  0.00  0.00    +0.058 A 
ATOM     20  C   UNL     1       0.000  -1.650   0.000  0.00  0.00    +0.045 A 
ATOM     21  C   UNL     1       0.715  -1.238   0.000  0.00  0.00    +0.173 A 
ATOM     22  C   UNL     1       0.715  -0.412   0.000  0.00  0.00    +0.172 A 
ATOM     23  O   UNL     1       1.429   0.000   0.000  0.00  0.00    -0.468 OA
ATOM     24  C   UNL     1       2.143  -0.412   0.000  0.00  0.00    +0.253 C 
ATOM     25  C   UNL     1       2.143  -1.238   0.000  0.00  0.00    +0.253 C 
ATOM     26  O   UNL     1       1.429  -1.650   0.000  0.00  0.00    -0.468 OA
ATOM     27  C   UNL     1       0.000   0.000   0.000  0.00  0.00    +0.040 A 
ATOM     28  C   UNL     1      -0.715  -0.412   0.000  0.00  0.00    +0.008 A 
ENDBRANCH  17  19
ENDBRANCH  15  16
TORSDOF 4
