REMARK  Name = 
REMARK  7 active torsions:
REMARK  status: ('A' for Active; 'I' for Inactive)
REMARK    1  A    between atoms: N_2  and  C_4
REMARK    2  A    between atoms: C_7  and  C_10
REMARK    3  A    between atoms: C_13  and  C_15
REMARK    4  A    between atoms: N_19  and  C_20
REMARK    5  A    between atoms: C_20  and  C_21
REMARK    6  A    between atoms: C_21  and  C_22
REMARK    7  A    between atoms: C_22  and  C_23
REMARK                            x       y       z     vdW  Elec       q    Type
REMARK                         _______ _______ _______ _____ _____    ______ ____
ROOT
ATOM     10  C   UNL     1       3.215  -0.357   0.000  0.00  0.00    +0.205 A 
ATOM     11  N   UNL     1       2.547  -0.842   0.000  0.00  0.00    -0.056 NA
ATOM     12  O   UNL     1       2.802  -1.626   0.000  0.00  0.00    -0.336 OA
ATOM     13  C   UNL     1       3.627  -1.626   0.000  0.00  0.00    +0.251 A 
ATOM     14  N   UNL     1       3.882  -0.842   0.000  0.00  0.00    -0.190 NA
ENDROOT
BRANCH  10   7
ATOM      4  C   UNL     1       3.215   2.118   0.000  0.00  0.00    +0.132 A 
ATOM      5  C   UNL     1       2.500   1.706   0.000  0.00  0.00    +0.034 A 
ATOM      6  C   UNL     1       2.500   0.881   0.000  0.00  0.00    +0.008 A 
ATOM      7  C   UNL     1       3.215   0.468   0.000  0.00  0.00    +0.058 A 
ATOM      8  C   UNL     1       3.929   0.881   0.000  0.00  0.00    +0.103 A 
ATOM      9  N   UNL     1       3.929   1.706   0.000  0.00  0.00    -0.229 NA
BRANCH   4   2
ATOM      1  C   UNL     1       3.929   3.356   0.000  0.00  0.00    +0.114 C 
ATOM      2  N   UNL     1       3.215   2.943   0.000  0.00  0.00    -0.290 N 
ATOM      3  C   UNL     1       2.500   3.356   0.000  0.00  0.00    +0.114 C 
ENDBRANCH   4   2
ENDBRANCH  10   7
BRANCH  13  15
ATOM     15  C   UNL     1       4.112  -2.294   0.000  0.00  0.00    +0.138 C 
ATOM     16  C   UNL     1       4.937  -2.294   0.000  0.00  0.00    +0.027 C 
ATOM     17  C   UNL     1       5.192  -3.078   0.000  0.00  0.00    +0.019 C 
ATOM     18  C   UNL     1       4.524  -3.563   0.000  0.00  0.00    +0.073 C 
ATOM     19  N   UNL     1       3.857  -3.078   0.000  0.00  0.00    -0.266 NA
BRANCH  19  20
ATOM     20  C   UNL     1       3.072  -3.333   0.000  0.00  0.00    +0.073 C 
BRANCH  20  21
ATOM     21  C   UNL     1       2.459  -2.781   0.000  0.00  0.00    +0.022 C 
BRANCH  21  22
ATOM     22  C   UNL     1       1.675  -3.036   0.000  0.00  0.00    +0.028 C 
BRANCH  22  23
ATOM     23  C   UNL     1       1.062  -2.484   0.000  0.00  0.00    -0.022 A 
ATOM     24  C   UNL     1       0.277  -2.739   0.000  0.00  0.00    -0.004 A 
ATOM     25  C   UNL     1      -0.336  -2.187   0.000  0.00  0.00    -0.000 A 
ATOM     26  C   UNL     1      -0.165  -1.380   0.000  0.00  0.00    -0.000 A 
ATOM     27  C   UNL     1       0.620  -1.125   0.000  0.00  0.00    -0.000 A 
ATOM     28  C   UNL     1       1.233  -1.677   0.000  0.00  0.00    -0.004 A 
ENDBRANCH  22  23
ENDBRANCH  21  22
ENDBRANCH  20  21
ENDBRANCH  19  20
ENDBRANCH  13  15
TORSDOF 7
