REMARK  Name = 
REMARK  6 active torsions:
REMARK  status: ('A' for Active; 'I' for Inactive)
REMARK    1  A    between atoms: N_5  and  C_8
REMARK    2  A    between atoms: C_11  and  C_12
REMARK    3  A    between atoms: C_15  and  C_16
REMARK    4  A    between atoms: C_16  and  N_17
REMARK    5  A    between atoms: C_18  and  C_20
REMARK    6  A    between atoms: C_23  and  C_26
REMARK                            x       y       z     vdW  Elec       q    Type
REMARK                         _______ _______ _______ _____ _____    ______ ____
ROOT
ATOM      8  C   UNL     1       2.751  -2.537   0.000  0.00  0.00    +0.120 C 
ATOM      9  C   UNL     1       3.419  -3.022   0.000  0.00  0.00    +0.198 C 
ATOM     10  O   UNL     1       4.203  -2.767   0.000  0.00  0.00    -0.219 OA
ATOM     11  C   UNL     1       3.164  -3.806   0.000  0.00  0.00    +0.180 C 
ATOM     14  O   UNL     1       2.339  -3.806   0.000  0.00  0.00    -0.350 OA
ATOM     15  C   UNL     1       2.084  -3.022   0.000  0.00  0.00    +0.154 C 
ENDROOT
BRANCH   8   5
ATOM      1  C   UNL     1       2.751   0.763   0.000  0.00  0.00    +0.000 C 
ATOM      2  C   UNL     1       2.751  -0.062   0.000  0.00  0.00    +0.003 C 
ATOM      3  C   UNL     1       3.466  -0.474   0.000  0.00  0.00    +0.017 C 
ATOM      4  C   UNL     1       3.466  -1.299   0.000  0.00  0.00    +0.072 C 
ATOM      5  N   UNL     1       2.751  -1.712   0.000  0.00  0.00    -0.270 NA
ATOM      6  C   UNL     1       2.037  -1.299   0.000  0.00  0.00    +0.072 C 
ATOM      7  C   UNL     1       2.037  -0.474   0.000  0.00  0.00    +0.017 C 
ENDBRANCH   8   5
BRANCH  11  12
ATOM     12  C   UNL     1       3.649  -4.474   0.000  0.00  0.00    +0.214 C 
ATOM     13  O   UNL     1       3.313  -5.227   0.000  0.00  0.00    -0.218 OA
ENDBRANCH  11  12
BRANCH  15  16
ATOM     16  C   UNL     1       1.299  -2.767   0.000  0.00  0.00    +0.146 C 
BRANCH  16  17
ATOM     17  N   UNL     1       1.128  -1.960   0.000  0.00  0.00    -0.199 NA
ATOM     18  C   UNL     1       0.343  -1.705   0.000  0.00  0.00    +0.265 C 
ATOM     19  O   UNL     1      -0.270  -2.257   0.000  0.00  0.00    -0.268 OA
BRANCH  18  20
ATOM     20  C   UNL     1       0.171  -0.898   0.000  0.00  0.00    +0.055 A 
ATOM     21  C   UNL     1      -0.613  -0.643   0.000  0.00  0.00    +0.005 A 
ATOM     22  C   UNL     1      -0.785   0.164   0.000  0.00  0.00    +0.004 A 
ATOM     23  C   UNL     1      -0.172   0.716   0.000  0.00  0.00    +0.071 A 
ATOM     24  C   UNL     1       0.613   0.461   0.000  0.00  0.00    +0.004 A 
ATOM     25  C   UNL     1       0.784  -0.346   0.000  0.00  0.00    +0.005 A 
BRANCH  23  26
ATOM     26  C   UNL     1      -0.343   1.523   0.000  0.00  0.00    +0.419 C 
ATOM     27  F   UNL     1      -0.515   2.330   0.000  0.00  0.00    -0.166 F 
ATOM     28  F   UNL     1       0.464   1.695   0.000  0.00  0.00    -0.166 F 
ATOM     29  F   UNL     1      -1.150   1.352   0.000  0.00  0.00    -0.166 F 
ENDBRANCH  23  26
ENDBRANCH  18  20
ENDBRANCH  16  17
ENDBRANCH  15  16
TORSDOF 6
