REMARK  Name = 
REMARK  3 active torsions:
REMARK  status: ('A' for Active; 'I' for Inactive)
REMARK    1  A    between atoms: C_7  and  N_10
REMARK    2  A    between atoms: C_19  and  C_24
REMARK    3  A    between atoms: C_26  and  C_30
REMARK                            x       y       z     vdW  Elec       q    Type
REMARK                         _______ _______ _______ _____ _____    ______ ____
ROOT
ATOM     10  N   UNL     1       0.813  -2.091   0.000  0.00  0.00    -0.273 NA
ATOM     11  C   UNL     1       1.629  -1.912   0.000  0.00  0.00    +0.074 C 
ATOM     12  C   UNL     1       1.582  -0.925   0.000  0.00  0.00    +0.039 C 
ATOM     13  C   UNL     1       1.713  -0.121   0.000  0.00  0.00    +0.011 C 
ATOM     14  C   UNL     1       1.163  -0.557   0.000  0.00  0.00    +0.054 C 
ATOM     15  C   UNL     1       1.225  -1.510   0.000  0.00  0.00    +0.078 C 
ATOM     16  C   UNL     1       0.244  -0.558   0.000  0.00  0.00    +0.041 A 
ATOM     17  C   UNL     1      -0.397  -0.039   0.000  0.00  0.00    +0.013 A 
ATOM     18  C   UNL     1      -1.167  -0.335   0.000  0.00  0.00    +0.006 A 
ATOM     19  C   UNL     1      -1.296  -1.150   0.000  0.00  0.00    +0.056 A 
ATOM     20  C   UNL     1      -0.655  -1.669   0.000  0.00  0.00    +0.261 A 
ATOM     21  O   UNL     1      -1.238  -2.252   0.000  0.00  0.00    -0.267 OA
ATOM     22  N   UNL     1       0.115  -1.373   0.000  0.00  0.00    -0.299 N 
ATOM     23  C   UNL     1       0.622  -0.936   0.000  0.00  0.00    +0.110 C 
ENDROOT
BRANCH  10   7
ATOM      1  C   UNL     1      -1.888  -4.737   0.000  0.00  0.00    +0.095 C 
ATOM      2  C   UNL     1      -1.938  -3.914   0.000  0.00  0.00    +0.226 C 
ATOM      3  O   UNL     1      -2.677  -3.546   0.000  0.00  0.00    -0.275 OA
ATOM      4  N   UNL     1      -1.251  -3.458   0.000  0.00  0.00    -0.279 N 
ATOM      5  C   UNL     1      -1.301  -2.635   0.000  0.00  0.00    +0.095 C 
ATOM      6  C   UNL     1      -0.614  -2.179   0.000  0.00  0.00    +0.038 C 
ATOM      7  C   UNL     1       0.125  -2.547   0.000  0.00  0.00    +0.061 C 
ATOM      8  C   UNL     1       0.176  -3.370   0.000  0.00  0.00    +0.038 C 
ATOM      9  C   UNL     1      -0.512  -3.826   0.000  0.00  0.00    +0.095 C 
ENDBRANCH  10   7
BRANCH  19  24
ATOM     24  C   UNL     1      -2.066  -1.445   0.000  0.00  0.00    +0.005 A 
ATOM     25  C   UNL     1      -2.707  -0.926   0.000  0.00  0.00    +0.004 A 
ATOM     26  C   UNL     1      -3.478  -1.222   0.000  0.00  0.00    +0.071 A 
ATOM     27  C   UNL     1      -3.606  -2.037   0.000  0.00  0.00    +0.004 A 
ATOM     28  C   UNL     1      -2.965  -2.556   0.000  0.00  0.00    -0.000 A 
ATOM     29  C   UNL     1      -2.195  -2.260   0.000  0.00  0.00    +0.000 A 
BRANCH  26  30
ATOM     30  C   UNL     1      -4.119  -0.703   0.000  0.00  0.00    +0.419 C 
ATOM     31  F   UNL     1      -4.760  -0.184   0.000  0.00  0.00    -0.166 F 
ATOM     32  F   UNL     1      -4.638  -1.344   0.000  0.00  0.00    -0.166 F 
ATOM     33  F   UNL     1      -3.600  -0.062   0.000  0.00  0.00    -0.166 F 
ENDBRANCH  26  30
ENDBRANCH  19  24
TORSDOF 3
