REMARK  Name = 
REMARK  9 active torsions:
REMARK  status: ('A' for Active; 'I' for Inactive)
REMARK    1  A    between atoms: C_5  and  C_6
REMARK    2  A    between atoms: C_6  and  N_7
REMARK    3  A    between atoms: C_8  and  C_10
REMARK    4  A    between atoms: C_10  and  C_11
REMARK    5  A    between atoms: C_16  and  C_17
REMARK    6  A    between atoms: C_17  and  C_18
REMARK    7  A    between atoms: C_21  and  C_22
REMARK    8  A    between atoms: C_22  and  O_23
REMARK    9  A    between atoms: O_23  and  C_24
REMARK                            x       y       z     vdW  Elec       q    Type
REMARK                         _______ _______ _______ _____ _____    ______ ____
ROOT
ATOM     11  C   UNL     1       2.143  -0.412   0.000  0.00  0.00    +0.012 C 
ATOM     12  C   UNL     1       2.858   0.000   0.000  0.00  0.00    +0.019 C 
ATOM     13  C   UNL     1       3.572  -0.412   0.000  0.00  0.00    +0.089 C 
ATOM     14  N   UNL     1       3.572  -1.238   0.000  0.00  0.00    -0.218 NA
ATOM     15  C   UNL     1       2.858  -1.650   0.000  0.00  0.00    +0.089 C 
ATOM     16  C   UNL     1       2.143  -1.238   0.000  0.00  0.00    +0.024 C 
ENDROOT
BRANCH  11  10
ATOM     10  C   UNL     1       1.429   0.000   0.000  0.00  0.00    +0.087 C 
BRANCH  10   8
ATOM      7  N   UNL     1       2.143   1.238   0.000  0.00  0.00    -0.201 NA
ATOM      8  C   UNL     1       1.429   0.825   0.000  0.00  0.00    +0.242 C 
ATOM      9  O   UNL     1       0.715   1.238   0.000  0.00  0.00    -0.273 OA
BRANCH   7   6
ATOM      6  C   UNL     1       2.858   0.825   0.000  0.00  0.00    +0.141 C 
BRANCH   6   5
ATOM      1  F   UNL     1       5.716   2.475   0.000  0.00  0.00    -0.204 F 
ATOM      2  C   UNL     1       5.001   2.062   0.000  0.00  0.00    +0.140 A 
ATOM      3  C   UNL     1       5.001   1.238   0.000  0.00  0.00    +0.029 A 
ATOM      4  C   UNL     1       4.287   0.825   0.000  0.00  0.00    -0.000 A 
ATOM      5  C   UNL     1       3.572   1.238   0.000  0.00  0.00    -0.000 A 
ATOM     31  C   UNL     1       3.572   2.062   0.000  0.00  0.00    -0.000 A 
ATOM     32  C   UNL     1       4.287   2.475   0.000  0.00  0.00    +0.029 A 
ENDBRANCH   6   5
ENDBRANCH   7   6
ENDBRANCH  10   8
ENDBRANCH  11  10
BRANCH  16  17
ATOM     17  C   UNL     1       1.429  -1.650   0.000  0.00  0.00    +0.051 C 
BRANCH  17  18
ATOM     18  C   UNL     1       1.429  -2.475   0.000  0.00  0.00    +0.100 A 
ATOM     19  N   UNL     1       2.096  -2.960   0.000  0.00  0.00    -0.082 NA
ATOM     20  O   UNL     1       1.841  -3.744   0.000  0.00  0.00    -0.354 OA
ATOM     21  C   UNL     1       1.016  -3.744   0.000  0.00  0.00    +0.198 A 
ATOM     30  C   UNL     1       0.761  -2.960   0.000  0.00  0.00    +0.057 A 
BRANCH  21  22
ATOM     22  C   UNL     1       0.531  -4.412   0.000  0.00  0.00    +0.272 C 
BRANCH  22  23
ATOM     23  O   UNL     1       0.867  -5.166   0.000  0.00  0.00    -0.467 OA
BRANCH  23  24
ATOM     24  C   UNL     1       0.382  -5.833   0.000  0.00  0.00    +0.139 A 
ATOM     25  C   UNL     1       0.718  -6.587   0.000  0.00  0.00    +0.037 A 
ATOM     26  C   UNL     1       0.233  -7.254   0.000  0.00  0.00    +0.003 A 
ATOM     27  C   UNL     1      -0.588  -7.168   0.000  0.00  0.00    +0.000 A 
ATOM     28  C   UNL     1      -0.923  -6.414   0.000  0.00  0.00    +0.003 A 
ATOM     29  C   UNL     1      -0.438  -5.747   0.000  0.00  0.00    +0.037 A 
ENDBRANCH  23  24
ENDBRANCH  22  23
ENDBRANCH  21  22
ENDBRANCH  17  18
ENDBRANCH  16  17
TORSDOF 9
