REMARK  Name = 
REMARK  5 active torsions:
REMARK  status: ('A' for Active; 'I' for Inactive)
REMARK    1  A    between atoms: O_2  and  C_3
REMARK    2  A    between atoms: C_3  and  C_4
REMARK    3  A    between atoms: C_4  and  N_5
REMARK    4  A    between atoms: N_9  and  C_10
REMARK    5  A    between atoms: C_10  and  C_11
REMARK                            x       y       z     vdW  Elec       q    Type
REMARK                         _______ _______ _______ _____ _____    ______ ____
ROOT
ATOM      5  N   UNL     1       0.654  -0.698   0.000  0.00  0.00    -0.260 N 
ATOM      6  C   UNL     1       1.139  -0.030   0.000  0.00  0.00    +0.116 C 
ATOM      7  C   UNL     1       1.923  -0.285   0.000  0.00  0.00    +0.113 C 
ATOM      8  C   UNL     1       2.638   0.127   0.000  0.00  0.00    +0.094 C 
ATOM      9  N   UNL     1       3.352  -0.285   0.000  0.00  0.00    -0.266 NA
ATOM     18  C   UNL     1       3.352  -1.110   0.000  0.00  0.00    +0.094 C 
ATOM     19  C   UNL     1       2.638  -1.523   0.000  0.00  0.00    +0.112 C 
ATOM     20  N   UNL     1       1.923  -1.110   0.000  0.00  0.00    -0.261 N 
ATOM     21  C   UNL     1       1.139  -1.365   0.000  0.00  0.00    +0.307 C 
ATOM     22  O   UNL     1       0.884  -2.150   0.000  0.00  0.00    -0.252 OA
ENDROOT
BRANCH   5   4
ATOM      4  C   UNL     1      -0.171  -0.698   0.000  0.00  0.00    +0.127 C 
BRANCH   4   3
ATOM      3  C   UNL     1      -0.584  -1.412   0.000  0.00  0.00    +0.164 C 
BRANCH   3   2
ATOM      1  C   UNL     1      -1.821  -2.127   0.000  0.00  0.00    +0.174 C 
ATOM      2  O   UNL     1      -1.409  -1.412   0.000  0.00  0.00    -0.349 OA
ENDBRANCH   3   2
ENDBRANCH   4   3
ENDBRANCH   5   4
BRANCH   9  10
ATOM     10  C   UNL     1       4.067   0.127   0.000  0.00  0.00    +0.102 C 
BRANCH  10  11
ATOM     11  C   UNL     1       4.781  -0.285   0.000  0.00  0.00    +0.024 A 
ATOM     12  C   UNL     1       5.496   0.127   0.000  0.00  0.00    +0.020 A 
ATOM     13  C   UNL     1       6.210  -0.285   0.000  0.00  0.00    +0.099 A 
ATOM     14  N   UNL     1       6.210  -1.110   0.000  0.00  0.00    -0.240 NA
ATOM     15  C   UNL     1       5.496  -1.523   0.000  0.00  0.00    +0.128 A 
ATOM     16  C   UNL     1       4.781  -1.110   0.000  0.00  0.00    +0.157 A 
ATOM     17  F   UNL     1       4.067  -1.523   0.000  0.00  0.00    -0.203 F 
ENDBRANCH  10  11
ENDBRANCH   9  10
TORSDOF 5
