REMARK  Name = 
REMARK  9 active torsions:
REMARK  status: ('A' for Active; 'I' for Inactive)
REMARK    1  A    between atoms: C_2  and  C_4
REMARK    2  A    between atoms: C_6  and  C_7
REMARK    3  A    between atoms: C_7  and  C_8
REMARK    4  A    between atoms: N_10  and  C_11
REMARK    5  A    between atoms: C_11  and  C_12
REMARK    6  A    between atoms: C_12  and  N_13
REMARK    7  A    between atoms: C_22  and  C_23
REMARK    8  A    between atoms: C_23  and  N_24
REMARK    9  A    between atoms: N_27  and  C_28
REMARK                            x       y       z     vdW  Elec       q    Type
REMARK                         _______ _______ _______ _____ _____    ______ ____
ROOT
ATOM      4  C   UNL     1       0.000  -6.600   0.000  0.00  0.00    +0.006 C 
ATOM      5  C   UNL     1       0.715  -6.188   0.000  0.00  0.00    +0.005 C 
ATOM      6  C   UNL     1       1.429  -6.600   0.000  0.00  0.00    +0.027 C 
ATOM     19  C   UNL     1       1.429  -7.425   0.000  0.00  0.00    -0.048 C 
ATOM     20  C   UNL     1       2.143  -7.838   0.000  0.00  0.00    +0.026 C 
ATOM     21  C   UNL     1       0.715  -7.838   0.000  0.00  0.00    -0.033 C 
ATOM     22  C   UNL     1       0.000  -7.425   0.000  0.00  0.00    +0.043 C 
ENDROOT
BRANCH   4   2
ATOM      1  C   UNL     1      -1.429  -6.600   0.000  0.00  0.00    +0.000 C 
ATOM      2  C   UNL     1      -0.715  -6.188   0.000  0.00  0.00    +0.000 C 
ATOM      3  C   UNL     1      -0.715  -5.362   0.000  0.00  0.00    +0.000 C 
ENDBRANCH   4   2
BRANCH   6   7
ATOM      7  C   UNL     1       2.143  -6.188   0.000  0.00  0.00    +0.091 C 
BRANCH   7   8
ATOM      8  C   UNL     1       2.858  -6.600   0.000  0.00  0.00    +0.242 C 
ATOM      9  O   UNL     1       2.858  -7.425   0.000  0.00  0.00    -0.273 OA
ATOM     10  N   UNL     1       3.572  -6.188   0.000  0.00  0.00    -0.204 NA
BRANCH  10  11
ATOM     11  C   UNL     1       4.287  -6.600   0.000  0.00  0.00    +0.132 C 
BRANCH  11  12
ATOM     12  C   UNL     1       5.001  -6.188   0.000  0.00  0.00    +0.096 C 
BRANCH  12  13
ATOM     13  N   UNL     1       5.716  -6.600   0.000  0.00  0.00    -0.267 NA
ATOM     14  C   UNL     1       6.430  -6.188   0.000  0.00  0.00    +0.105 C 
ATOM     15  C   UNL     1       7.145  -6.600   0.000  0.00  0.00    +0.159 C 
ATOM     16  O   UNL     1       7.145  -7.425   0.000  0.00  0.00    -0.351 OA
ATOM     17  C   UNL     1       6.430  -7.838   0.000  0.00  0.00    +0.159 C 
ATOM     18  C   UNL     1       5.716  -7.425   0.000  0.00  0.00    +0.105 C 
ENDBRANCH  12  13
ENDBRANCH  11  12
ENDBRANCH  10  11
ENDBRANCH   7   8
ENDBRANCH   6   7
BRANCH  22  23
ATOM     23  C   UNL     1      -0.715  -7.838   0.000  0.00  0.00    +0.121 C 
BRANCH  23  24
ATOM     24  N   UNL     1      -0.715  -8.662   0.000  0.00  0.00    -0.187 NA
ATOM     25  C   UNL     1      -1.429  -9.075   0.000  0.00  0.00    +0.344 C 
ATOM     26  O   UNL     1      -2.143  -8.662   0.000  0.00  0.00    -0.249 OA
ATOM     27  N   UNL     1      -1.429  -9.900   0.000  0.00  0.00    -0.161 NA
BRANCH  27  28
ATOM     28  C   UNL     1      -2.143 -10.312   0.000  0.00  0.00    +0.075 A 
ATOM     29  C   UNL     1      -2.143 -11.137   0.000  0.00  0.00    +0.017 A 
ATOM     30  C   UNL     1      -2.858 -11.550   0.000  0.00  0.00    +0.001 A 
ATOM     31  C   UNL     1      -3.572 -11.137   0.000  0.00  0.00    +0.000 A 
ATOM     32  C   UNL     1      -3.572 -10.312   0.000  0.00  0.00    +0.001 A 
ATOM     33  C   UNL     1      -2.858  -9.900   0.000  0.00  0.00    +0.017 A 
ENDBRANCH  27  28
ENDBRANCH  23  24
ENDBRANCH  22  23
TORSDOF 9
