REMARK  Name = 
REMARK  5 active torsions:
REMARK  status: ('A' for Active; 'I' for Inactive)
REMARK    1  A    between atoms: C_2  and  C_3
REMARK    2  A    between atoms: C_3  and  O_4
REMARK    3  A    between atoms: O_4  and  C_5
REMARK    4  A    between atoms: C_12  and  C_17
REMARK    5  A    between atoms: C_17  and  C_19
REMARK                            x       y       z     vdW  Elec       q    Type
REMARK                         _______ _______ _______ _____ _____    ______ ____
ROOT
ATOM      5  C   UNL     1       0.715  -1.238   0.000  0.00  0.00    +0.134 A 
ATOM      6  C   UNL     1       0.715  -0.412   0.000  0.00  0.00    +0.032 A 
ATOM      7  C   UNL     1       1.429   0.000   0.000  0.00  0.00    -0.023 A 
ATOM      8  C   UNL     1       1.429   0.825   0.000  0.00  0.00    +0.031 C 
ATOM      9  C   UNL     1       2.143  -0.412   0.000  0.00  0.00    -0.030 A 
ATOM     10  C   UNL     1       2.858   0.000   0.000  0.00  0.00    +0.026 C 
ATOM     11  C   UNL     1       3.572  -0.412   0.000  0.00  0.00    +0.005 C 
ATOM     12  C   UNL     1       3.572  -1.238   0.000  0.00  0.00    +0.013 C 
ATOM     13  C   UNL     1       2.858  -1.650   0.000  0.00  0.00    +0.026 C 
ATOM     14  C   UNL     1       2.143  -1.238   0.000  0.00  0.00    -0.027 A 
ATOM     15  C   UNL     1       1.429  -1.650   0.000  0.00  0.00    +0.008 A 
ATOM     16  C   UNL     1       1.429  -2.475   0.000  0.00  0.00    +0.034 C 
ENDROOT
BRANCH  12  17
ATOM     17  C   UNL     1       4.287  -1.650   0.000  0.00  0.00    +0.077 C 
ATOM     18  C   UNL     1       4.287  -2.475   0.000  0.00  0.00    +0.010 C 
BRANCH  17  19
ATOM     19  C   UNL     1       5.001  -1.238   0.000  0.00  0.00    +0.225 C 
ATOM     20  O   UNL     1       5.001  -0.412   0.000  0.00  0.00    -0.275 OA
ATOM     21  N   UNL     1       5.716  -1.650   0.000  0.00  0.00    -0.279 N 
ATOM     22  C   UNL     1       6.430  -1.238   0.000  0.00  0.00    +0.096 C 
ATOM     23  C   UNL     1       7.145  -1.650   0.000  0.00  0.00    +0.054 C 
ATOM     24  C   UNL     1       7.145  -2.475   0.000  0.00  0.00    +0.155 C 
ATOM     25  O   UNL     1       7.859  -2.888   0.000  0.00  0.00    -0.223 OA
ATOM     26  C   UNL     1       6.430  -2.888   0.000  0.00  0.00    +0.054 C 
ATOM     27  C   UNL     1       5.716  -2.475   0.000  0.00  0.00    +0.096 C 
ENDBRANCH  17  19
ENDBRANCH  12  17
BRANCH   5   4
ATOM      4  O   UNL     1       0.000  -1.650   0.000  0.00  0.00    -0.476 OA
BRANCH   4   3
ATOM      3  C   UNL     1      -0.715  -1.238   0.000  0.00  0.00    +0.205 C 
BRANCH   3   2
ATOM      1  C   UNL     1      -2.143  -1.238   0.000  0.00  0.00    +0.004 C 
ATOM      2  C   UNL     1      -1.429  -1.650   0.000  0.00  0.00    +0.047 C 
ENDBRANCH   3   2
ENDBRANCH   4   3
ENDBRANCH   5   4
TORSDOF 5
