REMARK  Name = 
REMARK  5 active torsions:
REMARK  status: ('A' for Active; 'I' for Inactive)
REMARK    1  A    between atoms: O_2  and  C_3
REMARK    2  A    between atoms: C_6  and  S_9
REMARK    3  A    between atoms: S_9  and  N_12
REMARK    4  A    between atoms: N_12  and  C_13
REMARK    5  A    between atoms: C_23  and  C_25
REMARK                            x       y       z     vdW  Elec       q    Type
REMARK                         _______ _______ _______ _____ _____    ______ ____
ROOT
ATOM     13  C   UNL     1      -1.296  -1.150   0.000  0.00  0.00    +0.147 A 
ATOM     14  C   UNL     1      -1.167  -0.335   0.000  0.00  0.00    +0.024 A 
ATOM     15  C   UNL     1      -0.397  -0.039   0.000  0.00  0.00    +0.014 A 
ATOM     16  C   UNL     1       0.244  -0.558   0.000  0.00  0.00    +0.041 A 
ATOM     17  C   UNL     1       1.163  -0.557   0.000  0.00  0.00    +0.058 C 
ATOM     18  C   UNL     1       1.713  -0.121   0.000  0.00  0.00    +0.011 C 
ATOM     19  C   UNL     1       1.582  -0.925   0.000  0.00  0.00    +0.043 C 
ATOM     20  C   UNL     1       1.629  -1.912   0.000  0.00  0.00    +0.096 C 
ATOM     21  N   UNL     1       0.813  -2.091   0.000  0.00  0.00    -0.270 N 
ATOM     22  C   UNL     1       1.225  -1.510   0.000  0.00  0.00    +0.100 C 
ATOM     23  C   UNL     1       0.536  -2.945   0.000  0.00  0.00    +0.329 C 
ATOM     24  O   UNL     1       0.673  -3.789   0.000  0.00  0.00    -0.263 OA
ATOM     28  C   UNL     1       0.622  -0.936   0.000  0.00  0.00    +0.110 C 
ATOM     29  N   UNL     1       0.115  -1.373   0.000  0.00  0.00    -0.298 N 
ATOM     30  C   UNL     1      -0.655  -1.669   0.000  0.00  0.00    +0.277 A 
ATOM     31  O   UNL     1      -0.936  -2.506   0.000  0.00  0.00    -0.266 OA
ENDROOT
BRANCH  23  25
ATOM     25  C   UNL     1      -0.325  -2.807   0.000  0.00  0.00    +0.440 C 
ATOM     26  O   UNL     1      -1.219  -3.182   0.000  0.00  0.00    -0.235 OA
ATOM     27  O   UNL     1      -0.106  -1.951   0.000  0.00  0.00    -0.235 OA
ENDBRANCH  23  25
BRANCH  13  12
ATOM     12  N   UNL     1      -2.088  -1.553   0.000  0.00  0.00    -0.092 NA
BRANCH  12   9
ATOM      9  S   UNL     1      -2.799  -1.074   0.000  0.00  0.00    +0.093 S 
ATOM     10  O   UNL     1      -3.345  -1.738   0.000  0.00  0.00    -0.148 OA
ATOM     11  O   UNL     1      -2.253  -0.388   0.000  0.00  0.00    -0.148 OA
BRANCH   9   6
ATOM      3  C   UNL     1      -4.631   0.631   0.000  0.00  0.00    +0.139 A 
ATOM      4  C   UNL     1      -3.861   0.927   0.000  0.00  0.00    +0.038 A 
ATOM      5  C   UNL     1      -3.220   0.408   0.000  0.00  0.00    +0.023 A 
ATOM      6  C   UNL     1      -3.349  -0.407   0.000  0.00  0.00    +0.127 A 
ATOM      7  C   UNL     1      -4.119  -0.703   0.000  0.00  0.00    +0.023 A 
ATOM      8  C   UNL     1      -4.760  -0.184   0.000  0.00  0.00    +0.038 A 
BRANCH   3   2
ATOM      1  C   UNL     1      -6.042   0.854   0.000  0.00  0.00    +0.252 C 
ATOM      2  O   UNL     1      -5.272   1.150   0.000  0.00  0.00    -0.471 OA
ENDBRANCH   3   2
ENDBRANCH   9   6
ENDBRANCH  12   9
ENDBRANCH  13  12
TORSDOF 5
