REMARK  Name = 
REMARK  3 active torsions:
REMARK  status: ('A' for Active; 'I' for Inactive)
REMARK    1  A    between atoms: C_2  and  N_3
REMARK    2  A    between atoms: C_2  and  C_22
REMARK    3  A    between atoms: C_14  and  C_16
REMARK                            x       y       z     vdW  Elec       q    Type
REMARK                         _______ _______ _______ _____ _____    ______ ____
ROOT
ATOM      3  N   UNL     1       0.654  -0.698   0.000  0.00  0.00    -0.210 N 
ATOM      4  C   UNL     1       1.139  -0.030   0.000  0.00  0.00    +0.253 C 
ATOM      5  O   UNL     1       0.884   0.754   0.000  0.00  0.00    -0.273 OA
ATOM      6  C   UNL     1       1.923  -0.285   0.000  0.00  0.00    +0.174 C 
ATOM      7  C   UNL     1       2.638   0.127   0.000  0.00  0.00    +0.123 C 
ATOM      8  N   UNL     1       3.352  -0.285   0.000  0.00  0.00    -0.272 N 
ATOM      9  C   UNL     1       3.352  -1.110   0.000  0.00  0.00    +0.115 C 
ATOM     10  C   UNL     1       2.638  -1.523   0.000  0.00  0.00    +0.117 C 
ATOM     11  N   UNL     1       1.923  -1.110   0.000  0.00  0.00    -0.254 N 
ATOM     12  C   UNL     1       1.139  -1.365   0.000  0.00  0.00    +0.314 C 
ATOM     13  O   UNL     1       0.884  -2.150   0.000  0.00  0.00    -0.252 OA
ATOM     14  C   UNL     1       4.067   0.127   0.000  0.00  0.00    +0.251 C 
ATOM     15  O   UNL     1       4.067   0.952   0.000  0.00  0.00    -0.270 OA
ENDROOT
BRANCH  14  16
ATOM     16  C   UNL     1       4.781  -0.285   0.000  0.00  0.00    +0.073 A 
ATOM     17  C   UNL     1       5.496   0.127   0.000  0.00  0.00    +0.103 A 
ATOM     18  N   UNL     1       6.210  -0.285   0.000  0.00  0.00    -0.242 NA
ATOM     19  C   UNL     1       6.210  -1.110   0.000  0.00  0.00    +0.099 A 
ATOM     20  C   UNL     1       5.496  -1.523   0.000  0.00  0.00    +0.021 A 
ATOM     21  C   UNL     1       4.781  -1.110   0.000  0.00  0.00    +0.008 A 
ENDBRANCH  14  16
BRANCH   3   2
ATOM      1  C   UNL     1      -0.584  -1.412   0.000  0.00  0.00    +0.027 C 
ATOM      2  C   UNL     1      -0.171  -0.698   0.000  0.00  0.00    +0.106 C 
BRANCH   2  22
ATOM     22  C   UNL     1      -0.584   0.017   0.000  0.00  0.00    -0.004 A 
ATOM     23  C   UNL     1      -1.409   0.017   0.000  0.00  0.00    -0.003 A 
ATOM     24  C   UNL     1      -1.821   0.731   0.000  0.00  0.00    -0.000 A 
ATOM     25  C   UNL     1      -1.409   1.446   0.000  0.00  0.00    -0.000 A 
ATOM     26  C   UNL     1      -0.584   1.446   0.000  0.00  0.00    -0.000 A 
ATOM     27  C   UNL     1      -0.171   0.731   0.000  0.00  0.00    -0.003 A 
ENDBRANCH   2  22
ENDBRANCH   3   2
TORSDOF 3
