REMARK  Name = 
REMARK  3 active torsions:
REMARK  status: ('A' for Active; 'I' for Inactive)
REMARK    1  A    between atoms: C_13  and  N_14
REMARK    2  A    between atoms: N_17  and  C_18
REMARK    3  A    between atoms: C_20  and  C_24
REMARK                            x       y       z     vdW  Elec       q    Type
REMARK                         _______ _______ _______ _____ _____    ______ ____
ROOT
ATOM      1  C   UNL     1      -0.614  -2.179   0.000  0.00  0.00    +0.095 C 
ATOM      2  C   UNL     1       0.125  -2.547   0.000  0.00  0.00    +0.226 C 
ATOM      3  O   UNL     1       0.176  -3.370   0.000  0.00  0.00    -0.275 OA
ATOM      4  N   UNL     1       0.813  -2.091   0.000  0.00  0.00    -0.279 N 
ATOM      5  C   UNL     1       1.629  -1.912   0.000  0.00  0.00    +0.095 C 
ATOM      6  C   UNL     1       1.582  -0.925   0.000  0.00  0.00    +0.043 C 
ATOM      7  C   UNL     1       1.713  -0.121   0.000  0.00  0.00    +0.011 C 
ATOM      8  C   UNL     1       1.163  -0.557   0.000  0.00  0.00    +0.058 C 
ATOM      9  C   UNL     1       1.225  -1.510   0.000  0.00  0.00    +0.099 C 
ATOM     10  C   UNL     1       0.244  -0.558   0.000  0.00  0.00    +0.041 A 
ATOM     11  C   UNL     1      -0.397  -0.039   0.000  0.00  0.00    +0.014 A 
ATOM     12  C   UNL     1      -1.167  -0.335   0.000  0.00  0.00    +0.023 A 
ATOM     13  C   UNL     1      -1.296  -1.150   0.000  0.00  0.00    +0.131 A 
ATOM     26  C   UNL     1      -0.655  -1.669   0.000  0.00  0.00    +0.276 A 
ATOM     27  O   UNL     1      -1.029  -2.404   0.000  0.00  0.00    -0.266 OA
ATOM     28  N   UNL     1       0.115  -1.373   0.000  0.00  0.00    -0.298 N 
ATOM     29  C   UNL     1       0.622  -0.936   0.000  0.00  0.00    +0.110 C 
ENDROOT
BRANCH  13  14
ATOM     14  N   UNL     1      -2.066  -1.445   0.000  0.00  0.00    -0.156 NA
ATOM     15  C   UNL     1      -2.707  -0.926   0.000  0.00  0.00    +0.348 C 
ATOM     16  O   UNL     1      -2.578  -0.111   0.000  0.00  0.00    -0.248 OA
ATOM     17  N   UNL     1      -3.478  -1.222   0.000  0.00  0.00    -0.161 NA
BRANCH  17  18
ATOM     18  C   UNL     1      -4.119  -0.703   0.000  0.00  0.00    +0.076 A 
ATOM     19  C   UNL     1      -4.889  -0.999   0.000  0.00  0.00    +0.027 A 
ATOM     20  C   UNL     1      -5.530  -0.480   0.000  0.00  0.00    +0.070 A 
ATOM     21  C   UNL     1      -5.401   0.335   0.000  0.00  0.00    +0.010 A 
ATOM     22  C   UNL     1      -4.631   0.631   0.000  0.00  0.00    +0.002 A 
ATOM     23  C   UNL     1      -3.990   0.112   0.000  0.00  0.00    +0.017 A 
BRANCH  20  24
ATOM     24  C   UNL     1      -6.300  -0.775   0.000  0.00  0.00    +0.100 C 
ATOM     25  N   UNL     1      -7.070  -1.071   0.000  0.00  0.00    -0.191 NA
ENDBRANCH  20  24
ENDBRANCH  17  18
ENDBRANCH  13  14
TORSDOF 3
