REMARK  Name = 
REMARK  5 active torsions:
REMARK  status: ('A' for Active; 'I' for Inactive)
REMARK    1  A    between atoms: C_5  and  C_6
REMARK    2  A    between atoms: C_6  and  N_7
REMARK    3  A    between atoms: C_8  and  C_10
REMARK    4  A    between atoms: N_15  and  C_16
REMARK    5  A    between atoms: C_16  and  C_17
REMARK                            x       y       z     vdW  Elec       q    Type
REMARK                         _______ _______ _______ _____ _____    ______ ____
ROOT
ATOM     10  C   UNL     1       2.070   1.110   0.000  0.00  0.00    +0.143 C 
ATOM     11  C   UNL     1       1.356   0.698   0.000  0.00  0.00    +0.072 C 
ATOM     12  C   UNL     1       0.641   1.110   0.000  0.00  0.00    +0.077 A 
ATOM     13  C   UNL     1       0.641   1.935   0.000  0.00  0.00    +0.090 A 
ATOM     14  C   UNL     1       1.356   2.348   0.000  0.00  0.00    +0.121 C 
ATOM     15  N   UNL     1       2.070   1.935   0.000  0.00  0.00    -0.257 NA
ATOM     22  N   UNL     1      -0.143   2.190   0.000  0.00  0.00    -0.226 NA
ATOM     23  C   UNL     1      -0.628   1.523   0.000  0.00  0.00    +0.198 A 
ATOM     24  N   UNL     1      -0.143   0.856   0.000  0.00  0.00    -0.227 NA
ENDROOT
BRANCH  10   8
ATOM      7  N   UNL     1       3.499   1.110   0.000  0.00  0.00    -0.199 NA
ATOM      8  C   UNL     1       2.784   0.698   0.000  0.00  0.00    +0.257 C 
ATOM      9  O   UNL     1       2.784  -0.127   0.000  0.00  0.00    -0.272 OA
BRANCH   7   6
ATOM      6  C   UNL     1       3.499   1.935   0.000  0.00  0.00    +0.142 C 
BRANCH   6   5
ATOM      1 CL   UNL     1       6.357   3.585   0.000  0.00  0.00    -0.082 Cl
ATOM      2  C   UNL     1       5.642   3.173   0.000  0.00  0.00    +0.058 A 
ATOM      3  C   UNL     1       5.642   2.348   0.000  0.00  0.00    +0.011 A 
ATOM      4  C   UNL     1       4.928   1.935   0.000  0.00  0.00    -0.002 A 
ATOM      5  C   UNL     1       4.213   2.348   0.000  0.00  0.00    -0.001 A 
ATOM     25  C   UNL     1       4.213   3.173   0.000  0.00  0.00    -0.002 A 
ATOM     26  C   UNL     1       4.928   3.585   0.000  0.00  0.00    +0.011 A 
ENDBRANCH   6   5
ENDBRANCH   7   6
ENDBRANCH  10   8
BRANCH  15  16
ATOM     16  C   UNL     1       2.784   2.348   0.000  0.00  0.00    +0.106 C 
BRANCH  16  17
ATOM     17  C   UNL     1       2.784   3.173   0.000  0.00  0.00    +0.023 A 
ATOM     18  C   UNL     1       2.117   3.658   0.000  0.00  0.00    +0.004 A 
ATOM     19  C   UNL     1       2.372   4.442   0.000  0.00  0.00    +0.007 A 
ATOM     20  C   UNL     1       3.197   4.442   0.000  0.00  0.00    +0.035 A 
ATOM     21  S   UNL     1       3.452   3.658   0.000  0.00  0.00    -0.089 S 
ENDBRANCH  16  17
ENDBRANCH  15  16
TORSDOF 5
