REMARK  Name = 
REMARK  6 active torsions:
REMARK  status: ('A' for Active; 'I' for Inactive)
REMARK    1  A    between atoms: O_2  and  C_3
REMARK    2  A    between atoms: C_6  and  C_9
REMARK    3  A    between atoms: C_12  and  C_14
REMARK    4  A    between atoms: N_18  and  C_19
REMARK    5  A    between atoms: C_19  and  C_20
REMARK    6  A    between atoms: C_25  and  O_26
REMARK                            x       y       z     vdW  Elec       q    Type
REMARK                         _______ _______ _______ _____ _____    ______ ____
ROOT
ATOM     14  C   UNL     1       1.946  -4.727   0.000  0.00  0.00    +0.138 C 
ATOM     15  C   UNL     1       2.771  -4.727   0.000  0.00  0.00    +0.027 C 
ATOM     16  C   UNL     1       3.026  -5.512   0.000  0.00  0.00    +0.019 C 
ATOM     17  C   UNL     1       2.358  -5.997   0.000  0.00  0.00    +0.073 C 
ATOM     18  N   UNL     1       1.691  -5.512   0.000  0.00  0.00    -0.263 NA
ENDROOT
BRANCH  14  12
ATOM      9  C   UNL     1       1.048  -2.790   0.000  0.00  0.00    +0.205 A 
ATOM     10  N   UNL     1       0.381  -3.275   0.000  0.00  0.00    -0.056 NA
ATOM     11  O   UNL     1       0.636  -4.060   0.000  0.00  0.00    -0.336 OA
ATOM     12  C   UNL     1       1.461  -4.060   0.000  0.00  0.00    +0.251 A 
ATOM     13  N   UNL     1       1.716  -3.275   0.000  0.00  0.00    -0.190 NA
BRANCH   9   6
ATOM      3  C   UNL     1       1.048  -0.315   0.000  0.00  0.00    +0.225 A 
ATOM      4  N   UNL     1       1.763  -0.728   0.000  0.00  0.00    -0.210 NA
ATOM      5  C   UNL     1       1.763  -1.553   0.000  0.00  0.00    +0.105 A 
ATOM      6  C   UNL     1       1.048  -1.965   0.000  0.00  0.00    +0.058 A 
ATOM      7  C   UNL     1       0.334  -1.553   0.000  0.00  0.00    +0.010 A 
ATOM      8  C   UNL     1       0.334  -0.728   0.000  0.00  0.00    +0.058 A 
BRANCH   3   2
ATOM      1  C   UNL     1       0.334   0.922   0.000  0.00  0.00    +0.254 C 
ATOM      2  O   UNL     1       1.048   0.510   0.000  0.00  0.00    -0.456 OA
ENDBRANCH   3   2
ENDBRANCH   9   6
ENDBRANCH  14  12
BRANCH  18  19
ATOM     19  C   UNL     1       0.906  -5.767   0.000  0.00  0.00    +0.103 C 
BRANCH  19  20
ATOM     20  C   UNL     1       0.735  -6.574   0.000  0.00  0.00    +0.028 A 
ATOM     21  C   UNL     1       1.348  -7.126   0.000  0.00  0.00    +0.000 A 
ATOM     22  C   UNL     1       1.176  -7.933   0.000  0.00  0.00    -0.000 A 
ATOM     23  C   UNL     1       0.392  -8.188   0.000  0.00  0.00    +0.003 A 
ATOM     24  C   UNL     1      -0.221  -7.636   0.000  0.00  0.00    +0.037 A 
ATOM     25  C   UNL     1      -0.050  -6.829   0.000  0.00  0.00    +0.136 A 
BRANCH  25  26
ATOM     26  O   UNL     1      -0.663  -6.277   0.000  0.00  0.00    -0.472 OA
ATOM     27  C   UNL     1      -0.491  -5.470   0.000  0.00  0.00    +0.252 C 
ENDBRANCH  25  26
ENDBRANCH  19  20
ENDBRANCH  18  19
TORSDOF 6
