REMARK  Name = 
REMARK  6 active torsions:
REMARK  status: ('A' for Active; 'I' for Inactive)
REMARK    1  A    between atoms: C_2  and  C_5
REMARK    2  A    between atoms: C_5  and  C_6
REMARK    3  A    between atoms: N_8  and  C_9
REMARK    4  A    between atoms: C_9  and  C_10
REMARK    5  A    between atoms: C_13  and  N_14
REMARK    6  A    between atoms: N_14  and  C_15
REMARK                            x       y       z     vdW  Elec       q    Type
REMARK                         _______ _______ _______ _____ _____    ______ ____
ROOT
ATOM     10  C   UNL     1       0.397   4.256   0.000  0.00  0.00    +0.169 C 
ATOM     11  O   UNL     1       0.809   4.970   0.000  0.00  0.00    -0.350 OA
ATOM     12  C   UNL     1       1.616   4.799   0.000  0.00  0.00    +0.162 C 
ATOM     13  C   UNL     1       1.703   3.978   0.000  0.00  0.00    +0.135 C 
ATOM     19  C   UNL     1       0.949   3.643   0.000  0.00  0.00    +0.199 C 
ATOM     20  O   UNL     1       0.777   2.836   0.000  0.00  0.00    -0.219 OA
ENDROOT
BRANCH  10   9
ATOM      9  C   UNL     1      -0.423   4.170   0.000  0.00  0.00    +0.147 C 
BRANCH   9   8
ATOM      6  C   UNL     1      -1.729   4.751   0.000  0.00  0.00    +0.241 C 
ATOM      7  O   UNL     1      -2.064   3.997   0.000  0.00  0.00    -0.273 OA
ATOM      8  N   UNL     1      -0.908   4.837   0.000  0.00  0.00    -0.203 NA
BRANCH   6   5
ATOM      5  C   UNL     1      -2.214   5.418   0.000  0.00  0.00    +0.087 C 
BRANCH   5   2
ATOM      1  C   UNL     1      -3.855   5.246   0.000  0.00  0.00    +0.000 C 
ATOM      2  C   UNL     1      -3.034   5.332   0.000  0.00  0.00    +0.009 C 
ATOM      3  C   UNL     1      -2.948   4.511   0.000  0.00  0.00    +0.000 C 
ATOM      4  C   UNL     1      -3.121   6.152   0.000  0.00  0.00    +0.000 C 
ENDBRANCH   5   2
ENDBRANCH   6   5
ENDBRANCH   9   8
ENDBRANCH  10   9
BRANCH  13  14
ATOM     14  N   UNL     1       2.417   3.566   0.000  0.00  0.00    -0.211 NA
BRANCH  14  15
ATOM     15  C   UNL     1       2.417   2.741   0.000  0.00  0.00    +0.132 C 
ATOM     16  C   UNL     1       3.001   2.157   0.000  0.00  0.00    +0.162 C 
ATOM     17  O   UNL     1       2.417   1.574   0.000  0.00  0.00    -0.351 OA
ATOM     18  C   UNL     1       1.834   2.157   0.000  0.00  0.00    +0.162 C 
ENDBRANCH  14  15
ENDBRANCH  13  14
TORSDOF 6
