REMARK  Name = 
REMARK  7 active torsions:
REMARK  status: ('A' for Active; 'I' for Inactive)
REMARK    1  A    between atoms: O_2  and  C_3
REMARK    2  A    between atoms: C_6  and  S_9
REMARK    3  A    between atoms: S_9  and  N_12
REMARK    4  A    between atoms: N_12  and  C_13
REMARK    5  A    between atoms: C_13  and  C_14
REMARK    6  A    between atoms: C_16  and  C_17
REMARK    7  A    between atoms: C_21  and  N_22
REMARK                            x       y       z     vdW  Elec       q    Type
REMARK                         _______ _______ _______ _____ _____    ______ ____
ROOT
ATOM     14  C   UNL     1      -2.183  -0.336   0.000  0.00  0.00    +0.152 C 
ATOM     15  O   UNL     1      -2.735   0.278   0.000  0.00  0.00    -0.350 OA
ATOM     16  C   UNL     1      -2.322   0.992   0.000  0.00  0.00    +0.180 C 
ATOM     19  C   UNL     1      -1.515   0.821   0.000  0.00  0.00    +0.198 C 
ATOM     20  O   UNL     1      -0.902   1.373   0.000  0.00  0.00    -0.219 OA
ATOM     21  C   UNL     1      -1.429   0.000   0.000  0.00  0.00    +0.120 C 
ENDROOT
BRANCH  21  22
ATOM     22  N   UNL     1      -0.715  -0.412   0.000  0.00  0.00    -0.266 NA
ATOM     23  C   UNL     1      -0.715  -1.238   0.000  0.00  0.00    +0.077 C 
ATOM     24  C   UNL     1       0.000  -1.650   0.000  0.00  0.00    +0.043 C 
ATOM     25  C   UNL     1       0.715  -1.238   0.000  0.00  0.00    -0.023 A 
ATOM     26  C   UNL     1       0.715  -0.412   0.000  0.00  0.00    -0.010 A 
ATOM     27  C   UNL     1       0.000   0.000   0.000  0.00  0.00    +0.099 C 
ATOM     28  C   UNL     1       1.429   0.000   0.000  0.00  0.00    -0.003 A 
ATOM     29  C   UNL     1       2.143  -0.412   0.000  0.00  0.00    -0.000 A 
ATOM     30  C   UNL     1       2.143  -1.238   0.000  0.00  0.00    -0.000 A 
ATOM     31  C   UNL     1       1.429  -1.650   0.000  0.00  0.00    -0.004 A 
ENDBRANCH  21  22
BRANCH  16  17
ATOM     17  C   UNL     1      -2.658   1.746   0.000  0.00  0.00    +0.214 C 
ATOM     18  O   UNL     1      -2.173   2.413   0.000  0.00  0.00    -0.218 OA
ENDBRANCH  16  17
BRANCH  14  13
ATOM     13  C   UNL     1      -2.354  -1.143   0.000  0.00  0.00    +0.146 C 
BRANCH  13  12
ATOM     12  N   UNL     1      -3.139  -1.397   0.000  0.00  0.00    -0.075 NA
BRANCH  12   9
ATOM      9  S   UNL     1      -3.310  -2.204   0.000  0.00  0.00    +0.077 S 
ATOM     10  O   UNL     1      -2.503  -2.376   0.000  0.00  0.00    -0.152 OA
ATOM     11  O   UNL     1      -4.117  -2.033   0.000  0.00  0.00    -0.152 OA
BRANCH   9   6
ATOM      3  C   UNL     1      -3.825  -4.625   0.000  0.00  0.00    +0.139 A 
ATOM      4  C   UNL     1      -4.438  -4.073   0.000  0.00  0.00    +0.038 A 
ATOM      5  C   UNL     1      -4.266  -3.266   0.000  0.00  0.00    +0.023 A 
ATOM      6  C   UNL     1      -3.482  -3.011   0.000  0.00  0.00    +0.124 A 
ATOM      7  C   UNL     1      -2.869  -3.563   0.000  0.00  0.00    +0.023 A 
ATOM      8  C   UNL     1      -3.040  -4.370   0.000  0.00  0.00    +0.038 A 
BRANCH   3   2
ATOM      1  C   UNL     1      -3.383  -5.984   0.000  0.00  0.00    +0.252 C 
ATOM      2  O   UNL     1      -3.996  -5.432   0.000  0.00  0.00    -0.471 OA
ENDBRANCH   3   2
ENDBRANCH   9   6
ENDBRANCH  12   9
ENDBRANCH  13  12
ENDBRANCH  14  13
TORSDOF 7
