REMARK  Name = 
REMARK  10 active torsions:
REMARK  status: ('A' for Active; 'I' for Inactive)
REMARK    1  A    between atoms: C_2  and  C_4
REMARK    2  A    between atoms: C_4  and  C_5
REMARK    3  A    between atoms: C_10  and  C_11
REMARK    4  A    between atoms: C_11  and  C_12
REMARK    5  A    between atoms: C_12  and  N_13
REMARK    6  A    between atoms: N_13  and  C_14
REMARK    7  A    between atoms: N_13  and  C_22
REMARK    8  A    between atoms: C_14  and  C_15
REMARK    9  A    between atoms: C_15  and  N_16
REMARK   10  A    between atoms: C_28  and  C_30
REMARK                            x       y       z     vdW  Elec       q    Type
REMARK                         _______ _______ _______ _____ _____    ______ ____
ROOT
ATOM      5  C   UNL     1      -1.429  -4.950   0.000  0.00  0.00    +0.015 C 
ATOM      6  C   UNL     1      -2.143  -5.362   0.000  0.00  0.00    +0.022 C 
ATOM      7  C   UNL     1      -2.858  -4.950   0.000  0.00  0.00    +0.094 C 
ATOM      8  N   UNL     1      -2.858  -4.125   0.000  0.00  0.00    -0.276 N 
ATOM      9  C   UNL     1      -2.143  -3.712   0.000  0.00  0.00    +0.094 C 
ATOM     10  C   UNL     1      -1.429  -4.125   0.000  0.00  0.00    +0.022 C 
ATOM     28  C   UNL     1      -3.572  -3.712   0.000  0.00  0.00    +0.249 C 
ATOM     29  O   UNL     1      -3.572  -2.888   0.000  0.00  0.00    -0.270 OA
ENDROOT
BRANCH  28  30
ATOM     30  C   UNL     1      -4.287  -4.125   0.000  0.00  0.00    +0.054 A 
ATOM     31  C   UNL     1      -4.287  -4.950   0.000  0.00  0.00    +0.005 A 
ATOM     32  C   UNL     1      -5.001  -5.362   0.000  0.00  0.00    +0.000 A 
ATOM     33  C   UNL     1      -5.716  -4.950   0.000  0.00  0.00    +0.000 A 
ATOM     34  C   UNL     1      -5.716  -4.125   0.000  0.00  0.00    +0.000 A 
ATOM     35  C   UNL     1      -5.001  -3.712   0.000  0.00  0.00    +0.005 A 
ENDBRANCH  28  30
BRANCH   5   4
ATOM      4  C   UNL     1      -0.715  -5.362   0.000  0.00  0.00    +0.114 C 
BRANCH   4   2
ATOM      1  O   UNL     1       0.000  -6.600   0.000  0.00  0.00    -0.246 OA
ATOM      2  C   UNL     1      -0.715  -6.188   0.000  0.00  0.00    +0.365 C 
ATOM      3  O   UNL     1      -1.429  -6.600   0.000  0.00  0.00    -0.246 OA
ENDBRANCH   4   2
ENDBRANCH   5   4
BRANCH  10  11
ATOM     11  C   UNL     1      -0.715  -3.712   0.000  0.00  0.00    +0.023 C 
BRANCH  11  12
ATOM     12  C   UNL     1       0.000  -4.125   0.000  0.00  0.00    +0.091 C 
BRANCH  12  13
ATOM     13  N   UNL     1       0.715  -3.712   0.000  0.00  0.00    -0.306 N 
BRANCH  13  22
ATOM     22  C   UNL     1       0.715  -2.888   0.000  0.00  0.00    +0.048 A 
ATOM     23  C   UNL     1       0.000  -2.475   0.000  0.00  0.00    +0.015 A 
ATOM     24  C   UNL     1       0.000  -1.650   0.000  0.00  0.00    +0.001 A 
ATOM     25  C   UNL     1       0.715  -1.238   0.000  0.00  0.00    +0.000 A 
ATOM     26  C   UNL     1       1.429  -1.650   0.000  0.00  0.00    +0.001 A 
ATOM     27  C   UNL     1       1.429  -2.475   0.000  0.00  0.00    +0.015 A 
ENDBRANCH  13  22
BRANCH  13  14
ATOM     14  C   UNL     1       1.429  -4.125   0.000  0.00  0.00    +0.108 C 
BRANCH  14  15
ATOM     15  C   UNL     1       2.143  -3.712   0.000  0.00  0.00    +0.094 C 
BRANCH  15  16
ATOM     16  N   UNL     1       2.858  -4.125   0.000  0.00  0.00    -0.267 NA
ATOM     17  C   UNL     1       3.572  -3.712   0.000  0.00  0.00    +0.105 C 
ATOM     18  C   UNL     1       4.287  -4.125   0.000  0.00  0.00    +0.159 C 
ATOM     19  O   UNL     1       4.287  -4.950   0.000  0.00  0.00    -0.351 OA
ATOM     20  C   UNL     1       3.572  -5.362   0.000  0.00  0.00    +0.159 C 
ATOM     21  C   UNL     1       2.858  -4.950   0.000  0.00  0.00    +0.105 C 
ENDBRANCH  15  16
ENDBRANCH  14  15
ENDBRANCH  13  14
ENDBRANCH  12  13
ENDBRANCH  11  12
ENDBRANCH  10  11
TORSDOF 10
