REMARK  Name = 
REMARK  7 active torsions:
REMARK  status: ('A' for Active; 'I' for Inactive)
REMARK    1  A    between atoms: C_2  and  N_4
REMARK    2  A    between atoms: C_5  and  C_7
REMARK    3  A    between atoms: C_7  and  C_8
REMARK    4  A    between atoms: C_10  and  C_11
REMARK    5  A    between atoms: C_11  and  N_12
REMARK    6  A    between atoms: N_12  and  C_13
REMARK    7  A    between atoms: C_13  and  C_14
REMARK                            x       y       z     vdW  Elec       q    Type
REMARK                         _______ _______ _______ _____ _____    ______ ____
ROOT
ATOM      8  C   UNL     1       6.672  -5.886   0.000  0.00  0.00    +0.157 C 
ATOM      9  O   UNL     1       7.425  -5.550   0.000  0.00  0.00    -0.351 OA
ATOM     10  C   UNL     1       7.977  -6.163   0.000  0.00  0.00    +0.165 C 
ATOM     21  C   UNL     1       7.565  -6.878   0.000  0.00  0.00    +0.213 C 
ATOM     22  O   UNL     1       7.900  -7.631   0.000  0.00  0.00    -0.218 OA
ATOM     23  C   UNL     1       6.758  -6.706   0.000  0.00  0.00    +0.212 C 
ATOM     24  O   UNL     1       6.145  -7.258   0.000  0.00  0.00    -0.218 OA
ENDROOT
BRANCH   8   7
ATOM      7  C   UNL     1       5.957  -5.473   0.000  0.00  0.00    +0.119 C 
BRANCH   7   5
ATOM      4  N   UNL     1       4.528  -5.473   0.000  0.00  0.00    -0.207 NA
ATOM      5  C   UNL     1       5.243  -5.886   0.000  0.00  0.00    +0.244 C 
ATOM      6  O   UNL     1       5.243  -6.711   0.000  0.00  0.00    -0.273 OA
BRANCH   4   2
ATOM      1  C   UNL     1       3.099  -5.473   0.000  0.00  0.00    +0.023 C 
ATOM      2  C   UNL     1       3.814  -5.886   0.000  0.00  0.00    +0.095 C 
ATOM      3  C   UNL     1       3.814  -6.711   0.000  0.00  0.00    +0.023 C 
ENDBRANCH   4   2
ENDBRANCH   7   5
ENDBRANCH   8   7
BRANCH  10  11
ATOM     11  C   UNL     1       8.798  -6.077   0.000  0.00  0.00    +0.121 C 
BRANCH  11  12
ATOM     12  N   UNL     1       9.283  -6.744   0.000  0.00  0.00    -0.211 NA
BRANCH  12  13
ATOM     13  C   UNL     1      10.103  -6.658   0.000  0.00  0.00    +0.115 C 
BRANCH  13  14
ATOM     14  C   UNL     1      10.588  -7.325   0.000  0.00  0.00    -0.005 A 
ATOM     15  C   UNL     1      11.409  -7.239   0.000  0.00  0.00    -0.001 A 
ATOM     16  C   UNL     1      11.893  -7.907   0.000  0.00  0.00    +0.029 A 
ATOM     17  C   UNL     1      11.558  -8.660   0.000  0.00  0.00    +0.140 A 
ATOM     18  F   UNL     1      12.043  -9.328   0.000  0.00  0.00    -0.204 F 
ATOM     19  C   UNL     1      10.738  -8.747   0.000  0.00  0.00    +0.029 A 
ATOM     20  C   UNL     1      10.253  -8.079   0.000  0.00  0.00    -0.001 A 
ENDBRANCH  13  14
ENDBRANCH  12  13
ENDBRANCH  11  12
ENDBRANCH  10  11
TORSDOF 7
