REMARK  Name = 
REMARK  8 active torsions:
REMARK  status: ('A' for Active; 'I' for Inactive)
REMARK    1  A    between atoms: C_4  and  C_7
REMARK    2  A    between atoms: C_12  and  N_28
REMARK    3  A    between atoms: C_14  and  C_15
REMARK    4  A    between atoms: N_17  and  C_18
REMARK    5  A    between atoms: C_18  and  C_19
REMARK    6  A    between atoms: C_18  and  C_25
REMARK    7  A    between atoms: C_19  and  C_20
REMARK    8  A    between atoms: C_29  and  C_31
REMARK                            x       y       z     vdW  Elec       q    Type
REMARK                         _______ _______ _______ _____ _____    ______ ____
ROOT
ATOM      7  C   UNL     1       1.004  -6.949   0.000  0.00  0.00    +0.268 C 
ATOM      8  O   UNL     1       0.669  -7.702   0.000  0.00  0.00    -0.268 OA
ATOM      9  N   UNL     1       1.825  -6.862   0.000  0.00  0.00    -0.268 N 
ATOM     10  C   UNL     1       2.160  -6.109   0.000  0.00  0.00    +0.096 C 
ATOM     11  C   UNL     1       2.981  -6.022   0.000  0.00  0.00    +0.043 C 
ATOM     12  C   UNL     1       3.466  -6.690   0.000  0.00  0.00    +0.100 C 
ATOM     13  C   UNL     1       3.130  -7.444   0.000  0.00  0.00    +0.051 C 
ATOM     14  C   UNL     1       2.309  -7.530   0.000  0.00  0.00    +0.155 C 
ENDROOT
BRANCH   7   4
ATOM      1  C   UNL     1       0.107  -4.187   0.000  0.00  0.00    +0.059 C 
ATOM      2  C   UNL     1       0.107  -5.012   0.000  0.00  0.00    +0.089 A 
ATOM      3  N   UNL     1       0.774  -5.497   0.000  0.00  0.00    -0.238 NA
ATOM      4  C   UNL     1       0.519  -6.281   0.000  0.00  0.00    +0.141 A 
ATOM      5  C   UNL     1      -0.306  -6.281   0.000  0.00  0.00    +0.060 A 
ATOM      6  S   UNL     1      -0.561  -5.497   0.000  0.00  0.00    -0.070 S 
ENDBRANCH   7   4
BRANCH  14  15
ATOM     15  C   UNL     1       1.974  -8.284   0.000  0.00  0.00    +0.260 C 
ATOM     16  O   UNL     1       2.459  -8.951   0.000  0.00  0.00    -0.272 OA
ATOM     17  N   UNL     1       1.153  -8.370   0.000  0.00  0.00    -0.196 NA
BRANCH  17  18
ATOM     18  C   UNL     1       0.818  -9.123   0.000  0.00  0.00    +0.179 C 
BRANCH  18  25
ATOM     25  C   UNL     1       1.303  -9.791   0.000  0.00  0.00    +0.281 C 
ATOM     26  N   UNL     1       2.123  -9.705   0.000  0.00  0.00    -0.086 NA
ATOM     27  O   UNL     1       0.967 -10.544   0.000  0.00  0.00    -0.270 OA
ENDBRANCH  18  25
BRANCH  18  19
ATOM     19  C   UNL     1      -0.003  -9.210   0.000  0.00  0.00    +0.064 C 
BRANCH  19  20
ATOM     20  C   UNL     1      -0.338  -9.963   0.000  0.00  0.00    +0.010 A 
ATOM     21  C   UNL     1       0.074 -10.678   0.000  0.00  0.00    +0.003 A 
ATOM     22  C   UNL     1      -0.478 -11.291   0.000  0.00  0.00    +0.007 A 
ATOM     23  C   UNL     1      -1.231 -10.955   0.000  0.00  0.00    +0.035 A 
ATOM     24  S   UNL     1      -1.145 -10.135   0.000  0.00  0.00    -0.091 S 
ENDBRANCH  19  20
ENDBRANCH  18  19
ENDBRANCH  17  18
ENDBRANCH  14  15
BRANCH  12  28
ATOM     28  N   UNL     1       4.286  -6.604   0.000  0.00  0.00    -0.202 NA
ATOM     29  C   UNL     1       4.622  -5.850   0.000  0.00  0.00    +0.284 C 
ATOM     30  O   UNL     1       4.137  -5.183   0.000  0.00  0.00    -0.267 OA
BRANCH  29  31
ATOM     31  C   UNL     1       5.442  -5.764   0.000  0.00  0.00    +0.155 A 
ATOM     32  C   UNL     1       5.778  -5.010   0.000  0.00  0.00    +0.123 A 
ATOM     33  N   UNL     1       6.598  -4.924   0.000  0.00  0.00    -0.239 NA
ATOM     34  C   UNL     1       7.083  -5.591   0.000  0.00  0.00    +0.120 A 
ATOM     35  C   UNL     1       6.747  -6.345   0.000  0.00  0.00    +0.120 A 
ATOM     36  N   UNL     1       5.927  -6.431   0.000  0.00  0.00    -0.236 NA
ENDBRANCH  29  31
ENDBRANCH  12  28
TORSDOF 8
