REMARK  Name = 
REMARK  4 active torsions:
REMARK  status: ('A' for Active; 'I' for Inactive)
REMARK    1  A    between atoms: C_4  and  C_21
REMARK    2  A    between atoms: C_5  and  N_6
REMARK    3  A    between atoms: C_7  and  C_9
REMARK    4  A    between atoms: C_24  and  N_27
REMARK                            x       y       z     vdW  Elec       q    Type
REMARK                         _______ _______ _______ _____ _____    ______ ____
ROOT
ATOM      1  O   UNL     1      -4.087  -3.396   0.000  0.00  0.00    -0.220 OA
ATOM      2  C   UNL     1      -3.751  -2.642   0.000  0.00  0.00    +0.184 C 
ATOM      3  C   UNL     1      -4.164  -1.927   0.000  0.00  0.00    +0.042 C 
ATOM      4  C   UNL     1      -3.612  -1.314   0.000  0.00  0.00    +0.049 C 
ATOM      5  C   UNL     1      -2.858  -1.650   0.000  0.00  0.00    +0.133 C 
ATOM     19  C   UNL     1      -2.944  -2.470   0.000  0.00  0.00    +0.202 C 
ATOM     20  O   UNL     1      -2.331  -3.022   0.000  0.00  0.00    -0.219 OA
ENDROOT
BRANCH   4  21
ATOM     21  C   UNL     1      -3.783  -0.507   0.000  0.00  0.00    -0.001 A 
ATOM     22  C   UNL     1      -4.568  -0.253   0.000  0.00  0.00    +0.000 A 
ATOM     23  C   UNL     1      -4.739   0.554   0.000  0.00  0.00    +0.034 A 
ATOM     24  C   UNL     1      -4.126   1.107   0.000  0.00  0.00    +0.132 A 
ATOM     25  N   UNL     1      -3.341   0.852   0.000  0.00  0.00    -0.229 NA
ATOM     26  C   UNL     1      -3.170   0.045   0.000  0.00  0.00    +0.096 A 
BRANCH  24  27
ATOM     27  N   UNL     1      -4.298   1.913   0.000  0.00  0.00    -0.288 N 
ATOM     28  C   UNL     1      -5.082   2.168   0.000  0.00  0.00    +0.124 C 
ATOM     29  C   UNL     1      -5.254   2.975   0.000  0.00  0.00    +0.164 C 
ATOM     30  O   UNL     1      -4.641   3.527   0.000  0.00  0.00    -0.350 OA
ATOM     31  C   UNL     1      -3.856   3.272   0.000  0.00  0.00    +0.164 C 
ATOM     32  C   UNL     1      -3.685   2.466   0.000  0.00  0.00    +0.124 C 
ENDBRANCH  24  27
ENDBRANCH   4  21
BRANCH   5   6
ATOM      6  N   UNL     1      -2.143  -1.238   0.000  0.00  0.00    -0.200 NA
ATOM      7  C   UNL     1      -1.429  -1.650   0.000  0.00  0.00    +0.265 C 
ATOM      8  O   UNL     1      -1.429  -2.475   0.000  0.00  0.00    -0.268 OA
BRANCH   7   9
ATOM      9  C   UNL     1      -0.715  -1.238   0.000  0.00  0.00    +0.058 A 
ATOM     10  C   UNL     1       0.000  -1.650   0.000  0.00  0.00    +0.045 A 
ATOM     11  C   UNL     1       0.715  -1.238   0.000  0.00  0.00    +0.173 A 
ATOM     12  C   UNL     1       0.715  -0.412   0.000  0.00  0.00    +0.172 A 
ATOM     13  O   UNL     1       1.429   0.000   0.000  0.00  0.00    -0.468 OA
ATOM     14  C   UNL     1       2.143  -0.412   0.000  0.00  0.00    +0.253 C 
ATOM     15  C   UNL     1       2.143  -1.238   0.000  0.00  0.00    +0.253 C 
ATOM     16  O   UNL     1       1.429  -1.650   0.000  0.00  0.00    -0.468 OA
ATOM     17  C   UNL     1       0.000   0.000   0.000  0.00  0.00    +0.040 A 
ATOM     18  C   UNL     1      -0.715  -0.412   0.000  0.00  0.00    +0.008 A 
ENDBRANCH   7   9
ENDBRANCH   5   6
TORSDOF 4
