REMARK  Name = 
REMARK  8 active torsions:
REMARK  status: ('A' for Active; 'I' for Inactive)
REMARK    1  A    between atoms: O_2  and  C_3
REMARK    2  A    between atoms: C_6  and  C_9
REMARK    3  A    between atoms: C_18  and  C_20
REMARK    4  A    between atoms: C_28  and  C_29
REMARK    5  A    between atoms: C_29  and  C_30
REMARK    6  A    between atoms: N_32  and  C_33
REMARK    7  A    between atoms: C_33  and  C_34
REMARK    8  A    between atoms: C_34  and  N_35
REMARK                            x       y       z     vdW  Elec       q    Type
REMARK                         _______ _______ _______ _____ _____    ______ ____
ROOT
ATOM      9  C   UNL     1       2.421  -3.972   0.000  0.00  0.00    +0.271 C 
ATOM     10  O   UNL     1       1.596  -3.972   0.000  0.00  0.00    -0.268 OA
ATOM     11  N   UNL     1       2.833  -3.258   0.000  0.00  0.00    -0.151 NA
ATOM     12  C   UNL     1       2.421  -2.543   0.000  0.00  0.00    +0.185 A 
ATOM     13  N   UNL     1       2.756  -1.790   0.000  0.00  0.00    -0.227 NA
ATOM     14  C   UNL     1       2.143  -1.238   0.000  0.00  0.00    +0.063 A 
ATOM     15  C   UNL     1       1.429  -1.650   0.000  0.00  0.00    +0.023 A 
ATOM     16  C   UNL     1       0.715  -1.238   0.000  0.00  0.00    +0.034 C 
ATOM     17  C   UNL     1       0.715  -0.412   0.000  0.00  0.00    +0.010 C 
ATOM     18  C   UNL     1       0.000   0.000   0.000  0.00  0.00    +0.059 C 
ATOM     19  C   UNL     1      -0.282  -0.775   0.000  0.00  0.00    +0.005 C 
ATOM     22  C   UNL     1       0.000   0.825   0.000  0.00  0.00    +0.154 C 
ATOM     23  O   UNL     1      -0.715   1.238   0.000  0.00  0.00    -0.223 OA
ATOM     24  C   UNL     1       0.715   1.238   0.000  0.00  0.00    +0.033 C 
ATOM     25  C   UNL     1       1.429   0.825   0.000  0.00  0.00    +0.003 C 
ATOM     26  C   UNL     1       1.429   0.000   0.000  0.00  0.00    +0.006 C 
ATOM     27  C   UNL     1       2.143   0.412   0.000  0.00  0.00    +0.000 C 
ATOM     28  C   UNL     1       2.143  -0.412   0.000  0.00  0.00    +0.050 C 
ATOM     38  S   UNL     1       1.601  -2.457   0.000  0.00  0.00    -0.054 S 
ENDROOT
BRANCH   9   6
ATOM      3  C   UNL     1       3.658  -6.116   0.000  0.00  0.00    +0.139 A 
ATOM      4  C   UNL     1       2.833  -6.116   0.000  0.00  0.00    +0.037 A 
ATOM      5  C   UNL     1       2.421  -5.401   0.000  0.00  0.00    +0.008 A 
ATOM      6  C   UNL     1       2.833  -4.687   0.000  0.00  0.00    +0.056 A 
ATOM      7  C   UNL     1       3.658  -4.687   0.000  0.00  0.00    +0.008 A 
ATOM      8  C   UNL     1       4.071  -5.401   0.000  0.00  0.00    +0.037 A 
BRANCH   3   2
ATOM      1  C   UNL     1       4.896  -6.830   0.000  0.00  0.00    +0.252 C 
ATOM      2  O   UNL     1       4.071  -6.830   0.000  0.00  0.00    -0.471 OA
ENDBRANCH   3   2
ENDBRANCH   9   6
BRANCH  18  20
ATOM     20  C   UNL     1      -0.812   0.143   0.000  0.00  0.00    +0.184 C 
ATOM     21  O   UNL     1      -1.095   0.918   0.000  0.00  0.00    -0.220 OA
ENDBRANCH  18  20
BRANCH  28  29
ATOM     29  C   UNL     1       2.858   0.000   0.000  0.00  0.00    +0.093 C 
BRANCH  29  30
ATOM     30  C   UNL     1       3.572  -0.412   0.000  0.00  0.00    +0.242 C 
ATOM     31  O   UNL     1       3.572  -1.238   0.000  0.00  0.00    -0.273 OA
ATOM     32  N   UNL     1       4.287   0.000   0.000  0.00  0.00    -0.204 NA
BRANCH  32  33
ATOM     33  C   UNL     1       5.001  -0.412   0.000  0.00  0.00    +0.132 C 
BRANCH  33  34
ATOM     34  C   UNL     1       5.716   0.000   0.000  0.00  0.00    +0.096 C 
BRANCH  34  35
ATOM     35  N   UNL     1       6.430  -0.412   0.000  0.00  0.00    -0.269 NA
ATOM     36  C   UNL     1       7.145   0.000   0.000  0.00  0.00    +0.090 C 
ATOM     37  C   UNL     1       6.430  -1.238   0.000  0.00  0.00    +0.090 C 
ENDBRANCH  34  35
ENDBRANCH  33  34
ENDBRANCH  32  33
ENDBRANCH  29  30
ENDBRANCH  28  29
TORSDOF 8
