REMARK  Name = 
REMARK  6 active torsions:
REMARK  status: ('A' for Active; 'I' for Inactive)
REMARK    1  A    between atoms: C_5  and  C_8
REMARK    2  A    between atoms: C_10  and  C_11
REMARK    3  A    between atoms: C_11  and  C_12
REMARK    4  A    between atoms: C_12  and  N_16
REMARK    5  A    between atoms: N_16  and  C_17
REMARK    6  A    between atoms: C_17  and  C_18
REMARK                            x       y       z     vdW  Elec       q    Type
REMARK                         _______ _______ _______ _____ _____    ______ ____
ROOT
ATOM     12  C   UNL     1       1.429  -2.475   0.000  0.00  0.00    +0.120 C 
ATOM     13  C   UNL     1       2.254  -2.475   0.000  0.00  0.00    +0.161 C 
ATOM     14  O   UNL     1       2.254  -3.300   0.000  0.00  0.00    -0.351 OA
ATOM     15  C   UNL     1       1.429  -3.300   0.000  0.00  0.00    +0.161 C 
ENDROOT
BRANCH  12  11
ATOM     11  C   UNL     1       0.604  -2.475   0.000  0.00  0.00    +0.070 C 
BRANCH  11  10
ATOM      8  C   UNL     1      -0.801  -4.083   0.000  0.00  0.00    +0.177 A 
ATOM      9  C   UNL     1      -0.629  -3.276   0.000  0.00  0.00    +0.058 A 
ATOM     10  C   UNL     1       0.191  -3.189   0.000  0.00  0.00    +0.102 A 
ATOM     27  N   UNL     1       0.527  -3.943   0.000  0.00  0.00    -0.081 NA
ATOM     28  O   UNL     1      -0.086  -4.495   0.000  0.00  0.00    -0.354 OA
BRANCH   8   5
ATOM      1  F   UNL     1      -3.815  -5.425   0.000  0.00  0.00    -0.204 F 
ATOM      2  C   UNL     1      -3.062  -5.089   0.000  0.00  0.00    +0.140 A 
ATOM      3  C   UNL     1      -2.975  -4.269   0.000  0.00  0.00    +0.030 A 
ATOM      4  C   UNL     1      -2.222  -3.933   0.000  0.00  0.00    +0.005 A 
ATOM      5  C   UNL     1      -1.554  -4.418   0.000  0.00  0.00    +0.037 A 
ATOM      6  C   UNL     1      -1.641  -5.239   0.000  0.00  0.00    +0.005 A 
ATOM      7  C   UNL     1      -2.394  -5.574   0.000  0.00  0.00    +0.030 A 
ENDBRANCH   8   5
ENDBRANCH  11  10
ENDBRANCH  12  11
BRANCH  12  16
ATOM     16  N   UNL     1       1.429  -1.650   0.000  0.00  0.00    -0.211 NA
BRANCH  16  17
ATOM     17  C   UNL     1       0.715  -1.238   0.000  0.00  0.00    +0.118 C 
BRANCH  17  18
ATOM     18  C   UNL     1       0.715  -0.412   0.000  0.00  0.00    +0.032 A 
ATOM     19  C   UNL     1       0.000   0.000   0.000  0.00  0.00    +0.174 A 
ATOM     20  O   UNL     1      -0.785  -0.255   0.000  0.00  0.00    -0.435 OA
ATOM     21  C   UNL     1      -1.270   0.412   0.000  0.00  0.00    +0.429 C 
ATOM     22  O   UNL     1      -0.785   1.080   0.000  0.00  0.00    -0.435 OA
ATOM     23  C   UNL     1       0.000   0.825   0.000  0.00  0.00    +0.176 A 
ATOM     24  C   UNL     1       0.715   1.238   0.000  0.00  0.00    +0.040 A 
ATOM     25  C   UNL     1       1.429   0.825   0.000  0.00  0.00    +0.003 A 
ATOM     26  C   UNL     1       1.429   0.000   0.000  0.00  0.00    +0.000 A 
ENDBRANCH  17  18
ENDBRANCH  16  17
ENDBRANCH  12  16
TORSDOF 6
