REMARK  Name = 
REMARK  6 active torsions:
REMARK  status: ('A' for Active; 'I' for Inactive)
REMARK    1  A    between atoms: O_2  and  C_3
REMARK    2  A    between atoms: C_3  and  C_4
REMARK    3  A    between atoms: N_6  and  C_7
REMARK    4  A    between atoms: C_9  and  C_10
REMARK    5  A    between atoms: C_10  and  C_11
REMARK    6  A    between atoms: C_14  and  C_15
REMARK                            x       y       z     vdW  Elec       q    Type
REMARK                         _______ _______ _______ _____ _____    ______ ____
ROOT
ATOM      7  C   UNL     1       1.001  -4.943   0.000  0.00  0.00    +0.095 C 
ATOM      8  C   UNL     1       1.798  -4.729   0.000  0.00  0.00    +0.022 C 
ATOM      9  C   UNL     1       2.011  -5.526   0.000  0.00  0.00    +0.009 C 
ATOM     18  C   UNL     1       1.215  -5.740   0.000  0.00  0.00    +0.019 C 
ATOM     19  C   UNL     1       1.236  -6.565   0.000  0.00  0.00    +0.002 C 
ATOM     20  C   UNL     1       0.490  -6.134   0.000  0.00  0.00    +0.002 C 
ENDROOT
BRANCH   7   6
ATOM      4  C   UNL     1      -0.428  -4.943   0.000  0.00  0.00    +0.272 C 
ATOM      5  O   UNL     1      -0.428  -5.768   0.000  0.00  0.00    -0.271 OA
ATOM      6  N   UNL     1       0.287  -4.530   0.000  0.00  0.00    -0.205 NA
BRANCH   4   3
ATOM      3  C   UNL     1      -1.142  -4.530   0.000  0.00  0.00    +0.229 C 
BRANCH   3   2
ATOM      1  C   UNL     1      -2.571  -4.530   0.000  0.00  0.00    +0.175 C 
ATOM      2  O   UNL     1      -1.857  -4.943   0.000  0.00  0.00    -0.342 OA
ENDBRANCH   3   2
ENDBRANCH   4   3
ENDBRANCH   7   6
BRANCH   9  10
ATOM     10  C   UNL     1       2.726  -5.939   0.000  0.00  0.00    +0.049 C 
BRANCH  10  11
ATOM     11  C   UNL     1       3.441  -5.526   0.000  0.00  0.00    +0.100 A 
ATOM     12  N   UNL     1       3.527  -4.706   0.000  0.00  0.00    -0.082 NA
ATOM     13  O   UNL     1       4.334  -4.534   0.000  0.00  0.00    -0.355 OA
ATOM     14  C   UNL     1       4.746  -5.249   0.000  0.00  0.00    +0.187 A 
ATOM     17  C   UNL     1       4.194  -5.862   0.000  0.00  0.00    +0.056 A 
BRANCH  14  15
ATOM     15  C   UNL     1       5.567  -5.335   0.000  0.00  0.00    +0.249 C 
ATOM     16  O   UNL     1       6.052  -4.668   0.000  0.00  0.00    -0.212 OA
ENDBRANCH  14  15
ENDBRANCH  10  11
ENDBRANCH   9  10
TORSDOF 6
