REMARK  Name = 
REMARK  8 active torsions:
REMARK  status: ('A' for Active; 'I' for Inactive)
REMARK    1  A    between atoms: N_4  and  C_26
REMARK    2  A    between atoms: C_7  and  C_8
REMARK    3  A    between atoms: C_10  and  N_11
REMARK    4  A    between atoms: C_12  and  C_14
REMARK    5  A    between atoms: C_14  and  C_15
REMARK    6  A    between atoms: C_15  and  C_16
REMARK    7  A    between atoms: C_16  and  C_17
REMARK    8  A    between atoms: C_29  and  C_32
REMARK                            x       y       z     vdW  Elec       q    Type
REMARK                         _______ _______ _______ _____ _____    ______ ____
ROOT
ATOM      8  C   UNL     1      -0.738  -1.468   0.000  0.00  0.00    +0.048 C 
ATOM      9  C   UNL     1      -1.405  -1.952   0.000  0.00  0.00    +0.035 C 
ATOM     10  C   UNL     1      -2.072  -1.468   0.000  0.00  0.00    +0.118 C 
ATOM     24  C   UNL     1      -1.817  -0.683   0.000  0.00  0.00    -0.009 C 
ATOM     25  C   UNL     1      -0.993  -0.683   0.000  0.00  0.00    -0.025 C 
ENDROOT
BRANCH   8   7
ATOM      1  C   UNL     1       0.715  -0.412   0.000  0.00  0.00    +0.054 C 
ATOM      2  C   UNL     1       0.715  -1.238   0.000  0.00  0.00    +0.077 A 
ATOM      3  N   UNL     1       1.382  -1.722   0.000  0.00  0.00    -0.170 NA
ATOM      4  N   UNL     1       1.127  -2.507   0.000  0.00  0.00    -0.234 N 
ATOM      5  C   UNL     1       0.302  -2.507   0.000  0.00  0.00    +0.058 A 
ATOM      6  C   UNL     1      -0.183  -3.175   0.000  0.00  0.00    +0.052 C 
ATOM      7  C   UNL     1       0.047  -1.722   0.000  0.00  0.00    +0.010 A 
BRANCH   4  26
ATOM     26  C   UNL     1       1.612  -3.175   0.000  0.00  0.00    +0.082 A 
ATOM     27  C   UNL     1       2.432  -3.088   0.000  0.00  0.00    +0.019 A 
ATOM     28  C   UNL     1       2.917  -3.756   0.000  0.00  0.00    -0.003 A 
ATOM     29  C   UNL     1       2.582  -4.509   0.000  0.00  0.00    -0.023 A 
ATOM     30  C   UNL     1       1.761  -4.596   0.000  0.00  0.00    -0.003 A 
ATOM     31  C   UNL     1       1.276  -3.928   0.000  0.00  0.00    +0.019 A 
BRANCH  29  32
ATOM     32  C   UNL     1       3.067  -5.177   0.000  0.00  0.00    +0.019 C 
ATOM     33  C   UNL     1       3.552  -5.844   0.000  0.00  0.00    +0.004 C 
ATOM     34  C   UNL     1       2.399  -5.662   0.000  0.00  0.00    +0.004 C 
ATOM     35  C   UNL     1       3.734  -4.692   0.000  0.00  0.00    +0.004 C 
ENDBRANCH  29  32
ENDBRANCH   4  26
ENDBRANCH   8   7
BRANCH  10  11
ATOM     11  N   UNL     1      -2.857  -1.722   0.000  0.00  0.00    -0.203 NA
ATOM     12  C   UNL     1      -3.470  -1.170   0.000  0.00  0.00    +0.242 C 
ATOM     13  O   UNL     1      -3.299  -0.363   0.000  0.00  0.00    -0.273 OA
BRANCH  12  14
ATOM     14  C   UNL     1      -4.255  -1.425   0.000  0.00  0.00    +0.087 C 
BRANCH  14  15
ATOM     15  C   UNL     1      -4.868  -0.873   0.000  0.00  0.00    +0.019 C 
ATOM     20  C   UNL     1      -5.353  -1.541   0.000  0.00  0.00    +0.001 C 
ATOM     21  C   UNL     1      -6.137  -1.286   0.000  0.00  0.00    +0.000 C 
ATOM     22  C   UNL     1      -6.137  -0.461   0.000  0.00  0.00    +0.000 C 
ATOM     23  C   UNL     1      -5.353  -0.206   0.000  0.00  0.00    +0.001 C 
BRANCH  15  16
ATOM     16  C   UNL     1      -4.255  -0.321   0.000  0.00  0.00    +0.115 C 
BRANCH  16  17
ATOM     17  C   UNL     1      -4.426   0.486   0.000  0.00  0.00    +0.365 C 
ATOM     18  O   UNL     1      -3.813   1.038   0.000  0.00  0.00    -0.246 OA
ATOM     19  O   UNL     1      -5.211   0.741   0.000  0.00  0.00    -0.246 OA
ENDBRANCH  16  17
ENDBRANCH  15  16
ENDBRANCH  14  15
ENDBRANCH  12  14
ENDBRANCH  10  11
TORSDOF 8
