REMARK  Name = 
REMARK  8 active torsions:
REMARK  status: ('A' for Active; 'I' for Inactive)
REMARK    1  A    between atoms: O_2  and  C_3
REMARK    2  A    between atoms: C_3  and  C_4
REMARK    3  A    between atoms: C_4  and  O_5
REMARK    4  A    between atoms: O_5  and  C_6
REMARK    5  A    between atoms: C_8  and  C_12
REMARK    6  A    between atoms: C_15  and  C_17
REMARK    7  A    between atoms: N_21  and  C_22
REMARK    8  A    between atoms: C_22  and  C_23
REMARK                            x       y       z     vdW  Elec       q    Type
REMARK                         _______ _______ _______ _____ _____    ______ ____
ROOT
ATOM     12  C   UNL     1       5.567   4.405   0.000  0.00  0.00    +0.204 A 
ATOM     13  N   UNL     1       6.374   4.234   0.000  0.00  0.00    -0.056 NA
ATOM     14  O   UNL     1       6.460   3.413   0.000  0.00  0.00    -0.336 OA
ATOM     15  C   UNL     1       5.706   3.078   0.000  0.00  0.00    +0.251 A 
ATOM     16  N   UNL     1       5.154   3.691   0.000  0.00  0.00    -0.190 NA
ENDROOT
BRANCH  12   8
ATOM      6  C   UNL     1       5.381   6.580   0.000  0.00  0.00    +0.225 A 
ATOM      7  C   UNL     1       5.716   5.827   0.000  0.00  0.00    +0.061 A 
ATOM      8  C   UNL     1       5.231   5.159   0.000  0.00  0.00    +0.045 A 
ATOM      9  C   UNL     1       4.411   5.245   0.000  0.00  0.00    +0.024 A 
ATOM     10  C   UNL     1       4.075   5.999   0.000  0.00  0.00    +0.102 A 
ATOM     11  N   UNL     1       4.560   6.667   0.000  0.00  0.00    -0.210 NA
BRANCH   6   5
ATOM      5  O   UNL     1       5.866   7.248   0.000  0.00  0.00    -0.457 OA
BRANCH   5   4
ATOM      4  C   UNL     1       5.530   8.001   0.000  0.00  0.00    +0.239 C 
BRANCH   4   3
ATOM      3  C   UNL     1       6.015   8.669   0.000  0.00  0.00    +0.189 C 
BRANCH   3   2
ATOM      1  C   UNL     1       6.164  10.090   0.000  0.00  0.00    +0.174 C 
ATOM      2  O   UNL     1       5.679   9.423   0.000  0.00  0.00    -0.347 OA
ENDBRANCH   3   2
ENDBRANCH   4   3
ENDBRANCH   5   4
ENDBRANCH   6   5
ENDBRANCH  12   8
BRANCH  15  17
ATOM     17  C   UNL     1       5.535   2.271   0.000  0.00  0.00    +0.138 C 
ATOM     18  C   UNL     1       6.087   1.658   0.000  0.00  0.00    +0.027 C 
ATOM     19  C   UNL     1       5.674   0.943   0.000  0.00  0.00    +0.019 C 
ATOM     20  C   UNL     1       4.867   1.115   0.000  0.00  0.00    +0.073 C 
ATOM     21  N   UNL     1       4.781   1.935   0.000  0.00  0.00    -0.263 NA
BRANCH  21  22
ATOM     22  C   UNL     1       4.067   2.348   0.000  0.00  0.00    +0.100 C 
BRANCH  22  23
ATOM     23  C   UNL     1       3.352   1.935   0.000  0.00  0.00    -0.003 A 
ATOM     24  C   UNL     1       3.352   1.110   0.000  0.00  0.00    +0.000 A 
ATOM     25  C   UNL     1       2.638   0.698   0.000  0.00  0.00    +0.040 A 
ATOM     26  C   UNL     1       1.923   1.110   0.000  0.00  0.00    +0.176 A 
ATOM     27  O   UNL     1       1.139   0.856   0.000  0.00  0.00    -0.435 OA
ATOM     28  C   UNL     1       0.654   1.523   0.000  0.00  0.00    +0.429 C 
ATOM     29  O   UNL     1       1.139   2.190   0.000  0.00  0.00    -0.435 OA
ATOM     30  C   UNL     1       1.923   1.935   0.000  0.00  0.00    +0.176 A 
ATOM     31  C   UNL     1       2.638   2.348   0.000  0.00  0.00    +0.037 A 
ENDBRANCH  22  23
ENDBRANCH  21  22
ENDBRANCH  15  17
TORSDOF 8
