REMARK  Name = 
REMARK  6 active torsions:
REMARK  status: ('A' for Active; 'I' for Inactive)
REMARK    1  A    between atoms: C_2  and  C_3
REMARK    2  A    between atoms: C_2  and  C_17
REMARK    3  A    between atoms: N_9  and  C_10
REMARK    4  A    between atoms: C_10  and  C_11
REMARK    5  A    between atoms: C_20  and  N_21
REMARK    6  A    between atoms: C_22  and  C_24
REMARK                            x       y       z     vdW  Elec       q    Type
REMARK                         _______ _______ _______ _____ _____    ______ ____
ROOT
ATOM     17  C   UNL     1       6.210   4.410   0.000  0.00  0.00    +0.010 A 
ATOM     18  C   UNL     1       6.210   3.585   0.000  0.00  0.00    -0.000 A 
ATOM     19  C   UNL     1       5.496   3.173   0.000  0.00  0.00    +0.016 A 
ATOM     20  C   UNL     1       4.781   3.585   0.000  0.00  0.00    +0.074 A 
ATOM     33  C   UNL     1       4.781   4.410   0.000  0.00  0.00    +0.016 A 
ATOM     34  C   UNL     1       5.496   4.823   0.000  0.00  0.00    -0.000 A 
ENDROOT
BRANCH  20  21
ATOM     21  N   UNL     1       4.067   3.173   0.000  0.00  0.00    -0.175 NA
ATOM     22  C   UNL     1       4.067   2.348   0.000  0.00  0.00    +0.269 C 
ATOM     23  O   UNL     1       4.781   1.935   0.000  0.00  0.00    -0.268 OA
BRANCH  22  24
ATOM     24  C   UNL     1       3.352   1.935   0.000  0.00  0.00    +0.059 A 
ATOM     25  C   UNL     1       3.352   1.110   0.000  0.00  0.00    +0.008 A 
ATOM     26  C   UNL     1       2.638   0.698   0.000  0.00  0.00    +0.040 A 
ATOM     27  C   UNL     1       1.923   1.110   0.000  0.00  0.00    +0.176 A 
ATOM     28  O   UNL     1       1.139   0.856   0.000  0.00  0.00    -0.435 OA
ATOM     29  C   UNL     1       0.654   1.523   0.000  0.00  0.00    +0.429 C 
ATOM     30  O   UNL     1       1.139   2.190   0.000  0.00  0.00    -0.435 OA
ATOM     31  C   UNL     1       1.923   1.935   0.000  0.00  0.00    +0.177 A 
ATOM     32  C   UNL     1       2.638   2.348   0.000  0.00  0.00    +0.045 A 
ENDBRANCH  22  24
ENDBRANCH  20  21
BRANCH  17   2
ATOM      1  O   UNL     1       7.639   4.410   0.000  0.00  0.00    -0.216 OA
ATOM      2  C   UNL     1       6.925   4.823   0.000  0.00  0.00    +0.195 C 
BRANCH   2   3
ATOM      3  C   UNL     1       6.925   5.648   0.000  0.00  0.00    +0.140 C 
ATOM      4  C   UNL     1       6.210   6.060   0.000  0.00  0.00    +0.165 C 
ATOM      5  O   UNL     1       6.210   6.885   0.000  0.00  0.00    -0.343 OA
ATOM      6  C   UNL     1       6.925   7.298   0.000  0.00  0.00    +0.227 C 
ATOM      7  C   UNL     1       7.639   6.885   0.000  0.00  0.00    +0.256 C 
ATOM      8  O   UNL     1       8.354   7.298   0.000  0.00  0.00    -0.272 OA
ATOM      9  N   UNL     1       7.639   6.060   0.000  0.00  0.00    -0.270 N 
BRANCH   9  10
ATOM     10  C   UNL     1       8.354   5.648   0.000  0.00  0.00    +0.120 C 
BRANCH  10  11
ATOM     11  C   UNL     1       9.068   6.060   0.000  0.00  0.00    -0.002 A 
ATOM     12  C   UNL     1       9.068   6.885   0.000  0.00  0.00    -0.003 A 
ATOM     13  C   UNL     1       9.783   7.298   0.000  0.00  0.00    -0.000 A 
ATOM     14  C   UNL     1      10.497   6.885   0.000  0.00  0.00    -0.000 A 
ATOM     15  C   UNL     1      10.497   6.060   0.000  0.00  0.00    -0.000 A 
ATOM     16  C   UNL     1       9.783   5.648   0.000  0.00  0.00    -0.003 A 
ENDBRANCH  10  11
ENDBRANCH   9  10
ENDBRANCH   2   3
ENDBRANCH  17   2
TORSDOF 6
