REMARK  Name = 
REMARK  8 active torsions:
REMARK  status: ('A' for Active; 'I' for Inactive)
REMARK    1  A    between atoms: C_2  and  O_3
REMARK    2  A    between atoms: O_3  and  C_4
REMARK    3  A    between atoms: C_4  and  C_5
REMARK    4  A    between atoms: C_5  and  N_6
REMARK    5  A    between atoms: C_7  and  C_13
REMARK    6  A    between atoms: C_13  and  C_15
REMARK    7  A    between atoms: C_18  and  N_19
REMARK    8  A    between atoms: C_20  and  C_22
REMARK                            x       y       z     vdW  Elec       q    Type
REMARK                         _______ _______ _______ _____ _____    ______ ____
ROOT
ATOM     15  C   UNL     1       4.287  -6.600   0.000  0.00  0.00    +0.010 A 
ATOM     16  C   UNL     1       4.287  -5.775   0.000  0.00  0.00    -0.000 A 
ATOM     17  C   UNL     1       5.001  -5.362   0.000  0.00  0.00    +0.016 A 
ATOM     18  C   UNL     1       5.716  -5.775   0.000  0.00  0.00    +0.074 A 
ATOM     28  C   UNL     1       5.716  -6.600   0.000  0.00  0.00    +0.016 A 
ATOM     29  C   UNL     1       5.001  -7.013   0.000  0.00  0.00    -0.000 A 
ENDROOT
BRANCH  18  19
ATOM     19  N   UNL     1       6.430  -5.362   0.000  0.00  0.00    -0.175 NA
ATOM     20  C   UNL     1       6.430  -4.537   0.000  0.00  0.00    +0.270 C 
ATOM     21  O   UNL     1       5.716  -4.125   0.000  0.00  0.00    -0.268 OA
BRANCH  20  22
ATOM     22  C   UNL     1       7.145  -4.125   0.000  0.00  0.00    +0.075 A 
ATOM     23  C   UNL     1       7.145  -3.300   0.000  0.00  0.00    +0.008 A 
ATOM     24  C   UNL     1       7.859  -2.888   0.000  0.00  0.00    +0.021 A 
ATOM     25  C   UNL     1       8.574  -3.300   0.000  0.00  0.00    +0.099 A 
ATOM     26  N   UNL     1       8.574  -4.125   0.000  0.00  0.00    -0.242 NA
ATOM     27  C   UNL     1       7.859  -4.537   0.000  0.00  0.00    +0.103 A 
ENDBRANCH  20  22
ENDBRANCH  18  19
BRANCH  15  13
ATOM     13  C   UNL     1       3.572  -7.013   0.000  0.00  0.00    +0.195 C 
ATOM     14  O   UNL     1       2.858  -6.600   0.000  0.00  0.00    -0.216 OA
BRANCH  13   7
ATOM      6  N   UNL     1       2.858  -8.250   0.000  0.00  0.00    -0.271 N 
ATOM      7  C   UNL     1       3.572  -7.838   0.000  0.00  0.00    +0.139 C 
ATOM      8  C   UNL     1       4.287  -8.250   0.000  0.00  0.00    +0.165 C 
ATOM      9  O   UNL     1       4.287  -9.075   0.000  0.00  0.00    -0.343 OA
ATOM     10  C   UNL     1       3.572  -9.488   0.000  0.00  0.00    +0.227 C 
ATOM     11  C   UNL     1       2.858  -9.075   0.000  0.00  0.00    +0.256 C 
ATOM     12  O   UNL     1       2.143  -9.488   0.000  0.00  0.00    -0.272 OA
BRANCH   6   5
ATOM      5  C   UNL     1       2.143  -7.838   0.000  0.00  0.00    +0.126 C 
BRANCH   5   4
ATOM      4  C   UNL     1       1.429  -8.250   0.000  0.00  0.00    +0.164 C 
BRANCH   4   3
ATOM      3  O   UNL     1       0.715  -7.838   0.000  0.00  0.00    -0.352 OA
BRANCH   3   2
ATOM      1  C   UNL     1      -0.715  -7.838   0.000  0.00  0.00    +0.035 C 
ATOM      2  C   UNL     1       0.000  -8.250   0.000  0.00  0.00    +0.142 C 
ENDBRANCH   3   2
ENDBRANCH   4   3
ENDBRANCH   5   4
ENDBRANCH   6   5
ENDBRANCH  13   7
ENDBRANCH  15  13
TORSDOF 8
