REMARK  Name = 
REMARK  4 active torsions:
REMARK  status: ('A' for Active; 'I' for Inactive)
REMARK    1  A    between atoms: C_2  and  C_3
REMARK    2  A    between atoms: C_3  and  N_4
REMARK    3  A    between atoms: N_7  and  C_8
REMARK    4  A    between atoms: C_20  and  C_25
REMARK                            x       y       z     vdW  Elec       q    Type
REMARK                         _______ _______ _______ _____ _____    ______ ____
ROOT
ATOM      8  C   UNL     1      -0.912  -0.580   0.000  0.00  0.00    +0.101 C 
ATOM      9  C   UNL     1      -0.198  -0.993   0.000  0.00  0.00    +0.043 C 
ATOM     10  C   UNL     1       0.516  -0.580   0.000  0.00  0.00    +0.096 C 
ATOM     11  N   UNL     1       0.516   0.245   0.000  0.00  0.00    -0.269 N 
ATOM     12  C   UNL     1      -0.198   0.657   0.000  0.00  0.00    +0.156 C 
ATOM     13  C   UNL     1      -0.912   0.245   0.000  0.00  0.00    +0.051 C 
ATOM     14  C   UNL     1      -0.321   1.473   0.000  0.00  0.00    +0.264 C 
ATOM     15  O   UNL     1      -1.109   1.716   0.000  0.00  0.00    -0.271 OA
ATOM     16  N   UNL     1       0.240   2.078   0.000  0.00  0.00    -0.178 NA
ATOM     17  C   UNL     1       1.063   2.016   0.000  0.00  0.00    +0.078 A 
ATOM     18  C   UNL     1       1.421   2.760   0.000  0.00  0.00    +0.017 A 
ATOM     19  C   UNL     1       2.244   2.821   0.000  0.00  0.00    +0.001 A 
ATOM     20  C   UNL     1       2.708   2.140   0.000  0.00  0.00    +0.001 A 
ATOM     21  C   UNL     1       2.350   1.396   0.000  0.00  0.00    +0.006 A 
ATOM     22  C   UNL     1       1.528   1.335   0.000  0.00  0.00    +0.069 A 
ATOM     23  C   UNL     1       1.284   0.546   0.000  0.00  0.00    +0.251 C 
ATOM     24  O   UNL     1       1.889  -0.015   0.000  0.00  0.00    -0.270 OA
ENDROOT
BRANCH  20  25
ATOM     25  C   UNL     1       3.531   2.201   0.000  0.00  0.00    +0.007 A 
ATOM     26  C   UNL     1       3.965   2.903   0.000  0.00  0.00    +0.035 A 
ATOM     27  S   UNL     1       4.766   2.707   0.000  0.00  0.00    -0.086 S 
ATOM     28  C   UNL     1       4.828   1.885   0.000  0.00  0.00    +0.035 A 
ATOM     29  C   UNL     1       4.064   1.572   0.000  0.00  0.00    +0.007 A 
ENDBRANCH  20  25
BRANCH   8   7
ATOM      4  N   UNL     1      -3.056  -0.993   0.000  0.00  0.00    -0.182 NA
ATOM      5  C   UNL     1      -2.341  -0.580   0.000  0.00  0.00    +0.340 C 
ATOM      6  O   UNL     1      -2.341   0.245   0.000  0.00  0.00    -0.249 OA
ATOM      7  N   UNL     1      -1.627  -0.993   0.000  0.00  0.00    -0.189 NA
BRANCH   4   3
ATOM      3  C   UNL     1      -3.770  -0.580   0.000  0.00  0.00    +0.143 C 
BRANCH   3   2
ATOM      1  C   UNL     1      -5.199  -0.580   0.000  0.00  0.00    -0.003 C 
ATOM      2  C   UNL     1      -4.485  -0.993   0.000  0.00  0.00    -0.003 C 
ENDBRANCH   3   2
ENDBRANCH   4   3
ENDBRANCH   8   7
TORSDOF 4
