REMARK  Name = 
REMARK  6 active torsions:
REMARK  status: ('A' for Active; 'I' for Inactive)
REMARK    1  A    between atoms: C_2  and  S_3
REMARK    2  A    between atoms: S_3  and  C_6
REMARK    3  A    between atoms: C_11  and  C_13
REMARK    4  A    between atoms: N_16  and  C_17
REMARK    5  A    between atoms: C_17  and  C_18
REMARK    6  A    between atoms: C_21  and  C_24
REMARK                            x       y       z     vdW  Elec       q    Type
REMARK                         _______ _______ _______ _____ _____    ______ ____
ROOT
ATOM     13  C   UNL     1      -1.453   1.523   0.000  0.00  0.00    +0.094 C 
ATOM     14  C   UNL     1      -1.938   0.856   0.000  0.00  0.00    +0.028 C 
ATOM     15  C   UNL     1      -2.723   1.110   0.000  0.00  0.00    +0.073 C 
ATOM     16  N   UNL     1      -2.723   1.935   0.000  0.00  0.00    -0.268 NA
ATOM     28  C   UNL     1      -1.938   2.190   0.000  0.00  0.00    +0.082 C 
ENDROOT
BRANCH  13  11
ATOM      6  C   UNL     1       2.070   1.110   0.000  0.00  0.00    +0.107 A 
ATOM      7  C   UNL     1       1.356   0.698   0.000  0.00  0.00    +0.041 A 
ATOM      8  C   UNL     1       0.641   1.110   0.000  0.00  0.00    +0.120 A 
ATOM      9  C   UNL     1       0.641   1.935   0.000  0.00  0.00    +0.164 A 
ATOM     10  O   UNL     1      -0.143   2.190   0.000  0.00  0.00    -0.438 OA
ATOM     11  C   UNL     1      -0.628   1.523   0.000  0.00  0.00    +0.207 A 
ATOM     12  N   UNL     1      -0.143   0.856   0.000  0.00  0.00    -0.212 NA
ATOM     29  C   UNL     1       1.356   2.348   0.000  0.00  0.00    +0.040 A 
ATOM     30  C   UNL     1       2.070   1.935   0.000  0.00  0.00    +0.022 A 
BRANCH   6   3
ATOM      3  S   UNL     1       2.784   0.698   0.000  0.00  0.00    +0.009 S 
ATOM      4  O   UNL     1       3.197   1.412   0.000  0.00  0.00    -0.169 OA
ATOM      5  O   UNL     1       2.372  -0.017   0.000  0.00  0.00    -0.169 OA
BRANCH   3   2
ATOM      1  C   UNL     1       4.213   0.698   0.000  0.00  0.00    +0.028 C 
ATOM      2  C   UNL     1       3.499   0.285   0.000  0.00  0.00    +0.156 C 
ENDBRANCH   3   2
ENDBRANCH   6   3
ENDBRANCH  13  11
BRANCH  16  17
ATOM     17  C   UNL     1      -3.390   2.420   0.000  0.00  0.00    +0.099 C 
BRANCH  17  18
ATOM     18  C   UNL     1      -3.304   3.241   0.000  0.00  0.00    -0.006 A 
ATOM     19  C   UNL     1      -3.972   3.726   0.000  0.00  0.00    -0.003 A 
ATOM     20  C   UNL     1      -3.885   4.546   0.000  0.00  0.00    +0.004 A 
ATOM     21  C   UNL     1      -3.132   4.882   0.000  0.00  0.00    +0.071 A 
ATOM     22  C   UNL     1      -2.464   4.397   0.000  0.00  0.00    +0.004 A 
ATOM     23  C   UNL     1      -2.550   3.576   0.000  0.00  0.00    -0.003 A 
BRANCH  21  24
ATOM     24  C   UNL     1      -3.046   5.702   0.000  0.00  0.00    +0.419 C 
ATOM     25  F   UNL     1      -2.959   6.523   0.000  0.00  0.00    -0.166 F 
ATOM     26  F   UNL     1      -2.225   5.616   0.000  0.00  0.00    -0.166 F 
ATOM     27  F   UNL     1      -3.866   5.788   0.000  0.00  0.00    -0.166 F 
ENDBRANCH  21  24
ENDBRANCH  17  18
ENDBRANCH  16  17
TORSDOF 6
