REMARK  Name = 
REMARK  7 active torsions:
REMARK  status: ('A' for Active; 'I' for Inactive)
REMARK    1  A    between atoms: N_2  and  C_4
REMARK    2  A    between atoms: C_7  and  C_10
REMARK    3  A    between atoms: C_16  and  C_18
REMARK    4  A    between atoms: N_20  and  C_21
REMARK    5  A    between atoms: C_21  and  C_22
REMARK    6  A    between atoms: C_21  and  C_29
REMARK    7  A    between atoms: C_22  and  C_23
REMARK                            x       y       z     vdW  Elec       q    Type
REMARK                         _______ _______ _______ _____ _____    ______ ____
ROOT
ATOM     10  C   UNL     1       0.000  -5.775   0.000  0.00  0.00    +0.249 C 
ATOM     11  O   UNL     1       0.715  -6.188   0.000  0.00  0.00    -0.270 OA
ATOM     12  N   UNL     1       0.000  -4.950   0.000  0.00  0.00    -0.272 N 
ATOM     13  C   UNL     1      -0.715  -4.537   0.000  0.00  0.00    +0.115 C 
ATOM     14  C   UNL     1      -0.715  -3.712   0.000  0.00  0.00    +0.115 C 
ATOM     15  N   UNL     1       0.000  -3.300   0.000  0.00  0.00    -0.270 N 
ATOM     16  C   UNL     1       0.715  -3.712   0.000  0.00  0.00    +0.174 C 
ATOM     17  C   UNL     1       0.715  -4.537   0.000  0.00  0.00    +0.123 C 
ATOM     32  C   UNL     1       0.000  -2.475   0.000  0.00  0.00    +0.227 C 
ATOM     33  C   UNL     1       0.715  -2.062   0.000  0.00  0.00    +0.095 C 
ATOM     34  O   UNL     1      -0.715  -2.062   0.000  0.00  0.00    -0.275 OA
ENDROOT
BRANCH  10   7
ATOM      4  C   UNL     1      -2.143  -7.013   0.000  0.00  0.00    +0.048 A 
ATOM      5  C   UNL     1      -2.143  -6.188   0.000  0.00  0.00    +0.015 A 
ATOM      6  C   UNL     1      -1.429  -5.775   0.000  0.00  0.00    +0.006 A 
ATOM      7  C   UNL     1      -0.715  -6.188   0.000  0.00  0.00    +0.054 A 
ATOM      8  C   UNL     1      -0.715  -7.013   0.000  0.00  0.00    +0.006 A 
ATOM      9  C   UNL     1      -1.429  -7.425   0.000  0.00  0.00    +0.015 A 
BRANCH   4   2
ATOM      1  C   UNL     1      -2.858  -8.250   0.000  0.00  0.00    +0.112 C 
ATOM      2  N   UNL     1      -2.858  -7.425   0.000  0.00  0.00    -0.304 N 
ATOM      3  C   UNL     1      -3.572  -7.013   0.000  0.00  0.00    +0.112 C 
ENDBRANCH   4   2
ENDBRANCH  10   7
BRANCH  16  18
ATOM     18  C   UNL     1       1.429  -3.300   0.000  0.00  0.00    +0.262 C 
ATOM     19  O   UNL     1       2.143  -3.712   0.000  0.00  0.00    -0.271 OA
ATOM     20  N   UNL     1       1.429  -2.475   0.000  0.00  0.00    -0.196 NA
BRANCH  20  21
ATOM     21  C   UNL     1       2.143  -2.062   0.000  0.00  0.00    +0.174 C 
BRANCH  21  29
ATOM     29  C   UNL     1       2.858  -2.475   0.000  0.00  0.00    +0.281 C 
ATOM     30  N   UNL     1       3.572  -2.062   0.000  0.00  0.00    -0.086 NA
ATOM     31  O   UNL     1       2.858  -3.300   0.000  0.00  0.00    -0.270 OA
ENDBRANCH  21  29
BRANCH  21  22
ATOM     22  C   UNL     1       2.143  -1.238   0.000  0.00  0.00    +0.031 C 
BRANCH  22  23
ATOM     23  C   UNL     1       2.858  -0.825   0.000  0.00  0.00    +0.002 C 
ATOM     24  C   UNL     1       2.858   0.000   0.000  0.00  0.00    +0.000 C 
ATOM     25  C   UNL     1       3.572   0.412   0.000  0.00  0.00    +0.000 C 
ATOM     26  C   UNL     1       4.287   0.000   0.000  0.00  0.00    +0.000 C 
ATOM     27  C   UNL     1       4.287  -0.825   0.000  0.00  0.00    +0.000 C 
ATOM     28  C   UNL     1       3.572  -1.238   0.000  0.00  0.00    +0.000 C 
ENDBRANCH  22  23
ENDBRANCH  21  22
ENDBRANCH  20  21
ENDBRANCH  16  18
TORSDOF 7
