REMARK  Name = 
REMARK  7 active torsions:
REMARK  status: ('A' for Active; 'I' for Inactive)
REMARK    1  A    between atoms: C_2  and  C_3
REMARK    2  A    between atoms: C_3  and  C_4
REMARK    3  A    between atoms: C_4  and  C_5
REMARK    4  A    between atoms: C_12  and  N_15
REMARK    5  A    between atoms: N_15  and  S_16
REMARK    6  A    between atoms: S_16  and  C_19
REMARK    7  A    between atoms: N_24  and  C_25
REMARK                            x       y       z     vdW  Elec       q    Type
REMARK                         _______ _______ _______ _____ _____    ______ ____
ROOT
ATOM      5  C   UNL     1       3.279   1.238   0.000  0.00  0.00    +0.080 C 
ATOM      6  C   UNL     1       3.993   0.825   0.000  0.00  0.00    +0.131 C 
ATOM      7  N   UNL     1       3.993   0.000   0.000  0.00  0.00    -0.203 NA
ATOM      8  C   UNL     1       3.279  -0.412   0.000  0.00  0.00    +0.256 C 
ATOM      9  O   UNL     1       3.279  -1.238   0.000  0.00  0.00    -0.272 OA
ATOM     10  C   UNL     1       2.564   0.000   0.000  0.00  0.00    +0.138 C 
ATOM     11  C   UNL     1       1.780  -0.255   0.000  0.00  0.00    +0.046 C 
ATOM     12  C   UNL     1       1.295   0.412   0.000  0.00  0.00    +0.115 C 
ATOM     13  C   UNL     1       1.780   1.080   0.000  0.00  0.00    +0.092 C 
ATOM     14  N   UNL     1       2.564   0.825   0.000  0.00  0.00    -0.265 NA
ENDROOT
BRANCH   5   4
ATOM      4  C   UNL     1       3.279   2.062   0.000  0.00  0.00    +0.027 C 
BRANCH   4   3
ATOM      3  C   UNL     1       3.993   2.475   0.000  0.00  0.00    +0.089 C 
BRANCH   3   2
ATOM      1  O   UNL     1       4.708   1.238   0.000  0.00  0.00    -0.273 OA
ATOM      2  C   UNL     1       4.708   2.062   0.000  0.00  0.00    +0.246 C 
ATOM     24  N   UNL     1       5.422   2.475   0.000  0.00  0.00    -0.179 NA
BRANCH  24  25
ATOM     25  C   UNL     1       6.137   2.062   0.000  0.00  0.00    +0.073 A 
ATOM     26  C   UNL     1       6.851   2.475   0.000  0.00  0.00    +0.017 A 
ATOM     27  C   UNL     1       7.566   2.062   0.000  0.00  0.00    +0.001 A 
ATOM     28  C   UNL     1       7.566   1.238   0.000  0.00  0.00    +0.000 A 
ATOM     29  C   UNL     1       6.851   0.825   0.000  0.00  0.00    +0.001 A 
ATOM     30  C   UNL     1       6.137   1.238   0.000  0.00  0.00    +0.017 A 
ENDBRANCH  24  25
ENDBRANCH   3   2
ENDBRANCH   4   3
ENDBRANCH   5   4
BRANCH  12  15
ATOM     15  N   UNL     1       0.470   0.412   0.000  0.00  0.00    -0.077 NA
BRANCH  15  16
ATOM     16  S   UNL     1       0.057  -0.302   0.000  0.00  0.00    +0.083 S 
ATOM     17  O   UNL     1       0.772  -0.715   0.000  0.00  0.00    -0.151 OA
ATOM     18  O   UNL     1      -0.657   0.111   0.000  0.00  0.00    -0.151 OA
BRANCH  16  19
ATOM     19  C   UNL     1      -0.355  -1.016   0.000  0.00  0.00    +0.153 A 
ATOM     20  C   UNL     1      -0.019  -1.770   0.000  0.00  0.00    +0.027 A 
ATOM     21  C   UNL     1      -0.633  -2.322   0.000  0.00  0.00    +0.009 A 
ATOM     22  C   UNL     1      -1.347  -1.910   0.000  0.00  0.00    +0.037 A 
ATOM     23  S   UNL     1      -1.176  -1.103   0.000  0.00  0.00    -0.067 S 
ENDBRANCH  16  19
ENDBRANCH  15  16
ENDBRANCH  12  15
TORSDOF 7
