REMARK  Name = 
REMARK  7 active torsions:
REMARK  status: ('A' for Active; 'I' for Inactive)
REMARK    1  A    between atoms: O_2  and  C_3
REMARK    2  A    between atoms: C_3  and  C_4
REMARK    3  A    between atoms: C_9  and  C_11
REMARK    4  A    between atoms: C_11  and  C_12
REMARK    5  A    between atoms: C_14  and  C_15
REMARK    6  A    between atoms: C_15  and  N_16
REMARK    7  A    between atoms: C_17  and  C_19
REMARK                            x       y       z     vdW  Elec       q    Type
REMARK                         _______ _______ _______ _____ _____    ______ ____
ROOT
ATOM     12  C   UNL     1       1.964  -5.939   0.000  0.00  0.00    +0.157 C 
ATOM     13  O   UNL     1       1.296  -6.424   0.000  0.00  0.00    -0.351 OA
ATOM     14  C   UNL     1       0.629  -5.939   0.000  0.00  0.00    +0.170 C 
ATOM     26  C   UNL     1       0.884  -5.155   0.000  0.00  0.00    +0.213 C 
ATOM     27  O   UNL     1       0.399  -4.487   0.000  0.00  0.00    -0.218 OA
ATOM     28  C   UNL     1       1.709  -5.155   0.000  0.00  0.00    +0.212 C 
ATOM     29  O   UNL     1       2.194  -4.487   0.000  0.00  0.00    -0.218 OA
ENDROOT
BRANCH  12  11
ATOM     11  C   UNL     1       2.748  -6.194   0.000  0.00  0.00    +0.117 C 
BRANCH  11   9
ATOM      4  C   UNL     1       4.814  -5.412   0.000  0.00  0.00    +0.105 C 
ATOM      5  C   UNL     1       5.481  -5.897   0.000  0.00  0.00    +0.024 C 
ATOM      6  C   UNL     1       5.226  -6.682   0.000  0.00  0.00    +0.023 C 
ATOM      7  C   UNL     1       4.401  -6.682   0.000  0.00  0.00    +0.093 C 
ATOM      8  N   UNL     1       4.146  -5.897   0.000  0.00  0.00    -0.279 N 
ATOM      9  C   UNL     1       3.362  -5.642   0.000  0.00  0.00    +0.228 C 
ATOM     10  O   UNL     1       3.190  -4.835   0.000  0.00  0.00    -0.275 OA
BRANCH   4   3
ATOM      3  C   UNL     1       4.814  -4.587   0.000  0.00  0.00    +0.162 C 
BRANCH   3   2
ATOM      1  C   UNL     1       5.528  -3.350   0.000  0.00  0.00    +0.174 C 
ATOM      2  O   UNL     1       5.528  -4.175   0.000  0.00  0.00    -0.349 OA
ENDBRANCH   3   2
ENDBRANCH   4   3
ENDBRANCH  11   9
ENDBRANCH  12  11
BRANCH  14  15
ATOM     15  C   UNL     1      -0.156  -6.194   0.000  0.00  0.00    +0.148 C 
BRANCH  15  16
ATOM     16  N   UNL     1      -0.769  -5.642   0.000  0.00  0.00    -0.199 NA
ATOM     17  C   UNL     1      -1.553  -5.897   0.000  0.00  0.00    +0.265 C 
ATOM     18  O   UNL     1      -1.725  -6.704   0.000  0.00  0.00    -0.268 OA
BRANCH  17  19
ATOM     19  C   UNL     1      -2.166  -5.345   0.000  0.00  0.00    +0.057 A 
ATOM     20  C   UNL     1      -2.951  -5.600   0.000  0.00  0.00    +0.005 A 
ATOM     21  C   UNL     1      -3.564  -5.048   0.000  0.00  0.00    +0.002 A 
ATOM     22  C   UNL     1      -3.393  -4.241   0.000  0.00  0.00    +0.030 A 
ATOM     23  C   UNL     1      -2.608  -3.986   0.000  0.00  0.00    +0.140 A 
ATOM     24  F   UNL     1      -2.437  -3.179   0.000  0.00  0.00    -0.204 F 
ATOM     25  C   UNL     1      -1.995  -4.538   0.000  0.00  0.00    +0.034 A 
ENDBRANCH  17  19
ENDBRANCH  15  16
ENDBRANCH  14  15
TORSDOF 7
