REMARK  Name = 
REMARK  2 active torsions:
REMARK  status: ('A' for Active; 'I' for Inactive)
REMARK    1  A    between atoms: C_7  and  C_8
REMARK    2  A    between atoms: C_10  and  C_13
REMARK                            x       y       z     vdW  Elec       q    Type
REMARK                         _______ _______ _______ _____ _____    ______ ____
ROOT
ATOM      8  C   UNL     1      -2.047  -3.270   0.000  0.00  0.00    +0.251 A 
ATOM      9  N   UNL     1      -2.715  -3.755   0.000  0.00  0.00    -0.190 NA
ATOM     10  C   UNL     1      -3.382  -3.270   0.000  0.00  0.00    +0.203 A 
ATOM     11  N   UNL     1      -3.127  -2.486   0.000  0.00  0.00    -0.056 NA
ATOM     12  O   UNL     1      -2.303  -2.486   0.000  0.00  0.00    -0.336 OA
ENDROOT
BRANCH  10  13
ATOM     13  C   UNL     1      -4.167  -3.525   0.000  0.00  0.00    +0.041 A 
ATOM     14  C   UNL     1      -4.338  -4.332   0.000  0.00  0.00    +0.032 A 
ATOM     15  C   UNL     1      -5.123  -4.587   0.000  0.00  0.00    +0.136 A 
ATOM     16  F   UNL     1      -5.295  -5.394   0.000  0.00  0.00    -0.205 F 
ATOM     17  C   UNL     1      -5.736  -4.035   0.000  0.00  0.00    +0.006 A 
ATOM     18  C   UNL     1      -6.521  -4.290   0.000  0.00  0.00    +0.033 C 
ATOM     19  C   UNL     1      -5.565  -3.228   0.000  0.00  0.00    -0.002 A 
ATOM     20  C   UNL     1      -4.780  -2.973   0.000  0.00  0.00    +0.003 A 
ENDBRANCH  10  13
BRANCH   8   7
ATOM      1  C   UNL     1      -0.596  -2.216   0.000  0.00  0.00    +0.090 C 
ATOM      2  N   UNL     1      -0.596  -3.041   0.000  0.00  0.00    -0.263 NA
ATOM      3  C   UNL     1       0.072  -3.525   0.000  0.00  0.00    +0.106 C 
ATOM      4  C   UNL     1      -0.183  -4.310   0.000  0.00  0.00    +0.170 C 
ATOM      5  O   UNL     1       0.302  -4.977   0.000  0.00  0.00    -0.222 OA
ATOM      6  C   UNL     1      -1.008  -4.310   0.000  0.00  0.00    +0.060 C 
ATOM      7  C   UNL     1      -1.263  -3.525   0.000  0.00  0.00    +0.140 C 
ENDBRANCH   8   7
TORSDOF 2
