REMARK  Name = 
REMARK  6 active torsions:
REMARK  status: ('A' for Active; 'I' for Inactive)
REMARK    1  A    between atoms: N_4  and  C_5
REMARK    2  A    between atoms: C_8  and  C_9
REMARK    3  A    between atoms: C_9  and  N_10
REMARK    4  A    between atoms: C_15  and  C_16
REMARK    5  A    between atoms: C_18  and  C_19
REMARK    6  A    between atoms: C_19  and  C_20
REMARK                            x       y       z     vdW  Elec       q    Type
REMARK                         _______ _______ _______ _____ _____    ______ ____
ROOT
ATOM     10  N   UNL     1       2.943  -3.335   0.000  0.00  0.00    -0.260 NA
ATOM     11  C   UNL     1       3.611  -3.820   0.000  0.00  0.00    +0.106 C 
ATOM     12  C   UNL     1       3.356  -4.605   0.000  0.00  0.00    +0.170 C 
ATOM     13  O   UNL     1       3.841  -5.272   0.000  0.00  0.00    -0.222 OA
ATOM     14  C   UNL     1       2.531  -4.605   0.000  0.00  0.00    +0.060 C 
ATOM     15  C   UNL     1       2.276  -3.820   0.000  0.00  0.00    +0.140 C 
ENDROOT
BRANCH  15  16
ATOM     16  C   UNL     1       1.491  -3.565   0.000  0.00  0.00    +0.251 A 
ATOM     17  N   UNL     1       0.824  -4.050   0.000  0.00  0.00    -0.193 NA
ATOM     18  C   UNL     1       0.156  -3.565   0.000  0.00  0.00    +0.185 A 
ATOM     28  N   UNL     1       0.411  -2.780   0.000  0.00  0.00    -0.060 NA
ATOM     29  O   UNL     1       1.236  -2.780   0.000  0.00  0.00    -0.336 OA
BRANCH  18  19
ATOM     19  C   UNL     1      -0.628  -3.820   0.000  0.00  0.00    +0.096 C 
BRANCH  19  20
ATOM     20  C   UNL     1      -1.242  -3.268   0.000  0.00  0.00    -0.004 A 
ATOM     21  C   UNL     1      -2.026  -3.523   0.000  0.00  0.00    -0.001 A 
ATOM     22  C   UNL     1      -2.639  -2.971   0.000  0.00  0.00    +0.029 A 
ATOM     23  C   UNL     1      -2.468  -2.164   0.000  0.00  0.00    +0.141 A 
ATOM     24  F   UNL     1      -3.081  -1.612   0.000  0.00  0.00    -0.204 F 
ATOM     25  C   UNL     1      -1.683  -1.909   0.000  0.00  0.00    +0.041 A 
ATOM     26  C   UNL     1      -1.070  -2.461   0.000  0.00  0.00    +0.056 A 
ATOM     27 CL   UNL     1      -0.285  -2.206   0.000  0.00  0.00    -0.082 Cl
ENDBRANCH  19  20
ENDBRANCH  18  19
ENDBRANCH  15  16
BRANCH  10   9
ATOM      9  C   UNL     1       2.943  -2.510   0.000  0.00  0.00    +0.100 C 
BRANCH   9   8
ATOM      5  C   UNL     1       5.087  -1.272   0.000  0.00  0.00    +0.073 A 
ATOM      6  C   UNL     1       5.087  -2.098   0.000  0.00  0.00    +0.016 A 
ATOM      7  C   UNL     1       4.372  -2.510   0.000  0.00  0.00    -0.002 A 
ATOM      8  C   UNL     1       3.658  -2.098   0.000  0.00  0.00    -0.006 A 
ATOM     30  C   UNL     1       3.658  -1.272   0.000  0.00  0.00    -0.002 A 
ATOM     31  C   UNL     1       4.372  -0.860   0.000  0.00  0.00    +0.016 A 
BRANCH   5   4
ATOM      1  C   UNL     1       6.516   0.378   0.000  0.00  0.00    +0.097 C 
ATOM      2  C   UNL     1       5.801  -0.035   0.000  0.00  0.00    +0.246 C 
ATOM      3  O   UNL     1       5.087   0.378   0.000  0.00  0.00    -0.273 OA
ATOM      4  N   UNL     1       5.801  -0.860   0.000  0.00  0.00    -0.179 NA
ENDBRANCH   5   4
ENDBRANCH   9   8
ENDBRANCH  10   9
TORSDOF 6
