REMARK  Name = 
REMARK  8 active torsions:
REMARK  status: ('A' for Active; 'I' for Inactive)
REMARK    1  A    between atoms: O_2  and  C_3
REMARK    2  A    between atoms: C_3  and  C_4
REMARK    3  A    between atoms: C_4  and  O_5
REMARK    4  A    between atoms: O_5  and  C_6
REMARK    5  A    between atoms: C_7  and  C_12
REMARK    6  A    between atoms: C_15  and  C_17
REMARK    7  A    between atoms: N_21  and  C_22
REMARK    8  A    between atoms: C_22  and  C_23
REMARK                            x       y       z     vdW  Elec       q    Type
REMARK                         _______ _______ _______ _____ _____    ______ ____
ROOT
ATOM     12  C   UNL     1      -1.322  -0.062   0.000  0.00  0.00    +0.208 A 
ATOM     13  N   UNL     1      -0.655  -0.546   0.000  0.00  0.00    -0.056 NA
ATOM     14  O   UNL     1      -0.910  -1.331   0.000  0.00  0.00    -0.336 OA
ATOM     15  C   UNL     1      -1.735  -1.331   0.000  0.00  0.00    +0.251 A 
ATOM     16  N   UNL     1      -1.990  -0.546   0.000  0.00  0.00    -0.189 NA
ENDROOT
BRANCH  12   7
ATOM      6  C   UNL     1      -0.608   1.176   0.000  0.00  0.00    +0.228 A 
ATOM      7  C   UNL     1      -1.322   0.763   0.000  0.00  0.00    +0.092 A 
ATOM      8  C   UNL     1      -2.037   1.176   0.000  0.00  0.00    +0.009 A 
ATOM      9  C   UNL     1      -2.037   2.001   0.000  0.00  0.00    +0.021 A 
ATOM     10  C   UNL     1      -1.322   2.413   0.000  0.00  0.00    +0.102 A 
ATOM     11  N   UNL     1      -0.608   2.001   0.000  0.00  0.00    -0.210 NA
BRANCH   6   5
ATOM      5  O   UNL     1       0.107   0.763   0.000  0.00  0.00    -0.457 OA
BRANCH   5   4
ATOM      4  C   UNL     1       0.821   1.176   0.000  0.00  0.00    +0.239 C 
BRANCH   4   3
ATOM      3  C   UNL     1       1.536   0.763   0.000  0.00  0.00    +0.189 C 
BRANCH   3   2
ATOM      1  C   UNL     1       2.965   0.763   0.000  0.00  0.00    +0.174 C 
ATOM      2  O   UNL     1       2.250   1.176   0.000  0.00  0.00    -0.347 OA
ENDBRANCH   3   2
ENDBRANCH   4   3
ENDBRANCH   5   4
ENDBRANCH   6   5
ENDBRANCH  12   7
BRANCH  15  17
ATOM     17  C   UNL     1      -2.220  -1.999   0.000  0.00  0.00    +0.138 C 
ATOM     18  C   UNL     1      -1.965  -2.783   0.000  0.00  0.00    +0.027 C 
ATOM     19  C   UNL     1      -2.632  -3.268   0.000  0.00  0.00    +0.019 C 
ATOM     20  C   UNL     1      -3.300  -2.783   0.000  0.00  0.00    +0.073 C 
ATOM     21  N   UNL     1      -3.045  -1.999   0.000  0.00  0.00    -0.260 NA
BRANCH  21  22
ATOM     22  C   UNL     1      -3.530  -1.331   0.000  0.00  0.00    +0.138 C 
BRANCH  22  23
ATOM     23  C   UNL     1      -4.350  -1.417   0.000  0.00  0.00    +0.139 A 
ATOM     24  C   UNL     1      -4.763  -2.132   0.000  0.00  0.00    +0.038 A 
ATOM     25  C   UNL     1      -5.569  -1.960   0.000  0.00  0.00    +0.043 A 
ATOM     26  C   UNL     1      -5.656  -1.140   0.000  0.00  0.00    +0.179 A 
ATOM     27  O   UNL     1      -4.902  -0.804   0.000  0.00  0.00    -0.453 OA
ENDBRANCH  22  23
ENDBRANCH  21  22
ENDBRANCH  15  17
TORSDOF 8
