REMARK  Name = 
REMARK  5 active torsions:
REMARK  status: ('A' for Active; 'I' for Inactive)
REMARK    1  A    between atoms: O_2  and  C_3
REMARK    2  A    between atoms: C_6  and  C_9
REMARK    3  A    between atoms: C_12  and  C_14
REMARK    4  A    between atoms: N_17  and  S_19
REMARK    5  A    between atoms: S_19  and  C_22
REMARK                            x       y       z     vdW  Elec       q    Type
REMARK                         _______ _______ _______ _____ _____    ______ ____
ROOT
ATOM     14  C   UNL     1       1.127  -5.802   0.000  0.00  0.00    +0.097 C 
ATOM     15  C   UNL     1       1.382  -6.587   0.000  0.00  0.00    +0.030 C 
ATOM     16  C   UNL     1       0.715  -7.072   0.000  0.00  0.00    +0.096 C 
ATOM     17  N   UNL     1       0.047  -6.587   0.000  0.00  0.00    -0.155 NA
ATOM     18  C   UNL     1       0.302  -5.802   0.000  0.00  0.00    +0.105 C 
ENDROOT
BRANCH  14  12
ATOM      9  C   UNL     1       2.024  -3.865   0.000  0.00  0.00    +0.250 A 
ATOM     10  N   UNL     1       2.692  -4.350   0.000  0.00  0.00    -0.107 NA
ATOM     11  N   UNL     1       2.437  -5.135   0.000  0.00  0.00    -0.111 NA
ATOM     12  C   UNL     1       1.612  -5.135   0.000  0.00  0.00    +0.227 A 
ATOM     13  O   UNL     1       1.357  -4.350   0.000  0.00  0.00    -0.419 OA
BRANCH   9   6
ATOM      3  C   UNL     1       2.024  -1.391   0.000  0.00  0.00    +0.139 A 
ATOM      4  C   UNL     1       2.739  -1.803   0.000  0.00  0.00    +0.037 A 
ATOM      5  C   UNL     1       2.739  -2.628   0.000  0.00  0.00    +0.008 A 
ATOM      6  C   UNL     1       2.024  -3.041   0.000  0.00  0.00    +0.055 A 
ATOM      7  C   UNL     1       1.310  -2.628   0.000  0.00  0.00    +0.008 A 
ATOM      8  C   UNL     1       1.310  -1.803   0.000  0.00  0.00    +0.037 A 
BRANCH   3   2
ATOM      1  C   UNL     1       1.310  -0.153   0.000  0.00  0.00    +0.252 C 
ATOM      2  O   UNL     1       2.024  -0.566   0.000  0.00  0.00    -0.471 OA
ENDBRANCH   3   2
ENDBRANCH   9   6
ENDBRANCH  14  12
BRANCH  17  19
ATOM     19  S   UNL     1      -0.738  -6.842   0.000  0.00  0.00    +0.063 S 
ATOM     20  O   UNL     1      -0.993  -6.057   0.000  0.00  0.00    -0.153 OA
ATOM     21  O   UNL     1      -0.483  -7.627   0.000  0.00  0.00    -0.153 OA
BRANCH  19  22
ATOM     22  C   UNL     1      -1.522  -7.097   0.000  0.00  0.00    +0.122 A 
ATOM     23  C   UNL     1      -1.694  -7.904   0.000  0.00  0.00    +0.020 A 
ATOM     24  C   UNL     1      -2.478  -8.159   0.000  0.00  0.00    -0.003 A 
ATOM     25  C   UNL     1      -3.091  -7.607   0.000  0.00  0.00    -0.022 A 
ATOM     26  C   UNL     1      -3.876  -7.862   0.000  0.00  0.00    +0.031 C 
ATOM     27  C   UNL     1      -2.920  -6.800   0.000  0.00  0.00    -0.003 A 
ATOM     28  C   UNL     1      -2.135  -6.545   0.000  0.00  0.00    +0.020 A 
ENDBRANCH  19  22
ENDBRANCH  17  19
TORSDOF 5
