REMARK  Name = 
REMARK  7 active torsions:
REMARK  status: ('A' for Active; 'I' for Inactive)
REMARK    1  A    between atoms: N_2  and  C_4
REMARK    2  A    between atoms: C_7  and  C_10
REMARK    3  A    between atoms: C_13  and  C_15
REMARK    4  A    between atoms: N_19  and  C_20
REMARK    5  A    between atoms: C_20  and  C_21
REMARK    6  A    between atoms: C_25  and  O_26
REMARK    7  A    between atoms: O_26  and  C_27
REMARK                            x       y       z     vdW  Elec       q    Type
REMARK                         _______ _______ _______ _____ _____    ______ ____
ROOT
ATOM     15  C   UNL     1       0.151  -4.727   0.000  0.00  0.00    +0.138 C 
ATOM     16  C   UNL     1       0.406  -5.512   0.000  0.00  0.00    +0.027 C 
ATOM     17  C   UNL     1      -0.262  -5.997   0.000  0.00  0.00    +0.019 C 
ATOM     18  C   UNL     1      -0.929  -5.512   0.000  0.00  0.00    +0.073 C 
ATOM     19  N   UNL     1      -0.674  -4.727   0.000  0.00  0.00    -0.263 NA
ENDROOT
BRANCH  15  13
ATOM     10  C   UNL     1       1.048  -2.790   0.000  0.00  0.00    +0.205 A 
ATOM     11  N   UNL     1       1.716  -3.275   0.000  0.00  0.00    -0.056 NA
ATOM     12  O   UNL     1       1.461  -4.060   0.000  0.00  0.00    -0.336 OA
ATOM     13  C   UNL     1       0.636  -4.060   0.000  0.00  0.00    +0.251 A 
ATOM     14  N   UNL     1       0.381  -3.275   0.000  0.00  0.00    -0.190 NA
BRANCH  10   7
ATOM      4  C   UNL     1       1.048  -0.315   0.000  0.00  0.00    +0.132 A 
ATOM      5  C   UNL     1       1.763  -0.728   0.000  0.00  0.00    +0.034 A 
ATOM      6  C   UNL     1       1.763  -1.553   0.000  0.00  0.00    +0.008 A 
ATOM      7  C   UNL     1       1.048  -1.965   0.000  0.00  0.00    +0.058 A 
ATOM      8  C   UNL     1       0.334  -1.553   0.000  0.00  0.00    +0.103 A 
ATOM      9  N   UNL     1       0.334  -0.728   0.000  0.00  0.00    -0.229 NA
BRANCH   4   2
ATOM      1  C   UNL     1       0.334   0.922   0.000  0.00  0.00    +0.114 C 
ATOM      2  N   UNL     1       1.048   0.510   0.000  0.00  0.00    -0.290 N 
ATOM      3  C   UNL     1       1.763   0.922   0.000  0.00  0.00    +0.114 C 
ENDBRANCH   4   2
ENDBRANCH  10   7
ENDBRANCH  15  13
BRANCH  19  20
ATOM     20  C   UNL     1      -1.159  -4.060   0.000  0.00  0.00    +0.100 C 
BRANCH  20  21
ATOM     21  C   UNL     1      -1.979  -4.146   0.000  0.00  0.00    -0.003 A 
ATOM     22  C   UNL     1      -2.315  -4.900   0.000  0.00  0.00    -0.003 A 
ATOM     23  C   UNL     1      -3.135  -4.986   0.000  0.00  0.00    +0.003 A 
ATOM     24  C   UNL     1      -3.620  -4.319   0.000  0.00  0.00    +0.037 A 
ATOM     25  C   UNL     1      -3.285  -3.565   0.000  0.00  0.00    +0.147 A 
ATOM     31  C   UNL     1      -2.464  -3.479   0.000  0.00  0.00    +0.034 A 
BRANCH  25  26
ATOM     26  O   UNL     1      -3.770  -2.897   0.000  0.00  0.00    -0.404 OA
BRANCH  26  27
ATOM     27  C   UNL     1      -4.590  -2.984   0.000  0.00  0.00    +0.575 C 
ATOM     28  F   UNL     1      -5.411  -3.070   0.000  0.00  0.00    -0.133 F 
ATOM     29  F   UNL     1      -4.676  -2.163   0.000  0.00  0.00    -0.133 F 
ATOM     30  F   UNL     1      -4.504  -3.804   0.000  0.00  0.00    -0.133 F 
ENDBRANCH  26  27
ENDBRANCH  25  26
ENDBRANCH  20  21
ENDBRANCH  19  20
TORSDOF 7
