REMARK  Name = 
REMARK  7 active torsions:
REMARK  status: ('A' for Active; 'I' for Inactive)
REMARK    1  A    between atoms: N_2  and  C_3
REMARK    2  A    between atoms: N_2  and  C_11
REMARK    3  A    between atoms: C_3  and  C_4
REMARK    4  A    between atoms: C_4  and  C_5
REMARK    5  A    between atoms: C_12  and  C_13
REMARK    6  A    between atoms: C_13  and  N_14
REMARK    7  A    between atoms: C_19  and  C_20
REMARK                            x       y       z     vdW  Elec       q    Type
REMARK                         _______ _______ _______ _____ _____    ______ ____
ROOT
ATOM     11  C   UNL     1      -1.322  -2.537   0.000  0.00  0.00    +0.120 C 
ATOM     12  C   UNL     1      -0.655  -3.022   0.000  0.00  0.00    +0.154 C 
ATOM     18  O   UNL     1      -0.910  -3.806   0.000  0.00  0.00    -0.350 OA
ATOM     19  C   UNL     1      -1.735  -3.806   0.000  0.00  0.00    +0.180 C 
ATOM     22  C   UNL     1      -1.990  -3.022   0.000  0.00  0.00    +0.198 C 
ATOM     23  O   UNL     1      -2.774  -2.767   0.000  0.00  0.00    -0.219 OA
ENDROOT
BRANCH  11   2
ATOM      1  C   UNL     1      -0.608  -1.299   0.000  0.00  0.00    +0.090 C 
ATOM      2  N   UNL     1      -1.322  -1.712   0.000  0.00  0.00    -0.268 NA
BRANCH   2   3
ATOM      3  C   UNL     1      -2.037  -1.299   0.000  0.00  0.00    +0.079 C 
BRANCH   3   4
ATOM      4  C   UNL     1      -2.037  -0.474   0.000  0.00  0.00    +0.063 C 
BRANCH   4   5
ATOM      5  C   UNL     1      -2.751  -0.062   0.000  0.00  0.00    +0.060 A 
ATOM      6  N   UNL     1      -3.466  -0.474   0.000  0.00  0.00    -0.248 NA
ATOM      7  C   UNL     1      -4.180  -0.062   0.000  0.00  0.00    +0.098 A 
ATOM      8  C   UNL     1      -4.180   0.763   0.000  0.00  0.00    +0.021 A 
ATOM      9  C   UNL     1      -3.466   1.176   0.000  0.00  0.00    +0.003 A 
ATOM     10  C   UNL     1      -2.751   0.763   0.000  0.00  0.00    +0.015 A 
ENDBRANCH   4   5
ENDBRANCH   3   4
ENDBRANCH   2   3
ENDBRANCH  11   2
BRANCH  19  20
ATOM     20  C   UNL     1      -2.220  -4.474   0.000  0.00  0.00    +0.214 C 
ATOM     21  O   UNL     1      -3.040  -4.387   0.000  0.00  0.00    -0.218 OA
ENDBRANCH  19  20
BRANCH  12  13
ATOM     13  C   UNL     1       0.130  -2.767   0.000  0.00  0.00    +0.146 C 
BRANCH  13  14
ATOM     14  N   UNL     1       0.301  -1.960   0.000  0.00  0.00    -0.203 NA
ATOM     15  C   UNL     1       1.086  -1.705   0.000  0.00  0.00    +0.242 C 
ATOM     16  C   UNL     1       1.699  -2.257   0.000  0.00  0.00    +0.096 C 
ATOM     17  O   UNL     1       1.258  -0.898   0.000  0.00  0.00    -0.273 OA
ENDBRANCH  13  14
ENDBRANCH  12  13
TORSDOF 7
