REMARK  Name = 
REMARK  7 active torsions:
REMARK  status: ('A' for Active; 'I' for Inactive)
REMARK    1  A    between atoms: C_2  and  C_4
REMARK    2  A    between atoms: C_6  and  C_7
REMARK    3  A    between atoms: C_7  and  C_8
REMARK    4  A    between atoms: C_11  and  C_12
REMARK    5  A    between atoms: C_12  and  O_13
REMARK    6  A    between atoms: O_13  and  C_14
REMARK    7  A    between atoms: C_25  and  C_26
REMARK                            x       y       z     vdW  Elec       q    Type
REMARK                         _______ _______ _______ _____ _____    ______ ____
ROOT
ATOM      8  C   UNL     1       1.429  -2.475   0.000  0.00  0.00    +0.227 A 
ATOM      9  N   UNL     1       2.096  -2.960   0.000  0.00  0.00    -0.112 NA
ATOM     10  N   UNL     1       1.841  -3.744   0.000  0.00  0.00    -0.108 NA
ATOM     11  C   UNL     1       1.016  -3.744   0.000  0.00  0.00    +0.270 A 
ATOM     21  O   UNL     1       0.761  -2.960   0.000  0.00  0.00    -0.420 OA
ENDROOT
BRANCH   8   7
ATOM      7  C   UNL     1       1.429  -1.650   0.000  0.00  0.00    +0.091 C 
BRANCH   7   6
ATOM      4  C   UNL     1       0.000   0.000   0.000  0.00  0.00    +0.007 C 
ATOM      5  C   UNL     1       0.715  -0.412   0.000  0.00  0.00    +0.005 C 
ATOM      6  C   UNL     1       0.715  -1.238   0.000  0.00  0.00    +0.027 C 
ATOM     22  C   UNL     1       0.000  -1.650   0.000  0.00  0.00    -0.048 C 
ATOM     23  C   UNL     1       0.000  -2.475   0.000  0.00  0.00    +0.026 C 
ATOM     24  C   UNL     1      -0.715  -1.238   0.000  0.00  0.00    -0.032 C 
ATOM     25  C   UNL     1      -0.715  -0.412   0.000  0.00  0.00    +0.054 C 
BRANCH   4   2
ATOM      1  C   UNL     1      -0.715   1.238   0.000  0.00  0.00    +0.000 C 
ATOM      2  C   UNL     1       0.000   0.825   0.000  0.00  0.00    +0.000 C 
ATOM      3  C   UNL     1       0.715   1.238   0.000  0.00  0.00    +0.000 C 
ENDBRANCH   4   2
BRANCH  25  26
ATOM     26  C   UNL     1      -1.429   0.000   0.000  0.00  0.00    +0.186 C 
ATOM     27  O   UNL     1      -2.143  -0.412   0.000  0.00  0.00    -0.220 OA
ENDBRANCH  25  26
ENDBRANCH   7   6
ENDBRANCH   8   7
BRANCH  11  12
ATOM     12  C   UNL     1       0.531  -4.412   0.000  0.00  0.00    +0.291 C 
BRANCH  12  13
ATOM     13  O   UNL     1       0.867  -5.166   0.000  0.00  0.00    -0.465 OA
BRANCH  13  14
ATOM     14  C   UNL     1       0.382  -5.833   0.000  0.00  0.00    +0.139 A 
ATOM     15  C   UNL     1       0.718  -6.587   0.000  0.00  0.00    +0.039 A 
ATOM     16  C   UNL     1       0.233  -7.254   0.000  0.00  0.00    +0.033 A 
ATOM     17  C   UNL     1      -0.588  -7.168   0.000  0.00  0.00    +0.140 A 
ATOM     18  F   UNL     1      -1.073  -7.835   0.000  0.00  0.00    -0.204 F 
ATOM     19  C   UNL     1      -0.923  -6.414   0.000  0.00  0.00    +0.033 A 
ATOM     20  C   UNL     1      -0.438  -5.747   0.000  0.00  0.00    +0.039 A 
ENDBRANCH  13  14
ENDBRANCH  12  13
ENDBRANCH  11  12
TORSDOF 7
