REMARK  Name = 
REMARK  7 active torsions:
REMARK  status: ('A' for Active; 'I' for Inactive)
REMARK    1  A    between atoms: O_2  and  C_3
REMARK    2  A    between atoms: C_3  and  C_4
REMARK    3  A    between atoms: C_4  and  N_5
REMARK    4  A    between atoms: N_5  and  C_6
REMARK    5  A    between atoms: C_12  and  N_13
REMARK    6  A    between atoms: N_16  and  C_17
REMARK    7  A    between atoms: C_21  and  O_22
REMARK                            x       y       z     vdW  Elec       q    Type
REMARK                         _______ _______ _______ _____ _____    ______ ____
ROOT
ATOM      6  C   UNL     1       1.611  -0.930   0.000  0.00  0.00    +0.161 C 
ATOM      7  C   UNL     1       0.640  -0.930   0.000  0.00  0.00    +0.254 C 
ATOM      8  O   UNL     1       0.120  -1.643   0.000  0.00  0.00    -0.327 OA
ATOM      9  C   UNL     1       0.740  -1.266   0.000  0.00  0.00    +0.176 C 
ATOM     10  C   UNL     1       1.060  -0.557   0.000  0.00  0.00    +0.170 C 
ATOM     11  O   UNL     1       0.500  -0.117   0.000  0.00  0.00    -0.327 OA
ATOM     12  C   UNL     1       1.989  -0.542   0.000  0.00  0.00    +0.158 C 
ATOM     25  C   UNL     1       2.127  -1.359   0.000  0.00  0.00    +0.195 C 
ATOM     26  O   UNL     1       2.539  -2.074   0.000  0.00  0.00    -0.220 OA
ENDROOT
BRANCH  12  13
ATOM     13  N   UNL     1       2.517   0.093   0.000  0.00  0.00    -0.183 NA
ATOM     14  C   UNL     1       2.231   0.867   0.000  0.00  0.00    +0.344 C 
ATOM     15  O   UNL     1       1.417   1.006   0.000  0.00  0.00    -0.249 OA
ATOM     16  N   UNL     1       2.758   1.501   0.000  0.00  0.00    -0.161 NA
BRANCH  16  17
ATOM     17  C   UNL     1       2.472   2.275   0.000  0.00  0.00    +0.078 A 
ATOM     18  C   UNL     1       1.659   2.414   0.000  0.00  0.00    +0.017 A 
ATOM     19  C   UNL     1       1.373   3.188   0.000  0.00  0.00    +0.004 A 
ATOM     20  C   UNL     1       1.900   3.823   0.000  0.00  0.00    +0.037 A 
ATOM     21  C   UNL     1       2.713   3.683   0.000  0.00  0.00    +0.140 A 
ATOM     24  C   UNL     1       2.999   2.910   0.000  0.00  0.00    +0.054 A 
BRANCH  21  22
ATOM     22  O   UNL     1       3.241   4.318   0.000  0.00  0.00    -0.471 OA
ATOM     23  C   UNL     1       2.955   5.092   0.000  0.00  0.00    +0.252 C 
ENDBRANCH  21  22
ENDBRANCH  16  17
ENDBRANCH  12  13
BRANCH   6   5
ATOM      5  N   UNL     1       1.331  -1.706   0.000  0.00  0.00    -0.209 NA
BRANCH   5   4
ATOM      4  C   UNL     1       0.519  -1.852   0.000  0.00  0.00    +0.121 C 
BRANCH   4   3
ATOM      3  C   UNL     1       0.239  -2.628   0.000  0.00  0.00    +0.161 C 
BRANCH   3   2
ATOM      1  C   UNL     1      -0.854  -3.549   0.000  0.00  0.00    +0.174 C 
ATOM      2  O   UNL     1      -0.573  -2.773   0.000  0.00  0.00    -0.350 OA
ENDBRANCH   3   2
ENDBRANCH   4   3
ENDBRANCH   5   4
ENDBRANCH   6   5
TORSDOF 7
