REMARK  Name = 
REMARK  3 active torsions:
REMARK  status: ('A' for Active; 'I' for Inactive)
REMARK    1  A    between atoms: C_2  and  C_3
REMARK    2  A    between atoms: C_2  and  C_28
REMARK    3  A    between atoms: C_14  and  C_16
REMARK                            x       y       z     vdW  Elec       q    Type
REMARK                         _______ _______ _______ _____ _____    ______ ____
ROOT
ATOM      3  C   UNL     1       0.715  -1.238   0.000  0.00  0.00    +0.039 C 
ATOM      4  C   UNL     1       0.715  -0.412   0.000  0.00  0.00    +0.003 C 
ATOM      5  C   UNL     1       1.429   0.000   0.000  0.00  0.00    +0.001 C 
ATOM      6  C   UNL     1       2.143  -0.412   0.000  0.00  0.00    +0.007 C 
ATOM      7  C   UNL     1       2.143   0.412   0.000  0.00  0.00    +0.000 C 
ATOM      8  C   UNL     1       2.858   0.000   0.000  0.00  0.00    +0.034 C 
ATOM      9  C   UNL     1       3.572  -0.412   0.000  0.00  0.00    +0.023 A 
ATOM     10  C   UNL     1       3.572  -1.238   0.000  0.00  0.00    +0.063 A 
ATOM     11  N   UNL     1       4.357  -1.492   0.000  0.00  0.00    -0.227 NA
ATOM     12  C   UNL     1       4.842  -0.825   0.000  0.00  0.00    +0.185 A 
ATOM     13  N   UNL     1       5.667  -0.825   0.000  0.00  0.00    -0.149 NA
ATOM     14  C   UNL     1       6.079  -0.111   0.000  0.00  0.00    +0.287 C 
ATOM     15  O   UNL     1       5.667   0.604   0.000  0.00  0.00    -0.266 OA
ATOM     22  S   UNL     1       4.357  -0.158   0.000  0.00  0.00    -0.054 S 
ATOM     23  C   UNL     1       2.858  -1.650   0.000  0.00  0.00    +0.043 C 
ATOM     24  C   UNL     1       2.858  -2.475   0.000  0.00  0.00    +0.006 C 
ATOM     25  C   UNL     1       2.143  -1.238   0.000  0.00  0.00    +0.036 C 
ATOM     26  C   UNL     1       1.429  -1.650   0.000  0.00  0.00    +0.153 C 
ATOM     27  O   UNL     1       1.429  -2.475   0.000  0.00  0.00    -0.223 OA
ENDROOT
BRANCH  14  16
ATOM     16  C   UNL     1       6.904  -0.111   0.000  0.00  0.00    +0.116 A 
ATOM     17  C   UNL     1       7.389   0.557   0.000  0.00  0.00    +0.023 A 
ATOM     18  C   UNL     1       8.174   0.302   0.000  0.00  0.00    +0.020 A 
ATOM     19  C   UNL     1       8.174  -0.523   0.000  0.00  0.00    +0.076 A 
ATOM     20  N   UNL     1       7.389  -0.778   0.000  0.00  0.00    -0.320 N 
ATOM     21  C   UNL     1       7.134  -1.563   0.000  0.00  0.00    +0.131 C 
ENDBRANCH  14  16
BRANCH   3   2
ATOM      1  C   UNL     1      -0.715  -1.238   0.000  0.00  0.00    +0.010 C 
ATOM      2  C   UNL     1       0.000  -1.650   0.000  0.00  0.00    +0.079 C 
BRANCH   2  28
ATOM     28  C   UNL     1       0.000  -2.475   0.000  0.00  0.00    +0.225 C 
ATOM     29  O   UNL     1       0.715  -2.888   0.000  0.00  0.00    -0.275 OA
ATOM     30  N   UNL     1      -0.715  -2.888   0.000  0.00  0.00    -0.278 N 
ATOM     31  C   UNL     1      -0.715  -3.712   0.000  0.00  0.00    +0.105 C 
ATOM     32  C   UNL     1      -1.429  -4.125   0.000  0.00  0.00    +0.079 C 
ATOM     33  S   UNL     1      -2.143  -3.712   0.000  0.00  0.00    -0.137 S 
ATOM     34  C   UNL     1      -2.143  -2.888   0.000  0.00  0.00    +0.079 C 
ATOM     35  C   UNL     1      -1.429  -2.475   0.000  0.00  0.00    +0.105 C 
ENDBRANCH   2  28
ENDBRANCH   3   2
TORSDOF 3
