REMARK  Name = 
REMARK  6 active torsions:
REMARK  status: ('A' for Active; 'I' for Inactive)
REMARK    1  A    between atoms: O_2  and  C_3
REMARK    2  A    between atoms: C_6  and  C_9
REMARK    3  A    between atoms: C_20  and  N_21
REMARK    4  A    between atoms: N_21  and  S_22
REMARK    5  A    between atoms: S_22  and  C_25
REMARK    6  A    between atoms: C_27  and  C_31
REMARK                            x       y       z     vdW  Elec       q    Type
REMARK                         _______ _______ _______ _____ _____    ______ ____
ROOT
ATOM      9  C   UNL     1       0.154  -2.657   0.000  0.00  0.00    +0.249 C 
ATOM     10  O   UNL     1       0.454  -3.463   0.000  0.00  0.00    -0.270 OA
ATOM     11  N   UNL     1       0.813  -2.091   0.000  0.00  0.00    -0.276 N 
ATOM     12  C   UNL     1       1.629  -1.912   0.000  0.00  0.00    +0.096 C 
ATOM     13  C   UNL     1       1.582  -0.925   0.000  0.00  0.00    +0.043 C 
ATOM     14  C   UNL     1       1.713  -0.121   0.000  0.00  0.00    +0.011 C 
ATOM     15  C   UNL     1       1.163  -0.557   0.000  0.00  0.00    +0.058 C 
ATOM     16  C   UNL     1       1.225  -1.510   0.000  0.00  0.00    +0.099 C 
ATOM     17  C   UNL     1       0.244  -0.558   0.000  0.00  0.00    +0.041 A 
ATOM     18  C   UNL     1      -0.397  -0.039   0.000  0.00  0.00    +0.014 A 
ATOM     19  C   UNL     1      -1.167  -0.335   0.000  0.00  0.00    +0.024 A 
ATOM     20  C   UNL     1      -1.296  -1.150   0.000  0.00  0.00    +0.147 A 
ATOM     35  C   UNL     1      -0.655  -1.669   0.000  0.00  0.00    +0.277 A 
ATOM     36  O   UNL     1      -1.382  -2.143   0.000  0.00  0.00    -0.266 OA
ATOM     37  N   UNL     1       0.115  -1.373   0.000  0.00  0.00    -0.298 N 
ATOM     38  C   UNL     1       0.622  -0.936   0.000  0.00  0.00    +0.110 C 
ENDROOT
BRANCH   9   6
ATOM      3  C   UNL     1      -2.338  -1.196   0.000  0.00  0.00    +0.139 A 
ATOM      4  C   UNL     1      -1.485  -0.905   0.000  0.00  0.00    +0.037 A 
ATOM      5  C   UNL     1      -0.664  -1.356   0.000  0.00  0.00    +0.008 A 
ATOM      6  C   UNL     1      -0.614  -2.179   0.000  0.00  0.00    +0.054 A 
ATOM      7  C   UNL     1      -1.301  -2.635   0.000  0.00  0.00    +0.008 A 
ATOM      8  C   UNL     1      -2.040  -2.267   0.000  0.00  0.00    +0.037 A 
BRANCH   3   2
ATOM      1  C   UNL     1      -3.604  -0.971   0.000  0.00  0.00    +0.252 C 
ATOM      2  O   UNL     1      -3.131  -1.697   0.000  0.00  0.00    -0.471 OA
ENDBRANCH   3   2
ENDBRANCH   9   6
BRANCH  20  21
ATOM     21  N   UNL     1      -2.105  -1.616   0.000  0.00  0.00    -0.092 NA
BRANCH  21  22
ATOM     22  S   UNL     1      -2.908  -1.078   0.000  0.00  0.00    +0.093 S 
ATOM     23  O   UNL     1      -2.570  -0.239   0.000  0.00  0.00    -0.148 OA
ATOM     24  O   UNL     1      -3.744  -1.649   0.000  0.00  0.00    -0.148 OA
BRANCH  22  25
ATOM     25  C   UNL     1      -3.349  -0.407   0.000  0.00  0.00    +0.127 A 
ATOM     26  C   UNL     1      -4.119  -0.703   0.000  0.00  0.00    +0.024 A 
ATOM     27  C   UNL     1      -4.760  -0.184   0.000  0.00  0.00    +0.073 A 
ATOM     28  C   UNL     1      -4.631   0.631   0.000  0.00  0.00    +0.004 A 
ATOM     29  C   UNL     1      -3.861   0.927   0.000  0.00  0.00    +0.001 A 
ATOM     30  C   UNL     1      -3.220   0.408   0.000  0.00  0.00    +0.020 A 
BRANCH  27  31
ATOM     31  C   UNL     1      -5.668  -0.443   0.000  0.00  0.00    +0.419 C 
ATOM     32  F   UNL     1      -6.517  -0.652   0.000  0.00  0.00    -0.166 F 
ATOM     33  F   UNL     1      -6.153   0.283   0.000  0.00  0.00    -0.166 F 
ATOM     34  F   UNL     1      -5.856  -1.310   0.000  0.00  0.00    -0.166 F 
ENDBRANCH  27  31
ENDBRANCH  22  25
ENDBRANCH  21  22
ENDBRANCH  20  21
TORSDOF 6
