REMARK  Name = 
REMARK  5 active torsions:
REMARK  status: ('A' for Active; 'I' for Inactive)
REMARK    1  A    between atoms: N_4  and  C_5
REMARK    2  A    between atoms: C_5  and  C_6
REMARK    3  A    between atoms: C_9  and  N_10
REMARK    4  A    between atoms: N_10  and  C_11
REMARK    5  A    between atoms: C_11  and  C_12
REMARK                            x       y       z     vdW  Elec       q    Type
REMARK                         _______ _______ _______ _____ _____    ______ ____
ROOT
ATOM      6  C   UNL     1       2.318  -1.961   0.000  0.00  0.00    +0.169 C 
ATOM      7  O   UNL     1       2.986  -2.446   0.000  0.00  0.00    -0.350 OA
ATOM      8  C   UNL     1       2.731  -3.231   0.000  0.00  0.00    +0.162 C 
ATOM      9  C   UNL     1       1.906  -3.231   0.000  0.00  0.00    +0.135 C 
ATOM     17  C   UNL     1       1.651  -2.446   0.000  0.00  0.00    +0.199 C 
ATOM     18  O   UNL     1       0.866  -2.191   0.000  0.00  0.00    -0.219 OA
ENDROOT
BRANCH   6   5
ATOM      5  C   UNL     1       2.318  -1.136   0.000  0.00  0.00    +0.147 C 
BRANCH   5   4
ATOM      1  C   UNL     1       3.747   0.514   0.000  0.00  0.00    +0.096 C 
ATOM      2  C   UNL     1       3.033   0.101   0.000  0.00  0.00    +0.242 C 
ATOM      3  O   UNL     1       2.318   0.514   0.000  0.00  0.00    -0.273 OA
ATOM      4  N   UNL     1       3.033  -0.724   0.000  0.00  0.00    -0.203 NA
ENDBRANCH   5   4
ENDBRANCH   6   5
BRANCH   9  10
ATOM     10  N   UNL     1       1.421  -3.898   0.000  0.00  0.00    -0.208 NA
BRANCH  10  11
ATOM     11  C   UNL     1       1.756  -4.652   0.000  0.00  0.00    +0.136 C 
BRANCH  11  12
ATOM     12  C   UNL     1       1.272  -5.319   0.000  0.00  0.00    +0.097 A 
ATOM     13  C   UNL     1       1.526  -6.104   0.000  0.00  0.00    +0.117 A 
ATOM     14  N   UNL     1       0.859  -6.589   0.000  0.00  0.00    -0.221 NA
ATOM     15  C   UNL     1       0.192  -6.104   0.000  0.00  0.00    +0.199 A 
ATOM     16  N   UNL     1       0.447  -5.319   0.000  0.00  0.00    -0.225 NA
ENDBRANCH  11  12
ENDBRANCH  10  11
ENDBRANCH   9  10
TORSDOF 5
