REMARK  Name = 
REMARK  8 active torsions:
REMARK  status: ('A' for Active; 'I' for Inactive)
REMARK    1  A    between atoms: O_2  and  C_3
REMARK    2  A    between atoms: C_3  and  C_5
REMARK    3  A    between atoms: C_6  and  N_7
REMARK    4  A    between atoms: C_16  and  N_18
REMARK    5  A    between atoms: C_19  and  C_21
REMARK    6  A    between atoms: C_24  and  O_25
REMARK    7  A    between atoms: O_25  and  C_26
REMARK    8  A    between atoms: C_26  and  C_27
REMARK                            x       y       z     vdW  Elec       q    Type
REMARK                         _______ _______ _______ _____ _____    ______ ____
ROOT
ATOM      7  N   UNL     1       4.881  10.452   0.000  0.00  0.00    -0.162 NA
ATOM      8  C   UNL     1       5.124   9.664   0.000  0.00  0.00    +0.328 C 
ATOM      9  O   UNL     1       4.563   9.059   0.000  0.00  0.00    -0.250 OA
ATOM     10  N   UNL     1       5.928   9.480   0.000  0.00  0.00    -0.261 N 
ATOM     11  C   UNL     1       6.443  10.126   0.000  0.00  0.00    +0.095 C 
ATOM     12  C   UNL     1       7.268  10.126   0.000  0.00  0.00    +0.024 C 
ATOM     13  C   UNL     1       7.782   9.480   0.000  0.00  0.00    +0.037 C 
ATOM     14  C   UNL     1       7.598   8.676   0.000  0.00  0.00    +0.174 C 
ATOM     15  O   UNL     1       8.243   8.162   0.000  0.00  0.00    -0.221 OA
ATOM     16  C   UNL     1       6.855   8.318   0.000  0.00  0.00    +0.146 C 
ATOM     17  C   UNL     1       6.112   8.676   0.000  0.00  0.00    +0.119 C 
ENDROOT
BRANCH   7   6
ATOM      5  C   UNL     1       3.833  11.424   0.000  0.00  0.00    +0.091 A 
ATOM      6  C   UNL     1       4.076  10.636   0.000  0.00  0.00    +0.081 A 
ATOM     36  C   UNL     1       3.515  10.031   0.000  0.00  0.00    +0.017 A 
ATOM     37  C   UNL     1       2.711  10.215   0.000  0.00  0.00    +0.001 A 
ATOM     38  C   UNL     1       2.468  11.003   0.000  0.00  0.00    +0.000 A 
ATOM     39  C   UNL     1       3.029  11.608   0.000  0.00  0.00    +0.008 A 
BRANCH   5   3
ATOM      3  C   UNL     1       4.394  12.029   0.000  0.00  0.00    +0.343 C 
ATOM      4  O   UNL     1       5.199  11.845   0.000  0.00  0.00    -0.245 OA
BRANCH   3   2
ATOM      1  C   UNL     1       4.712  13.422   0.000  0.00  0.00    +0.256 C 
ATOM      2  O   UNL     1       4.151  12.818   0.000  0.00  0.00    -0.441 OA
ENDBRANCH   3   2
ENDBRANCH   5   3
ENDBRANCH   7   6
BRANCH  16  18
ATOM     18  N   UNL     1       6.855   7.493   0.000  0.00  0.00    -0.199 NA
ATOM     19  C   UNL     1       7.570   7.081   0.000  0.00  0.00    +0.265 C 
ATOM     20  O   UNL     1       8.284   7.493   0.000  0.00  0.00    -0.268 OA
BRANCH  19  21
ATOM     21  C   UNL     1       7.570   6.256   0.000  0.00  0.00    +0.055 A 
ATOM     22  C   UNL     1       8.284   5.843   0.000  0.00  0.00    +0.008 A 
ATOM     23  C   UNL     1       8.284   5.018   0.000  0.00  0.00    +0.037 A 
ATOM     24  C   UNL     1       7.570   4.606   0.000  0.00  0.00    +0.139 A 
ATOM     34  C   UNL     1       6.855   5.018   0.000  0.00  0.00    +0.037 A 
ATOM     35  C   UNL     1       6.855   5.843   0.000  0.00  0.00    +0.008 A 
BRANCH  24  25
ATOM     25  O   UNL     1       7.570   3.781   0.000  0.00  0.00    -0.470 OA
BRANCH  25  26
ATOM     26  C   UNL     1       8.284   3.368   0.000  0.00  0.00    +0.236 C 
BRANCH  26  27
ATOM     27  C   UNL     1       8.284   2.543   0.000  0.00  0.00    +0.071 A 
ATOM     28  C   UNL     1       8.951   2.058   0.000  0.00  0.00    +0.154 A 
ATOM     29  C   UNL     1       9.736   2.313   0.000  0.00  0.00    +0.075 C 
ATOM     30  O   UNL     1       8.697   1.274   0.000  0.00  0.00    -0.358 OA
ATOM     31  N   UNL     1       7.872   1.274   0.000  0.00  0.00    -0.082 NA
ATOM     32  C   UNL     1       7.617   2.058   0.000  0.00  0.00    +0.100 A 
ATOM     33  C   UNL     1       6.832   2.313   0.000  0.00  0.00    +0.055 C 
ENDBRANCH  26  27
ENDBRANCH  25  26
ENDBRANCH  24  25
ENDBRANCH  19  21
ENDBRANCH  16  18
TORSDOF 8
