REMARK  Name = 
REMARK  4 active torsions:
REMARK  status: ('A' for Active; 'I' for Inactive)
REMARK    1  A    between atoms: C_7  and  C_8
REMARK    2  A    between atoms: C_8  and  N_9
REMARK    3  A    between atoms: C_14  and  O_16
REMARK    4  A    between atoms: O_16  and  C_17
REMARK                            x       y       z     vdW  Elec       q    Type
REMARK                         _______ _______ _______ _____ _____    ______ ____
ROOT
ATOM      9  N   UNL     1      -3.259  -1.393   0.000  0.00  0.00    -0.264 NA
ATOM     10  C   UNL     1      -3.197  -2.215   0.000  0.00  0.00    +0.105 C 
ATOM     11  C   UNL     1      -3.802  -2.776   0.000  0.00  0.00    +0.160 C 
ATOM     12  O   UNL     1      -4.618  -2.653   0.000  0.00  0.00    -0.348 OA
ATOM     13  C   UNL     1      -5.030  -1.939   0.000  0.00  0.00    +0.187 C 
ATOM     14  C   UNL     1      -4.729  -1.171   0.000  0.00  0.00    +0.213 C 
ATOM     15  C   UNL     1      -3.940  -0.928   0.000  0.00  0.00    +0.119 C 
ENDROOT
BRANCH   9   8
ATOM      8  C   UNL     1      -2.544  -0.980   0.000  0.00  0.00    +0.102 C 
BRANCH   8   7
ATOM      1  F   UNL     1      -1.115  -0.155   0.000  0.00  0.00    -0.204 F 
ATOM      2  C   UNL     1      -1.115  -0.980   0.000  0.00  0.00    +0.137 A 
ATOM      3  C   UNL     1      -0.401  -1.393   0.000  0.00  0.00    +0.029 A 
ATOM      4  C   UNL     1      -0.401  -2.217   0.000  0.00  0.00    +0.002 A 
ATOM      5  C   UNL     1      -1.115  -2.630   0.000  0.00  0.00    -0.000 A 
ATOM      6  C   UNL     1      -1.830  -2.217   0.000  0.00  0.00    -0.001 A 
ATOM      7  C   UNL     1      -1.830  -1.393   0.000  0.00  0.00    +0.021 A 
ENDBRANCH   8   7
ENDBRANCH   9   8
BRANCH  14  16
ATOM     16  O   UNL     1      -5.290  -0.566   0.000  0.00  0.00    -0.459 OA
BRANCH  16  17
ATOM     17  C   UNL     1      -5.047   0.222   0.000  0.00  0.00    +0.245 A 
ATOM     18  C   UNL     1      -5.608   0.827   0.000  0.00  0.00    +0.156 A 
ATOM     19  N   UNL     1      -5.365   1.615   0.000  0.00  0.00    -0.236 NA
ATOM     20  C   UNL     1      -4.560   1.799   0.000  0.00  0.00    +0.120 A 
ATOM     21  C   UNL     1      -3.999   1.194   0.000  0.00  0.00    +0.123 A 
ATOM     22  N   UNL     1      -4.242   0.406   0.000  0.00  0.00    -0.207 NA
ENDBRANCH  16  17
ENDBRANCH  14  16
TORSDOF 4
