REMARK  Name = 
REMARK  6 active torsions:
REMARK  status: ('A' for Active; 'I' for Inactive)
REMARK    1  A    between atoms: C_5  and  C_6
REMARK    2  A    between atoms: C_6  and  C_7
REMARK    3  A    between atoms: N_9  and  C_10
REMARK    4  A    between atoms: C_17  and  C_18
REMARK    5  A    between atoms: C_18  and  N_19
REMARK    6  A    between atoms: C_20  and  C_22
REMARK                            x       y       z     vdW  Elec       q    Type
REMARK                         _______ _______ _______ _____ _____    ______ ____
ROOT
ATOM      1  O   UNL     1      -1.322  -1.712   0.000  0.00  0.00    -0.218 OA
ATOM      2  C   UNL     1      -1.322  -2.537   0.000  0.00  0.00    +0.213 C 
ATOM      3  C   UNL     1      -0.655  -3.022   0.000  0.00  0.00    +0.212 C 
ATOM      4  O   UNL     1       0.130  -2.767   0.000  0.00  0.00    -0.218 OA
ATOM      5  C   UNL     1      -0.910  -3.806   0.000  0.00  0.00    +0.157 C 
ATOM     16  O   UNL     1      -1.735  -3.806   0.000  0.00  0.00    -0.351 OA
ATOM     17  C   UNL     1      -1.990  -3.022   0.000  0.00  0.00    +0.170 C 
ENDROOT
BRANCH   5   6
ATOM      6  C   UNL     1      -0.425  -4.474   0.000  0.00  0.00    +0.119 C 
BRANCH   6   7
ATOM      7  C   UNL     1       0.396  -4.387   0.000  0.00  0.00    +0.248 C 
ATOM      8  O   UNL     1       0.731  -3.634   0.000  0.00  0.00    -0.273 OA
ATOM      9  N   UNL     1       0.881  -5.055   0.000  0.00  0.00    -0.179 NA
BRANCH   9  10
ATOM     10  C   UNL     1       1.701  -4.969   0.000  0.00  0.00    +0.073 A 
ATOM     11  C   UNL     1       2.037  -4.215   0.000  0.00  0.00    +0.017 A 
ATOM     12  C   UNL     1       2.857  -4.129   0.000  0.00  0.00    +0.001 A 
ATOM     13  C   UNL     1       3.342  -4.796   0.000  0.00  0.00    +0.000 A 
ATOM     14  C   UNL     1       3.006  -5.550   0.000  0.00  0.00    +0.001 A 
ATOM     15  C   UNL     1       2.186  -5.636   0.000  0.00  0.00    +0.017 A 
ENDBRANCH   9  10
ENDBRANCH   6   7
ENDBRANCH   5   6
BRANCH  17  18
ATOM     18  C   UNL     1      -2.774  -2.767   0.000  0.00  0.00    +0.147 C 
BRANCH  18  19
ATOM     19  N   UNL     1      -2.946  -1.960   0.000  0.00  0.00    -0.203 NA
ATOM     20  C   UNL     1      -3.730  -1.705   0.000  0.00  0.00    +0.241 C 
ATOM     21  O   UNL     1      -4.343  -2.257   0.000  0.00  0.00    -0.273 OA
BRANCH  20  22
ATOM     22  C   UNL     1      -3.902  -0.898   0.000  0.00  0.00    +0.078 C 
ATOM     23  C   UNL     1      -4.656  -0.562   0.000  0.00  0.00    +0.009 C 
ATOM     24  C   UNL     1      -4.569   0.258   0.000  0.00  0.00    +0.001 C 
ATOM     25  C   UNL     1      -3.762   0.430   0.000  0.00  0.00    +0.001 C 
ATOM     26  C   UNL     1      -3.350  -0.285   0.000  0.00  0.00    +0.009 C 
ENDBRANCH  20  22
ENDBRANCH  18  19
ENDBRANCH  17  18
TORSDOF 6
