REMARK  Name = 
REMARK  4 active torsions:
REMARK  status: ('A' for Active; 'I' for Inactive)
REMARK    1  A    between atoms: C_2  and  N_3
REMARK    2  A    between atoms: C_12  and  N_14
REMARK    3  A    between atoms: C_15  and  C_17
REMARK    4  A    between atoms: C_20  and  O_21
REMARK                            x       y       z     vdW  Elec       q    Type
REMARK                         _______ _______ _______ _____ _____    ______ ____
ROOT
ATOM      3  N   UNL     1       2.006   6.149   0.000  0.00  0.00    -0.188 NA
ATOM      4  C   UNL     1       2.249   5.360   0.000  0.00  0.00    +0.323 C 
ATOM      5  O   UNL     1       1.688   4.756   0.000  0.00  0.00    -0.251 OA
ATOM      6  N   UNL     1       3.053   5.177   0.000  0.00  0.00    -0.261 N 
ATOM      7  C   UNL     1       3.568   5.822   0.000  0.00  0.00    +0.095 C 
ATOM      8  C   UNL     1       4.393   5.822   0.000  0.00  0.00    +0.024 C 
ATOM      9  C   UNL     1       4.907   5.177   0.000  0.00  0.00    +0.037 C 
ATOM     10  C   UNL     1       4.724   4.372   0.000  0.00  0.00    +0.174 C 
ATOM     11  O   UNL     1       5.369   3.858   0.000  0.00  0.00    -0.221 OA
ATOM     12  C   UNL     1       3.980   4.014   0.000  0.00  0.00    +0.146 C 
ATOM     13  C   UNL     1       3.237   4.372   0.000  0.00  0.00    +0.119 C 
ENDROOT
BRANCH  12  14
ATOM     14  N   UNL     1       3.980   3.189   0.000  0.00  0.00    -0.199 NA
ATOM     15  C   UNL     1       4.695   2.777   0.000  0.00  0.00    +0.265 C 
ATOM     16  O   UNL     1       5.409   3.189   0.000  0.00  0.00    -0.268 OA
BRANCH  15  17
ATOM     17  C   UNL     1       4.695   1.952   0.000  0.00  0.00    +0.055 A 
ATOM     18  C   UNL     1       5.409   1.540   0.000  0.00  0.00    +0.008 A 
ATOM     19  C   UNL     1       5.409   0.715   0.000  0.00  0.00    +0.037 A 
ATOM     20  C   UNL     1       4.695   0.302   0.000  0.00  0.00    +0.139 A 
ATOM     23  C   UNL     1       3.980   0.715   0.000  0.00  0.00    +0.037 A 
ATOM     24  C   UNL     1       3.980   1.540   0.000  0.00  0.00    +0.008 A 
BRANCH  20  21
ATOM     21  O   UNL     1       4.695  -0.523   0.000  0.00  0.00    -0.471 OA
ATOM     22  C   UNL     1       5.409  -0.935   0.000  0.00  0.00    +0.252 C 
ENDBRANCH  20  21
ENDBRANCH  15  17
ENDBRANCH  12  14
BRANCH   3   2
ATOM      1  C   UNL     1       0.959   7.121   0.000  0.00  0.00    +0.025 C 
ATOM      2  C   UNL     1       1.202   6.332   0.000  0.00  0.00    +0.117 C 
ENDBRANCH   3   2
TORSDOF 4
