REMARK  Name = 
REMARK  6 active torsions:
REMARK  status: ('A' for Active; 'I' for Inactive)
REMARK    1  A    between atoms: C_2  and  C_4
REMARK    2  A    between atoms: C_7  and  C_8
REMARK    3  A    between atoms: C_8  and  N_9
REMARK    4  A    between atoms: C_13  and  C_14
REMARK    5  A    between atoms: C_16  and  C_19
REMARK    6  A    between atoms: C_23  and  N_25
REMARK                            x       y       z     vdW  Elec       q    Type
REMARK                         _______ _______ _______ _____ _____    ______ ____
ROOT
ATOM     14  C   UNL     1      -2.047  -3.270   0.000  0.00  0.00    +0.251 A 
ATOM     15  N   UNL     1      -2.715  -3.755   0.000  0.00  0.00    -0.190 NA
ATOM     16  C   UNL     1      -3.382  -3.270   0.000  0.00  0.00    +0.203 A 
ATOM     17  N   UNL     1      -3.127  -2.486   0.000  0.00  0.00    -0.056 NA
ATOM     18  O   UNL     1      -2.303  -2.486   0.000  0.00  0.00    -0.336 OA
ENDROOT
BRANCH  16  19
ATOM     19  C   UNL     1      -4.167  -3.525   0.000  0.00  0.00    +0.043 A 
ATOM     20  C   UNL     1      -4.338  -4.332   0.000  0.00  0.00    +0.024 A 
ATOM     21  C   UNL     1      -5.123  -4.587   0.000  0.00  0.00    +0.100 A 
ATOM     22  N   UNL     1      -5.736  -4.035   0.000  0.00  0.00    -0.229 NA
ATOM     23  C   UNL     1      -5.565  -3.228   0.000  0.00  0.00    +0.132 A 
ATOM     24  C   UNL     1      -4.780  -2.973   0.000  0.00  0.00    +0.037 A 
BRANCH  23  25
ATOM     25  N   UNL     1      -6.178  -2.676   0.000  0.00  0.00    -0.293 N 
ATOM     26  C   UNL     1      -6.985  -2.848   0.000  0.00  0.00    +0.092 C 
ATOM     27  C   UNL     1      -7.397  -2.133   0.000  0.00  0.00    +0.023 C 
ATOM     28  C   UNL     1      -6.845  -1.520   0.000  0.00  0.00    +0.023 C 
ATOM     29  C   UNL     1      -6.092  -1.856   0.000  0.00  0.00    +0.092 C 
ENDBRANCH  23  25
ENDBRANCH  16  19
BRANCH  14  13
ATOM      9  N   UNL     1      -0.596  -3.041   0.000  0.00  0.00    -0.263 NA
ATOM     10  C   UNL     1       0.072  -3.525   0.000  0.00  0.00    +0.073 C 
ATOM     11  C   UNL     1      -0.183  -4.310   0.000  0.00  0.00    +0.019 C 
ATOM     12  C   UNL     1      -1.008  -4.310   0.000  0.00  0.00    +0.027 C 
ATOM     13  C   UNL     1      -1.263  -3.525   0.000  0.00  0.00    +0.138 C 
BRANCH   9   8
ATOM      8  C   UNL     1      -0.596  -2.216   0.000  0.00  0.00    +0.099 C 
BRANCH   8   7
ATOM      4  C   UNL     1       1.548  -0.978   0.000  0.00  0.00    +0.080 A 
ATOM      5  C   UNL     1       1.548  -1.803   0.000  0.00  0.00    +0.006 A 
ATOM      6  C   UNL     1       0.834  -2.216   0.000  0.00  0.00    -0.003 A 
ATOM      7  C   UNL     1       0.119  -1.803   0.000  0.00  0.00    -0.006 A 
ATOM     30  C   UNL     1       0.119  -0.978   0.000  0.00  0.00    -0.003 A 
ATOM     31  C   UNL     1       0.834  -0.566   0.000  0.00  0.00    +0.006 A 
BRANCH   4   2
ATOM      1  O   UNL     1       2.262   0.260   0.000  0.00  0.00    -0.241 OA
ATOM      2  C   UNL     1       2.262  -0.566   0.000  0.00  0.00    +0.388 C 
ATOM      3  O   UNL     1       2.977  -0.978   0.000  0.00  0.00    -0.241 OA
ENDBRANCH   4   2
ENDBRANCH   8   7
ENDBRANCH   9   8
ENDBRANCH  14  13
TORSDOF 6
