REMARK  Name = 
REMARK  1 active torsions:
REMARK  status: ('A' for Active; 'I' for Inactive)
REMARK    1  A    between atoms: C_2  and  C_3
REMARK                            x       y       z     vdW  Elec       q    Type
REMARK                         _______ _______ _______ _____ _____    ______ ____
ROOT
ATOM      1  O   UNL     1       4.781   1.935   0.000  0.00  0.00    -0.275 OA
ATOM      2  C   UNL     1       4.067   2.348   0.000  0.00  0.00    +0.225 C 
ATOM      9  N   UNL     1       3.352   1.935   0.000  0.00  0.00    -0.276 N 
ATOM     10  C   UNL     1       3.352   1.110   0.000  0.00  0.00    +0.115 C 
ATOM     11  C   UNL     1       2.638   0.698   0.000  0.00  0.00    +0.117 C 
ATOM     12  N   UNL     1       1.923   1.110   0.000  0.00  0.00    -0.259 N 
ATOM     13  C   UNL     1       1.923   1.935   0.000  0.00  0.00    +0.118 C 
ATOM     14  C   UNL     1       1.139   2.190   0.000  0.00  0.00    +0.138 C 
ATOM     15  N   UNL     1       0.654   1.523   0.000  0.00  0.00    -0.187 NA
ATOM     16  C   UNL     1       1.139   0.856   0.000  0.00  0.00    +0.323 C 
ATOM     17  O   UNL     1       0.884   0.071   0.000  0.00  0.00    -0.251 OA
ATOM     18  C   UNL     1       2.638   2.348   0.000  0.00  0.00    +0.115 C 
ENDROOT
BRANCH   2   3
ATOM      3  C   UNL     1       4.067   3.173   0.000  0.00  0.00    +0.082 C 
ATOM      4  C   UNL     1       3.352   3.585   0.000  0.00  0.00    +0.041 C 
ATOM      5  C   UNL     1       3.352   4.410   0.000  0.00  0.00    +0.143 C 
ATOM      6  O   UNL     1       4.067   4.823   0.000  0.00  0.00    -0.354 OA
ATOM      7  C   UNL     1       4.781   4.410   0.000  0.00  0.00    +0.143 C 
ATOM      8  C   UNL     1       4.781   3.585   0.000  0.00  0.00    +0.041 C 
ENDBRANCH   2   3
TORSDOF 1
