REMARK  Name = 
REMARK  5 active torsions:
REMARK  status: ('A' for Active; 'I' for Inactive)
REMARK    1  A    between atoms: S_2  and  N_5
REMARK    2  A    between atoms: N_5  and  C_6
REMARK    3  A    between atoms: C_6  and  C_7
REMARK    4  A    between atoms: C_10  and  N_11
REMARK    5  A    between atoms: N_11  and  C_12
REMARK                            x       y       z     vdW  Elec       q    Type
REMARK                         _______ _______ _______ _____ _____    ______ ____
ROOT
ATOM      7  C   UNL     1       2.037  -1.299   0.000  0.00  0.00    +0.166 C 
ATOM      8  O   UNL     1       2.704  -1.784   0.000  0.00  0.00    -0.350 OA
ATOM      9  C   UNL     1       2.449  -2.569   0.000  0.00  0.00    +0.162 C 
ATOM     10  C   UNL     1       1.624  -2.569   0.000  0.00  0.00    +0.135 C 
ATOM     18  C   UNL     1       1.369  -1.784   0.000  0.00  0.00    +0.199 C 
ATOM     19  O   UNL     1       0.585  -1.529   0.000  0.00  0.00    -0.219 OA
ENDROOT
BRANCH   7   6
ATOM      6  C   UNL     1       2.037  -0.474   0.000  0.00  0.00    +0.147 C 
BRANCH   6   5
ATOM      5  N   UNL     1       2.751  -0.062   0.000  0.00  0.00    -0.079 NA
BRANCH   5   2
ATOM      1  C   UNL     1       2.751   1.588   0.000  0.00  0.00    +0.197 C 
ATOM      2  S   UNL     1       2.751   0.763   0.000  0.00  0.00    +0.059 S 
ATOM      3  O   UNL     1       1.926   0.763   0.000  0.00  0.00    -0.156 OA
ATOM      4  O   UNL     1       3.576   0.763   0.000  0.00  0.00    -0.156 OA
ENDBRANCH   5   2
ENDBRANCH   6   5
ENDBRANCH   7   6
BRANCH  10  11
ATOM     11  N   UNL     1       1.139  -3.236   0.000  0.00  0.00    -0.216 NA
BRANCH  11  12
ATOM     12  C   UNL     1       0.319  -3.150   0.000  0.00  0.00    +0.073 C 
ATOM     13  C   UNL     1      -0.166  -3.817   0.000  0.00  0.00    +0.017 C 
ATOM     14  C   UNL     1      -0.987  -3.731   0.000  0.00  0.00    +0.001 C 
ATOM     15  C   UNL     1      -1.322  -2.977   0.000  0.00  0.00    +0.000 C 
ATOM     16  C   UNL     1      -0.837  -2.310   0.000  0.00  0.00    +0.001 C 
ATOM     17  C   UNL     1      -0.017  -2.396   0.000  0.00  0.00    +0.017 C 
ENDBRANCH  11  12
ENDBRANCH  10  11
TORSDOF 5
