REMARK  Name = 
REMARK  6 active torsions:
REMARK  status: ('A' for Active; 'I' for Inactive)
REMARK    1  A    between atoms: O_2  and  C_3
REMARK    2  A    between atoms: C_6  and  C_9
REMARK    3  A    between atoms: N_11  and  C_12
REMARK    4  A    between atoms: C_16  and  N_20
REMARK    5  A    between atoms: C_23  and  C_27
REMARK    6  A    between atoms: C_30  and  O_31
REMARK                            x       y       z     vdW  Elec       q    Type
REMARK                         _______ _______ _______ _____ _____    ______ ____
ROOT
ATOM     12  C   UNL     1       1.270  -0.922   0.000  0.00  0.00    +0.155 C 
ATOM     13  C   UNL     1       0.785  -0.255   0.000  0.00  0.00    +0.166 C 
ATOM     14  O   UNL     1       1.270   0.412   0.000  0.00  0.00    -0.350 OA
ATOM     15  C   UNL     1       2.054   0.158   0.000  0.00  0.00    +0.166 C 
ATOM     16  C   UNL     1       2.839   0.412   0.000  0.00  0.00    +0.154 C 
ATOM     17  C   UNL     1       3.324  -0.255   0.000  0.00  0.00    +0.166 C 
ATOM     18  O   UNL     1       2.839  -0.922   0.000  0.00  0.00    -0.350 OA
ATOM     19  C   UNL     1       2.054  -0.667   0.000  0.00  0.00    +0.166 C 
ENDROOT
BRANCH  16  20
ATOM     20  N   UNL     1       3.094   1.197   0.000  0.00  0.00    -0.200 NA
ATOM     21  C   UNL     1       3.901   1.369   0.000  0.00  0.00    +0.237 A 
ATOM     22  N   UNL     1       4.156   2.153   0.000  0.00  0.00    -0.212 NA
ATOM     23  C   UNL     1       4.963   2.325   0.000  0.00  0.00    +0.086 A 
ATOM     24  C   UNL     1       5.515   1.712   0.000  0.00  0.00    +0.040 A 
ATOM     25  C   UNL     1       5.260   0.927   0.000  0.00  0.00    +0.103 A 
ATOM     26  N   UNL     1       4.453   0.756   0.000  0.00  0.00    -0.211 NA
BRANCH  23  27
ATOM     27  C   UNL     1       5.218   3.109   0.000  0.00  0.00    +0.018 A 
ATOM     28  C   UNL     1       4.665   3.723   0.000  0.00  0.00    +0.005 A 
ATOM     29  C   UNL     1       4.920   4.507   0.000  0.00  0.00    +0.037 A 
ATOM     30  C   UNL     1       5.727   4.679   0.000  0.00  0.00    +0.139 A 
ATOM     33  C   UNL     1       6.279   4.066   0.000  0.00  0.00    +0.037 A 
ATOM     34  C   UNL     1       6.024   3.281   0.000  0.00  0.00    +0.005 A 
BRANCH  30  31
ATOM     31  O   UNL     1       5.982   5.463   0.000  0.00  0.00    -0.471 OA
ATOM     32  C   UNL     1       5.430   6.076   0.000  0.00  0.00    +0.252 C 
ENDBRANCH  30  31
ENDBRANCH  23  27
ENDBRANCH  16  20
BRANCH  12  11
ATOM      9  C   UNL     1       0.208  -1.879   0.000  0.00  0.00    +0.265 C 
ATOM     10  O   UNL     1      -0.344  -1.265   0.000  0.00  0.00    -0.268 OA
ATOM     11  N   UNL     1       1.015  -1.707   0.000  0.00  0.00    -0.198 NA
BRANCH   9   6
ATOM      3  C   UNL     1      -0.557  -4.232   0.000  0.00  0.00    +0.139 A 
ATOM      4  C   UNL     1      -1.109  -3.619   0.000  0.00  0.00    +0.037 A 
ATOM      5  C   UNL     1      -0.854  -2.835   0.000  0.00  0.00    +0.008 A 
ATOM      6  C   UNL     1      -0.047  -2.663   0.000  0.00  0.00    +0.055 A 
ATOM      7  C   UNL     1       0.505  -3.276   0.000  0.00  0.00    +0.008 A 
ATOM      8  C   UNL     1       0.250  -4.061   0.000  0.00  0.00    +0.037 A 
BRANCH   3   2
ATOM      1  C   UNL     1      -0.260  -5.630   0.000  0.00  0.00    +0.252 C 
ATOM      2  O   UNL     1      -0.812  -5.017   0.000  0.00  0.00    -0.471 OA
ENDBRANCH   3   2
ENDBRANCH   9   6
ENDBRANCH  12  11
TORSDOF 6
