REMARK  Name = 
REMARK  8 active torsions:
REMARK  status: ('A' for Active; 'I' for Inactive)
REMARK    1  A    between atoms: C_2  and  N_4
REMARK    2  A    between atoms: N_7  and  C_8
REMARK    3  A    between atoms: C_12  and  C_13
REMARK    4  A    between atoms: N_15  and  C_16
REMARK    5  A    between atoms: C_16  and  C_17
REMARK    6  A    between atoms: C_16  and  C_27
REMARK    7  A    between atoms: C_17  and  C_18
REMARK    8  A    between atoms: C_30  and  C_32
REMARK                            x       y       z     vdW  Elec       q    Type
REMARK                         _______ _______ _______ _____ _____    ______ ____
ROOT
ATOM      8  C   UNL     1      -3.307   2.921   0.000  0.00  0.00    +0.126 C 
ATOM      9  C   UNL     1      -3.307   3.746   0.000  0.00  0.00    +0.045 C 
ATOM     10  C   UNL     1      -2.522   4.001   0.000  0.00  0.00    +0.096 C 
ATOM     11  N   UNL     1      -2.037   3.334   0.000  0.00  0.00    -0.267 N 
ATOM     12  C   UNL     1      -2.522   2.666   0.000  0.00  0.00    +0.174 C 
ATOM     30  C   UNL     1      -1.212   3.334   0.000  0.00  0.00    +0.265 C 
ATOM     31  O   UNL     1      -0.800   2.619   0.000  0.00  0.00    -0.268 OA
ENDROOT
BRANCH  30  32
ATOM     32  C   UNL     1      -0.800   4.048   0.000  0.00  0.00    +0.114 A 
ATOM     33  C   UNL     1      -1.135   4.802   0.000  0.00  0.00    +0.023 A 
ATOM     34  C   UNL     1      -0.522   5.354   0.000  0.00  0.00    +0.020 A 
ATOM     35  C   UNL     1       0.192   4.941   0.000  0.00  0.00    +0.076 A 
ATOM     36  N   UNL     1       0.021   4.135   0.000  0.00  0.00    -0.320 N 
ATOM     37  C   UNL     1       0.573   3.522   0.000  0.00  0.00    +0.131 C 
ENDBRANCH  30  32
BRANCH   8   7
ATOM      4  N   UNL     1      -5.395   2.287   0.000  0.00  0.00    -0.189 NA
ATOM      5  C   UNL     1      -4.728   2.772   0.000  0.00  0.00    +0.339 C 
ATOM      6  O   UNL     1      -4.814   3.592   0.000  0.00  0.00    -0.249 OA
ATOM      7  N   UNL     1      -3.974   2.436   0.000  0.00  0.00    -0.187 NA
BRANCH   4   2
ATOM      1  C   UNL     1      -6.817   2.138   0.000  0.00  0.00    +0.023 C 
ATOM      2  C   UNL     1      -6.149   2.623   0.000  0.00  0.00    +0.097 C 
ATOM      3  C   UNL     1      -6.235   3.443   0.000  0.00  0.00    +0.023 C 
ENDBRANCH   4   2
ENDBRANCH   8   7
BRANCH  12  13
ATOM     13  C   UNL     1      -2.267   1.882   0.000  0.00  0.00    +0.262 C 
ATOM     14  O   UNL     1      -2.819   1.269   0.000  0.00  0.00    -0.271 OA
ATOM     15  N   UNL     1      -1.460   1.710   0.000  0.00  0.00    -0.196 NA
BRANCH  15  16
ATOM     16  C   UNL     1      -1.205   0.926   0.000  0.00  0.00    +0.179 C 
BRANCH  16  27
ATOM     27  C   UNL     1      -1.758   0.313   0.000  0.00  0.00    +0.281 C 
ATOM     28  N   UNL     1      -1.502  -0.472   0.000  0.00  0.00    -0.086 NA
ATOM     29  O   UNL     1      -2.564   0.484   0.000  0.00  0.00    -0.270 OA
ENDBRANCH  16  27
BRANCH  16  17
ATOM     17  C   UNL     1      -0.398   0.754   0.000  0.00  0.00    +0.059 C 
BRANCH  17  18
ATOM     18  C   UNL     1      -0.143  -0.030   0.000  0.00  0.00    +0.001 A 
ATOM     19  C   UNL     1      -0.628  -0.698   0.000  0.00  0.00    +0.095 A 
ATOM     20  N   UNL     1      -0.143  -1.365   0.000  0.00  0.00    -0.244 NA
ATOM     21  C   UNL     1       0.641  -1.110   0.000  0.00  0.00    +0.081 A 
ATOM     22  C   UNL     1       0.641  -0.285   0.000  0.00  0.00    +0.015 A 
ATOM     23  C   UNL     1       1.356   0.127   0.000  0.00  0.00    +0.001 A 
ATOM     24  C   UNL     1       2.070  -0.285   0.000  0.00  0.00    +0.000 A 
ATOM     25  C   UNL     1       2.070  -1.110   0.000  0.00  0.00    +0.002 A 
ATOM     26  C   UNL     1       1.356  -1.523   0.000  0.00  0.00    +0.019 A 
ENDBRANCH  17  18
ENDBRANCH  16  17
ENDBRANCH  15  16
ENDBRANCH  12  13
TORSDOF 8
