REMARK  Name = 
REMARK  4 active torsions:
REMARK  status: ('A' for Active; 'I' for Inactive)
REMARK    1  A    between atoms: N_2  and  C_4
REMARK    2  A    between atoms: C_7  and  C_8
REMARK    3  A    between atoms: C_8  and  N_9
REMARK    4  A    between atoms: N_12  and  C_13
REMARK                            x       y       z     vdW  Elec       q    Type
REMARK                         _______ _______ _______ _____ _____    ______ ____
ROOT
ATOM      8  C   UNL     1       0.715  -2.888   0.000  0.00  0.00    +0.149 C 
ENDROOT
BRANCH   8   7
ATOM      4  C   UNL     1      -1.306  -2.197   0.000  0.00  0.00    +0.121 C 
ATOM      5  C   UNL     1      -0.893  -1.483   0.000  0.00  0.00    +0.161 C 
ATOM      6  O   UNL     1      -0.086  -1.655   0.000  0.00  0.00    -0.350 OA
ATOM      7  C   UNL     1       0.000  -2.475   0.000  0.00  0.00    +0.169 C 
ATOM     19  C   UNL     1      -0.754  -2.811   0.000  0.00  0.00    +0.198 C 
ATOM     20  O   UNL     1      -0.925  -3.618   0.000  0.00  0.00    -0.219 OA
BRANCH   4   2
ATOM      1  C   UNL     1      -2.611  -1.616   0.000  0.00  0.00    +0.090 C 
ATOM      2  N   UNL     1      -2.126  -2.284   0.000  0.00  0.00    -0.267 NA
ATOM      3  C   UNL     1      -2.462  -3.037   0.000  0.00  0.00    +0.090 C 
ENDBRANCH   4   2
ENDBRANCH   8   7
BRANCH   8   9
ATOM      9  N   UNL     1       1.429  -2.475   0.000  0.00  0.00    -0.184 NA
ATOM     10  C   UNL     1       2.143  -2.888   0.000  0.00  0.00    +0.344 C 
ATOM     11  O   UNL     1       2.143  -3.712   0.000  0.00  0.00    -0.249 OA
ATOM     12  N   UNL     1       2.858  -2.475   0.000  0.00  0.00    -0.161 NA
BRANCH  12  13
ATOM     13  C   UNL     1       3.572  -2.888   0.000  0.00  0.00    +0.075 A 
ATOM     14  C   UNL     1       4.287  -2.475   0.000  0.00  0.00    +0.017 A 
ATOM     15  C   UNL     1       5.001  -2.888   0.000  0.00  0.00    +0.001 A 
ATOM     16  C   UNL     1       5.001  -3.712   0.000  0.00  0.00    +0.000 A 
ATOM     17  C   UNL     1       4.287  -4.125   0.000  0.00  0.00    +0.001 A 
ATOM     18  C   UNL     1       3.572  -3.712   0.000  0.00  0.00    +0.017 A 
ENDBRANCH  12  13
ENDBRANCH   8   9
TORSDOF 4
