REMARK  Name = 
REMARK  4 active torsions:
REMARK  status: ('A' for Active; 'I' for Inactive)
REMARK    1  A    between atoms: O_2  and  C_3
REMARK    2  A    between atoms: C_6  and  C_9
REMARK    3  A    between atoms: C_12  and  C_14
REMARK    4  A    between atoms: N_18  and  C_19
REMARK                            x       y       z     vdW  Elec       q    Type
REMARK                         _______ _______ _______ _____ _____    ______ ____
ROOT
ATOM      9  C   UNL     1       2.834  -0.549   0.000  0.00  0.00    +0.205 A 
ATOM     10  N   UNL     1       3.501  -1.034   0.000  0.00  0.00    -0.056 NA
ATOM     11  O   UNL     1       3.247  -1.818   0.000  0.00  0.00    -0.336 OA
ATOM     12  C   UNL     1       2.421  -1.818   0.000  0.00  0.00    +0.251 A 
ATOM     13  N   UNL     1       2.167  -1.034   0.000  0.00  0.00    -0.190 NA
ENDROOT
BRANCH   9   6
ATOM      3  C   UNL     1       2.834   1.926   0.000  0.00  0.00    +0.225 A 
ATOM      4  N   UNL     1       3.548   1.514   0.000  0.00  0.00    -0.210 NA
ATOM      5  C   UNL     1       3.548   0.689   0.000  0.00  0.00    +0.105 A 
ATOM      6  C   UNL     1       2.834   0.276   0.000  0.00  0.00    +0.058 A 
ATOM      7  C   UNL     1       2.119   0.689   0.000  0.00  0.00    +0.010 A 
ATOM      8  C   UNL     1       2.119   1.514   0.000  0.00  0.00    +0.058 A 
BRANCH   3   2
ATOM      1  C   UNL     1       2.119   3.164   0.000  0.00  0.00    +0.254 C 
ATOM      2  O   UNL     1       2.834   2.751   0.000  0.00  0.00    -0.456 OA
ENDBRANCH   3   2
ENDBRANCH   9   6
BRANCH  12  14
ATOM     14  C   UNL     1       1.937  -2.486   0.000  0.00  0.00    +0.138 C 
ATOM     15  C   UNL     1       2.192  -3.270   0.000  0.00  0.00    +0.027 C 
ATOM     16  C   UNL     1       1.524  -3.755   0.000  0.00  0.00    +0.019 C 
ATOM     17  C   UNL     1       0.857  -3.270   0.000  0.00  0.00    +0.072 C 
ATOM     18  N   UNL     1       1.111  -2.486   0.000  0.00  0.00    -0.268 NA
BRANCH  18  19
ATOM     19  C   UNL     1       0.627  -1.818   0.000  0.00  0.00    +0.061 C 
ATOM     20  C   UNL     1      -0.194  -1.905   0.000  0.00  0.00    +0.033 C 
ATOM     21  C   UNL     1      -0.679  -1.237   0.000  0.00  0.00    +0.074 C 
ATOM     22  N   UNL     1      -0.343  -0.483   0.000  0.00  0.00    -0.271 NA
ATOM     23  C   UNL     1      -0.828   0.184   0.000  0.00  0.00    +0.090 C 
ATOM     24  C   UNL     1       0.477  -0.397   0.000  0.00  0.00    +0.074 C 
ATOM     25  C   UNL     1       0.962  -1.065   0.000  0.00  0.00    +0.033 C 
ENDBRANCH  18  19
ENDBRANCH  12  14
TORSDOF 4
