REMARK  Name = 
REMARK  8 active torsions:
REMARK  status: ('A' for Active; 'I' for Inactive)
REMARK    1  A    between atoms: C_2  and  C_3
REMARK    2  A    between atoms: C_2  and  C_27
REMARK    3  A    between atoms: C_12  and  C_13
REMARK    4  A    between atoms: C_13  and  S_14
REMARK    5  A    between atoms: S_14  and  C_15
REMARK    6  A    between atoms: N_29  and  C_30
REMARK    7  A    between atoms: C_30  and  C_31
REMARK    8  A    between atoms: C_31  and  N_32
REMARK                            x       y       z     vdW  Elec       q    Type
REMARK                         _______ _______ _______ _____ _____    ______ ____
ROOT
ATOM      3  C   UNL     1       0.715  -1.238   0.000  0.00  0.00    +0.039 C 
ATOM      4  C   UNL     1       0.715  -0.412   0.000  0.00  0.00    +0.003 C 
ATOM      5  C   UNL     1       1.429   0.000   0.000  0.00  0.00    +0.001 C 
ATOM      6  C   UNL     1       2.143  -0.412   0.000  0.00  0.00    +0.007 C 
ATOM      7  C   UNL     1       2.143   0.412   0.000  0.00  0.00    +0.000 C 
ATOM      8  C   UNL     1       2.858   0.000   0.000  0.00  0.00    +0.034 C 
ATOM      9  C   UNL     1       3.572  -0.412   0.000  0.00  0.00    +0.022 A 
ATOM     10  C   UNL     1       3.572  -1.238   0.000  0.00  0.00    +0.061 A 
ATOM     11  N   UNL     1       4.357  -1.492   0.000  0.00  0.00    -0.246 NA
ATOM     12  C   UNL     1       4.842  -0.825   0.000  0.00  0.00    +0.099 A 
ATOM     21  S   UNL     1       4.357  -0.158   0.000  0.00  0.00    -0.075 S 
ATOM     22  C   UNL     1       2.858  -1.650   0.000  0.00  0.00    +0.043 C 
ATOM     23  C   UNL     1       2.858  -2.475   0.000  0.00  0.00    +0.006 C 
ATOM     24  C   UNL     1       2.143  -1.238   0.000  0.00  0.00    +0.036 C 
ATOM     25  C   UNL     1       1.429  -1.650   0.000  0.00  0.00    +0.153 C 
ATOM     26  O   UNL     1       1.429  -2.475   0.000  0.00  0.00    -0.223 OA
ENDROOT
BRANCH   3   2
ATOM      1  C   UNL     1       0.000  -2.475   0.000  0.00  0.00    +0.010 C 
ATOM      2  C   UNL     1       0.000  -1.650   0.000  0.00  0.00    +0.081 C 
BRANCH   2  27
ATOM     27  C   UNL     1      -0.715  -1.238   0.000  0.00  0.00    +0.241 C 
ATOM     28  O   UNL     1      -0.715  -0.412   0.000  0.00  0.00    -0.273 OA
ATOM     29  N   UNL     1      -1.429  -1.650   0.000  0.00  0.00    -0.204 NA
BRANCH  29  30
ATOM     30  C   UNL     1      -2.143  -1.238   0.000  0.00  0.00    +0.132 C 
BRANCH  30  31
ATOM     31  C   UNL     1      -2.858  -1.650   0.000  0.00  0.00    +0.096 C 
BRANCH  31  32
ATOM     32  N   UNL     1      -3.572  -1.238   0.000  0.00  0.00    -0.267 NA
ATOM     33  C   UNL     1      -4.287  -1.650   0.000  0.00  0.00    +0.105 C 
ATOM     34  C   UNL     1      -5.001  -1.238   0.000  0.00  0.00    +0.159 C 
ATOM     35  O   UNL     1      -5.001  -0.412   0.000  0.00  0.00    -0.351 OA
ATOM     36  C   UNL     1      -4.287   0.000   0.000  0.00  0.00    +0.159 C 
ATOM     37  C   UNL     1      -3.572  -0.412   0.000  0.00  0.00    +0.105 C 
ENDBRANCH  31  32
ENDBRANCH  30  31
ENDBRANCH  29  30
ENDBRANCH   2  27
ENDBRANCH   3   2
BRANCH  12  13
ATOM     13  C   UNL     1       5.667  -0.825   0.000  0.00  0.00    +0.114 C 
BRANCH  13  14
ATOM     14  S   UNL     1       6.079  -0.111   0.000  0.00  0.00    -0.107 S 
BRANCH  14  15
ATOM     15  C   UNL     1       6.904  -0.111   0.000  0.00  0.00    +0.026 A 
ATOM     16  C   UNL     1       7.317   0.604   0.000  0.00  0.00    +0.006 A 
ATOM     17  C   UNL     1       8.142   0.604   0.000  0.00  0.00    +0.001 A 
ATOM     18  C   UNL     1       8.554  -0.111   0.000  0.00  0.00    +0.000 A 
ATOM     19  C   UNL     1       8.142  -0.825   0.000  0.00  0.00    +0.001 A 
ATOM     20  C   UNL     1       7.317  -0.825   0.000  0.00  0.00    +0.006 A 
ENDBRANCH  14  15
ENDBRANCH  13  14
ENDBRANCH  12  13
TORSDOF 8
