REMARK  Name = 
REMARK  3 active torsions:
REMARK  status: ('A' for Active; 'I' for Inactive)
REMARK    1  A    between atoms: C_2  and  C_26
REMARK    2  A    between atoms: N_3  and  C_4
REMARK    3  A    between atoms: C_14  and  C_16
REMARK                            x       y       z     vdW  Elec       q    Type
REMARK                         _______ _______ _______ _____ _____    ______ ____
ROOT
ATOM      4  C   UNL     1      -1.296  -1.150   0.000  0.00  0.00    +0.130 A 
ATOM      5  C   UNL     1      -1.167  -0.335   0.000  0.00  0.00    +0.023 A 
ATOM      6  C   UNL     1      -0.397  -0.039   0.000  0.00  0.00    +0.014 A 
ATOM      7  C   UNL     1       0.244  -0.558   0.000  0.00  0.00    +0.041 A 
ATOM      8  C   UNL     1       1.163  -0.557   0.000  0.00  0.00    +0.058 C 
ATOM      9  C   UNL     1       1.713  -0.121   0.000  0.00  0.00    +0.011 C 
ATOM     10  C   UNL     1       1.582  -0.925   0.000  0.00  0.00    +0.043 C 
ATOM     11  C   UNL     1       1.629  -1.912   0.000  0.00  0.00    +0.096 C 
ATOM     12  N   UNL     1       0.813  -2.091   0.000  0.00  0.00    -0.276 N 
ATOM     13  C   UNL     1       1.225  -1.510   0.000  0.00  0.00    +0.099 C 
ATOM     14  C   UNL     1       0.125  -2.547   0.000  0.00  0.00    +0.251 C 
ATOM     15  O   UNL     1      -0.614  -2.179   0.000  0.00  0.00    -0.270 OA
ATOM     22  C   UNL     1       0.622  -0.936   0.000  0.00  0.00    +0.110 C 
ATOM     23  N   UNL     1       0.115  -1.373   0.000  0.00  0.00    -0.298 N 
ATOM     24  C   UNL     1      -0.655  -1.669   0.000  0.00  0.00    +0.276 A 
ATOM     25  O   UNL     1      -1.029  -2.404   0.000  0.00  0.00    -0.266 OA
ENDROOT
BRANCH  14  16
ATOM     16  C   UNL     1       0.176  -3.370   0.000  0.00  0.00    +0.073 A 
ATOM     17  C   UNL     1       0.914  -3.738   0.000  0.00  0.00    +0.103 A 
ATOM     18  N   UNL     1       0.965  -4.562   0.000  0.00  0.00    -0.242 NA
ATOM     19  C   UNL     1       0.277  -5.017   0.000  0.00  0.00    +0.099 A 
ATOM     20  C   UNL     1      -0.461  -4.650   0.000  0.00  0.00    +0.021 A 
ATOM     21  C   UNL     1      -0.512  -3.826   0.000  0.00  0.00    +0.008 A 
ENDBRANCH  14  16
BRANCH   4   3
ATOM      1  O   UNL     1      -3.478  -1.222   0.000  0.00  0.00    -0.265 OA
ATOM      2  C   UNL     1      -2.707  -0.926   0.000  0.00  0.00    +0.304 C 
ATOM      3  N   UNL     1      -2.066  -1.445   0.000  0.00  0.00    -0.168 NA
BRANCH   2  26
ATOM     26  C   UNL     1      -2.578  -0.111   0.000  0.00  0.00    +0.201 A 
ATOM     27  C   UNL     1      -3.162   0.472   0.000  0.00  0.00    +0.046 A 
ATOM     28  C   UNL     1      -2.787   1.207   0.000  0.00  0.00    +0.044 A 
ATOM     29  C   UNL     1      -1.972   1.078   0.000  0.00  0.00    +0.180 A 
ATOM     30  O   UNL     1      -1.843   0.263   0.000  0.00  0.00    -0.446 OA
ENDBRANCH   2  26
ENDBRANCH   4   3
TORSDOF 3
