REMARK  Name = 
REMARK  4 active torsions:
REMARK  status: ('A' for Active; 'I' for Inactive)
REMARK    1  A    between atoms: O_2  and  C_3
REMARK    2  A    between atoms: C_3  and  C_4
REMARK    3  A    between atoms: N_6  and  C_7
REMARK    4  A    between atoms: C_16  and  C_23
REMARK                            x       y       z     vdW  Elec       q    Type
REMARK                         _______ _______ _______ _____ _____    ______ ____
ROOT
ATOM      7  C   UNL     1       4.809   1.780   0.000  0.00  0.00    +0.117 C 
ATOM      8  C   UNL     1       4.493   2.542   0.000  0.00  0.00    +0.053 C 
ATOM      9  C   UNL     1       3.671   2.478   0.000  0.00  0.00    +0.156 C 
ATOM     10  N   UNL     1       3.478   1.676   0.000  0.00  0.00    -0.268 N 
ATOM     11  C   UNL     1       4.182   1.244   0.000  0.00  0.00    +0.116 C 
ATOM     12  C   UNL     1       2.731   1.326   0.000  0.00  0.00    +0.251 C 
ATOM     13  O   UNL     1       2.722   0.501   0.000  0.00  0.00    -0.270 OA
ATOM     14  C   UNL     1       1.992   1.692   0.000  0.00  0.00    +0.069 A 
ATOM     15  C   UNL     1       1.381   1.138   0.000  0.00  0.00    +0.006 A 
ATOM     16  C   UNL     1       0.595   1.390   0.000  0.00  0.00    +0.006 A 
ATOM     17  C   UNL     1       0.421   2.196   0.000  0.00  0.00    +0.002 A 
ATOM     18  C   UNL     1       1.032   2.751   0.000  0.00  0.00    +0.017 A 
ATOM     19  C   UNL     1       1.817   2.498   0.000  0.00  0.00    +0.078 A 
ATOM     20  N   UNL     1       2.339   3.138   0.000  0.00  0.00    -0.178 NA
ATOM     21  C   UNL     1       3.164   3.128   0.000  0.00  0.00    +0.264 C 
ATOM     22  O   UNL     1       3.530   3.868   0.000  0.00  0.00    -0.271 OA
ENDROOT
BRANCH  16  23
ATOM     23  C   UNL     1      -0.016   0.836   0.000  0.00  0.00    +0.029 A 
ATOM     24  C   UNL     1       0.073   0.015   0.000  0.00  0.00    +0.007 A 
ATOM     25  C   UNL     1      -0.679  -0.323   0.000  0.00  0.00    +0.007 A 
ATOM     26  C   UNL     1      -1.233   0.288   0.000  0.00  0.00    +0.035 A 
ATOM     27  S   UNL     1      -0.824   1.004   0.000  0.00  0.00    -0.086 S 
ENDBRANCH  16  23
BRANCH   7   6
ATOM      4  C   UNL     1       6.179   2.186   0.000  0.00  0.00    +0.272 C 
ATOM      5  O   UNL     1       5.945   2.977   0.000  0.00  0.00    -0.271 OA
ATOM      6  N   UNL     1       5.611   1.588   0.000  0.00  0.00    -0.203 NA
BRANCH   4   3
ATOM      3  C   UNL     1       6.981   1.994   0.000  0.00  0.00    +0.229 C 
BRANCH   3   2
ATOM      1  C   UNL     1       8.351   2.400   0.000  0.00  0.00    +0.175 C 
ATOM      2  O   UNL     1       7.549   2.592   0.000  0.00  0.00    -0.342 OA
ENDBRANCH   3   2
ENDBRANCH   4   3
ENDBRANCH   7   6
TORSDOF 4
