REMARK  Name = 
REMARK  7 active torsions:
REMARK  status: ('A' for Active; 'I' for Inactive)
REMARK    1  A    between atoms: C_2  and  C_4
REMARK    2  A    between atoms: C_4  and  C_5
REMARK    3  A    between atoms: C_10  and  C_11
REMARK    4  A    between atoms: C_11  and  C_12
REMARK    5  A    between atoms: C_12  and  N_13
REMARK    6  A    between atoms: N_16  and  C_19
REMARK    7  A    between atoms: C_25  and  C_27
REMARK                            x       y       z     vdW  Elec       q    Type
REMARK                         _______ _______ _______ _____ _____    ______ ____
ROOT
ATOM      5  C   UNL     1      -4.699  -3.410   0.000  0.00  0.00    +0.015 C 
ATOM      6  C   UNL     1      -3.985  -2.998   0.000  0.00  0.00    +0.022 C 
ATOM      7  C   UNL     1      -3.270  -3.410   0.000  0.00  0.00    +0.093 C 
ATOM      8  N   UNL     1      -3.270  -4.236   0.000  0.00  0.00    -0.280 N 
ATOM      9  C   UNL     1      -3.985  -4.648   0.000  0.00  0.00    +0.093 C 
ATOM     10  C   UNL     1      -4.699  -4.236   0.000  0.00  0.00    +0.022 C 
ATOM     25  C   UNL     1      -2.556  -4.648   0.000  0.00  0.00    +0.225 C 
ATOM     26  O   UNL     1      -1.841  -4.236   0.000  0.00  0.00    -0.275 OA
ENDROOT
BRANCH  25  27
ATOM     27  C   UNL     1      -2.556  -5.473   0.000  0.00  0.00    +0.077 C 
ATOM     28  C   UNL     1      -2.143  -6.188   0.000  0.00  0.00    +0.010 C 
ATOM     29  C   UNL     1      -2.968  -6.188   0.000  0.00  0.00    +0.010 C 
ENDBRANCH  25  27
BRANCH   5   4
ATOM      4  C   UNL     1      -5.414  -2.998   0.000  0.00  0.00    +0.114 C 
BRANCH   4   2
ATOM      1  O   UNL     1      -6.128  -1.760   0.000  0.00  0.00    -0.246 OA
ATOM      2  C   UNL     1      -5.414  -2.173   0.000  0.00  0.00    +0.365 C 
ATOM      3  O   UNL     1      -4.699  -1.760   0.000  0.00  0.00    -0.246 OA
ENDBRANCH   4   2
ENDBRANCH   5   4
BRANCH  10  11
ATOM     11  C   UNL     1      -5.414  -4.648   0.000  0.00  0.00    +0.019 C 
BRANCH  11  12
ATOM     12  C   UNL     1      -6.128  -4.236   0.000  0.00  0.00    +0.072 C 
BRANCH  12  13
ATOM     13  N   UNL     1      -6.843  -4.648   0.000  0.00  0.00    -0.270 NA
ATOM     14  C   UNL     1      -6.843  -5.473   0.000  0.00  0.00    +0.094 C 
ATOM     15  C   UNL     1      -7.557  -5.886   0.000  0.00  0.00    +0.108 C 
ATOM     16  N   UNL     1      -8.272  -5.473   0.000  0.00  0.00    -0.305 N 
ATOM     17  C   UNL     1      -8.272  -4.648   0.000  0.00  0.00    +0.108 C 
ATOM     18  C   UNL     1      -7.557  -4.236   0.000  0.00  0.00    +0.094 C 
BRANCH  16  19
ATOM     19  C   UNL     1      -8.986  -5.886   0.000  0.00  0.00    +0.048 A 
ATOM     20  C   UNL     1      -8.986  -6.710   0.000  0.00  0.00    +0.015 A 
ATOM     21  C   UNL     1      -9.701  -7.123   0.000  0.00  0.00    +0.001 A 
ATOM     22  C   UNL     1     -10.415  -6.710   0.000  0.00  0.00    +0.000 A 
ATOM     23  C   UNL     1     -10.415  -5.886   0.000  0.00  0.00    +0.001 A 
ATOM     24  C   UNL     1      -9.701  -5.473   0.000  0.00  0.00    +0.015 A 
ENDBRANCH  16  19
ENDBRANCH  12  13
ENDBRANCH  11  12
ENDBRANCH  10  11
TORSDOF 7
