REMARK  Name = 
REMARK  6 active torsions:
REMARK  status: ('A' for Active; 'I' for Inactive)
REMARK    1  A    between atoms: O_2  and  C_3
REMARK    2  A    between atoms: C_5  and  O_6
REMARK    3  A    between atoms: C_9  and  N_10
REMARK    4  A    between atoms: N_13  and  C_14
REMARK    5  A    between atoms: C_18  and  N_22
REMARK    6  A    between atoms: C_25  and  C_29
REMARK                            x       y       z     vdW  Elec       q    Type
REMARK                         _______ _______ _______ _____ _____    ______ ____
ROOT
ATOM     14  C   UNL     1       1.270  -0.922   0.000  0.00  0.00    +0.156 C 
ATOM     15  C   UNL     1       0.785  -0.255   0.000  0.00  0.00    +0.166 C 
ATOM     16  O   UNL     1       1.270   0.412   0.000  0.00  0.00    -0.350 OA
ATOM     17  C   UNL     1       2.054   0.158   0.000  0.00  0.00    +0.166 C 
ATOM     18  C   UNL     1       2.839   0.412   0.000  0.00  0.00    +0.154 C 
ATOM     19  C   UNL     1       3.324  -0.255   0.000  0.00  0.00    +0.166 C 
ATOM     20  O   UNL     1       2.839  -0.922   0.000  0.00  0.00    -0.350 OA
ATOM     21  C   UNL     1       2.054  -0.667   0.000  0.00  0.00    +0.166 C 
ENDROOT
BRANCH  18  22
ATOM     22  N   UNL     1       3.094   1.197   0.000  0.00  0.00    -0.200 NA
ATOM     23  C   UNL     1       3.901   1.369   0.000  0.00  0.00    +0.237 A 
ATOM     24  N   UNL     1       4.156   2.153   0.000  0.00  0.00    -0.209 NA
ATOM     25  C   UNL     1       4.963   2.325   0.000  0.00  0.00    +0.120 A 
ATOM     26  C   UNL     1       5.515   1.712   0.000  0.00  0.00    +0.043 A 
ATOM     27  C   UNL     1       5.260   0.927   0.000  0.00  0.00    +0.104 A 
ATOM     28  N   UNL     1       4.453   0.756   0.000  0.00  0.00    -0.211 NA
BRANCH  25  29
ATOM     29  C   UNL     1       5.218   3.109   0.000  0.00  0.00    +0.163 A 
ATOM     30  C   UNL     1       4.733   3.777   0.000  0.00  0.00    +0.042 A 
ATOM     31  C   UNL     1       5.218   4.444   0.000  0.00  0.00    +0.044 A 
ATOM     32  C   UNL     1       6.002   4.189   0.000  0.00  0.00    +0.180 A 
ATOM     33  O   UNL     1       6.002   3.364   0.000  0.00  0.00    -0.449 OA
ENDBRANCH  25  29
ENDBRANCH  18  22
BRANCH  14  13
ATOM     10  N   UNL     1      -0.047  -2.663   0.000  0.00  0.00    -0.161 NA
ATOM     11  C   UNL     1       0.208  -1.879   0.000  0.00  0.00    +0.344 C 
ATOM     12  O   UNL     1      -0.344  -1.265   0.000  0.00  0.00    -0.249 OA
ATOM     13  N   UNL     1       1.015  -1.707   0.000  0.00  0.00    -0.184 NA
BRANCH  10   9
ATOM      3  C   UNL     1      -1.916  -3.791   0.000  0.00  0.00    +0.143 A 
ATOM      4  C   UNL     1      -2.468  -3.178   0.000  0.00  0.00    +0.074 A 
ATOM      5  C   UNL     1      -2.213  -2.393   0.000  0.00  0.00    +0.143 A 
ATOM      8  C   UNL     1      -1.406  -2.222   0.000  0.00  0.00    +0.054 A 
ATOM      9  C   UNL     1      -0.854  -2.835   0.000  0.00  0.00    +0.081 A 
ATOM     34  C   UNL     1      -1.109  -3.619   0.000  0.00  0.00    +0.054 A 
BRANCH   3   2
ATOM      1  C   UNL     1      -2.978  -4.747   0.000  0.00  0.00    +0.252 C 
ATOM      2  O   UNL     1      -2.171  -4.575   0.000  0.00  0.00    -0.471 OA
ENDBRANCH   3   2
BRANCH   5   6
ATOM      6  O   UNL     1      -2.765  -1.780   0.000  0.00  0.00    -0.471 OA
ATOM      7  C   UNL     1      -2.510  -0.995   0.000  0.00  0.00    +0.252 C 
ENDBRANCH   5   6
ENDBRANCH  10   9
ENDBRANCH  14  13
TORSDOF 6
