REMARK  Name = 
REMARK  6 active torsions:
REMARK  status: ('A' for Active; 'I' for Inactive)
REMARK    1  A    between atoms: O_2  and  C_3
REMARK    2  A    between atoms: C_6  and  C_7
REMARK    3  A    between atoms: C_7  and  C_8
REMARK    4  A    between atoms: N_10  and  C_11
REMARK    5  A    between atoms: C_13  and  C_17
REMARK    6  A    between atoms: C_19  and  C_22
REMARK                            x       y       z     vdW  Elec       q    Type
REMARK                         _______ _______ _______ _____ _____    ______ ____
ROOT
ATOM     11  C   UNL     1      -1.368   3.073   0.000  0.00  0.00    +0.113 C 
ATOM     12  C   UNL     1      -0.816   2.460   0.000  0.00  0.00    +0.049 C 
ATOM     13  C   UNL     1      -1.229   1.746   0.000  0.00  0.00    +0.139 C 
ATOM     14  N   UNL     1      -2.036   1.917   0.000  0.00  0.00    -0.264 NA
ATOM     15  C   UNL     1      -2.649   1.365   0.000  0.00  0.00    +0.090 C 
ATOM     16  C   UNL     1      -2.122   2.738   0.000  0.00  0.00    +0.094 C 
ENDROOT
BRANCH  13  17
ATOM     17  C   UNL     1      -0.893   0.992   0.000  0.00  0.00    +0.251 A 
ATOM     18  N   UNL     1      -0.086   0.821   0.000  0.00  0.00    -0.190 NA
ATOM     19  C   UNL     1       0.000   0.000   0.000  0.00  0.00    +0.203 A 
ATOM     20  N   UNL     1      -0.754  -0.336   0.000  0.00  0.00    -0.056 NA
ATOM     21  O   UNL     1      -1.306   0.278   0.000  0.00  0.00    -0.336 OA
BRANCH  19  22
ATOM     22  C   UNL     1       0.715  -0.412   0.000  0.00  0.00    +0.039 A 
ATOM     23  C   UNL     1       1.429   0.000   0.000  0.00  0.00    +0.003 A 
ATOM     24  C   UNL     1       2.143  -0.412   0.000  0.00  0.00    +0.000 A 
ATOM     25  C   UNL     1       2.858   0.000   0.000  0.00  0.00    +0.000 A 
ATOM     26  C   UNL     1       3.572  -0.412   0.000  0.00  0.00    +0.000 A 
ATOM     27  C   UNL     1       3.572  -1.238   0.000  0.00  0.00    +0.000 A 
ATOM     28  C   UNL     1       2.858  -1.650   0.000  0.00  0.00    +0.000 A 
ATOM     29  C   UNL     1       2.143  -1.238   0.000  0.00  0.00    +0.000 A 
ATOM     30  C   UNL     1       1.429  -1.650   0.000  0.00  0.00    +0.000 A 
ATOM     31  C   UNL     1       0.715  -1.238   0.000  0.00  0.00    +0.003 A 
ENDBRANCH  19  22
ENDBRANCH  13  17
BRANCH  11  10
ATOM      8  C   UNL     1      -1.810   4.432   0.000  0.00  0.00    +0.246 C 
ATOM      9  O   UNL     1      -2.595   4.177   0.000  0.00  0.00    -0.273 OA
ATOM     10  N   UNL     1      -1.197   3.880   0.000  0.00  0.00    -0.205 NA
BRANCH   8   7
ATOM      7  C   UNL     1      -1.638   5.239   0.000  0.00  0.00    +0.113 C 
BRANCH   7   6
ATOM      3  C   UNL     1      -3.478   6.895   0.000  0.00  0.00    +0.139 A 
ATOM      4  C   UNL     1      -2.693   7.150   0.000  0.00  0.00    +0.037 A 
ATOM      5  C   UNL     1      -2.080   6.598   0.000  0.00  0.00    -0.001 A 
ATOM      6  C   UNL     1      -2.251   5.791   0.000  0.00  0.00    -0.013 A 
ATOM     32  C   UNL     1      -3.036   5.536   0.000  0.00  0.00    -0.001 A 
ATOM     33  C   UNL     1      -3.649   6.088   0.000  0.00  0.00    +0.037 A 
BRANCH   3   2
ATOM      1  C   UNL     1      -4.875   7.192   0.000  0.00  0.00    +0.252 C 
ATOM      2  O   UNL     1      -4.091   7.447   0.000  0.00  0.00    -0.471 OA
ENDBRANCH   3   2
ENDBRANCH   7   6
ENDBRANCH   8   7
ENDBRANCH  11  10
TORSDOF 6
