REMARK  Name = 
REMARK  8 active torsions:
REMARK  status: ('A' for Active; 'I' for Inactive)
REMARK    1  A    between atoms: C_2  and  C_4
REMARK    2  A    between atoms: C_6  and  C_7
REMARK    3  A    between atoms: C_7  and  C_8
REMARK    4  A    between atoms: C_18  and  C_19
REMARK    5  A    between atoms: C_19  and  N_20
REMARK    6  A    between atoms: C_21  and  C_23
REMARK    7  A    between atoms: C_23  and  C_24
REMARK    8  A    between atoms: C_24  and  C_25
REMARK                            x       y       z     vdW  Elec       q    Type
REMARK                         _______ _______ _______ _____ _____    ______ ____
ROOT
ATOM      4  C   UNL     1       0.715  -2.062   0.000  0.00  0.00    +0.006 C 
ATOM      5  C   UNL     1       0.000  -2.475   0.000  0.00  0.00    +0.005 C 
ATOM      6  C   UNL     1      -0.715  -2.062   0.000  0.00  0.00    +0.027 C 
ATOM     15  C   UNL     1      -0.715  -1.238   0.000  0.00  0.00    -0.048 C 
ATOM     16  C   UNL     1      -1.429  -0.825   0.000  0.00  0.00    +0.026 C 
ATOM     17  C   UNL     1       0.000  -0.825   0.000  0.00  0.00    -0.033 C 
ATOM     18  C   UNL     1       0.715  -1.238   0.000  0.00  0.00    +0.043 C 
ENDROOT
BRANCH   4   2
ATOM      1  C   UNL     1       2.143  -2.062   0.000  0.00  0.00    +0.000 C 
ATOM      2  C   UNL     1       1.429  -2.475   0.000  0.00  0.00    +0.000 C 
ATOM      3  C   UNL     1       1.429  -3.300   0.000  0.00  0.00    +0.000 C 
ENDBRANCH   4   2
BRANCH   6   7
ATOM      7  C   UNL     1      -1.429  -2.475   0.000  0.00  0.00    +0.089 C 
BRANCH   7   8
ATOM      8  C   UNL     1      -2.143  -2.062   0.000  0.00  0.00    +0.226 C 
ATOM      9  O   UNL     1      -2.143  -1.238   0.000  0.00  0.00    -0.275 OA
ATOM     10  N   UNL     1      -2.858  -2.475   0.000  0.00  0.00    -0.280 N 
ATOM     11  C   UNL     1      -2.944  -3.296   0.000  0.00  0.00    +0.093 C 
ATOM     12  C   UNL     1      -3.751  -3.467   0.000  0.00  0.00    +0.023 C 
ATOM     13  C   UNL     1      -4.164  -2.752   0.000  0.00  0.00    +0.023 C 
ATOM     14  C   UNL     1      -3.612  -2.139   0.000  0.00  0.00    +0.093 C 
ENDBRANCH   7   8
ENDBRANCH   6   7
BRANCH  18  19
ATOM     19  C   UNL     1       1.429  -0.825   0.000  0.00  0.00    +0.119 C 
BRANCH  19  20
ATOM     20  N   UNL     1       2.143  -1.238   0.000  0.00  0.00    -0.205 NA
ATOM     21  C   UNL     1       2.858  -0.825   0.000  0.00  0.00    +0.242 C 
ATOM     22  O   UNL     1       2.858   0.000   0.000  0.00  0.00    -0.273 OA
BRANCH  21  23
ATOM     23  C   UNL     1       3.572  -1.238   0.000  0.00  0.00    +0.099 C 
BRANCH  23  24
ATOM     24  C   UNL     1       4.287  -0.825   0.000  0.00  0.00    +0.124 C 
BRANCH  24  25
ATOM     25  C   UNL     1       5.001  -1.238   0.000  0.00  0.00    +0.365 C 
ATOM     26  O   UNL     1       5.716  -0.825   0.000  0.00  0.00    -0.246 OA
ATOM     27  O   UNL     1       5.001  -2.062   0.000  0.00  0.00    -0.246 OA
ENDBRANCH  24  25
ENDBRANCH  23  24
ENDBRANCH  21  23
ENDBRANCH  19  20
ENDBRANCH  18  19
TORSDOF 8
