REMARK  Name = 
REMARK  7 active torsions:
REMARK  status: ('A' for Active; 'I' for Inactive)
REMARK    1  A    between atoms: C_3  and  C_4
REMARK    2  A    between atoms: C_4  and  N_5
REMARK    3  A    between atoms: N_8  and  C_9
REMARK    4  A    between atoms: C_16  and  C_17
REMARK    5  A    between atoms: C_17  and  C_18
REMARK    6  A    between atoms: N_20  and  C_21
REMARK    7  A    between atoms: C_21  and  C_22
REMARK                            x       y       z     vdW  Elec       q    Type
REMARK                         _______ _______ _______ _____ _____    ______ ____
ROOT
ATOM      1  O   UNL     1      -2.126  -2.284   0.000  0.00  0.00    -0.218 OA
ATOM      2  C   UNL     1      -1.306  -2.197   0.000  0.00  0.00    +0.213 C 
ATOM      3  C   UNL     1      -0.893  -1.483   0.000  0.00  0.00    +0.170 C 
ATOM     15  O   UNL     1      -0.086  -1.655   0.000  0.00  0.00    -0.351 OA
ATOM     16  C   UNL     1       0.000  -2.475   0.000  0.00  0.00    +0.157 C 
ATOM     28  C   UNL     1      -0.754  -2.811   0.000  0.00  0.00    +0.212 C 
ATOM     29  O   UNL     1      -0.925  -3.618   0.000  0.00  0.00    -0.218 OA
ENDROOT
BRANCH   3   4
ATOM      4  C   UNL     1      -1.229  -0.729   0.000  0.00  0.00    +0.149 C 
BRANCH   4   5
ATOM      5  N   UNL     1      -2.049  -0.643   0.000  0.00  0.00    -0.185 NA
ATOM      6  C   UNL     1      -2.385   0.111   0.000  0.00  0.00    +0.339 C 
ATOM      7  O   UNL     1      -1.900   0.778   0.000  0.00  0.00    -0.249 OA
ATOM      8  N   UNL     1      -3.205   0.197   0.000  0.00  0.00    -0.189 NA
BRANCH   8   9
ATOM      9  C   UNL     1      -3.541   0.951   0.000  0.00  0.00    +0.097 C 
ATOM     10  C   UNL     1      -4.361   1.037   0.000  0.00  0.00    +0.022 C 
ATOM     11  C   UNL     1      -4.697   1.790   0.000  0.00  0.00    +0.002 C 
ATOM     12  C   UNL     1      -4.212   2.458   0.000  0.00  0.00    +0.000 C 
ATOM     13  C   UNL     1      -3.392   2.372   0.000  0.00  0.00    +0.002 C 
ATOM     14  C   UNL     1      -3.056   1.618   0.000  0.00  0.00    +0.022 C 
ENDBRANCH   8   9
ENDBRANCH   4   5
ENDBRANCH   3   4
BRANCH  16  17
ATOM     17  C   UNL     1       0.715  -2.888   0.000  0.00  0.00    +0.119 C 
BRANCH  17  18
ATOM     18  C   UNL     1       1.429  -2.475   0.000  0.00  0.00    +0.244 C 
ATOM     19  O   UNL     1       1.429  -1.650   0.000  0.00  0.00    -0.273 OA
ATOM     20  N   UNL     1       2.143  -2.888   0.000  0.00  0.00    -0.200 NA
BRANCH  20  21
ATOM     21  C   UNL     1       2.858  -2.475   0.000  0.00  0.00    +0.143 C 
BRANCH  21  22
ATOM     22  C   UNL     1       3.572  -2.888   0.000  0.00  0.00    +0.019 A 
ATOM     23  C   UNL     1       4.287  -2.475   0.000  0.00  0.00    +0.001 A 
ATOM     24  C   UNL     1       5.001  -2.888   0.000  0.00  0.00    +0.020 A 
ATOM     25  C   UNL     1       5.001  -3.712   0.000  0.00  0.00    +0.099 A 
ATOM     26  N   UNL     1       4.287  -4.125   0.000  0.00  0.00    -0.243 NA
ATOM     27  C   UNL     1       3.572  -3.712   0.000  0.00  0.00    +0.096 A 
ENDBRANCH  21  22
ENDBRANCH  20  21
ENDBRANCH  17  18
ENDBRANCH  16  17
TORSDOF 7
