REMARK  Name = 
REMARK  7 active torsions:
REMARK  status: ('A' for Active; 'I' for Inactive)
REMARK    1  A    between atoms: O_2  and  C_3
REMARK    2  A    between atoms: C_3  and  C_5
REMARK    3  A    between atoms: C_5  and  C_6
REMARK    4  A    between atoms: C_5  and  N_15
REMARK    5  A    between atoms: C_6  and  C_7
REMARK    6  A    between atoms: C_10  and  O_11
REMARK    7  A    between atoms: C_16  and  C_18
REMARK                            x       y       z     vdW  Elec       q    Type
REMARK                         _______ _______ _______ _____ _____    ______ ____
ROOT
ATOM      5  C   UNL     1       1.952  -4.427   0.000  0.00  0.00    +0.198 C 
ENDROOT
BRANCH   5  15
ATOM     15  N   UNL     1       2.777  -4.427   0.000  0.00  0.00    -0.194 NA
ATOM     16  C   UNL     1       3.189  -3.712   0.000  0.00  0.00    +0.261 C 
ATOM     17  O   UNL     1       2.777  -2.998   0.000  0.00  0.00    -0.271 OA
BRANCH  16  18
ATOM     18  C   UNL     1       4.014  -3.712   0.000  0.00  0.00    +0.171 C 
ATOM     19  C   UNL     1       4.427  -2.998   0.000  0.00  0.00    +0.118 C 
ATOM     20  N   UNL     1       5.252  -2.998   0.000  0.00  0.00    -0.214 NA
ATOM     21  C   UNL     1       5.665  -3.712   0.000  0.00  0.00    +0.110 C 
ATOM     22  C   UNL     1       5.252  -4.427   0.000  0.00  0.00    +0.113 C 
ATOM     23  N   UNL     1       4.427  -4.427   0.000  0.00  0.00    -0.270 N 
ATOM     24  C   UNL     1       4.014  -5.141   0.000  0.00  0.00    +0.227 C 
ATOM     25  C   UNL     1       3.189  -5.141   0.000  0.00  0.00    +0.095 C 
ATOM     26  O   UNL     1       4.427  -5.856   0.000  0.00  0.00    -0.275 OA
ENDBRANCH  16  18
ENDBRANCH   5  15
BRANCH   5   3
ATOM      3  C   UNL     1       1.540  -3.712   0.000  0.00  0.00    +0.337 C 
ATOM      4  O   UNL     1       1.952  -2.998   0.000  0.00  0.00    -0.248 OA
BRANCH   3   2
ATOM      1  C   UNL     1       0.302  -2.998   0.000  0.00  0.00    +0.256 C 
ATOM      2  O   UNL     1       0.715  -3.712   0.000  0.00  0.00    -0.443 OA
ENDBRANCH   3   2
ENDBRANCH   5   3
BRANCH   5   6
ATOM      6  C   UNL     1       1.540  -5.141   0.000  0.00  0.00    +0.059 C 
BRANCH   6   7
ATOM      7  C   UNL     1       0.715  -5.141   0.000  0.00  0.00    -0.020 A 
ATOM      8  C   UNL     1       0.302  -5.856   0.000  0.00  0.00    -0.001 A 
ATOM      9  C   UNL     1      -0.523  -5.856   0.000  0.00  0.00    +0.037 A 
ATOM     10  C   UNL     1      -0.935  -5.141   0.000  0.00  0.00    +0.139 A 
ATOM     13  C   UNL     1      -0.523  -4.427   0.000  0.00  0.00    +0.037 A 
ATOM     14  C   UNL     1       0.302  -4.427   0.000  0.00  0.00    -0.001 A 
BRANCH  10  11
ATOM     11  O   UNL     1      -1.760  -5.141   0.000  0.00  0.00    -0.471 OA
ATOM     12  C   UNL     1      -2.173  -4.427   0.000  0.00  0.00    +0.252 C 
ENDBRANCH  10  11
ENDBRANCH   6   7
ENDBRANCH   5   6
TORSDOF 7
