REMARK  Name = 
REMARK  8 active torsions:
REMARK  status: ('A' for Active; 'I' for Inactive)
REMARK    1  A    between atoms: O_2  and  C_3
REMARK    2  A    between atoms: C_3  and  C_5
REMARK    3  A    between atoms: C_5  and  C_6
REMARK    4  A    between atoms: C_5  and  N_15
REMARK    5  A    between atoms: C_6  and  C_7
REMARK    6  A    between atoms: C_10  and  O_11
REMARK    7  A    between atoms: C_16  and  C_18
REMARK    8  A    between atoms: N_29  and  C_30
REMARK                            x       y       z     vdW  Elec       q    Type
REMARK                         _______ _______ _______ _____ _____    ______ ____
ROOT
ATOM     18  C   UNL     1       1.157  -5.362   0.000  0.00  0.00    +0.174 C 
ATOM     19  C   UNL     1       1.569  -4.648   0.000  0.00  0.00    +0.124 C 
ATOM     20  N   UNL     1       2.394  -4.648   0.000  0.00  0.00    -0.259 N 
ATOM     21  C   UNL     1       2.807  -5.362   0.000  0.00  0.00    +0.117 C 
ATOM     22  C   UNL     1       2.394  -6.077   0.000  0.00  0.00    +0.115 C 
ATOM     23  N   UNL     1       1.569  -6.077   0.000  0.00  0.00    -0.270 N 
ATOM     24  C   UNL     1       1.157  -6.791   0.000  0.00  0.00    +0.227 C 
ATOM     25  C   UNL     1       0.332  -6.791   0.000  0.00  0.00    +0.095 C 
ATOM     26  O   UNL     1       1.569  -7.506   0.000  0.00  0.00    -0.275 OA
ATOM     27  C   UNL     1       2.807  -3.934   0.000  0.00  0.00    +0.328 C 
ATOM     28  O   UNL     1       3.632  -3.934   0.000  0.00  0.00    -0.250 OA
ATOM     29  N   UNL     1       2.394  -3.219   0.000  0.00  0.00    -0.162 NA
ENDROOT
BRANCH  29  30
ATOM     30  C   UNL     1       2.807  -2.505   0.000  0.00  0.00    +0.075 A 
ATOM     31  C   UNL     1       2.394  -1.790   0.000  0.00  0.00    +0.017 A 
ATOM     32  C   UNL     1       2.807  -1.076   0.000  0.00  0.00    +0.001 A 
ATOM     33  C   UNL     1       3.632  -1.076   0.000  0.00  0.00    +0.000 A 
ATOM     34  C   UNL     1       4.044  -1.790   0.000  0.00  0.00    +0.001 A 
ATOM     35  C   UNL     1       3.632  -2.505   0.000  0.00  0.00    +0.017 A 
ENDBRANCH  29  30
BRANCH  18  16
ATOM     15  N   UNL     1      -0.081  -6.077   0.000  0.00  0.00    -0.194 NA
ATOM     16  C   UNL     1       0.332  -5.362   0.000  0.00  0.00    +0.262 C 
ATOM     17  O   UNL     1      -0.081  -4.648   0.000  0.00  0.00    -0.271 OA
BRANCH  15   5
ATOM      5  C   UNL     1      -0.906  -6.077   0.000  0.00  0.00    +0.198 C 
BRANCH   5   3
ATOM      3  C   UNL     1      -1.318  -5.362   0.000  0.00  0.00    +0.337 C 
ATOM      4  O   UNL     1      -0.906  -4.648   0.000  0.00  0.00    -0.248 OA
BRANCH   3   2
ATOM      1  C   UNL     1      -2.556  -4.648   0.000  0.00  0.00    +0.256 C 
ATOM      2  O   UNL     1      -2.143  -5.362   0.000  0.00  0.00    -0.443 OA
ENDBRANCH   3   2
ENDBRANCH   5   3
BRANCH   5   6
ATOM      6  C   UNL     1      -1.318  -6.791   0.000  0.00  0.00    +0.059 C 
BRANCH   6   7
ATOM      7  C   UNL     1      -2.143  -6.791   0.000  0.00  0.00    -0.020 A 
ATOM      8  C   UNL     1      -2.556  -7.506   0.000  0.00  0.00    -0.001 A 
ATOM      9  C   UNL     1      -3.381  -7.506   0.000  0.00  0.00    +0.037 A 
ATOM     10  C   UNL     1      -3.793  -6.791   0.000  0.00  0.00    +0.139 A 
ATOM     13  C   UNL     1      -3.381  -6.077   0.000  0.00  0.00    +0.037 A 
ATOM     14  C   UNL     1      -2.556  -6.077   0.000  0.00  0.00    -0.001 A 
BRANCH  10  11
ATOM     11  O   UNL     1      -4.618  -6.791   0.000  0.00  0.00    -0.471 OA
ATOM     12  C   UNL     1      -5.031  -6.077   0.000  0.00  0.00    +0.252 C 
ENDBRANCH  10  11
ENDBRANCH   6   7
ENDBRANCH   5   6
ENDBRANCH  15   5
ENDBRANCH  18  16
TORSDOF 8
