REMARK  Name = 
REMARK  6 active torsions:
REMARK  status: ('A' for Active; 'I' for Inactive)
REMARK    1  A    between atoms: O_2  and  C_3
REMARK    2  A    between atoms: C_6  and  C_7
REMARK    3  A    between atoms: C_7  and  N_8
REMARK    4  A    between atoms: C_11  and  C_13
REMARK    5  A    between atoms: C_16  and  C_18
REMARK    6  A    between atoms: C_21  and  N_24
REMARK                            x       y       z     vdW  Elec       q    Type
REMARK                         _______ _______ _______ _____ _____    ______ ____
ROOT
ATOM      8  N   UNL     1       2.024  -3.041   0.000  0.00  0.00    -0.268 NA
ATOM      9  C   UNL     1       2.692  -3.525   0.000  0.00  0.00    +0.073 C 
ATOM     10  C   UNL     1       2.437  -4.310   0.000  0.00  0.00    +0.028 C 
ATOM     11  C   UNL     1       1.612  -4.310   0.000  0.00  0.00    +0.096 C 
ATOM     12  C   UNL     1       1.357  -3.525   0.000  0.00  0.00    +0.082 C 
ENDROOT
BRANCH  11  13
ATOM     13  C   UNL     1       1.127  -4.977   0.000  0.00  0.00    +0.227 A 
ATOM     14  N   UNL     1       1.382  -5.762   0.000  0.00  0.00    -0.111 NA
ATOM     15  N   UNL     1       0.715  -6.247   0.000  0.00  0.00    -0.107 NA
ATOM     16  C   UNL     1       0.047  -5.762   0.000  0.00  0.00    +0.250 A 
ATOM     17  O   UNL     1       0.302  -4.977   0.000  0.00  0.00    -0.419 OA
BRANCH  16  18
ATOM     18  C   UNL     1      -0.738  -6.017   0.000  0.00  0.00    +0.055 A 
ATOM     19  C   UNL     1      -0.909  -6.824   0.000  0.00  0.00    +0.006 A 
ATOM     20  C   UNL     1      -1.694  -7.079   0.000  0.00  0.00    +0.015 A 
ATOM     21  C   UNL     1      -2.307  -6.527   0.000  0.00  0.00    +0.048 A 
ATOM     22  C   UNL     1      -2.135  -5.720   0.000  0.00  0.00    +0.015 A 
ATOM     23  C   UNL     1      -1.351  -5.465   0.000  0.00  0.00    +0.006 A 
BRANCH  21  24
ATOM     24  N   UNL     1      -3.091  -6.782   0.000  0.00  0.00    -0.304 N 
ATOM     25  C   UNL     1      -3.263  -7.589   0.000  0.00  0.00    +0.112 C 
ATOM     26  C   UNL     1      -3.704  -6.230   0.000  0.00  0.00    +0.112 C 
ENDBRANCH  21  24
ENDBRANCH  16  18
ENDBRANCH  11  13
BRANCH   8   7
ATOM      7  C   UNL     1       2.024  -2.216   0.000  0.00  0.00    +0.099 C 
BRANCH   7   6
ATOM      3  C   UNL     1       4.168  -0.978   0.000  0.00  0.00    +0.139 A 
ATOM      4  C   UNL     1       4.168  -1.803   0.000  0.00  0.00    +0.037 A 
ATOM      5  C   UNL     1       3.453  -2.216   0.000  0.00  0.00    +0.000 A 
ATOM      6  C   UNL     1       2.739  -1.803   0.000  0.00  0.00    -0.006 A 
ATOM     27  C   UNL     1       2.739  -0.978   0.000  0.00  0.00    +0.000 A 
ATOM     28  C   UNL     1       3.453  -0.566   0.000  0.00  0.00    +0.037 A 
BRANCH   3   2
ATOM      1  C   UNL     1       4.882   0.260   0.000  0.00  0.00    +0.252 C 
ATOM      2  O   UNL     1       4.882  -0.566   0.000  0.00  0.00    -0.471 OA
ENDBRANCH   3   2
ENDBRANCH   7   6
ENDBRANCH   8   7
TORSDOF 6
