REMARK  Name = 
REMARK  3 active torsions:
REMARK  status: ('A' for Active; 'I' for Inactive)
REMARK    1  A    between atoms: C_2  and  C_3
REMARK    2  A    between atoms: N_13  and  C_14
REMARK    3  A    between atoms: C_14  and  C_15
REMARK                            x       y       z     vdW  Elec       q    Type
REMARK                         _______ _______ _______ _____ _____    ______ ____
ROOT
ATOM      1  O   UNL     1      -0.584  -1.412   0.000  0.00  0.00    -0.275 OA
ATOM      2  C   UNL     1      -0.171  -0.698   0.000  0.00  0.00    +0.225 C 
ATOM      6  N   UNL     1       0.654  -0.698   0.000  0.00  0.00    -0.275 N 
ATOM      7  C   UNL     1       1.139  -0.030   0.000  0.00  0.00    +0.125 C 
ATOM      8  C   UNL     1       1.923  -0.285   0.000  0.00  0.00    +0.155 C 
ATOM      9  O   UNL     1       2.638   0.127   0.000  0.00  0.00    -0.343 OA
ATOM     10  C   UNL     1       3.352  -0.285   0.000  0.00  0.00    +0.227 C 
ATOM     11  C   UNL     1       3.352  -1.110   0.000  0.00  0.00    +0.256 C 
ATOM     12  O   UNL     1       4.067  -1.523   0.000  0.00  0.00    -0.272 OA
ATOM     13  N   UNL     1       2.638  -1.523   0.000  0.00  0.00    -0.271 N 
ATOM     21  C   UNL     1       1.923  -1.110   0.000  0.00  0.00    +0.124 C 
ATOM     22  C   UNL     1       1.139  -1.365   0.000  0.00  0.00    +0.116 C 
ENDROOT
BRANCH   2   3
ATOM      3  C   UNL     1      -0.584   0.017   0.000  0.00  0.00    +0.077 C 
ATOM      4  C   UNL     1      -1.298   0.429   0.000  0.00  0.00    +0.010 C 
ATOM      5  C   UNL     1      -0.584   0.842   0.000  0.00  0.00    +0.010 C 
ENDBRANCH   2   3
BRANCH  13  14
ATOM     14  C   UNL     1       2.638  -2.348   0.000  0.00  0.00    +0.122 C 
BRANCH  14  15
ATOM     15  C   UNL     1       1.923  -2.760   0.000  0.00  0.00    +0.017 A 
ATOM     16  C   UNL     1       1.923  -3.585   0.000  0.00  0.00    +0.001 A 
ATOM     17  C   UNL     1       1.209  -3.998   0.000  0.00  0.00    +0.020 A 
ATOM     18  C   UNL     1       0.494  -3.585   0.000  0.00  0.00    +0.099 A 
ATOM     19  N   UNL     1       0.494  -2.760   0.000  0.00  0.00    -0.243 NA
ATOM     20  C   UNL     1       1.209  -2.348   0.000  0.00  0.00    +0.096 A 
ENDBRANCH  14  15
ENDBRANCH  13  14
TORSDOF 3
