REMARK  Name = 
REMARK  5 active torsions:
REMARK  status: ('A' for Active; 'I' for Inactive)
REMARK    1  A    between atoms: C_4  and  C_17
REMARK    2  A    between atoms: N_5  and  C_6
REMARK    3  A    between atoms: C_6  and  C_7
REMARK    4  A    between atoms: C_10  and  C_13
REMARK    5  A    between atoms: C_19  and  C_22
REMARK                            x       y       z     vdW  Elec       q    Type
REMARK                         _______ _______ _______ _____ _____    ______ ____
ROOT
ATOM      1  O   UNL     1      -0.596  -2.216   0.000  0.00  0.00    -0.222 OA
ATOM      2  C   UNL     1      -0.596  -3.041   0.000  0.00  0.00    +0.170 C 
ATOM      3  C   UNL     1       0.072  -3.525   0.000  0.00  0.00    +0.060 C 
ATOM      4  C   UNL     1      -0.183  -4.310   0.000  0.00  0.00    +0.140 C 
ATOM      5  N   UNL     1      -1.008  -4.310   0.000  0.00  0.00    -0.260 NA
ATOM     16  C   UNL     1      -1.263  -3.525   0.000  0.00  0.00    +0.106 C 
ENDROOT
BRANCH   4  17
ATOM     17  C   UNL     1       0.302  -4.977   0.000  0.00  0.00    +0.251 A 
ATOM     18  N   UNL     1       1.127  -4.977   0.000  0.00  0.00    -0.190 NA
ATOM     19  C   UNL     1       1.382  -5.762   0.000  0.00  0.00    +0.205 A 
ATOM     20  N   UNL     1       0.715  -6.247   0.000  0.00  0.00    -0.056 NA
ATOM     21  O   UNL     1       0.047  -5.762   0.000  0.00  0.00    -0.336 OA
BRANCH  19  22
ATOM     22  C   UNL     1       2.167  -6.017   0.000  0.00  0.00    +0.058 A 
ATOM     23  C   UNL     1       2.780  -5.465   0.000  0.00  0.00    +0.006 A 
ATOM     24  C   UNL     1       3.564  -5.720   0.000  0.00  0.00    +0.021 A 
ATOM     25  C   UNL     1       3.736  -6.527   0.000  0.00  0.00    +0.099 A 
ATOM     26  N   UNL     1       3.123  -7.079   0.000  0.00  0.00    -0.242 NA
ATOM     27  C   UNL     1       2.338  -6.824   0.000  0.00  0.00    +0.102 A 
ENDBRANCH  19  22
ENDBRANCH   4  17
BRANCH   5   6
ATOM      6  C   UNL     1      -1.493  -4.977   0.000  0.00  0.00    +0.100 C 
BRANCH   6   7
ATOM      7  C   UNL     1      -2.313  -4.891   0.000  0.00  0.00    -0.006 A 
ATOM      8  C   UNL     1      -2.798  -5.559   0.000  0.00  0.00    -0.003 A 
ATOM      9  C   UNL     1      -3.619  -5.472   0.000  0.00  0.00    +0.006 A 
ATOM     10  C   UNL     1      -3.954  -4.719   0.000  0.00  0.00    +0.080 A 
ATOM     11  C   UNL     1      -3.469  -4.051   0.000  0.00  0.00    +0.006 A 
ATOM     12  C   UNL     1      -2.649  -4.138   0.000  0.00  0.00    -0.003 A 
BRANCH  10  13
ATOM     13  C   UNL     1      -4.775  -4.633   0.000  0.00  0.00    +0.388 C 
ATOM     14  O   UNL     1      -5.110  -3.879   0.000  0.00  0.00    -0.241 OA
ATOM     15  O   UNL     1      -5.260  -5.300   0.000  0.00  0.00    -0.241 OA
ENDBRANCH  10  13
ENDBRANCH   6   7
ENDBRANCH   5   6
TORSDOF 5
