REMARK  Name = 
REMARK  5 active torsions:
REMARK  status: ('A' for Active; 'I' for Inactive)
REMARK    1  A    between atoms: C_2  and  C_4
REMARK    2  A    between atoms: C_4  and  C_5
REMARK    3  A    between atoms: C_7  and  C_18
REMARK    4  A    between atoms: N_20  and  C_21
REMARK    5  A    between atoms: C_21  and  C_22
REMARK                            x       y       z     vdW  Elec       q    Type
REMARK                         _______ _______ _______ _____ _____    ______ ____
ROOT
ATOM      5  C   UNL     1       3.006   2.090   0.000  0.00  0.00    +0.095 C 
ATOM      6  N   UNL     1       3.805   1.885   0.000  0.00  0.00    -0.207 NA
ATOM      7  C   UNL     1       4.143   1.132   0.000  0.00  0.00    +0.155 C 
ATOM      8  C   UNL     1       3.765   0.399   0.000  0.00  0.00    +0.055 C 
ATOM      9  C   UNL     1       2.956   0.237   0.000  0.00  0.00    +0.000 A 
ATOM     10  C   UNL     1       2.645  -0.527   0.000  0.00  0.00    +0.095 A 
ATOM     11  N   UNL     1       1.822  -0.468   0.000  0.00  0.00    -0.244 NA
ATOM     12  C   UNL     1       1.624   0.333   0.000  0.00  0.00    +0.081 A 
ATOM     13  C   UNL     1       2.325   0.769   0.000  0.00  0.00    +0.013 A 
ATOM     14  C   UNL     1       2.348   1.594   0.000  0.00  0.00    -0.005 A 
ATOM     15  C   UNL     1       1.571   1.982   0.000  0.00  0.00    -0.003 A 
ATOM     16  C   UNL     1       0.870   1.547   0.000  0.00  0.00    +0.001 A 
ATOM     17  C   UNL     1       0.897   0.722   0.000  0.00  0.00    +0.019 A 
ENDROOT
BRANCH   7  18
ATOM     18  C   UNL     1       4.968   1.110   0.000  0.00  0.00    +0.258 C 
ATOM     19  O   UNL     1       5.399   1.813   0.000  0.00  0.00    -0.272 OA
ATOM     20  N   UNL     1       5.361   0.384   0.000  0.00  0.00    -0.199 NA
BRANCH  20  21
ATOM     21  C   UNL     1       6.185   0.362   0.000  0.00  0.00    +0.142 C 
BRANCH  21  22
ATOM     22  C   UNL     1       6.578  -0.364   0.000  0.00  0.00    -0.000 A 
ATOM     23  C   UNL     1       7.403  -0.386   0.000  0.00  0.00    -0.000 A 
ATOM     24  C   UNL     1       7.796  -1.112   0.000  0.00  0.00    +0.029 A 
ATOM     25  C   UNL     1       7.364  -1.815   0.000  0.00  0.00    +0.140 A 
ATOM     26  F   UNL     1       7.757  -2.540   0.000  0.00  0.00    -0.204 F 
ATOM     27  C   UNL     1       6.539  -1.792   0.000  0.00  0.00    +0.029 A 
ATOM     28  C   UNL     1       6.146  -1.067   0.000  0.00  0.00    -0.000 A 
ENDBRANCH  21  22
ENDBRANCH  20  21
ENDBRANCH   7  18
BRANCH   5   4
ATOM      4  C   UNL     1       2.845   2.899   0.000  0.00  0.00    +0.022 C 
BRANCH   4   2
ATOM      1  C   UNL     1       1.902   3.973   0.000  0.00  0.00    +0.000 C 
ATOM      2  C   UNL     1       2.063   3.164   0.000  0.00  0.00    +0.002 C 
ATOM      3  C   UNL     1       1.443   2.619   0.000  0.00  0.00    +0.000 C 
ENDBRANCH   4   2
ENDBRANCH   5   4
TORSDOF 5
