REMARK  Name = 
REMARK  5 active torsions:
REMARK  status: ('A' for Active; 'I' for Inactive)
REMARK    1  A    between atoms: N_9  and  C_10
REMARK    2  A    between atoms: C_10  and  C_11
REMARK    3  A    between atoms: C_14  and  C_17
REMARK    4  A    between atoms: C_27  and  C_28
REMARK    5  A    between atoms: C_30  and  C_34
REMARK                            x       y       z     vdW  Elec       q    Type
REMARK                         _______ _______ _______ _____ _____    ______ ____
ROOT
ATOM      1  O   UNL     1       0.679  -3.514   0.000  0.00  0.00    -0.267 OA
ATOM      2  C   UNL     1       1.157  -2.841   0.000  0.00  0.00    +0.261 A 
ATOM      3  N   UNL     1       0.813  -2.091   0.000  0.00  0.00    -0.299 N 
ATOM      4  C   UNL     1       1.629  -1.912   0.000  0.00  0.00    +0.110 C 
ATOM      5  C   UNL     1       1.582  -0.925   0.000  0.00  0.00    +0.039 C 
ATOM      6  C   UNL     1       1.713  -0.121   0.000  0.00  0.00    +0.011 C 
ATOM      7  C   UNL     1       1.163  -0.557   0.000  0.00  0.00    +0.054 C 
ATOM      8  C   UNL     1       0.244  -0.558   0.000  0.00  0.00    +0.078 C 
ATOM      9  N   UNL     1       0.117  -1.360   0.000  0.00  0.00    -0.269 NA
ATOM     23  C   UNL     1       0.622  -0.936   0.000  0.00  0.00    +0.074 C 
ATOM     24  C   UNL     1       1.290  -1.419   0.000  0.00  0.00    +0.041 A 
ATOM     25  C   UNL     1       2.111  -1.496   0.000  0.00  0.00    +0.013 A 
ATOM     26  C   UNL     1       2.455  -2.245   0.000  0.00  0.00    +0.006 A 
ATOM     27  C   UNL     1       1.978  -2.918   0.000  0.00  0.00    +0.056 A 
ENDROOT
BRANCH  27  28
ATOM     28  C   UNL     1       2.322  -3.668   0.000  0.00  0.00    +0.005 A 
ATOM     29  C   UNL     1       3.144  -3.745   0.000  0.00  0.00    +0.010 A 
ATOM     30  C   UNL     1       3.488  -4.495   0.000  0.00  0.00    +0.068 A 
ATOM     31  C   UNL     1       3.010  -5.168   0.000  0.00  0.00    +0.010 A 
ATOM     32  C   UNL     1       2.189  -5.091   0.000  0.00  0.00    +0.001 A 
ATOM     33  C   UNL     1       1.845  -4.341   0.000  0.00  0.00    +0.000 A 
BRANCH  30  34
ATOM     34  C   UNL     1       4.309  -4.572   0.000  0.00  0.00    +0.100 C 
ATOM     35  N   UNL     1       5.130  -4.649   0.000  0.00  0.00    -0.191 NA
ENDBRANCH  30  34
ENDBRANCH  27  28
BRANCH   9  10
ATOM     10  C   UNL     1      -0.288  -2.078   0.000  0.00  0.00    +0.099 C 
BRANCH  10  11
ATOM     11  C   UNL     1      -1.113  -2.086   0.000  0.00  0.00    -0.006 A 
ATOM     12  C   UNL     1      -1.519  -2.804   0.000  0.00  0.00    -0.003 A 
ATOM     13  C   UNL     1      -2.344  -2.812   0.000  0.00  0.00    +0.001 A 
ATOM     14  C   UNL     1      -2.763  -2.102   0.000  0.00  0.00    +0.018 A 
ATOM     15  C   UNL     1      -2.357  -1.383   0.000  0.00  0.00    +0.001 A 
ATOM     16  C   UNL     1      -1.532  -1.375   0.000  0.00  0.00    -0.003 A 
BRANCH  14  17
ATOM     17  C   UNL     1      -3.588  -2.109   0.000  0.00  0.00    +0.081 A 
ATOM     18  N   UNL     1      -3.994  -2.828   0.000  0.00  0.00    -0.244 NA
ATOM     19  C   UNL     1      -4.819  -2.835   0.000  0.00  0.00    +0.099 A 
ATOM     20  C   UNL     1      -5.238  -2.125   0.000  0.00  0.00    +0.021 A 
ATOM     21  C   UNL     1      -4.832  -1.406   0.000  0.00  0.00    +0.003 A 
ATOM     22  C   UNL     1      -4.007  -1.399   0.000  0.00  0.00    +0.019 A 
ENDBRANCH  14  17
ENDBRANCH  10  11
ENDBRANCH   9  10
TORSDOF 5
