REMARK  Name = 
REMARK  5 active torsions:
REMARK  status: ('A' for Active; 'I' for Inactive)
REMARK    1  A    between atoms: C_12  and  C_13
REMARK    2  A    between atoms: C_13  and  C_14
REMARK    3  A    between atoms: C_14  and  C_15
REMARK    4  A    between atoms: N_17  and  C_18
REMARK    5  A    between atoms: C_18  and  C_19
REMARK                            x       y       z     vdW  Elec       q    Type
REMARK                         _______ _______ _______ _____ _____    ______ ____
ROOT
ATOM      1  C   UNL     1       2.079  -2.512   0.000  0.00  0.00    +0.090 C 
ATOM      2  N   UNL     1       1.311  -2.211   0.000  0.00  0.00    -0.271 NA
ATOM      3  C   UNL     1       0.706  -2.772   0.000  0.00  0.00    +0.084 C 
ATOM      4  C   UNL     1       0.841  -3.586   0.000  0.00  0.00    +0.037 C 
ATOM      5  C   UNL     1       0.109  -3.966   0.000  0.00  0.00    +0.091 C 
ATOM      6  N   UNL     1      -0.479  -3.387   0.000  0.00  0.00    -0.209 NA
ATOM      7  C   UNL     1      -0.110  -2.649   0.000  0.00  0.00    +0.165 C 
ATOM      8  C   UNL     1      -0.522  -1.935   0.000  0.00  0.00    +0.259 C 
ATOM      9  O   UNL     1      -1.345  -1.996   0.000  0.00  0.00    -0.272 OA
ATOM     10  N   UNL     1      -0.221  -1.167   0.000  0.00  0.00    -0.203 NA
ATOM     11  C   UNL     1       0.568  -0.924   0.000  0.00  0.00    +0.131 C 
ATOM     12  C   UNL     1       1.249  -1.388   0.000  0.00  0.00    +0.080 C 
ENDROOT
BRANCH  12  13
ATOM     13  C   UNL     1       1.964  -0.976   0.000  0.00  0.00    +0.027 C 
BRANCH  13  14
ATOM     14  C   UNL     1       2.678  -1.388   0.000  0.00  0.00    +0.088 C 
BRANCH  14  15
ATOM     15  C   UNL     1       3.393  -0.976   0.000  0.00  0.00    +0.242 C 
ATOM     16  O   UNL     1       3.393  -0.151   0.000  0.00  0.00    -0.273 OA
ATOM     17  N   UNL     1       4.107  -1.388   0.000  0.00  0.00    -0.197 NA
BRANCH  17  18
ATOM     18  C   UNL     1       4.822  -0.976   0.000  0.00  0.00    +0.179 C 
BRANCH  18  19
ATOM     19  C   UNL     1       5.536  -1.388   0.000  0.00  0.00    +0.145 A 
ATOM     20  C   UNL     1       6.290  -1.053   0.000  0.00  0.00    +0.038 A 
ATOM     21  C   UNL     1       6.842  -1.666   0.000  0.00  0.00    +0.043 A 
ATOM     22  C   UNL     1       6.429  -2.380   0.000  0.00  0.00    +0.179 A 
ATOM     23  O   UNL     1       5.622  -2.209   0.000  0.00  0.00    -0.453 OA
ENDBRANCH  18  19
ENDBRANCH  17  18
ENDBRANCH  14  15
ENDBRANCH  13  14
ENDBRANCH  12  13
TORSDOF 5
