REMARK  Name = 
REMARK  5 active torsions:
REMARK  status: ('A' for Active; 'I' for Inactive)
REMARK    1  A    between atoms: N_2  and  C_4
REMARK    2  A    between atoms: C_7  and  C_10
REMARK    3  A    between atoms: N_12  and  C_13
REMARK    4  A    between atoms: C_15  and  C_18
REMARK    5  A    between atoms: N_21  and  C_25
REMARK                            x       y       z     vdW  Elec       q    Type
REMARK                         _______ _______ _______ _____ _____    ______ ____
ROOT
ATOM     13  C   UNL     1      -0.596  -3.041   0.000  0.00  0.00    +0.118 C 
ATOM     14  C   UNL     1       0.072  -3.525   0.000  0.00  0.00    +0.035 C 
ATOM     15  C   UNL     1      -0.183  -4.310   0.000  0.00  0.00    +0.048 C 
ATOM     16  C   UNL     1      -1.008  -4.310   0.000  0.00  0.00    -0.025 C 
ATOM     17  C   UNL     1      -1.263  -3.525   0.000  0.00  0.00    -0.009 C 
ENDROOT
BRANCH  15  18
ATOM     18  C   UNL     1       0.302  -4.977   0.000  0.00  0.00    +0.010 A 
ATOM     19  C   UNL     1       1.127  -4.977   0.000  0.00  0.00    +0.058 A 
ATOM     20  C   UNL     1       1.612  -4.310   0.000  0.00  0.00    +0.052 C 
ATOM     21  N   UNL     1       1.382  -5.762   0.000  0.00  0.00    -0.234 N 
ATOM     22  N   UNL     1       0.715  -6.247   0.000  0.00  0.00    -0.170 NA
ATOM     23  C   UNL     1       0.047  -5.762   0.000  0.00  0.00    +0.077 A 
ATOM     24  C   UNL     1      -0.738  -6.017   0.000  0.00  0.00    +0.054 C 
BRANCH  21  25
ATOM     25  C   UNL     1       2.167  -6.017   0.000  0.00  0.00    +0.083 A 
ATOM     26  C   UNL     1       2.780  -5.465   0.000  0.00  0.00    +0.021 A 
ATOM     27  C   UNL     1       3.564  -5.720   0.000  0.00  0.00    +0.031 A 
ATOM     28  C   UNL     1       3.736  -6.527   0.000  0.00  0.00    +0.140 A 
ATOM     29  F   UNL     1       4.520  -6.782   0.000  0.00  0.00    -0.204 F 
ATOM     30  C   UNL     1       3.123  -7.079   0.000  0.00  0.00    +0.031 A 
ATOM     31  C   UNL     1       2.338  -6.824   0.000  0.00  0.00    +0.021 A 
ENDBRANCH  21  25
ENDBRANCH  15  18
BRANCH  13  12
ATOM     10  C   UNL     1      -1.310  -1.803   0.000  0.00  0.00    +0.265 C 
ATOM     11  O   UNL     1      -2.024  -2.216   0.000  0.00  0.00    -0.268 OA
ATOM     12  N   UNL     1      -0.596  -2.216   0.000  0.00  0.00    -0.199 NA
BRANCH  10   7
ATOM      4  C   UNL     1      -1.310   0.672   0.000  0.00  0.00    +0.048 A 
ATOM      5  C   UNL     1      -0.596   0.260   0.000  0.00  0.00    +0.015 A 
ATOM      6  C   UNL     1      -0.596  -0.566   0.000  0.00  0.00    +0.006 A 
ATOM      7  C   UNL     1      -1.310  -0.978   0.000  0.00  0.00    +0.055 A 
ATOM      8  C   UNL     1      -2.024  -0.566   0.000  0.00  0.00    +0.006 A 
ATOM      9  C   UNL     1      -2.024   0.260   0.000  0.00  0.00    +0.015 A 
BRANCH   4   2
ATOM      1  C   UNL     1      -2.024   1.909   0.000  0.00  0.00    +0.112 C 
ATOM      2  N   UNL     1      -1.310   1.497   0.000  0.00  0.00    -0.304 N 
ATOM      3  C   UNL     1      -0.596   1.909   0.000  0.00  0.00    +0.112 C 
ENDBRANCH   4   2
ENDBRANCH  10   7
ENDBRANCH  13  12
TORSDOF 5
