REMARK  Name = 
REMARK  3 active torsions:
REMARK  status: ('A' for Active; 'I' for Inactive)
REMARK    1  A    between atoms: C_4  and  O_5
REMARK    2  A    between atoms: O_5  and  C_6
REMARK    3  A    between atoms: C_13  and  C_15
REMARK                            x       y       z     vdW  Elec       q    Type
REMARK                         _______ _______ _______ _____ _____    ______ ____
ROOT
ATOM      6  C   UNL     1       1.099   0.778   0.000  0.00  0.00    +0.217 C 
ATOM      7  C   UNL     1       0.797   1.546   0.000  0.00  0.00    +0.187 C 
ATOM      8  O   UNL     1       1.210   2.260   0.000  0.00  0.00    -0.348 OA
ATOM      9  C   UNL     1       2.025   2.383   0.000  0.00  0.00    +0.164 C 
ATOM     10  C   UNL     1       2.630   1.822   0.000  0.00  0.00    +0.126 C 
ATOM     11  N   UNL     1       2.568   0.999   0.000  0.00  0.00    -0.273 N 
ATOM     12  C   UNL     1       1.887   0.535   0.000  0.00  0.00    +0.140 C 
ATOM     13  C   UNL     1       3.283   0.587   0.000  0.00  0.00    +0.225 C 
ATOM     14  O   UNL     1       3.997   0.999   0.000  0.00  0.00    -0.275 OA
ENDROOT
BRANCH  13  15
ATOM     15  C   UNL     1       3.283  -0.238   0.000  0.00  0.00    +0.077 C 
ATOM     16  C   UNL     1       3.695  -0.953   0.000  0.00  0.00    +0.010 C 
ATOM     17  C   UNL     1       2.870  -0.953   0.000  0.00  0.00    +0.010 C 
ENDBRANCH  13  15
BRANCH   6   5
ATOM      5  O   UNL     1       0.537   0.173   0.000  0.00  0.00    -0.460 OA
BRANCH   5   4
ATOM      1  C   UNL     1      -1.558   2.117   0.000  0.00  0.00    +0.052 C 
ATOM      2  C   UNL     1      -1.315   1.329   0.000  0.00  0.00    +0.062 A 
ATOM      3  N   UNL     1      -0.510   1.145   0.000  0.00  0.00    -0.216 NA
ATOM      4  C   UNL     1      -0.267   0.357   0.000  0.00  0.00    +0.225 A 
ATOM     18  C   UNL     1      -0.828  -0.248   0.000  0.00  0.00    +0.058 A 
ATOM     19  C   UNL     1      -1.632  -0.065   0.000  0.00  0.00    +0.006 A 
ATOM     20  C   UNL     1      -1.876   0.724   0.000  0.00  0.00    +0.015 A 
ENDBRANCH   5   4
ENDBRANCH   6   5
TORSDOF 3
