REMARK  Name = 
REMARK  6 active torsions:
REMARK  status: ('A' for Active; 'I' for Inactive)
REMARK    1  A    between atoms: N_6  and  C_7
REMARK    2  A    between atoms: C_7  and  C_8
REMARK    3  A    between atoms: C_11  and  S_14
REMARK    4  A    between atoms: C_23  and  C_24
REMARK    5  A    between atoms: C_24  and  C_25
REMARK    6  A    between atoms: C_25  and  C_26
REMARK                            x       y       z     vdW  Elec       q    Type
REMARK                         _______ _______ _______ _____ _____    ______ ____
ROOT
ATOM      1  C   UNL     1       0.461  -1.319   0.000  0.00  0.00    +0.090 C 
ATOM      2  N   UNL     1       0.645  -0.514   0.000  0.00  0.00    -0.271 NA
ATOM      3  C   UNL     1       0.000   0.000   0.000  0.00  0.00    +0.083 C 
ATOM      4  C   UNL     1      -0.785  -0.255   0.000  0.00  0.00    +0.035 C 
ATOM      5  C   UNL     1      -1.270   0.412   0.000  0.00  0.00    +0.074 C 
ATOM      6  N   UNL     1      -0.785   1.080   0.000  0.00  0.00    -0.262 NA
ATOM     18  C   UNL     1       0.000   0.825   0.000  0.00  0.00    +0.151 C 
ATOM     19  C   UNL     1       0.645   1.339   0.000  0.00  0.00    +0.257 C 
ATOM     20  O   UNL     1       0.461   2.144   0.000  0.00  0.00    -0.272 OA
ATOM     21  N   UNL     1       1.449   1.156   0.000  0.00  0.00    -0.203 NA
ATOM     22  C   UNL     1       1.807   0.412   0.000  0.00  0.00    +0.131 C 
ATOM     23  C   UNL     1       1.449  -0.331   0.000  0.00  0.00    +0.080 C 
ENDROOT
BRANCH   6   7
ATOM      7  C   UNL     1      -1.040   1.865   0.000  0.00  0.00    +0.100 C 
BRANCH   7   8
ATOM      8  C   UNL     1      -1.847   2.036   0.000  0.00  0.00    -0.006 A 
ATOM      9  C   UNL     1      -2.399   1.423   0.000  0.00  0.00    -0.002 A 
ATOM     10  C   UNL     1      -3.205   1.595   0.000  0.00  0.00    +0.018 A 
ATOM     11  C   UNL     1      -3.461   2.379   0.000  0.00  0.00    +0.106 A 
ATOM     12  C   UNL     1      -2.908   2.992   0.000  0.00  0.00    +0.018 A 
ATOM     13  C   UNL     1      -2.102   2.821   0.000  0.00  0.00    -0.002 A 
BRANCH  11  14
ATOM     14  S   UNL     1      -4.267   2.551   0.000  0.00  0.00    +0.010 S 
ATOM     15  C   UNL     1      -5.074   2.722   0.000  0.00  0.00    +0.182 C 
ATOM     16  O   UNL     1      -4.439   1.744   0.000  0.00  0.00    -0.169 OA
ATOM     17  O   UNL     1      -4.096   3.358   0.000  0.00  0.00    -0.169 OA
ENDBRANCH  11  14
ENDBRANCH   7   8
ENDBRANCH   6   7
BRANCH  23  24
ATOM     24  C   UNL     1       1.964  -0.976   0.000  0.00  0.00    +0.027 C 
BRANCH  24  25
ATOM     25  C   UNL     1       1.662  -1.744   0.000  0.00  0.00    +0.087 C 
BRANCH  25  26
ATOM     26  C   UNL     1       2.177  -2.389   0.000  0.00  0.00    +0.226 C 
ATOM     27  O   UNL     1       2.993  -2.266   0.000  0.00  0.00    -0.275 OA
ATOM     28  N   UNL     1       1.875  -3.157   0.000  0.00  0.00    -0.279 N 
ATOM     29  C   UNL     1       2.390  -3.802   0.000  0.00  0.00    +0.096 C 
ATOM     30  C   UNL     1       2.088  -4.570   0.000  0.00  0.00    +0.054 C 
ATOM     31  C   UNL     1       1.272  -4.693   0.000  0.00  0.00    +0.155 C 
ATOM     32  O   UNL     1       0.971  -5.461   0.000  0.00  0.00    -0.223 OA
ATOM     33  C   UNL     1       0.758  -4.048   0.000  0.00  0.00    +0.054 C 
ATOM     34  C   UNL     1       1.060  -3.280   0.000  0.00  0.00    +0.096 C 
ENDBRANCH  25  26
ENDBRANCH  24  25
ENDBRANCH  23  24
TORSDOF 6
