REMARK  Name = 
REMARK  8 active torsions:
REMARK  status: ('A' for Active; 'I' for Inactive)
REMARK    1  A    between atoms: C_8  and  N_9
REMARK    2  A    between atoms: C_10  and  C_12
REMARK    3  A    between atoms: C_15  and  O_16
REMARK    4  A    between atoms: O_16  and  C_17
REMARK    5  A    between atoms: C_17  and  C_18
REMARK    6  A    between atoms: C_18  and  N_19
REMARK    7  A    between atoms: N_29  and  C_30
REMARK    8  A    between atoms: C_32  and  C_36
REMARK                            x       y       z     vdW  Elec       q    Type
REMARK                         _______ _______ _______ _____ _____    ______ ____
ROOT
ATOM      1  O   UNL     1       2.017  -0.303   0.000  0.00  0.00    -0.221 OA
ATOM      2  C   UNL     1       2.662   0.212   0.000  0.00  0.00    +0.174 C 
ATOM      3  C   UNL     1       2.479   1.016   0.000  0.00  0.00    +0.037 C 
ATOM      4  C   UNL     1       2.993   1.661   0.000  0.00  0.00    +0.024 C 
ATOM      5  C   UNL     1       3.818   1.661   0.000  0.00  0.00    +0.095 C 
ATOM      6  N   UNL     1       4.332   1.016   0.000  0.00  0.00    -0.261 N 
ATOM      7  C   UNL     1       4.149   0.212   0.000  0.00  0.00    +0.119 C 
ATOM      8  C   UNL     1       3.405  -0.146   0.000  0.00  0.00    +0.146 C 
ATOM     27  C   UNL     1       5.137   1.200   0.000  0.00  0.00    +0.328 C 
ATOM     28  O   UNL     1       5.698   0.595   0.000  0.00  0.00    -0.250 OA
ATOM     29  N   UNL     1       5.380   1.988   0.000  0.00  0.00    -0.162 NA
ENDROOT
BRANCH  29  30
ATOM     30  C   UNL     1       6.184   2.171   0.000  0.00  0.00    +0.075 A 
ATOM     31  C   UNL     1       6.427   2.960   0.000  0.00  0.00    +0.021 A 
ATOM     32  C   UNL     1       7.232   3.143   0.000  0.00  0.00    +0.073 A 
ATOM     33  C   UNL     1       7.793   2.539   0.000  0.00  0.00    +0.004 A 
ATOM     34  C   UNL     1       7.550   1.750   0.000  0.00  0.00    +0.001 A 
ATOM     35  C   UNL     1       6.745   1.567   0.000  0.00  0.00    +0.017 A 
BRANCH  32  36
ATOM     36  C   UNL     1       7.475   3.932   0.000  0.00  0.00    +0.419 C 
ATOM     37  F   UNL     1       7.718   4.720   0.000  0.00  0.00    -0.166 F 
ATOM     38  F   UNL     1       8.263   3.689   0.000  0.00  0.00    -0.166 F 
ATOM     39  F   UNL     1       6.686   4.175   0.000  0.00  0.00    -0.166 F 
ENDBRANCH  32  36
ENDBRANCH  29  30
BRANCH   8   9
ATOM      9  N   UNL     1       3.405  -0.971   0.000  0.00  0.00    -0.199 NA
ATOM     10  C   UNL     1       2.691  -1.384   0.000  0.00  0.00    +0.265 C 
ATOM     11  O   UNL     1       1.977  -0.971   0.000  0.00  0.00    -0.268 OA
BRANCH  10  12
ATOM     12  C   UNL     1       2.691  -2.209   0.000  0.00  0.00    +0.055 A 
ATOM     13  C   UNL     1       3.405  -2.621   0.000  0.00  0.00    +0.008 A 
ATOM     14  C   UNL     1       3.405  -3.446   0.000  0.00  0.00    +0.037 A 
ATOM     15  C   UNL     1       2.691  -3.859   0.000  0.00  0.00    +0.139 A 
ATOM     25  C   UNL     1       1.977  -3.446   0.000  0.00  0.00    +0.037 A 
ATOM     26  C   UNL     1       1.977  -2.621   0.000  0.00  0.00    +0.008 A 
BRANCH  15  16
ATOM     16  O   UNL     1       2.691  -4.684   0.000  0.00  0.00    -0.474 OA
BRANCH  16  17
ATOM     17  C   UNL     1       1.977  -5.096   0.000  0.00  0.00    +0.223 C 
BRANCH  17  18
ATOM     18  C   UNL     1       1.977  -5.921   0.000  0.00  0.00    +0.120 C 
BRANCH  18  19
ATOM     19  N   UNL     1       1.262  -6.334   0.000  0.00  0.00    -0.265 NA
ATOM     20  C   UNL     1       1.262  -7.159   0.000  0.00  0.00    +0.105 C 
ATOM     21  C   UNL     1       0.548  -7.571   0.000  0.00  0.00    +0.159 C 
ATOM     22  O   UNL     1      -0.167  -7.159   0.000  0.00  0.00    -0.351 OA
ATOM     23  C   UNL     1      -0.167  -6.334   0.000  0.00  0.00    +0.159 C 
ATOM     24  C   UNL     1       0.548  -5.921   0.000  0.00  0.00    +0.105 C 
ENDBRANCH  18  19
ENDBRANCH  17  18
ENDBRANCH  16  17
ENDBRANCH  15  16
ENDBRANCH  10  12
ENDBRANCH   8   9
TORSDOF 8
