REMARK  Name = 
REMARK  6 active torsions:
REMARK  status: ('A' for Active; 'I' for Inactive)
REMARK    1  A    between atoms: C_2  and  N_3
REMARK    2  A    between atoms: N_3  and  C_4
REMARK    3  A    between atoms: C_6  and  C_8
REMARK    4  A    between atoms: C_8  and  C_9
REMARK    5  A    between atoms: C_14  and  C_16
REMARK    6  A    between atoms: C_27  and  C_29
REMARK                            x       y       z     vdW  Elec       q    Type
REMARK                         _______ _______ _______ _____ _____    ______ ____
ROOT
ATOM      9  C   UNL     1       2.143   1.238   0.000  0.00  0.00    +0.050 C 
ATOM     10  C   UNL     1       2.858   0.825   0.000  0.00  0.00    +0.063 A 
ATOM     11  C   UNL     1       2.858   0.000   0.000  0.00  0.00    +0.023 A 
ATOM     12  C   UNL     1       2.143  -0.412   0.000  0.00  0.00    +0.034 C 
ATOM     13  C   UNL     1       1.429   0.000   0.000  0.00  0.00    +0.010 C 
ATOM     14  C   UNL     1       0.715  -0.412   0.000  0.00  0.00    +0.059 C 
ATOM     15  C   UNL     1       1.245  -1.044   0.000  0.00  0.00    +0.005 C 
ATOM     18  C   UNL     1       0.000   0.000   0.000  0.00  0.00    +0.154 C 
ATOM     19  O   UNL     1      -0.715  -0.412   0.000  0.00  0.00    -0.223 OA
ATOM     20  C   UNL     1       0.000   0.825   0.000  0.00  0.00    +0.033 C 
ATOM     21  C   UNL     1       0.715   1.238   0.000  0.00  0.00    +0.003 C 
ATOM     22  C   UNL     1       1.429   0.825   0.000  0.00  0.00    +0.006 C 
ATOM     23  C   UNL     1       1.429   1.650   0.000  0.00  0.00    +0.000 C 
ATOM     24  S   UNL     1       3.643  -0.255   0.000  0.00  0.00    -0.054 S 
ATOM     25  C   UNL     1       4.127   0.412   0.000  0.00  0.00    +0.186 A 
ATOM     26  N   UNL     1       4.952   0.412   0.000  0.00  0.00    -0.148 NA
ATOM     27  C   UNL     1       5.365   1.127   0.000  0.00  0.00    +0.305 C 
ATOM     28  O   UNL     1       4.952   1.841   0.000  0.00  0.00    -0.265 OA
ATOM     34  N   UNL     1       3.643   1.080   0.000  0.00  0.00    -0.227 NA
ENDROOT
BRANCH  27  29
ATOM     29  C   UNL     1       6.190   1.127   0.000  0.00  0.00    +0.201 A 
ATOM     30  C   UNL     1       6.675   1.794   0.000  0.00  0.00    +0.046 A 
ATOM     31  C   UNL     1       7.460   1.540   0.000  0.00  0.00    +0.044 A 
ATOM     32  C   UNL     1       7.460   0.715   0.000  0.00  0.00    +0.180 A 
ATOM     33  O   UNL     1       6.675   0.460   0.000  0.00  0.00    -0.446 OA
ENDBRANCH  27  29
BRANCH  14  16
ATOM     16  C   UNL     1       0.184  -1.044   0.000  0.00  0.00    +0.184 C 
ATOM     17  O   UNL     1      -0.628  -0.901   0.000  0.00  0.00    -0.220 OA
ENDBRANCH  14  16
BRANCH   9   8
ATOM      8  C   UNL     1       2.143   2.062   0.000  0.00  0.00    +0.091 C 
BRANCH   8   6
ATOM      3  N   UNL     1       1.429   3.300   0.000  0.00  0.00    -0.280 N 
ATOM      6  C   UNL     1       1.429   2.475   0.000  0.00  0.00    +0.226 C 
ATOM      7  O   UNL     1       0.715   2.062   0.000  0.00  0.00    -0.275 OA
BRANCH   3   2
ATOM      1  C   UNL     1       0.715   4.537   0.000  0.00  0.00    +0.023 C 
ATOM      2  C   UNL     1       0.715   3.712   0.000  0.00  0.00    +0.093 C 
ENDBRANCH   3   2
BRANCH   3   4
ATOM      4  C   UNL     1       2.143   3.712   0.000  0.00  0.00    +0.093 C 
ATOM      5  C   UNL     1       2.858   3.300   0.000  0.00  0.00    +0.023 C 
ENDBRANCH   3   4
ENDBRANCH   8   6
ENDBRANCH   9   8
TORSDOF 6
