REMARK  Name = 
REMARK  7 active torsions:
REMARK  status: ('A' for Active; 'I' for Inactive)
REMARK    1  A    between atoms: C_2  and  C_3
REMARK    2  A    between atoms: C_3  and  N_4
REMARK    3  A    between atoms: C_5  and  C_7
REMARK    4  A    between atoms: C_7  and  C_8
REMARK    5  A    between atoms: C_13  and  C_14
REMARK    6  A    between atoms: N_18  and  C_19
REMARK    7  A    between atoms: C_21  and  C_25
REMARK                            x       y       z     vdW  Elec       q    Type
REMARK                         _______ _______ _______ _____ _____    ______ ____
ROOT
ATOM      8  C   UNL     1       1.429  -4.125   0.000  0.00  0.00    +0.012 C 
ATOM      9  C   UNL     1       0.715  -3.712   0.000  0.00  0.00    +0.022 C 
ATOM     10  C   UNL     1       0.715  -2.888   0.000  0.00  0.00    +0.095 C 
ATOM     11  N   UNL     1       1.429  -2.475   0.000  0.00  0.00    -0.263 N 
ATOM     12  C   UNL     1       2.143  -2.888   0.000  0.00  0.00    +0.095 C 
ATOM     13  C   UNL     1       2.143  -3.712   0.000  0.00  0.00    +0.020 C 
ATOM     16  C   UNL     1       1.429  -1.650   0.000  0.00  0.00    +0.327 C 
ATOM     17  O   UNL     1       2.143  -1.238   0.000  0.00  0.00    -0.250 OA
ATOM     18  N   UNL     1       0.715  -1.238   0.000  0.00  0.00    -0.162 NA
ENDROOT
BRANCH  18  19
ATOM     19  C   UNL     1       0.715  -0.412   0.000  0.00  0.00    +0.075 A 
ATOM     20  C   UNL     1       0.000   0.000   0.000  0.00  0.00    +0.021 A 
ATOM     21  C   UNL     1       0.000   0.825   0.000  0.00  0.00    +0.073 A 
ATOM     22  C   UNL     1       0.715   1.238   0.000  0.00  0.00    +0.004 A 
ATOM     23  C   UNL     1       1.429   0.825   0.000  0.00  0.00    +0.001 A 
ATOM     24  C   UNL     1       1.429   0.000   0.000  0.00  0.00    +0.017 A 
BRANCH  21  25
ATOM     25  C   UNL     1      -0.715   1.238   0.000  0.00  0.00    +0.419 C 
ATOM     26  F   UNL     1      -1.429   1.650   0.000  0.00  0.00    -0.166 F 
ATOM     27  F   UNL     1      -0.302   1.952   0.000  0.00  0.00    -0.166 F 
ATOM     28  F   UNL     1      -1.127   0.523   0.000  0.00  0.00    -0.166 F 
ENDBRANCH  21  25
ENDBRANCH  18  19
BRANCH  13  14
ATOM     14  C   UNL     1       2.858  -4.125   0.000  0.00  0.00    +0.002 C 
ATOM     15  C   UNL     1       2.858  -4.950   0.000  0.00  0.00    +0.000 C 
ENDBRANCH  13  14
BRANCH   8   7
ATOM      7  C   UNL     1       1.429  -4.950   0.000  0.00  0.00    +0.087 C 
BRANCH   7   5
ATOM      4  N   UNL     1       0.000  -4.950   0.000  0.00  0.00    -0.205 NA
ATOM      5  C   UNL     1       0.715  -5.362   0.000  0.00  0.00    +0.241 C 
ATOM      6  O   UNL     1       0.715  -6.188   0.000  0.00  0.00    -0.273 OA
BRANCH   4   3
ATOM      3  C   UNL     1      -0.715  -5.362   0.000  0.00  0.00    +0.115 C 
BRANCH   3   2
ATOM      1  C   UNL     1      -2.143  -5.362   0.000  0.00  0.00    +0.002 C 
ATOM      2  C   UNL     1      -1.429  -4.950   0.000  0.00  0.00    +0.023 C 
ENDBRANCH   3   2
ENDBRANCH   4   3
ENDBRANCH   7   5
ENDBRANCH   8   7
TORSDOF 7
