REMARK  Name = 
REMARK  5 active torsions:
REMARK  status: ('A' for Active; 'I' for Inactive)
REMARK    1  A    between atoms: C_5  and  C_6
REMARK    2  A    between atoms: C_6  and  N_7
REMARK    3  A    between atoms: C_12  and  C_13
REMARK    4  A    between atoms: C_15  and  C_16
REMARK    5  A    between atoms: C_16  and  C_17
REMARK                            x       y       z     vdW  Elec       q    Type
REMARK                         _______ _______ _______ _____ _____    ______ ____
ROOT
ATOM      7  N   UNL     1       2.070   1.110   0.000  0.00  0.00    -0.257 NA
ATOM      8  C   UNL     1       1.356   0.698   0.000  0.00  0.00    +0.121 C 
ATOM      9  C   UNL     1       0.641   1.110   0.000  0.00  0.00    +0.090 A 
ATOM     10  C   UNL     1       0.641   1.935   0.000  0.00  0.00    +0.077 A 
ATOM     11  C   UNL     1       1.356   2.348   0.000  0.00  0.00    +0.073 C 
ATOM     12  C   UNL     1       2.070   1.935   0.000  0.00  0.00    +0.144 C 
ATOM     25  N   UNL     1      -0.143   2.190   0.000  0.00  0.00    -0.227 NA
ATOM     26  C   UNL     1      -0.628   1.523   0.000  0.00  0.00    +0.198 A 
ATOM     27  N   UNL     1      -0.143   0.856   0.000  0.00  0.00    -0.226 NA
ENDROOT
BRANCH  12  13
ATOM     13  C   UNL     1       2.784   2.348   0.000  0.00  0.00    +0.251 A 
ATOM     14  N   UNL     1       2.871   3.168   0.000  0.00  0.00    -0.193 NA
ATOM     15  C   UNL     1       3.678   3.340   0.000  0.00  0.00    +0.185 A 
ATOM     23  N   UNL     1       4.090   2.626   0.000  0.00  0.00    -0.060 NA
ATOM     24  O   UNL     1       3.538   2.012   0.000  0.00  0.00    -0.336 OA
BRANCH  15  16
ATOM     16  C   UNL     1       4.013   4.094   0.000  0.00  0.00    +0.095 C 
BRANCH  16  17
ATOM     17  C   UNL     1       4.834   4.180   0.000  0.00  0.00    -0.014 A 
ATOM     18  C   UNL     1       5.169   4.934   0.000  0.00  0.00    -0.004 A 
ATOM     19  C   UNL     1       5.990   5.020   0.000  0.00  0.00    -0.000 A 
ATOM     20  C   UNL     1       6.475   4.352   0.000  0.00  0.00    -0.000 A 
ATOM     21  C   UNL     1       6.139   3.599   0.000  0.00  0.00    -0.000 A 
ATOM     22  C   UNL     1       5.319   3.512   0.000  0.00  0.00    -0.004 A 
ENDBRANCH  16  17
ENDBRANCH  15  16
ENDBRANCH  12  13
BRANCH   7   6
ATOM      6  C   UNL     1       2.784   0.698   0.000  0.00  0.00    +0.100 C 
BRANCH   6   5
ATOM      1  F   UNL     1       2.784  -2.602   0.000  0.00  0.00    -0.204 F 
ATOM      2  C   UNL     1       2.784  -1.777   0.000  0.00  0.00    +0.140 A 
ATOM      3  C   UNL     1       2.070  -1.365   0.000  0.00  0.00    +0.029 A 
ATOM      4  C   UNL     1       2.070  -0.540   0.000  0.00  0.00    -0.001 A 
ATOM      5  C   UNL     1       2.784  -0.127   0.000  0.00  0.00    -0.006 A 
ATOM     28  C   UNL     1       3.499  -0.540   0.000  0.00  0.00    -0.001 A 
ATOM     29  C   UNL     1       3.499  -1.365   0.000  0.00  0.00    +0.029 A 
ENDBRANCH   6   5
ENDBRANCH   7   6
TORSDOF 5
