REMARK  Name = 
REMARK  2 active torsions:
REMARK  status: ('A' for Active; 'I' for Inactive)
REMARK    1  A    between atoms: C_2  and  C_19
REMARK    2  A    between atoms: N_10  and  C_13
REMARK                            x       y       z     vdW  Elec       q    Type
REMARK                         _______ _______ _______ _____ _____    ______ ____
ROOT
ATOM      1  O   UNL     1      -0.584  -1.412   0.000  0.00  0.00    -0.266 OA
ATOM      2  C   UNL     1      -0.171  -0.698   0.000  0.00  0.00    +0.287 C 
ATOM      3  N   UNL     1       0.654  -0.698   0.000  0.00  0.00    -0.269 N 
ATOM      4  C   UNL     1       1.139  -0.030   0.000  0.00  0.00    +0.125 C 
ATOM      5  C   UNL     1       1.923  -0.285   0.000  0.00  0.00    +0.156 C 
ATOM      6  O   UNL     1       2.638   0.127   0.000  0.00  0.00    -0.343 OA
ATOM      7  C   UNL     1       3.352  -0.285   0.000  0.00  0.00    +0.227 C 
ATOM      8  C   UNL     1       3.352  -1.110   0.000  0.00  0.00    +0.260 C 
ATOM      9  O   UNL     1       4.067  -1.523   0.000  0.00  0.00    -0.272 OA
ATOM     10  N   UNL     1       2.638  -1.523   0.000  0.00  0.00    -0.254 N 
ATOM     11  C   UNL     1       1.923  -1.110   0.000  0.00  0.00    +0.128 C 
ATOM     12  C   UNL     1       1.139  -1.365   0.000  0.00  0.00    +0.117 C 
ENDROOT
BRANCH  10  13
ATOM     13  C   UNL     1       2.638  -2.348   0.000  0.00  0.00    +0.054 A 
ATOM     14  C   UNL     1       3.352  -2.760   0.000  0.00  0.00    +0.015 A 
ATOM     15  C   UNL     1       3.352  -3.585   0.000  0.00  0.00    +0.001 A 
ATOM     16  C   UNL     1       2.638  -3.998   0.000  0.00  0.00    +0.000 A 
ATOM     17  C   UNL     1       1.923  -3.585   0.000  0.00  0.00    +0.001 A 
ATOM     18  C   UNL     1       1.923  -2.760   0.000  0.00  0.00    +0.015 A 
ENDBRANCH  10  13
BRANCH   2  19
ATOM     19  C   UNL     1      -0.584   0.017   0.000  0.00  0.00    +0.230 A 
ATOM     20  C   UNL     1      -1.404   0.103   0.000  0.00  0.00    +0.069 A 
ATOM     21  C   UNL     1      -1.576   0.910   0.000  0.00  0.00    +0.144 A 
ATOM     22  N   UNL     1      -0.861   1.322   0.000  0.00  0.00    -0.075 NA
ATOM     23  O   UNL     1      -0.248   0.770   0.000  0.00  0.00    -0.349 OA
ENDBRANCH   2  19
TORSDOF 2
