REMARK  Name = 
REMARK  7 active torsions:
REMARK  status: ('A' for Active; 'I' for Inactive)
REMARK    1  A    between atoms: C_2  and  C_3
REMARK    2  A    between atoms: C_2  and  C_24
REMARK    3  A    between atoms: C_10  and  N_11
REMARK    4  A    between atoms: C_12  and  C_14
REMARK    5  A    between atoms: C_14  and  C_15
REMARK    6  A    between atoms: N_26  and  C_27
REMARK    7  A    between atoms: C_27  and  C_28
REMARK                            x       y       z     vdW  Elec       q    Type
REMARK                         _______ _______ _______ _____ _____    ______ ____
ROOT
ATOM      3  C   UNL     1       2.143  -1.238   0.000  0.00  0.00    +0.039 C 
ATOM      4  C   UNL     1       1.429  -1.650   0.000  0.00  0.00    +0.003 C 
ATOM      5  C   UNL     1       0.715  -1.238   0.000  0.00  0.00    +0.000 C 
ATOM      6  C   UNL     1       0.715  -0.412   0.000  0.00  0.00    +0.002 C 
ATOM      7  C   UNL     1       0.000  -0.825   0.000  0.00  0.00    +0.000 C 
ATOM      8  C   UNL     1       0.000   0.000   0.000  0.00  0.00    +0.002 C 
ATOM      9  C   UNL     1       0.000   0.825   0.000  0.00  0.00    +0.022 C 
ATOM     10  C   UNL     1       0.715   1.238   0.000  0.00  0.00    +0.095 C 
ATOM     19  C   UNL     1       1.429   0.825   0.000  0.00  0.00    +0.022 C 
ATOM     20  C   UNL     1       2.143   1.238   0.000  0.00  0.00    +0.002 C 
ATOM     21  C   UNL     1       1.429   0.000   0.000  0.00  0.00    +0.032 C 
ATOM     22  C   UNL     1       2.143  -0.412   0.000  0.00  0.00    +0.152 C 
ATOM     23  O   UNL     1       2.858   0.000   0.000  0.00  0.00    -0.223 OA
ENDROOT
BRANCH  10  11
ATOM     11  N   UNL     1       0.715   2.062   0.000  0.00  0.00    -0.207 NA
ATOM     12  C   UNL     1       0.000   2.475   0.000  0.00  0.00    +0.241 C 
ATOM     13  O   UNL     1      -0.715   2.062   0.000  0.00  0.00    -0.273 OA
BRANCH  12  14
ATOM     14  C   UNL     1       0.000   3.300   0.000  0.00  0.00    +0.087 C 
BRANCH  14  15
ATOM     15  C   UNL     1      -0.715   3.712   0.000  0.00  0.00    +0.009 C 
ATOM     16  C   UNL     1      -1.429   4.125   0.000  0.00  0.00    +0.000 C 
ATOM     17  C   UNL     1      -1.127   2.998   0.000  0.00  0.00    +0.000 C 
ATOM     18  C   UNL     1      -0.302   4.427   0.000  0.00  0.00    +0.000 C 
ENDBRANCH  14  15
ENDBRANCH  12  14
ENDBRANCH  10  11
BRANCH   3   2
ATOM      1  C   UNL     1       2.858  -2.475   0.000  0.00  0.00    +0.010 C 
ATOM      2  C   UNL     1       2.858  -1.650   0.000  0.00  0.00    +0.081 C 
BRANCH   2  24
ATOM     24  C   UNL     1       3.572  -1.238   0.000  0.00  0.00    +0.241 C 
ATOM     25  O   UNL     1       3.572  -0.412   0.000  0.00  0.00    -0.273 OA
ATOM     26  N   UNL     1       4.287  -1.650   0.000  0.00  0.00    -0.201 NA
BRANCH  26  27
ATOM     27  C   UNL     1       5.001  -1.238   0.000  0.00  0.00    +0.141 C 
BRANCH  27  28
ATOM     28  C   UNL     1       5.716  -1.650   0.000  0.00  0.00    -0.001 A 
ATOM     29  C   UNL     1       6.430  -1.238   0.000  0.00  0.00    -0.003 A 
ATOM     30  C   UNL     1       7.145  -1.650   0.000  0.00  0.00    -0.000 A 
ATOM     31  C   UNL     1       7.145  -2.475   0.000  0.00  0.00    -0.000 A 
ATOM     32  C   UNL     1       6.430  -2.888   0.000  0.00  0.00    -0.000 A 
ATOM     33  C   UNL     1       5.716  -2.475   0.000  0.00  0.00    -0.003 A 
ENDBRANCH  27  28
ENDBRANCH  26  27
ENDBRANCH   2  24
ENDBRANCH   3   2
TORSDOF 7
