REMARK  Name = 
REMARK  7 active torsions:
REMARK  status: ('A' for Active; 'I' for Inactive)
REMARK    1  A    between atoms: C_2  and  N_3
REMARK    2  A    between atoms: N_6  and  C_7
REMARK    3  A    between atoms: C_7  and  C_8
REMARK    4  A    between atoms: C_12  and  C_13
REMARK    5  A    between atoms: C_13  and  C_14
REMARK    6  A    between atoms: C_17  and  C_19
REMARK    7  A    between atoms: C_26  and  C_27
REMARK                            x       y       z     vdW  Elec       q    Type
REMARK                         _______ _______ _______ _____ _____    ______ ____
ROOT
ATOM      8  C   UNL     1       4.141  -9.444   0.000  0.00  0.00    +0.043 C 
ATOM      9  C   UNL     1       4.855  -9.031   0.000  0.00  0.00    -0.033 C 
ATOM     10  C   UNL     1       5.570  -9.444   0.000  0.00  0.00    -0.048 C 
ATOM     11  C   UNL     1       6.284  -9.031   0.000  0.00  0.00    +0.026 C 
ATOM     12  C   UNL     1       5.570 -10.269   0.000  0.00  0.00    +0.027 C 
ATOM     25  C   UNL     1       4.855 -10.681   0.000  0.00  0.00    +0.005 C 
ATOM     26  C   UNL     1       4.141 -10.269   0.000  0.00  0.00    +0.006 C 
ENDROOT
BRANCH  26  27
ATOM     27  C   UNL     1       3.426 -10.681   0.000  0.00  0.00    +0.000 C 
ATOM     28  C   UNL     1       2.712 -10.269   0.000  0.00  0.00    +0.000 C 
ATOM     29  C   UNL     1       3.426 -11.506   0.000  0.00  0.00    +0.000 C 
ENDBRANCH  26  27
BRANCH   8   7
ATOM      7  C   UNL     1       3.426  -9.031   0.000  0.00  0.00    +0.121 C 
BRANCH   7   6
ATOM      3  N   UNL     1       1.283  -9.444   0.000  0.00  0.00    -0.187 NA
ATOM      4  C   UNL     1       1.997  -9.031   0.000  0.00  0.00    +0.339 C 
ATOM      5  O   UNL     1       1.997  -8.206   0.000  0.00  0.00    -0.249 OA
ATOM      6  N   UNL     1       2.712  -9.444   0.000  0.00  0.00    -0.187 NA
BRANCH   3   2
ATOM      1  C   UNL     1      -0.146  -9.444   0.000  0.00  0.00    +0.025 C 
ATOM      2  C   UNL     1       0.568  -9.031   0.000  0.00  0.00    +0.117 C 
ENDBRANCH   3   2
ENDBRANCH   7   6
ENDBRANCH   8   7
BRANCH  12  13
ATOM     13  C   UNL     1       6.284 -10.681   0.000  0.00  0.00    +0.091 C 
BRANCH  13  14
ATOM     14  C   UNL     1       6.999 -10.269   0.000  0.00  0.00    +0.227 A 
ATOM     15  N   UNL     1       7.085  -9.448   0.000  0.00  0.00    -0.111 NA
ATOM     16  N   UNL     1       7.892  -9.277   0.000  0.00  0.00    -0.107 NA
ATOM     17  C   UNL     1       8.304  -9.991   0.000  0.00  0.00    +0.250 A 
ATOM     18  O   UNL     1       7.752 -10.604   0.000  0.00  0.00    -0.420 OA
BRANCH  17  19
ATOM     19  C   UNL     1       9.125 -10.078   0.000  0.00  0.00    +0.058 A 
ATOM     20  C   UNL     1       9.610  -9.410   0.000  0.00  0.00    +0.025 A 
ATOM     21  C   UNL     1      10.430  -9.496   0.000  0.00  0.00    +0.099 A 
ATOM     22  N   UNL     1      10.766 -10.250   0.000  0.00  0.00    -0.242 NA
ATOM     23  C   UNL     1      10.281 -10.918   0.000  0.00  0.00    +0.099 A 
ATOM     24  C   UNL     1       9.460 -10.831   0.000  0.00  0.00    +0.025 A 
ENDBRANCH  17  19
ENDBRANCH  13  14
ENDBRANCH  12  13
TORSDOF 7
