REMARK  Name = 
REMARK  5 active torsions:
REMARK  status: ('A' for Active; 'I' for Inactive)
REMARK    1  A    between atoms: C_2  and  C_4
REMARK    2  A    between atoms: C_7  and  C_8
REMARK    3  A    between atoms: C_8  and  N_9
REMARK    4  A    between atoms: C_14  and  C_15
REMARK    5  A    between atoms: C_17  and  C_20
REMARK                            x       y       z     vdW  Elec       q    Type
REMARK                         _______ _______ _______ _____ _____    ______ ____
ROOT
ATOM      9  N   UNL     1      -2.611  -2.509   0.000  0.00  0.00    -0.257 NA
ATOM     10  C   UNL     1      -3.432  -2.422   0.000  0.00  0.00    +0.121 C 
ATOM     11  C   UNL     1      -3.767  -1.669   0.000  0.00  0.00    +0.090 A 
ATOM     12  C   UNL     1      -3.282  -1.001   0.000  0.00  0.00    +0.077 A 
ATOM     13  C   UNL     1      -2.462  -1.088   0.000  0.00  0.00    +0.073 C 
ATOM     14  C   UNL     1      -2.126  -1.841   0.000  0.00  0.00    +0.144 C 
ATOM     30  N   UNL     1      -3.767  -0.334   0.000  0.00  0.00    -0.227 NA
ATOM     31  C   UNL     1      -4.552  -0.589   0.000  0.00  0.00    +0.198 A 
ATOM     32  N   UNL     1      -4.552  -1.414   0.000  0.00  0.00    -0.226 NA
ENDROOT
BRANCH  14  15
ATOM     15  C   UNL     1      -1.306  -1.927   0.000  0.00  0.00    +0.251 A 
ATOM     16  N   UNL     1      -0.754  -1.314   0.000  0.00  0.00    -0.190 NA
ATOM     17  C   UNL     1       0.000  -1.650   0.000  0.00  0.00    +0.203 A 
ATOM     18  N   UNL     1      -0.086  -2.470   0.000  0.00  0.00    -0.056 NA
ATOM     19  O   UNL     1      -0.893  -2.642   0.000  0.00  0.00    -0.336 OA
BRANCH  17  20
ATOM     20  C   UNL     1       0.715  -1.238   0.000  0.00  0.00    +0.039 A 
ATOM     21  C   UNL     1       0.715  -0.412   0.000  0.00  0.00    +0.003 A 
ATOM     22  C   UNL     1       1.429   0.000   0.000  0.00  0.00    +0.000 A 
ATOM     23  C   UNL     1       2.143  -0.412   0.000  0.00  0.00    +0.000 A 
ATOM     24  C   UNL     1       2.858   0.000   0.000  0.00  0.00    +0.000 A 
ATOM     25  C   UNL     1       3.572  -0.412   0.000  0.00  0.00    +0.000 A 
ATOM     26  C   UNL     1       3.572  -1.238   0.000  0.00  0.00    +0.000 A 
ATOM     27  C   UNL     1       2.858  -1.650   0.000  0.00  0.00    +0.000 A 
ATOM     28  C   UNL     1       2.143  -1.238   0.000  0.00  0.00    +0.000 A 
ATOM     29  C   UNL     1       1.429  -1.650   0.000  0.00  0.00    +0.003 A 
ENDBRANCH  17  20
ENDBRANCH  14  15
BRANCH   9   8
ATOM      8  C   UNL     1      -2.276  -3.262   0.000  0.00  0.00    +0.100 C 
BRANCH   8   7
ATOM      4  C   UNL     1      -3.730  -5.265   0.000  0.00  0.00    +0.080 A 
ATOM      5  C   UNL     1      -4.066  -4.511   0.000  0.00  0.00    +0.006 A 
ATOM      6  C   UNL     1      -3.581  -3.844   0.000  0.00  0.00    -0.003 A 
ATOM      7  C   UNL     1      -2.760  -3.930   0.000  0.00  0.00    -0.006 A 
ATOM     33  C   UNL     1      -2.425  -4.684   0.000  0.00  0.00    -0.003 A 
ATOM     34  C   UNL     1      -2.910  -5.351   0.000  0.00  0.00    +0.006 A 
BRANCH   4   2
ATOM      1  O   UNL     1      -3.880  -6.686   0.000  0.00  0.00    -0.241 OA
ATOM      2  C   UNL     1      -4.215  -5.932   0.000  0.00  0.00    +0.388 C 
ATOM      3  O   UNL     1      -5.036  -5.846   0.000  0.00  0.00    -0.241 OA
ENDBRANCH   4   2
ENDBRANCH   8   7
ENDBRANCH   9   8
TORSDOF 5
