REMARK  Name = 
REMARK  7 active torsions:
REMARK  status: ('A' for Active; 'I' for Inactive)
REMARK    1  A    between atoms: O_2  and  C_3
REMARK    2  A    between atoms: C_6  and  S_9
REMARK    3  A    between atoms: S_9  and  N_12
REMARK    4  A    between atoms: N_12  and  C_13
REMARK    5  A    between atoms: C_13  and  C_14
REMARK    6  A    between atoms: C_21  and  C_22
REMARK    7  A    between atoms: C_22  and  N_23
REMARK                            x       y       z     vdW  Elec       q    Type
REMARK                         _______ _______ _______ _____ _____    ______ ____
ROOT
ATOM     14  C   UNL     1       0.465  -5.199   0.000  0.00  0.00    +0.077 C 
ATOM     15  C   UNL     1       1.025  -4.658   0.000  0.00  0.00    +0.018 C 
ATOM     16  C   UNL     1       0.906  -3.857   0.000  0.00  0.00    +0.005 C 
ATOM     17  C   UNL     1       1.681  -3.405   0.000  0.00  0.00    +0.017 C 
ATOM     18  C   UNL     1       1.302  -3.938   0.000  0.00  0.00    +0.072 C 
ATOM     19  N   UNL     1       0.353  -4.381   0.000  0.00  0.00    -0.272 NA
ATOM     20  C   UNL     1      -0.402  -3.868   0.000  0.00  0.00    +0.073 C 
ATOM     21  C   UNL     1       0.176  -3.370   0.000  0.00  0.00    +0.032 C 
ENDROOT
BRANCH  14  13
ATOM     13  C   UNL     1       0.195  -5.978   0.000  0.00  0.00    +0.131 C 
BRANCH  13  12
ATOM     12  N   UNL     1      -0.616  -6.134   0.000  0.00  0.00    -0.076 NA
BRANCH  12   9
ATOM      9  S   UNL     1      -0.886  -6.913   0.000  0.00  0.00    +0.077 S 
ATOM     10  O   UNL     1      -0.106  -7.184   0.000  0.00  0.00    -0.152 OA
ATOM     11  O   UNL     1      -1.665  -6.643   0.000  0.00  0.00    -0.152 OA
BRANCH   9   6
ATOM      3  C   UNL     1      -1.696  -9.252   0.000  0.00  0.00    +0.139 A 
ATOM      4  C   UNL     1      -2.236  -8.628   0.000  0.00  0.00    +0.038 A 
ATOM      5  C   UNL     1      -1.966  -7.849   0.000  0.00  0.00    +0.023 A 
ATOM      6  C   UNL     1      -1.156  -7.693   0.000  0.00  0.00    +0.124 A 
ATOM      7  C   UNL     1      -0.616  -8.317   0.000  0.00  0.00    +0.023 A 
ATOM      8  C   UNL     1      -0.886  -9.096   0.000  0.00  0.00    +0.038 A 
BRANCH   3   2
ATOM      1  C   UNL     1      -1.426 -10.655   0.000  0.00  0.00    +0.252 C 
ATOM      2  O   UNL     1      -1.966 -10.032   0.000  0.00  0.00    -0.471 OA
ENDBRANCH   3   2
ENDBRANCH   9   6
ENDBRANCH  12   9
ENDBRANCH  13  12
ENDBRANCH  14  13
BRANCH  21  22
ATOM     22  C   UNL     1       0.125  -2.547   0.000  0.00  0.00    +0.073 C 
BRANCH  22  23
ATOM     23  N   UNL     1       0.813  -2.091   0.000  0.00  0.00    -0.272 NA
ATOM     24  C   UNL     1       1.629  -1.912   0.000  0.00  0.00    +0.074 C 
ATOM     25  C   UNL     1       1.582  -0.925   0.000  0.00  0.00    +0.039 C 
ATOM     26  C   UNL     1       1.713  -0.121   0.000  0.00  0.00    +0.011 C 
ATOM     27  C   UNL     1       1.163  -0.557   0.000  0.00  0.00    +0.054 C 
ATOM     28  C   UNL     1       1.225  -1.510   0.000  0.00  0.00    +0.078 C 
ATOM     29  C   UNL     1       0.244  -0.558   0.000  0.00  0.00    +0.041 A 
ATOM     30  C   UNL     1      -0.397  -0.039   0.000  0.00  0.00    +0.013 A 
ATOM     31  C   UNL     1      -1.167  -0.335   0.000  0.00  0.00    +0.006 A 
ATOM     32  C   UNL     1      -1.296  -1.150   0.000  0.00  0.00    +0.061 A 
ATOM     33  C   UNL     1      -0.655  -1.669   0.000  0.00  0.00    +0.261 A 
ATOM     34  O   UNL     1      -0.784  -2.484   0.000  0.00  0.00    -0.267 OA
ATOM     35  N   UNL     1       0.115  -1.373   0.000  0.00  0.00    -0.299 N 
ATOM     36  C   UNL     1       0.622  -0.936   0.000  0.00  0.00    +0.110 C 
ENDBRANCH  22  23
ENDBRANCH  21  22
TORSDOF 7
