REMARK  Name = 
REMARK  8 active torsions:
REMARK  status: ('A' for Active; 'I' for Inactive)
REMARK    1  A    between atoms: C_5  and  C_6
REMARK    2  A    between atoms: C_6  and  C_7
REMARK    3  A    between atoms: C_10  and  C_11
REMARK    4  A    between atoms: C_11  and  O_12
REMARK    5  A    between atoms: O_12  and  C_13
REMARK    6  A    between atoms: C_21  and  C_22
REMARK    7  A    between atoms: C_22  and  N_23
REMARK    8  A    between atoms: N_23  and  C_24
REMARK                            x       y       z     vdW  Elec       q    Type
REMARK                         _______ _______ _______ _____ _____    ______ ____
ROOT
ATOM      1  O   UNL     1       2.858  -2.475   0.000  0.00  0.00    -0.220 OA
ATOM      2  C   UNL     1       2.143  -2.888   0.000  0.00  0.00    +0.180 C 
ATOM      3  C   UNL     1       2.143  -3.712   0.000  0.00  0.00    +0.038 C 
ATOM      4  C   UNL     1       1.429  -4.125   0.000  0.00  0.00    +0.033 C 
ATOM      5  C   UNL     1       0.715  -3.712   0.000  0.00  0.00    +0.121 C 
ATOM     20  O   UNL     1       0.715  -2.888   0.000  0.00  0.00    -0.354 OA
ATOM     21  C   UNL     1       1.429  -2.475   0.000  0.00  0.00    +0.163 C 
ENDROOT
BRANCH   5   6
ATOM      6  C   UNL     1       0.000  -4.125   0.000  0.00  0.00    +0.079 C 
BRANCH   6   7
ATOM      7  C   UNL     1       0.000  -4.950   0.000  0.00  0.00    +0.103 A 
ATOM      8  N   UNL     1       0.667  -5.435   0.000  0.00  0.00    -0.082 NA
ATOM      9  O   UNL     1       0.412  -6.220   0.000  0.00  0.00    -0.354 OA
ATOM     10  C   UNL     1      -0.412  -6.220   0.000  0.00  0.00    +0.198 A 
ATOM     19  C   UNL     1      -0.667  -5.435   0.000  0.00  0.00    +0.057 A 
BRANCH  10  11
ATOM     11  C   UNL     1      -0.897  -6.887   0.000  0.00  0.00    +0.272 C 
BRANCH  11  12
ATOM     12  O   UNL     1      -0.562  -7.641   0.000  0.00  0.00    -0.467 OA
BRANCH  12  13
ATOM     13  C   UNL     1      -1.047  -8.308   0.000  0.00  0.00    +0.139 A 
ATOM     14  C   UNL     1      -0.711  -9.062   0.000  0.00  0.00    +0.037 A 
ATOM     15  C   UNL     1      -1.196  -9.729   0.000  0.00  0.00    +0.003 A 
ATOM     16  C   UNL     1      -2.017  -9.643   0.000  0.00  0.00    +0.000 A 
ATOM     17  C   UNL     1      -2.352  -8.889   0.000  0.00  0.00    +0.003 A 
ATOM     18  C   UNL     1      -1.867  -8.222   0.000  0.00  0.00    +0.037 A 
ENDBRANCH  12  13
ENDBRANCH  11  12
ENDBRANCH  10  11
ENDBRANCH   6   7
ENDBRANCH   5   6
BRANCH  21  22
ATOM     22  C   UNL     1       1.429  -1.650   0.000  0.00  0.00    +0.121 C 
BRANCH  22  23
ATOM     23  N   UNL     1       0.715  -1.238   0.000  0.00  0.00    -0.217 NA
BRANCH  23  24
ATOM     24  C   UNL     1       0.715  -0.412   0.000  0.00  0.00    +0.078 C 
ATOM     25  C   UNL     1       0.000   0.000   0.000  0.00  0.00    +0.050 C 
ATOM     26  C   UNL     1       0.000   0.825   0.000  0.00  0.00    +0.144 C 
ATOM     27  O   UNL     1       0.715   1.238   0.000  0.00  0.00    -0.354 OA
ATOM     28  C   UNL     1       1.429   0.825   0.000  0.00  0.00    +0.144 C 
ATOM     29  C   UNL     1       1.429   0.000   0.000  0.00  0.00    +0.050 C 
ENDBRANCH  23  24
ENDBRANCH  22  23
ENDBRANCH  21  22
TORSDOF 8
