REMARK  Name = 
REMARK  8 active torsions:
REMARK  status: ('A' for Active; 'I' for Inactive)
REMARK    1  A    between atoms: O_2  and  C_3
REMARK    2  A    between atoms: C_3  and  C_4
REMARK    3  A    between atoms: C_9  and  C_11
REMARK    4  A    between atoms: C_11  and  C_12
REMARK    5  A    between atoms: C_25  and  N_33
REMARK    6  A    between atoms: N_33  and  C_35
REMARK    7  A    between atoms: C_35  and  C_36
REMARK    8  A    between atoms: C_36  and  C_37
REMARK                            x       y       z     vdW  Elec       q    Type
REMARK                         _______ _______ _______ _____ _____    ______ ____
ROOT
ATOM     12  C   UNL     1       7.934  -0.162   0.000  0.00  0.00    +0.016 C 
ATOM     13  C   UNL     1       8.157   0.632   0.000  0.00  0.00    +0.022 C 
ATOM     14  C   UNL     1       7.580   1.222   0.000  0.00  0.00    +0.093 C 
ATOM     15  N   UNL     1       6.802   1.092   0.000  0.00  0.00    -0.278 N 
ATOM     16  C   UNL     1       6.558   0.223   0.000  0.00  0.00    +0.098 C 
ATOM     17  C   UNL     1       6.893  -0.532   0.000  0.00  0.00    +0.042 C 
ATOM     18  C   UNL     1       6.278  -1.083   0.000  0.00  0.00    -0.026 C 
ATOM     19  C   UNL     1       5.565  -0.668   0.000  0.00  0.00    +0.016 C 
ATOM     20  C   UNL     1       4.674  -0.816   0.000  0.00  0.00    +0.231 C 
ATOM     21  O   UNL     1       4.435  -0.043   0.000  0.00  0.00    -0.471 OA
ATOM     22  C   UNL     1       4.380   0.582   0.000  0.00  0.00    +0.136 A 
ATOM     23  C   UNL     1       4.123  -0.202   0.000  0.00  0.00    +0.038 A 
ATOM     24  C   UNL     1       3.316  -0.372   0.000  0.00  0.00    +0.018 A 
ATOM     25  C   UNL     1       2.765   0.243   0.000  0.00  0.00    +0.048 A 
ATOM     26  C   UNL     1       3.022   1.027   0.000  0.00  0.00    +0.015 A 
ATOM     27  C   UNL     1       3.829   1.197   0.000  0.00  0.00    +0.030 A 
ATOM     28  C   UNL     1       4.085   1.981   0.000  0.00  0.00    +0.119 C 
ATOM     29  N   UNL     1       4.893   2.151   0.000  0.00  0.00    -0.204 NA
ATOM     30  C   UNL     1       5.444   1.536   0.000  0.00  0.00    +0.174 C 
ATOM     31  C   UNL     1       6.251   1.706   0.000  0.00  0.00    +0.243 C 
ATOM     32  O   UNL     1       6.507   2.490   0.000  0.00  0.00    -0.273 OA
ENDROOT
BRANCH  25  33
ATOM     33  N   UNL     1       1.958   0.073   0.000  0.00  0.00    -0.305 N 
ATOM     34  C   UNL     1       1.701  -0.711   0.000  0.00  0.00    +0.112 C 
BRANCH  33  35
ATOM     35  C   UNL     1       1.407   0.687   0.000  0.00  0.00    +0.097 C 
BRANCH  35  36
ATOM     36  C   UNL     1       0.600   0.517   0.000  0.00  0.00    +0.067 C 
BRANCH  36  37
ATOM     37  C   UNL     1       0.049   1.131   0.000  0.00  0.00    +0.061 A 
ATOM     38  N   UNL     1      -0.758   0.961   0.000  0.00  0.00    -0.248 NA
ATOM     39  C   UNL     1      -1.309   1.575   0.000  0.00  0.00    +0.098 A 
ATOM     40  C   UNL     1      -1.053   2.360   0.000  0.00  0.00    +0.021 A 
ATOM     41  C   UNL     1      -0.245   2.530   0.000  0.00  0.00    +0.003 A 
ATOM     42  C   UNL     1       0.305   1.915   0.000  0.00  0.00    +0.015 A 
ENDBRANCH  36  37
ENDBRANCH  35  36
ENDBRANCH  33  35
ENDBRANCH  25  33
BRANCH  12  11
ATOM     11  C   UNL     1       8.537  -0.726   0.000  0.00  0.00    +0.086 C 
BRANCH  11   9
ATOM      4  C   UNL     1      10.739  -0.892   0.000  0.00  0.00    +0.105 C 
ATOM      5  C   UNL     1      11.139  -1.613   0.000  0.00  0.00    +0.024 C 
ATOM      6  C   UNL     1      10.575  -2.216   0.000  0.00  0.00    +0.023 C 
ATOM      7  C   UNL     1       9.828  -1.867   0.000  0.00  0.00    +0.093 C 
ATOM      8  N   UNL     1       9.929  -1.048   0.000  0.00  0.00    -0.279 N 
ATOM      9  C   UNL     1       9.327  -0.485   0.000  0.00  0.00    +0.226 C 
ATOM     10  O   UNL     1       9.513   0.319   0.000  0.00  0.00    -0.275 OA
BRANCH   4   3
ATOM      3  C   UNL     1      11.089  -0.144   0.000  0.00  0.00    +0.162 C 
BRANCH   3   2
ATOM      1  C   UNL     1      12.260   0.674   0.000  0.00  0.00    +0.174 C 
ATOM      2  O   UNL     1      11.911  -0.073   0.000  0.00  0.00    -0.349 OA
ENDBRANCH   3   2
ENDBRANCH   4   3
ENDBRANCH  11   9
ENDBRANCH  12  11
TORSDOF 8
