REMARK  Name = 
REMARK  8 active torsions:
REMARK  status: ('A' for Active; 'I' for Inactive)
REMARK    1  A    between atoms: O_2  and  C_3
REMARK    2  A    between atoms: C_6  and  C_7
REMARK    3  A    between atoms: C_7  and  N_8
REMARK    4  A    between atoms: C_9  and  C_15
REMARK    5  A    between atoms: C_15  and  C_17
REMARK    6  A    between atoms: C_20  and  N_21
REMARK    7  A    between atoms: C_22  and  C_24
REMARK    8  A    between atoms: C_27  and  C_30
REMARK                            x       y       z     vdW  Elec       q    Type
REMARK                         _______ _______ _______ _____ _____    ______ ____
ROOT
ATOM     17  C   UNL     1       1.429 -12.375   0.000  0.00  0.00    +0.010 A 
ATOM     18  C   UNL     1       2.143 -12.787   0.000  0.00  0.00    -0.000 A 
ATOM     19  C   UNL     1       2.143 -13.613   0.000  0.00  0.00    +0.016 A 
ATOM     20  C   UNL     1       1.429 -14.025   0.000  0.00  0.00    +0.074 A 
ATOM     34  C   UNL     1       0.715 -13.613   0.000  0.00  0.00    +0.016 A 
ATOM     35  C   UNL     1       0.715 -12.787   0.000  0.00  0.00    -0.000 A 
ENDROOT
BRANCH  20  21
ATOM     21  N   UNL     1       1.429 -14.850   0.000  0.00  0.00    -0.175 NA
ATOM     22  C   UNL     1       2.143 -15.262   0.000  0.00  0.00    +0.269 C 
ATOM     23  O   UNL     1       2.858 -14.850   0.000  0.00  0.00    -0.268 OA
BRANCH  22  24
ATOM     24  C   UNL     1       2.143 -16.087   0.000  0.00  0.00    +0.055 A 
ATOM     25  C   UNL     1       2.858 -16.500   0.000  0.00  0.00    +0.004 A 
ATOM     26  C   UNL     1       2.858 -17.325   0.000  0.00  0.00    -0.004 A 
ATOM     27  C   UNL     1       2.143 -17.738   0.000  0.00  0.00    -0.023 A 
ATOM     28  C   UNL     1       1.429 -17.325   0.000  0.00  0.00    -0.004 A 
ATOM     29  C   UNL     1       1.429 -16.500   0.000  0.00  0.00    +0.004 A 
BRANCH  27  30
ATOM     30  C   UNL     1       2.143 -18.562   0.000  0.00  0.00    +0.019 C 
ATOM     31  C   UNL     1       2.143 -19.387   0.000  0.00  0.00    +0.004 C 
ATOM     32  C   UNL     1       1.318 -18.562   0.000  0.00  0.00    +0.004 C 
ATOM     33  C   UNL     1       2.968 -18.562   0.000  0.00  0.00    +0.004 C 
ENDBRANCH  27  30
ENDBRANCH  22  24
ENDBRANCH  20  21
BRANCH  17  15
ATOM     15  C   UNL     1       1.429 -11.550   0.000  0.00  0.00    +0.195 C 
ATOM     16  O   UNL     1       2.143 -11.137   0.000  0.00  0.00    -0.216 OA
BRANCH  15   9
ATOM      8  N   UNL     1       0.715 -10.312   0.000  0.00  0.00    -0.270 N 
ATOM      9  C   UNL     1       0.715 -11.137   0.000  0.00  0.00    +0.140 C 
ATOM     10  C   UNL     1       0.000 -11.550   0.000  0.00  0.00    +0.165 C 
ATOM     11  O   UNL     1      -0.715 -11.137   0.000  0.00  0.00    -0.343 OA
ATOM     12  C   UNL     1      -0.715 -10.312   0.000  0.00  0.00    +0.227 C 
ATOM     13  C   UNL     1       0.000  -9.900   0.000  0.00  0.00    +0.256 C 
ATOM     14  O   UNL     1       0.000  -9.075   0.000  0.00  0.00    -0.272 OA
BRANCH   8   7
ATOM      7  C   UNL     1       1.429  -9.900   0.000  0.00  0.00    +0.120 C 
BRANCH   7   6
ATOM      3  C   UNL     1       1.429  -7.425   0.000  0.00  0.00    +0.139 A 
ATOM      4  C   UNL     1       2.143  -7.838   0.000  0.00  0.00    +0.037 A 
ATOM      5  C   UNL     1       2.143  -8.662   0.000  0.00  0.00    +0.001 A 
ATOM      6  C   UNL     1       1.429  -9.075   0.000  0.00  0.00    -0.002 A 
ATOM     36  C   UNL     1       0.715  -8.662   0.000  0.00  0.00    +0.001 A 
ATOM     37  C   UNL     1       0.715  -7.838   0.000  0.00  0.00    +0.037 A 
BRANCH   3   2
ATOM      1  C   UNL     1       0.715  -6.188   0.000  0.00  0.00    +0.252 C 
ATOM      2  O   UNL     1       1.429  -6.600   0.000  0.00  0.00    -0.471 OA
ENDBRANCH   3   2
ENDBRANCH   7   6
ENDBRANCH   8   7
ENDBRANCH  15   9
ENDBRANCH  17  15
TORSDOF 8
