REMARK  Name = 
REMARK  7 active torsions:
REMARK  status: ('A' for Active; 'I' for Inactive)
REMARK    1  A    between atoms: C_2  and  O_5
REMARK    2  A    between atoms: O_5  and  C_6
REMARK    3  A    between atoms: C_9  and  C_12
REMARK    4  A    between atoms: C_15  and  C_17
REMARK    5  A    between atoms: N_22  and  C_23
REMARK    6  A    between atoms: C_23  and  C_24
REMARK    7  A    between atoms: C_28  and  C_30
REMARK                            x       y       z     vdW  Elec       q    Type
REMARK                         _______ _______ _______ _____ _____    ______ ____
ROOT
ATOM     17  C   UNL     1       2.070   1.110   0.000  0.00  0.00    +0.144 C 
ATOM     18  C   UNL     1       1.356   0.698   0.000  0.00  0.00    +0.073 C 
ATOM     19  C   UNL     1       0.641   1.110   0.000  0.00  0.00    +0.077 A 
ATOM     20  C   UNL     1       0.641   1.935   0.000  0.00  0.00    +0.090 A 
ATOM     21  C   UNL     1       1.356   2.348   0.000  0.00  0.00    +0.121 C 
ATOM     22  N   UNL     1       2.070   1.935   0.000  0.00  0.00    -0.257 NA
ATOM     32  N   UNL     1      -0.143   2.190   0.000  0.00  0.00    -0.226 NA
ATOM     33  C   UNL     1      -0.628   1.523   0.000  0.00  0.00    +0.198 A 
ATOM     34  N   UNL     1      -0.143   0.856   0.000  0.00  0.00    -0.227 NA
ENDROOT
BRANCH  17  15
ATOM     12  C   UNL     1       4.090   0.420   0.000  0.00  0.00    +0.203 A 
ATOM     13  N   UNL     1       3.678  -0.294   0.000  0.00  0.00    -0.056 NA
ATOM     14  O   UNL     1       2.871  -0.122   0.000  0.00  0.00    -0.336 OA
ATOM     15  C   UNL     1       2.784   0.698   0.000  0.00  0.00    +0.251 A 
ATOM     16  N   UNL     1       3.538   1.034   0.000  0.00  0.00    -0.190 NA
BRANCH  12   9
ATOM      6  C   UNL     1       6.552   0.679   0.000  0.00  0.00    +0.147 A 
ATOM      7  C   UNL     1       6.216  -0.075   0.000  0.00  0.00    +0.037 A 
ATOM      8  C   UNL     1       5.396  -0.161   0.000  0.00  0.00    +0.006 A 
ATOM      9  C   UNL     1       4.911   0.507   0.000  0.00  0.00    +0.039 A 
ATOM     10  C   UNL     1       5.246   1.260   0.000  0.00  0.00    +0.006 A 
ATOM     11  C   UNL     1       6.067   1.347   0.000  0.00  0.00    +0.037 A 
BRANCH   6   5
ATOM      5  O   UNL     1       7.372   0.765   0.000  0.00  0.00    -0.404 OA
BRANCH   5   2
ATOM      1  F   UNL     1       8.043   2.273   0.000  0.00  0.00    -0.133 F 
ATOM      2  C   UNL     1       7.708   1.519   0.000  0.00  0.00    +0.575 C 
ATOM      3  F   UNL     1       6.954   1.855   0.000  0.00  0.00    -0.133 F 
ATOM      4  F   UNL     1       8.461   1.183   0.000  0.00  0.00    -0.133 F 
ENDBRANCH   5   2
ENDBRANCH   6   5
ENDBRANCH  12   9
ENDBRANCH  17  15
BRANCH  22  23
ATOM     23  C   UNL     1       2.784   2.348   0.000  0.00  0.00    +0.100 C 
BRANCH  23  24
ATOM     24  C   UNL     1       2.784   3.173   0.000  0.00  0.00    -0.005 A 
ATOM     25  C   UNL     1       2.070   3.585   0.000  0.00  0.00    -0.003 A 
ATOM     26  C   UNL     1       2.070   4.410   0.000  0.00  0.00    +0.000 A 
ATOM     27  C   UNL     1       2.784   4.823   0.000  0.00  0.00    +0.010 A 
ATOM     28  C   UNL     1       3.499   4.410   0.000  0.00  0.00    +0.068 A 
ATOM     29  C   UNL     1       3.499   3.585   0.000  0.00  0.00    +0.007 A 
BRANCH  28  30
ATOM     30  C   UNL     1       4.213   4.823   0.000  0.00  0.00    +0.100 C 
ATOM     31  N   UNL     1       4.928   5.235   0.000  0.00  0.00    -0.191 NA
ENDBRANCH  28  30
ENDBRANCH  23  24
ENDBRANCH  22  23
TORSDOF 7
