REMARK  Name = 
REMARK  7 active torsions:
REMARK  status: ('A' for Active; 'I' for Inactive)
REMARK    1  A    between atoms: C_2  and  N_4
REMARK    2  A    between atoms: N_7  and  C_8
REMARK    3  A    between atoms: C_8  and  C_9
REMARK    4  A    between atoms: C_12  and  N_13
REMARK    5  A    between atoms: N_13  and  C_14
REMARK    6  A    between atoms: C_14  and  C_15
REMARK    7  A    between atoms: C_19  and  C_21
REMARK                            x       y       z     vdW  Elec       q    Type
REMARK                         _______ _______ _______ _____ _____    ______ ____
ROOT
ATOM      9  C   UNL     1       4.769  -6.842   0.000  0.00  0.00    +0.169 C 
ATOM     10  O   UNL     1       4.855  -6.021   0.000  0.00  0.00    -0.350 OA
ATOM     11  C   UNL     1       5.662  -5.850   0.000  0.00  0.00    +0.162 C 
ATOM     12  C   UNL     1       6.074  -6.564   0.000  0.00  0.00    +0.135 C 
ATOM     23  C   UNL     1       5.522  -7.177   0.000  0.00  0.00    +0.199 C 
ATOM     24  O   UNL     1       5.694  -7.984   0.000  0.00  0.00    -0.219 OA
ENDROOT
BRANCH   9   8
ATOM      8  C   UNL     1       4.054  -7.254   0.000  0.00  0.00    +0.149 C 
BRANCH   8   7
ATOM      4  N   UNL     1       1.911  -6.842   0.000  0.00  0.00    -0.189 NA
ATOM      5  C   UNL     1       2.625  -7.254   0.000  0.00  0.00    +0.339 C 
ATOM      6  O   UNL     1       2.625  -8.079   0.000  0.00  0.00    -0.249 OA
ATOM      7  N   UNL     1       3.340  -6.842   0.000  0.00  0.00    -0.185 NA
BRANCH   4   2
ATOM      1  C   UNL     1       0.482  -6.842   0.000  0.00  0.00    +0.023 C 
ATOM      2  C   UNL     1       1.196  -7.254   0.000  0.00  0.00    +0.097 C 
ATOM      3  C   UNL     1       1.196  -8.079   0.000  0.00  0.00    +0.023 C 
ENDBRANCH   4   2
ENDBRANCH   8   7
ENDBRANCH   9   8
BRANCH  12  13
ATOM     13  N   UNL     1       6.895  -6.650   0.000  0.00  0.00    -0.209 NA
BRANCH  13  14
ATOM     14  C   UNL     1       7.230  -7.404   0.000  0.00  0.00    +0.115 C 
BRANCH  14  15
ATOM     15  C   UNL     1       8.051  -7.490   0.000  0.00  0.00    -0.004 A 
ATOM     16  C   UNL     1       8.536  -6.823   0.000  0.00  0.00    -0.003 A 
ATOM     17  C   UNL     1       9.356  -6.909   0.000  0.00  0.00    +0.000 A 
ATOM     18  C   UNL     1       9.692  -7.663   0.000  0.00  0.00    +0.010 A 
ATOM     19  C   UNL     1       9.207  -8.330   0.000  0.00  0.00    +0.068 A 
ATOM     20  C   UNL     1       8.386  -8.244   0.000  0.00  0.00    +0.007 A 
BRANCH  19  21
ATOM     21  C   UNL     1       9.542  -9.084   0.000  0.00  0.00    +0.100 C 
ATOM     22  N   UNL     1       9.878  -9.838   0.000  0.00  0.00    -0.191 NA
ENDBRANCH  19  21
ENDBRANCH  14  15
ENDBRANCH  13  14
ENDBRANCH  12  13
TORSDOF 7
