REMARK  Name = 
REMARK  8 active torsions:
REMARK  status: ('A' for Active; 'I' for Inactive)
REMARK    1  A    between atoms: O_2  and  C_3
REMARK    2  A    between atoms: C_3  and  C_4
REMARK    3  A    between atoms: C_6  and  C_7
REMARK    4  A    between atoms: C_7  and  C_8
REMARK    5  A    between atoms: C_13  and  C_14
REMARK    6  A    between atoms: C_14  and  N_15
REMARK    7  A    between atoms: N_18  and  C_19
REMARK    8  A    between atoms: C_24  and  O_25
REMARK                            x       y       z     vdW  Elec       q    Type
REMARK                         _______ _______ _______ _____ _____    ______ ____
ROOT
ATOM      8  C   UNL     1      -3.572  -1.238   0.000  0.00  0.00    +0.121 C 
ATOM      9  C   UNL     1      -3.572  -0.412   0.000  0.00  0.00    +0.033 C 
ATOM     10  C   UNL     1      -2.858   0.000   0.000  0.00  0.00    +0.038 C 
ATOM     11  C   UNL     1      -2.143  -0.412   0.000  0.00  0.00    +0.181 C 
ATOM     12  O   UNL     1      -1.429   0.000   0.000  0.00  0.00    -0.220 OA
ATOM     13  C   UNL     1      -2.143  -1.238   0.000  0.00  0.00    +0.167 C 
ATOM     27  O   UNL     1      -2.858  -1.650   0.000  0.00  0.00    -0.354 OA
ENDROOT
BRANCH   8   7
ATOM      7  C   UNL     1      -4.287  -1.650   0.000  0.00  0.00    +0.079 C 
BRANCH   7   6
ATOM      4  C   UNL     1      -5.894  -0.245   0.000  0.00  0.00    +0.184 A 
ATOM      5  C   UNL     1      -5.088  -0.417   0.000  0.00  0.00    +0.056 A 
ATOM      6  C   UNL     1      -5.001  -1.238   0.000  0.00  0.00    +0.103 A 
ATOM     28  N   UNL     1      -5.755  -1.573   0.000  0.00  0.00    -0.082 NA
ATOM     29  O   UNL     1      -6.307  -0.960   0.000  0.00  0.00    -0.356 OA
BRANCH   4   3
ATOM      3  C   UNL     1      -6.230   0.508   0.000  0.00  0.00    +0.209 C 
BRANCH   3   2
ATOM      1  C   UNL     1      -7.386   1.348   0.000  0.00  0.00    +0.175 C 
ATOM      2  O   UNL     1      -7.051   0.594   0.000  0.00  0.00    -0.343 OA
ENDBRANCH   3   2
ENDBRANCH   4   3
ENDBRANCH   7   6
ENDBRANCH   8   7
BRANCH  13  14
ATOM     14  C   UNL     1      -1.429  -1.650   0.000  0.00  0.00    +0.149 C 
BRANCH  14  15
ATOM     15  N   UNL     1      -0.715  -1.238   0.000  0.00  0.00    -0.184 NA
ATOM     16  C   UNL     1       0.000  -1.650   0.000  0.00  0.00    +0.344 C 
ATOM     17  O   UNL     1       0.000  -2.475   0.000  0.00  0.00    -0.249 OA
ATOM     18  N   UNL     1       0.715  -1.238   0.000  0.00  0.00    -0.158 NA
BRANCH  18  19
ATOM     19  C   UNL     1       0.715  -0.412   0.000  0.00  0.00    +0.109 A 
ATOM     20  C   UNL     1       0.000   0.000   0.000  0.00  0.00    +0.020 A 
ATOM     21  C   UNL     1       0.000   0.825   0.000  0.00  0.00    +0.002 A 
ATOM     22  C   UNL     1       0.715   1.238   0.000  0.00  0.00    +0.003 A 
ATOM     23  C   UNL     1       1.429   0.825   0.000  0.00  0.00    +0.038 A 
ATOM     24  C   UNL     1       1.429   0.000   0.000  0.00  0.00    +0.154 A 
BRANCH  24  25
ATOM     25  O   UNL     1       2.143  -0.412   0.000  0.00  0.00    -0.470 OA
ATOM     26  C   UNL     1       2.143  -1.238   0.000  0.00  0.00    +0.253 C 
ENDBRANCH  24  25
ENDBRANCH  18  19
ENDBRANCH  14  15
ENDBRANCH  13  14
TORSDOF 8
