REMARK  Name = 
REMARK  2 active torsions:
REMARK  status: ('A' for Active; 'I' for Inactive)
REMARK    1  A    between atoms: C_5  and  C_8
REMARK    2  A    between atoms: C_11  and  C_13
REMARK                            x       y       z     vdW  Elec       q    Type
REMARK                         _______ _______ _______ _____ _____    ______ ____
ROOT
ATOM      8  C   UNL     1       0.715  -1.238   0.000  0.00  0.00    +0.102 A 
ATOM      9  C   UNL     1       1.382  -1.722   0.000  0.00  0.00    +0.119 A 
ATOM     10  N   UNL     1       1.127  -2.507   0.000  0.00  0.00    -0.226 NA
ATOM     11  C   UNL     1       0.302  -2.507   0.000  0.00  0.00    +0.157 A 
ATOM     12  N   UNL     1       0.047  -1.722   0.000  0.00  0.00    -0.228 NA
ENDROOT
BRANCH   8   5
ATOM      1 CL   UNL     1       0.715   2.062   0.000  0.00  0.00    -0.082 Cl
ATOM      2  C   UNL     1       0.715   1.238   0.000  0.00  0.00    +0.058 A 
ATOM      3  C   UNL     1       1.429   0.825   0.000  0.00  0.00    +0.011 A 
ATOM      4  C   UNL     1       1.429   0.000   0.000  0.00  0.00    +0.002 A 
ATOM      5  C   UNL     1       0.715  -0.412   0.000  0.00  0.00    +0.019 A 
ATOM      6  C   UNL     1       0.000   0.000   0.000  0.00  0.00    +0.002 A 
ATOM      7  C   UNL     1       0.000   0.825   0.000  0.00  0.00    +0.011 A 
ENDBRANCH   8   5
BRANCH  11  13
ATOM     13  C   UNL     1      -0.183  -3.175   0.000  0.00  0.00    +0.160 C 
ATOM     14  C   UNL     1       0.153  -3.928   0.000  0.00  0.00    +0.167 C 
ATOM     15  O   UNL     1      -0.332  -4.596   0.000  0.00  0.00    -0.350 OA
ATOM     16  C   UNL     1      -1.153  -4.509   0.000  0.00  0.00    +0.161 C 
ATOM     17  C   UNL     1      -1.488  -3.756   0.000  0.00  0.00    +0.121 C 
ATOM     18  N   UNL     1      -1.003  -3.088   0.000  0.00  0.00    -0.207 NA
ENDBRANCH  11  13
TORSDOF 2
