REMARK  Name = 
REMARK  4 active torsions:
REMARK  status: ('A' for Active; 'I' for Inactive)
REMARK    1  A    between atoms: N_4  and  C_5
REMARK    2  A    between atoms: C_5  and  C_6
REMARK    3  A    between atoms: C_9  and  N_10
REMARK    4  A    between atoms: N_10  and  C_11
REMARK                            x       y       z     vdW  Elec       q    Type
REMARK                         _______ _______ _______ _____ _____    ______ ____
ROOT
ATOM      6  C   UNL     1       0.397   4.256   0.000  0.00  0.00    +0.169 C 
ATOM      7  O   UNL     1       0.809   4.970   0.000  0.00  0.00    -0.350 OA
ATOM      8  C   UNL     1       1.616   4.799   0.000  0.00  0.00    +0.162 C 
ATOM      9  C   UNL     1       1.703   3.978   0.000  0.00  0.00    +0.135 C 
ATOM     15  C   UNL     1       0.949   3.643   0.000  0.00  0.00    +0.199 C 
ATOM     16  O   UNL     1       0.777   2.836   0.000  0.00  0.00    -0.219 OA
ENDROOT
BRANCH   6   5
ATOM      5  C   UNL     1      -0.423   4.170   0.000  0.00  0.00    +0.147 C 
BRANCH   5   4
ATOM      1  C   UNL     1      -2.214   5.418   0.000  0.00  0.00    +0.096 C 
ATOM      2  C   UNL     1      -1.729   4.751   0.000  0.00  0.00    +0.242 C 
ATOM      3  O   UNL     1      -2.064   3.997   0.000  0.00  0.00    -0.273 OA
ATOM      4  N   UNL     1      -0.908   4.837   0.000  0.00  0.00    -0.203 NA
ENDBRANCH   5   4
ENDBRANCH   6   5
BRANCH   9  10
ATOM     10  N   UNL     1       2.417   3.566   0.000  0.00  0.00    -0.216 NA
BRANCH  10  11
ATOM     11  C   UNL     1       2.417   2.741   0.000  0.00  0.00    +0.073 C 
ATOM     12  C   UNL     1       3.001   2.157   0.000  0.00  0.00    +0.017 C 
ATOM     13  C   UNL     1       2.417   1.574   0.000  0.00  0.00    +0.003 C 
ATOM     14  C   UNL     1       1.834   2.157   0.000  0.00  0.00    +0.017 C 
ENDBRANCH  10  11
ENDBRANCH   9  10
TORSDOF 4
