REMARK  Name = 
REMARK  6 active torsions:
REMARK  status: ('A' for Active; 'I' for Inactive)
REMARK    1  A    between atoms: C_3  and  C_4
REMARK    2  A    between atoms: C_4  and  N_5
REMARK    3  A    between atoms: C_6  and  C_8
REMARK    4  A    between atoms: C_16  and  N_17
REMARK    5  A    between atoms: N_17  and  C_18
REMARK    6  A    between atoms: C_18  and  C_19
REMARK                            x       y       z     vdW  Elec       q    Type
REMARK                         _______ _______ _______ _____ _____    ______ ____
ROOT
ATOM      1  O   UNL     1       2.751  -1.712   0.000  0.00  0.00    -0.219 OA
ATOM      2  C   UNL     1       2.751  -2.537   0.000  0.00  0.00    +0.199 C 
ATOM      3  C   UNL     1       3.419  -3.022   0.000  0.00  0.00    +0.169 C 
ATOM     14  O   UNL     1       3.164  -3.806   0.000  0.00  0.00    -0.350 OA
ATOM     15  C   UNL     1       2.339  -3.806   0.000  0.00  0.00    +0.162 C 
ATOM     16  C   UNL     1       2.084  -3.022   0.000  0.00  0.00    +0.135 C 
ENDROOT
BRANCH   3   4
ATOM      4  C   UNL     1       4.203  -2.767   0.000  0.00  0.00    +0.148 C 
BRANCH   4   5
ATOM      5  N   UNL     1       4.816  -3.319   0.000  0.00  0.00    -0.199 NA
ATOM      6  C   UNL     1       5.601  -3.064   0.000  0.00  0.00    +0.265 C 
ATOM      7  O   UNL     1       5.772  -2.257   0.000  0.00  0.00    -0.268 OA
BRANCH   6   8
ATOM      8  C   UNL     1       6.214  -3.616   0.000  0.00  0.00    +0.055 A 
ATOM      9  C   UNL     1       6.999  -3.361   0.000  0.00  0.00    +0.005 A 
ATOM     10  C   UNL     1       7.612  -3.913   0.000  0.00  0.00    +0.000 A 
ATOM     11  C   UNL     1       7.440  -4.720   0.000  0.00  0.00    +0.000 A 
ATOM     12  C   UNL     1       6.656  -4.975   0.000  0.00  0.00    +0.000 A 
ATOM     13  C   UNL     1       6.043  -4.423   0.000  0.00  0.00    +0.005 A 
ENDBRANCH   6   8
ENDBRANCH   4   5
ENDBRANCH   3   4
BRANCH  16  17
ATOM     17  N   UNL     1       1.299  -2.767   0.000  0.00  0.00    -0.209 NA
BRANCH  17  18
ATOM     18  C   UNL     1       0.686  -3.319   0.000  0.00  0.00    +0.122 C 
BRANCH  18  19
ATOM     19  C   UNL     1      -0.099  -3.064   0.000  0.00  0.00    +0.025 A 
ATOM     20  C   UNL     1      -0.766  -3.549   0.000  0.00  0.00    +0.004 A 
ATOM     21  C   UNL     1      -1.433  -3.064   0.000  0.00  0.00    +0.007 A 
ATOM     22  C   UNL     1      -1.179  -2.279   0.000  0.00  0.00    +0.035 A 
ATOM     23  S   UNL     1      -0.353  -2.279   0.000  0.00  0.00    -0.089 S 
ENDBRANCH  18  19
ENDBRANCH  17  18
ENDBRANCH  16  17
TORSDOF 6
