REMARK  Name = 
REMARK  6 active torsions:
REMARK  status: ('A' for Active; 'I' for Inactive)
REMARK    1  A    between atoms: C_2  and  C_3
REMARK    2  A    between atoms: C_6  and  C_7
REMARK    3  A    between atoms: C_7  and  N_8
REMARK    4  A    between atoms: C_12  and  C_13
REMARK    5  A    between atoms: C_15  and  C_18
REMARK    6  A    between atoms: C_22  and  N_24
REMARK                            x       y       z     vdW  Elec       q    Type
REMARK                         _______ _______ _______ _____ _____    ______ ____
ROOT
ATOM     13  C   UNL     1       4.449  -7.514   0.000  0.00  0.00    +0.251 A 
ATOM     14  N   UNL     1       4.037  -8.229   0.000  0.00  0.00    -0.190 NA
ATOM     15  C   UNL     1       3.230  -8.057   0.000  0.00  0.00    +0.203 A 
ATOM     16  N   UNL     1       3.144  -7.237   0.000  0.00  0.00    -0.056 NA
ATOM     17  O   UNL     1       3.897  -6.901   0.000  0.00  0.00    -0.336 OA
ENDROOT
BRANCH  15  18
ATOM     18  C   UNL     1       2.617  -8.609   0.000  0.00  0.00    +0.043 A 
ATOM     19  C   UNL     1       2.788  -9.416   0.000  0.00  0.00    +0.024 A 
ATOM     20  C   UNL     1       2.175  -9.968   0.000  0.00  0.00    +0.100 A 
ATOM     21  N   UNL     1       1.391  -9.713   0.000  0.00  0.00    -0.229 NA
ATOM     22  C   UNL     1       1.219  -8.906   0.000  0.00  0.00    +0.132 A 
ATOM     23  C   UNL     1       1.832  -8.354   0.000  0.00  0.00    +0.037 A 
BRANCH  22  24
ATOM     24  N   UNL     1       0.435  -8.651   0.000  0.00  0.00    -0.288 N 
ATOM     25  C   UNL     1      -0.178  -9.203   0.000  0.00  0.00    +0.124 C 
ATOM     26  C   UNL     1      -0.963  -8.948   0.000  0.00  0.00    +0.164 C 
ATOM     27  O   UNL     1      -1.135  -8.141   0.000  0.00  0.00    -0.350 OA
ATOM     28  C   UNL     1      -0.522  -7.589   0.000  0.00  0.00    +0.164 C 
ATOM     29  C   UNL     1       0.263  -7.844   0.000  0.00  0.00    +0.124 C 
ENDBRANCH  22  24
ENDBRANCH  15  18
BRANCH  13  12
ATOM      8  N   UNL     1       5.682  -6.713   0.000  0.00  0.00    -0.260 NA
ATOM      9  C   UNL     1       6.489  -6.885   0.000  0.00  0.00    +0.073 C 
ATOM     10  C   UNL     1       6.576  -7.705   0.000  0.00  0.00    +0.019 C 
ATOM     11  C   UNL     1       5.822  -8.041   0.000  0.00  0.00    +0.027 C 
ATOM     12  C   UNL     1       5.270  -7.428   0.000  0.00  0.00    +0.138 C 
BRANCH   8   7
ATOM      7  C   UNL     1       5.347  -5.960   0.000  0.00  0.00    +0.138 C 
BRANCH   7   6
ATOM      3  C   UNL     1       6.244  -4.023   0.000  0.00  0.00    +0.156 A 
ATOM      4  C   UNL     1       6.912  -4.508   0.000  0.00  0.00    +0.038 A 
ATOM      5  C   UNL     1       6.657  -5.292   0.000  0.00  0.00    +0.037 A 
ATOM      6  C   UNL     1       5.832  -5.292   0.000  0.00  0.00    +0.139 A 
ATOM     30  O   UNL     1       5.577  -4.508   0.000  0.00  0.00    -0.458 OA
BRANCH   3   2
ATOM      1  O   UNL     1       6.959  -2.785   0.000  0.00  0.00    -0.212 OA
ATOM      2  C   UNL     1       6.244  -3.198   0.000  0.00  0.00    +0.246 C 
ENDBRANCH   3   2
ENDBRANCH   7   6
ENDBRANCH   8   7
ENDBRANCH  13  12
TORSDOF 6
