REMARK  Name = 
REMARK  3 active torsions:
REMARK  status: ('A' for Active; 'I' for Inactive)
REMARK    1  A    between atoms: C_5  and  C_8
REMARK    2  A    between atoms: C_11  and  C_13
REMARK    3  A    between atoms: N_16  and  C_18
REMARK                            x       y       z     vdW  Elec       q    Type
REMARK                         _______ _______ _______ _____ _____    ______ ____
ROOT
ATOM      8  C   UNL     1       2.024  -3.041   0.000  0.00  0.00    +0.250 A 
ATOM      9  N   UNL     1       2.692  -3.525   0.000  0.00  0.00    -0.107 NA
ATOM     10  N   UNL     1       2.437  -4.310   0.000  0.00  0.00    -0.111 NA
ATOM     11  C   UNL     1       1.612  -4.310   0.000  0.00  0.00    +0.227 A 
ATOM     12  O   UNL     1       1.357  -3.525   0.000  0.00  0.00    -0.419 OA
ENDROOT
BRANCH   8   5
ATOM      1  C   UNL     1       2.024   0.260   0.000  0.00  0.00    +0.031 C 
ATOM      2  C   UNL     1       2.024  -0.566   0.000  0.00  0.00    -0.022 A 
ATOM      3  C   UNL     1       2.739  -0.978   0.000  0.00  0.00    -0.004 A 
ATOM      4  C   UNL     1       2.739  -1.803   0.000  0.00  0.00    +0.004 A 
ATOM      5  C   UNL     1       2.024  -2.216   0.000  0.00  0.00    +0.055 A 
ATOM      6  C   UNL     1       1.310  -1.803   0.000  0.00  0.00    +0.004 A 
ATOM      7  C   UNL     1       1.310  -0.978   0.000  0.00  0.00    -0.004 A 
ENDBRANCH   8   5
BRANCH  11  13
ATOM     13  C   UNL     1       1.127  -4.977   0.000  0.00  0.00    +0.096 C 
ATOM     14  C   UNL     1       1.382  -5.762   0.000  0.00  0.00    +0.028 C 
ATOM     15  C   UNL     1       0.715  -6.247   0.000  0.00  0.00    +0.073 C 
ATOM     16  N   UNL     1       0.047  -5.762   0.000  0.00  0.00    -0.273 NA
ATOM     17  C   UNL     1       0.302  -4.977   0.000  0.00  0.00    +0.081 C 
BRANCH  16  18
ATOM     18  C   UNL     1      -0.738  -6.017   0.000  0.00  0.00    +0.063 C 
ATOM     19  C   UNL     1      -0.909  -6.824   0.000  0.00  0.00    +0.048 C 
ATOM     20  C   UNL     1      -1.694  -7.079   0.000  0.00  0.00    +0.144 C 
ATOM     21  O   UNL     1      -2.307  -6.527   0.000  0.00  0.00    -0.354 OA
ATOM     22  C   UNL     1      -2.135  -5.720   0.000  0.00  0.00    +0.144 C 
ATOM     23  C   UNL     1      -1.351  -5.465   0.000  0.00  0.00    +0.048 C 
ENDBRANCH  16  18
ENDBRANCH  11  13
TORSDOF 3
