REMARK  Name = 
REMARK  5 active torsions:
REMARK  status: ('A' for Active; 'I' for Inactive)
REMARK    1  A    between atoms: C_5  and  N_8
REMARK    2  A    between atoms: N_8  and  C_9
REMARK    3  A    between atoms: C_9  and  C_10
REMARK    4  A    between atoms: C_17  and  C_18
REMARK    5  A    between atoms: C_20  and  C_25
REMARK                            x       y       z     vdW  Elec       q    Type
REMARK                         _______ _______ _______ _____ _____    ______ ____
ROOT
ATOM     10  C   UNL     1       1.814  -2.106   0.000  0.00  0.00    +0.075 C 
ATOM     11  C   UNL     1       1.661  -1.343   0.000  0.00  0.00    +0.018 C 
ATOM     12  C   UNL     1       0.923  -1.010   0.000  0.00  0.00    +0.010 C 
ATOM     13  C   UNL     1       0.961  -0.114   0.000  0.00  0.00    +0.018 C 
ATOM     14  C   UNL     1       1.205  -0.720   0.000  0.00  0.00    +0.072 C 
ATOM     15  N   UNL     1       1.065  -1.759   0.000  0.00  0.00    -0.272 NA
ATOM     16  C   UNL     1       0.226  -2.118   0.000  0.00  0.00    +0.078 C 
ATOM     17  C   UNL     1       0.119  -1.362   0.000  0.00  0.00    +0.056 C 
ENDROOT
BRANCH  17  18
ATOM     18  C   UNL     1      -0.602  -0.960   0.000  0.00  0.00    +0.063 A 
ATOM     19  C   UNL     1      -1.310  -1.384   0.000  0.00  0.00    +0.034 A 
ATOM     20  C   UNL     1      -2.030  -0.982   0.000  0.00  0.00    +0.084 A 
ATOM     21  N   UNL     1      -2.043  -0.157   0.000  0.00  0.00    -0.231 NA
ATOM     22  C   UNL     1      -1.335   0.266   0.000  0.00  0.00    +0.139 A 
ATOM     23  C   UNL     1      -1.347   1.091   0.000  0.00  0.00    +0.074 C 
ATOM     24  N   UNL     1      -0.614  -0.136   0.000  0.00  0.00    -0.235 NA
BRANCH  20  25
ATOM     25  C   UNL     1      -2.739  -1.405   0.000  0.00  0.00    +0.018 A 
ATOM     26  C   UNL     1      -2.726  -2.230   0.000  0.00  0.00    +0.001 A 
ATOM     27  C   UNL     1      -3.434  -2.653   0.000  0.00  0.00    +0.000 A 
ATOM     28  C   UNL     1      -4.155  -2.251   0.000  0.00  0.00    +0.000 A 
ATOM     29  C   UNL     1      -4.167  -1.427   0.000  0.00  0.00    +0.000 A 
ATOM     30  C   UNL     1      -3.459  -1.003   0.000  0.00  0.00    +0.001 A 
ENDBRANCH  20  25
ENDBRANCH  17  18
BRANCH  10   9
ATOM      9  C   UNL     1       2.324  -2.754   0.000  0.00  0.00    +0.104 C 
BRANCH   9   8
ATOM      8  N   UNL     1       2.018  -3.520   0.000  0.00  0.00    -0.218 NA
BRANCH   8   5
ATOM      1  C   UNL     1       4.060  -6.112   0.000  0.00  0.00    +0.090 C 
ATOM      2  N   UNL     1       3.550  -5.464   0.000  0.00  0.00    -0.271 NA
ATOM      3  C   UNL     1       2.733  -5.582   0.000  0.00  0.00    +0.074 C 
ATOM      4  C   UNL     1       2.223  -4.934   0.000  0.00  0.00    +0.035 C 
ATOM      5  C   UNL     1       2.529  -4.168   0.000  0.00  0.00    +0.076 C 
ATOM      6  C   UNL     1       3.345  -4.050   0.000  0.00  0.00    +0.035 C 
ATOM      7  C   UNL     1       3.856  -4.698   0.000  0.00  0.00    +0.074 C 
ENDBRANCH   8   5
ENDBRANCH   9   8
ENDBRANCH  10   9
TORSDOF 5
