REMARK  Name = 
REMARK  3 active torsions:
REMARK  status: ('A' for Active; 'I' for Inactive)
REMARK    1  A    between atoms: O_2  and  C_3
REMARK    2  A    between atoms: C_10  and  C_12
REMARK    3  A    between atoms: C_15  and  C_18
REMARK                            x       y       z     vdW  Elec       q    Type
REMARK                         _______ _______ _______ _____ _____    ______ ____
ROOT
ATOM      3  C   UNL     1       1.273   0.825   0.000  0.00  0.00    +0.165 C 
ATOM      4  C   UNL     1       0.971   1.593   0.000  0.00  0.00    +0.173 C 
ATOM      5  O   UNL     1       1.384   2.307   0.000  0.00  0.00    -0.349 OA
ATOM      6  C   UNL     1       2.200   2.430   0.000  0.00  0.00    +0.164 C 
ATOM      7  C   UNL     1       2.804   1.869   0.000  0.00  0.00    +0.126 C 
ATOM      8  N   UNL     1       2.743   1.046   0.000  0.00  0.00    -0.271 N 
ATOM      9  C   UNL     1       2.061   0.581   0.000  0.00  0.00    +0.126 C 
ATOM     10  C   UNL     1       3.457   0.634   0.000  0.00  0.00    +0.249 C 
ATOM     11  O   UNL     1       4.172   1.046   0.000  0.00  0.00    -0.270 OA
ENDROOT
BRANCH  10  12
ATOM     12  C   UNL     1       3.457  -0.191   0.000  0.00  0.00    +0.054 A 
ATOM     13  C   UNL     1       4.172  -0.604   0.000  0.00  0.00    +0.005 A 
ATOM     14  C   UNL     1       4.172  -1.429   0.000  0.00  0.00    +0.010 A 
ATOM     15  C   UNL     1       3.457  -1.841   0.000  0.00  0.00    +0.068 A 
ATOM     16  C   UNL     1       2.743  -1.429   0.000  0.00  0.00    +0.010 A 
ATOM     17  C   UNL     1       2.743  -0.604   0.000  0.00  0.00    +0.005 A 
BRANCH  15  18
ATOM     18  C   UNL     1       3.457  -2.666   0.000  0.00  0.00    +0.100 C 
ATOM     19  N   UNL     1       3.457  -3.491   0.000  0.00  0.00    -0.191 NA
ENDBRANCH  15  18
ENDBRANCH  10  12
BRANCH   3   2
ATOM      1  C   UNL     1      -0.093   0.403   0.000  0.00  0.00    +0.174 C 
ATOM      2  O   UNL     1       0.712   0.220   0.000  0.00  0.00    -0.349 OA
ENDBRANCH   3   2
TORSDOF 3
