REMARK  Name = 
REMARK  5 active torsions:
REMARK  status: ('A' for Active; 'I' for Inactive)
REMARK    1  A    between atoms: C_2  and  C_5
REMARK    2  A    between atoms: C_12  and  C_13
REMARK    3  A    between atoms: C_15  and  C_18
REMARK    4  A    between atoms: C_21  and  O_22
REMARK    5  A    between atoms: O_22  and  C_23
REMARK                            x       y       z     vdW  Elec       q    Type
REMARK                         _______ _______ _______ _____ _____    ______ ____
ROOT
ATOM     13  C   UNL     1       0.715  -1.238   0.000  0.00  0.00    +0.160 A 
ATOM     14  N   UNL     1       1.382  -1.722   0.000  0.00  0.00    -0.227 NA
ATOM     15  C   UNL     1       1.127  -2.507   0.000  0.00  0.00    +0.102 A 
ATOM     16  C   UNL     1       0.302  -2.507   0.000  0.00  0.00    +0.119 A 
ATOM     17  N   UNL     1       0.047  -1.722   0.000  0.00  0.00    -0.226 NA
ENDROOT
BRANCH  13  12
ATOM      5  C   UNL     1      -0.715  -0.412   0.000  0.00  0.00    +0.225 C 
ATOM      6  O   UNL     1      -0.715  -1.238   0.000  0.00  0.00    -0.275 OA
ATOM      7  N   UNL     1       0.000   0.000   0.000  0.00  0.00    -0.270 N 
ATOM      8  C   UNL     1       0.000   0.825   0.000  0.00  0.00    +0.126 C 
ATOM      9  C   UNL     1       0.715   1.238   0.000  0.00  0.00    +0.164 C 
ATOM     10  O   UNL     1       1.429   0.825   0.000  0.00  0.00    -0.350 OA
ATOM     11  C   UNL     1       1.429   0.000   0.000  0.00  0.00    +0.170 C 
ATOM     12  C   UNL     1       0.715  -0.412   0.000  0.00  0.00    +0.164 C 
BRANCH   5   2
ATOM      1  C   UNL     1      -2.143   0.412   0.000  0.00  0.00    +0.009 C 
ATOM      2  C   UNL     1      -1.429   0.000   0.000  0.00  0.00    +0.069 C 
ATOM      3  C   UNL     1      -1.841  -0.715   0.000  0.00  0.00    +0.009 C 
ATOM      4  C   UNL     1      -1.016   0.715   0.000  0.00  0.00    +0.009 C 
ENDBRANCH   5   2
ENDBRANCH  13  12
BRANCH  15  18
ATOM     18  C   UNL     1       1.612  -3.175   0.000  0.00  0.00    +0.019 A 
ATOM     19  C   UNL     1       2.432  -3.088   0.000  0.00  0.00    +0.005 A 
ATOM     20  C   UNL     1       2.917  -3.756   0.000  0.00  0.00    +0.037 A 
ATOM     21  C   UNL     1       2.582  -4.509   0.000  0.00  0.00    +0.147 A 
ATOM     27  C   UNL     1       1.761  -4.596   0.000  0.00  0.00    +0.037 A 
ATOM     28  C   UNL     1       1.276  -3.928   0.000  0.00  0.00    +0.005 A 
BRANCH  21  22
ATOM     22  O   UNL     1       3.067  -5.177   0.000  0.00  0.00    -0.404 OA
BRANCH  22  23
ATOM     23  C   UNL     1       3.887  -5.091   0.000  0.00  0.00    +0.575 C 
ATOM     24  F   UNL     1       4.708  -5.004   0.000  0.00  0.00    -0.133 F 
ATOM     25  F   UNL     1       3.973  -5.911   0.000  0.00  0.00    -0.133 F 
ATOM     26  F   UNL     1       3.801  -4.270   0.000  0.00  0.00    -0.133 F 
ENDBRANCH  22  23
ENDBRANCH  21  22
ENDBRANCH  15  18
TORSDOF 5
