REMARK  Name = 
REMARK  7 active torsions:
REMARK  status: ('A' for Active; 'I' for Inactive)
REMARK    1  A    between atoms: C_2  and  C_4
REMARK    2  A    between atoms: C_4  and  C_5
REMARK    3  A    between atoms: C_10  and  C_11
REMARK    4  A    between atoms: C_11  and  C_12
REMARK    5  A    between atoms: C_12  and  N_13
REMARK    6  A    between atoms: C_16  and  N_19
REMARK    7  A    between atoms: N_31  and  C_32
REMARK                            x       y       z     vdW  Elec       q    Type
REMARK                         _______ _______ _______ _____ _____    ______ ____
ROOT
ATOM      5  C   UNL     1      -1.673   4.677   0.000  0.00  0.00    +0.015 C 
ATOM      6  C   UNL     1      -1.928   5.462   0.000  0.00  0.00    +0.022 C 
ATOM      7  C   UNL     1      -1.376   6.075   0.000  0.00  0.00    +0.095 C 
ATOM      8  N   UNL     1      -0.569   5.903   0.000  0.00  0.00    -0.263 N 
ATOM      9  C   UNL     1      -0.314   5.119   0.000  0.00  0.00    +0.095 C 
ATOM     10  C   UNL     1      -0.866   4.506   0.000  0.00  0.00    +0.022 C 
ATOM     29  C   UNL     1      -0.017   6.516   0.000  0.00  0.00    +0.327 C 
ATOM     30  O   UNL     1       0.790   6.345   0.000  0.00  0.00    -0.250 OA
ATOM     31  N   UNL     1      -0.272   7.301   0.000  0.00  0.00    -0.162 NA
ENDROOT
BRANCH  31  32
ATOM     32  C   UNL     1      -1.079   7.473   0.000  0.00  0.00    +0.075 A 
ATOM     33  C   UNL     1      -1.631   6.860   0.000  0.00  0.00    +0.017 A 
ATOM     34  C   UNL     1      -2.438   7.031   0.000  0.00  0.00    +0.001 A 
ATOM     35  C   UNL     1      -2.693   7.816   0.000  0.00  0.00    +0.000 A 
ATOM     36  C   UNL     1      -2.141   8.429   0.000  0.00  0.00    +0.001 A 
ATOM     37  C   UNL     1      -1.334   8.257   0.000  0.00  0.00    +0.017 A 
ENDBRANCH  31  32
BRANCH   5   4
ATOM      4  C   UNL     1      -2.225   4.064   0.000  0.00  0.00    +0.114 C 
BRANCH   4   2
ATOM      1  O   UNL     1      -3.287   5.020   0.000  0.00  0.00    -0.246 OA
ATOM      2  C   UNL     1      -3.032   4.236   0.000  0.00  0.00    +0.365 C 
ATOM      3  O   UNL     1      -3.584   3.623   0.000  0.00  0.00    -0.246 OA
ENDBRANCH   4   2
ENDBRANCH   5   4
BRANCH  10  11
ATOM     11  C   UNL     1      -0.611   3.721   0.000  0.00  0.00    +0.019 C 
BRANCH  11  12
ATOM     12  C   UNL     1      -1.163   3.108   0.000  0.00  0.00    +0.072 C 
BRANCH  12  13
ATOM     13  N   UNL     1      -0.908   2.323   0.000  0.00  0.00    -0.273 NA
ATOM     14  C   UNL     1      -0.101   2.152   0.000  0.00  0.00    +0.074 C 
ATOM     15  C   UNL     1       0.154   1.367   0.000  0.00  0.00    +0.040 C 
ATOM     16  C   UNL     1      -0.398   0.754   0.000  0.00  0.00    +0.093 C 
ATOM     17  C   UNL     1      -1.205   0.926   0.000  0.00  0.00    +0.040 C 
ATOM     18  C   UNL     1      -1.460   1.710   0.000  0.00  0.00    +0.074 C 
BRANCH  16  19
ATOM     19  N   UNL     1      -0.143  -0.030   0.000  0.00  0.00    -0.280 N 
ATOM     20  C   UNL     1      -0.628  -0.698   0.000  0.00  0.00    +0.350 A 
ATOM     21  O   UNL     1      -1.453  -0.698   0.000  0.00  0.00    -0.244 OA
ATOM     22  N   UNL     1      -0.143  -1.365   0.000  0.00  0.00    -0.191 NA
ATOM     23  C   UNL     1       0.641  -1.110   0.000  0.00  0.00    +0.102 A 
ATOM     24  C   UNL     1       0.641  -0.285   0.000  0.00  0.00    +0.082 A 
ATOM     25  C   UNL     1       1.356   0.127   0.000  0.00  0.00    +0.019 A 
ATOM     26  C   UNL     1       2.070  -0.285   0.000  0.00  0.00    +0.002 A 
ATOM     27  C   UNL     1       2.070  -1.110   0.000  0.00  0.00    +0.002 A 
ATOM     28  C   UNL     1       1.356  -1.523   0.000  0.00  0.00    +0.021 A 
ENDBRANCH  16  19
ENDBRANCH  12  13
ENDBRANCH  11  12
ENDBRANCH  10  11
TORSDOF 7
