REMARK  Name = 
REMARK  6 active torsions:
REMARK  status: ('A' for Active; 'I' for Inactive)
REMARK    1  A    between atoms: C_4  and  C_13
REMARK    2  A    between atoms: N_5  and  C_6
REMARK    3  A    between atoms: C_6  and  C_7
REMARK    4  A    between atoms: C_15  and  C_16
REMARK    5  A    between atoms: C_16  and  S_17
REMARK    6  A    between atoms: S_17  and  C_20
REMARK                            x       y       z     vdW  Elec       q    Type
REMARK                         _______ _______ _______ _____ _____    ______ ____
ROOT
ATOM     13  C   UNL     1       3.841  -6.097   0.000  0.00  0.00    +0.251 A 
ATOM     14  N   UNL     1       4.666  -6.097   0.000  0.00  0.00    -0.192 NA
ATOM     15  C   UNL     1       4.920  -6.882   0.000  0.00  0.00    +0.205 A 
ATOM     27  N   UNL     1       4.253  -7.367   0.000  0.00  0.00    -0.059 NA
ATOM     28  O   UNL     1       3.586  -6.882   0.000  0.00  0.00    -0.336 OA
ENDROOT
BRANCH  13   4
ATOM      1  O   UNL     1       2.943  -3.335   0.000  0.00  0.00    -0.222 OA
ATOM      2  C   UNL     1       2.943  -4.160   0.000  0.00  0.00    +0.170 C 
ATOM      3  C   UNL     1       3.611  -4.645   0.000  0.00  0.00    +0.060 C 
ATOM      4  C   UNL     1       3.356  -5.430   0.000  0.00  0.00    +0.140 C 
ATOM      5  N   UNL     1       2.531  -5.430   0.000  0.00  0.00    -0.260 NA
ATOM     12  C   UNL     1       2.276  -4.645   0.000  0.00  0.00    +0.106 C 
BRANCH   5   6
ATOM      6  C   UNL     1       2.046  -6.097   0.000  0.00  0.00    +0.106 C 
BRANCH   6   7
ATOM      7  C   UNL     1       1.225  -6.011   0.000  0.00  0.00    +0.023 A 
ATOM      8  C   UNL     1       0.673  -6.624   0.000  0.00  0.00    +0.004 A 
ATOM      9  C   UNL     1      -0.081  -6.288   0.000  0.00  0.00    +0.007 A 
ATOM     10  C   UNL     1       0.006  -5.468   0.000  0.00  0.00    +0.035 A 
ATOM     11  S   UNL     1       0.813  -5.296   0.000  0.00  0.00    -0.089 S 
ENDBRANCH   6   7
ENDBRANCH   5   6
ENDBRANCH  13   4
BRANCH  15  16
ATOM     16  C   UNL     1       5.705  -7.137   0.000  0.00  0.00    +0.224 C 
BRANCH  16  17
ATOM     17  S   UNL     1       5.877  -7.944   0.000  0.00  0.00    +0.016 S 
ATOM     18  O   UNL     1       5.070  -8.115   0.000  0.00  0.00    -0.168 OA
ATOM     19  O   UNL     1       6.684  -7.772   0.000  0.00  0.00    -0.168 OA
BRANCH  17  20
ATOM     20  C   UNL     1       6.048  -8.751   0.000  0.00  0.00    +0.106 A 
ATOM     21  C   UNL     1       6.833  -9.005   0.000  0.00  0.00    +0.021 A 
ATOM     22  C   UNL     1       7.004  -9.812   0.000  0.00  0.00    +0.031 A 
ATOM     23  C   UNL     1       6.391 -10.364   0.000  0.00  0.00    +0.140 A 
ATOM     24  F   UNL     1       6.563 -11.171   0.000  0.00  0.00    -0.204 F 
ATOM     25  C   UNL     1       5.607 -10.110   0.000  0.00  0.00    +0.031 A 
ATOM     26  C   UNL     1       5.435  -9.303   0.000  0.00  0.00    +0.021 A 
ENDBRANCH  17  20
ENDBRANCH  16  17
ENDBRANCH  15  16
TORSDOF 6
