REMARK  Name = 
REMARK  7 active torsions:
REMARK  status: ('A' for Active; 'I' for Inactive)
REMARK    1  A    between atoms: C_4  and  C_5
REMARK    2  A    between atoms: C_5  and  C_6
REMARK    3  A    between atoms: C_9  and  C_10
REMARK    4  A    between atoms: C_10  and  C_11
REMARK    5  A    between atoms: C_15  and  N_16
REMARK    6  A    between atoms: N_19  and  C_20
REMARK    7  A    between atoms: C_20  and  C_21
REMARK                            x       y       z     vdW  Elec       q    Type
REMARK                         _______ _______ _______ _____ _____    ______ ____
ROOT
ATOM      1  C   UNL     1      -1.594  -2.902   0.000  0.00  0.00    +0.002 C 
ATOM      2  C   UNL     1      -0.797  -2.688   0.000  0.00  0.00    +0.019 C 
ATOM      3  C   UNL     1      -0.583  -3.485   0.000  0.00  0.00    +0.002 C 
ATOM      4  C   UNL     1      -1.010  -1.892   0.000  0.00  0.00    +0.009 C 
ATOM     14  C   UNL     1      -0.213  -1.678   0.000  0.00  0.00    +0.022 C 
ATOM     15  C   UNL     1       0.000  -2.475   0.000  0.00  0.00    +0.097 C 
ENDROOT
BRANCH  15  16
ATOM     16  N   UNL     1       0.715  -2.888   0.000  0.00  0.00    -0.189 NA
ATOM     17  C   UNL     1       1.429  -2.475   0.000  0.00  0.00    +0.340 C 
ATOM     18  O   UNL     1       1.429  -1.650   0.000  0.00  0.00    -0.249 OA
ATOM     19  N   UNL     1       2.143  -2.888   0.000  0.00  0.00    -0.182 NA
BRANCH  19  20
ATOM     20  C   UNL     1       2.858  -2.475   0.000  0.00  0.00    +0.143 C 
BRANCH  20  21
ATOM     21  C   UNL     1       3.572  -2.888   0.000  0.00  0.00    -0.001 A 
ATOM     22  C   UNL     1       4.287  -2.475   0.000  0.00  0.00    -0.003 A 
ATOM     23  C   UNL     1       5.001  -2.888   0.000  0.00  0.00    -0.000 A 
ATOM     24  C   UNL     1       5.001  -3.712   0.000  0.00  0.00    -0.000 A 
ATOM     25  C   UNL     1       4.287  -4.125   0.000  0.00  0.00    -0.000 A 
ATOM     26  C   UNL     1       3.572  -3.712   0.000  0.00  0.00    -0.003 A 
ENDBRANCH  20  21
ENDBRANCH  19  20
ENDBRANCH  15  16
BRANCH   4   5
ATOM      5  C   UNL     1      -1.725  -1.479   0.000  0.00  0.00    +0.049 C 
BRANCH   5   6
ATOM      6  C   UNL     1      -2.439  -1.892   0.000  0.00  0.00    +0.100 A 
ATOM      7  N   UNL     1      -2.526  -2.712   0.000  0.00  0.00    -0.082 NA
ATOM      8  O   UNL     1      -3.333  -2.884   0.000  0.00  0.00    -0.358 OA
ATOM      9  C   UNL     1      -3.745  -2.169   0.000  0.00  0.00    +0.157 A 
ATOM     13  C   UNL     1      -3.193  -1.556   0.000  0.00  0.00    +0.054 A 
BRANCH   9  10
ATOM     10  C   UNL     1      -4.566  -2.083   0.000  0.00  0.00    +0.103 C 
BRANCH  10  11
ATOM     11  C   UNL     1      -5.051  -2.750   0.000  0.00  0.00    +0.190 C 
ATOM     12  O   UNL     1      -5.871  -2.664   0.000  0.00  0.00    -0.220 OA
ENDBRANCH  10  11
ENDBRANCH   9  10
ENDBRANCH   5   6
ENDBRANCH   4   5
TORSDOF 7
