REMARK  Name = 
REMARK  5 active torsions:
REMARK  status: ('A' for Active; 'I' for Inactive)
REMARK    1  A    between atoms: O_2  and  C_3
REMARK    2  A    between atoms: C_6  and  C_7
REMARK    3  A    between atoms: C_7  and  N_8
REMARK    4  A    between atoms: C_13  and  C_14
REMARK    5  A    between atoms: C_16  and  C_19
REMARK                            x       y       z     vdW  Elec       q    Type
REMARK                         _______ _______ _______ _____ _____    ______ ____
ROOT
ATOM      8  N   UNL     1      -0.608   3.528   0.000  0.00  0.00    -0.260 NA
ATOM      9  C   UNL     1       0.060   3.043   0.000  0.00  0.00    +0.106 C 
ATOM     10  C   UNL     1      -0.195   2.258   0.000  0.00  0.00    +0.170 C 
ATOM     11  O   UNL     1       0.290   1.591   0.000  0.00  0.00    -0.222 OA
ATOM     12  C   UNL     1      -1.020   2.258   0.000  0.00  0.00    +0.060 C 
ATOM     13  C   UNL     1      -1.275   3.043   0.000  0.00  0.00    +0.140 C 
ENDROOT
BRANCH  13  14
ATOM     14  C   UNL     1      -2.060   3.298   0.000  0.00  0.00    +0.251 A 
ATOM     15  N   UNL     1      -2.727   2.813   0.000  0.00  0.00    -0.194 NA
ATOM     16  C   UNL     1      -3.395   3.298   0.000  0.00  0.00    +0.180 A 
ATOM     17  N   UNL     1      -3.140   4.082   0.000  0.00  0.00    -0.061 NA
ATOM     18  O   UNL     1      -2.315   4.082   0.000  0.00  0.00    -0.336 OA
BRANCH  16  19
ATOM     19  C   UNL     1      -4.179   3.043   0.000  0.00  0.00    +0.062 C 
ATOM     20  C   UNL     1      -4.351   2.236   0.000  0.00  0.00    +0.008 C 
ATOM     21  C   UNL     1      -4.792   3.595   0.000  0.00  0.00    +0.008 C 
ENDBRANCH  16  19
ENDBRANCH  13  14
BRANCH   8   7
ATOM      7  C   UNL     1      -0.608   4.353   0.000  0.00  0.00    +0.100 C 
BRANCH   7   6
ATOM      3  C   UNL     1       1.536   5.590   0.000  0.00  0.00    +0.139 A 
ATOM      4  C   UNL     1       1.536   4.765   0.000  0.00  0.00    +0.037 A 
ATOM      5  C   UNL     1       0.821   4.353   0.000  0.00  0.00    +0.000 A 
ATOM      6  C   UNL     1       0.107   4.765   0.000  0.00  0.00    -0.006 A 
ATOM     22  C   UNL     1       0.107   5.590   0.000  0.00  0.00    +0.000 A 
ATOM     23  C   UNL     1       0.821   6.003   0.000  0.00  0.00    +0.037 A 
BRANCH   3   2
ATOM      1  C   UNL     1       2.250   6.828   0.000  0.00  0.00    +0.252 C 
ATOM      2  O   UNL     1       2.250   6.003   0.000  0.00  0.00    -0.471 OA
ENDBRANCH   3   2
ENDBRANCH   7   6
ENDBRANCH   8   7
TORSDOF 5
