REMARK  Name = 
REMARK  7 active torsions:
REMARK  status: ('A' for Active; 'I' for Inactive)
REMARK    1  A    between atoms: O_2  and  C_3
REMARK    2  A    between atoms: C_6  and  C_9
REMARK    3  A    between atoms: N_11  and  C_12
REMARK    4  A    between atoms: C_16  and  N_20
REMARK    5  A    between atoms: C_24  and  O_25
REMARK    6  A    between atoms: O_25  and  C_26
REMARK    7  A    between atoms: C_28  and  N_32
REMARK                            x       y       z     vdW  Elec       q    Type
REMARK                         _______ _______ _______ _____ _____    ______ ____
ROOT
ATOM     12  C   UNL     1       1.270  -0.922   0.000  0.00  0.00    +0.155 C 
ATOM     13  C   UNL     1       0.785  -0.255   0.000  0.00  0.00    +0.166 C 
ATOM     14  O   UNL     1       1.270   0.412   0.000  0.00  0.00    -0.350 OA
ATOM     15  C   UNL     1       2.054   0.158   0.000  0.00  0.00    +0.169 C 
ATOM     16  C   UNL     1       2.839   0.412   0.000  0.00  0.00    +0.170 C 
ATOM     17  C   UNL     1       3.324  -0.255   0.000  0.00  0.00    +0.169 C 
ATOM     18  O   UNL     1       2.839  -0.922   0.000  0.00  0.00    -0.350 OA
ATOM     19  C   UNL     1       2.054  -0.667   0.000  0.00  0.00    +0.167 C 
ENDROOT
BRANCH  16  20
ATOM     20  N   UNL     1       3.094   1.197   0.000  0.00  0.00    -0.180 N 
ATOM     21  N   UNL     1       2.609   1.865   0.000  0.00  0.00    -0.040 NA
ATOM     22  N   UNL     1       3.094   2.532   0.000  0.00  0.00    -0.020 NA
ATOM     23  N   UNL     1       3.878   2.277   0.000  0.00  0.00    -0.071 NA
ATOM     24  C   UNL     1       3.878   1.452   0.000  0.00  0.00    +0.343 A 
BRANCH  24  25
ATOM     25  O   UNL     1       4.546   0.967   0.000  0.00  0.00    -0.421 OA
BRANCH  25  26
ATOM     26  C   UNL     1       5.300   1.303   0.000  0.00  0.00    +0.150 A 
ATOM     27  C   UNL     1       5.386   2.123   0.000  0.00  0.00    +0.052 A 
ATOM     28  C   UNL     1       6.139   2.459   0.000  0.00  0.00    +0.051 A 
ATOM     29  C   UNL     1       6.807   1.974   0.000  0.00  0.00    +0.015 A 
ATOM     30  C   UNL     1       6.721   1.153   0.000  0.00  0.00    +0.004 A 
ATOM     31  C   UNL     1       5.967   0.818   0.000  0.00  0.00    +0.038 A 
BRANCH  28  32
ATOM     32  N   UNL     1       6.226   3.279   0.000  0.00  0.00    -0.304 N 
ATOM     33  C   UNL     1       5.558   3.764   0.000  0.00  0.00    +0.112 C 
ATOM     34  C   UNL     1       6.979   3.615   0.000  0.00  0.00    +0.112 C 
ENDBRANCH  28  32
ENDBRANCH  25  26
ENDBRANCH  24  25
ENDBRANCH  16  20
BRANCH  12  11
ATOM      9  C   UNL     1       0.208  -1.879   0.000  0.00  0.00    +0.265 C 
ATOM     10  O   UNL     1      -0.344  -1.265   0.000  0.00  0.00    -0.268 OA
ATOM     11  N   UNL     1       1.015  -1.707   0.000  0.00  0.00    -0.198 NA
BRANCH   9   6
ATOM      3  C   UNL     1      -0.557  -4.232   0.000  0.00  0.00    +0.139 A 
ATOM      4  C   UNL     1      -1.109  -3.619   0.000  0.00  0.00    +0.037 A 
ATOM      5  C   UNL     1      -0.854  -2.835   0.000  0.00  0.00    +0.008 A 
ATOM      6  C   UNL     1      -0.047  -2.663   0.000  0.00  0.00    +0.055 A 
ATOM      7  C   UNL     1       0.505  -3.276   0.000  0.00  0.00    +0.008 A 
ATOM      8  C   UNL     1       0.250  -4.061   0.000  0.00  0.00    +0.037 A 
BRANCH   3   2
ATOM      1  C   UNL     1      -0.260  -5.630   0.000  0.00  0.00    +0.252 C 
ATOM      2  O   UNL     1      -0.812  -5.017   0.000  0.00  0.00    -0.471 OA
ENDBRANCH   3   2
ENDBRANCH   9   6
ENDBRANCH  12  11
TORSDOF 7
