REMARK  Name = 
REMARK  5 active torsions:
REMARK  status: ('A' for Active; 'I' for Inactive)
REMARK    1  A    between atoms: C_2  and  N_3
REMARK    2  A    between atoms: C_2  and  C_23
REMARK    3  A    between atoms: C_4  and  C_6
REMARK    4  A    between atoms: C_8  and  N_9
REMARK    5  A    between atoms: C_10  and  C_12
REMARK                            x       y       z     vdW  Elec       q    Type
REMARK                         _______ _______ _______ _____ _____    ______ ____
ROOT
ATOM      6  C   UNL     1      -1.429  -1.650   0.000  0.00  0.00    +0.033 C 
ATOM      7  C   UNL     1      -1.429  -2.475   0.000  0.00  0.00    -0.002 C 
ATOM      8  C   UNL     1      -2.143  -2.888   0.000  0.00  0.00    +0.150 C 
ATOM     18  C   UNL     1      -2.858  -2.475   0.000  0.00  0.00    +0.206 C 
ATOM     19  O   UNL     1      -3.572  -2.888   0.000  0.00  0.00    -0.218 OA
ATOM     20  C   UNL     1      -2.858  -1.650   0.000  0.00  0.00    +0.189 C 
ATOM     21  O   UNL     1      -3.572  -1.238   0.000  0.00  0.00    -0.220 OA
ATOM     22  C   UNL     1      -2.143  -1.238   0.000  0.00  0.00    +0.066 C 
ENDROOT
BRANCH   6   4
ATOM      3  N   UNL     1       0.000  -1.650   0.000  0.00  0.00    -0.194 NA
ATOM      4  C   UNL     1      -0.715  -1.238   0.000  0.00  0.00    +0.261 C 
ATOM      5  O   UNL     1      -0.715  -0.412   0.000  0.00  0.00    -0.269 OA
BRANCH   3   2
ATOM      1  C   UNL     1       0.715  -0.412   0.000  0.00  0.00    +0.033 C 
ATOM      2  C   UNL     1       0.715  -1.238   0.000  0.00  0.00    +0.175 C 
BRANCH   2  23
ATOM     23  C   UNL     1       1.429  -1.650   0.000  0.00  0.00    +0.281 C 
ATOM     24  N   UNL     1       2.143  -1.238   0.000  0.00  0.00    -0.086 NA
ATOM     25  O   UNL     1       1.429  -2.475   0.000  0.00  0.00    -0.270 OA
ENDBRANCH   2  23
ENDBRANCH   3   2
ENDBRANCH   6   4
BRANCH   8   9
ATOM      9  N   UNL     1      -2.143  -3.712   0.000  0.00  0.00    -0.199 NA
ATOM     10  C   UNL     1      -2.858  -4.125   0.000  0.00  0.00    +0.258 C 
ATOM     11  O   UNL     1      -3.572  -3.712   0.000  0.00  0.00    -0.272 OA
BRANCH  10  12
ATOM     12  C   UNL     1      -2.858  -4.950   0.000  0.00  0.00    +0.153 C 
ATOM     13  C   UNL     1      -2.190  -5.435   0.000  0.00  0.00    +0.061 C 
ATOM     14  C   UNL     1      -2.445  -6.220   0.000  0.00  0.00    +0.171 C 
ATOM     15  O   UNL     1      -1.960  -6.887   0.000  0.00  0.00    -0.222 OA
ATOM     16  C   UNL     1      -3.270  -6.220   0.000  0.00  0.00    +0.122 C 
ATOM     17  N   UNL     1      -3.525  -5.435   0.000  0.00  0.00    -0.207 NA
ENDBRANCH  10  12
ENDBRANCH   8   9
TORSDOF 5
