REMARK  Name = 
REMARK  7 active torsions:
REMARK  status: ('A' for Active; 'I' for Inactive)
REMARK    1  A    between atoms: N_2  and  C_4
REMARK    2  A    between atoms: C_7  and  C_8
REMARK    3  A    between atoms: C_8  and  N_9
REMARK    4  A    between atoms: C_14  and  C_15
REMARK    5  A    between atoms: C_17  and  C_20
REMARK    6  A    between atoms: C_23  and  O_24
REMARK    7  A    between atoms: O_24  and  C_25
REMARK                            x       y       z     vdW  Elec       q    Type
REMARK                         _______ _______ _______ _____ _____    ______ ____
ROOT
ATOM      9  N   UNL     1      -0.596  -3.041   0.000  0.00  0.00    -0.260 NA
ATOM     10  C   UNL     1       0.072  -3.525   0.000  0.00  0.00    +0.106 C 
ATOM     11  C   UNL     1      -0.183  -4.310   0.000  0.00  0.00    +0.170 C 
ATOM     12  O   UNL     1       0.302  -4.977   0.000  0.00  0.00    -0.222 OA
ATOM     13  C   UNL     1      -1.008  -4.310   0.000  0.00  0.00    +0.060 C 
ATOM     14  C   UNL     1      -1.263  -3.525   0.000  0.00  0.00    +0.140 C 
ENDROOT
BRANCH  14  15
ATOM     15  C   UNL     1      -2.047  -3.270   0.000  0.00  0.00    +0.251 A 
ATOM     16  N   UNL     1      -2.715  -3.755   0.000  0.00  0.00    -0.190 NA
ATOM     17  C   UNL     1      -3.382  -3.270   0.000  0.00  0.00    +0.203 A 
ATOM     18  N   UNL     1      -3.127  -2.486   0.000  0.00  0.00    -0.056 NA
ATOM     19  O   UNL     1      -2.303  -2.486   0.000  0.00  0.00    -0.336 OA
BRANCH  17  20
ATOM     20  C   UNL     1      -4.167  -3.525   0.000  0.00  0.00    +0.039 A 
ATOM     21  C   UNL     1      -4.338  -4.332   0.000  0.00  0.00    +0.006 A 
ATOM     22  C   UNL     1      -5.123  -4.587   0.000  0.00  0.00    +0.037 A 
ATOM     23  C   UNL     1      -5.736  -4.035   0.000  0.00  0.00    +0.147 A 
ATOM     29  C   UNL     1      -5.565  -3.228   0.000  0.00  0.00    +0.037 A 
ATOM     30  C   UNL     1      -4.780  -2.973   0.000  0.00  0.00    +0.006 A 
BRANCH  23  24
ATOM     24  O   UNL     1      -6.521  -4.290   0.000  0.00  0.00    -0.404 OA
BRANCH  24  25
ATOM     25  C   UNL     1      -6.692  -5.097   0.000  0.00  0.00    +0.575 C 
ATOM     26  F   UNL     1      -6.864  -5.904   0.000  0.00  0.00    -0.133 F 
ATOM     27  F   UNL     1      -7.499  -4.926   0.000  0.00  0.00    -0.133 F 
ATOM     28  F   UNL     1      -5.885  -5.269   0.000  0.00  0.00    -0.133 F 
ENDBRANCH  24  25
ENDBRANCH  23  24
ENDBRANCH  17  20
ENDBRANCH  14  15
BRANCH   9   8
ATOM      8  C   UNL     1      -0.596  -2.216   0.000  0.00  0.00    +0.100 C 
BRANCH   8   7
ATOM      4  C   UNL     1       1.548  -0.978   0.000  0.00  0.00    +0.048 A 
ATOM      5  C   UNL     1       1.548  -1.803   0.000  0.00  0.00    +0.014 A 
ATOM      6  C   UNL     1       0.834  -2.216   0.000  0.00  0.00    -0.002 A 
ATOM      7  C   UNL     1       0.119  -1.803   0.000  0.00  0.00    -0.006 A 
ATOM     31  C   UNL     1       0.119  -0.978   0.000  0.00  0.00    -0.002 A 
ATOM     32  C   UNL     1       0.834  -0.566   0.000  0.00  0.00    +0.014 A 
BRANCH   4   2
ATOM      1  C   UNL     1       2.262   0.260   0.000  0.00  0.00    +0.112 C 
ATOM      2  N   UNL     1       2.262  -0.566   0.000  0.00  0.00    -0.304 N 
ATOM      3  C   UNL     1       2.977  -0.978   0.000  0.00  0.00    +0.112 C 
ENDBRANCH   4   2
ENDBRANCH   8   7
ENDBRANCH   9   8
TORSDOF 7
