REMARK  Name = 
REMARK  4 active torsions:
REMARK  status: ('A' for Active; 'I' for Inactive)
REMARK    1  A    between atoms: C_2  and  C_4
REMARK    2  A    between atoms: N_7  and  C_10
REMARK    3  A    between atoms: C_16  and  N_17
REMARK    4  A    between atoms: N_20  and  C_21
REMARK                            x       y       z     vdW  Elec       q    Type
REMARK                         _______ _______ _______ _____ _____    ______ ____
ROOT
ATOM     10  C   UNL     1       1.611  -0.930   0.000  0.00  0.00    +0.147 C 
ATOM     11  C   UNL     1       0.640  -0.930   0.000  0.00  0.00    +0.253 C 
ATOM     12  O   UNL     1       0.120  -1.643   0.000  0.00  0.00    -0.327 OA
ATOM     13  C   UNL     1       0.740  -1.266   0.000  0.00  0.00    +0.176 C 
ATOM     14  C   UNL     1       1.060  -0.557   0.000  0.00  0.00    +0.170 C 
ATOM     15  O   UNL     1       0.500  -0.117   0.000  0.00  0.00    -0.327 OA
ATOM     16  C   UNL     1       1.989  -0.542   0.000  0.00  0.00    +0.158 C 
ATOM     27  C   UNL     1       2.127  -1.359   0.000  0.00  0.00    +0.194 C 
ATOM     28  O   UNL     1       2.539  -2.074   0.000  0.00  0.00    -0.220 OA
ENDROOT
BRANCH  10   7
ATOM      4  C   UNL     1       0.771  -3.258   0.000  0.00  0.00    +0.083 C 
ATOM      5  C   UNL     1       0.239  -2.628   0.000  0.00  0.00    +0.027 C 
ATOM      6  C   UNL     1       0.519  -1.852   0.000  0.00  0.00    +0.073 C 
ATOM      7  N   UNL     1       1.331  -1.706   0.000  0.00  0.00    -0.268 NA
ATOM      8  C   UNL     1       1.863  -2.337   0.000  0.00  0.00    +0.073 C 
ATOM      9  C   UNL     1       1.583  -3.113   0.000  0.00  0.00    +0.027 C 
BRANCH   4   2
ATOM      1  N   UNL     1       1.022  -4.665   0.000  0.00  0.00    -0.088 NA
ATOM      2  C   UNL     1       0.490  -4.034   0.000  0.00  0.00    +0.260 C 
ATOM      3  O   UNL     1      -0.322  -4.180   0.000  0.00  0.00    -0.272 OA
ENDBRANCH   4   2
ENDBRANCH  10   7
BRANCH  16  17
ATOM     17  N   UNL     1       2.517   0.093   0.000  0.00  0.00    -0.183 NA
ATOM     18  C   UNL     1       3.330  -0.046   0.000  0.00  0.00    +0.344 C 
ATOM     19  O   UNL     1       3.616  -0.820   0.000  0.00  0.00    -0.249 OA
ATOM     20  N   UNL     1       3.857   0.588   0.000  0.00  0.00    -0.161 NA
BRANCH  20  21
ATOM     21  C   UNL     1       4.670   0.449   0.000  0.00  0.00    +0.075 A 
ATOM     22  C   UNL     1       5.197   1.083   0.000  0.00  0.00    +0.017 A 
ATOM     23  C   UNL     1       6.011   0.944   0.000  0.00  0.00    +0.001 A 
ATOM     24  C   UNL     1       6.296   0.170   0.000  0.00  0.00    +0.000 A 
ATOM     25  C   UNL     1       5.769  -0.465   0.000  0.00  0.00    +0.001 A 
ATOM     26  C   UNL     1       4.956  -0.325   0.000  0.00  0.00    +0.017 A 
ENDBRANCH  20  21
ENDBRANCH  16  17
TORSDOF 4
