REMARK  Name = 
REMARK  6 active torsions:
REMARK  status: ('A' for Active; 'I' for Inactive)
REMARK    1  A    between atoms: N_4  and  C_5
REMARK    2  A    between atoms: C_5  and  C_6
REMARK    3  A    between atoms: C_6  and  C_7
REMARK    4  A    between atoms: C_11  and  C_12
REMARK    5  A    between atoms: C_14  and  N_15
REMARK    6  A    between atoms: N_18  and  C_19
REMARK                            x       y       z     vdW  Elec       q    Type
REMARK                         _______ _______ _______ _____ _____    ______ ____
ROOT
ATOM     12  C   UNL     1       2.206  -4.803   0.000  0.00  0.00    +0.048 C 
ATOM     13  C   UNL     1       1.538  -5.287   0.000  0.00  0.00    +0.035 C 
ATOM     14  C   UNL     1       0.871  -4.803   0.000  0.00  0.00    +0.119 C 
ATOM     26  C   UNL     1       1.126  -4.018   0.000  0.00  0.00    -0.009 C 
ATOM     27  C   UNL     1       1.951  -4.018   0.000  0.00  0.00    -0.025 C 
ENDROOT
BRANCH  12  11
ATOM      1  C   UNL     1       3.658  -3.748   0.000  0.00  0.00    +0.054 C 
ATOM      2  C   UNL     1       3.658  -4.572   0.000  0.00  0.00    +0.076 A 
ATOM      3  N   UNL     1       4.325  -5.057   0.000  0.00  0.00    -0.174 NA
ATOM      4  N   UNL     1       4.070  -5.842   0.000  0.00  0.00    -0.254 N 
ATOM      9  C   UNL     1       3.245  -5.842   0.000  0.00  0.00    +0.053 A 
ATOM     10  C   UNL     1       2.760  -6.510   0.000  0.00  0.00    +0.051 C 
ATOM     11  C   UNL     1       2.990  -5.057   0.000  0.00  0.00    +0.010 A 
BRANCH   4   5
ATOM      5  C   UNL     1       4.555  -6.510   0.000  0.00  0.00    +0.143 C 
BRANCH   5   6
ATOM      6  C   UNL     1       5.375  -6.423   0.000  0.00  0.00    +0.132 C 
BRANCH   6   7
ATOM      7  C   UNL     1       5.860  -7.091   0.000  0.00  0.00    +0.075 C 
ATOM      8  N   UNL     1       6.345  -7.758   0.000  0.00  0.00    -0.196 NA
ENDBRANCH   6   7
ENDBRANCH   5   6
ENDBRANCH   4   5
ENDBRANCH  12  11
BRANCH  14  15
ATOM     15  N   UNL     1       0.086  -5.057   0.000  0.00  0.00    -0.184 NA
ATOM     16  C   UNL     1      -0.527  -4.505   0.000  0.00  0.00    +0.344 C 
ATOM     17  O   UNL     1      -0.355  -3.698   0.000  0.00  0.00    -0.249 OA
ATOM     18  N   UNL     1      -1.312  -4.760   0.000  0.00  0.00    -0.161 NA
BRANCH  18  19
ATOM     19  C   UNL     1      -1.925  -4.208   0.000  0.00  0.00    +0.075 A 
ATOM     20  C   UNL     1      -2.709  -4.463   0.000  0.00  0.00    +0.018 A 
ATOM     21  C   UNL     1      -3.322  -3.911   0.000  0.00  0.00    +0.013 A 
ATOM     22  C   UNL     1      -3.151  -3.104   0.000  0.00  0.00    +0.058 A 
ATOM     23 CL   UNL     1      -3.764  -2.552   0.000  0.00  0.00    -0.082 Cl
ATOM     24  C   UNL     1      -2.366  -2.849   0.000  0.00  0.00    +0.013 A 
ATOM     25  C   UNL     1      -1.753  -3.401   0.000  0.00  0.00    +0.018 A 
ENDBRANCH  18  19
ENDBRANCH  14  15
TORSDOF 6
