REMARK  Name = 
REMARK  6 active torsions:
REMARK  status: ('A' for Active; 'I' for Inactive)
REMARK    1  A    between atoms: C_2  and  C_4
REMARK    2  A    between atoms: C_8  and  C_10
REMARK    3  A    between atoms: C_21  and  N_22
REMARK    4  A    between atoms: C_23  and  C_25
REMARK    5  A    between atoms: C_25  and  O_26
REMARK    6  A    between atoms: O_26  and  C_27
REMARK                            x       y       z     vdW  Elec       q    Type
REMARK                         _______ _______ _______ _____ _____    ______ ____
ROOT
ATOM     10  C   UNL     1       0.125  -2.547   0.000  0.00  0.00    +0.249 C 
ATOM     11  O   UNL     1      -0.614  -2.179   0.000  0.00  0.00    -0.270 OA
ATOM     12  N   UNL     1       0.813  -2.091   0.000  0.00  0.00    -0.276 N 
ATOM     13  C   UNL     1       1.629  -1.912   0.000  0.00  0.00    +0.096 C 
ATOM     14  C   UNL     1       1.582  -0.925   0.000  0.00  0.00    +0.043 C 
ATOM     15  C   UNL     1       1.713  -0.121   0.000  0.00  0.00    +0.011 C 
ATOM     16  C   UNL     1       1.163  -0.557   0.000  0.00  0.00    +0.058 C 
ATOM     17  C   UNL     1       1.225  -1.510   0.000  0.00  0.00    +0.099 C 
ATOM     18  C   UNL     1       0.244  -0.558   0.000  0.00  0.00    +0.041 A 
ATOM     19  C   UNL     1      -0.397  -0.039   0.000  0.00  0.00    +0.014 A 
ATOM     20  C   UNL     1      -1.167  -0.335   0.000  0.00  0.00    +0.023 A 
ATOM     21  C   UNL     1      -1.296  -1.150   0.000  0.00  0.00    +0.129 A 
ATOM     33  C   UNL     1      -0.655  -1.669   0.000  0.00  0.00    +0.276 A 
ATOM     34  O   UNL     1      -1.029  -2.404   0.000  0.00  0.00    -0.266 OA
ATOM     35  N   UNL     1       0.115  -1.373   0.000  0.00  0.00    -0.298 N 
ATOM     36  C   UNL     1       0.622  -0.936   0.000  0.00  0.00    +0.110 C 
ENDROOT
BRANCH  10   8
ATOM      4  C   UNL     1       0.965  -4.562   0.000  0.00  0.00    +0.080 A 
ATOM      5  C   UNL     1       0.277  -5.017   0.000  0.00  0.00    +0.007 A 
ATOM      6  C   UNL     1      -0.461  -4.650   0.000  0.00  0.00    +0.000 A 
ATOM      7  C   UNL     1      -0.512  -3.826   0.000  0.00  0.00    +0.005 A 
ATOM      8  C   UNL     1       0.176  -3.370   0.000  0.00  0.00    +0.054 A 
ATOM      9  C   UNL     1       0.914  -3.738   0.000  0.00  0.00    +0.011 A 
BRANCH   4   2
ATOM      1  O   UNL     1       1.754  -5.753   0.000  0.00  0.00    -0.241 OA
ATOM      2  C   UNL     1       1.703  -4.929   0.000  0.00  0.00    +0.388 C 
ATOM      3  O   UNL     1       2.391  -4.474   0.000  0.00  0.00    -0.241 OA
ENDBRANCH   4   2
ENDBRANCH  10   8
BRANCH  21  22
ATOM     22  N   UNL     1      -2.066  -1.445   0.000  0.00  0.00    -0.171 NA
ATOM     23  C   UNL     1      -2.707  -0.926   0.000  0.00  0.00    +0.290 C 
ATOM     24  O   UNL     1      -3.478  -1.222   0.000  0.00  0.00    -0.269 OA
BRANCH  23  25
ATOM     25  C   UNL     1      -2.578  -0.111   0.000  0.00  0.00    +0.291 C 
BRANCH  25  26
ATOM     26  O   UNL     1      -3.220   0.408   0.000  0.00  0.00    -0.466 OA
BRANCH  26  27
ATOM     27  C   UNL     1      -3.091   1.223   0.000  0.00  0.00    +0.139 A 
ATOM     28  C   UNL     1      -3.732   1.742   0.000  0.00  0.00    +0.037 A 
ATOM     29  C   UNL     1      -3.603   2.557   0.000  0.00  0.00    +0.003 A 
ATOM     30  C   UNL     1      -2.833   2.852   0.000  0.00  0.00    +0.000 A 
ATOM     31  C   UNL     1      -2.192   2.333   0.000  0.00  0.00    +0.003 A 
ATOM     32  C   UNL     1      -2.321   1.518   0.000  0.00  0.00    +0.037 A 
ENDBRANCH  26  27
ENDBRANCH  25  26
ENDBRANCH  23  25
ENDBRANCH  21  22
TORSDOF 6
