REMARK  Name = 
REMARK  2 active torsions:
REMARK  status: ('A' for Active; 'I' for Inactive)
REMARK    1  A    between atoms: S_2  and  N_5
REMARK    2  A    between atoms: C_12  and  C_19
REMARK                            x       y       z     vdW  Elec       q    Type
REMARK                         _______ _______ _______ _____ _____    ______ ____
ROOT
ATOM      5  N   UNL     1       0.813  -2.091   0.000  0.00  0.00    -0.159 NA
ATOM      6  C   UNL     1       1.629  -1.912   0.000  0.00  0.00    +0.097 C 
ATOM      7  C   UNL     1       1.582  -0.925   0.000  0.00  0.00    +0.041 C 
ATOM      8  C   UNL     1       1.713  -0.121   0.000  0.00  0.00    +0.011 C 
ATOM      9  C   UNL     1       1.163  -0.557   0.000  0.00  0.00    +0.056 C 
ATOM     10  C   UNL     1       1.225  -1.510   0.000  0.00  0.00    +0.101 C 
ATOM     11  C   UNL     1       0.244  -0.558   0.000  0.00  0.00    +0.041 A 
ATOM     12  C   UNL     1      -0.397  -0.039   0.000  0.00  0.00    +0.018 A 
ATOM     13  C   UNL     1      -1.167  -0.335   0.000  0.00  0.00    +0.006 A 
ATOM     14  C   UNL     1      -1.296  -1.150   0.000  0.00  0.00    +0.061 A 
ATOM     15  C   UNL     1      -0.655  -1.669   0.000  0.00  0.00    +0.261 A 
ATOM     16  O   UNL     1      -0.784  -2.484   0.000  0.00  0.00    -0.267 OA
ATOM     17  N   UNL     1       0.115  -1.373   0.000  0.00  0.00    -0.299 N 
ATOM     18  C   UNL     1       0.622  -0.936   0.000  0.00  0.00    +0.110 C 
ENDROOT
BRANCH  12  19
ATOM     19  C   UNL     1      -0.268   0.776   0.000  0.00  0.00    +0.031 A 
ATOM     20  C   UNL     1       0.467   1.151   0.000  0.00  0.00    +0.007 A 
ATOM     21  C   UNL     1       0.338   1.965   0.000  0.00  0.00    +0.006 A 
ATOM     22  C   UNL     1      -0.477   2.094   0.000  0.00  0.00    +0.029 A 
ATOM     23  S   UNL     1      -0.851   1.359   0.000  0.00  0.00    -0.087 S 
ATOM     24  C   UNL     1      -0.773   2.864   0.000  0.00  0.00    +0.006 A 
ATOM     25  C   UNL     1      -0.254   3.506   0.000  0.00  0.00    +0.001 A 
ATOM     26  C   UNL     1       0.561   3.377   0.000  0.00  0.00    +0.000 A 
ATOM     27  C   UNL     1       0.857   2.607   0.000  0.00  0.00    +0.001 A 
ENDBRANCH  12  19
BRANCH   5   2
ATOM      1  C   UNL     1      -0.563  -3.003   0.000  0.00  0.00    +0.196 C 
ATOM      2  S   UNL     1       0.125  -2.547   0.000  0.00  0.00    +0.046 S 
ATOM      3  O   UNL     1       0.581  -3.235   0.000  0.00  0.00    -0.157 OA
ATOM      4  O   UNL     1      -0.331  -1.859   0.000  0.00  0.00    -0.157 OA
ENDBRANCH   5   2
TORSDOF 2
