REMARK  Name = 
REMARK  7 active torsions:
REMARK  status: ('A' for Active; 'I' for Inactive)
REMARK    1  A    between atoms: C_2  and  C_5
REMARK    2  A    between atoms: C_5  and  C_6
REMARK    3  A    between atoms: N_8  and  C_9
REMARK    4  A    between atoms: C_9  and  C_10
REMARK    5  A    between atoms: C_13  and  N_14
REMARK    6  A    between atoms: N_14  and  C_15
REMARK    7  A    between atoms: C_15  and  C_16
REMARK                            x       y       z     vdW  Elec       q    Type
REMARK                         _______ _______ _______ _____ _____    ______ ____
ROOT
ATOM     10  C   UNL     1       2.318  -1.961   0.000  0.00  0.00    +0.169 C 
ATOM     11  O   UNL     1       2.986  -2.446   0.000  0.00  0.00    -0.350 OA
ATOM     12  C   UNL     1       2.731  -3.231   0.000  0.00  0.00    +0.162 C 
ATOM     13  C   UNL     1       1.906  -3.231   0.000  0.00  0.00    +0.135 C 
ATOM     21  C   UNL     1       1.651  -2.446   0.000  0.00  0.00    +0.199 C 
ATOM     22  O   UNL     1       0.866  -2.191   0.000  0.00  0.00    -0.219 OA
ENDROOT
BRANCH  10   9
ATOM      9  C   UNL     1       2.318  -1.136   0.000  0.00  0.00    +0.147 C 
BRANCH   9   8
ATOM      6  C   UNL     1       3.033   0.101   0.000  0.00  0.00    +0.241 C 
ATOM      7  O   UNL     1       2.318   0.514   0.000  0.00  0.00    -0.273 OA
ATOM      8  N   UNL     1       3.033  -0.724   0.000  0.00  0.00    -0.203 NA
BRANCH   6   5
ATOM      5  C   UNL     1       3.747   0.514   0.000  0.00  0.00    +0.087 C 
BRANCH   5   2
ATOM      1  C   UNL     1       3.747   2.164   0.000  0.00  0.00    +0.000 C 
ATOM      2  C   UNL     1       3.747   1.339   0.000  0.00  0.00    +0.009 C 
ATOM      3  C   UNL     1       2.922   1.339   0.000  0.00  0.00    +0.000 C 
ATOM      4  C   UNL     1       4.572   1.339   0.000  0.00  0.00    +0.000 C 
ENDBRANCH   5   2
ENDBRANCH   6   5
ENDBRANCH   9   8
ENDBRANCH  10   9
BRANCH  13  14
ATOM     14  N   UNL     1       1.421  -3.898   0.000  0.00  0.00    -0.209 NA
BRANCH  14  15
ATOM     15  C   UNL     1       1.756  -4.652   0.000  0.00  0.00    +0.122 C 
BRANCH  15  16
ATOM     16  C   UNL     1       1.272  -5.319   0.000  0.00  0.00    +0.025 A 
ATOM     17  C   UNL     1       1.526  -6.104   0.000  0.00  0.00    +0.004 A 
ATOM     18  C   UNL     1       0.859  -6.589   0.000  0.00  0.00    +0.007 A 
ATOM     19  C   UNL     1       0.192  -6.104   0.000  0.00  0.00    +0.035 A 
ATOM     20  S   UNL     1       0.447  -5.319   0.000  0.00  0.00    -0.089 S 
ENDBRANCH  15  16
ENDBRANCH  14  15
ENDBRANCH  13  14
TORSDOF 7
