REMARK  Name = 
REMARK  6 active torsions:
REMARK  status: ('A' for Active; 'I' for Inactive)
REMARK    1  A    between atoms: C_2  and  C_22
REMARK    2  A    between atoms: C_9  and  N_10
REMARK    3  A    between atoms: C_11  and  C_13
REMARK    4  A    between atoms: C_13  and  O_14
REMARK    5  A    between atoms: C_22  and  C_24
REMARK    6  A    between atoms: N_26  and  C_27
REMARK                            x       y       z     vdW  Elec       q    Type
REMARK                         _______ _______ _______ _____ _____    ______ ____
ROOT
ATOM      1  C   UNL     1      -4.287   2.475   0.000  0.00  0.00    +0.052 C 
ATOM      2  C   UNL     1      -4.287   3.300   0.000  0.00  0.00    -0.001 C 
ATOM      3  C   UNL     1      -3.572   3.712   0.000  0.00  0.00    -0.000 C 
ATOM      4  C   UNL     1      -2.858   3.300   0.000  0.00  0.00    -0.001 C 
ATOM      5  C   UNL     1      -2.858   4.125   0.000  0.00  0.00    -0.000 C 
ATOM      6  C   UNL     1      -2.143   3.712   0.000  0.00  0.00    +0.002 C 
ATOM      7  C   UNL     1      -1.429   3.300   0.000  0.00  0.00    +0.022 C 
ATOM      8  C   UNL     1      -1.429   2.475   0.000  0.00  0.00    +0.095 C 
ATOM     15  C   UNL     1      -2.143   2.062   0.000  0.00  0.00    +0.019 C 
ATOM     16  C   UNL     1      -2.143   1.238   0.000  0.00  0.00    +0.002 C 
ATOM     17  C   UNL     1      -2.858   2.475   0.000  0.00  0.00    +0.045 C 
ATOM     18  C   UNL     1      -3.572   2.062   0.000  0.00  0.00    +0.145 C 
ATOM     19  O   UNL     1      -3.572   1.238   0.000  0.00  0.00    -0.224 OA
ENDROOT
BRANCH   8   9
ATOM      9  N   UNL     1      -0.715   2.062   0.000  0.00  0.00    -0.205 NA
ATOM     10  C   UNL     1       0.000   2.475   0.000  0.00  0.00    +0.272 C 
ATOM     11  O   UNL     1       0.000   3.300   0.000  0.00  0.00    -0.271 OA
BRANCH  10  12
ATOM     12  C   UNL     1       0.715   2.062   0.000  0.00  0.00    +0.229 C 
BRANCH  12  13
ATOM     13  O   UNL     1       1.429   2.475   0.000  0.00  0.00    -0.342 OA
ATOM     14  C   UNL     1       2.143   2.062   0.000  0.00  0.00    +0.175 C 
ENDBRANCH  12  13
ENDBRANCH  10  12
ENDBRANCH   8   9
BRANCH   1  20
ATOM     20  C   UNL     1      -5.001   2.062   0.000  0.00  0.00    +0.077 C 
ATOM     21  C   UNL     1      -5.001   1.238   0.000  0.00  0.00    +0.009 C 
BRANCH  20  22
ATOM     22  C   UNL     1      -5.716   2.475   0.000  0.00  0.00    +0.241 C 
ATOM     23  O   UNL     1      -5.716   3.300   0.000  0.00  0.00    -0.273 OA
ATOM     24  N   UNL     1      -6.430   2.062   0.000  0.00  0.00    -0.207 NA
BRANCH  24  25
ATOM     25  C   UNL     1      -7.145   2.475   0.000  0.00  0.00    +0.095 C 
ATOM     26  C   UNL     1      -7.970   2.475   0.000  0.00  0.00    +0.023 C 
ATOM     27  C   UNL     1      -7.557   3.189   0.000  0.00  0.00    +0.023 C 
ENDBRANCH  24  25
ENDBRANCH  20  22
ENDBRANCH   1  20
TORSDOF 6
