REMARK  Name = 
REMARK  6 active torsions:
REMARK  status: ('A' for Active; 'I' for Inactive)
REMARK    1  A    between atoms: O_2  and  C_3
REMARK    2  A    between atoms: C_3  and  C_5
REMARK    3  A    between atoms: C_10  and  C_12
REMARK    4  A    between atoms: C_13  and  N_25
REMARK    5  A    between atoms: C_17  and  C_19
REMARK    6  A    between atoms: N_28  and  C_29
REMARK                            x       y       z     vdW  Elec       q    Type
REMARK                         _______ _______ _______ _____ _____    ______ ____
ROOT
ATOM     12  C   UNL     1      -3.078  -3.693   0.000  0.00  0.00    +0.172 C 
ATOM     13  C   UNL     1      -2.324  -4.028   0.000  0.00  0.00    +0.126 C 
ATOM     14  C   UNL     1      -2.410  -4.849   0.000  0.00  0.00    +0.045 C 
ATOM     15  C   UNL     1      -3.217  -5.020   0.000  0.00  0.00    +0.096 C 
ATOM     16  N   UNL     1      -3.630  -4.306   0.000  0.00  0.00    -0.267 N 
ATOM     17  C   UNL     1      -4.450  -4.220   0.000  0.00  0.00    +0.265 C 
ATOM     18  O   UNL     1      -4.786  -3.466   0.000  0.00  0.00    -0.268 OA
ENDROOT
BRANCH  12  10
ATOM      5  C   UNL     1      -2.723  -1.513   0.000  0.00  0.00    +0.175 C 
ATOM      6  C   UNL     1      -1.969  -1.178   0.000  0.00  0.00    +0.033 C 
ATOM      7  C   UNL     1      -1.417  -1.791   0.000  0.00  0.00    +0.024 C 
ATOM      8  C   UNL     1      -1.829  -2.505   0.000  0.00  0.00    +0.094 C 
ATOM      9  N   UNL     1      -2.636  -2.334   0.000  0.00  0.00    -0.270 N 
ATOM     10  C   UNL     1      -3.249  -2.886   0.000  0.00  0.00    +0.246 C 
ATOM     11  O   UNL     1      -4.034  -2.631   0.000  0.00  0.00    -0.273 OA
BRANCH   5   3
ATOM      3  C   UNL     1      -3.437  -1.101   0.000  0.00  0.00    +0.335 C 
ATOM      4  O   UNL     1      -4.152  -1.513   0.000  0.00  0.00    -0.248 OA
BRANCH   3   2
ATOM      1  C   UNL     1      -4.152   0.137   0.000  0.00  0.00    +0.256 C 
ATOM      2  O   UNL     1      -3.437  -0.276   0.000  0.00  0.00    -0.443 OA
ENDBRANCH   3   2
ENDBRANCH   5   3
ENDBRANCH  12  10
BRANCH  17  19
ATOM     19  C   UNL     1      -4.935  -4.887   0.000  0.00  0.00    +0.114 A 
ATOM     20  C   UNL     1      -4.680  -5.671   0.000  0.00  0.00    +0.023 A 
ATOM     21  C   UNL     1      -5.348  -6.156   0.000  0.00  0.00    +0.020 A 
ATOM     22  C   UNL     1      -6.015  -5.671   0.000  0.00  0.00    +0.076 A 
ATOM     23  N   UNL     1      -5.760  -4.887   0.000  0.00  0.00    -0.320 N 
ATOM     24  C   UNL     1      -6.245  -4.220   0.000  0.00  0.00    +0.131 C 
ENDBRANCH  17  19
BRANCH  13  25
ATOM     25  N   UNL     1      -1.610  -3.616   0.000  0.00  0.00    -0.187 NA
ATOM     26  C   UNL     1      -0.895  -4.028   0.000  0.00  0.00    +0.339 C 
ATOM     27  O   UNL     1      -0.895  -4.853   0.000  0.00  0.00    -0.249 OA
ATOM     28  N   UNL     1      -0.181  -3.616   0.000  0.00  0.00    -0.189 NA
BRANCH  28  29
ATOM     29  C   UNL     1       0.534  -4.028   0.000  0.00  0.00    +0.097 C 
ATOM     30  C   UNL     1       1.248  -3.616   0.000  0.00  0.00    +0.023 C 
ATOM     31  C   UNL     1       0.534  -4.853   0.000  0.00  0.00    +0.023 C 
ENDBRANCH  28  29
ENDBRANCH  13  25
TORSDOF 6
