REMARK  Name = 
REMARK  6 active torsions:
REMARK  status: ('A' for Active; 'I' for Inactive)
REMARK    1  A    between atoms: O_2  and  C_3
REMARK    2  A    between atoms: C_6  and  C_9
REMARK    3  A    between atoms: C_15  and  C_17
REMARK    4  A    between atoms: N_19  and  C_20
REMARK    5  A    between atoms: C_27  and  C_29
REMARK    6  A    between atoms: C_32  and  O_33
REMARK                            x       y       z     vdW  Elec       q    Type
REMARK                         _______ _______ _______ _____ _____    ______ ____
ROOT
ATOM      9  C   UNL     1       5.001  -3.712   0.000  0.00  0.00    +0.249 C 
ATOM     10  O   UNL     1       5.716  -4.125   0.000  0.00  0.00    -0.270 OA
ATOM     11  N   UNL     1       4.287  -4.125   0.000  0.00  0.00    -0.272 N 
ATOM     12  C   UNL     1       3.572  -3.712   0.000  0.00  0.00    +0.115 C 
ATOM     13  C   UNL     1       2.858  -4.125   0.000  0.00  0.00    +0.116 C 
ATOM     14  N   UNL     1       2.858  -4.950   0.000  0.00  0.00    -0.266 N 
ATOM     15  C   UNL     1       3.572  -5.362   0.000  0.00  0.00    +0.174 C 
ATOM     16  C   UNL     1       4.287  -4.950   0.000  0.00  0.00    +0.123 C 
ATOM     27  C   UNL     1       2.143  -5.362   0.000  0.00  0.00    +0.249 C 
ATOM     28  O   UNL     1       2.143  -6.188   0.000  0.00  0.00    -0.270 OA
ENDROOT
BRANCH   9   6
ATOM      3  C   UNL     1       5.001  -1.238   0.000  0.00  0.00    +0.139 A 
ATOM      4  C   UNL     1       5.716  -1.650   0.000  0.00  0.00    +0.037 A 
ATOM      5  C   UNL     1       5.716  -2.475   0.000  0.00  0.00    +0.008 A 
ATOM      6  C   UNL     1       5.001  -2.888   0.000  0.00  0.00    +0.054 A 
ATOM      7  C   UNL     1       4.287  -2.475   0.000  0.00  0.00    +0.008 A 
ATOM      8  C   UNL     1       4.287  -1.650   0.000  0.00  0.00    +0.037 A 
BRANCH   3   2
ATOM      1  C   UNL     1       4.287   0.000   0.000  0.00  0.00    +0.252 C 
ATOM      2  O   UNL     1       5.001  -0.412   0.000  0.00  0.00    -0.471 OA
ENDBRANCH   3   2
ENDBRANCH   9   6
BRANCH  27  29
ATOM     29  C   UNL     1       1.429  -4.950   0.000  0.00  0.00    +0.054 A 
ATOM     30  C   UNL     1       0.715  -5.362   0.000  0.00  0.00    +0.008 A 
ATOM     31  C   UNL     1       0.000  -4.950   0.000  0.00  0.00    +0.037 A 
ATOM     32  C   UNL     1       0.000  -4.125   0.000  0.00  0.00    +0.139 A 
ATOM     35  C   UNL     1       0.715  -3.712   0.000  0.00  0.00    +0.037 A 
ATOM     36  C   UNL     1       1.429  -4.125   0.000  0.00  0.00    +0.008 A 
BRANCH  32  33
ATOM     33  O   UNL     1      -0.715  -3.712   0.000  0.00  0.00    -0.471 OA
ATOM     34  C   UNL     1      -1.429  -4.125   0.000  0.00  0.00    +0.252 C 
ENDBRANCH  32  33
ENDBRANCH  27  29
BRANCH  15  17
ATOM     17  C   UNL     1       3.572  -6.188   0.000  0.00  0.00    +0.262 C 
ATOM     18  O   UNL     1       2.858  -6.600   0.000  0.00  0.00    -0.271 OA
ATOM     19  N   UNL     1       4.287  -6.600   0.000  0.00  0.00    -0.196 NA
BRANCH  19  20
ATOM     20  C   UNL     1       5.001  -6.188   0.000  0.00  0.00    +0.173 C 
ATOM     21  C   UNL     1       5.001  -5.362   0.000  0.00  0.00    +0.033 C 
ATOM     22  C   UNL     1       5.716  -4.950   0.000  0.00  0.00    +0.026 C 
ATOM     23  C   UNL     1       6.430  -5.362   0.000  0.00  0.00    +0.115 C 
ATOM     24  N   UNL     1       6.430  -6.188   0.000  0.00  0.00    -0.204 NA
ATOM     25  C   UNL     1       5.716  -6.600   0.000  0.00  0.00    +0.261 C 
ATOM     26  O   UNL     1       5.716  -7.425   0.000  0.00  0.00    -0.271 OA
ENDBRANCH  19  20
ENDBRANCH  15  17
TORSDOF 6
