REMARK  Name = 
REMARK  9 active torsions:
REMARK  status: ('A' for Active; 'I' for Inactive)
REMARK    1  A    between atoms: S_2  and  C_5
REMARK    2  A    between atoms: C_5  and  C_6
REMARK    3  A    between atoms: C_6  and  C_7
REMARK    4  A    between atoms: C_7  and  N_8
REMARK    5  A    between atoms: C_7  and  C_25
REMARK    6  A    between atoms: C_9  and  C_11
REMARK    7  A    between atoms: C_13  and  N_14
REMARK    8  A    between atoms: C_15  and  C_17
REMARK    9  A    between atoms: C_17  and  C_18
REMARK                            x       y       z     vdW  Elec       q    Type
REMARK                         _______ _______ _______ _____ _____    ______ ____
ROOT
ATOM     11  C   UNL     1       0.715  -2.888   0.000  0.00  0.00    +0.033 C 
ATOM     12  C   UNL     1       0.715  -3.712   0.000  0.00  0.00    -0.002 C 
ATOM     13  C   UNL     1       0.000  -4.125   0.000  0.00  0.00    +0.150 C 
ATOM     20  C   UNL     1      -0.715  -3.712   0.000  0.00  0.00    +0.206 C 
ATOM     21  O   UNL     1      -1.429  -4.125   0.000  0.00  0.00    -0.218 OA
ATOM     22  C   UNL     1      -0.715  -2.888   0.000  0.00  0.00    +0.189 C 
ATOM     23  O   UNL     1      -1.429  -2.475   0.000  0.00  0.00    -0.220 OA
ATOM     24  C   UNL     1       0.000  -2.475   0.000  0.00  0.00    +0.066 C 
ENDROOT
BRANCH  11   9
ATOM      8  N   UNL     1       1.429  -1.650   0.000  0.00  0.00    -0.194 NA
ATOM      9  C   UNL     1       1.429  -2.475   0.000  0.00  0.00    +0.261 C 
ATOM     10  O   UNL     1       2.143  -2.888   0.000  0.00  0.00    -0.269 OA
BRANCH   8   7
ATOM      7  C   UNL     1       2.143  -1.238   0.000  0.00  0.00    +0.176 C 
BRANCH   7  25
ATOM     25  C   UNL     1       2.858  -1.650   0.000  0.00  0.00    +0.281 C 
ATOM     26  N   UNL     1       2.858  -2.475   0.000  0.00  0.00    -0.086 NA
ATOM     27  O   UNL     1       3.572  -1.238   0.000  0.00  0.00    -0.270 OA
ENDBRANCH   7  25
BRANCH   7   6
ATOM      6  C   UNL     1       2.143  -0.412   0.000  0.00  0.00    +0.056 C 
BRANCH   6   5
ATOM      5  C   UNL     1       2.858   0.000   0.000  0.00  0.00    +0.153 C 
BRANCH   5   2
ATOM      1  C   UNL     1       2.858   1.650   0.000  0.00  0.00    +0.176 C 
ATOM      2  S   UNL     1       2.858   0.825   0.000  0.00  0.00    -0.008 S 
ATOM      3  O   UNL     1       2.033   0.825   0.000  0.00  0.00    -0.173 OA
ATOM      4  O   UNL     1       3.683   0.825   0.000  0.00  0.00    -0.173 OA
ENDBRANCH   5   2
ENDBRANCH   6   5
ENDBRANCH   7   6
ENDBRANCH   8   7
ENDBRANCH  11   9
BRANCH  13  14
ATOM     14  N   UNL     1       0.000  -4.950   0.000  0.00  0.00    -0.200 NA
ATOM     15  C   UNL     1      -0.715  -5.362   0.000  0.00  0.00    +0.243 C 
ATOM     16  O   UNL     1      -1.429  -4.950   0.000  0.00  0.00    -0.273 OA
BRANCH  15  17
ATOM     17  C   UNL     1      -0.715  -6.188   0.000  0.00  0.00    +0.107 C 
BRANCH  17  18
ATOM     18  C   UNL     1      -1.429  -6.600   0.000  0.00  0.00    +0.119 C 
ATOM     19  N   UNL     1      -1.429  -7.425   0.000  0.00  0.00    -0.131 NA
ENDBRANCH  17  18
ENDBRANCH  15  17
ENDBRANCH  13  14
TORSDOF 9
