REMARK  Name = 
REMARK  1 active torsions:
REMARK  status: ('A' for Active; 'I' for Inactive)
REMARK    1  A    between atoms: C_5  and  N_8
REMARK                            x       y       z     vdW  Elec       q    Type
REMARK                         _______ _______ _______ _____ _____    ______ ____
ROOT
ATOM      8  N   UNL     1       3.352   1.935   0.000  0.00  0.00    -0.271 NA
ATOM      9  C   UNL     1       3.352   1.110   0.000  0.00  0.00    +0.094 C 
ATOM     10  C   UNL     1       2.638   0.698   0.000  0.00  0.00    +0.112 C 
ATOM     11  N   UNL     1       1.923   1.110   0.000  0.00  0.00    -0.260 N 
ATOM     12  C   UNL     1       1.923   1.935   0.000  0.00  0.00    +0.115 C 
ATOM     13  C   UNL     1       1.139   2.190   0.000  0.00  0.00    +0.138 C 
ATOM     14  N   UNL     1       0.654   1.523   0.000  0.00  0.00    -0.187 NA
ATOM     15  C   UNL     1       1.139   0.856   0.000  0.00  0.00    +0.323 C 
ATOM     16  O   UNL     1       0.884   0.071   0.000  0.00  0.00    -0.251 OA
ATOM     17  C   UNL     1       2.638   2.348   0.000  0.00  0.00    +0.094 C 
ENDROOT
BRANCH   8   5
ATOM      1  C   UNL     1       6.210   3.585   0.000  0.00  0.00    +0.090 C 
ATOM      2  N   UNL     1       5.496   3.173   0.000  0.00  0.00    -0.271 NA
ATOM      3  C   UNL     1       5.496   2.348   0.000  0.00  0.00    +0.074 C 
ATOM      4  C   UNL     1       4.781   1.935   0.000  0.00  0.00    +0.033 C 
ATOM      5  C   UNL     1       4.067   2.348   0.000  0.00  0.00    +0.060 C 
ATOM      6  C   UNL     1       4.067   3.173   0.000  0.00  0.00    +0.033 C 
ATOM      7  C   UNL     1       4.781   3.585   0.000  0.00  0.00    +0.074 C 
ENDBRANCH   8   5
TORSDOF 1
