REMARK  Name = 
REMARK  4 active torsions:
REMARK  status: ('A' for Active; 'I' for Inactive)
REMARK    1  A    between atoms: C_2  and  C_3
REMARK    2  A    between atoms: C_3  and  C_4
REMARK    3  A    between atoms: C_18  and  N_19
REMARK    4  A    between atoms: C_20  and  C_22
REMARK                            x       y       z     vdW  Elec       q    Type
REMARK                         _______ _______ _______ _____ _____    ______ ____
ROOT
ATOM      1  O   UNL     1       0.176  -3.370   0.000  0.00  0.00    -0.274 OA
ATOM      2  C   UNL     1       0.125  -2.547   0.000  0.00  0.00    +0.231 C 
ATOM      9  N   UNL     1       0.813  -2.091   0.000  0.00  0.00    -0.279 N 
ATOM     10  C   UNL     1       1.629  -1.912   0.000  0.00  0.00    +0.095 C 
ATOM     11  C   UNL     1       1.582  -0.925   0.000  0.00  0.00    +0.043 C 
ATOM     12  C   UNL     1       1.713  -0.121   0.000  0.00  0.00    +0.011 C 
ATOM     13  C   UNL     1       1.163  -0.557   0.000  0.00  0.00    +0.058 C 
ATOM     14  C   UNL     1       1.225  -1.510   0.000  0.00  0.00    +0.099 C 
ATOM     15  C   UNL     1       0.244  -0.558   0.000  0.00  0.00    +0.041 A 
ATOM     16  C   UNL     1      -0.397  -0.039   0.000  0.00  0.00    +0.014 A 
ATOM     17  C   UNL     1      -1.167  -0.335   0.000  0.00  0.00    +0.023 A 
ATOM     18  C   UNL     1      -1.296  -1.150   0.000  0.00  0.00    +0.130 A 
ATOM     27  C   UNL     1      -0.655  -1.669   0.000  0.00  0.00    +0.276 A 
ATOM     28  O   UNL     1      -1.238  -2.252   0.000  0.00  0.00    -0.266 OA
ATOM     29  N   UNL     1       0.115  -1.373   0.000  0.00  0.00    -0.298 N 
ATOM     30  C   UNL     1       0.622  -0.936   0.000  0.00  0.00    +0.110 C 
ENDROOT
BRANCH  18  19
ATOM     19  N   UNL     1      -2.066  -1.445   0.000  0.00  0.00    -0.170 NA
ATOM     20  C   UNL     1      -2.707  -0.926   0.000  0.00  0.00    +0.275 C 
ATOM     21  O   UNL     1      -2.578  -0.111   0.000  0.00  0.00    -0.267 OA
BRANCH  20  22
ATOM     22  C   UNL     1      -3.478  -1.222   0.000  0.00  0.00    +0.085 A 
ATOM     23  C   UNL     1      -4.169  -0.773   0.000  0.00  0.00    +0.012 A 
ATOM     24  C   UNL     1      -4.811  -1.292   0.000  0.00  0.00    +0.008 A 
ATOM     25  C   UNL     1      -4.515  -2.062   0.000  0.00  0.00    +0.036 A 
ATOM     26  S   UNL     1      -3.691  -2.019   0.000  0.00  0.00    -0.082 S 
ENDBRANCH  20  22
ENDBRANCH  18  19
BRANCH   2   3
ATOM      3  C   UNL     1      -0.614  -2.179   0.000  0.00  0.00    +0.118 C 
BRANCH   3   4
ATOM      4  C   UNL     1      -1.301  -2.635   0.000  0.00  0.00    +0.016 A 
ATOM      5  C   UNL     1      -2.074  -2.346   0.000  0.00  0.00    +0.003 A 
ATOM      6  C   UNL     1      -2.587  -2.992   0.000  0.00  0.00    +0.007 A 
ATOM      7  C   UNL     1      -2.132  -3.680   0.000  0.00  0.00    +0.035 A 
ATOM      8  S   UNL     1      -1.337  -3.459   0.000  0.00  0.00    -0.090 S 
ENDBRANCH   3   4
ENDBRANCH   2   3
TORSDOF 4
