REMARK  Name = 
REMARK  4 active torsions:
REMARK  status: ('A' for Active; 'I' for Inactive)
REMARK    1  A    between atoms: N_2  and  C_4
REMARK    2  A    between atoms: C_4  and  C_5
REMARK    3  A    between atoms: C_10  and  C_11
REMARK    4  A    between atoms: N_19  and  C_21
REMARK                            x       y       z     vdW  Elec       q    Type
REMARK                         _______ _______ _______ _____ _____    ______ ____
ROOT
ATOM     11  C   UNL     1      -1.296  -1.150   0.000  0.00  0.00    +0.056 A 
ATOM     12  C   UNL     1      -1.167  -0.335   0.000  0.00  0.00    +0.006 A 
ATOM     13  C   UNL     1      -0.397  -0.039   0.000  0.00  0.00    +0.013 A 
ATOM     14  C   UNL     1       0.244  -0.558   0.000  0.00  0.00    +0.041 A 
ATOM     15  C   UNL     1       1.163  -0.557   0.000  0.00  0.00    +0.054 C 
ATOM     16  C   UNL     1       1.713  -0.121   0.000  0.00  0.00    +0.011 C 
ATOM     17  C   UNL     1       1.582  -0.925   0.000  0.00  0.00    +0.039 C 
ATOM     18  C   UNL     1       1.629  -1.912   0.000  0.00  0.00    +0.074 C 
ATOM     19  N   UNL     1       0.813  -2.091   0.000  0.00  0.00    -0.273 NA
ATOM     20  C   UNL     1       1.225  -1.510   0.000  0.00  0.00    +0.078 C 
ATOM     30  C   UNL     1       0.622  -0.936   0.000  0.00  0.00    +0.110 C 
ATOM     31  N   UNL     1       0.115  -1.373   0.000  0.00  0.00    -0.299 N 
ATOM     32  C   UNL     1      -0.655  -1.669   0.000  0.00  0.00    +0.261 A 
ATOM     33  O   UNL     1      -1.507  -2.016   0.000  0.00  0.00    -0.267 OA
ENDROOT
BRANCH  19  21
ATOM     21  C   UNL     1       0.125  -2.547   0.000  0.00  0.00    +0.061 C 
ATOM     22  C   UNL     1       0.176  -3.370   0.000  0.00  0.00    +0.038 C 
ATOM     23  C   UNL     1      -0.512  -3.826   0.000  0.00  0.00    +0.095 C 
ATOM     24  N   UNL     1      -1.251  -3.458   0.000  0.00  0.00    -0.279 N 
ATOM     25  C   UNL     1      -1.301  -2.635   0.000  0.00  0.00    +0.095 C 
ATOM     26  C   UNL     1      -0.614  -2.179   0.000  0.00  0.00    +0.038 C 
ATOM     27  C   UNL     1      -1.768  -4.282   0.000  0.00  0.00    +0.226 C 
ATOM     28  C   UNL     1      -1.846  -5.119   0.000  0.00  0.00    +0.095 C 
ATOM     29  O   UNL     1      -2.481  -4.863   0.000  0.00  0.00    -0.275 OA
ENDBRANCH  19  21
BRANCH  11  10
ATOM      5  C   UNL     1      -2.195  -2.260   0.000  0.00  0.00    -0.006 A 
ATOM      6  C   UNL     1      -2.965  -2.556   0.000  0.00  0.00    -0.003 A 
ATOM      7  C   UNL     1      -3.606  -2.037   0.000  0.00  0.00    -0.000 A 
ATOM      8  C   UNL     1      -3.478  -1.222   0.000  0.00  0.00    -0.000 A 
ATOM      9  C   UNL     1      -2.707  -0.926   0.000  0.00  0.00    -0.000 A 
ATOM     10  C   UNL     1      -2.066  -1.445   0.000  0.00  0.00    +0.002 A 
BRANCH   5   4
ATOM      4  C   UNL     1      -1.898  -3.176   0.000  0.00  0.00    +0.099 C 
BRANCH   4   2
ATOM      1  C   UNL     1      -2.555  -4.483   0.000  0.00  0.00    +0.090 C 
ATOM      2  N   UNL     1      -2.614  -3.660   0.000  0.00  0.00    -0.267 NA
ATOM      3  C   UNL     1      -3.356  -3.299   0.000  0.00  0.00    +0.090 C 
ENDBRANCH   4   2
ENDBRANCH   5   4
ENDBRANCH  11  10
TORSDOF 4
