REMARK  Name = 
REMARK  12 active torsions:
REMARK  status: ('A' for Active; 'I' for Inactive)
REMARK    1  A    between atoms: C_5  and  S_7
REMARK    2  A    between atoms: S_7  and  N_10
REMARK    3  A    between atoms: N_10  and  C_11
REMARK    4  A    between atoms: C_15  and  C_17
REMARK    5  A    between atoms: N_19  and  C_20
REMARK    6  A    between atoms: C_20  and  C_21
REMARK    7  A    between atoms: C_20  and  C_28
REMARK    8  A    between atoms: C_21  and  C_22
REMARK    9  A    between atoms: C_31  and  C_33
REMARK   10  A    between atoms: C_33  and  S_34
REMARK   11  A    between atoms: S_34  and  C_35
REMARK   12  A    between atoms: C_35  and  C_36
REMARK                            x       y       z     vdW  Elec       q    Type
REMARK                         _______ _______ _______ _____ _____    ______ ____
ROOT
ATOM     11  C   UNL     1      -1.429  -4.950   0.000  0.00  0.00    +0.102 C 
ATOM     12  C   UNL     1      -1.429  -4.125   0.000  0.00  0.00    +0.041 C 
ATOM     13  C   UNL     1      -0.715  -3.712   0.000  0.00  0.00    +0.095 C 
ATOM     14  N   UNL     1       0.000  -4.125   0.000  0.00  0.00    -0.272 N 
ATOM     15  C   UNL     1       0.000  -4.950   0.000  0.00  0.00    +0.155 C 
ATOM     16  C   UNL     1      -0.715  -5.362   0.000  0.00  0.00    +0.049 C 
ATOM     31  C   UNL     1       0.715  -3.712   0.000  0.00  0.00    +0.237 C 
ATOM     32  O   UNL     1       0.715  -2.888   0.000  0.00  0.00    -0.274 OA
ENDROOT
BRANCH  15  17
ATOM     17  C   UNL     1       0.715  -5.362   0.000  0.00  0.00    +0.260 C 
ATOM     18  O   UNL     1       0.715  -6.188   0.000  0.00  0.00    -0.272 OA
ATOM     19  N   UNL     1       1.429  -4.950   0.000  0.00  0.00    -0.196 NA
BRANCH  19  20
ATOM     20  C   UNL     1       2.143  -5.362   0.000  0.00  0.00    +0.179 C 
BRANCH  20  28
ATOM     28  C   UNL     1       2.143  -6.188   0.000  0.00  0.00    +0.281 C 
ATOM     29  N   UNL     1       2.858  -6.600   0.000  0.00  0.00    -0.086 NA
ATOM     30  O   UNL     1       1.429  -6.600   0.000  0.00  0.00    -0.270 OA
ENDBRANCH  20  28
BRANCH  20  21
ATOM     21  C   UNL     1       2.858  -4.950   0.000  0.00  0.00    +0.057 C 
BRANCH  21  22
ATOM     22  C   UNL     1       3.572  -5.362   0.000  0.00  0.00    -0.020 A 
ATOM     23  C   UNL     1       4.287  -4.950   0.000  0.00  0.00    -0.004 A 
ATOM     24  C   UNL     1       5.001  -5.362   0.000  0.00  0.00    -0.000 A 
ATOM     25  C   UNL     1       5.001  -6.188   0.000  0.00  0.00    -0.000 A 
ATOM     26  C   UNL     1       4.287  -6.600   0.000  0.00  0.00    -0.000 A 
ATOM     27  C   UNL     1       3.572  -6.188   0.000  0.00  0.00    -0.004 A 
ENDBRANCH  21  22
ENDBRANCH  20  21
ENDBRANCH  19  20
ENDBRANCH  15  17
BRANCH  11  10
ATOM     10  N   UNL     1      -2.143  -5.362   0.000  0.00  0.00    -0.078 NA
BRANCH  10   7
ATOM      7  S   UNL     1      -2.858  -4.950   0.000  0.00  0.00    +0.095 S 
ATOM      8  O   UNL     1      -3.270  -5.665   0.000  0.00  0.00    -0.150 OA
ATOM      9  O   UNL     1      -2.445  -4.236   0.000  0.00  0.00    -0.150 OA
BRANCH   7   5
ATOM      1  C   UNL     1      -5.699  -4.346   0.000  0.00  0.00    +0.132 C 
ATOM      2  N   UNL     1      -4.878  -4.260   0.000  0.00  0.00    -0.305 N 
ATOM      3  C   UNL     1      -4.466  -3.546   0.000  0.00  0.00    +0.180 A 
ATOM      4  N   UNL     1      -3.659  -3.717   0.000  0.00  0.00    -0.204 NA
ATOM      5  C   UNL     1      -3.572  -4.537   0.000  0.00  0.00    +0.223 A 
ATOM      6  C   UNL     1      -4.326  -4.873   0.000  0.00  0.00    +0.117 A 
ENDBRANCH   7   5
ENDBRANCH  10   7
ENDBRANCH  11  10
BRANCH  31  33
ATOM     33  C   UNL     1       1.429  -4.125   0.000  0.00  0.00    +0.143 C 
BRANCH  33  34
ATOM     34  S   UNL     1       2.143  -3.712   0.000  0.00  0.00    -0.119 S 
BRANCH  34  35
ATOM     35  C   UNL     1       2.858  -4.125   0.000  0.00  0.00    +0.172 C 
BRANCH  35  36
ATOM     36  C   UNL     1       3.572  -3.712   0.000  0.00  0.00    +0.376 C 
ATOM     37  O   UNL     1       3.572  -2.888   0.000  0.00  0.00    -0.245 OA
ATOM     38  O   UNL     1       4.287  -4.125   0.000  0.00  0.00    -0.245 OA
ENDBRANCH  35  36
ENDBRANCH  34  35
ENDBRANCH  33  34
ENDBRANCH  31  33
TORSDOF 12
