REMARK  Name = 
REMARK  4 active torsions:
REMARK  status: ('A' for Active; 'I' for Inactive)
REMARK    1  A    between atoms: C_6  and  N_10
REMARK    2  A    between atoms: N_13  and  C_14
REMARK    3  A    between atoms: C_17  and  O_18
REMARK    4  A    between atoms: O_18  and  C_19
REMARK                            x       y       z     vdW  Elec       q    Type
REMARK                         _______ _______ _______ _____ _____    ______ ____
ROOT
ATOM     10  N   UNL     1       3.094   1.197   0.000  0.00  0.00    -0.184 NA
ATOM     11  C   UNL     1       3.901   1.369   0.000  0.00  0.00    +0.344 C 
ATOM     12  O   UNL     1       4.453   0.756   0.000  0.00  0.00    -0.249 OA
ATOM     13  N   UNL     1       4.156   2.153   0.000  0.00  0.00    -0.161 NA
ENDROOT
BRANCH  10   6
ATOM      1  O   UNL     1       1.015  -1.707   0.000  0.00  0.00    -0.218 OA
ATOM      2  C   UNL     1       1.270  -0.922   0.000  0.00  0.00    +0.211 C 
ATOM      3  C   UNL     1       0.785  -0.255   0.000  0.00  0.00    +0.178 C 
ATOM      4  O   UNL     1       1.270   0.412   0.000  0.00  0.00    -0.349 OA
ATOM      5  C   UNL     1       2.054   0.158   0.000  0.00  0.00    +0.167 C 
ATOM      6  C   UNL     1       2.839   0.412   0.000  0.00  0.00    +0.156 C 
ATOM      7  C   UNL     1       3.324  -0.255   0.000  0.00  0.00    +0.166 C 
ATOM      8  O   UNL     1       2.839  -0.922   0.000  0.00  0.00    -0.349 OA
ATOM      9  C   UNL     1       2.054  -0.667   0.000  0.00  0.00    +0.177 C 
ENDBRANCH  10   6
BRANCH  13  14
ATOM     14  C   UNL     1       4.963   2.325   0.000  0.00  0.00    +0.075 A 
ATOM     15  C   UNL     1       5.218   3.109   0.000  0.00  0.00    +0.020 A 
ATOM     16  C   UNL     1       6.024   3.281   0.000  0.00  0.00    +0.039 A 
ATOM     17  C   UNL     1       6.577   2.668   0.000  0.00  0.00    +0.145 A 
ATOM     25  C   UNL     1       6.322   1.883   0.000  0.00  0.00    +0.039 A 
ATOM     26  C   UNL     1       5.515   1.712   0.000  0.00  0.00    +0.020 A 
BRANCH  17  18
ATOM     18  O   UNL     1       7.383   2.839   0.000  0.00  0.00    -0.453 OA
BRANCH  18  19
ATOM     19  C   UNL     1       7.936   2.226   0.000  0.00  0.00    +0.145 A 
ATOM     20  C   UNL     1       8.742   2.398   0.000  0.00  0.00    +0.037 A 
ATOM     21  C   UNL     1       9.295   1.785   0.000  0.00  0.00    +0.003 A 
ATOM     22  C   UNL     1       9.040   1.000   0.000  0.00  0.00    +0.000 A 
ATOM     23  C   UNL     1       8.233   0.829   0.000  0.00  0.00    +0.003 A 
ATOM     24  C   UNL     1       7.681   1.442   0.000  0.00  0.00    +0.037 A 
ENDBRANCH  18  19
ENDBRANCH  17  18
ENDBRANCH  13  14
TORSDOF 4
