REMARK  Name = 
REMARK  1 active torsions:
REMARK  status: ('A' for Active; 'I' for Inactive)
REMARK    1  A    between atoms: N_7  and  C_11
REMARK                            x       y       z     vdW  Elec       q    Type
REMARK                         _______ _______ _______ _____ _____    ______ ____
ROOT
ATOM      1  O   UNL     1       0.884  -2.150   0.000  0.00  0.00    -0.251 OA
ATOM      2  C   UNL     1       1.139  -1.365   0.000  0.00  0.00    +0.323 C 
ATOM      3  N   UNL     1       0.654  -0.698   0.000  0.00  0.00    -0.187 NA
ATOM      4  C   UNL     1       1.139  -0.030   0.000  0.00  0.00    +0.138 C 
ATOM      5  C   UNL     1       1.923  -0.285   0.000  0.00  0.00    +0.115 C 
ATOM      6  C   UNL     1       2.638   0.127   0.000  0.00  0.00    +0.094 C 
ATOM      7  N   UNL     1       3.352  -0.285   0.000  0.00  0.00    -0.271 NA
ATOM      8  C   UNL     1       3.352  -1.110   0.000  0.00  0.00    +0.094 C 
ATOM      9  C   UNL     1       2.638  -1.523   0.000  0.00  0.00    +0.112 C 
ATOM     10  N   UNL     1       1.923  -1.110   0.000  0.00  0.00    -0.260 N 
ENDROOT
BRANCH   7  11
ATOM     11  C   UNL     1       4.067   0.127   0.000  0.00  0.00    +0.063 C 
ATOM     12  C   UNL     1       4.067   0.952   0.000  0.00  0.00    +0.048 C 
ATOM     13  C   UNL     1       4.781   1.365   0.000  0.00  0.00    +0.144 C 
ATOM     14  O   UNL     1       5.496   0.952   0.000  0.00  0.00    -0.354 OA
ATOM     15  C   UNL     1       5.496   0.127   0.000  0.00  0.00    +0.144 C 
ATOM     16  C   UNL     1       4.781  -0.285   0.000  0.00  0.00    +0.048 C 
ENDBRANCH   7  11
TORSDOF 1
