REMARK  Name = 
REMARK  8 active torsions:
REMARK  status: ('A' for Active; 'I' for Inactive)
REMARK    1  A    between atoms: N_2  and  C_4
REMARK    2  A    between atoms: C_7  and  C_10
REMARK    3  A    between atoms: C_15  and  C_17
REMARK    4  A    between atoms: C_24  and  C_25
REMARK    5  A    between atoms: C_25  and  N_26
REMARK    6  A    between atoms: N_26  and  S_27
REMARK    7  A    between atoms: S_27  and  C_30
REMARK    8  A    between atoms: C_33  and  N_34
REMARK                            x       y       z     vdW  Elec       q    Type
REMARK                         _______ _______ _______ _____ _____    ______ ____
ROOT
ATOM     17  C   UNL     1       1.661  -1.343   0.000  0.00  0.00    +0.056 C 
ATOM     18  C   UNL     1       1.814  -2.106   0.000  0.00  0.00    +0.078 C 
ATOM     19  N   UNL     1       1.065  -1.759   0.000  0.00  0.00    -0.272 NA
ATOM     20  C   UNL     1       1.205  -0.720   0.000  0.00  0.00    +0.072 C 
ATOM     21  C   UNL     1       0.961  -0.114   0.000  0.00  0.00    +0.018 C 
ATOM     22  C   UNL     1       0.923  -1.010   0.000  0.00  0.00    +0.010 C 
ATOM     23  C   UNL     1       0.119  -1.362   0.000  0.00  0.00    +0.018 C 
ATOM     24  C   UNL     1       0.226  -2.118   0.000  0.00  0.00    +0.077 C 
ENDROOT
BRANCH  17  15
ATOM     10  C   UNL     1       2.829   0.501   0.000  0.00  0.00    +0.084 A 
ATOM     11  N   UNL     1       3.597   0.200   0.000  0.00  0.00    -0.231 NA
ATOM     12  C   UNL     1       3.720  -0.616   0.000  0.00  0.00    +0.139 A 
ATOM     13  C   UNL     1       4.488  -0.918   0.000  0.00  0.00    +0.074 C 
ATOM     14  N   UNL     1       3.075  -1.130   0.000  0.00  0.00    -0.235 NA
ATOM     15  C   UNL     1       2.307  -0.828   0.000  0.00  0.00    +0.063 A 
ATOM     16  C   UNL     1       2.184  -0.013   0.000  0.00  0.00    +0.034 A 
BRANCH  10   7
ATOM      4  C   UNL     1       2.462   2.949   0.000  0.00  0.00    +0.048 A 
ATOM      5  C   UNL     1       3.229   2.647   0.000  0.00  0.00    +0.015 A 
ATOM      6  C   UNL     1       3.352   1.831   0.000  0.00  0.00    +0.003 A 
ATOM      7  C   UNL     1       2.707   1.317   0.000  0.00  0.00    +0.018 A 
ATOM      8  C   UNL     1       1.939   1.619   0.000  0.00  0.00    +0.003 A 
ATOM      9  C   UNL     1       1.816   2.435   0.000  0.00  0.00    +0.015 A 
BRANCH   4   2
ATOM      1  C   UNL     1       2.984   4.279   0.000  0.00  0.00    +0.112 C 
ATOM      2  N   UNL     1       2.339   3.765   0.000  0.00  0.00    -0.304 N 
ATOM      3  C   UNL     1       1.571   4.067   0.000  0.00  0.00    +0.112 C 
ENDBRANCH   4   2
ENDBRANCH  10   7
ENDBRANCH  17  15
BRANCH  24  25
ATOM     25  C   UNL     1      -0.179  -2.836   0.000  0.00  0.00    +0.131 C 
BRANCH  25  26
ATOM     26  N   UNL     1       0.241  -3.546   0.000  0.00  0.00    -0.076 NA
BRANCH  26  27
ATOM     27  S   UNL     1      -0.163  -4.265   0.000  0.00  0.00    +0.077 S 
ATOM     28  O   UNL     1      -0.882  -3.860   0.000  0.00  0.00    -0.152 OA
ATOM     29  O   UNL     1       0.556  -4.670   0.000  0.00  0.00    -0.152 OA
BRANCH  27  30
ATOM     30  C   UNL     1      -0.568  -4.984   0.000  0.00  0.00    +0.124 A 
ATOM     31  C   UNL     1      -0.148  -5.694   0.000  0.00  0.00    +0.021 A 
ATOM     32  C   UNL     1      -0.553  -6.413   0.000  0.00  0.00    +0.018 A 
ATOM     33  C   UNL     1      -1.378  -6.422   0.000  0.00  0.00    +0.073 A 
ATOM     38  C   UNL     1      -1.798  -5.712   0.000  0.00  0.00    +0.018 A 
ATOM     39  C   UNL     1      -1.393  -4.993   0.000  0.00  0.00    +0.021 A 
BRANCH  33  34
ATOM     34  N   UNL     1      -1.782  -7.141   0.000  0.00  0.00    -0.179 NA
ATOM     35  C   UNL     1      -2.607  -7.149   0.000  0.00  0.00    +0.246 C 
ATOM     36  C   UNL     1      -3.012  -7.868   0.000  0.00  0.00    +0.097 C 
ATOM     37  O   UNL     1      -3.028  -6.439   0.000  0.00  0.00    -0.273 OA
ENDBRANCH  33  34
ENDBRANCH  27  30
ENDBRANCH  26  27
ENDBRANCH  25  26
ENDBRANCH  24  25
TORSDOF 8
