REMARK  Name = 
REMARK  6 active torsions:
REMARK  status: ('A' for Active; 'I' for Inactive)
REMARK    1  A    between atoms: N_4  and  C_22
REMARK    2  A    between atoms: C_7  and  C_8
REMARK    3  A    between atoms: C_10  and  N_11
REMARK    4  A    between atoms: N_11  and  C_12
REMARK    5  A    between atoms: C_12  and  C_13
REMARK    6  A    between atoms: C_23  and  N_28
REMARK                            x       y       z     vdW  Elec       q    Type
REMARK                         _______ _______ _______ _____ _____    ______ ____
ROOT
ATOM      1  C   UNL     1       0.715  -0.412   0.000  0.00  0.00    +0.054 C 
ATOM      2  C   UNL     1       0.715  -1.238   0.000  0.00  0.00    +0.077 A 
ATOM      3  N   UNL     1       1.382  -1.722   0.000  0.00  0.00    -0.170 NA
ATOM      4  N   UNL     1       1.127  -2.507   0.000  0.00  0.00    -0.233 N 
ATOM      5  C   UNL     1       0.302  -2.507   0.000  0.00  0.00    +0.058 A 
ATOM      6  C   UNL     1      -0.183  -3.175   0.000  0.00  0.00    +0.052 C 
ATOM      7  C   UNL     1       0.047  -1.722   0.000  0.00  0.00    +0.010 A 
ENDROOT
BRANCH   4  22
ATOM     22  C   UNL     1       1.612  -3.175   0.000  0.00  0.00    +0.105 A 
ATOM     23  C   UNL     1       2.432  -3.088   0.000  0.00  0.00    +0.160 A 
ATOM     24  C   UNL     1       2.917  -3.756   0.000  0.00  0.00    +0.026 A 
ATOM     25  C   UNL     1       2.582  -4.509   0.000  0.00  0.00    +0.002 A 
ATOM     26  C   UNL     1       1.761  -4.596   0.000  0.00  0.00    +0.002 A 
ATOM     27  C   UNL     1       1.276  -3.928   0.000  0.00  0.00    +0.021 A 
BRANCH  23  28
ATOM     28  N   UNL     1       2.768  -2.335   0.000  0.00  0.00    +0.059 N 
ATOM     29  O   UNL     1       3.588  -2.248   0.000  0.00  0.00    -0.126 OA
ATOM     30  O   UNL     1       2.283  -1.667   0.000  0.00  0.00    -0.126 OA
ENDBRANCH  23  28
ENDBRANCH   4  22
BRANCH   7   8
ATOM      8  C   UNL     1      -0.738  -1.468   0.000  0.00  0.00    +0.048 C 
ATOM      9  C   UNL     1      -1.405  -1.952   0.000  0.00  0.00    +0.031 C 
ATOM     10  C   UNL     1      -2.072  -1.468   0.000  0.00  0.00    +0.095 C 
ATOM     20  C   UNL     1      -1.817  -0.683   0.000  0.00  0.00    -0.013 C 
ATOM     21  C   UNL     1      -0.993  -0.683   0.000  0.00  0.00    -0.025 C 
BRANCH  10  11
ATOM     11  N   UNL     1      -2.857  -1.722   0.000  0.00  0.00    -0.210 NA
BRANCH  11  12
ATOM     12  C   UNL     1      -3.470  -1.170   0.000  0.00  0.00    +0.115 C 
BRANCH  12  13
ATOM     13  C   UNL     1      -4.255  -1.425   0.000  0.00  0.00    -0.005 A 
ATOM     14  C   UNL     1      -4.426  -2.232   0.000  0.00  0.00    -0.001 A 
ATOM     15  C   UNL     1      -5.211  -2.487   0.000  0.00  0.00    +0.029 A 
ATOM     16  C   UNL     1      -5.824  -1.935   0.000  0.00  0.00    +0.140 A 
ATOM     17  F   UNL     1      -6.609  -2.190   0.000  0.00  0.00    -0.204 F 
ATOM     18  C   UNL     1      -5.652  -1.128   0.000  0.00  0.00    +0.029 A 
ATOM     19  C   UNL     1      -4.868  -0.873   0.000  0.00  0.00    -0.001 A 
ENDBRANCH  12  13
ENDBRANCH  11  12
ENDBRANCH  10  11
ENDBRANCH   7   8
TORSDOF 6
