REMARK  Name = 
REMARK  9 active torsions:
REMARK  status: ('A' for Active; 'I' for Inactive)
REMARK    1  A    between atoms: O_2  and  C_3
REMARK    2  A    between atoms: C_6  and  C_9
REMARK    3  A    between atoms: C_11  and  C_12
REMARK    4  A    between atoms: C_12  and  C_13
REMARK    5  A    between atoms: C_18  and  C_19
REMARK    6  A    between atoms: C_19  and  C_20
REMARK    7  A    between atoms: N_22  and  C_23
REMARK    8  A    between atoms: C_23  and  C_24
REMARK    9  A    between atoms: C_24  and  N_25
REMARK                            x       y       z     vdW  Elec       q    Type
REMARK                         _______ _______ _______ _____ _____    ______ ____
ROOT
ATOM     13  C   UNL     1       0.715  -2.062   0.000  0.00  0.00    +0.024 C 
ATOM     14  C   UNL     1       0.000  -2.475   0.000  0.00  0.00    +0.089 C 
ATOM     15  N   UNL     1      -0.715  -2.062   0.000  0.00  0.00    -0.218 NA
ATOM     16  C   UNL     1      -0.715  -1.238   0.000  0.00  0.00    +0.089 C 
ATOM     17  C   UNL     1       0.000  -0.825   0.000  0.00  0.00    +0.019 C 
ATOM     18  C   UNL     1       0.715  -1.238   0.000  0.00  0.00    +0.012 C 
ENDROOT
BRANCH  13  12
ATOM     12  C   UNL     1       1.429  -2.475   0.000  0.00  0.00    +0.051 C 
BRANCH  12  11
ATOM      9  C   UNL     1       1.016  -4.569   0.000  0.00  0.00    +0.177 A 
ATOM     10  C   UNL     1       0.761  -3.785   0.000  0.00  0.00    +0.058 A 
ATOM     11  C   UNL     1       1.429  -3.300   0.000  0.00  0.00    +0.101 A 
ATOM     28  N   UNL     1       2.096  -3.785   0.000  0.00  0.00    -0.081 NA
ATOM     29  O   UNL     1       1.841  -4.569   0.000  0.00  0.00    -0.354 OA
BRANCH   9   6
ATOM      3  C   UNL     1      -0.438  -6.572   0.000  0.00  0.00    +0.139 A 
ATOM      4  C   UNL     1      -0.774  -5.818   0.000  0.00  0.00    +0.037 A 
ATOM      5  C   UNL     1      -0.289  -5.151   0.000  0.00  0.00    +0.006 A 
ATOM      6  C   UNL     1       0.531  -5.237   0.000  0.00  0.00    +0.037 A 
ATOM      7  C   UNL     1       0.867  -5.991   0.000  0.00  0.00    +0.006 A 
ATOM      8  C   UNL     1       0.382  -6.658   0.000  0.00  0.00    +0.037 A 
BRANCH   3   2
ATOM      1  C   UNL     1      -0.588  -7.993   0.000  0.00  0.00    +0.252 C 
ATOM      2  O   UNL     1      -0.923  -7.239   0.000  0.00  0.00    -0.471 OA
ENDBRANCH   3   2
ENDBRANCH   9   6
ENDBRANCH  12  11
ENDBRANCH  13  12
BRANCH  18  19
ATOM     19  C   UNL     1       1.429  -0.825   0.000  0.00  0.00    +0.087 C 
BRANCH  19  20
ATOM     20  C   UNL     1       2.143  -1.238   0.000  0.00  0.00    +0.241 C 
ATOM     21  O   UNL     1       2.143  -2.062   0.000  0.00  0.00    -0.273 OA
ATOM     22  N   UNL     1       2.858  -0.825   0.000  0.00  0.00    -0.204 NA
BRANCH  22  23
ATOM     23  C   UNL     1       3.572  -1.238   0.000  0.00  0.00    +0.132 C 
BRANCH  23  24
ATOM     24  C   UNL     1       4.287  -0.825   0.000  0.00  0.00    +0.096 C 
BRANCH  24  25
ATOM     25  N   UNL     1       5.001  -1.238   0.000  0.00  0.00    -0.269 NA
ATOM     26  C   UNL     1       5.716  -0.825   0.000  0.00  0.00    +0.090 C 
ATOM     27  C   UNL     1       5.001  -2.062   0.000  0.00  0.00    +0.090 C 
ENDBRANCH  24  25
ENDBRANCH  23  24
ENDBRANCH  22  23
ENDBRANCH  19  20
ENDBRANCH  18  19
TORSDOF 9
