REMARK  Name = 
REMARK  6 active torsions:
REMARK  status: ('A' for Active; 'I' for Inactive)
REMARK    1  A    between atoms: C_2  and  C_4
REMARK    2  A    between atoms: C_7  and  N_10
REMARK    3  A    between atoms: C_14  and  C_15
REMARK    4  A    between atoms: C_17  and  N_18
REMARK    5  A    between atoms: N_18  and  C_19
REMARK    6  A    between atoms: C_19  and  C_20
REMARK                            x       y       z     vdW  Elec       q    Type
REMARK                         _______ _______ _______ _____ _____    ______ ____
ROOT
ATOM     10  N   UNL     1       0.119  -4.278   0.000  0.00  0.00    -0.234 N 
ATOM     11  N   UNL     1       0.786  -4.763   0.000  0.00  0.00    -0.170 NA
ATOM     12  C   UNL     1       0.531  -5.548   0.000  0.00  0.00    +0.077 A 
ATOM     13  C   UNL     1       1.016  -6.215   0.000  0.00  0.00    +0.054 C 
ATOM     14  C   UNL     1      -0.293  -5.548   0.000  0.00  0.00    +0.010 A 
ATOM     28  C   UNL     1      -0.548  -4.763   0.000  0.00  0.00    +0.058 A 
ATOM     29  C   UNL     1      -1.333  -4.508   0.000  0.00  0.00    +0.052 C 
ENDROOT
BRANCH  10   7
ATOM      4  C   UNL     1       0.119  -1.803   0.000  0.00  0.00    -0.022 A 
ATOM      5  C   UNL     1       0.834  -2.216   0.000  0.00  0.00    -0.003 A 
ATOM      6  C   UNL     1       0.834  -3.041   0.000  0.00  0.00    +0.019 A 
ATOM      7  C   UNL     1       0.119  -3.453   0.000  0.00  0.00    +0.082 A 
ATOM      8  C   UNL     1      -0.596  -3.041   0.000  0.00  0.00    +0.019 A 
ATOM      9  C   UNL     1      -0.596  -2.216   0.000  0.00  0.00    -0.003 A 
BRANCH   4   2
ATOM      1  C   UNL     1      -0.596  -0.566   0.000  0.00  0.00    +0.005 C 
ATOM      2  C   UNL     1       0.119  -0.978   0.000  0.00  0.00    +0.022 C 
ATOM      3  C   UNL     1       0.834  -0.566   0.000  0.00  0.00    +0.005 C 
ENDBRANCH   4   2
ENDBRANCH  10   7
BRANCH  14  15
ATOM     15  C   UNL     1      -0.778  -6.215   0.000  0.00  0.00    +0.048 C 
ATOM     16  C   UNL     1      -0.523  -7.000   0.000  0.00  0.00    +0.031 C 
ATOM     17  C   UNL     1      -1.191  -7.484   0.000  0.00  0.00    +0.095 C 
ATOM     26  C   UNL     1      -1.858  -7.000   0.000  0.00  0.00    -0.013 C 
ATOM     27  C   UNL     1      -1.603  -6.215   0.000  0.00  0.00    -0.025 C 
BRANCH  17  18
ATOM     18  N   UNL     1      -1.191  -8.309   0.000  0.00  0.00    -0.209 NA
BRANCH  18  19
ATOM     19  C   UNL     1      -0.476  -8.722   0.000  0.00  0.00    +0.134 C 
BRANCH  19  20
ATOM     20  C   UNL     1      -0.476  -9.547   0.000  0.00  0.00    +0.077 A 
ATOM     21  N   UNL     1       0.238  -9.960   0.000  0.00  0.00    -0.247 NA
ATOM     22  C   UNL     1       0.238 -10.784   0.000  0.00  0.00    +0.098 A 
ATOM     23  C   UNL     1      -0.476 -11.197   0.000  0.00  0.00    +0.021 A 
ATOM     24  C   UNL     1      -1.191 -10.784   0.000  0.00  0.00    +0.003 A 
ATOM     25  C   UNL     1      -1.191  -9.960   0.000  0.00  0.00    +0.016 A 
ENDBRANCH  19  20
ENDBRANCH  18  19
ENDBRANCH  17  18
ENDBRANCH  14  15
TORSDOF 6
