REMARK  Name = 
REMARK  4 active torsions:
REMARK  status: ('A' for Active; 'I' for Inactive)
REMARK    1  A    between atoms: O_2  and  C_3
REMARK    2  A    between atoms: C_6  and  O_7
REMARK    3  A    between atoms: O_7  and  C_8
REMARK    4  A    between atoms: C_15  and  C_17
REMARK                            x       y       z     vdW  Elec       q    Type
REMARK                         _______ _______ _______ _____ _____    ______ ____
ROOT
ATOM      8  C   UNL     1       1.211   0.808   0.000  0.00  0.00    +0.215 C 
ATOM      9  C   UNL     1       0.910   1.576   0.000  0.00  0.00    +0.187 C 
ATOM     10  O   UNL     1       1.322   2.290   0.000  0.00  0.00    -0.348 OA
ATOM     11  C   UNL     1       2.138   2.413   0.000  0.00  0.00    +0.164 C 
ATOM     12  C   UNL     1       2.743   1.852   0.000  0.00  0.00    +0.126 C 
ATOM     13  N   UNL     1       2.681   1.030   0.000  0.00  0.00    -0.268 N 
ATOM     14  C   UNL     1       2.000   0.565   0.000  0.00  0.00    +0.140 C 
ATOM     15  C   UNL     1       3.396   0.617   0.000  0.00  0.00    +0.267 C 
ATOM     16  O   UNL     1       4.110   1.030   0.000  0.00  0.00    -0.268 OA
ENDROOT
BRANCH  15  17
ATOM     17  C   UNL     1       3.396  -0.208   0.000  0.00  0.00    +0.132 A 
ATOM     18  C   UNL     1       4.063  -0.693   0.000  0.00  0.00    +0.040 A 
ATOM     19  C   UNL     1       3.808  -1.478   0.000  0.00  0.00    +0.081 A 
ATOM     20  C   UNL     1       4.293  -2.145   0.000  0.00  0.00    +0.054 C 
ATOM     21  N   UNL     1       2.983  -1.478   0.000  0.00  0.00    -0.173 NA
ATOM     22  N   UNL     1       2.728  -0.693   0.000  0.00  0.00    -0.245 N 
ATOM     23  C   UNL     1       1.944  -0.438   0.000  0.00  0.00    +0.154 C 
ENDBRANCH  15  17
BRANCH   8   7
ATOM      7  O   UNL     1       0.650   0.203   0.000  0.00  0.00    -0.475 OA
BRANCH   7   6
ATOM      3  C   UNL     1      -1.763   0.754   0.000  0.00  0.00    +0.139 A 
ATOM      4  C   UNL     1      -1.202   1.359   0.000  0.00  0.00    +0.040 A 
ATOM      5  C   UNL     1      -0.397   1.175   0.000  0.00  0.00    +0.040 A 
ATOM      6  C   UNL     1      -0.154   0.387   0.000  0.00  0.00    +0.139 A 
ATOM     24  C   UNL     1      -0.715  -0.218   0.000  0.00  0.00    +0.040 A 
ATOM     25  C   UNL     1      -1.520  -0.034   0.000  0.00  0.00    +0.040 A 
BRANCH   3   2
ATOM      1  C   UNL     1      -3.128   0.333   0.000  0.00  0.00    +0.252 C 
ATOM      2  O   UNL     1      -2.567   0.938   0.000  0.00  0.00    -0.471 OA
ENDBRANCH   3   2
ENDBRANCH   7   6
ENDBRANCH   8   7
TORSDOF 4
