REMARK  Name = 
REMARK  8 active torsions:
REMARK  status: ('A' for Active; 'I' for Inactive)
REMARK    1  A    between atoms: C_2  and  C_3
REMARK    2  A    between atoms: C_2  and  C_36
REMARK    3  A    between atoms: C_14  and  C_16
REMARK    4  A    between atoms: C_19  and  C_20
REMARK    5  A    between atoms: C_20  and  N_21
REMARK    6  A    between atoms: N_38  and  C_39
REMARK    7  A    between atoms: C_39  and  C_40
REMARK    8  A    between atoms: C_40  and  N_41
REMARK                            x       y       z     vdW  Elec       q    Type
REMARK                         _______ _______ _______ _____ _____    ______ ____
ROOT
ATOM      3  C   UNL     1       0.715  -1.238   0.000  0.00  0.00    +0.039 C 
ATOM      4  C   UNL     1       0.715  -0.412   0.000  0.00  0.00    +0.003 C 
ATOM      5  C   UNL     1       1.429   0.000   0.000  0.00  0.00    +0.001 C 
ATOM      6  C   UNL     1       2.143  -0.412   0.000  0.00  0.00    +0.007 C 
ATOM      7  C   UNL     1       2.143   0.412   0.000  0.00  0.00    +0.000 C 
ATOM      8  C   UNL     1       2.858   0.000   0.000  0.00  0.00    +0.034 C 
ATOM      9  C   UNL     1       3.572  -0.412   0.000  0.00  0.00    +0.023 A 
ATOM     10  C   UNL     1       3.572  -1.238   0.000  0.00  0.00    +0.063 A 
ATOM     11  N   UNL     1       4.357  -1.492   0.000  0.00  0.00    -0.227 NA
ATOM     12  C   UNL     1       4.842  -0.825   0.000  0.00  0.00    +0.185 A 
ATOM     13  N   UNL     1       5.667  -0.825   0.000  0.00  0.00    -0.151 NA
ATOM     14  C   UNL     1       6.079  -0.111   0.000  0.00  0.00    +0.271 C 
ATOM     15  O   UNL     1       5.667   0.604   0.000  0.00  0.00    -0.268 OA
ATOM     30  S   UNL     1       4.357  -0.158   0.000  0.00  0.00    -0.054 S 
ATOM     31  C   UNL     1       2.858  -1.650   0.000  0.00  0.00    +0.043 C 
ATOM     32  C   UNL     1       2.858  -2.475   0.000  0.00  0.00    +0.006 C 
ATOM     33  C   UNL     1       2.143  -1.238   0.000  0.00  0.00    +0.036 C 
ATOM     34  C   UNL     1       1.429  -1.650   0.000  0.00  0.00    +0.153 C 
ATOM     35  O   UNL     1       1.429  -2.475   0.000  0.00  0.00    -0.223 OA
ENDROOT
BRANCH  14  16
ATOM     16  C   UNL     1       6.904  -0.111   0.000  0.00  0.00    +0.055 A 
ATOM     17  C   UNL     1       7.317   0.604   0.000  0.00  0.00    +0.004 A 
ATOM     18  C   UNL     1       8.142   0.604   0.000  0.00  0.00    -0.003 A 
ATOM     19  C   UNL     1       8.554  -0.111   0.000  0.00  0.00    -0.006 A 
ATOM     28  C   UNL     1       8.142  -0.825   0.000  0.00  0.00    -0.003 A 
ATOM     29  C   UNL     1       7.317  -0.825   0.000  0.00  0.00    +0.004 A 
BRANCH  19  20
ATOM     20  C   UNL     1       9.379  -0.111   0.000  0.00  0.00    +0.099 C 
BRANCH  20  21
ATOM     21  N   UNL     1       9.792  -0.825   0.000  0.00  0.00    -0.267 NA
ATOM     22  C   UNL     1      10.617  -0.825   0.000  0.00  0.00    +0.090 C 
ATOM     23  C   UNL     1      11.029  -1.540   0.000  0.00  0.00    +0.090 C 
ATOM     24  N   UNL     1      10.617  -2.254   0.000  0.00  0.00    -0.269 NA
ATOM     25  C   UNL     1      11.029  -2.968   0.000  0.00  0.00    +0.090 C 
ATOM     26  C   UNL     1       9.792  -2.254   0.000  0.00  0.00    +0.090 C 
ATOM     27  C   UNL     1       9.379  -1.540   0.000  0.00  0.00    +0.090 C 
ENDBRANCH  20  21
ENDBRANCH  19  20
ENDBRANCH  14  16
BRANCH   3   2
ATOM      1  C   UNL     1       0.000  -2.475   0.000  0.00  0.00    +0.010 C 
ATOM      2  C   UNL     1       0.000  -1.650   0.000  0.00  0.00    +0.081 C 
BRANCH   2  36
ATOM     36  C   UNL     1      -0.715  -1.238   0.000  0.00  0.00    +0.241 C 
ATOM     37  O   UNL     1      -0.715  -0.412   0.000  0.00  0.00    -0.273 OA
ATOM     38  N   UNL     1      -1.429  -1.650   0.000  0.00  0.00    -0.204 NA
BRANCH  38  39
ATOM     39  C   UNL     1      -2.143  -1.238   0.000  0.00  0.00    +0.132 C 
BRANCH  39  40
ATOM     40  C   UNL     1      -2.858  -1.650   0.000  0.00  0.00    +0.096 C 
BRANCH  40  41
ATOM     41  N   UNL     1      -3.572  -1.238   0.000  0.00  0.00    -0.267 NA
ATOM     42  C   UNL     1      -4.287  -1.650   0.000  0.00  0.00    +0.105 C 
ATOM     43  C   UNL     1      -5.001  -1.238   0.000  0.00  0.00    +0.159 C 
ATOM     44  O   UNL     1      -5.001  -0.412   0.000  0.00  0.00    -0.351 OA
ATOM     45  C   UNL     1      -4.287   0.000   0.000  0.00  0.00    +0.159 C 
ATOM     46  C   UNL     1      -3.572  -0.412   0.000  0.00  0.00    +0.105 C 
ENDBRANCH  40  41
ENDBRANCH  39  40
ENDBRANCH  38  39
ENDBRANCH   2  36
ENDBRANCH   3   2
TORSDOF 8
