REMARK  Name = 
REMARK  3 active torsions:
REMARK  status: ('A' for Active; 'I' for Inactive)
REMARK    1  A    between atoms: C_5  and  C_6
REMARK    2  A    between atoms: C_7  and  C_8
REMARK    3  A    between atoms: N_20  and  C_21
REMARK                            x       y       z     vdW  Elec       q    Type
REMARK                         _______ _______ _______ _____ _____    ______ ____
ROOT
ATOM      8  C   UNL     1      -1.296  -1.150   0.000  0.00  0.00    +0.056 A 
ATOM      9  C   UNL     1      -1.167  -0.335   0.000  0.00  0.00    +0.006 A 
ATOM     10  C   UNL     1      -0.397  -0.039   0.000  0.00  0.00    +0.013 A 
ATOM     11  C   UNL     1       0.244  -0.558   0.000  0.00  0.00    +0.041 A 
ATOM     12  C   UNL     1       1.163  -0.557   0.000  0.00  0.00    +0.058 C 
ATOM     13  C   UNL     1       1.713  -0.121   0.000  0.00  0.00    +0.011 C 
ATOM     14  C   UNL     1       1.582  -0.925   0.000  0.00  0.00    +0.043 C 
ATOM     15  C   UNL     1       1.629  -1.912   0.000  0.00  0.00    +0.097 C 
ATOM     16  N   UNL     1       0.813  -2.091   0.000  0.00  0.00    -0.262 N 
ATOM     17  C   UNL     1       1.225  -1.510   0.000  0.00  0.00    +0.101 C 
ATOM     18  C   UNL     1       0.125  -2.547   0.000  0.00  0.00    +0.327 C 
ATOM     19  O   UNL     1      -0.614  -2.179   0.000  0.00  0.00    -0.250 OA
ATOM     20  N   UNL     1       0.176  -3.370   0.000  0.00  0.00    -0.162 NA
ATOM     27  C   UNL     1       0.622  -0.936   0.000  0.00  0.00    +0.110 C 
ATOM     28  N   UNL     1       0.115  -1.373   0.000  0.00  0.00    -0.299 N 
ATOM     29  C   UNL     1      -0.655  -1.669   0.000  0.00  0.00    +0.261 A 
ATOM     30  O   UNL     1      -1.029  -2.404   0.000  0.00  0.00    -0.267 OA
ENDROOT
BRANCH  20  21
ATOM     21  C   UNL     1      -0.512  -3.826   0.000  0.00  0.00    +0.075 A 
ATOM     22  C   UNL     1      -0.461  -4.650   0.000  0.00  0.00    +0.017 A 
ATOM     23  C   UNL     1      -1.149  -5.105   0.000  0.00  0.00    +0.001 A 
ATOM     24  C   UNL     1      -1.888  -4.737   0.000  0.00  0.00    +0.000 A 
ATOM     25  C   UNL     1      -1.938  -3.914   0.000  0.00  0.00    +0.001 A 
ATOM     26  C   UNL     1      -1.251  -3.458   0.000  0.00  0.00    +0.017 A 
ENDBRANCH  20  21
BRANCH   8   7
ATOM      6  C   UNL     1      -2.707  -0.926   0.000  0.00  0.00    +0.000 C 
ATOM      7  C   UNL     1      -2.066  -1.445   0.000  0.00  0.00    +0.005 C 
BRANCH   6   5
ATOM      1 CL   UNL     1      -5.788  -2.109   0.000  0.00  0.00    -0.082 Cl
ATOM      2  C   UNL     1      -5.018  -1.813   0.000  0.00  0.00    +0.058 A 
ATOM      3  C   UNL     1      -4.889  -0.999   0.000  0.00  0.00    +0.011 A 
ATOM      4  C   UNL     1      -4.119  -0.703   0.000  0.00  0.00    +0.001 A 
ATOM      5  C   UNL     1      -3.478  -1.222   0.000  0.00  0.00    +0.000 A 
ATOM     31  C   UNL     1      -3.606  -2.037   0.000  0.00  0.00    +0.001 A 
ATOM     32  C   UNL     1      -4.377  -2.333   0.000  0.00  0.00    +0.011 A 
ENDBRANCH   6   5
ENDBRANCH   8   7
TORSDOF 3
