REMARK  Name = 
REMARK  8 active torsions:
REMARK  status: ('A' for Active; 'I' for Inactive)
REMARK    1  A    between atoms: C_2  and  C_4
REMARK    2  A    between atoms: C_6  and  C_7
REMARK    3  A    between atoms: C_7  and  C_8
REMARK    4  A    between atoms: C_11  and  C_13
REMARK    5  A    between atoms: C_23  and  C_24
REMARK    6  A    between atoms: C_24  and  N_25
REMARK    7  A    between atoms: C_26  and  C_28
REMARK    8  A    between atoms: C_31  and  N_32
REMARK                            x       y       z     vdW  Elec       q    Type
REMARK                         _______ _______ _______ _____ _____    ______ ____
ROOT
ATOM      4  C   UNL     1       2.858  -2.475   0.000  0.00  0.00    +0.006 C 
ATOM      5  C   UNL     1       3.572  -2.888   0.000  0.00  0.00    +0.005 C 
ATOM      6  C   UNL     1       3.572  -3.712   0.000  0.00  0.00    +0.027 C 
ATOM     20  C   UNL     1       2.858  -4.125   0.000  0.00  0.00    -0.048 C 
ATOM     21  C   UNL     1       2.858  -4.950   0.000  0.00  0.00    +0.026 C 
ATOM     22  C   UNL     1       2.143  -3.712   0.000  0.00  0.00    -0.033 C 
ATOM     23  C   UNL     1       2.143  -2.888   0.000  0.00  0.00    +0.043 C 
ENDROOT
BRANCH   4   2
ATOM      1  C   UNL     1       2.143  -1.238   0.000  0.00  0.00    +0.000 C 
ATOM      2  C   UNL     1       2.858  -1.650   0.000  0.00  0.00    +0.000 C 
ATOM      3  C   UNL     1       3.572  -1.238   0.000  0.00  0.00    +0.000 C 
ENDBRANCH   4   2
BRANCH   6   7
ATOM      7  C   UNL     1       4.287  -4.125   0.000  0.00  0.00    +0.091 C 
BRANCH   7   8
ATOM      8  C   UNL     1       4.287  -4.950   0.000  0.00  0.00    +0.227 A 
ATOM      9  N   UNL     1       4.954  -5.435   0.000  0.00  0.00    -0.111 NA
ATOM     10  N   UNL     1       4.699  -6.220   0.000  0.00  0.00    -0.107 NA
ATOM     11  C   UNL     1       3.874  -6.220   0.000  0.00  0.00    +0.252 A 
ATOM     12  O   UNL     1       3.619  -5.435   0.000  0.00  0.00    -0.419 OA
BRANCH  11  13
ATOM     13  C   UNL     1       3.389  -6.887   0.000  0.00  0.00    +0.083 A 
ATOM     14  C   UNL     1       3.725  -7.641   0.000  0.00  0.00    +0.007 A 
ATOM     15  C   UNL     1       3.240  -8.308   0.000  0.00  0.00    +0.000 A 
ATOM     16  C   UNL     1       2.420  -8.222   0.000  0.00  0.00    +0.002 A 
ATOM     17  C   UNL     1       2.084  -7.468   0.000  0.00  0.00    +0.030 A 
ATOM     18  C   UNL     1       2.569  -6.801   0.000  0.00  0.00    +0.145 A 
ATOM     19  F   UNL     1       2.233  -6.047   0.000  0.00  0.00    -0.204 F 
ENDBRANCH  11  13
ENDBRANCH   7   8
ENDBRANCH   6   7
BRANCH  23  24
ATOM     24  C   UNL     1       1.429  -2.475   0.000  0.00  0.00    +0.120 C 
BRANCH  24  25
ATOM     25  N   UNL     1       1.429  -1.650   0.000  0.00  0.00    -0.201 NA
ATOM     26  C   UNL     1       0.715  -1.238   0.000  0.00  0.00    +0.265 C 
ATOM     27  O   UNL     1       0.000  -1.650   0.000  0.00  0.00    -0.268 OA
BRANCH  26  28
ATOM     28  C   UNL     1       0.715  -0.412   0.000  0.00  0.00    +0.055 A 
ATOM     29  C   UNL     1       0.000   0.000   0.000  0.00  0.00    +0.006 A 
ATOM     30  C   UNL     1       0.000   0.825   0.000  0.00  0.00    +0.017 A 
ATOM     31  C   UNL     1       0.715   1.238   0.000  0.00  0.00    +0.073 A 
ATOM     36  C   UNL     1       1.429   0.825   0.000  0.00  0.00    +0.017 A 
ATOM     37  C   UNL     1       1.429   0.000   0.000  0.00  0.00    +0.006 A 
BRANCH  31  32
ATOM     32  N   UNL     1       0.715   2.062   0.000  0.00  0.00    -0.179 NA
ATOM     33  C   UNL     1       1.429   2.475   0.000  0.00  0.00    +0.246 C 
ATOM     34  C   UNL     1       1.429   3.300   0.000  0.00  0.00    +0.097 C 
ATOM     35  O   UNL     1       2.143   2.062   0.000  0.00  0.00    -0.273 OA
ENDBRANCH  31  32
ENDBRANCH  26  28
ENDBRANCH  24  25
ENDBRANCH  23  24
TORSDOF 8
