REMARK  Name = 
REMARK  9 active torsions:
REMARK  status: ('A' for Active; 'I' for Inactive)
REMARK    1  A    between atoms: C_5  and  S_7
REMARK    2  A    between atoms: S_7  and  N_10
REMARK    3  A    between atoms: N_10  and  C_11
REMARK    4  A    between atoms: C_15  and  C_17
REMARK    5  A    between atoms: N_19  and  C_20
REMARK    6  A    between atoms: C_20  and  C_21
REMARK    7  A    between atoms: C_20  and  C_27
REMARK    8  A    between atoms: C_21  and  C_22
REMARK    9  A    between atoms: C_30  and  C_32
REMARK                            x       y       z     vdW  Elec       q    Type
REMARK                         _______ _______ _______ _____ _____    ______ ____
ROOT
ATOM     11  C   UNL     1      -2.369  -5.070   0.000  0.00  0.00    +0.102 C 
ATOM     12  C   UNL     1      -1.548  -5.156   0.000  0.00  0.00    +0.041 C 
ATOM     13  C   UNL     1      -1.213  -5.910   0.000  0.00  0.00    +0.096 C 
ATOM     14  N   UNL     1      -1.698  -6.577   0.000  0.00  0.00    -0.268 N 
ATOM     15  C   UNL     1      -2.518  -6.491   0.000  0.00  0.00    +0.155 C 
ATOM     16  C   UNL     1      -2.854  -5.737   0.000  0.00  0.00    +0.049 C 
ATOM     30  C   UNL     1      -1.362  -7.331   0.000  0.00  0.00    +0.267 C 
ATOM     31  O   UNL     1      -1.847  -7.998   0.000  0.00  0.00    -0.268 OA
ENDROOT
BRANCH  30  32
ATOM     32  C   UNL     1      -0.542  -7.417   0.000  0.00  0.00    +0.133 A 
ATOM     33  C   UNL     1       0.010  -6.804   0.000  0.00  0.00    +0.040 A 
ATOM     34  C   UNL     1       0.764  -7.139   0.000  0.00  0.00    +0.081 A 
ATOM     35  C   UNL     1       1.478  -6.727   0.000  0.00  0.00    +0.054 C 
ATOM     36  N   UNL     1       0.678  -7.960   0.000  0.00  0.00    -0.173 NA
ATOM     37  N   UNL     1      -0.129  -8.131   0.000  0.00  0.00    -0.245 N 
ATOM     38  C   UNL     1      -0.465  -8.885   0.000  0.00  0.00    +0.154 C 
ENDBRANCH  30  32
BRANCH  15  17
ATOM     17  C   UNL     1      -3.003  -7.158   0.000  0.00  0.00    +0.260 C 
ATOM     18  O   UNL     1      -3.824  -7.072   0.000  0.00  0.00    -0.272 OA
ATOM     19  N   UNL     1      -2.668  -7.912   0.000  0.00  0.00    -0.196 NA
BRANCH  19  20
ATOM     20  C   UNL     1      -3.153  -8.579   0.000  0.00  0.00    +0.179 C 
BRANCH  20  27
ATOM     27  C   UNL     1      -3.973  -8.493   0.000  0.00  0.00    +0.281 C 
ATOM     28  N   UNL     1      -4.458  -9.161   0.000  0.00  0.00    -0.086 NA
ATOM     29  O   UNL     1      -4.309  -7.739   0.000  0.00  0.00    -0.270 OA
ENDBRANCH  20  27
BRANCH  20  21
ATOM     21  C   UNL     1      -2.817  -9.333   0.000  0.00  0.00    +0.064 C 
BRANCH  21  22
ATOM     22  C   UNL     1      -3.302 -10.001   0.000  0.00  0.00    +0.010 A 
ATOM     23  C   UNL     1      -3.047 -10.785   0.000  0.00  0.00    +0.003 A 
ATOM     24  C   UNL     1      -3.715 -11.270   0.000  0.00  0.00    +0.007 A 
ATOM     25  C   UNL     1      -4.382 -10.785   0.000  0.00  0.00    +0.035 A 
ATOM     26  S   UNL     1      -4.127 -10.001   0.000  0.00  0.00    -0.091 S 
ENDBRANCH  21  22
ENDBRANCH  20  21
ENDBRANCH  19  20
ENDBRANCH  15  17
BRANCH  11  10
ATOM     10  N   UNL     1      -2.705  -4.316   0.000  0.00  0.00    -0.078 NA
BRANCH  10   7
ATOM      7  S   UNL     1      -2.220  -3.649   0.000  0.00  0.00    +0.095 S 
ATOM      8  O   UNL     1      -2.887  -3.164   0.000  0.00  0.00    -0.150 OA
ATOM      9  O   UNL     1      -1.552  -4.133   0.000  0.00  0.00    -0.150 OA
BRANCH   7   5
ATOM      1  C   UNL     1      -1.322  -0.887   0.000  0.00  0.00    +0.132 C 
ATOM      2  N   UNL     1      -1.322  -1.712   0.000  0.00  0.00    -0.305 N 
ATOM      3  C   UNL     1      -0.655  -2.196   0.000  0.00  0.00    +0.180 A 
ATOM      4  N   UNL     1      -0.910  -2.981   0.000  0.00  0.00    -0.204 NA
ATOM      5  C   UNL     1      -1.735  -2.981   0.000  0.00  0.00    +0.223 A 
ATOM      6  C   UNL     1      -1.990  -2.196   0.000  0.00  0.00    +0.117 A 
ENDBRANCH   7   5
ENDBRANCH  10   7
ENDBRANCH  11  10
TORSDOF 9
