REMARK  Name = 
REMARK  4 active torsions:
REMARK  status: ('A' for Active; 'I' for Inactive)
REMARK    1  A    between atoms: O_2  and  C_3
REMARK    2  A    between atoms: C_3  and  C_4
REMARK    3  A    between atoms: C_4  and  N_5
REMARK    4  A    between atoms: C_15  and  C_17
REMARK                            x       y       z     vdW  Elec       q    Type
REMARK                         _______ _______ _______ _____ _____    ______ ____
ROOT
ATOM      5  N   UNL     1       0.654  -0.698   0.000  0.00  0.00    -0.260 N 
ATOM      6  C   UNL     1       1.139  -0.030   0.000  0.00  0.00    +0.117 C 
ATOM      7  C   UNL     1       1.923  -0.285   0.000  0.00  0.00    +0.116 C 
ATOM      8  C   UNL     1       2.638   0.127   0.000  0.00  0.00    +0.115 C 
ATOM      9  N   UNL     1       3.352  -0.285   0.000  0.00  0.00    -0.270 N 
ATOM     10  C   UNL     1       3.352  -1.110   0.000  0.00  0.00    +0.115 C 
ATOM     11  C   UNL     1       2.638  -1.523   0.000  0.00  0.00    +0.116 C 
ATOM     12  N   UNL     1       1.923  -1.110   0.000  0.00  0.00    -0.261 N 
ATOM     13  C   UNL     1       1.139  -1.365   0.000  0.00  0.00    +0.307 C 
ATOM     14  O   UNL     1       0.884  -2.150   0.000  0.00  0.00    -0.252 OA
ATOM     15  C   UNL     1       4.067   0.127   0.000  0.00  0.00    +0.287 C 
ATOM     16  O   UNL     1       4.067   0.952   0.000  0.00  0.00    -0.266 OA
ENDROOT
BRANCH  15  17
ATOM     17  C   UNL     1       4.781  -0.285   0.000  0.00  0.00    +0.230 A 
ATOM     18  C   UNL     1       5.535   0.050   0.000  0.00  0.00    +0.069 A 
ATOM     19  C   UNL     1       6.087  -0.563   0.000  0.00  0.00    +0.144 A 
ATOM     20  N   UNL     1       5.674  -1.278   0.000  0.00  0.00    -0.075 NA
ATOM     21  O   UNL     1       4.867  -1.106   0.000  0.00  0.00    -0.349 OA
ENDBRANCH  15  17
BRANCH   5   4
ATOM      4  C   UNL     1      -0.171  -0.698   0.000  0.00  0.00    +0.127 C 
BRANCH   4   3
ATOM      3  C   UNL     1      -0.584  -1.412   0.000  0.00  0.00    +0.164 C 
BRANCH   3   2
ATOM      1  C   UNL     1      -1.821  -2.127   0.000  0.00  0.00    +0.174 C 
ATOM      2  O   UNL     1      -1.409  -1.412   0.000  0.00  0.00    -0.349 OA
ENDBRANCH   3   2
ENDBRANCH   4   3
ENDBRANCH   5   4
TORSDOF 4
