REMARK  Name = 
REMARK  10 active torsions:
REMARK  status: ('A' for Active; 'I' for Inactive)
REMARK    1  A    between atoms: C_2  and  C_4
REMARK    2  A    between atoms: C_6  and  C_7
REMARK    3  A    between atoms: C_7  and  C_8
REMARK    4  A    between atoms: N_10  and  C_11
REMARK    5  A    between atoms: C_11  and  C_12
REMARK    6  A    between atoms: C_12  and  N_13
REMARK    7  A    between atoms: C_22  and  C_23
REMARK    8  A    between atoms: C_23  and  N_24
REMARK    9  A    between atoms: N_24  and  S_25
REMARK   10  A    between atoms: S_25  and  C_28
REMARK                            x       y       z     vdW  Elec       q    Type
REMARK                         _______ _______ _______ _____ _____    ______ ____
ROOT
ATOM      4  C   UNL     1      -0.715  -6.188   0.000  0.00  0.00    +0.006 C 
ATOM      5  C   UNL     1       0.000  -5.775   0.000  0.00  0.00    +0.005 C 
ATOM      6  C   UNL     1       0.715  -6.188   0.000  0.00  0.00    +0.027 C 
ATOM     19  C   UNL     1       0.715  -7.013   0.000  0.00  0.00    -0.048 C 
ATOM     20  C   UNL     1       1.429  -7.425   0.000  0.00  0.00    +0.026 C 
ATOM     21  C   UNL     1       0.000  -7.425   0.000  0.00  0.00    -0.033 C 
ATOM     22  C   UNL     1      -0.715  -7.013   0.000  0.00  0.00    +0.041 C 
ENDROOT
BRANCH   4   2
ATOM      1  C   UNL     1      -2.143  -6.188   0.000  0.00  0.00    +0.000 C 
ATOM      2  C   UNL     1      -1.429  -5.775   0.000  0.00  0.00    +0.000 C 
ATOM      3  C   UNL     1      -1.429  -4.950   0.000  0.00  0.00    +0.000 C 
ENDBRANCH   4   2
BRANCH   6   7
ATOM      7  C   UNL     1       1.429  -5.775   0.000  0.00  0.00    +0.091 C 
BRANCH   7   8
ATOM      8  C   UNL     1       2.143  -6.188   0.000  0.00  0.00    +0.242 C 
ATOM      9  O   UNL     1       2.143  -7.013   0.000  0.00  0.00    -0.273 OA
ATOM     10  N   UNL     1       2.858  -5.775   0.000  0.00  0.00    -0.204 NA
BRANCH  10  11
ATOM     11  C   UNL     1       3.572  -6.188   0.000  0.00  0.00    +0.132 C 
BRANCH  11  12
ATOM     12  C   UNL     1       4.287  -5.775   0.000  0.00  0.00    +0.096 C 
BRANCH  12  13
ATOM     13  N   UNL     1       5.001  -6.188   0.000  0.00  0.00    -0.267 NA
ATOM     14  C   UNL     1       5.716  -5.775   0.000  0.00  0.00    +0.105 C 
ATOM     15  C   UNL     1       6.430  -6.188   0.000  0.00  0.00    +0.159 C 
ATOM     16  O   UNL     1       6.430  -7.013   0.000  0.00  0.00    -0.351 OA
ATOM     17  C   UNL     1       5.716  -7.425   0.000  0.00  0.00    +0.159 C 
ATOM     18  C   UNL     1       5.001  -7.013   0.000  0.00  0.00    +0.105 C 
ENDBRANCH  12  13
ENDBRANCH  11  12
ENDBRANCH  10  11
ENDBRANCH   7   8
ENDBRANCH   6   7
BRANCH  22  23
ATOM     23  C   UNL     1      -1.429  -7.425   0.000  0.00  0.00    +0.120 C 
BRANCH  23  24
ATOM     24  N   UNL     1      -1.429  -8.250   0.000  0.00  0.00    -0.077 NA
BRANCH  24  25
ATOM     25  S   UNL     1      -2.143  -8.662   0.000  0.00  0.00    +0.077 S 
ATOM     26  O   UNL     1      -2.556  -7.948   0.000  0.00  0.00    -0.152 OA
ATOM     27  O   UNL     1      -1.731  -9.377   0.000  0.00  0.00    -0.152 OA
BRANCH  25  28
ATOM     28  C   UNL     1      -2.858  -9.075   0.000  0.00  0.00    +0.124 A 
ATOM     29  C   UNL     1      -2.858  -9.900   0.000  0.00  0.00    +0.020 A 
ATOM     30  C   UNL     1      -3.572 -10.312   0.000  0.00  0.00    +0.001 A 
ATOM     31  C   UNL     1      -4.287  -9.900   0.000  0.00  0.00    +0.000 A 
ATOM     32  C   UNL     1      -4.287  -9.075   0.000  0.00  0.00    +0.001 A 
ATOM     33  C   UNL     1      -3.572  -8.662   0.000  0.00  0.00    +0.020 A 
ENDBRANCH  25  28
ENDBRANCH  24  25
ENDBRANCH  23  24
ENDBRANCH  22  23
TORSDOF 10
