REMARK  Name = 
REMARK  3 active torsions:
REMARK  status: ('A' for Active; 'I' for Inactive)
REMARK    1  A    between atoms: O_2  and  C_3
REMARK    2  A    between atoms: C_4  and  C_9
REMARK    3  A    between atoms: C_18  and  C_25
REMARK                            x       y       z     vdW  Elec       q    Type
REMARK                         _______ _______ _______ _____ _____    ______ ____
ROOT
ATOM      9  C   UNL     1       0.153  -2.679   0.000  0.00  0.00    +0.252 C 
ATOM     10  O   UNL     1       0.441  -3.536   0.000  0.00  0.00    -0.270 OA
ATOM     11  N   UNL     1       0.813  -2.091   0.000  0.00  0.00    -0.276 N 
ATOM     12  C   UNL     1       1.629  -1.912   0.000  0.00  0.00    +0.096 C 
ATOM     13  C   UNL     1       1.582  -0.925   0.000  0.00  0.00    +0.043 C 
ATOM     14  C   UNL     1       1.713  -0.121   0.000  0.00  0.00    +0.011 C 
ATOM     15  C   UNL     1       1.163  -0.557   0.000  0.00  0.00    +0.058 C 
ATOM     16  C   UNL     1       1.225  -1.510   0.000  0.00  0.00    +0.099 C 
ATOM     17  C   UNL     1       0.244  -0.558   0.000  0.00  0.00    +0.041 A 
ATOM     18  C   UNL     1      -0.397  -0.039   0.000  0.00  0.00    +0.015 A 
ATOM     19  C   UNL     1      -1.167  -0.335   0.000  0.00  0.00    +0.006 A 
ATOM     20  C   UNL     1      -1.296  -1.150   0.000  0.00  0.00    +0.061 A 
ATOM     21  C   UNL     1      -0.655  -1.669   0.000  0.00  0.00    +0.261 A 
ATOM     22  O   UNL     1      -0.762  -2.692   0.000  0.00  0.00    -0.267 OA
ATOM     23  N   UNL     1       0.115  -1.373   0.000  0.00  0.00    -0.299 N 
ATOM     24  C   UNL     1       0.622  -0.936   0.000  0.00  0.00    +0.110 C 
ENDROOT
BRANCH   9   4
ATOM      3  C   UNL     1      -1.301  -2.635   0.000  0.00  0.00    +0.143 A 
ATOM      4  C   UNL     1      -0.614  -2.179   0.000  0.00  0.00    +0.087 A 
ATOM      5  C   UNL     1      -0.664  -1.356   0.000  0.00  0.00    +0.008 A 
ATOM      6  C   UNL     1      -1.485  -0.905   0.000  0.00  0.00    +0.000 A 
ATOM      7  C   UNL     1      -2.091  -1.444   0.000  0.00  0.00    +0.003 A 
ATOM      8  C   UNL     1      -2.040  -2.267   0.000  0.00  0.00    +0.037 A 
BRANCH   3   2
ATOM      1  C   UNL     1      -1.757  -4.094   0.000  0.00  0.00    +0.252 C 
ATOM      2  O   UNL     1      -1.130  -3.558   0.000  0.00  0.00    -0.471 OA
ENDBRANCH   3   2
ENDBRANCH   9   4
BRANCH  18  25
ATOM     25  C   UNL     1      -0.268   0.776   0.000  0.00  0.00    +0.039 A 
ATOM     26  C   UNL     1      -0.909   1.295   0.000  0.00  0.00    +0.102 A 
ATOM     27  N   UNL     1      -0.780   2.110   0.000  0.00  0.00    -0.222 NA
ATOM     28  C   UNL     1      -0.010   2.406   0.000  0.00  0.00    +0.199 A 
ATOM     29  N   UNL     1       0.631   1.887   0.000  0.00  0.00    -0.222 NA
ATOM     30  C   UNL     1       0.502   1.072   0.000  0.00  0.00    +0.102 A 
ENDBRANCH  18  25
TORSDOF 3
