REMARK  Name = 
REMARK  5 active torsions:
REMARK  status: ('A' for Active; 'I' for Inactive)
REMARK    1  A    between atoms: N_2  and  C_4
REMARK    2  A    between atoms: C_7  and  C_8
REMARK    3  A    between atoms: C_8  and  N_9
REMARK    4  A    between atoms: C_10  and  C_12
REMARK    5  A    between atoms: C_12  and  C_13
REMARK                            x       y       z     vdW  Elec       q    Type
REMARK                         _______ _______ _______ _____ _____    ______ ____
ROOT
ATOM      4  C   UNL     1       0.568   1.114   0.000  0.00  0.00    +0.121 C 
ATOM      5  C   UNL     1       1.235   0.629   0.000  0.00  0.00    +0.161 C 
ATOM      6  O   UNL     1       0.980  -0.155   0.000  0.00  0.00    -0.350 OA
ATOM      7  C   UNL     1       0.155  -0.155   0.000  0.00  0.00    +0.168 C 
ATOM     17  C   UNL     1      -0.100   0.629   0.000  0.00  0.00    +0.198 C 
ATOM     18  O   UNL     1      -0.884   0.884   0.000  0.00  0.00    -0.219 OA
ENDROOT
BRANCH   4   2
ATOM      1  C   UNL     1       1.282   2.352   0.000  0.00  0.00    +0.090 C 
ATOM      2  N   UNL     1       0.568   1.939   0.000  0.00  0.00    -0.267 NA
ATOM      3  C   UNL     1      -0.147   2.352   0.000  0.00  0.00    +0.090 C 
ENDBRANCH   4   2
BRANCH   7   8
ATOM      8  C   UNL     1      -0.330  -0.823   0.000  0.00  0.00    +0.147 C 
BRANCH   8   9
ATOM      9  N   UNL     1      -1.150  -0.737   0.000  0.00  0.00    -0.203 NA
ATOM     10  C   UNL     1      -1.635  -1.404   0.000  0.00  0.00    +0.241 C 
ATOM     11  O   UNL     1      -1.300  -2.158   0.000  0.00  0.00    -0.273 OA
BRANCH  10  12
ATOM     12  C   UNL     1      -2.455  -1.318   0.000  0.00  0.00    +0.087 C 
BRANCH  12  13
ATOM     13  C   UNL     1      -2.941  -1.985   0.000  0.00  0.00    +0.009 C 
ATOM     14  C   UNL     1      -3.425  -2.652   0.000  0.00  0.00    +0.000 C 
ATOM     15  C   UNL     1      -3.608  -1.500   0.000  0.00  0.00    +0.000 C 
ATOM     16  C   UNL     1      -2.273  -2.470   0.000  0.00  0.00    +0.000 C 
ENDBRANCH  12  13
ENDBRANCH  10  12
ENDBRANCH   8   9
ENDBRANCH   7   8
TORSDOF 5
