REMARK  Name = 
REMARK  3 active torsions:
REMARK  status: ('A' for Active; 'I' for Inactive)
REMARK    1  A    between atoms: O_2  and  C_3
REMARK    2  A    between atoms: C_6  and  C_9
REMARK    3  A    between atoms: C_17  and  C_19
REMARK                            x       y       z     vdW  Elec       q    Type
REMARK                         _______ _______ _______ _____ _____    ______ ____
ROOT
ATOM      9  C   UNL     1      -0.397  -0.039   0.000  0.00  0.00    +0.012 A 
ATOM     10  C   UNL     1       0.244  -0.558   0.000  0.00  0.00    +0.041 A 
ATOM     11  C   UNL     1       1.163  -0.557   0.000  0.00  0.00    +0.058 C 
ATOM     12  C   UNL     1       1.713  -0.121   0.000  0.00  0.00    +0.011 C 
ATOM     13  C   UNL     1       1.582  -0.925   0.000  0.00  0.00    +0.043 C 
ATOM     14  C   UNL     1       1.629  -1.912   0.000  0.00  0.00    +0.096 C 
ATOM     15  N   UNL     1       0.813  -2.091   0.000  0.00  0.00    -0.275 N 
ATOM     16  C   UNL     1       1.225  -1.510   0.000  0.00  0.00    +0.100 C 
ATOM     17  C   UNL     1       0.125  -2.547   0.000  0.00  0.00    +0.255 C 
ATOM     18  O   UNL     1      -0.614  -2.179   0.000  0.00  0.00    -0.269 OA
ATOM     24  C   UNL     1       0.622  -0.936   0.000  0.00  0.00    +0.110 C 
ATOM     25  N   UNL     1       0.115  -1.373   0.000  0.00  0.00    -0.299 N 
ATOM     26  C   UNL     1      -0.655  -1.669   0.000  0.00  0.00    +0.261 A 
ATOM     27  O   UNL     1      -1.029  -2.404   0.000  0.00  0.00    -0.267 OA
ATOM     28  C   UNL     1      -1.296  -1.150   0.000  0.00  0.00    +0.061 A 
ATOM     29  C   UNL     1      -1.167  -0.335   0.000  0.00  0.00    +0.006 A 
ENDROOT
BRANCH   9   6
ATOM      3  C   UNL     1      -0.010   2.406   0.000  0.00  0.00    +0.139 A 
ATOM      4  C   UNL     1       0.631   1.887   0.000  0.00  0.00    +0.037 A 
ATOM      5  C   UNL     1       0.502   1.072   0.000  0.00  0.00    +0.003 A 
ATOM      6  C   UNL     1      -0.268   0.776   0.000  0.00  0.00    +0.001 A 
ATOM      7  C   UNL     1      -0.909   1.295   0.000  0.00  0.00    +0.003 A 
ATOM      8  C   UNL     1      -0.780   2.110   0.000  0.00  0.00    +0.037 A 
BRANCH   3   2
ATOM      1  C   UNL     1      -0.522   3.740   0.000  0.00  0.00    +0.252 C 
ATOM      2  O   UNL     1       0.119   3.220   0.000  0.00  0.00    -0.471 OA
ENDBRANCH   3   2
ENDBRANCH   9   6
BRANCH  17  19
ATOM     19  C   UNL     1       0.176  -3.370   0.000  0.00  0.00    +0.083 A 
ATOM     20  C   UNL     1       0.872  -3.813   0.000  0.00  0.00    +0.012 A 
ATOM     21  C   UNL     1       0.665  -4.612   0.000  0.00  0.00    +0.008 A 
ATOM     22  C   UNL     1      -0.158  -4.663   0.000  0.00  0.00    +0.036 A 
ATOM     23  S   UNL     1      -0.461  -3.896   0.000  0.00  0.00    -0.082 S 
ENDBRANCH  17  19
TORSDOF 3
