REMARK  Name = 
REMARK  7 active torsions:
REMARK  status: ('A' for Active; 'I' for Inactive)
REMARK    1  A    between atoms: O_2  and  C_3
REMARK    2  A    between atoms: C_3  and  C_4
REMARK    3  A    between atoms: C_4  and  N_5
REMARK    4  A    between atoms: C_6  and  C_8
REMARK    5  A    between atoms: C_8  and  C_9
REMARK    6  A    between atoms: C_14  and  C_16
REMARK    7  A    between atoms: C_27  and  C_29
REMARK                            x       y       z     vdW  Elec       q    Type
REMARK                         _______ _______ _______ _____ _____    ______ ____
ROOT
ATOM      9  C   UNL     1       7.859   2.062   0.000  0.00  0.00    +0.050 C 
ATOM     10  C   UNL     1       8.574   2.475   0.000  0.00  0.00    +0.063 A 
ATOM     11  C   UNL     1       9.288   2.062   0.000  0.00  0.00    +0.023 A 
ATOM     12  C   UNL     1       9.288   1.238   0.000  0.00  0.00    +0.034 C 
ATOM     13  C   UNL     1       8.574   0.825   0.000  0.00  0.00    +0.010 C 
ATOM     14  C   UNL     1       8.574   0.000   0.000  0.00  0.00    +0.059 C 
ATOM     15  C   UNL     1       9.386   0.143   0.000  0.00  0.00    +0.005 C 
ATOM     18  C   UNL     1       7.859  -0.412   0.000  0.00  0.00    +0.154 C 
ATOM     19  O   UNL     1       7.859  -1.238   0.000  0.00  0.00    -0.223 OA
ATOM     20  C   UNL     1       7.145   0.000   0.000  0.00  0.00    +0.033 C 
ATOM     21  C   UNL     1       7.145   0.825   0.000  0.00  0.00    +0.003 C 
ATOM     22  C   UNL     1       7.859   1.238   0.000  0.00  0.00    +0.006 C 
ATOM     23  C   UNL     1       7.145   1.650   0.000  0.00  0.00    +0.000 C 
ATOM     24  S   UNL     1       9.901   2.615   0.000  0.00  0.00    -0.054 S 
ATOM     25  C   UNL     1       9.566   3.368   0.000  0.00  0.00    +0.186 A 
ATOM     26  N   UNL     1       9.978   4.083   0.000  0.00  0.00    -0.148 NA
ATOM     27  C   UNL     1       9.566   4.797   0.000  0.00  0.00    +0.305 C 
ATOM     28  O   UNL     1       8.741   4.797   0.000  0.00  0.00    -0.265 OA
ATOM     34  N   UNL     1       8.745   3.282   0.000  0.00  0.00    -0.227 NA
ENDROOT
BRANCH  27  29
ATOM     29  C   UNL     1       9.978   5.512   0.000  0.00  0.00    +0.201 A 
ATOM     30  C   UNL     1       9.643   6.265   0.000  0.00  0.00    +0.046 A 
ATOM     31  C   UNL     1      10.256   6.817   0.000  0.00  0.00    +0.044 A 
ATOM     32  C   UNL     1      10.970   6.405   0.000  0.00  0.00    +0.180 A 
ATOM     33  O   UNL     1      10.799   5.598   0.000  0.00  0.00    -0.446 OA
ENDBRANCH  27  29
BRANCH  14  16
ATOM     16  C   UNL     1       8.856  -0.775   0.000  0.00  0.00    +0.184 C 
ATOM     17  O   UNL     1       8.325  -1.407   0.000  0.00  0.00    -0.220 OA
ENDBRANCH  14  16
BRANCH   9   8
ATOM      8  C   UNL     1       7.145   2.475   0.000  0.00  0.00    +0.093 C 
BRANCH   8   6
ATOM      5  N   UNL     1       5.716   2.475   0.000  0.00  0.00    -0.203 NA
ATOM      6  C   UNL     1       6.430   2.062   0.000  0.00  0.00    +0.242 C 
ATOM      7  O   UNL     1       6.430   1.238   0.000  0.00  0.00    -0.273 OA
BRANCH   5   4
ATOM      4  C   UNL     1       5.001   2.062   0.000  0.00  0.00    +0.147 C 
BRANCH   4   3
ATOM      3  C   UNL     1       4.287   2.475   0.000  0.00  0.00    +0.166 C 
BRANCH   3   2
ATOM      1  C   UNL     1       2.858   2.475   0.000  0.00  0.00    +0.174 C 
ATOM      2  O   UNL     1       3.572   2.062   0.000  0.00  0.00    -0.349 OA
ENDBRANCH   3   2
ENDBRANCH   4   3
ENDBRANCH   5   4
ENDBRANCH   8   6
ENDBRANCH   9   8
TORSDOF 7
