REMARK  Name = 
REMARK  5 active torsions:
REMARK  status: ('A' for Active; 'I' for Inactive)
REMARK    1  A    between atoms: S_2  and  N_5
REMARK    2  A    between atoms: C_10  and  C_12
REMARK    3  A    between atoms: C_15  and  C_17
REMARK    4  A    between atoms: N_21  and  C_22
REMARK    5  A    between atoms: C_22  and  C_23
REMARK                            x       y       z     vdW  Elec       q    Type
REMARK                         _______ _______ _______ _____ _____    ______ ____
ROOT
ATOM     12  C   UNL     1       2.751   2.290   0.000  0.00  0.00    +0.203 A 
ATOM     13  N   UNL     1       3.419   1.805   0.000  0.00  0.00    -0.056 NA
ATOM     14  O   UNL     1       3.164   1.021   0.000  0.00  0.00    -0.336 OA
ATOM     15  C   UNL     1       2.339   1.021   0.000  0.00  0.00    +0.251 A 
ATOM     16  N   UNL     1       2.084   1.805   0.000  0.00  0.00    -0.190 NA
ENDROOT
BRANCH  12  10
ATOM      5  N   UNL     1       1.322   4.765   0.000  0.00  0.00    -0.081 NA
ATOM      6  C   UNL     1       2.037   4.353   0.000  0.00  0.00    +0.171 A 
ATOM      7  N   UNL     1       2.751   4.765   0.000  0.00  0.00    -0.226 NA
ATOM      8  C   UNL     1       3.466   4.353   0.000  0.00  0.00    +0.101 A 
ATOM      9  C   UNL     1       3.466   3.528   0.000  0.00  0.00    +0.024 A 
ATOM     10  C   UNL     1       2.751   3.115   0.000  0.00  0.00    +0.044 A 
ATOM     11  C   UNL     1       2.037   3.528   0.000  0.00  0.00    +0.041 A 
BRANCH   5   2
ATOM      1  C   UNL     1       1.322   6.415   0.000  0.00  0.00    +0.202 C 
ATOM      2  S   UNL     1       1.322   5.590   0.000  0.00  0.00    +0.076 S 
ATOM      3  O   UNL     1       0.497   5.590   0.000  0.00  0.00    -0.153 OA
ATOM      4  O   UNL     1       2.147   5.590   0.000  0.00  0.00    -0.153 OA
ENDBRANCH   5   2
ENDBRANCH  12  10
BRANCH  15  17
ATOM     17  C   UNL     1       1.854   0.353   0.000  0.00  0.00    +0.138 C 
ATOM     18  C   UNL     1       2.109  -0.431   0.000  0.00  0.00    +0.027 C 
ATOM     19  C   UNL     1       1.441  -0.916   0.000  0.00  0.00    +0.019 C 
ATOM     20  C   UNL     1       0.774  -0.431   0.000  0.00  0.00    +0.073 C 
ATOM     21  N   UNL     1       1.029   0.353   0.000  0.00  0.00    -0.260 NA
BRANCH  21  22
ATOM     22  C   UNL     1       0.544   1.021   0.000  0.00  0.00    +0.139 C 
BRANCH  22  23
ATOM     23  C   UNL     1       0.879   1.774   0.000  0.00  0.00    +0.155 A 
ATOM     24  N   UNL     1       0.467   2.489   0.000  0.00  0.00    -0.226 NA
ATOM     25  C   UNL     1       1.019   3.102   0.000  0.00  0.00    +0.121 A 
ATOM     26  C   UNL     1       1.773   2.766   0.000  0.00  0.00    +0.121 A 
ATOM     27  N   UNL     1       1.686   1.946   0.000  0.00  0.00    -0.226 NA
ENDBRANCH  22  23
ENDBRANCH  21  22
ENDBRANCH  15  17
TORSDOF 5
