REMARK  Name = 
REMARK  5 active torsions:
REMARK  status: ('A' for Active; 'I' for Inactive)
REMARK    1  A    between atoms: C_2  and  N_4
REMARK    2  A    between atoms: C_5  and  C_7
REMARK    3  A    between atoms: C_14  and  C_15
REMARK    4  A    between atoms: C_15  and  N_16
REMARK    5  A    between atoms: C_18  and  C_21
REMARK                            x       y       z     vdW  Elec       q    Type
REMARK                         _______ _______ _______ _____ _____    ______ ____
ROOT
ATOM      7  C   UNL     1       1.661  -1.343   0.000  0.00  0.00    +0.094 C 
ATOM      8  C   UNL     1       1.814  -2.106   0.000  0.00  0.00    +0.081 C 
ATOM      9  N   UNL     1       1.065  -1.759   0.000  0.00  0.00    -0.272 NA
ATOM     10  C   UNL     1       1.205  -0.720   0.000  0.00  0.00    +0.072 C 
ATOM     11  C   UNL     1       0.961  -0.114   0.000  0.00  0.00    +0.018 C 
ATOM     12  C   UNL     1       0.923  -1.010   0.000  0.00  0.00    +0.013 C 
ATOM     13  C   UNL     1       0.119  -1.362   0.000  0.00  0.00    +0.019 C 
ATOM     14  C   UNL     1       0.226  -2.118   0.000  0.00  0.00    +0.082 C 
ENDROOT
BRANCH   7   5
ATOM      4  N   UNL     1       2.184  -0.013   0.000  0.00  0.00    -0.207 NA
ATOM      5  C   UNL     1       2.307  -0.828   0.000  0.00  0.00    +0.242 C 
ATOM      6  O   UNL     1       3.075  -1.130   0.000  0.00  0.00    -0.273 OA
BRANCH   4   2
ATOM      1  C   UNL     1       2.707   1.317   0.000  0.00  0.00    +0.023 C 
ATOM      2  C   UNL     1       2.829   0.501   0.000  0.00  0.00    +0.095 C 
ATOM      3  C   UNL     1       3.597   0.200   0.000  0.00  0.00    +0.023 C 
ENDBRANCH   4   2
ENDBRANCH   7   5
BRANCH  14  15
ATOM     15  C   UNL     1      -0.179  -2.836   0.000  0.00  0.00    +0.145 C 
BRANCH  15  16
ATOM     16  N   UNL     1      -1.004  -2.845   0.000  0.00  0.00    -0.229 N 
ATOM     17  C   UNL     1      -1.481  -3.518   0.000  0.00  0.00    +0.118 A 
ATOM     18  C   UNL     1      -2.269  -3.271   0.000  0.00  0.00    +0.123 A 
ATOM     19  N   UNL     1      -2.277  -2.446   0.000  0.00  0.00    -0.129 NA
ATOM     20  N   UNL     1      -1.496  -2.183   0.000  0.00  0.00    -0.064 NA
BRANCH  18  21
ATOM     21  C   UNL     1      -2.931  -3.763   0.000  0.00  0.00    +0.021 A 
ATOM     22  C   UNL     1      -2.836  -4.583   0.000  0.00  0.00    +0.004 A 
ATOM     23  C   UNL     1      -3.498  -5.075   0.000  0.00  0.00    +0.030 A 
ATOM     24  C   UNL     1      -4.255  -4.747   0.000  0.00  0.00    +0.140 A 
ATOM     25  F   UNL     1      -4.917  -5.239   0.000  0.00  0.00    -0.204 F 
ATOM     26  C   UNL     1      -4.350  -3.928   0.000  0.00  0.00    +0.030 A 
ATOM     27  C   UNL     1      -3.688  -3.436   0.000  0.00  0.00    +0.004 A 
ENDBRANCH  18  21
ENDBRANCH  15  16
ENDBRANCH  14  15
TORSDOF 5
