REMARK  Name = 
REMARK  8 active torsions:
REMARK  status: ('A' for Active; 'I' for Inactive)
REMARK    1  A    between atoms: C_2  and  C_4
REMARK    2  A    between atoms: C_4  and  C_5
REMARK    3  A    between atoms: C_4  and  N_15
REMARK    4  A    between atoms: C_5  and  C_6
REMARK    5  A    between atoms: C_16  and  C_18
REMARK    6  A    between atoms: N_20  and  S_32
REMARK    7  A    between atoms: C_24  and  C_26
REMARK    8  A    between atoms: S_32  and  C_35
REMARK                            x       y       z     vdW  Elec       q    Type
REMARK                         _______ _______ _______ _____ _____    ______ ____
ROOT
ATOM     18  C   UNL     1      -2.522   2.666   0.000  0.00  0.00    +0.171 C 
ATOM     19  C   UNL     1      -3.329   2.838   0.000  0.00  0.00    +0.125 C 
ATOM     20  N   UNL     1      -3.584   3.623   0.000  0.00  0.00    -0.152 NA
ATOM     21  C   UNL     1      -3.032   4.236   0.000  0.00  0.00    +0.117 C 
ATOM     22  C   UNL     1      -2.225   4.064   0.000  0.00  0.00    +0.113 C 
ATOM     23  N   UNL     1      -1.970   3.280   0.000  0.00  0.00    -0.270 N 
ATOM     24  C   UNL     1      -1.163   3.108   0.000  0.00  0.00    +0.226 C 
ATOM     25  O   UNL     1      -0.908   2.323   0.000  0.00  0.00    -0.275 OA
ENDROOT
BRANCH  24  26
ATOM     26  C   UNL     1      -0.611   3.721   0.000  0.00  0.00    +0.080 C 
ATOM     27  C   UNL     1      -0.866   4.506   0.000  0.00  0.00    +0.028 C 
ATOM     28  C   UNL     1      -0.314   5.119   0.000  0.00  0.00    +0.089 C 
ATOM     29  N   UNL     1       0.493   4.947   0.000  0.00  0.00    -0.218 NA
ATOM     30  C   UNL     1       0.748   4.163   0.000  0.00  0.00    +0.089 C 
ATOM     31  C   UNL     1       0.196   3.550   0.000  0.00  0.00    +0.028 C 
ENDBRANCH  24  26
BRANCH  18  16
ATOM     15  N   UNL     1      -1.460   1.710   0.000  0.00  0.00    -0.196 NA
ATOM     16  C   UNL     1      -2.267   1.882   0.000  0.00  0.00    +0.261 C 
ATOM     17  O   UNL     1      -2.819   1.269   0.000  0.00  0.00    -0.271 OA
BRANCH  15   4
ATOM      4  C   UNL     1      -1.205   0.926   0.000  0.00  0.00    +0.179 C 
BRANCH   4   2
ATOM      1  N   UNL     1      -2.564   0.484   0.000  0.00  0.00    -0.086 NA
ATOM      2  C   UNL     1      -1.758   0.313   0.000  0.00  0.00    +0.281 C 
ATOM      3  O   UNL     1      -1.502  -0.472   0.000  0.00  0.00    -0.270 OA
ENDBRANCH   4   2
BRANCH   4   5
ATOM      5  C   UNL     1      -0.398   0.754   0.000  0.00  0.00    +0.059 C 
BRANCH   5   6
ATOM      6  C   UNL     1      -0.143  -0.030   0.000  0.00  0.00    +0.001 A 
ATOM      7  C   UNL     1      -0.628  -0.698   0.000  0.00  0.00    +0.095 A 
ATOM      8  N   UNL     1      -0.143  -1.365   0.000  0.00  0.00    -0.244 NA
ATOM      9  C   UNL     1       0.641  -1.110   0.000  0.00  0.00    +0.081 A 
ATOM     10  C   UNL     1       0.641  -0.285   0.000  0.00  0.00    +0.015 A 
ATOM     11  C   UNL     1       1.356   0.127   0.000  0.00  0.00    +0.001 A 
ATOM     12  C   UNL     1       2.070  -0.285   0.000  0.00  0.00    +0.000 A 
ATOM     13  C   UNL     1       2.070  -1.110   0.000  0.00  0.00    +0.002 A 
ATOM     14  C   UNL     1       1.356  -1.523   0.000  0.00  0.00    +0.019 A 
ENDBRANCH   5   6
ENDBRANCH   4   5
ENDBRANCH  15   4
ENDBRANCH  18  16
BRANCH  20  32
ATOM     32  S   UNL     1      -4.391   3.794   0.000  0.00  0.00    +0.063 S 
ATOM     33  O   UNL     1      -4.220   4.601   0.000  0.00  0.00    -0.153 OA
ATOM     34  O   UNL     1      -4.563   2.987   0.000  0.00  0.00    -0.153 OA
BRANCH  32  35
ATOM     35  C   UNL     1      -5.198   3.966   0.000  0.00  0.00    +0.122 A 
ATOM     36  C   UNL     1      -5.750   3.353   0.000  0.00  0.00    +0.020 A 
ATOM     37  C   UNL     1      -6.557   3.524   0.000  0.00  0.00    +0.001 A 
ATOM     38  C   UNL     1      -6.812   4.309   0.000  0.00  0.00    +0.000 A 
ATOM     39  C   UNL     1      -6.260   4.922   0.000  0.00  0.00    +0.001 A 
ATOM     40  C   UNL     1      -5.453   4.750   0.000  0.00  0.00    +0.020 A 
ENDBRANCH  32  35
ENDBRANCH  20  32
TORSDOF 8
