REMARK  Name = 
REMARK  5 active torsions:
REMARK  status: ('A' for Active; 'I' for Inactive)
REMARK    1  A    between atoms: O_2  and  C_3
REMARK    2  A    between atoms: C_5  and  C_9
REMARK    3  A    between atoms: N_11  and  C_12
REMARK    4  A    between atoms: C_18  and  C_19
REMARK    5  A    between atoms: C_22  and  N_25
REMARK                            x       y       z     vdW  Elec       q    Type
REMARK                         _______ _______ _______ _____ _____    ______ ____
ROOT
ATOM     12  C   UNL     1       0.715  -3.712   0.000  0.00  0.00    +0.133 C 
ATOM     13  C   UNL     1       1.382  -4.197   0.000  0.00  0.00    +0.202 C 
ATOM     14  O   UNL     1       2.167  -3.942   0.000  0.00  0.00    -0.219 OA
ATOM     15  C   UNL     1       1.127  -4.982   0.000  0.00  0.00    +0.184 C 
ATOM     16  O   UNL     1       1.612  -5.649   0.000  0.00  0.00    -0.220 OA
ATOM     17  C   UNL     1       0.302  -4.982   0.000  0.00  0.00    +0.042 C 
ATOM     18  C   UNL     1       0.047  -4.197   0.000  0.00  0.00    +0.049 C 
ENDROOT
BRANCH  18  19
ATOM     19  C   UNL     1      -0.738  -3.942   0.000  0.00  0.00    -0.001 A 
ATOM     20  C   UNL     1      -1.351  -4.495   0.000  0.00  0.00    +0.000 A 
ATOM     21  C   UNL     1      -2.135  -4.240   0.000  0.00  0.00    +0.034 A 
ATOM     22  C   UNL     1      -2.307  -3.433   0.000  0.00  0.00    +0.132 A 
ATOM     23  N   UNL     1      -1.694  -2.881   0.000  0.00  0.00    -0.229 NA
ATOM     24  C   UNL     1      -0.909  -3.135   0.000  0.00  0.00    +0.096 A 
BRANCH  22  25
ATOM     25  N   UNL     1      -3.091  -3.178   0.000  0.00  0.00    -0.288 N 
ATOM     26  C   UNL     1      -3.704  -3.730   0.000  0.00  0.00    +0.124 C 
ATOM     27  C   UNL     1      -4.489  -3.475   0.000  0.00  0.00    +0.164 C 
ATOM     28  O   UNL     1      -4.661  -2.668   0.000  0.00  0.00    -0.350 OA
ATOM     29  C   UNL     1      -4.048  -2.116   0.000  0.00  0.00    +0.164 C 
ATOM     30  C   UNL     1      -3.263  -2.371   0.000  0.00  0.00    +0.124 C 
ENDBRANCH  22  25
ENDBRANCH  18  19
BRANCH  12  11
ATOM      9  C   UNL     1       1.429  -2.475   0.000  0.00  0.00    +0.265 C 
ATOM     10  O   UNL     1       2.143  -2.888   0.000  0.00  0.00    -0.268 OA
ATOM     11  N   UNL     1       0.715  -2.888   0.000  0.00  0.00    -0.200 NA
BRANCH   9   5
ATOM      3  C   UNL     1       2.143  -0.412   0.000  0.00  0.00    +0.139 A 
ATOM      4  C   UNL     1       2.143  -1.238   0.000  0.00  0.00    +0.041 A 
ATOM      5  C   UNL     1       1.429  -1.650   0.000  0.00  0.00    +0.058 A 
ATOM      6  C   UNL     1       0.715  -1.238   0.000  0.00  0.00    +0.005 A 
ATOM      7  C   UNL     1       0.715  -0.412   0.000  0.00  0.00    +0.003 A 
ATOM      8  C   UNL     1       1.429   0.000   0.000  0.00  0.00    +0.037 A 
BRANCH   3   2
ATOM      1  C   UNL     1       2.858   0.825   0.000  0.00  0.00    +0.252 C 
ATOM      2  O   UNL     1       2.858   0.000   0.000  0.00  0.00    -0.471 OA
ENDBRANCH   3   2
ENDBRANCH   9   5
ENDBRANCH  12  11
TORSDOF 5
