REMARK  Name = 
REMARK  6 active torsions:
REMARK  status: ('A' for Active; 'I' for Inactive)
REMARK    1  A    between atoms: C_2  and  C_5
REMARK    2  A    between atoms: C_8  and  C_11
REMARK    3  A    between atoms: N_13  and  C_14
REMARK    4  A    between atoms: C_18  and  O_22
REMARK    5  A    between atoms: O_22  and  C_23
REMARK    6  A    between atoms: N_25  and  C_26
REMARK                            x       y       z     vdW  Elec       q    Type
REMARK                         _______ _______ _______ _____ _____    ______ ____
ROOT
ATOM     14  C   UNL     1      -2.059  -4.067   0.000  0.00  0.00    +0.155 C 
ATOM     15  C   UNL     1      -1.973  -3.247   0.000  0.00  0.00    +0.166 C 
ATOM     16  O   UNL     1      -1.166  -3.075   0.000  0.00  0.00    -0.348 OA
ATOM     17  C   UNL     1      -0.754  -3.789   0.000  0.00  0.00    +0.186 C 
ATOM     18  C   UNL     1       0.000  -4.125   0.000  0.00  0.00    +0.229 C 
ATOM     19  C   UNL     1      -0.086  -4.946   0.000  0.00  0.00    +0.188 C 
ATOM     20  O   UNL     1      -0.893  -5.117   0.000  0.00  0.00    -0.348 OA
ATOM     21  C   UNL     1      -1.306  -4.402   0.000  0.00  0.00    +0.168 C 
ENDROOT
BRANCH  14  13
ATOM     11  C   UNL     1      -3.488  -4.067   0.000  0.00  0.00    +0.265 C 
ATOM     12  O   UNL     1      -3.488  -3.242   0.000  0.00  0.00    -0.268 OA
ATOM     13  N   UNL     1      -2.774  -4.479   0.000  0.00  0.00    -0.198 NA
BRANCH  11   8
ATOM      5  C   UNL     1      -5.632  -5.304   0.000  0.00  0.00    +0.071 A 
ATOM      6  C   UNL     1      -5.632  -4.479   0.000  0.00  0.00    +0.004 A 
ATOM      7  C   UNL     1      -4.917  -4.067   0.000  0.00  0.00    +0.005 A 
ATOM      8  C   UNL     1      -4.203  -4.479   0.000  0.00  0.00    +0.055 A 
ATOM      9  C   UNL     1      -4.203  -5.304   0.000  0.00  0.00    +0.005 A 
ATOM     10  C   UNL     1      -4.917  -5.717   0.000  0.00  0.00    +0.004 A 
BRANCH   5   2
ATOM      1  F   UNL     1      -7.061  -6.130   0.000  0.00  0.00    -0.166 F 
ATOM      2  C   UNL     1      -6.346  -5.717   0.000  0.00  0.00    +0.419 C 
ATOM      3  F   UNL     1      -5.934  -6.431   0.000  0.00  0.00    -0.166 F 
ATOM      4  F   UNL     1      -6.759  -5.003   0.000  0.00  0.00    -0.166 F 
ENDBRANCH   5   2
ENDBRANCH  11   8
ENDBRANCH  14  13
BRANCH  18  22
ATOM     22  O   UNL     1       0.715  -3.712   0.000  0.00  0.00    -0.432 OA
BRANCH  22  23
ATOM     23  C   UNL     1       0.715  -2.888   0.000  0.00  0.00    +0.425 C 
ATOM     24  O   UNL     1       0.000  -2.475   0.000  0.00  0.00    -0.224 OA
ATOM     25  N   UNL     1       1.429  -2.475   0.000  0.00  0.00    -0.142 NA
BRANCH  25  26
ATOM     26  C   UNL     1       1.429  -1.650   0.000  0.00  0.00    +0.077 A 
ATOM     27  C   UNL     1       0.715  -1.238   0.000  0.00  0.00    +0.017 A 
ATOM     28  C   UNL     1       0.715  -0.412   0.000  0.00  0.00    +0.001 A 
ATOM     29  C   UNL     1       1.429   0.000   0.000  0.00  0.00    +0.000 A 
ATOM     30  C   UNL     1       2.143  -0.412   0.000  0.00  0.00    +0.001 A 
ATOM     31  C   UNL     1       2.858   0.000   0.000  0.00  0.00    +0.000 A 
ATOM     32  C   UNL     1       3.572  -0.412   0.000  0.00  0.00    +0.000 A 
ATOM     33  C   UNL     1       3.572  -1.238   0.000  0.00  0.00    +0.000 A 
ATOM     34  C   UNL     1       2.858  -1.650   0.000  0.00  0.00    +0.001 A 
ATOM     35  C   UNL     1       2.143  -1.238   0.000  0.00  0.00    +0.015 A 
ENDBRANCH  25  26
ENDBRANCH  22  23
ENDBRANCH  18  22
TORSDOF 6
