REMARK  Name = 
REMARK  6 active torsions:
REMARK  status: ('A' for Active; 'I' for Inactive)
REMARK    1  A    between atoms: O_2  and  C_3
REMARK    2  A    between atoms: C_3  and  C_4
REMARK    3  A    between atoms: N_6  and  C_7
REMARK    4  A    between atoms: C_9  and  C_12
REMARK    5  A    between atoms: N_15  and  C_19
REMARK    6  A    between atoms: C_22  and  C_25
REMARK                            x       y       z     vdW  Elec       q    Type
REMARK                         _______ _______ _______ _____ _____    ______ ____
ROOT
ATOM     12  C   UNL     1       1.266  -5.880   0.000  0.00  0.00    +0.010 A 
ATOM     13  C   UNL     1       1.678  -5.165   0.000  0.00  0.00    +0.058 A 
ATOM     14  C   UNL     1       1.343  -4.412   0.000  0.00  0.00    +0.052 C 
ATOM     15  N   UNL     1       2.485  -5.337   0.000  0.00  0.00    -0.234 N 
ATOM     16  N   UNL     1       2.572  -6.157   0.000  0.00  0.00    -0.170 NA
ATOM     17  C   UNL     1       1.818  -6.493   0.000  0.00  0.00    +0.077 A 
ATOM     18  C   UNL     1       1.646  -7.300   0.000  0.00  0.00    +0.054 C 
ENDROOT
BRANCH  15  19
ATOM     19  C   UNL     1       3.099  -4.785   0.000  0.00  0.00    +0.082 A 
ATOM     20  C   UNL     1       2.927  -3.978   0.000  0.00  0.00    +0.019 A 
ATOM     21  C   UNL     1       3.540  -3.426   0.000  0.00  0.00    -0.003 A 
ATOM     22  C   UNL     1       4.325  -3.681   0.000  0.00  0.00    -0.023 A 
ATOM     23  C   UNL     1       4.496  -4.488   0.000  0.00  0.00    -0.003 A 
ATOM     24  C   UNL     1       3.883  -5.040   0.000  0.00  0.00    +0.019 A 
BRANCH  22  25
ATOM     25  C   UNL     1       4.938  -3.129   0.000  0.00  0.00    +0.019 C 
ATOM     26  C   UNL     1       5.551  -2.577   0.000  0.00  0.00    +0.004 C 
ATOM     27  C   UNL     1       5.490  -3.742   0.000  0.00  0.00    +0.004 C 
ATOM     28  C   UNL     1       4.386  -2.516   0.000  0.00  0.00    +0.004 C 
ENDBRANCH  22  25
ENDBRANCH  15  19
BRANCH  12   9
ATOM      7  C   UNL     1      -0.860  -5.689   0.000  0.00  0.00    +0.118 C 
ATOM      8  C   UNL     1      -0.107  -5.353   0.000  0.00  0.00    +0.035 C 
ATOM      9  C   UNL     1       0.446  -5.966   0.000  0.00  0.00    +0.048 C 
ATOM     10  C   UNL     1       0.033  -6.681   0.000  0.00  0.00    -0.025 C 
ATOM     11  C   UNL     1      -0.774  -6.509   0.000  0.00  0.00    -0.009 C 
BRANCH   7   6
ATOM      4  C   UNL     1      -2.289  -5.689   0.000  0.00  0.00    +0.272 C 
ATOM      5  O   UNL     1      -2.289  -6.513   0.000  0.00  0.00    -0.271 OA
ATOM      6  N   UNL     1      -1.575  -5.276   0.000  0.00  0.00    -0.201 NA
BRANCH   4   3
ATOM      3  C   UNL     1      -3.004  -5.276   0.000  0.00  0.00    +0.229 C 
BRANCH   3   2
ATOM      1  C   UNL     1      -4.433  -5.276   0.000  0.00  0.00    +0.175 C 
ATOM      2  O   UNL     1      -3.718  -5.689   0.000  0.00  0.00    -0.342 OA
ENDBRANCH   3   2
ENDBRANCH   4   3
ENDBRANCH   7   6
ENDBRANCH  12   9
TORSDOF 6
