REMARK  Name = 
REMARK  8 active torsions:
REMARK  status: ('A' for Active; 'I' for Inactive)
REMARK    1  A    between atoms: O_2  and  C_3
REMARK    2  A    between atoms: C_3  and  C_4
REMARK    3  A    between atoms: C_4  and  N_5
REMARK    4  A    between atoms: N_5  and  C_6
REMARK    5  A    between atoms: C_7  and  C_12
REMARK    6  A    between atoms: C_15  and  C_17
REMARK    7  A    between atoms: N_21  and  C_22
REMARK    8  A    between atoms: C_22  and  C_23
REMARK                            x       y       z     vdW  Elec       q    Type
REMARK                         _______ _______ _______ _____ _____    ______ ____
ROOT
ATOM     12  C   UNL     1       4.287  -1.650   0.000  0.00  0.00    +0.206 A 
ATOM     13  N   UNL     1       3.619  -1.165   0.000  0.00  0.00    -0.056 NA
ATOM     14  O   UNL     1       3.874  -0.381   0.000  0.00  0.00    -0.336 OA
ATOM     15  C   UNL     1       4.699  -0.381   0.000  0.00  0.00    +0.251 A 
ATOM     16  N   UNL     1       4.954  -1.165   0.000  0.00  0.00    -0.190 NA
ENDROOT
BRANCH  12   7
ATOM      6  C   UNL     1       3.572  -2.888   0.000  0.00  0.00    +0.151 A 
ATOM      7  C   UNL     1       4.287  -2.475   0.000  0.00  0.00    +0.072 A 
ATOM      8  C   UNL     1       5.001  -2.888   0.000  0.00  0.00    +0.008 A 
ATOM      9  C   UNL     1       5.001  -3.712   0.000  0.00  0.00    +0.021 A 
ATOM     10  C   UNL     1       4.287  -4.125   0.000  0.00  0.00    +0.100 A 
ATOM     11  N   UNL     1       3.572  -3.712   0.000  0.00  0.00    -0.228 NA
BRANCH   6   5
ATOM      5  N   UNL     1       2.858  -2.475   0.000  0.00  0.00    -0.218 NA
BRANCH   5   4
ATOM      4  C   UNL     1       2.143  -2.888   0.000  0.00  0.00    +0.146 C 
BRANCH   4   3
ATOM      3  C   UNL     1       1.429  -2.475   0.000  0.00  0.00    +0.166 C 
BRANCH   3   2
ATOM      1  C   UNL     1       0.000  -2.475   0.000  0.00  0.00    +0.174 C 
ATOM      2  O   UNL     1       0.715  -2.888   0.000  0.00  0.00    -0.349 OA
ENDBRANCH   3   2
ENDBRANCH   4   3
ENDBRANCH   5   4
ENDBRANCH   6   5
ENDBRANCH  12   7
BRANCH  15  17
ATOM     17  C   UNL     1       5.184   0.287   0.000  0.00  0.00    +0.138 C 
ATOM     18  C   UNL     1       4.929   1.072   0.000  0.00  0.00    +0.027 C 
ATOM     19  C   UNL     1       5.597   1.556   0.000  0.00  0.00    +0.019 C 
ATOM     20  C   UNL     1       6.264   1.072   0.000  0.00  0.00    +0.073 C 
ATOM     21  N   UNL     1       6.009   0.287   0.000  0.00  0.00    -0.266 NA
BRANCH  21  22
ATOM     22  C   UNL     1       6.494  -0.381   0.000  0.00  0.00    +0.072 C 
BRANCH  22  23
ATOM     23  C   UNL     1       7.315  -0.294   0.000  0.00  0.00    +0.016 C 
ATOM     24  C   UNL     1       7.650   0.460   0.000  0.00  0.00    +0.001 C 
ATOM     25  C   UNL     1       7.800  -0.962   0.000  0.00  0.00    +0.001 C 
ENDBRANCH  22  23
ENDBRANCH  21  22
ENDBRANCH  15  17
TORSDOF 8
