REMARK  Name = 
REMARK  2 active torsions:
REMARK  status: ('A' for Active; 'I' for Inactive)
REMARK    1  A    between atoms: C_2  and  C_29
REMARK    2  A    between atoms: C_15  and  C_18
REMARK                            x       y       z     vdW  Elec       q    Type
REMARK                         _______ _______ _______ _____ _____    ______ ____
ROOT
ATOM      1  O   UNL     1      14.418   1.468   0.000  0.00  0.00    -0.269 OA
ATOM      2  C   UNL     1      13.953   0.786   0.000  0.00  0.00    +0.255 C 
ATOM      3  N   UNL     1      13.130   0.848   0.000  0.00  0.00    -0.272 N 
ATOM      4  C   UNL     1      12.772   1.591   0.000  0.00  0.00    +0.115 C 
ATOM      5  C   UNL     1      11.950   1.653   0.000  0.00  0.00    +0.116 C 
ATOM      6  N   UNL     1      11.485   0.971   0.000  0.00  0.00    -0.266 N 
ATOM      7  C   UNL     1      11.843   0.228   0.000  0.00  0.00    +0.174 C 
ATOM      8  C   UNL     1      12.665   0.166   0.000  0.00  0.00    +0.123 C 
ATOM      9  C   UNL     1      11.485  -0.515   0.000  0.00  0.00    +0.265 C 
ATOM     10  O   UNL     1      11.999  -1.160   0.000  0.00  0.00    -0.271 OA
ATOM     11  N   UNL     1      10.681  -0.699   0.000  0.00  0.00    -0.178 NA
ATOM     12  C   UNL     1      10.036  -0.184   0.000  0.00  0.00    +0.078 A 
ATOM     13  C   UNL     1      10.036   0.640   0.000  0.00  0.00    +0.069 A 
ATOM     14  C   UNL     1       9.321   1.053   0.000  0.00  0.00    +0.006 A 
ATOM     15  C   UNL     1       8.607   0.640   0.000  0.00  0.00    +0.000 A 
ATOM     16  C   UNL     1       8.607  -0.184   0.000  0.00  0.00    +0.001 A 
ATOM     17  C   UNL     1       9.321  -0.597   0.000  0.00  0.00    +0.017 A 
ATOM     27  C   UNL     1      10.681   1.155   0.000  0.00  0.00    +0.251 C 
ATOM     28  O   UNL     1      10.497   1.959   0.000  0.00  0.00    -0.270 OA
ENDROOT
BRANCH  15  18
ATOM     18  C   UNL     1       7.892   1.053   0.000  0.00  0.00    +0.003 A 
ATOM     19  C   UNL     1       7.178   0.640   0.000  0.00  0.00    +0.040 A 
ATOM     20  C   UNL     1       6.463   1.053   0.000  0.00  0.00    +0.176 A 
ATOM     21  C   UNL     1       6.463   1.878   0.000  0.00  0.00    +0.176 A 
ATOM     22  O   UNL     1       5.678   2.133   0.000  0.00  0.00    -0.435 OA
ATOM     23  C   UNL     1       5.194   1.466   0.000  0.00  0.00    +0.429 C 
ATOM     24  O   UNL     1       5.678   0.798   0.000  0.00  0.00    -0.435 OA
ATOM     25  C   UNL     1       7.178   2.291   0.000  0.00  0.00    +0.040 A 
ATOM     26  C   UNL     1       7.892   1.878   0.000  0.00  0.00    +0.003 A 
ENDBRANCH  15  18
BRANCH   2  29
ATOM     29  C   UNL     1      14.311   0.043   0.000  0.00  0.00    +0.083 A 
ATOM     30  C   UNL     1      15.123  -0.104   0.000  0.00  0.00    +0.012 A 
ATOM     31  C   UNL     1      15.233  -0.922   0.000  0.00  0.00    +0.008 A 
ATOM     32  C   UNL     1      14.490  -1.280   0.000  0.00  0.00    +0.036 A 
ATOM     33  S   UNL     1      13.920  -0.683   0.000  0.00  0.00    -0.082 S 
ENDBRANCH   2  29
TORSDOF 2
