REMARK  Name = 
REMARK  5 active torsions:
REMARK  status: ('A' for Active; 'I' for Inactive)
REMARK    1  A    between atoms: O_2  and  C_3
REMARK    2  A    between atoms: C_6  and  C_9
REMARK    3  A    between atoms: C_12  and  C_14
REMARK    4  A    between atoms: N_19  and  C_20
REMARK    5  A    between atoms: C_20  and  C_21
REMARK                            x       y       z     vdW  Elec       q    Type
REMARK                         _______ _______ _______ _____ _____    ______ ____
ROOT
ATOM     14  C   UNL     1      -1.819   0.374   0.000  0.00  0.00    +0.140 C 
ATOM     15  C   UNL     1      -2.533   0.786   0.000  0.00  0.00    +0.060 C 
ATOM     16  C   UNL     1      -2.361   1.593   0.000  0.00  0.00    +0.170 C 
ATOM     17  O   UNL     1      -2.913   2.206   0.000  0.00  0.00    -0.222 OA
ATOM     18  C   UNL     1      -1.541   1.679   0.000  0.00  0.00    +0.106 C 
ATOM     19  N   UNL     1      -1.205   0.926   0.000  0.00  0.00    -0.260 NA
ENDROOT
BRANCH  14  12
ATOM      9  C   UNL     1      -1.189  -1.666   0.000  0.00  0.00    +0.203 A 
ATOM     10  N   UNL     1      -2.010  -1.753   0.000  0.00  0.00    -0.056 NA
ATOM     11  O   UNL     1      -2.345  -0.999   0.000  0.00  0.00    -0.336 OA
ATOM     12  C   UNL     1      -1.732  -0.447   0.000  0.00  0.00    +0.251 A 
ATOM     13  N   UNL     1      -1.018  -0.859   0.000  0.00  0.00    -0.190 NA
BRANCH   9   6
ATOM      3  C   UNL     1       0.467  -3.506   0.000  0.00  0.00    +0.139 A 
ATOM      4  C   UNL     1      -0.340  -3.677   0.000  0.00  0.00    +0.037 A 
ATOM      5  C   UNL     1      -0.892  -3.064   0.000  0.00  0.00    +0.006 A 
ATOM      6  C   UNL     1      -0.637  -2.279   0.000  0.00  0.00    +0.039 A 
ATOM      7  C   UNL     1       0.170  -2.108   0.000  0.00  0.00    +0.006 A 
ATOM      8  C   UNL     1       0.722  -2.721   0.000  0.00  0.00    +0.037 A 
BRANCH   3   2
ATOM      1  C   UNL     1       1.826  -3.947   0.000  0.00  0.00    +0.252 C 
ATOM      2  O   UNL     1       1.019  -4.119   0.000  0.00  0.00    -0.471 OA
ENDBRANCH   3   2
ENDBRANCH   9   6
ENDBRANCH  14  12
BRANCH  19  20
ATOM     20  C   UNL     1      -0.398   0.754   0.000  0.00  0.00    +0.101 C 
BRANCH  20  21
ATOM     21  C   UNL     1      -0.143  -0.030   0.000  0.00  0.00    +0.014 A 
ATOM     22  C   UNL     1      -0.628  -0.698   0.000  0.00  0.00    +0.096 A 
ATOM     23  N   UNL     1      -0.143  -1.365   0.000  0.00  0.00    -0.244 NA
ATOM     24  C   UNL     1       0.641  -1.110   0.000  0.00  0.00    +0.081 A 
ATOM     25  C   UNL     1       0.641  -0.285   0.000  0.00  0.00    +0.016 A 
ATOM     26  C   UNL     1       1.356   0.127   0.000  0.00  0.00    +0.001 A 
ATOM     27  C   UNL     1       2.070  -0.285   0.000  0.00  0.00    +0.000 A 
ATOM     28  C   UNL     1       2.070  -1.110   0.000  0.00  0.00    +0.002 A 
ATOM     29  C   UNL     1       1.356  -1.523   0.000  0.00  0.00    +0.019 A 
ENDBRANCH  20  21
ENDBRANCH  19  20
TORSDOF 5
