REMARK  Name = 
REMARK  6 active torsions:
REMARK  status: ('A' for Active; 'I' for Inactive)
REMARK    1  A    between atoms: C_2  and  C_4
REMARK    2  A    between atoms: N_7  and  C_10
REMARK    3  A    between atoms: C_16  and  N_17
REMARK    4  A    between atoms: N_17  and  C_18
REMARK    5  A    between atoms: C_18  and  C_19
REMARK    6  A    between atoms: C_22  and  C_25
REMARK                            x       y       z     vdW  Elec       q    Type
REMARK                         _______ _______ _______ _____ _____    ______ ____
ROOT
ATOM     10  C   UNL     1       1.611  -0.930   0.000  0.00  0.00    +0.147 C 
ATOM     11  C   UNL     1       0.640  -0.930   0.000  0.00  0.00    +0.253 C 
ATOM     12  O   UNL     1       0.120  -1.643   0.000  0.00  0.00    -0.327 OA
ATOM     13  C   UNL     1       0.740  -1.266   0.000  0.00  0.00    +0.176 C 
ATOM     14  C   UNL     1       1.060  -0.557   0.000  0.00  0.00    +0.166 C 
ATOM     15  O   UNL     1       0.500  -0.117   0.000  0.00  0.00    -0.328 OA
ATOM     16  C   UNL     1       1.989  -0.542   0.000  0.00  0.00    +0.135 C 
ATOM     31  C   UNL     1       2.127  -1.359   0.000  0.00  0.00    +0.190 C 
ATOM     32  O   UNL     1       2.539  -2.074   0.000  0.00  0.00    -0.220 OA
ENDROOT
BRANCH  10   7
ATOM      4  C   UNL     1       0.771  -3.258   0.000  0.00  0.00    +0.083 C 
ATOM      5  C   UNL     1       0.239  -2.628   0.000  0.00  0.00    +0.027 C 
ATOM      6  C   UNL     1       0.519  -1.852   0.000  0.00  0.00    +0.073 C 
ATOM      7  N   UNL     1       1.331  -1.706   0.000  0.00  0.00    -0.268 NA
ATOM      8  C   UNL     1       1.863  -2.337   0.000  0.00  0.00    +0.073 C 
ATOM      9  C   UNL     1       1.583  -3.113   0.000  0.00  0.00    +0.027 C 
BRANCH   4   2
ATOM      1  N   UNL     1       1.022  -4.665   0.000  0.00  0.00    -0.088 NA
ATOM      2  C   UNL     1       0.490  -4.034   0.000  0.00  0.00    +0.260 C 
ATOM      3  O   UNL     1      -0.322  -4.180   0.000  0.00  0.00    -0.272 OA
ENDBRANCH   4   2
ENDBRANCH  10   7
BRANCH  16  17
ATOM     17  N   UNL     1       2.517   0.093   0.000  0.00  0.00    -0.209 NA
BRANCH  17  18
ATOM     18  C   UNL     1       2.231   0.867   0.000  0.00  0.00    +0.115 C 
BRANCH  18  19
ATOM     19  C   UNL     1       2.758   1.501   0.000  0.00  0.00    -0.005 A 
ATOM     20  C   UNL     1       2.472   2.275   0.000  0.00  0.00    -0.003 A 
ATOM     21  C   UNL     1       2.999   2.910   0.000  0.00  0.00    -0.000 A 
ATOM     22  C   UNL     1       3.812   2.770   0.000  0.00  0.00    -0.000 A 
ATOM     23  C   UNL     1       4.098   1.996   0.000  0.00  0.00    -0.000 A 
ATOM     24  C   UNL     1       3.571   1.362   0.000  0.00  0.00    -0.003 A 
BRANCH  22  25
ATOM     25  C   UNL     1       4.340   3.405   0.000  0.00  0.00    -0.000 A 
ATOM     26  C   UNL     1       4.054   4.179   0.000  0.00  0.00    -0.000 A 
ATOM     27  C   UNL     1       4.581   4.813   0.000  0.00  0.00    +0.000 A 
ATOM     28  C   UNL     1       5.394   4.674   0.000  0.00  0.00    +0.000 A 
ATOM     29  C   UNL     1       5.680   3.900   0.000  0.00  0.00    +0.000 A 
ATOM     30  C   UNL     1       5.153   3.265   0.000  0.00  0.00    -0.000 A 
ENDBRANCH  22  25
ENDBRANCH  18  19
ENDBRANCH  17  18
ENDBRANCH  16  17
TORSDOF 6
