REMARK  Name = 
REMARK  7 active torsions:
REMARK  status: ('A' for Active; 'I' for Inactive)
REMARK    1  A    between atoms: O_2  and  C_3
REMARK    2  A    between atoms: C_3  and  C_5
REMARK    3  A    between atoms: C_11  and  C_13
REMARK    4  A    between atoms: C_13  and  O_14
REMARK    5  A    between atoms: O_14  and  C_15
REMARK    6  A    between atoms: N_21  and  C_22
REMARK    7  A    between atoms: C_22  and  C_23
REMARK                            x       y       z     vdW  Elec       q    Type
REMARK                         _______ _______ _______ _____ _____    ______ ____
ROOT
ATOM      5  C   UNL     1       2.070   1.110   0.000  0.00  0.00    +0.181 C 
ATOM      6  C   UNL     1       1.356   0.698   0.000  0.00  0.00    +0.078 C 
ATOM      7  C   UNL     1       0.641   1.110   0.000  0.00  0.00    +0.076 A 
ATOM      8  C   UNL     1       0.641   1.935   0.000  0.00  0.00    +0.072 A 
ATOM      9  C   UNL     1       1.356   2.348   0.000  0.00  0.00    +0.139 C 
ATOM     10  N   UNL     1       2.070   1.935   0.000  0.00  0.00    -0.262 N 
ATOM     11  C   UNL     1       2.784   2.348   0.000  0.00  0.00    +0.271 C 
ATOM     12  O   UNL     1       2.784   3.173   0.000  0.00  0.00    -0.271 OA
ATOM     21  N   UNL     1      -0.143   2.190   0.000  0.00  0.00    -0.307 N 
ATOM     29  C   UNL     1      -0.628   1.523   0.000  0.00  0.00    +0.178 A 
ATOM     30  N   UNL     1      -0.143   0.856   0.000  0.00  0.00    -0.229 NA
ENDROOT
BRANCH   5   3
ATOM      3  C   UNL     1       2.784   0.698   0.000  0.00  0.00    +0.336 C 
ATOM      4  O   UNL     1       2.784  -0.127   0.000  0.00  0.00    -0.248 OA
BRANCH   3   2
ATOM      1  C   UNL     1       4.213   0.698   0.000  0.00  0.00    +0.256 C 
ATOM      2  O   UNL     1       3.499   1.110   0.000  0.00  0.00    -0.443 OA
ENDBRANCH   3   2
ENDBRANCH   5   3
BRANCH  11  13
ATOM     13  C   UNL     1       3.499   1.935   0.000  0.00  0.00    +0.290 C 
BRANCH  13  14
ATOM     14  O   UNL     1       4.213   2.348   0.000  0.00  0.00    -0.466 OA
BRANCH  14  15
ATOM     15  C   UNL     1       4.928   1.935   0.000  0.00  0.00    +0.139 A 
ATOM     16  C   UNL     1       5.642   2.348   0.000  0.00  0.00    +0.037 A 
ATOM     17  C   UNL     1       6.357   1.935   0.000  0.00  0.00    +0.003 A 
ATOM     18  C   UNL     1       6.357   1.110   0.000  0.00  0.00    +0.000 A 
ATOM     19  C   UNL     1       5.642   0.698   0.000  0.00  0.00    +0.003 A 
ATOM     20  C   UNL     1       4.928   1.110   0.000  0.00  0.00    +0.037 A 
ENDBRANCH  14  15
ENDBRANCH  13  14
ENDBRANCH  11  13
BRANCH  21  22
ATOM     22  C   UNL     1      -0.398   2.975   0.000  0.00  0.00    +0.134 C 
BRANCH  22  23
ATOM     23  C   UNL     1       0.154   3.588   0.000  0.00  0.00    +0.000 A 
ATOM     24  C   UNL     1      -0.101   4.373   0.000  0.00  0.00    -0.002 A 
ATOM     25  C   UNL     1       0.451   4.986   0.000  0.00  0.00    -0.000 A 
ATOM     26  C   UNL     1       1.258   4.814   0.000  0.00  0.00    -0.000 A 
ATOM     27  C   UNL     1       1.513   4.030   0.000  0.00  0.00    -0.000 A 
ATOM     28  C   UNL     1       0.961   3.417   0.000  0.00  0.00    -0.002 A 
ENDBRANCH  22  23
ENDBRANCH  21  22
TORSDOF 7
