REMARK  Name = 
REMARK  4 active torsions:
REMARK  status: ('A' for Active; 'I' for Inactive)
REMARK    1  A    between atoms: C_7  and  C_8
REMARK    2  A    between atoms: C_14  and  N_15
REMARK    3  A    between atoms: C_16  and  C_18
REMARK    4  A    between atoms: C_21  and  C_24
REMARK                            x       y       z     vdW  Elec       q    Type
REMARK                         _______ _______ _______ _____ _____    ______ ____
ROOT
ATOM      8  C   UNL     1       1.429  -2.475   0.000  0.00  0.00    +0.047 C 
ATOM      9  C   UNL     1       2.096  -2.960   0.000  0.00  0.00    +0.042 C 
ATOM     10  C   UNL     1       1.841  -3.744   0.000  0.00  0.00    +0.184 C 
ATOM     11  O   UNL     1       2.326  -4.412   0.000  0.00  0.00    -0.220 OA
ATOM     12  C   UNL     1       1.016  -3.744   0.000  0.00  0.00    +0.202 C 
ATOM     13  O   UNL     1       0.531  -4.412   0.000  0.00  0.00    -0.219 OA
ATOM     14  C   UNL     1       0.761  -2.960   0.000  0.00  0.00    +0.132 C 
ENDROOT
BRANCH   8   7
ATOM      1  C   UNL     1       0.000  -1.650   0.000  0.00  0.00    +0.031 C 
ATOM      2  C   UNL     1       0.715  -1.238   0.000  0.00  0.00    -0.026 A 
ATOM      3  C   UNL     1       0.715  -0.412   0.000  0.00  0.00    -0.005 A 
ATOM      4  C   UNL     1       1.429   0.000   0.000  0.00  0.00    -0.000 A 
ATOM      5  C   UNL     1       2.143  -0.412   0.000  0.00  0.00    -0.000 A 
ATOM      6  C   UNL     1       2.143  -1.238   0.000  0.00  0.00    -0.005 A 
ATOM      7  C   UNL     1       1.429  -1.650   0.000  0.00  0.00    -0.025 A 
ENDBRANCH   8   7
BRANCH  14  15
ATOM     15  N   UNL     1      -0.023  -2.705   0.000  0.00  0.00    -0.200 NA
ATOM     16  C   UNL     1      -0.636  -3.257   0.000  0.00  0.00    +0.265 C 
ATOM     17  O   UNL     1      -0.465  -4.064   0.000  0.00  0.00    -0.268 OA
BRANCH  16  18
ATOM     18  C   UNL     1      -1.421  -3.002   0.000  0.00  0.00    +0.055 A 
ATOM     19  C   UNL     1      -2.034  -3.554   0.000  0.00  0.00    +0.005 A 
ATOM     20  C   UNL     1      -2.819  -3.299   0.000  0.00  0.00    +0.010 A 
ATOM     21  C   UNL     1      -2.990  -2.492   0.000  0.00  0.00    +0.068 A 
ATOM     22  C   UNL     1      -2.377  -1.940   0.000  0.00  0.00    +0.010 A 
ATOM     23  C   UNL     1      -1.592  -2.195   0.000  0.00  0.00    +0.005 A 
BRANCH  21  24
ATOM     24  C   UNL     1      -3.775  -2.237   0.000  0.00  0.00    +0.100 C 
ATOM     25  N   UNL     1      -4.559  -1.982   0.000  0.00  0.00    -0.191 NA
ENDBRANCH  21  24
ENDBRANCH  16  18
ENDBRANCH  14  15
TORSDOF 4
