REMARK  Name = 
REMARK  7 active torsions:
REMARK  status: ('A' for Active; 'I' for Inactive)
REMARK    1  A    between atoms: O_2  and  C_3
REMARK    2  A    between atoms: C_5  and  N_6
REMARK    3  A    between atoms: N_9  and  C_10
REMARK    4  A    between atoms: C_10  and  C_11
REMARK    5  A    between atoms: C_15  and  C_16
REMARK    6  A    between atoms: C_16  and  C_17
REMARK    7  A    between atoms: C_32  and  C_33
REMARK                            x       y       z     vdW  Elec       q    Type
REMARK                         _______ _______ _______ _____ _____    ______ ____
ROOT
ATOM     11  C   UNL     1       7.145 -11.550   0.000  0.00  0.00    +0.043 C 
ATOM     12  C   UNL     1       7.859 -11.137   0.000  0.00  0.00    -0.033 C 
ATOM     13  C   UNL     1       8.574 -11.550   0.000  0.00  0.00    -0.048 C 
ATOM     14  C   UNL     1       9.288 -11.137   0.000  0.00  0.00    +0.026 C 
ATOM     15  C   UNL     1       8.574 -12.375   0.000  0.00  0.00    +0.027 C 
ATOM     31  C   UNL     1       7.859 -12.787   0.000  0.00  0.00    +0.005 C 
ATOM     32  C   UNL     1       7.145 -12.375   0.000  0.00  0.00    +0.006 C 
ENDROOT
BRANCH  32  33
ATOM     33  C   UNL     1       6.430 -12.787   0.000  0.00  0.00    +0.000 C 
ATOM     34  C   UNL     1       5.716 -12.375   0.000  0.00  0.00    +0.000 C 
ATOM     35  C   UNL     1       6.430 -13.613   0.000  0.00  0.00    +0.000 C 
ENDBRANCH  32  33
BRANCH  11  10
ATOM     10  C   UNL     1       6.430 -11.137   0.000  0.00  0.00    +0.121 C 
BRANCH  10   9
ATOM      6  N   UNL     1       4.287 -11.550   0.000  0.00  0.00    -0.161 NA
ATOM      7  C   UNL     1       5.001 -11.137   0.000  0.00  0.00    +0.344 C 
ATOM      8  O   UNL     1       5.001 -10.312   0.000  0.00  0.00    -0.249 OA
ATOM      9  N   UNL     1       5.716 -11.550   0.000  0.00  0.00    -0.187 NA
BRANCH   6   5
ATOM      3  C   UNL     1       2.858  -9.900   0.000  0.00  0.00    +0.140 A 
ATOM      4  C   UNL     1       3.572 -10.312   0.000  0.00  0.00    +0.054 A 
ATOM      5  C   UNL     1       3.572 -11.137   0.000  0.00  0.00    +0.078 A 
ATOM     36  C   UNL     1       2.858 -11.550   0.000  0.00  0.00    +0.017 A 
ATOM     37  C   UNL     1       2.143 -11.137   0.000  0.00  0.00    +0.004 A 
ATOM     38  C   UNL     1       2.143 -10.312   0.000  0.00  0.00    +0.037 A 
BRANCH   3   2
ATOM      1  C   UNL     1       2.143  -8.662   0.000  0.00  0.00    +0.252 C 
ATOM      2  O   UNL     1       2.858  -9.075   0.000  0.00  0.00    -0.471 OA
ENDBRANCH   3   2
ENDBRANCH   6   5
ENDBRANCH  10   9
ENDBRANCH  11  10
BRANCH  15  16
ATOM     16  C   UNL     1       9.288 -12.787   0.000  0.00  0.00    +0.089 C 
BRANCH  16  17
ATOM     17  C   UNL     1      10.003 -12.375   0.000  0.00  0.00    +0.226 C 
ATOM     18  O   UNL     1      10.003 -11.550   0.000  0.00  0.00    -0.275 OA
ATOM     19  N   UNL     1      10.717 -12.787   0.000  0.00  0.00    -0.276 N 
ATOM     20  C   UNL     1      11.431 -12.375   0.000  0.00  0.00    +0.115 C 
ATOM     21  C   UNL     1      12.146 -12.787   0.000  0.00  0.00    +0.114 C 
ATOM     22  N   UNL     1      12.146 -13.613   0.000  0.00  0.00    -0.290 N 
ATOM     23  C   UNL     1      11.431 -14.025   0.000  0.00  0.00    +0.114 C 
ATOM     24  C   UNL     1      10.717 -13.613   0.000  0.00  0.00    +0.115 C 
ATOM     25  C   UNL     1      12.861 -14.025   0.000  0.00  0.00    +0.132 A 
ATOM     26  N   UNL     1      13.575 -13.613   0.000  0.00  0.00    -0.229 NA
ATOM     27  C   UNL     1      14.289 -14.025   0.000  0.00  0.00    +0.100 A 
ATOM     28  C   UNL     1      14.289 -14.850   0.000  0.00  0.00    +0.021 A 
ATOM     29  C   UNL     1      13.575 -15.262   0.000  0.00  0.00    +0.004 A 
ATOM     30  C   UNL     1      12.861 -14.850   0.000  0.00  0.00    +0.034 A 
ENDBRANCH  16  17
ENDBRANCH  15  16
TORSDOF 7
