REMARK  Name = 
REMARK  8 active torsions:
REMARK  status: ('A' for Active; 'I' for Inactive)
REMARK    1  A    between atoms: C_1  and  N_2
REMARK    2  A    between atoms: C_1  and  C_21
REMARK    3  A    between atoms: N_2  and  C_3
REMARK    4  A    between atoms: C_3  and  C_4
REMARK    5  A    between atoms: C_4  and  C_5
REMARK    6  A    between atoms: C_8  and  C_9
REMARK    7  A    between atoms: C_9  and  O_10
REMARK    8  A    between atoms: O_10  and  C_11
REMARK                            x       y       z     vdW  Elec       q    Type
REMARK                         _______ _______ _______ _____ _____    ______ ____
ROOT
ATOM      4  C   UNL     1       1.258  -1.721   0.000  0.00  0.00    +0.070 C 
ENDROOT
BRANCH   4   5
ATOM      5  C   UNL     1       0.461  -1.934   0.000  0.00  0.00    +0.102 A 
ATOM      6  N   UNL     1       0.166  -2.704   0.000  0.00  0.00    -0.082 NA
ATOM      7  O   UNL     1      -0.658  -2.661   0.000  0.00  0.00    -0.354 OA
ATOM      8  C   UNL     1      -0.872  -1.864   0.000  0.00  0.00    +0.198 A 
ATOM     17  C   UNL     1      -0.180  -1.415   0.000  0.00  0.00    +0.057 A 
BRANCH   8   9
ATOM      9  C   UNL     1      -1.642  -1.569   0.000  0.00  0.00    +0.272 C 
BRANCH   9  10
ATOM     10  O   UNL     1      -2.283  -2.088   0.000  0.00  0.00    -0.467 OA
BRANCH  10  11
ATOM     11  C   UNL     1      -3.053  -1.792   0.000  0.00  0.00    +0.139 A 
ATOM     12  C   UNL     1      -3.695  -2.312   0.000  0.00  0.00    +0.037 A 
ATOM     13  C   UNL     1      -4.465  -2.016   0.000  0.00  0.00    +0.003 A 
ATOM     14  C   UNL     1      -4.594  -1.201   0.000  0.00  0.00    +0.000 A 
ATOM     15  C   UNL     1      -3.953  -0.682   0.000  0.00  0.00    +0.003 A 
ATOM     16  C   UNL     1      -3.183  -0.978   0.000  0.00  0.00    +0.037 A 
ENDBRANCH  10  11
ENDBRANCH   9  10
ENDBRANCH   8   9
ENDBRANCH   4   5
BRANCH   4   3
ATOM      3  C   UNL     1       1.841  -2.304   0.000  0.00  0.00    +0.119 C 
ATOM     18  C   UNL     1       2.425  -2.888   0.000  0.00  0.00    +0.161 C 
ATOM     19  O   UNL     1       1.841  -3.471   0.000  0.00  0.00    -0.351 OA
ATOM     20  C   UNL     1       1.258  -2.888   0.000  0.00  0.00    +0.161 C 
BRANCH   3   2
ATOM      2  N   UNL     1       2.425  -1.721   0.000  0.00  0.00    -0.215 NA
BRANCH   2   1
ATOM      1  C   UNL     1       2.211  -0.924   0.000  0.00  0.00    +0.089 C 
BRANCH   1  21
ATOM     21  C   UNL     1       2.795  -0.341   0.000  0.00  0.00    +0.017 C 
ATOM     22  C   UNL     1       2.581   0.456   0.000  0.00  0.00    +0.001 C 
ATOM     23  C   UNL     1       3.164   1.040   0.000  0.00  0.00    +0.000 C 
ATOM     24  C   UNL     1       3.961   0.826   0.000  0.00  0.00    +0.000 C 
ATOM     25  C   UNL     1       4.175   0.029   0.000  0.00  0.00    +0.000 C 
ATOM     26  C   UNL     1       3.591  -0.554   0.000  0.00  0.00    +0.001 C 
ENDBRANCH   1  21
ENDBRANCH   2   1
ENDBRANCH   3   2
ENDBRANCH   4   3
TORSDOF 8
