REMARK  Name = 
REMARK  7 active torsions:
REMARK  status: ('A' for Active; 'I' for Inactive)
REMARK    1  A    between atoms: O_2  and  C_3
REMARK    2  A    between atoms: C_6  and  C_9
REMARK    3  A    between atoms: C_11  and  C_12
REMARK    4  A    between atoms: C_12  and  C_13
REMARK    5  A    between atoms: C_18  and  C_19
REMARK    6  A    between atoms: C_19  and  N_20
REMARK    7  A    between atoms: C_21  and  C_23
REMARK                            x       y       z     vdW  Elec       q    Type
REMARK                         _______ _______ _______ _____ _____    ______ ____
ROOT
ATOM     13  C   UNL     1       4.067   5.648   0.000  0.00  0.00    +0.121 C 
ATOM     14  C   UNL     1       4.781   6.060   0.000  0.00  0.00    +0.033 C 
ATOM     15  C   UNL     1       5.496   5.648   0.000  0.00  0.00    +0.038 C 
ATOM     16  C   UNL     1       5.496   4.823   0.000  0.00  0.00    +0.181 C 
ATOM     17  O   UNL     1       6.210   4.410   0.000  0.00  0.00    -0.220 OA
ATOM     18  C   UNL     1       4.781   4.410   0.000  0.00  0.00    +0.167 C 
ATOM     32  O   UNL     1       4.067   4.823   0.000  0.00  0.00    -0.354 OA
ENDROOT
BRANCH  13  12
ATOM     12  C   UNL     1       3.352   6.060   0.000  0.00  0.00    +0.079 C 
BRANCH  12  11
ATOM      9  C   UNL     1       3.765   8.155   0.000  0.00  0.00    +0.177 A 
ATOM     10  C   UNL     1       4.020   7.370   0.000  0.00  0.00    +0.058 A 
ATOM     11  C   UNL     1       3.352   6.885   0.000  0.00  0.00    +0.103 A 
ATOM     33  N   UNL     1       2.685   7.370   0.000  0.00  0.00    -0.081 NA
ATOM     34  O   UNL     1       2.940   8.155   0.000  0.00  0.00    -0.354 OA
BRANCH   9   6
ATOM      3  C   UNL     1       5.220  10.157   0.000  0.00  0.00    +0.139 A 
ATOM      4  C   UNL     1       5.555   9.404   0.000  0.00  0.00    +0.037 A 
ATOM      5  C   UNL     1       5.070   8.736   0.000  0.00  0.00    +0.006 A 
ATOM      6  C   UNL     1       4.250   8.822   0.000  0.00  0.00    +0.037 A 
ATOM      7  C   UNL     1       3.914   9.576   0.000  0.00  0.00    +0.006 A 
ATOM      8  C   UNL     1       4.399  10.243   0.000  0.00  0.00    +0.037 A 
BRANCH   3   2
ATOM      1  C   UNL     1       5.369  11.578   0.000  0.00  0.00    +0.252 C 
ATOM      2  O   UNL     1       5.705  10.825   0.000  0.00  0.00    -0.471 OA
ENDBRANCH   3   2
ENDBRANCH   9   6
ENDBRANCH  12  11
ENDBRANCH  13  12
BRANCH  18  19
ATOM     19  C   UNL     1       4.781   3.585   0.000  0.00  0.00    +0.147 C 
BRANCH  19  20
ATOM     20  N   UNL     1       4.067   3.173   0.000  0.00  0.00    -0.199 NA
ATOM     21  C   UNL     1       4.067   2.348   0.000  0.00  0.00    +0.265 C 
ATOM     22  O   UNL     1       4.781   1.935   0.000  0.00  0.00    -0.268 OA
BRANCH  21  23
ATOM     23  C   UNL     1       3.352   1.935   0.000  0.00  0.00    +0.058 A 
ATOM     24  C   UNL     1       3.352   1.110   0.000  0.00  0.00    +0.008 A 
ATOM     25  C   UNL     1       2.638   0.698   0.000  0.00  0.00    +0.040 A 
ATOM     26  C   UNL     1       1.923   1.110   0.000  0.00  0.00    +0.176 A 
ATOM     27  O   UNL     1       1.139   0.856   0.000  0.00  0.00    -0.435 OA
ATOM     28  C   UNL     1       0.654   1.523   0.000  0.00  0.00    +0.429 C 
ATOM     29  O   UNL     1       1.139   2.190   0.000  0.00  0.00    -0.435 OA
ATOM     30  C   UNL     1       1.923   1.935   0.000  0.00  0.00    +0.177 A 
ATOM     31  C   UNL     1       2.638   2.348   0.000  0.00  0.00    +0.045 A 
ENDBRANCH  21  23
ENDBRANCH  19  20
ENDBRANCH  18  19
TORSDOF 7
