REMARK  Name = 
REMARK  6 active torsions:
REMARK  status: ('A' for Active; 'I' for Inactive)
REMARK    1  A    between atoms: C_2  and  C_4
REMARK    2  A    between atoms: C_4  and  C_5
REMARK    3  A    between atoms: C_4  and  N_12
REMARK    4  A    between atoms: C_5  and  C_6
REMARK    5  A    between atoms: C_13  and  C_15
REMARK    6  A    between atoms: C_21  and  C_23
REMARK                            x       y       z     vdW  Elec       q    Type
REMARK                         _______ _______ _______ _____ _____    ______ ____
ROOT
ATOM     12  N   UNL     1       0.715  -2.062   0.000  0.00  0.00    -0.196 NA
ATOM     13  C   UNL     1       1.429  -2.475   0.000  0.00  0.00    +0.261 C 
ATOM     14  O   UNL     1       1.429  -3.300   0.000  0.00  0.00    -0.271 OA
ENDROOT
BRANCH  13  15
ATOM     15  C   UNL     1       2.143  -2.062   0.000  0.00  0.00    +0.171 C 
ATOM     16  C   UNL     1       2.143  -1.238   0.000  0.00  0.00    +0.118 C 
ATOM     17  N   UNL     1       2.858  -0.825   0.000  0.00  0.00    -0.214 NA
ATOM     18  C   UNL     1       3.572  -1.238   0.000  0.00  0.00    +0.110 C 
ATOM     19  C   UNL     1       3.572  -2.062   0.000  0.00  0.00    +0.113 C 
ATOM     20  N   UNL     1       2.858  -2.475   0.000  0.00  0.00    -0.266 N 
ATOM     21  C   UNL     1       2.858  -3.300   0.000  0.00  0.00    +0.255 C 
ATOM     22  O   UNL     1       2.143  -3.712   0.000  0.00  0.00    -0.269 OA
BRANCH  21  23
ATOM     23  C   UNL     1       3.572  -3.712   0.000  0.00  0.00    +0.083 A 
ATOM     24  C   UNL     1       4.326  -3.377   0.000  0.00  0.00    +0.012 A 
ATOM     25  C   UNL     1       4.878  -3.990   0.000  0.00  0.00    +0.008 A 
ATOM     26  C   UNL     1       4.466  -4.705   0.000  0.00  0.00    +0.036 A 
ATOM     27  S   UNL     1       3.659  -4.533   0.000  0.00  0.00    -0.082 S 
ENDBRANCH  21  23
ENDBRANCH  13  15
BRANCH  12   4
ATOM      4  C   UNL     1       0.000  -2.475   0.000  0.00  0.00    +0.174 C 
BRANCH   4   2
ATOM      1  N   UNL     1       0.715  -3.712   0.000  0.00  0.00    -0.086 NA
ATOM      2  C   UNL     1       0.000  -3.300   0.000  0.00  0.00    +0.281 C 
ATOM      3  O   UNL     1      -0.715  -3.712   0.000  0.00  0.00    -0.270 OA
ENDBRANCH   4   2
BRANCH   4   5
ATOM      5  C   UNL     1      -0.715  -2.062   0.000  0.00  0.00    +0.031 C 
BRANCH   5   6
ATOM      6  C   UNL     1      -1.429  -2.475   0.000  0.00  0.00    +0.002 C 
ATOM      7  C   UNL     1      -1.429  -3.300   0.000  0.00  0.00    +0.000 C 
ATOM      8  C   UNL     1      -2.143  -3.712   0.000  0.00  0.00    +0.000 C 
ATOM      9  C   UNL     1      -2.858  -3.300   0.000  0.00  0.00    +0.000 C 
ATOM     10  C   UNL     1      -2.858  -2.475   0.000  0.00  0.00    +0.000 C 
ATOM     11  C   UNL     1      -2.143  -2.062   0.000  0.00  0.00    +0.000 C 
ENDBRANCH   5   6
ENDBRANCH   4   5
ENDBRANCH  12   4
TORSDOF 6
