REMARK  Name = 
REMARK  2 active torsions:
REMARK  status: ('A' for Active; 'I' for Inactive)
REMARK    1  A    between atoms: N_10  and  C_11
REMARK    2  A    between atoms: C_11  and  C_12
REMARK                            x       y       z     vdW  Elec       q    Type
REMARK                         _______ _______ _______ _____ _____    ______ ____
ROOT
ATOM      1  C   UNL     1       4.781   1.935   0.000  0.00  0.00    +0.095 C 
ATOM      2  C   UNL     1       4.067   2.348   0.000  0.00  0.00    +0.226 C 
ATOM      3  O   UNL     1       4.067   3.173   0.000  0.00  0.00    -0.275 OA
ATOM      4  N   UNL     1       3.352   1.935   0.000  0.00  0.00    -0.276 N 
ATOM      5  C   UNL     1       3.352   1.110   0.000  0.00  0.00    +0.115 C 
ATOM      6  C   UNL     1       2.638   0.698   0.000  0.00  0.00    +0.116 C 
ATOM      7  N   UNL     1       1.923   1.110   0.000  0.00  0.00    -0.261 N 
ATOM      8  C   UNL     1       1.923   1.935   0.000  0.00  0.00    +0.116 C 
ATOM      9  C   UNL     1       1.139   2.190   0.000  0.00  0.00    +0.117 C 
ATOM     10  N   UNL     1       0.654   1.523   0.000  0.00  0.00    -0.258 N 
ATOM     19  C   UNL     1       1.139   0.856   0.000  0.00  0.00    +0.308 C 
ATOM     20  O   UNL     1       0.884   0.071   0.000  0.00  0.00    -0.252 OA
ATOM     21  C   UNL     1       2.638   2.348   0.000  0.00  0.00    +0.115 C 
ENDROOT
BRANCH  10  11
ATOM     11  C   UNL     1      -0.171   1.523   0.000  0.00  0.00    +0.122 C 
BRANCH  11  12
ATOM     12  C   UNL     1      -0.584   2.237   0.000  0.00  0.00    -0.002 A 
ATOM     13  C   UNL     1      -1.409   2.237   0.000  0.00  0.00    -0.000 A 
ATOM     14  C   UNL     1      -1.821   2.952   0.000  0.00  0.00    +0.029 A 
ATOM     15  C   UNL     1      -1.409   3.666   0.000  0.00  0.00    +0.140 A 
ATOM     16  F   UNL     1      -1.821   4.381   0.000  0.00  0.00    -0.204 F 
ATOM     17  C   UNL     1      -0.584   3.666   0.000  0.00  0.00    +0.029 A 
ATOM     18  C   UNL     1      -0.171   2.952   0.000  0.00  0.00    -0.000 A 
ENDBRANCH  11  12
ENDBRANCH  10  11
TORSDOF 2
