REMARK  Name = 
REMARK  9 active torsions:
REMARK  status: ('A' for Active; 'I' for Inactive)
REMARK    1  A    between atoms: O_2  and  C_3
REMARK    2  A    between atoms: C_3  and  C_4
REMARK    3  A    between atoms: N_8  and  C_9
REMARK    4  A    between atoms: C_12  and  C_13
REMARK    5  A    between atoms: C_16  and  C_17
REMARK    6  A    between atoms: C_17  and  N_18
REMARK    7  A    between atoms: N_21  and  C_22
REMARK    8  A    between atoms: C_25  and  O_26
REMARK    9  A    between atoms: O_26  and  C_27
REMARK                            x       y       z     vdW  Elec       q    Type
REMARK                         _______ _______ _______ _____ _____    ______ ____
ROOT
ATOM      9  C   UNL     1      -0.754  -2.811   0.000  0.00  0.00    +0.120 C 
ATOM     10  C   UNL     1      -1.306  -2.197   0.000  0.00  0.00    +0.198 C 
ATOM     11  O   UNL     1      -2.126  -2.284   0.000  0.00  0.00    -0.219 OA
ATOM     12  C   UNL     1      -0.893  -1.483   0.000  0.00  0.00    +0.180 C 
ATOM     15  O   UNL     1      -0.086  -1.655   0.000  0.00  0.00    -0.350 OA
ATOM     16  C   UNL     1       0.000  -2.475   0.000  0.00  0.00    +0.154 C 
ENDROOT
BRANCH   9   8
ATOM      4  C   UNL     1      -0.373  -4.231   0.000  0.00  0.00    +0.087 C 
ATOM      5  C   UNL     1      -0.786  -4.945   0.000  0.00  0.00    +0.020 C 
ATOM      6  C   UNL     1      -1.593  -4.774   0.000  0.00  0.00    +0.019 C 
ATOM      7  C   UNL     1      -1.679  -3.953   0.000  0.00  0.00    +0.072 C 
ATOM      8  N   UNL     1      -0.925  -3.618   0.000  0.00  0.00    -0.269 NA
BRANCH   4   3
ATOM      3  C   UNL     1       0.447  -4.144   0.000  0.00  0.00    +0.158 C 
BRANCH   3   2
ATOM      1  C   UNL     1       1.753  -4.726   0.000  0.00  0.00    +0.174 C 
ATOM      2  O   UNL     1       0.932  -4.812   0.000  0.00  0.00    -0.350 OA
ENDBRANCH   3   2
ENDBRANCH   4   3
ENDBRANCH   9   8
BRANCH  12  13
ATOM     13  C   UNL     1      -1.229  -0.729   0.000  0.00  0.00    +0.214 C 
ATOM     14  O   UNL     1      -0.744  -0.062   0.000  0.00  0.00    -0.218 OA
ENDBRANCH  12  13
BRANCH  16  17
ATOM     17  C   UNL     1       0.715  -2.888   0.000  0.00  0.00    +0.148 C 
BRANCH  17  18
ATOM     18  N   UNL     1       1.429  -2.475   0.000  0.00  0.00    -0.184 NA
ATOM     19  C   UNL     1       2.143  -2.888   0.000  0.00  0.00    +0.344 C 
ATOM     20  O   UNL     1       2.143  -3.712   0.000  0.00  0.00    -0.249 OA
ATOM     21  N   UNL     1       2.858  -2.475   0.000  0.00  0.00    -0.161 NA
BRANCH  21  22
ATOM     22  C   UNL     1       3.572  -2.888   0.000  0.00  0.00    +0.075 A 
ATOM     23  C   UNL     1       4.287  -2.475   0.000  0.00  0.00    +0.020 A 
ATOM     24  C   UNL     1       5.001  -2.888   0.000  0.00  0.00    +0.039 A 
ATOM     25  C   UNL     1       5.001  -3.712   0.000  0.00  0.00    +0.147 A 
ATOM     31  C   UNL     1       4.287  -4.125   0.000  0.00  0.00    +0.039 A 
ATOM     32  C   UNL     1       3.572  -3.712   0.000  0.00  0.00    +0.020 A 
BRANCH  25  26
ATOM     26  O   UNL     1       5.716  -4.125   0.000  0.00  0.00    -0.404 OA
BRANCH  26  27
ATOM     27  C   UNL     1       6.430  -3.712   0.000  0.00  0.00    +0.575 C 
ATOM     28  F   UNL     1       7.145  -3.300   0.000  0.00  0.00    -0.133 F 
ATOM     29  F   UNL     1       6.843  -4.427   0.000  0.00  0.00    -0.133 F 
ATOM     30  F   UNL     1       6.018  -2.998   0.000  0.00  0.00    -0.133 F 
ENDBRANCH  26  27
ENDBRANCH  25  26
ENDBRANCH  21  22
ENDBRANCH  17  18
ENDBRANCH  16  17
TORSDOF 9
