REMARK  Name = 
REMARK  8 active torsions:
REMARK  status: ('A' for Active; 'I' for Inactive)
REMARK    1  A    between atoms: O_2  and  C_3
REMARK    2  A    between atoms: C_8  and  N_9
REMARK    3  A    between atoms: N_12  and  C_15
REMARK    4  A    between atoms: C_18  and  C_19
REMARK    5  A    between atoms: C_22  and  C_23
REMARK    6  A    between atoms: C_23  and  N_24
REMARK    7  A    between atoms: N_24  and  S_25
REMARK    8  A    between atoms: S_25  and  C_28
REMARK                            x       y       z     vdW  Elec       q    Type
REMARK                         _______ _______ _______ _____ _____    ______ ____
ROOT
ATOM     15  C   UNL     1       1.429  -3.300   0.000  0.00  0.00    +0.120 C 
ATOM     16  C   UNL     1       2.096  -3.785   0.000  0.00  0.00    +0.198 C 
ATOM     17  O   UNL     1       2.881  -3.530   0.000  0.00  0.00    -0.219 OA
ATOM     18  C   UNL     1       1.841  -4.569   0.000  0.00  0.00    +0.180 C 
ATOM     21  O   UNL     1       1.016  -4.569   0.000  0.00  0.00    -0.350 OA
ATOM     22  C   UNL     1       0.761  -3.785   0.000  0.00  0.00    +0.152 C 
ENDROOT
BRANCH  15  12
ATOM      9  N   UNL     1       1.429  -0.825   0.000  0.00  0.00    -0.302 N 
ATOM     10  C   UNL     1       2.143  -1.238   0.000  0.00  0.00    +0.108 C 
ATOM     11  C   UNL     1       2.143  -2.062   0.000  0.00  0.00    +0.094 C 
ATOM     12  N   UNL     1       1.429  -2.475   0.000  0.00  0.00    -0.267 NA
ATOM     13  C   UNL     1       0.715  -2.062   0.000  0.00  0.00    +0.094 C 
ATOM     14  C   UNL     1       0.715  -1.238   0.000  0.00  0.00    +0.108 C 
BRANCH   9   8
ATOM      3  C   UNL     1       0.715   0.412   0.000  0.00  0.00    +0.152 A 
ATOM      4  C   UNL     1       0.715   1.238   0.000  0.00  0.00    +0.038 A 
ATOM      5  C   UNL     1       1.429   1.650   0.000  0.00  0.00    +0.003 A 
ATOM      6  C   UNL     1       2.143   1.238   0.000  0.00  0.00    +0.001 A 
ATOM      7  C   UNL     1       2.143   0.412   0.000  0.00  0.00    +0.018 A 
ATOM      8  C   UNL     1       1.429   0.000   0.000  0.00  0.00    +0.082 A 
BRANCH   3   2
ATOM      1  C   UNL     1      -0.715   0.412   0.000  0.00  0.00    +0.253 C 
ATOM      2  O   UNL     1       0.000   0.000   0.000  0.00  0.00    -0.470 OA
ENDBRANCH   3   2
ENDBRANCH   9   8
ENDBRANCH  15  12
BRANCH  18  19
ATOM     19  C   UNL     1       2.326  -5.237   0.000  0.00  0.00    +0.214 C 
ATOM     20  O   UNL     1       1.991  -5.991   0.000  0.00  0.00    -0.218 OA
ENDBRANCH  18  19
BRANCH  22  23
ATOM     23  C   UNL     1      -0.023  -3.530   0.000  0.00  0.00    +0.146 C 
BRANCH  23  24
ATOM     24  N   UNL     1      -0.636  -4.082   0.000  0.00  0.00    -0.075 NA
BRANCH  24  25
ATOM     25  S   UNL     1      -1.421  -3.827   0.000  0.00  0.00    +0.077 S 
ATOM     26  O   UNL     1      -1.166  -3.042   0.000  0.00  0.00    -0.152 OA
ATOM     27  O   UNL     1      -1.676  -4.612   0.000  0.00  0.00    -0.152 OA
BRANCH  25  28
ATOM     28  C   UNL     1      -2.205  -3.572   0.000  0.00  0.00    +0.124 A 
ATOM     29  C   UNL     1      -2.819  -4.124   0.000  0.00  0.00    +0.021 A 
ATOM     30  C   UNL     1      -3.603  -3.869   0.000  0.00  0.00    +0.013 A 
ATOM     31  C   UNL     1      -3.775  -3.062   0.000  0.00  0.00    +0.058 A 
ATOM     32 CL   UNL     1      -4.559  -2.807   0.000  0.00  0.00    -0.082 Cl
ATOM     33  C   UNL     1      -3.162  -2.510   0.000  0.00  0.00    +0.013 A 
ATOM     34  C   UNL     1      -2.377  -2.765   0.000  0.00  0.00    +0.021 A 
ENDBRANCH  25  28
ENDBRANCH  24  25
ENDBRANCH  23  24
ENDBRANCH  22  23
TORSDOF 8
