REMARK  Name = 
REMARK  7 active torsions:
REMARK  status: ('A' for Active; 'I' for Inactive)
REMARK    1  A    between atoms: O_2  and  C_3
REMARK    2  A    between atoms: C_3  and  C_4
REMARK    3  A    between atoms: C_6  and  C_7
REMARK    4  A    between atoms: C_7  and  C_8
REMARK    5  A    between atoms: C_10  and  N_11
REMARK    6  A    between atoms: N_11  and  C_12
REMARK    7  A    between atoms: C_12  and  C_13
REMARK                            x       y       z     vdW  Elec       q    Type
REMARK                         _______ _______ _______ _____ _____    ______ ____
ROOT
ATOM      8  C   UNL     1       2.012  -3.058   0.000  0.00  0.00    +0.009 C 
ATOM      9  C   UNL     1       1.429  -3.642   0.000  0.00  0.00    +0.018 C 
ATOM     10  C   UNL     1       0.846  -3.058   0.000  0.00  0.00    +0.073 C 
ATOM     19  C   UNL     1       1.429  -2.475   0.000  0.00  0.00    +0.015 C 
ATOM     20  C   UNL     1       0.998  -1.772   0.000  0.00  0.00    +0.001 C 
ATOM     21  C   UNL     1       1.860  -1.772   0.000  0.00  0.00    +0.001 C 
ENDROOT
BRANCH   8   7
ATOM      7  C   UNL     1       2.837  -3.058   0.000  0.00  0.00    +0.049 C 
BRANCH   7   6
ATOM      4  C   UNL     1       4.242  -1.451   0.000  0.00  0.00    +0.184 A 
ATOM      5  C   UNL     1       4.070  -2.258   0.000  0.00  0.00    +0.056 A 
ATOM      6  C   UNL     1       3.250  -2.344   0.000  0.00  0.00    +0.100 A 
ATOM     22  N   UNL     1       2.914  -1.590   0.000  0.00  0.00    -0.082 NA
ATOM     23  O   UNL     1       3.527  -1.038   0.000  0.00  0.00    -0.356 OA
BRANCH   4   3
ATOM      3  C   UNL     1       4.995  -1.115   0.000  0.00  0.00    +0.209 C 
BRANCH   3   2
ATOM      1  C   UNL     1       5.835   0.041   0.000  0.00  0.00    +0.175 C 
ATOM      2  O   UNL     1       5.082  -0.295   0.000  0.00  0.00    -0.343 OA
ENDBRANCH   3   2
ENDBRANCH   4   3
ENDBRANCH   7   6
ENDBRANCH   8   7
BRANCH  10  11
ATOM     11  N   UNL     1       0.021  -3.058   0.000  0.00  0.00    -0.215 NA
BRANCH  11  12
ATOM     12  C   UNL     1      -0.392  -3.773   0.000  0.00  0.00    +0.116 C 
BRANCH  12  13
ATOM     13  C   UNL     1      -1.217  -3.773   0.000  0.00  0.00    +0.014 A 
ATOM     14  C   UNL     1      -1.629  -4.487   0.000  0.00  0.00    +0.000 A 
ATOM     15  C   UNL     1      -2.454  -4.487   0.000  0.00  0.00    +0.020 A 
ATOM     16  C   UNL     1      -2.867  -3.773   0.000  0.00  0.00    +0.099 A 
ATOM     17  N   UNL     1      -2.454  -3.058   0.000  0.00  0.00    -0.243 NA
ATOM     18  C   UNL     1      -1.629  -3.058   0.000  0.00  0.00    +0.096 A 
ENDBRANCH  12  13
ENDBRANCH  11  12
ENDBRANCH  10  11
TORSDOF 7
