REMARK  Name = 
REMARK  5 active torsions:
REMARK  status: ('A' for Active; 'I' for Inactive)
REMARK    1  A    between atoms: O_2  and  C_3
REMARK    2  A    between atoms: C_8  and  C_9
REMARK    3  A    between atoms: C_12  and  C_14
REMARK    4  A    between atoms: N_17  and  C_18
REMARK    5  A    between atoms: C_18  and  C_19
REMARK                            x       y       z     vdW  Elec       q    Type
REMARK                         _______ _______ _______ _____ _____    ______ ____
ROOT
ATOM     14  C   UNL     1       3.654   4.442   0.000  0.00  0.00    +0.096 C 
ATOM     15  C   UNL     1       4.479   4.442   0.000  0.00  0.00    +0.028 C 
ATOM     16  C   UNL     1       4.734   3.658   0.000  0.00  0.00    +0.073 C 
ATOM     17  N   UNL     1       4.067   3.173   0.000  0.00  0.00    -0.268 NA
ATOM     28  C   UNL     1       3.399   3.658   0.000  0.00  0.00    +0.082 C 
ENDROOT
BRANCH  14  12
ATOM      9  C   UNL     1       2.089   5.894   0.000  0.00  0.00    +0.252 A 
ATOM     10  N   UNL     1       2.757   6.380   0.000  0.00  0.00    -0.107 NA
ATOM     11  N   UNL     1       3.424   5.894   0.000  0.00  0.00    -0.111 NA
ATOM     12  C   UNL     1       3.169   5.110   0.000  0.00  0.00    +0.227 A 
ATOM     13  O   UNL     1       2.344   5.110   0.000  0.00  0.00    -0.419 OA
BRANCH   9   8
ATOM      3  C   UNL     1       0.692   5.598   0.000  0.00  0.00    +0.143 A 
ATOM      4  C   UNL     1      -0.093   5.852   0.000  0.00  0.00    +0.037 A 
ATOM      5  C   UNL     1      -0.265   6.659   0.000  0.00  0.00    +0.003 A 
ATOM      6  C   UNL     1       0.349   7.211   0.000  0.00  0.00    +0.000 A 
ATOM      7  C   UNL     1       1.133   6.957   0.000  0.00  0.00    +0.008 A 
ATOM      8  C   UNL     1       1.305   6.149   0.000  0.00  0.00    +0.089 A 
BRANCH   3   2
ATOM      1  C   UNL     1       0.250   4.238   0.000  0.00  0.00    +0.252 C 
ATOM      2  O   UNL     1       0.863   4.790   0.000  0.00  0.00    -0.471 OA
ENDBRANCH   3   2
ENDBRANCH   9   8
ENDBRANCH  14  12
BRANCH  17  18
ATOM     18  C   UNL     1       4.067   2.348   0.000  0.00  0.00    +0.099 C 
BRANCH  18  19
ATOM     19  C   UNL     1       3.352   1.935   0.000  0.00  0.00    -0.003 A 
ATOM     20  C   UNL     1       3.352   1.110   0.000  0.00  0.00    +0.000 A 
ATOM     21  C   UNL     1       2.638   0.698   0.000  0.00  0.00    +0.040 A 
ATOM     22  C   UNL     1       1.923   1.110   0.000  0.00  0.00    +0.176 A 
ATOM     23  O   UNL     1       1.139   0.856   0.000  0.00  0.00    -0.435 OA
ATOM     24  C   UNL     1       0.654   1.523   0.000  0.00  0.00    +0.429 C 
ATOM     25  O   UNL     1       1.139   2.190   0.000  0.00  0.00    -0.435 OA
ATOM     26  C   UNL     1       1.923   1.935   0.000  0.00  0.00    +0.176 A 
ATOM     27  C   UNL     1       2.638   2.348   0.000  0.00  0.00    +0.037 A 
ENDBRANCH  18  19
ENDBRANCH  17  18
TORSDOF 5
