REMARK  Name = 
REMARK  8 active torsions:
REMARK  status: ('A' for Active; 'I' for Inactive)
REMARK    1  A    between atoms: O_2  and  C_3
REMARK    2  A    between atoms: C_6  and  C_7
REMARK    3  A    between atoms: C_7  and  N_8
REMARK    4  A    between atoms: C_9  and  C_11
REMARK    5  A    between atoms: N_15  and  C_16
REMARK    6  A    between atoms: C_16  and  C_17
REMARK    7  A    between atoms: C_25  and  C_26
REMARK    8  A    between atoms: C_26  and  C_27
REMARK                            x       y       z     vdW  Elec       q    Type
REMARK                         _______ _______ _______ _____ _____    ______ ____
ROOT
ATOM     11  C   UNL     1       4.143   1.132   0.000  0.00  0.00    +0.155 C 
ATOM     12  C   UNL     1       3.765   0.399   0.000  0.00  0.00    +0.055 C 
ATOM     13  C   UNL     1       2.956   0.237   0.000  0.00  0.00    -0.002 A 
ATOM     14  C   UNL     1       2.645  -0.527   0.000  0.00  0.00    +0.072 A 
ATOM     15  N   UNL     1       1.822  -0.468   0.000  0.00  0.00    -0.322 N 
ATOM     19  C   UNL     1       1.624   0.333   0.000  0.00  0.00    +0.060 A 
ATOM     20  C   UNL     1       2.325   0.769   0.000  0.00  0.00    +0.011 A 
ATOM     21  C   UNL     1       2.348   1.594   0.000  0.00  0.00    -0.005 A 
ATOM     22  C   UNL     1       1.571   1.982   0.000  0.00  0.00    -0.003 A 
ATOM     23  C   UNL     1       0.870   1.547   0.000  0.00  0.00    +0.001 A 
ATOM     24  C   UNL     1       0.897   0.722   0.000  0.00  0.00    +0.017 A 
ATOM     25  C   UNL     1       3.006   2.090   0.000  0.00  0.00    +0.095 C 
ATOM     30  N   UNL     1       3.805   1.885   0.000  0.00  0.00    -0.207 NA
ENDROOT
BRANCH  11   9
ATOM      8  N   UNL     1       5.399   1.813   0.000  0.00  0.00    -0.199 NA
ATOM      9  C   UNL     1       4.968   1.110   0.000  0.00  0.00    +0.258 C 
ATOM     10  O   UNL     1       5.361   0.384   0.000  0.00  0.00    -0.272 OA
BRANCH   8   7
ATOM      7  C   UNL     1       6.224   1.790   0.000  0.00  0.00    +0.142 C 
BRANCH   7   6
ATOM      3  C   UNL     1       7.519   3.899   0.000  0.00  0.00    +0.139 A 
ATOM      4  C   UNL     1       7.912   3.174   0.000  0.00  0.00    +0.037 A 
ATOM      5  C   UNL     1       7.481   2.471   0.000  0.00  0.00    +0.001 A 
ATOM      6  C   UNL     1       6.656   2.493   0.000  0.00  0.00    -0.000 A 
ATOM     31  C   UNL     1       6.263   3.219   0.000  0.00  0.00    +0.001 A 
ATOM     32  C   UNL     1       6.695   3.921   0.000  0.00  0.00    +0.037 A 
BRANCH   3   2
ATOM      1  C   UNL     1       7.558   5.327   0.000  0.00  0.00    +0.252 C 
ATOM      2  O   UNL     1       7.951   4.602   0.000  0.00  0.00    -0.471 OA
ENDBRANCH   3   2
ENDBRANCH   7   6
ENDBRANCH   8   7
ENDBRANCH  11   9
BRANCH  15  16
ATOM     16  C   UNL     1       1.290  -1.098   0.000  0.00  0.00    +0.132 C 
BRANCH  16  17
ATOM     17  C   UNL     1       0.478  -0.953   0.000  0.00  0.00    -0.002 C 
ATOM     18  C   UNL     1      -0.053  -1.584   0.000  0.00  0.00    -0.003 C 
ENDBRANCH  16  17
ENDBRANCH  15  16
BRANCH  25  26
ATOM     26  C   UNL     1       2.845   2.899   0.000  0.00  0.00    +0.022 C 
BRANCH  26  27
ATOM     27  C   UNL     1       2.063   3.164   0.000  0.00  0.00    +0.002 C 
ATOM     28  C   UNL     1       1.443   2.619   0.000  0.00  0.00    +0.000 C 
ATOM     29  C   UNL     1       1.902   3.973   0.000  0.00  0.00    +0.000 C 
ENDBRANCH  26  27
ENDBRANCH  25  26
TORSDOF 8
