REMARK  Name = 
REMARK  6 active torsions:
REMARK  status: ('A' for Active; 'I' for Inactive)
REMARK    1  A    between atoms: C_2  and  O_5
REMARK    2  A    between atoms: O_5  and  C_6
REMARK    3  A    between atoms: C_9  and  C_10
REMARK    4  A    between atoms: C_10  and  N_11
REMARK    5  A    between atoms: C_16  and  O_18
REMARK    6  A    between atoms: O_18  and  C_19
REMARK                            x       y       z     vdW  Elec       q    Type
REMARK                         _______ _______ _______ _____ _____    ______ ____
ROOT
ATOM     11  N   UNL     1      -0.401  -3.868   0.000  0.00  0.00    -0.264 NA
ATOM     12  C   UNL     1       0.281  -3.403   0.000  0.00  0.00    +0.105 C 
ATOM     13  C   UNL     1       1.069  -3.646   0.000  0.00  0.00    +0.160 C 
ATOM     14  O   UNL     1       1.371  -4.414   0.000  0.00  0.00    -0.348 OA
ATOM     15  C   UNL     1       0.958  -5.128   0.000  0.00  0.00    +0.187 C 
ATOM     16  C   UNL     1       0.142  -5.251   0.000  0.00  0.00    +0.213 C 
ATOM     17  C   UNL     1      -0.462  -4.690   0.000  0.00  0.00    +0.119 C 
ENDROOT
BRANCH  11  10
ATOM     10  C   UNL     1      -1.115  -3.455   0.000  0.00  0.00    +0.099 C 
BRANCH  10   9
ATOM      6  C   UNL     1      -1.115  -0.980   0.000  0.00  0.00    +0.147 A 
ATOM      7  C   UNL     1      -0.401  -1.393   0.000  0.00  0.00    +0.037 A 
ATOM      8  C   UNL     1      -0.401  -2.217   0.000  0.00  0.00    +0.000 A 
ATOM      9  C   UNL     1      -1.115  -2.630   0.000  0.00  0.00    -0.006 A 
ATOM     25  C   UNL     1      -1.830  -2.217   0.000  0.00  0.00    +0.000 A 
ATOM     26  C   UNL     1      -1.830  -1.393   0.000  0.00  0.00    +0.037 A 
BRANCH   6   5
ATOM      5  O   UNL     1      -1.115  -0.155   0.000  0.00  0.00    -0.404 OA
BRANCH   5   2
ATOM      1  F   UNL     1      -2.544   0.670   0.000  0.00  0.00    -0.133 F 
ATOM      2  C   UNL     1      -1.830   0.258   0.000  0.00  0.00    +0.575 C 
ATOM      3  F   UNL     1      -2.242  -0.457   0.000  0.00  0.00    -0.133 F 
ATOM      4  F   UNL     1      -1.417   0.972   0.000  0.00  0.00    -0.133 F 
ENDBRANCH   5   2
ENDBRANCH   6   5
ENDBRANCH  10   9
ENDBRANCH  11  10
BRANCH  16  18
ATOM     18  O   UNL     1      -0.101  -6.040   0.000  0.00  0.00    -0.459 OA
BRANCH  18  19
ATOM     19  C   UNL     1      -0.905  -6.223   0.000  0.00  0.00    +0.245 A 
ATOM     20  C   UNL     1      -1.148  -7.012   0.000  0.00  0.00    +0.156 A 
ATOM     21  N   UNL     1      -1.953  -7.195   0.000  0.00  0.00    -0.236 NA
ATOM     22  C   UNL     1      -2.514  -6.590   0.000  0.00  0.00    +0.120 A 
ATOM     23  C   UNL     1      -2.271  -5.802   0.000  0.00  0.00    +0.123 A 
ATOM     24  N   UNL     1      -1.466  -5.619   0.000  0.00  0.00    -0.207 NA
ENDBRANCH  18  19
ENDBRANCH  16  18
TORSDOF 6
