REMARK  Name = 
REMARK  3 active torsions:
REMARK  status: ('A' for Active; 'I' for Inactive)
REMARK    1  A    between atoms: C_6  and  C_7
REMARK    2  A    between atoms: C_7  and  N_8
REMARK    3  A    between atoms: C_18  and  C_20
REMARK                            x       y       z     vdW  Elec       q    Type
REMARK                         _______ _______ _______ _____ _____    ______ ____
ROOT
ATOM      8  N   UNL     1       0.654  -0.698   0.000  0.00  0.00    -0.255 N 
ATOM      9  C   UNL     1       1.139  -0.030   0.000  0.00  0.00    +0.117 C 
ATOM     10  C   UNL     1       1.923  -0.285   0.000  0.00  0.00    +0.116 C 
ATOM     11  C   UNL     1       2.638   0.127   0.000  0.00  0.00    +0.115 C 
ATOM     12  N   UNL     1       3.352  -0.285   0.000  0.00  0.00    -0.273 N 
ATOM     13  C   UNL     1       3.352  -1.110   0.000  0.00  0.00    +0.115 C 
ATOM     14  C   UNL     1       2.638  -1.523   0.000  0.00  0.00    +0.116 C 
ATOM     15  N   UNL     1       1.923  -1.110   0.000  0.00  0.00    -0.261 N 
ATOM     16  C   UNL     1       1.139  -1.365   0.000  0.00  0.00    +0.308 C 
ATOM     17  O   UNL     1       0.884  -2.150   0.000  0.00  0.00    -0.252 OA
ATOM     18  C   UNL     1       4.067   0.127   0.000  0.00  0.00    +0.249 C 
ATOM     19  O   UNL     1       4.067   0.952   0.000  0.00  0.00    -0.270 OA
ENDROOT
BRANCH  18  20
ATOM     20  C   UNL     1       4.781  -0.285   0.000  0.00  0.00    +0.054 A 
ATOM     21  C   UNL     1       5.496   0.127   0.000  0.00  0.00    +0.007 A 
ATOM     22  C   UNL     1       6.210  -0.285   0.000  0.00  0.00    +0.030 A 
ATOM     23  C   UNL     1       6.210  -1.110   0.000  0.00  0.00    +0.140 A 
ATOM     24  F   UNL     1       6.925  -1.523   0.000  0.00  0.00    -0.204 F 
ATOM     25  C   UNL     1       5.496  -1.523   0.000  0.00  0.00    +0.030 A 
ATOM     26  C   UNL     1       4.781  -1.110   0.000  0.00  0.00    +0.007 A 
ENDBRANCH  18  20
BRANCH   8   7
ATOM      7  C   UNL     1      -0.171  -0.698   0.000  0.00  0.00    +0.159 C 
BRANCH   7   6
ATOM      1  C   UNL     1      -1.956  -0.886   0.000  0.00  0.00    +0.132 C 
ATOM      2  N   UNL     1      -1.404  -1.499   0.000  0.00  0.00    -0.310 N 
ATOM      3  C   UNL     1      -1.576  -2.306   0.000  0.00  0.00    +0.098 A 
ATOM      4  C   UNL     1      -0.861  -2.718   0.000  0.00  0.00    +0.119 A 
ATOM      5  N   UNL     1      -0.248  -2.166   0.000  0.00  0.00    -0.228 NA
ATOM      6  C   UNL     1      -0.584  -1.412   0.000  0.00  0.00    +0.141 A 
ENDBRANCH   7   6
ENDBRANCH   8   7
TORSDOF 3
