REMARK  Name = 
REMARK  7 active torsions:
REMARK  status: ('A' for Active; 'I' for Inactive)
REMARK    1  A    between atoms: O_2  and  C_3
REMARK    2  A    between atoms: C_6  and  C_9
REMARK    3  A    between atoms: N_11  and  C_12
REMARK    4  A    between atoms: C_12  and  C_13
REMARK    5  A    between atoms: C_15  and  C_16
REMARK    6  A    between atoms: C_16  and  C_17
REMARK    7  A    between atoms: C_20  and  C_22
REMARK                            x       y       z     vdW  Elec       q    Type
REMARK                         _______ _______ _______ _____ _____    ______ ____
ROOT
ATOM     13  C   UNL     1       2.858   0.000   0.000  0.00  0.00    +0.167 C 
ATOM     14  O   UNL     1       2.143  -0.412   0.000  0.00  0.00    -0.354 OA
ATOM     15  C   UNL     1       1.429   0.000   0.000  0.00  0.00    +0.121 C 
ATOM     28  C   UNL     1       1.429   0.825   0.000  0.00  0.00    +0.033 C 
ATOM     29  C   UNL     1       2.143   1.238   0.000  0.00  0.00    +0.038 C 
ATOM     30  C   UNL     1       2.858   0.825   0.000  0.00  0.00    +0.181 C 
ATOM     31  O   UNL     1       3.572   1.238   0.000  0.00  0.00    -0.220 OA
ENDROOT
BRANCH  13  12
ATOM     12  C   UNL     1       3.572  -0.412   0.000  0.00  0.00    +0.147 C 
BRANCH  12  11
ATOM      9  C   UNL     1       5.001  -0.412   0.000  0.00  0.00    +0.265 C 
ATOM     10  O   UNL     1       5.001  -1.238   0.000  0.00  0.00    -0.268 OA
ATOM     11  N   UNL     1       4.287   0.000   0.000  0.00  0.00    -0.199 NA
BRANCH   9   6
ATOM      3  C   UNL     1       7.145   0.825   0.000  0.00  0.00    +0.139 A 
ATOM      4  C   UNL     1       7.145   0.000   0.000  0.00  0.00    +0.037 A 
ATOM      5  C   UNL     1       6.430  -0.412   0.000  0.00  0.00    +0.008 A 
ATOM      6  C   UNL     1       5.716   0.000   0.000  0.00  0.00    +0.055 A 
ATOM      7  C   UNL     1       5.716   0.825   0.000  0.00  0.00    +0.008 A 
ATOM      8  C   UNL     1       6.430   1.238   0.000  0.00  0.00    +0.037 A 
BRANCH   3   2
ATOM      1  C   UNL     1       7.859   2.062   0.000  0.00  0.00    +0.252 C 
ATOM      2  O   UNL     1       7.859   1.238   0.000  0.00  0.00    -0.471 OA
ENDBRANCH   3   2
ENDBRANCH   9   6
ENDBRANCH  12  11
ENDBRANCH  13  12
BRANCH  15  16
ATOM     16  C   UNL     1       0.715  -0.412   0.000  0.00  0.00    +0.079 C 
BRANCH  16  17
ATOM     17  C   UNL     1       0.715  -1.238   0.000  0.00  0.00    +0.103 A 
ATOM     18  N   UNL     1       1.382  -1.722   0.000  0.00  0.00    -0.081 NA
ATOM     19  O   UNL     1       1.127  -2.507   0.000  0.00  0.00    -0.354 OA
ATOM     20  C   UNL     1       0.302  -2.507   0.000  0.00  0.00    +0.177 A 
ATOM     21  C   UNL     1       0.047  -1.722   0.000  0.00  0.00    +0.058 A 
BRANCH  20  22
ATOM     22  C   UNL     1      -0.183  -3.175   0.000  0.00  0.00    +0.037 A 
ATOM     23  C   UNL     1       0.153  -3.928   0.000  0.00  0.00    +0.003 A 
ATOM     24  C   UNL     1      -0.332  -4.596   0.000  0.00  0.00    +0.000 A 
ATOM     25  C   UNL     1      -1.153  -4.509   0.000  0.00  0.00    +0.000 A 
ATOM     26  C   UNL     1      -1.488  -3.756   0.000  0.00  0.00    +0.000 A 
ATOM     27  C   UNL     1      -1.003  -3.088   0.000  0.00  0.00    +0.003 A 
ENDBRANCH  20  22
ENDBRANCH  16  17
ENDBRANCH  15  16
TORSDOF 7
