REMARK  Name = 
REMARK  6 active torsions:
REMARK  status: ('A' for Active; 'I' for Inactive)
REMARK    1  A    between atoms: C_2  and  C_30
REMARK    2  A    between atoms: N_3  and  C_4
REMARK    3  A    between atoms: C_8  and  N_12
REMARK    4  A    between atoms: C_16  and  O_17
REMARK    5  A    between atoms: O_17  and  C_18
REMARK    6  A    between atoms: C_22  and  N_24
REMARK                            x       y       z     vdW  Elec       q    Type
REMARK                         _______ _______ _______ _____ _____    ______ ____
ROOT
ATOM     12  N   UNL     1       3.094   1.197   0.000  0.00  0.00    -0.180 N 
ATOM     13  N   UNL     1       2.609   1.865   0.000  0.00  0.00    -0.040 NA
ATOM     14  N   UNL     1       3.094   2.532   0.000  0.00  0.00    -0.020 NA
ATOM     15  N   UNL     1       3.878   2.277   0.000  0.00  0.00    -0.071 NA
ATOM     16  C   UNL     1       3.878   1.452   0.000  0.00  0.00    +0.343 A 
ENDROOT
BRANCH  12   8
ATOM      4  C   UNL     1       1.270  -0.922   0.000  0.00  0.00    +0.155 C 
ATOM      5  C   UNL     1       0.785  -0.255   0.000  0.00  0.00    +0.166 C 
ATOM      6  O   UNL     1       1.270   0.412   0.000  0.00  0.00    -0.350 OA
ATOM      7  C   UNL     1       2.054   0.158   0.000  0.00  0.00    +0.169 C 
ATOM      8  C   UNL     1       2.839   0.412   0.000  0.00  0.00    +0.170 C 
ATOM      9  C   UNL     1       3.324  -0.255   0.000  0.00  0.00    +0.169 C 
ATOM     10  O   UNL     1       2.839  -0.922   0.000  0.00  0.00    -0.350 OA
ATOM     11  C   UNL     1       2.054  -0.667   0.000  0.00  0.00    +0.167 C 
BRANCH   4   3
ATOM      1  O   UNL     1       2.374  -2.149   0.000  0.00  0.00    -0.268 OA
ATOM      2  C   UNL     1       1.567  -2.320   0.000  0.00  0.00    +0.265 C 
ATOM      3  N   UNL     1       1.015  -1.707   0.000  0.00  0.00    -0.198 NA
BRANCH   2  30
ATOM     30  C   UNL     1       1.312  -3.105   0.000  0.00  0.00    +0.055 A 
ATOM     31  C   UNL     1       1.864  -3.718   0.000  0.00  0.00    +0.005 A 
ATOM     32  C   UNL     1       1.609  -4.502   0.000  0.00  0.00    +0.000 A 
ATOM     33  C   UNL     1       0.802  -4.674   0.000  0.00  0.00    +0.000 A 
ATOM     34  C   UNL     1       0.250  -4.061   0.000  0.00  0.00    +0.000 A 
ATOM     35  C   UNL     1       0.505  -3.276   0.000  0.00  0.00    +0.005 A 
ENDBRANCH   2  30
ENDBRANCH   4   3
ENDBRANCH  12   8
BRANCH  16  17
ATOM     17  O   UNL     1       4.546   0.967   0.000  0.00  0.00    -0.421 OA
BRANCH  17  18
ATOM     18  C   UNL     1       5.300   1.303   0.000  0.00  0.00    +0.150 A 
ATOM     19  C   UNL     1       5.386   2.123   0.000  0.00  0.00    +0.038 A 
ATOM     20  C   UNL     1       6.139   2.459   0.000  0.00  0.00    +0.004 A 
ATOM     21  C   UNL     1       6.807   1.974   0.000  0.00  0.00    +0.015 A 
ATOM     22  C   UNL     1       6.721   1.153   0.000  0.00  0.00    +0.051 A 
ATOM     23  C   UNL     1       5.967   0.818   0.000  0.00  0.00    +0.052 A 
BRANCH  22  24
ATOM     24  N   UNL     1       7.388   0.668   0.000  0.00  0.00    -0.303 N 
ATOM     25  C   UNL     1       8.142   1.004   0.000  0.00  0.00    +0.123 C 
ATOM     26  C   UNL     1       8.809   0.519   0.000  0.00  0.00    +0.164 C 
ATOM     27  O   UNL     1       8.723  -0.301   0.000  0.00  0.00    -0.350 OA
ATOM     28  C   UNL     1       7.969  -0.637   0.000  0.00  0.00    +0.164 C 
ATOM     29  C   UNL     1       7.302  -0.152   0.000  0.00  0.00    +0.123 C 
ENDBRANCH  22  24
ENDBRANCH  17  18
ENDBRANCH  16  17
TORSDOF 6
