REMARK  Name = 
REMARK  5 active torsions:
REMARK  status: ('A' for Active; 'I' for Inactive)
REMARK    1  A    between atoms: C_2  and  C_4
REMARK    2  A    between atoms: C_4  and  N_5
REMARK    3  A    between atoms: N_5  and  C_6
REMARK    4  A    between atoms: C_12  and  C_13
REMARK    5  A    between atoms: C_16  and  N_19
REMARK                            x       y       z     vdW  Elec       q    Type
REMARK                         _______ _______ _______ _____ _____    ______ ____
ROOT
ATOM      6  C   UNL     1       0.715  -3.712   0.000  0.00  0.00    +0.110 C 
ATOM      7  C   UNL     1       1.382  -4.197   0.000  0.00  0.00    +0.198 C 
ATOM      8  O   UNL     1       2.167  -3.942   0.000  0.00  0.00    -0.219 OA
ATOM      9  C   UNL     1       1.127  -4.982   0.000  0.00  0.00    +0.184 C 
ATOM     10  O   UNL     1       1.612  -5.649   0.000  0.00  0.00    -0.220 OA
ATOM     11  C   UNL     1       0.302  -4.982   0.000  0.00  0.00    +0.041 C 
ATOM     12  C   UNL     1       0.047  -4.197   0.000  0.00  0.00    +0.045 C 
ENDROOT
BRANCH  12  13
ATOM     13  C   UNL     1      -0.738  -3.942   0.000  0.00  0.00    -0.002 A 
ATOM     14  C   UNL     1      -1.351  -4.495   0.000  0.00  0.00    +0.000 A 
ATOM     15  C   UNL     1      -2.135  -4.240   0.000  0.00  0.00    +0.034 A 
ATOM     16  C   UNL     1      -2.307  -3.433   0.000  0.00  0.00    +0.132 A 
ATOM     17  N   UNL     1      -1.694  -2.881   0.000  0.00  0.00    -0.229 NA
ATOM     18  C   UNL     1      -0.909  -3.135   0.000  0.00  0.00    +0.096 A 
BRANCH  16  19
ATOM     19  N   UNL     1      -3.091  -3.178   0.000  0.00  0.00    -0.288 N 
ATOM     20  C   UNL     1      -3.704  -3.730   0.000  0.00  0.00    +0.124 C 
ATOM     21  C   UNL     1      -4.489  -3.475   0.000  0.00  0.00    +0.164 C 
ATOM     22  O   UNL     1      -4.661  -2.668   0.000  0.00  0.00    -0.350 OA
ATOM     23  C   UNL     1      -4.048  -2.116   0.000  0.00  0.00    +0.164 C 
ATOM     24  C   UNL     1      -3.263  -2.371   0.000  0.00  0.00    +0.124 C 
ENDBRANCH  16  19
ENDBRANCH  12  13
BRANCH   6   5
ATOM      5  N   UNL     1       0.715  -2.888   0.000  0.00  0.00    -0.216 NA
BRANCH   5   4
ATOM      4  C   UNL     1       1.429  -2.475   0.000  0.00  0.00    +0.089 C 
BRANCH   4   2
ATOM      1  C   UNL     1       2.143  -1.238   0.000  0.00  0.00    +0.001 C 
ATOM      2  C   UNL     1       1.429  -1.650   0.000  0.00  0.00    +0.017 C 
ATOM      3  C   UNL     1       0.715  -1.238   0.000  0.00  0.00    +0.001 C 
ENDBRANCH   4   2
ENDBRANCH   5   4
ENDBRANCH   6   5
TORSDOF 5
