REMARK  Name = 
REMARK  4 active torsions:
REMARK  status: ('A' for Active; 'I' for Inactive)
REMARK    1  A    between atoms: C_5  and  C_6
REMARK    2  A    between atoms: C_6  and  N_7
REMARK    3  A    between atoms: C_8  and  C_10
REMARK    4  A    between atoms: N_18  and  C_19
REMARK                            x       y       z     vdW  Elec       q    Type
REMARK                         _______ _______ _______ _____ _____    ______ ____
ROOT
ATOM     10  C   UNL     1       2.070   1.110   0.000  0.00  0.00    +0.161 C 
ATOM     11  C   UNL     1       1.356   0.698   0.000  0.00  0.00    +0.076 C 
ATOM     12  C   UNL     1       0.641   1.110   0.000  0.00  0.00    +0.078 A 
ATOM     13  C   UNL     1       0.641   1.935   0.000  0.00  0.00    +0.094 A 
ATOM     14  C   UNL     1       1.356   2.348   0.000  0.00  0.00    +0.143 C 
ATOM     15  N   UNL     1       2.070   1.935   0.000  0.00  0.00    -0.250 N 
ATOM     16  C   UNL     1       2.784   2.348   0.000  0.00  0.00    +0.324 C 
ATOM     17  O   UNL     1       3.499   1.935   0.000  0.00  0.00    -0.251 OA
ATOM     18  N   UNL     1       2.784   3.173   0.000  0.00  0.00    -0.190 NA
ATOM     25  N   UNL     1      -0.143   2.190   0.000  0.00  0.00    -0.225 NA
ATOM     26  C   UNL     1      -0.628   1.523   0.000  0.00  0.00    +0.198 A 
ATOM     27  N   UNL     1      -0.143   0.856   0.000  0.00  0.00    -0.227 NA
ENDROOT
BRANCH  18  19
ATOM     19  C   UNL     1       2.070   3.585   0.000  0.00  0.00    +0.097 C 
ATOM     20  C   UNL     1       1.356   3.173   0.000  0.00  0.00    +0.022 C 
ATOM     21  C   UNL     1       0.641   3.585   0.000  0.00  0.00    +0.002 C 
ATOM     22  C   UNL     1       0.641   4.410   0.000  0.00  0.00    +0.000 C 
ATOM     23  C   UNL     1       1.356   4.823   0.000  0.00  0.00    +0.002 C 
ATOM     24  C   UNL     1       2.070   4.410   0.000  0.00  0.00    +0.022 C 
ENDBRANCH  18  19
BRANCH  10   8
ATOM      7  N   UNL     1       2.784  -0.127   0.000  0.00  0.00    -0.199 NA
ATOM      8  C   UNL     1       2.784   0.698   0.000  0.00  0.00    +0.260 C 
ATOM      9  O   UNL     1       3.499   1.110   0.000  0.00  0.00    -0.272 OA
BRANCH   7   6
ATOM      6  C   UNL     1       3.499  -0.540   0.000  0.00  0.00    +0.142 C 
BRANCH   6   5
ATOM      1 CL   UNL     1       3.499  -3.840   0.000  0.00  0.00    -0.082 Cl
ATOM      2  C   UNL     1       3.499  -3.015   0.000  0.00  0.00    +0.058 A 
ATOM      3  C   UNL     1       2.784  -2.602   0.000  0.00  0.00    +0.011 A 
ATOM      4  C   UNL     1       2.784  -1.777   0.000  0.00  0.00    -0.002 A 
ATOM      5  C   UNL     1       3.499  -1.365   0.000  0.00  0.00    -0.001 A 
ATOM     28  C   UNL     1       4.213  -1.777   0.000  0.00  0.00    -0.002 A 
ATOM     29  C   UNL     1       4.213  -2.602   0.000  0.00  0.00    +0.011 A 
ENDBRANCH   6   5
ENDBRANCH   7   6
ENDBRANCH  10   8
TORSDOF 4
