REMARK  Name = 
REMARK  8 active torsions:
REMARK  status: ('A' for Active; 'I' for Inactive)
REMARK    1  A    between atoms: C_3  and  C_7
REMARK    2  A    between atoms: N_9  and  C_10
REMARK    3  A    between atoms: C_14  and  C_16
REMARK    4  A    between atoms: N_18  and  C_19
REMARK    5  A    between atoms: C_19  and  C_20
REMARK    6  A    between atoms: C_19  and  C_26
REMARK    7  A    between atoms: C_20  and  C_21
REMARK    8  A    between atoms: C_29  and  C_31
REMARK                            x       y       z     vdW  Elec       q    Type
REMARK                         _______ _______ _______ _____ _____    ______ ____
ROOT
ATOM     10  C   UNL     1       2.850  -3.002   0.000  0.00  0.00    +0.100 C 
ATOM     11  C   UNL     1       3.021  -2.195   0.000  0.00  0.00    +0.043 C 
ATOM     12  C   UNL     1       3.806  -1.940   0.000  0.00  0.00    +0.096 C 
ATOM     13  N   UNL     1       4.419  -2.492   0.000  0.00  0.00    -0.267 N 
ATOM     14  C   UNL     1       4.247  -3.299   0.000  0.00  0.00    +0.155 C 
ATOM     15  C   UNL     1       3.463  -3.554   0.000  0.00  0.00    +0.051 C 
ATOM     29  C   UNL     1       5.204  -2.237   0.000  0.00  0.00    +0.284 C 
ATOM     30  O   UNL     1       5.817  -2.789   0.000  0.00  0.00    -0.267 OA
ENDROOT
BRANCH  29  31
ATOM     31  C   UNL     1       5.375  -1.430   0.000  0.00  0.00    +0.199 A 
ATOM     32  C   UNL     1       4.823  -0.817   0.000  0.00  0.00    +0.045 A 
ATOM     33  C   UNL     1       5.236  -0.103   0.000  0.00  0.00    +0.044 A 
ATOM     34  C   UNL     1       6.043  -0.274   0.000  0.00  0.00    +0.180 A 
ATOM     35  O   UNL     1       6.129  -1.095   0.000  0.00  0.00    -0.446 OA
ENDBRANCH  29  31
BRANCH  10   9
ATOM      7  C   UNL     1       1.452  -2.705   0.000  0.00  0.00    +0.273 C 
ATOM      8  O   UNL     1       1.624  -1.898   0.000  0.00  0.00    -0.268 OA
ATOM      9  N   UNL     1       2.065  -3.257   0.000  0.00  0.00    -0.203 NA
BRANCH   7   3
ATOM      1  C   UNL     1       0.000  -1.650   0.000  0.00  0.00    +0.055 C 
ATOM      2  C   UNL     1       0.000  -2.475   0.000  0.00  0.00    +0.093 A 
ATOM      3  C   UNL     1       0.667  -2.960   0.000  0.00  0.00    +0.119 A 
ATOM      4  S   UNL     1       0.412  -3.744   0.000  0.00  0.00    +0.042 S 
ATOM      5  N   UNL     1      -0.412  -3.744   0.000  0.00  0.00    -0.110 NA
ATOM      6  N   UNL     1      -0.667  -2.960   0.000  0.00  0.00    -0.145 NA
ENDBRANCH   7   3
ENDBRANCH  10   9
BRANCH  14  16
ATOM     16  C   UNL     1       4.861  -3.851   0.000  0.00  0.00    +0.260 C 
ATOM     17  O   UNL     1       4.689  -4.658   0.000  0.00  0.00    -0.272 OA
ATOM     18  N   UNL     1       5.645  -3.596   0.000  0.00  0.00    -0.196 NA
BRANCH  18  19
ATOM     19  C   UNL     1       6.258  -4.148   0.000  0.00  0.00    +0.179 C 
BRANCH  19  26
ATOM     26  C   UNL     1       6.087  -4.955   0.000  0.00  0.00    +0.281 C 
ATOM     27  N   UNL     1       6.700  -5.507   0.000  0.00  0.00    -0.086 NA
ATOM     28  O   UNL     1       5.302  -5.210   0.000  0.00  0.00    -0.270 OA
ENDBRANCH  19  26
BRANCH  19  20
ATOM     20  C   UNL     1       7.043  -3.893   0.000  0.00  0.00    +0.064 C 
BRANCH  20  21
ATOM     21  C   UNL     1       7.656  -4.445   0.000  0.00  0.00    +0.010 A 
ATOM     22  C   UNL     1       8.463  -4.274   0.000  0.00  0.00    +0.003 A 
ATOM     23  C   UNL     1       8.876  -4.988   0.000  0.00  0.00    +0.007 A 
ATOM     24  C   UNL     1       8.323  -5.601   0.000  0.00  0.00    +0.035 A 
ATOM     25  S   UNL     1       7.570  -5.266   0.000  0.00  0.00    -0.091 S 
ENDBRANCH  20  21
ENDBRANCH  19  20
ENDBRANCH  18  19
ENDBRANCH  14  16
TORSDOF 8
