REMARK  Name = 
REMARK  1 active torsions:
REMARK  status: ('A' for Active; 'I' for Inactive)
REMARK    1  A    between atoms: C_10  and  N_11
REMARK                            x       y       z     vdW  Elec       q    Type
REMARK                         _______ _______ _______ _____ _____    ______ ____
ROOT
ATOM      1  C   UNL     1       1.545   0.161   0.000  0.00  0.00    +0.012 C 
ATOM      2  C   UNL     1       2.175  -0.372   0.000  0.00  0.00    +0.103 C 
ATOM      3  C   UNL     1       2.977  -0.175   0.000  0.00  0.00    +0.051 C 
ATOM      4  C   UNL     1       3.366   0.552   0.000  0.00  0.00    +0.004 C 
ATOM      5  C   UNL     1       4.191   0.578   0.000  0.00  0.00    +0.000 C 
ATOM      6  C   UNL     1       4.626  -0.124   0.000  0.00  0.00    +0.003 C 
ATOM      7  C   UNL     1       5.016   0.603   0.000  0.00  0.00    +0.000 C 
ATOM      8  C   UNL     1       5.450  -0.098   0.000  0.00  0.00    +0.002 C 
ATOM      9  C   UNL     1       5.885  -0.799   0.000  0.00  0.00    +0.022 C 
ATOM     10  C   UNL     1       5.495  -1.526   0.000  0.00  0.00    +0.095 C 
ATOM     15  C   UNL     1       4.670  -1.552   0.000  0.00  0.00    +0.023 C 
ATOM     16  C   UNL     1       4.280  -2.279   0.000  0.00  0.00    +0.002 C 
ATOM     17  C   UNL     1       4.236  -0.851   0.000  0.00  0.00    +0.042 C 
ATOM     18  C   UNL     1       3.411  -0.876   0.000  0.00  0.00    +0.169 C 
ATOM     19  O   UNL     1       2.878  -1.507   0.000  0.00  0.00    -0.452 OA
ATOM     20  C   UNL     1       2.115  -1.195   0.000  0.00  0.00    +0.316 C 
ATOM     21  O   UNL     1       1.413  -1.629   0.000  0.00  0.00    -0.250 OA
ENDROOT
BRANCH  10  11
ATOM     11  N   UNL     1       5.929  -2.228   0.000  0.00  0.00    -0.207 NA
ATOM     12  C   UNL     1       5.540  -2.954   0.000  0.00  0.00    +0.242 C 
ATOM     13  C   UNL     1       5.974  -3.656   0.000  0.00  0.00    +0.096 C 
ATOM     14  O   UNL     1       4.715  -2.980   0.000  0.00  0.00    -0.273 OA
ENDBRANCH  10  11
TORSDOF 1
