REMARK  Name = 
REMARK  5 active torsions:
REMARK  status: ('A' for Active; 'I' for Inactive)
REMARK    1  A    between atoms: C_5  and  C_6
REMARK    2  A    between atoms: C_6  and  C_7
REMARK    3  A    between atoms: C_16  and  C_17
REMARK    4  A    between atoms: C_17  and  N_18
REMARK    5  A    between atoms: N_21  and  C_22
REMARK                            x       y       z     vdW  Elec       q    Type
REMARK                         _______ _______ _______ _____ _____    ______ ____
ROOT
ATOM      1  O   UNL     1      -0.925  -3.618   0.000  0.00  0.00    -0.218 OA
ATOM      2  C   UNL     1      -0.754  -2.811   0.000  0.00  0.00    +0.213 C 
ATOM      3  C   UNL     1      -1.306  -2.197   0.000  0.00  0.00    +0.212 C 
ATOM      4  O   UNL     1      -2.126  -2.284   0.000  0.00  0.00    -0.218 OA
ATOM      5  C   UNL     1      -0.893  -1.483   0.000  0.00  0.00    +0.157 C 
ATOM     15  O   UNL     1      -0.086  -1.655   0.000  0.00  0.00    -0.351 OA
ATOM     16  C   UNL     1       0.000  -2.475   0.000  0.00  0.00    +0.170 C 
ENDROOT
BRANCH   5   6
ATOM      6  C   UNL     1      -1.229  -0.729   0.000  0.00  0.00    +0.117 C 
BRANCH   6   7
ATOM      7  C   UNL     1      -2.049  -0.643   0.000  0.00  0.00    +0.228 C 
ATOM      8  O   UNL     1      -2.534  -1.310   0.000  0.00  0.00    -0.275 OA
ATOM      9  N   UNL     1      -2.385   0.111   0.000  0.00  0.00    -0.274 N 
ATOM     10  C   UNL     1      -3.205   0.197   0.000  0.00  0.00    +0.125 C 
ATOM     11  C   UNL     1      -3.541   0.951   0.000  0.00  0.00    +0.164 C 
ATOM     12  O   UNL     1      -3.056   1.618   0.000  0.00  0.00    -0.350 OA
ATOM     13  C   UNL     1      -2.235   1.532   0.000  0.00  0.00    +0.164 C 
ATOM     14  C   UNL     1      -1.900   0.778   0.000  0.00  0.00    +0.125 C 
ENDBRANCH   6   7
ENDBRANCH   5   6
BRANCH  16  17
ATOM     17  C   UNL     1       0.715  -2.888   0.000  0.00  0.00    +0.149 C 
BRANCH  17  18
ATOM     18  N   UNL     1       1.429  -2.475   0.000  0.00  0.00    -0.184 NA
ATOM     19  C   UNL     1       2.143  -2.888   0.000  0.00  0.00    +0.344 C 
ATOM     20  O   UNL     1       2.143  -3.712   0.000  0.00  0.00    -0.249 OA
ATOM     21  N   UNL     1       2.858  -2.475   0.000  0.00  0.00    -0.161 NA
BRANCH  21  22
ATOM     22  C   UNL     1       3.572  -2.888   0.000  0.00  0.00    +0.077 A 
ATOM     23  C   UNL     1       4.287  -2.475   0.000  0.00  0.00    +0.017 A 
ATOM     24  C   UNL     1       5.001  -2.888   0.000  0.00  0.00    +0.004 A 
ATOM     25  C   UNL     1       5.001  -3.712   0.000  0.00  0.00    +0.030 A 
ATOM     26  C   UNL     1       4.287  -4.125   0.000  0.00  0.00    +0.141 A 
ATOM     27  F   UNL     1       4.287  -4.950   0.000  0.00  0.00    -0.204 F 
ATOM     28  C   UNL     1       3.572  -3.712   0.000  0.00  0.00    +0.046 A 
ENDBRANCH  21  22
ENDBRANCH  17  18
ENDBRANCH  16  17
TORSDOF 5
