REMARK  Name = 
REMARK  4 active torsions:
REMARK  status: ('A' for Active; 'I' for Inactive)
REMARK    1  A    between atoms: C_2  and  O_5
REMARK    2  A    between atoms: O_5  and  C_6
REMARK    3  A    between atoms: C_9  and  N_10
REMARK    4  A    between atoms: C_16  and  C_18
REMARK                            x       y       z     vdW  Elec       q    Type
REMARK                         _______ _______ _______ _____ _____    ______ ____
ROOT
ATOM     10  N   UNL     1      -4.144  -1.260   0.000  0.00  0.00    -0.162 NA
ATOM     11  C   UNL     1      -3.390  -1.595   0.000  0.00  0.00    +0.327 C 
ATOM     12  O   UNL     1      -3.304  -2.416   0.000  0.00  0.00    -0.250 OA
ATOM     13  N   UNL     1      -2.723  -1.110   0.000  0.00  0.00    -0.262 N 
ATOM     14  C   UNL     1      -2.723  -0.285   0.000  0.00  0.00    +0.096 C 
ATOM     15  C   UNL     1      -1.938  -0.030   0.000  0.00  0.00    +0.033 C 
ATOM     16  C   UNL     1      -1.453  -0.698   0.000  0.00  0.00    +0.098 C 
ATOM     17  C   UNL     1      -1.938  -1.365   0.000  0.00  0.00    +0.104 C 
ENDROOT
BRANCH  16  18
ATOM     18  C   UNL     1      -0.628  -0.698   0.000  0.00  0.00    +0.207 A 
ATOM     19  N   UNL     1      -0.143  -1.365   0.000  0.00  0.00    -0.212 NA
ATOM     20  C   UNL     1       0.641  -1.110   0.000  0.00  0.00    +0.119 A 
ATOM     21  C   UNL     1       0.641  -0.285   0.000  0.00  0.00    +0.164 A 
ATOM     22  O   UNL     1      -0.143  -0.030   0.000  0.00  0.00    -0.438 OA
ATOM     23  C   UNL     1       1.356   0.127   0.000  0.00  0.00    +0.039 A 
ATOM     24  C   UNL     1       2.070  -0.285   0.000  0.00  0.00    +0.003 A 
ATOM     25  C   UNL     1       2.070  -1.110   0.000  0.00  0.00    +0.002 A 
ATOM     26  C   UNL     1       1.356  -1.523   0.000  0.00  0.00    +0.022 A 
ENDBRANCH  16  18
BRANCH  10   9
ATOM      6  C   UNL     1      -6.146  -2.715   0.000  0.00  0.00    +0.147 A 
ATOM      7  C   UNL     1      -6.233  -1.894   0.000  0.00  0.00    +0.039 A 
ATOM      8  C   UNL     1      -5.565  -1.409   0.000  0.00  0.00    +0.020 A 
ATOM      9  C   UNL     1      -4.811  -1.745   0.000  0.00  0.00    +0.075 A 
ATOM     27  C   UNL     1      -4.725  -2.565   0.000  0.00  0.00    +0.020 A 
ATOM     28  C   UNL     1      -5.393  -3.050   0.000  0.00  0.00    +0.039 A 
BRANCH   6   5
ATOM      5  O   UNL     1      -6.814  -3.200   0.000  0.00  0.00    -0.404 OA
BRANCH   5   2
ATOM      1  F   UNL     1      -6.641  -4.840   0.000  0.00  0.00    -0.133 F 
ATOM      2  C   UNL     1      -6.728  -4.020   0.000  0.00  0.00    +0.575 C 
ATOM      3  F   UNL     1      -5.907  -3.934   0.000  0.00  0.00    -0.133 F 
ATOM      4  F   UNL     1      -7.548  -4.106   0.000  0.00  0.00    -0.133 F 
ENDBRANCH   5   2
ENDBRANCH   6   5
ENDBRANCH  10   9
TORSDOF 4
