REMARK  Name = 
REMARK  6 active torsions:
REMARK  status: ('A' for Active; 'I' for Inactive)
REMARK    1  A    between atoms: C_5  and  O_6
REMARK    2  A    between atoms: O_6  and  C_7
REMARK    3  A    between atoms: C_7  and  C_8
REMARK    4  A    between atoms: C_11  and  C_13
REMARK    5  A    between atoms: N_16  and  C_17
REMARK    6  A    between atoms: C_17  and  C_18
REMARK                            x       y       z     vdW  Elec       q    Type
REMARK                         _______ _______ _______ _____ _____    ______ ____
ROOT
ATOM      8  C   UNL     1       4.253  -1.066   0.000  0.00  0.00    +0.270 A 
ATOM      9  N   UNL     1       4.920  -1.551   0.000  0.00  0.00    -0.108 NA
ATOM     10  N   UNL     1       4.666  -2.336   0.000  0.00  0.00    -0.112 NA
ATOM     11  C   UNL     1       3.841  -2.336   0.000  0.00  0.00    +0.227 A 
ATOM     12  O   UNL     1       3.586  -1.551   0.000  0.00  0.00    -0.420 OA
ENDROOT
BRANCH  11  13
ATOM     13  C   UNL     1       3.356  -3.003   0.000  0.00  0.00    +0.096 C 
ATOM     14  C   UNL     1       3.611  -3.788   0.000  0.00  0.00    +0.028 C 
ATOM     15  C   UNL     1       2.943  -4.273   0.000  0.00  0.00    +0.073 C 
ATOM     16  N   UNL     1       2.276  -3.788   0.000  0.00  0.00    -0.268 NA
ATOM     25  C   UNL     1       2.531  -3.003   0.000  0.00  0.00    +0.082 C 
BRANCH  16  17
ATOM     17  C   UNL     1       1.491  -4.043   0.000  0.00  0.00    +0.100 C 
BRANCH  17  18
ATOM     18  C   UNL     1       0.878  -3.491   0.000  0.00  0.00    +0.004 A 
ATOM     19  C   UNL     1       0.093  -3.746   0.000  0.00  0.00    -0.002 A 
ATOM     20  C   UNL     1      -0.520  -3.194   0.000  0.00  0.00    -0.000 A 
ATOM     21  C   UNL     1      -0.348  -2.387   0.000  0.00  0.00    +0.001 A 
ATOM     22  C   UNL     1       0.436  -2.132   0.000  0.00  0.00    +0.011 A 
ATOM     23  C   UNL     1       1.050  -2.684   0.000  0.00  0.00    +0.055 A 
ATOM     24 CL   UNL     1       1.834  -2.429   0.000  0.00  0.00    -0.083 Cl
ENDBRANCH  17  18
ENDBRANCH  16  17
ENDBRANCH  11  13
BRANCH   8   7
ATOM      7  C   UNL     1       4.253  -0.241   0.000  0.00  0.00    +0.291 C 
BRANCH   7   6
ATOM      6  O   UNL     1       4.968   0.171   0.000  0.00  0.00    -0.465 OA
BRANCH   6   5
ATOM      1  F   UNL     1       4.968   3.471   0.000  0.00  0.00    -0.204 F 
ATOM      2  C   UNL     1       4.968   2.646   0.000  0.00  0.00    +0.140 A 
ATOM      3  C   UNL     1       5.682   2.234   0.000  0.00  0.00    +0.033 A 
ATOM      4  C   UNL     1       5.682   1.409   0.000  0.00  0.00    +0.039 A 
ATOM      5  C   UNL     1       4.968   0.996   0.000  0.00  0.00    +0.139 A 
ATOM     26  C   UNL     1       4.253   1.409   0.000  0.00  0.00    +0.039 A 
ATOM     27  C   UNL     1       4.253   2.234   0.000  0.00  0.00    +0.033 A 
ENDBRANCH   6   5
ENDBRANCH   7   6
ENDBRANCH   8   7
TORSDOF 6
