REMARK  Name = 
REMARK  5 active torsions:
REMARK  status: ('A' for Active; 'I' for Inactive)
REMARK    1  A    between atoms: O_2  and  C_3
REMARK    2  A    between atoms: C_3  and  C_4
REMARK    3  A    between atoms: C_4  and  O_5
REMARK    4  A    between atoms: O_5  and  C_6
REMARK    5  A    between atoms: N_11  and  C_13
REMARK                            x       y       z     vdW  Elec       q    Type
REMARK                         _______ _______ _______ _____ _____    ______ ____
ROOT
ATOM      6  C   UNL     1       1.633  -1.954   0.000  0.00  0.00    +0.161 C 
ATOM      7  C   UNL     1       1.571  -1.131   0.000  0.00  0.00    +0.173 C 
ATOM      8  O   UNL     1       2.176  -0.570   0.000  0.00  0.00    -0.350 OA
ATOM      9  C   UNL     1       2.992  -0.693   0.000  0.00  0.00    +0.160 C 
ATOM     10  C   UNL     1       3.404  -1.407   0.000  0.00  0.00    +0.105 C 
ATOM     11  N   UNL     1       3.103  -2.175   0.000  0.00  0.00    -0.270 NA
ATOM     12  C   UNL     1       2.315  -2.418   0.000  0.00  0.00    +0.105 C 
ENDROOT
BRANCH  11  13
ATOM     13  C   UNL     1       3.664  -2.780   0.000  0.00  0.00    +0.063 C 
ATOM     14  C   UNL     1       4.468  -2.596   0.000  0.00  0.00    +0.048 C 
ATOM     15  C   UNL     1       5.029  -3.201   0.000  0.00  0.00    +0.144 C 
ATOM     16  O   UNL     1       4.786  -3.990   0.000  0.00  0.00    -0.354 OA
ATOM     17  C   UNL     1       3.982  -4.173   0.000  0.00  0.00    +0.144 C 
ATOM     18  C   UNL     1       3.421  -3.568   0.000  0.00  0.00    +0.048 C 
ENDBRANCH  11  13
BRANCH   6   5
ATOM      5  O   UNL     1       0.918  -2.366   0.000  0.00  0.00    -0.350 OA
BRANCH   5   4
ATOM      4  C   UNL     1       0.204  -1.954   0.000  0.00  0.00    +0.174 C 
BRANCH   4   3
ATOM      3  C   UNL     1      -0.510  -2.366   0.000  0.00  0.00    +0.174 C 
BRANCH   3   2
ATOM      1  C   UNL     1      -1.939  -2.366   0.000  0.00  0.00    +0.174 C 
ATOM      2  O   UNL     1      -1.225  -1.954   0.000  0.00  0.00    -0.348 OA
ENDBRANCH   3   2
ENDBRANCH   4   3
ENDBRANCH   5   4
ENDBRANCH   6   5
TORSDOF 5
