REMARK  Name = 
REMARK  6 active torsions:
REMARK  status: ('A' for Active; 'I' for Inactive)
REMARK    1  A    between atoms: O_2  and  C_3
REMARK    2  A    between atoms: C_6  and  C_9
REMARK    3  A    between atoms: C_11  and  C_12
REMARK    4  A    between atoms: C_12  and  C_13
REMARK    5  A    between atoms: C_15  and  N_16
REMARK    6  A    between atoms: N_16  and  C_17
REMARK                            x       y       z     vdW  Elec       q    Type
REMARK                         _______ _______ _______ _____ _____    ______ ____
ROOT
ATOM     12  C   UNL     1       3.342  -1.942   0.000  0.00  0.00    +0.049 C 
ENDROOT
BRANCH  12  13
ATOM     13  C   UNL     1       2.518  -1.942   0.000  0.00  0.00    +0.009 C 
ATOM     14  C   UNL     1       1.934  -2.525   0.000  0.00  0.00    +0.018 C 
ATOM     15  C   UNL     1       1.351  -1.942   0.000  0.00  0.00    +0.073 C 
ATOM     23  C   UNL     1       1.934  -1.358   0.000  0.00  0.00    +0.015 C 
ATOM     24  C   UNL     1       1.503  -0.655   0.000  0.00  0.00    +0.001 C 
ATOM     25  C   UNL     1       2.365  -0.655   0.000  0.00  0.00    +0.001 C 
BRANCH  15  16
ATOM     16  N   UNL     1       0.526  -1.942   0.000  0.00  0.00    -0.221 NA
BRANCH  16  17
ATOM     17  C   UNL     1       0.113  -1.227   0.000  0.00  0.00    +0.078 C 
ATOM     18  C   UNL     1      -0.712  -1.227   0.000  0.00  0.00    +0.050 C 
ATOM     19  C   UNL     1      -1.124  -0.513   0.000  0.00  0.00    +0.144 C 
ATOM     20  O   UNL     1      -0.712   0.202   0.000  0.00  0.00    -0.354 OA
ATOM     21  C   UNL     1       0.113   0.202   0.000  0.00  0.00    +0.144 C 
ATOM     22  C   UNL     1       0.526  -0.513   0.000  0.00  0.00    +0.050 C 
ENDBRANCH  16  17
ENDBRANCH  15  16
ENDBRANCH  12  13
BRANCH  12  11
ATOM      9  C   UNL     1       4.747  -0.334   0.000  0.00  0.00    +0.177 A 
ATOM     10  C   UNL     1       4.575  -1.141   0.000  0.00  0.00    +0.058 A 
ATOM     11  C   UNL     1       3.755  -1.227   0.000  0.00  0.00    +0.101 A 
ATOM     26  N   UNL     1       3.420  -0.473   0.000  0.00  0.00    -0.081 NA
ATOM     27  O   UNL     1       4.032   0.079   0.000  0.00  0.00    -0.354 OA
BRANCH   9   6
ATOM      3  C   UNL     1       7.008   0.673   0.000  0.00  0.00    +0.139 A 
ATOM      4  C   UNL     1       6.922  -0.148   0.000  0.00  0.00    +0.037 A 
ATOM      5  C   UNL     1       6.168  -0.483   0.000  0.00  0.00    +0.006 A 
ATOM      6  C   UNL     1       5.501   0.002   0.000  0.00  0.00    +0.037 A 
ATOM      7  C   UNL     1       5.587   0.822   0.000  0.00  0.00    +0.006 A 
ATOM      8  C   UNL     1       6.341   1.158   0.000  0.00  0.00    +0.037 A 
BRANCH   3   2
ATOM      1  C   UNL     1       7.848   1.829   0.000  0.00  0.00    +0.252 C 
ATOM      2  O   UNL     1       7.762   1.008   0.000  0.00  0.00    -0.471 OA
ENDBRANCH   3   2
ENDBRANCH   9   6
ENDBRANCH  12  11
TORSDOF 6
