REMARK  Name = 
REMARK  3 active torsions:
REMARK  status: ('A' for Active; 'I' for Inactive)
REMARK    1  A    between atoms: C_2  and  N_3
REMARK    2  A    between atoms: N_6  and  C_7
REMARK    3  A    between atoms: C_13  and  N_16
REMARK                            x       y       z     vdW  Elec       q    Type
REMARK                         _______ _______ _______ _____ _____    ______ ____
ROOT
ATOM      7  C   UNL     1       1.989  -0.542   0.000  0.00  0.00    +0.158 C 
ATOM      8  C   UNL     1       1.060  -0.557   0.000  0.00  0.00    +0.170 C 
ATOM      9  C   UNL     1       0.740  -1.266   0.000  0.00  0.00    +0.176 C 
ATOM     10  O   UNL     1       0.120  -1.643   0.000  0.00  0.00    -0.327 OA
ATOM     11  C   UNL     1       0.640  -0.930   0.000  0.00  0.00    +0.253 C 
ATOM     12  O   UNL     1       0.500  -0.117   0.000  0.00  0.00    -0.327 OA
ATOM     13  C   UNL     1       1.611  -0.930   0.000  0.00  0.00    +0.147 C 
ATOM     14  C   UNL     1       2.127  -1.359   0.000  0.00  0.00    +0.194 C 
ATOM     15  O   UNL     1       2.539  -2.074   0.000  0.00  0.00    -0.220 OA
ENDROOT
BRANCH  13  16
ATOM     16  N   UNL     1       1.331  -1.706   0.000  0.00  0.00    -0.265 NA
ATOM     17  C   UNL     1       1.863  -2.337   0.000  0.00  0.00    +0.090 C 
ATOM     18  C   UNL     1       1.583  -3.113   0.000  0.00  0.00    +0.090 C 
ATOM     19  N   UNL     1       0.771  -3.258   0.000  0.00  0.00    -0.269 NA
ATOM     20  C   UNL     1       0.490  -4.034   0.000  0.00  0.00    +0.090 C 
ATOM     21  C   UNL     1       0.239  -2.628   0.000  0.00  0.00    +0.090 C 
ATOM     22  C   UNL     1       0.519  -1.852   0.000  0.00  0.00    +0.090 C 
ENDBRANCH  13  16
BRANCH   7   6
ATOM      3  N   UNL     1       2.758   1.501   0.000  0.00  0.00    -0.187 NA
ATOM      4  C   UNL     1       2.231   0.867   0.000  0.00  0.00    +0.339 C 
ATOM      5  O   UNL     1       1.417   1.006   0.000  0.00  0.00    -0.249 OA
ATOM      6  N   UNL     1       2.517   0.093   0.000  0.00  0.00    -0.184 NA
BRANCH   3   2
ATOM      1  C   UNL     1       2.999   2.910   0.000  0.00  0.00    +0.025 C 
ATOM      2  C   UNL     1       2.472   2.275   0.000  0.00  0.00    +0.117 C 
ENDBRANCH   3   2
ENDBRANCH   7   6
TORSDOF 3
