REMARK  Name = 
REMARK  6 active torsions:
REMARK  status: ('A' for Active; 'I' for Inactive)
REMARK    1  A    between atoms: C_3  and  C_4
REMARK    2  A    between atoms: C_4  and  N_5
REMARK    3  A    between atoms: C_6  and  C_8
REMARK    4  A    between atoms: C_14  and  C_15
REMARK    5  A    between atoms: C_15  and  C_16
REMARK    6  A    between atoms: N_18  and  C_19
REMARK                            x       y       z     vdW  Elec       q    Type
REMARK                         _______ _______ _______ _____ _____    ______ ____
ROOT
ATOM      1  O   UNL     1      -6.023  -3.633   0.000  0.00  0.00    -0.218 OA
ATOM      2  C   UNL     1      -5.202  -3.547   0.000  0.00  0.00    +0.213 C 
ATOM      3  C   UNL     1      -4.790  -2.832   0.000  0.00  0.00    +0.170 C 
ATOM     13  O   UNL     1      -3.983  -3.004   0.000  0.00  0.00    -0.351 OA
ATOM     14  C   UNL     1      -3.896  -3.824   0.000  0.00  0.00    +0.157 C 
ATOM     22  C   UNL     1      -4.650  -4.160   0.000  0.00  0.00    +0.212 C 
ATOM     23  O   UNL     1      -4.822  -4.967   0.000  0.00  0.00    -0.218 OA
ENDROOT
BRANCH   3   4
ATOM      4  C   UNL     1      -5.125  -2.079   0.000  0.00  0.00    +0.148 C 
BRANCH   4   5
ATOM      5  N   UNL     1      -5.946  -1.992   0.000  0.00  0.00    -0.196 NA
ATOM      6  C   UNL     1      -6.281  -1.239   0.000  0.00  0.00    +0.300 C 
ATOM      7  O   UNL     1      -5.796  -0.571   0.000  0.00  0.00    -0.265 OA
BRANCH   6   8
ATOM      8  C   UNL     1      -7.102  -1.153   0.000  0.00  0.00    +0.200 A 
ATOM      9  C   UNL     1      -7.654  -1.766   0.000  0.00  0.00    +0.046 A 
ATOM     10  C   UNL     1      -8.407  -1.430   0.000  0.00  0.00    +0.044 A 
ATOM     11  C   UNL     1      -8.321  -0.610   0.000  0.00  0.00    +0.180 A 
ATOM     12  O   UNL     1      -7.514  -0.438   0.000  0.00  0.00    -0.446 OA
ENDBRANCH   6   8
ENDBRANCH   4   5
ENDBRANCH   3   4
BRANCH  14  15
ATOM     15  C   UNL     1      -3.182  -4.237   0.000  0.00  0.00    +0.119 C 
BRANCH  15  16
ATOM     16  C   UNL     1      -3.182  -5.062   0.000  0.00  0.00    +0.244 C 
ATOM     17  O   UNL     1      -3.896  -5.474   0.000  0.00  0.00    -0.273 OA
ATOM     18  N   UNL     1      -2.467  -5.474   0.000  0.00  0.00    -0.207 NA
BRANCH  18  19
ATOM     19  C   UNL     1      -2.467  -6.299   0.000  0.00  0.00    +0.095 C 
ATOM     20  C   UNL     1      -2.055  -7.014   0.000  0.00  0.00    +0.023 C 
ATOM     21  C   UNL     1      -2.880  -7.014   0.000  0.00  0.00    +0.023 C 
ENDBRANCH  18  19
ENDBRANCH  15  16
ENDBRANCH  14  15
TORSDOF 6
