REMARK  Name = 
REMARK  7 active torsions:
REMARK  status: ('A' for Active; 'I' for Inactive)
REMARK    1  A    between atoms: O_2  and  C_3
REMARK    2  A    between atoms: C_5  and  O_6
REMARK    3  A    between atoms: C_9  and  N_10
REMARK    4  A    between atoms: C_11  and  O_13
REMARK    5  A    between atoms: O_13  and  C_14
REMARK    6  A    between atoms: C_14  and  C_15
REMARK    7  A    between atoms: C_22  and  C_23
REMARK                            x       y       z     vdW  Elec       q    Type
REMARK                         _______ _______ _______ _____ _____    ______ ____
ROOT
ATOM     10  N   UNL     1       2.223  -4.934   0.000  0.00  0.00    -0.142 NA
ATOM     11  C   UNL     1       2.529  -4.168   0.000  0.00  0.00    +0.425 C 
ATOM     12  O   UNL     1       3.345  -4.050   0.000  0.00  0.00    -0.224 OA
ENDROOT
BRANCH  10   9
ATOM      3  C   UNL     1       4.060  -6.112   0.000  0.00  0.00    +0.143 A 
ATOM      4  C   UNL     1       3.754  -6.878   0.000  0.00  0.00    +0.074 A 
ATOM      5  C   UNL     1       2.938  -6.996   0.000  0.00  0.00    +0.143 A 
ATOM      8  C   UNL     1       2.427  -6.348   0.000  0.00  0.00    +0.054 A 
ATOM      9  C   UNL     1       2.733  -5.582   0.000  0.00  0.00    +0.083 A 
ATOM     25  C   UNL     1       3.550  -5.464   0.000  0.00  0.00    +0.054 A 
BRANCH   3   2
ATOM      1  C   UNL     1       5.387  -6.642   0.000  0.00  0.00    +0.252 C 
ATOM      2  O   UNL     1       4.877  -5.994   0.000  0.00  0.00    -0.471 OA
ENDBRANCH   3   2
BRANCH   5   6
ATOM      6  O   UNL     1       2.631  -7.763   0.000  0.00  0.00    -0.471 OA
ATOM      7  C   UNL     1       1.815  -7.880   0.000  0.00  0.00    +0.252 C 
ENDBRANCH   5   6
ENDBRANCH  10   9
BRANCH  11  13
ATOM     13  O   UNL     1       2.018  -3.520   0.000  0.00  0.00    -0.432 OA
BRANCH  13  14
ATOM     14  C   UNL     1       2.324  -2.754   0.000  0.00  0.00    +0.226 C 
BRANCH  14  15
ATOM     15  C   UNL     1       1.814  -2.106   0.000  0.00  0.00    +0.102 C 
ATOM     16  C   UNL     1       1.661  -1.343   0.000  0.00  0.00    +0.021 C 
ATOM     17  C   UNL     1       0.923  -1.010   0.000  0.00  0.00    +0.016 C 
ATOM     18  C   UNL     1       0.961  -0.114   0.000  0.00  0.00    +0.018 C 
ATOM     19  C   UNL     1       1.205  -0.720   0.000  0.00  0.00    +0.072 C 
ATOM     20  N   UNL     1       1.065  -1.759   0.000  0.00  0.00    -0.270 NA
ATOM     21  C   UNL     1       0.226  -2.118   0.000  0.00  0.00    +0.085 C 
ATOM     22  C   UNL     1       0.119  -1.362   0.000  0.00  0.00    +0.081 C 
BRANCH  22  23
ATOM     23  C   UNL     1      -0.602  -0.960   0.000  0.00  0.00    -0.078 C 
ATOM     24  C   UNL     1      -1.322  -0.559   0.000  0.00  0.00    -0.014 C 
ENDBRANCH  22  23
ENDBRANCH  14  15
ENDBRANCH  13  14
ENDBRANCH  11  13
TORSDOF 7
