REMARK  Name = 
REMARK  11 active torsions:
REMARK  status: ('A' for Active; 'I' for Inactive)
REMARK    1  A    between atoms: O_2  and  C_3
REMARK    2  A    between atoms: C_3  and  C_4
REMARK    3  A    between atoms: C_4  and  N_5
REMARK    4  A    between atoms: N_5  and  C_6
REMARK    5  A    between atoms: C_6  and  C_7
REMARK    6  A    between atoms: C_7  and  O_8
REMARK    7  A    between atoms: C_10  and  C_12
REMARK    8  A    between atoms: C_12  and  C_14
REMARK    9  A    between atoms: C_21  and  N_22
REMARK   10  A    between atoms: C_23  and  C_25
REMARK   11  A    between atoms: C_25  and  C_26
REMARK                            x       y       z     vdW  Elec       q    Type
REMARK                         _______ _______ _______ _____ _____    ______ ____
ROOT
ATOM     14  C   UNL     1       6.430  -1.238   0.000  0.00  0.00    +0.039 C 
ATOM     15  C   UNL     1       5.716  -0.825   0.000  0.00  0.00    +0.003 C 
ATOM     16  C   UNL     1       5.716   0.000   0.000  0.00  0.00    +0.000 C 
ATOM     17  C   UNL     1       6.430   0.412   0.000  0.00  0.00    +0.002 C 
ATOM     18  C   UNL     1       5.716   0.825   0.000  0.00  0.00    +0.000 C 
ATOM     19  C   UNL     1       6.430   1.238   0.000  0.00  0.00    +0.002 C 
ATOM     20  C   UNL     1       7.145   1.650   0.000  0.00  0.00    +0.022 C 
ATOM     21  C   UNL     1       7.859   1.238   0.000  0.00  0.00    +0.095 C 
ATOM     32  C   UNL     1       7.859   0.412   0.000  0.00  0.00    +0.022 C 
ATOM     33  C   UNL     1       8.574   0.000   0.000  0.00  0.00    +0.002 C 
ATOM     34  C   UNL     1       7.145   0.000   0.000  0.00  0.00    +0.032 C 
ATOM     35  C   UNL     1       7.145  -0.825   0.000  0.00  0.00    +0.152 C 
ATOM     36  O   UNL     1       7.859  -1.238   0.000  0.00  0.00    -0.223 OA
ENDROOT
BRANCH  21  22
ATOM     22  N   UNL     1       8.574   1.650   0.000  0.00  0.00    -0.207 NA
ATOM     23  C   UNL     1       9.288   1.238   0.000  0.00  0.00    +0.246 C 
ATOM     24  O   UNL     1       9.288   0.412   0.000  0.00  0.00    -0.273 OA
BRANCH  23  25
ATOM     25  C   UNL     1      10.003   1.650   0.000  0.00  0.00    +0.113 C 
BRANCH  25  26
ATOM     26  C   UNL     1      10.003   2.475   0.000  0.00  0.00    -0.013 A 
ATOM     27  C   UNL     1       9.288   2.888   0.000  0.00  0.00    -0.004 A 
ATOM     28  C   UNL     1       9.288   3.712   0.000  0.00  0.00    -0.000 A 
ATOM     29  C   UNL     1      10.003   4.125   0.000  0.00  0.00    -0.000 A 
ATOM     30  C   UNL     1      10.717   3.712   0.000  0.00  0.00    -0.000 A 
ATOM     31  C   UNL     1      10.717   2.888   0.000  0.00  0.00    -0.004 A 
ENDBRANCH  25  26
ENDBRANCH  23  25
ENDBRANCH  21  22
BRANCH  14  12
ATOM     12  C   UNL     1       6.430  -2.062   0.000  0.00  0.00    +0.079 C 
ATOM     13  C   UNL     1       7.145  -2.475   0.000  0.00  0.00    +0.010 C 
BRANCH  12  10
ATOM      5  N   UNL     1       5.716  -3.300   0.000  0.00  0.00    -0.274 N 
ATOM     10  C   UNL     1       5.716  -2.475   0.000  0.00  0.00    +0.225 C 
ATOM     11  O   UNL     1       5.001  -2.062   0.000  0.00  0.00    -0.275 OA
BRANCH   5   4
ATOM      4  C   UNL     1       5.001  -3.712   0.000  0.00  0.00    +0.125 C 
BRANCH   4   3
ATOM      3  C   UNL     1       5.001  -4.537   0.000  0.00  0.00    +0.164 C 
BRANCH   3   2
ATOM      1  C   UNL     1       4.287  -5.775   0.000  0.00  0.00    +0.174 C 
ATOM      2  O   UNL     1       4.287  -4.950   0.000  0.00  0.00    -0.349 OA
ENDBRANCH   3   2
ENDBRANCH   4   3
ENDBRANCH   5   4
BRANCH   5   6
ATOM      6  C   UNL     1       6.430  -3.712   0.000  0.00  0.00    +0.125 C 
BRANCH   6   7
ATOM      7  C   UNL     1       6.430  -4.537   0.000  0.00  0.00    +0.164 C 
BRANCH   7   8
ATOM      8  O   UNL     1       7.145  -4.950   0.000  0.00  0.00    -0.349 OA
ATOM      9  C   UNL     1       7.145  -5.775   0.000  0.00  0.00    +0.174 C 
ENDBRANCH   7   8
ENDBRANCH   6   7
ENDBRANCH   5   6
ENDBRANCH  12  10
ENDBRANCH  14  12
TORSDOF 11
