REMARK  Name = 
REMARK  3 active torsions:
REMARK  status: ('A' for Active; 'I' for Inactive)
REMARK    1  A    between atoms: C_2  and  C_3
REMARK    2  A    between atoms: C_14  and  O_16
REMARK    3  A    between atoms: O_16  and  C_17
REMARK                            x       y       z     vdW  Elec       q    Type
REMARK                         _______ _______ _______ _____ _____    ______ ____
ROOT
ATOM      1  O   UNL     1      -0.401   0.258   0.000  0.00  0.00    -0.275 OA
ATOM      2  C   UNL     1      -1.115  -0.155   0.000  0.00  0.00    +0.225 C 
ATOM      9  N   UNL     1      -1.830   0.258   0.000  0.00  0.00    -0.273 N 
ATOM     10  C   UNL     1      -2.511  -0.207   0.000  0.00  0.00    +0.126 C 
ATOM     11  C   UNL     1      -3.300   0.036   0.000  0.00  0.00    +0.164 C 
ATOM     12  O   UNL     1      -3.601   0.804   0.000  0.00  0.00    -0.348 OA
ATOM     13  C   UNL     1      -3.189   1.518   0.000  0.00  0.00    +0.187 C 
ATOM     14  C   UNL     1      -2.373   1.641   0.000  0.00  0.00    +0.215 C 
ATOM     15  C   UNL     1      -1.768   1.080   0.000  0.00  0.00    +0.139 C 
ENDROOT
BRANCH   2   3
ATOM      3  C   UNL     1      -1.115  -0.980   0.000  0.00  0.00    +0.077 C 
ATOM      4  C   UNL     1      -0.401  -1.393   0.000  0.00  0.00    +0.009 C 
ATOM      5  C   UNL     1      -0.401  -2.217   0.000  0.00  0.00    +0.000 C 
ATOM      6  C   UNL     1      -1.115  -2.630   0.000  0.00  0.00    +0.000 C 
ATOM      7  C   UNL     1      -1.830  -2.217   0.000  0.00  0.00    +0.000 C 
ATOM      8  C   UNL     1      -1.830  -1.393   0.000  0.00  0.00    +0.009 C 
ENDBRANCH   2   3
BRANCH  14  16
ATOM     16  O   UNL     1      -2.130   2.430   0.000  0.00  0.00    -0.475 OA
BRANCH  16  17
ATOM     17  C   UNL     1      -1.325   2.613   0.000  0.00  0.00    +0.139 A 
ATOM     18  C   UNL     1      -1.082   3.402   0.000  0.00  0.00    +0.037 A 
ATOM     19  C   UNL     1      -0.278   3.585   0.000  0.00  0.00    +0.003 A 
ATOM     20  C   UNL     1       0.283   2.980   0.000  0.00  0.00    +0.000 A 
ATOM     21  C   UNL     1       0.040   2.192   0.000  0.00  0.00    +0.003 A 
ATOM     22  C   UNL     1      -0.764   2.009   0.000  0.00  0.00    +0.037 A 
ENDBRANCH  16  17
ENDBRANCH  14  16
TORSDOF 3
