REMARK  Name = 
REMARK  4 active torsions:
REMARK  status: ('A' for Active; 'I' for Inactive)
REMARK    1  A    between atoms: C_1  and  C_2
REMARK    2  A    between atoms: C_1  and  N_5
REMARK    3  A    between atoms: C_10  and  O_12
REMARK    4  A    between atoms: O_12  and  C_13
REMARK                            x       y       z     vdW  Elec       q    Type
REMARK                         _______ _______ _______ _____ _____    ______ ____
ROOT
ATOM      5  N   UNL     1      -1.496   0.012   0.000  0.00  0.00    -0.267 NA
ATOM      6  C   UNL     1      -2.178  -0.453   0.000  0.00  0.00    +0.105 C 
ATOM      7  C   UNL     1      -2.966  -0.210   0.000  0.00  0.00    +0.160 C 
ATOM      8  O   UNL     1      -3.268   0.558   0.000  0.00  0.00    -0.348 OA
ATOM      9  C   UNL     1      -2.855   1.272   0.000  0.00  0.00    +0.187 C 
ATOM     10  C   UNL     1      -2.040   1.395   0.000  0.00  0.00    +0.211 C 
ATOM     11  C   UNL     1      -1.435   0.834   0.000  0.00  0.00    +0.119 C 
ENDROOT
BRANCH   5   1
ATOM      1  C   UNL     1      -0.782  -0.401   0.000  0.00  0.00    +0.072 C 
BRANCH   1   2
ATOM      2  C   UNL     1      -0.782  -1.226   0.000  0.00  0.00    +0.016 C 
ATOM      3  C   UNL     1      -0.370  -1.940   0.000  0.00  0.00    +0.001 C 
ATOM      4  C   UNL     1      -1.195  -1.940   0.000  0.00  0.00    +0.001 C 
ENDBRANCH   1   2
ENDBRANCH   5   1
BRANCH  10  12
ATOM     12  O   UNL     1      -1.796   2.184   0.000  0.00  0.00    -0.475 OA
BRANCH  12  13
ATOM     13  C   UNL     1      -0.992   2.367   0.000  0.00  0.00    +0.139 A 
ATOM     14  C   UNL     1      -0.749   3.156   0.000  0.00  0.00    +0.037 A 
ATOM     15  C   UNL     1       0.055   3.339   0.000  0.00  0.00    +0.003 A 
ATOM     16  C   UNL     1       0.617   2.735   0.000  0.00  0.00    +0.000 A 
ATOM     17  C   UNL     1       0.373   1.946   0.000  0.00  0.00    +0.003 A 
ATOM     18  C   UNL     1      -0.431   1.762   0.000  0.00  0.00    +0.037 A 
ENDBRANCH  12  13
ENDBRANCH  10  12
TORSDOF 4
