REMARK  Name = 
REMARK  4 active torsions:
REMARK  status: ('A' for Active; 'I' for Inactive)
REMARK    1  A    between atoms: C_3  and  C_12
REMARK    2  A    between atoms: N_4  and  C_6
REMARK    3  A    between atoms: C_14  and  C_17
REMARK    4  A    between atoms: C_21  and  N_23
REMARK                            x       y       z     vdW  Elec       q    Type
REMARK                         _______ _______ _______ _____ _____    ______ ____
ROOT
ATOM     12  C   UNL     1       2.206  -4.803   0.000  0.00  0.00    +0.251 A 
ATOM     13  N   UNL     1       1.538  -5.287   0.000  0.00  0.00    -0.190 NA
ATOM     14  C   UNL     1       0.871  -4.803   0.000  0.00  0.00    +0.203 A 
ATOM     15  N   UNL     1       1.126  -4.018   0.000  0.00  0.00    -0.056 NA
ATOM     16  O   UNL     1       1.951  -4.018   0.000  0.00  0.00    -0.336 OA
ENDROOT
BRANCH  14  17
ATOM     17  C   UNL     1       0.086  -5.057   0.000  0.00  0.00    +0.043 A 
ATOM     18  C   UNL     1      -0.086  -5.864   0.000  0.00  0.00    +0.024 A 
ATOM     19  C   UNL     1      -0.870  -6.119   0.000  0.00  0.00    +0.100 A 
ATOM     20  N   UNL     1      -1.483  -5.567   0.000  0.00  0.00    -0.229 NA
ATOM     21  C   UNL     1      -1.312  -4.760   0.000  0.00  0.00    +0.132 A 
ATOM     22  C   UNL     1      -0.527  -4.505   0.000  0.00  0.00    +0.037 A 
BRANCH  21  23
ATOM     23  N   UNL     1      -1.925  -4.208   0.000  0.00  0.00    -0.288 N 
ATOM     24  C   UNL     1      -2.709  -4.463   0.000  0.00  0.00    +0.124 C 
ATOM     25  C   UNL     1      -3.322  -3.911   0.000  0.00  0.00    +0.164 C 
ATOM     26  O   UNL     1      -3.151  -3.104   0.000  0.00  0.00    -0.350 OA
ATOM     27  C   UNL     1      -2.366  -2.849   0.000  0.00  0.00    +0.164 C 
ATOM     28  C   UNL     1      -1.753  -3.401   0.000  0.00  0.00    +0.124 C 
ENDBRANCH  21  23
ENDBRANCH  14  17
BRANCH  12   3
ATOM      1  C   UNL     1       4.070  -5.842   0.000  0.00  0.00    +0.019 C 
ATOM      2  C   UNL     1       3.245  -5.842   0.000  0.00  0.00    +0.027 C 
ATOM      3  C   UNL     1       2.990  -5.057   0.000  0.00  0.00    +0.138 C 
ATOM      4  N   UNL     1       3.658  -4.572   0.000  0.00  0.00    -0.268 NA
ATOM      5  C   UNL     1       4.325  -5.057   0.000  0.00  0.00    +0.072 C 
BRANCH   4   6
ATOM      6  C   UNL     1       3.658  -3.748   0.000  0.00  0.00    +0.063 C 
ATOM      7  C   UNL     1       2.943  -3.335   0.000  0.00  0.00    +0.048 C 
ATOM      8  C   UNL     1       2.943  -2.510   0.000  0.00  0.00    +0.144 C 
ATOM      9  O   UNL     1       3.658  -2.098   0.000  0.00  0.00    -0.354 OA
ATOM     10  C   UNL     1       4.372  -2.510   0.000  0.00  0.00    +0.144 C 
ATOM     11  C   UNL     1       4.372  -3.335   0.000  0.00  0.00    +0.048 C 
ENDBRANCH   4   6
ENDBRANCH  12   3
TORSDOF 4
