REMARK  Name = 
REMARK  6 active torsions:
REMARK  status: ('A' for Active; 'I' for Inactive)
REMARK    1  A    between atoms: C_2  and  C_4
REMARK    2  A    between atoms: C_7  and  N_8
REMARK    3  A    between atoms: C_9  and  O_11
REMARK    4  A    between atoms: O_11  and  C_12
REMARK    5  A    between atoms: C_16  and  N_20
REMARK    6  A    between atoms: C_21  and  C_23
REMARK                            x       y       z     vdW  Elec       q    Type
REMARK                         _______ _______ _______ _____ _____    ______ ____
ROOT
ATOM     12  C   UNL     1       1.270  -0.922   0.000  0.00  0.00    +0.229 C 
ATOM     13  C   UNL     1       0.785  -0.255   0.000  0.00  0.00    +0.188 C 
ATOM     14  O   UNL     1       1.270   0.412   0.000  0.00  0.00    -0.348 OA
ATOM     15  C   UNL     1       2.054   0.158   0.000  0.00  0.00    +0.168 C 
ATOM     16  C   UNL     1       2.839   0.412   0.000  0.00  0.00    +0.155 C 
ATOM     17  C   UNL     1       3.324  -0.255   0.000  0.00  0.00    +0.166 C 
ATOM     18  O   UNL     1       2.839  -0.922   0.000  0.00  0.00    -0.348 OA
ATOM     19  C   UNL     1       2.054  -0.667   0.000  0.00  0.00    +0.186 C 
ENDROOT
BRANCH  16  20
ATOM     20  N   UNL     1       3.094   1.197   0.000  0.00  0.00    -0.198 NA
ATOM     21  C   UNL     1       2.542   1.810   0.000  0.00  0.00    +0.265 C 
ATOM     22  O   UNL     1       1.735   1.639   0.000  0.00  0.00    -0.268 OA
BRANCH  21  23
ATOM     23  C   UNL     1       2.797   2.595   0.000  0.00  0.00    +0.055 A 
ATOM     24  C   UNL     1       2.245   3.208   0.000  0.00  0.00    +0.004 A 
ATOM     25  C   UNL     1       2.499   3.993   0.000  0.00  0.00    -0.004 A 
ATOM     26  C   UNL     1       3.307   4.164   0.000  0.00  0.00    -0.022 A 
ATOM     27  C   UNL     1       3.562   4.949   0.000  0.00  0.00    +0.031 C 
ATOM     28  C   UNL     1       3.858   3.551   0.000  0.00  0.00    -0.004 A 
ATOM     29  C   UNL     1       3.604   2.766   0.000  0.00  0.00    +0.004 A 
ENDBRANCH  21  23
ENDBRANCH  16  20
BRANCH  12  11
ATOM     11  O   UNL     1       1.015  -1.707   0.000  0.00  0.00    -0.432 OA
BRANCH  11   9
ATOM      8  N   UNL     1      -0.047  -2.663   0.000  0.00  0.00    -0.142 NA
ATOM      9  C   UNL     1       0.208  -1.879   0.000  0.00  0.00    +0.425 C 
ATOM     10  O   UNL     1      -0.344  -1.265   0.000  0.00  0.00    -0.224 OA
BRANCH   8   7
ATOM      4  C   UNL     1      -2.468  -3.178   0.000  0.00  0.00    -0.022 A 
ATOM      5  C   UNL     1      -2.213  -2.393   0.000  0.00  0.00    -0.003 A 
ATOM      6  C   UNL     1      -1.406  -2.222   0.000  0.00  0.00    +0.016 A 
ATOM      7  C   UNL     1      -0.854  -2.835   0.000  0.00  0.00    +0.077 A 
ATOM     30  C   UNL     1      -1.109  -3.619   0.000  0.00  0.00    +0.016 A 
ATOM     31  C   UNL     1      -1.916  -3.791   0.000  0.00  0.00    -0.003 A 
BRANCH   4   2
ATOM      1  C   UNL     1      -3.530  -4.134   0.000  0.00  0.00    +0.005 C 
ATOM      2  C   UNL     1      -3.275  -3.349   0.000  0.00  0.00    +0.022 C 
ATOM      3  C   UNL     1      -3.827  -2.736   0.000  0.00  0.00    +0.005 C 
ENDBRANCH   4   2
ENDBRANCH   8   7
ENDBRANCH  11   9
ENDBRANCH  12  11
TORSDOF 6
