REMARK  Name = 
REMARK  7 active torsions:
REMARK  status: ('A' for Active; 'I' for Inactive)
REMARK    1  A    between atoms: C_2  and  O_5
REMARK    2  A    between atoms: O_5  and  C_6
REMARK    3  A    between atoms: C_8  and  C_9
REMARK    4  A    between atoms: C_9  and  N_10
REMARK    5  A    between atoms: C_15  and  C_16
REMARK    6  A    between atoms: N_18  and  C_19
REMARK    7  A    between atoms: C_19  and  C_20
REMARK                            x       y       z     vdW  Elec       q    Type
REMARK                         _______ _______ _______ _____ _____    ______ ____
ROOT
ATOM     10  N   UNL     1       2.070   1.110   0.000  0.00  0.00    -0.257 NA
ATOM     11  C   UNL     1       1.356   0.698   0.000  0.00  0.00    +0.121 C 
ATOM     12  C   UNL     1       0.641   1.110   0.000  0.00  0.00    +0.090 A 
ATOM     13  C   UNL     1       0.641   1.935   0.000  0.00  0.00    +0.077 A 
ATOM     14  C   UNL     1       1.356   2.348   0.000  0.00  0.00    +0.072 C 
ATOM     15  C   UNL     1       2.070   1.935   0.000  0.00  0.00    +0.143 C 
ATOM     26  N   UNL     1      -0.143   2.190   0.000  0.00  0.00    -0.227 NA
ATOM     27  C   UNL     1      -0.628   1.523   0.000  0.00  0.00    +0.198 A 
ATOM     28  N   UNL     1      -0.143   0.856   0.000  0.00  0.00    -0.226 NA
ENDROOT
BRANCH  15  16
ATOM     16  C   UNL     1       2.784   2.348   0.000  0.00  0.00    +0.257 C 
ATOM     17  O   UNL     1       2.784   3.173   0.000  0.00  0.00    -0.272 OA
ATOM     18  N   UNL     1       3.499   1.935   0.000  0.00  0.00    -0.199 NA
BRANCH  18  19
ATOM     19  C   UNL     1       4.213   2.348   0.000  0.00  0.00    +0.142 C 
BRANCH  19  20
ATOM     20  C   UNL     1       4.213   3.173   0.000  0.00  0.00    -0.001 A 
ATOM     21  C   UNL     1       3.499   3.585   0.000  0.00  0.00    -0.003 A 
ATOM     22  C   UNL     1       3.499   4.410   0.000  0.00  0.00    -0.000 A 
ATOM     23  C   UNL     1       4.213   4.823   0.000  0.00  0.00    -0.000 A 
ATOM     24  C   UNL     1       4.928   4.410   0.000  0.00  0.00    -0.000 A 
ATOM     25  C   UNL     1       4.928   3.585   0.000  0.00  0.00    -0.003 A 
ENDBRANCH  19  20
ENDBRANCH  18  19
ENDBRANCH  15  16
BRANCH  10   9
ATOM      9  C   UNL     1       2.784   0.698   0.000  0.00  0.00    +0.100 C 
BRANCH   9   8
ATOM      6  C   UNL     1       2.070  -1.365   0.000  0.00  0.00    +0.147 A 
ATOM      7  C   UNL     1       2.070  -0.540   0.000  0.00  0.00    +0.034 A 
ATOM      8  C   UNL     1       2.784  -0.127   0.000  0.00  0.00    -0.003 A 
ATOM     29  C   UNL     1       3.499  -0.540   0.000  0.00  0.00    -0.003 A 
ATOM     30  C   UNL     1       3.499  -1.365   0.000  0.00  0.00    +0.003 A 
ATOM     31  C   UNL     1       2.784  -1.777   0.000  0.00  0.00    +0.037 A 
BRANCH   6   5
ATOM      5  O   UNL     1       1.356  -1.777   0.000  0.00  0.00    -0.404 OA
BRANCH   5   2
ATOM      1  F   UNL     1       1.356  -3.427   0.000  0.00  0.00    -0.133 F 
ATOM      2  C   UNL     1       1.356  -2.602   0.000  0.00  0.00    +0.575 C 
ATOM      3  F   UNL     1       2.181  -2.602   0.000  0.00  0.00    -0.133 F 
ATOM      4  F   UNL     1       0.531  -2.602   0.000  0.00  0.00    -0.133 F 
ENDBRANCH   5   2
ENDBRANCH   6   5
ENDBRANCH   9   8
ENDBRANCH  10   9
TORSDOF 7
