7674781
  -OEChem-12032416413D

 54 59  0     1  0  0  0  0  0999 V2000
    3.8879    1.9429   -2.1283 O   0  0  0  0  0  0  0  0  0  0  0  0
    3.6560   -2.3465    0.5342 O   0  0  0  0  0  0  0  0  0  0  0  0
    2.3714    1.6177   -0.3732 N   0  0  0  0  0  0  0  0  0  0  0  0
    2.1835   -0.8569    1.5731 N   0  0  0  0  0  0  0  0  0  0  0  0
    1.1980   -2.0070   -1.2716 N   0  0  0  0  0  0  0  0  0  0  0  0
   -0.2300   -4.2054   -0.2745 N   0  0  0  0  0  0  0  0  0  0  0  0
    3.1715    1.3670    2.0526 C   0  0  2  0  0  0  0  0  0  0  0  0
    0.7759    1.1923    1.5209 C   0  0  2  0  0  0  0  0  0  0  0  0
    1.7945    1.9064    2.4086 C   0  0  0  0  0  0  0  0  0  0  0  0
    3.4715    1.7272    0.5967 C   0  0  0  0  0  0  0  0  0  0  0  0
    3.2386   -0.1500    2.2958 C   0  0  0  0  0  0  0  0  0  0  0  0
    0.8295   -0.3275    1.7917 C   0  0  0  0  0  0  0  0  0  0  0  0
    1.0294    1.4687    0.0346 C   0  0  0  0  0  0  0  0  0  0  0  0
    0.0303    1.5385   -0.8859 C   0  0  0  0  0  0  0  0  0  0  0  0
    2.7357    1.7959   -1.7196 C   0  0  0  0  0  0  0  0  0  0  0  0
    2.5217   -1.9058    0.7148 C   0  0  0  0  0  0  0  0  0  0  0  0
    0.3722    1.7166   -2.2857 C   0  0  0  0  0  0  0  0  0  0  0  0
    1.6325    1.8235   -2.7052 C   0  0  0  0  0  0  0  0  0  0  0  0
   -1.3465    1.4206   -0.4880 C   0  0  0  0  0  0  0  0  0  0  0  0
    1.4509   -2.5395   -0.0637 C   0  0  0  0  0  0  0  0  0  0  0  0
   -1.9457    0.1653   -0.4327 C   0  0  0  0  0  0  0  0  0  0  0  0
   -2.0688    2.5605   -0.1606 C   0  0  0  0  0  0  0  0  0  0  0  0
   -3.2894    0.0339   -0.0457 C   0  0  0  0  0  0  0  0  0  0  0  0
   -3.4045    2.4487    0.2264 C   0  0  0  0  0  0  0  0  0  0  0  0
   -4.0297    1.1926    0.2890 C   0  0  0  0  0  0  0  0  0  0  0  0
    0.7557   -3.6156    0.4305 C   0  0  0  0  0  0  0  0  0  0  0  0
   -3.9142   -1.2222    0.0172 C   0  0  0  0  0  0  0  0  0  0  0  0
   -5.3733    1.0612    0.6760 C   0  0  0  0  0  0  0  0  0  0  0  0
    0.2125   -2.5971   -1.9767 C   0  0  0  0  0  0  0  0  0  0  0  0
   -5.2501   -1.3343    0.4038 C   0  0  0  0  0  0  0  0  0  0  0  0
   -5.9782   -0.1948    0.7324 C   0  0  0  0  0  0  0  0  0  0  0  0
   -0.4890   -3.6767   -1.4870 C   0  0  0  0  0  0  0  0  0  0  0  0
    3.9284    1.8391    2.6910 H   0  0  0  0  0  0  0  0  0  0  0  0
   -0.2121    1.5571    1.8222 H   0  0  0  0  0  0  0  0  0  0  0  0
    1.7503    2.9919    2.2553 H   0  0  0  0  0  0  0  0  0  0  0  0
    1.5745    1.7226    3.4673 H   0  0  0  0  0  0  0  0  0  0  0  0
    3.7921    2.7777    0.5574 H   0  0  0  0  0  0  0  0  0  0  0  0
    4.3235    1.1414    0.2284 H   0  0  0  0  0  0  0  0  0  0  0  0
    4.2256   -0.5347    2.0179 H   0  0  0  0  0  0  0  0  0  0  0  0
    3.0964   -0.3656    3.3618 H   0  0  0  0  0  0  0  0  0  0  0  0
    0.5802   -0.5261    2.8416 H   0  0  0  0  0  0  0  0  0  0  0  0
    0.0943   -0.8628    1.1913 H   0  0  0  0  0  0  0  0  0  0  0  0
   -0.4361    1.7476   -3.0106 H   0  0  0  0  0  0  0  0  0  0  0  0
    1.8762    1.9492   -3.7534 H   0  0  0  0  0  0  0  0  0  0  0  0
   -1.3788   -0.7219   -0.6949 H   0  0  0  0  0  0  0  0  0  0  0  0
   -1.6114    3.5464   -0.1992 H   0  0  0  0  0  0  0  0  0  0  0  0
   -3.9543    3.3529    0.4795 H   0  0  0  0  0  0  0  0  0  0  0  0
    0.9582   -4.0444    1.4047 H   0  0  0  0  0  0  0  0  0  0  0  0
   -3.3642   -2.1266   -0.2348 H   0  0  0  0  0  0  0  0  0  0  0  0
   -5.9617    1.9383    0.9375 H   0  0  0  0  0  0  0  0  0  0  0  0
    0.0025   -2.1709   -2.9499 H   0  0  0  0  0  0  0  0  0  0  0  0
   -5.7215   -2.3118    0.4483 H   0  0  0  0  0  0  0  0  0  0  0  0
   -7.0181   -0.2827    1.0333 H   0  0  0  0  0  0  0  0  0  0  0  0
   -1.2821   -4.1488   -2.0535 H   0  0  0  0  0  0  0  0  0  0  0  0
  1 15  2  0  0  0  0
  2 16  2  0  0  0  0
  3 10  1  0  0  0  0
  3 13  1  0  0  0  0
  3 15  1  0  0  0  0
  4 11  1  0  0  0  0
  4 12  1  0  0  0  0
  4 16  1  0  0  0  0
  5 20  2  0  0  0  0
  5 29  1  0  0  0  0
  6 26  2  0  0  0  0
  6 32  1  0  0  0  0
  7  9  1  0  0  0  0
  7 10  1  0  0  0  0
  7 11  1  0  0  0  0
  7 33  1  0  0  0  0
  8  9  1  0  0  0  0
  8 12  1  0  0  0  0
  8 13  1  0  0  0  0
  8 34  1  0  0  0  0
  9 35  1  0  0  0  0
  9 36  1  0  0  0  0
 10 37  1  0  0  0  0
 10 38  1  0  0  0  0
 11 39  1  0  0  0  0
 11 40  1  0  0  0  0
 12 41  1  0  0  0  0
 12 42  1  0  0  0  0
 13 14  2  0  0  0  0
 14 17  1  0  0  0  0
 14 19  1  0  0  0  0
 15 18  1  0  0  0  0
 16 20  1  0  0  0  0
 17 18  2  0  0  0  0
 17 43  1  0  0  0  0
 18 44  1  0  0  0  0
 19 21  2  0  0  0  0
 19 22  1  0  0  0  0
 20 26  1  0  0  0  0
 21 23  1  0  0  0  0
 21 45  1  0  0  0  0
 22 24  2  0  0  0  0
 22 46  1  0  0  0  0
 23 25  1  0  0  0  0
 23 27  2  0  0  0  0
 24 25  1  0  0  0  0
 24 47  1  0  0  0  0
 25 28  2  0  0  0  0
 26 48  1  0  0  0  0
 27 30  1  0  0  0  0
 27 49  1  0  0  0  0
 28 31  1  0  0  0  0
 28 50  1  0  0  0  0
 29 32  2  0  0  0  0
 29 51  1  0  0  0  0
 30 31  2  0  0  0  0
 30 52  1  0  0  0  0
 31 53  1  0  0  0  0
 32 54  1  0  0  0  0
M  END
> <PUBCHEM_COMPOUND_CID>
7674781

> <PUBCHEM_CONFORMER_RMSD>
0.8

> <PUBCHEM_CONFORMER_DIVERSEORDER>
1
6
7
4
8
2
3
5

> <PUBCHEM_MMFF94_PARTIAL_CHARGES>
40
1 -0.57
10 0.3
11 0.3
12 0.3
13 -0.03
14 -0.03
15 0.62
16 0.54
17 -0.15
18 -0.14
19 0.03
2 -0.57
20 0.4
21 -0.15
22 -0.15
24 -0.15
26 0.16
27 -0.15
28 -0.15
29 0.16
3 -0.47
30 -0.15
31 -0.15
32 0.16
4 -0.66
43 0.15
44 0.15
45 0.15
46 0.15
47 0.15
48 0.15
49 0.15
5 -0.62
50 0.15
51 0.15
52 0.15
53 0.15
54 0.15
6 -0.62
8 0.14

> <PUBCHEM_EFFECTIVE_ROTOR_COUNT>
4

> <PUBCHEM_PHARMACOPHORE_FEATURES>
10
1 1 acceptor
1 2 acceptor
1 5 acceptor
1 6 acceptor
6 19 21 22 23 24 25 rings
6 23 25 27 28 30 31 rings
6 3 13 14 15 17 18 rings
6 3 7 8 9 10 13 rings
6 4 7 8 9 11 12 rings
6 5 6 20 26 29 32 rings

> <PUBCHEM_HEAVY_ATOM_COUNT>
32

> <PUBCHEM_ATOM_DEF_STEREO_COUNT>
2

> <PUBCHEM_ATOM_UDEF_STEREO_COUNT>
0

> <PUBCHEM_BOND_DEF_STEREO_COUNT>
0

> <PUBCHEM_BOND_UDEF_STEREO_COUNT>
0

> <PUBCHEM_ISOTOPIC_ATOM_COUNT>
0

> <PUBCHEM_COMPONENT_COUNT>
1

> <PUBCHEM_CACTVS_TAUTO_COUNT>
1

> <PUBCHEM_CONFORMER_ID>
00751B9D00000001

> <PUBCHEM_MMFF94_ENERGY>
103.7419

> <PUBCHEM_FEATURE_SELFOVERLAP>
52.364

> <PUBCHEM_SHAPE_FINGERPRINT>
10064457 181 18270947046832787120
11421498 54 18126595377668463025
11513181 2 17917141814143949606
12156800 1 17981330306867165940
12422481 6 18192401170529312986
12788726 201 17183632528887004526
13583140 156 17987495071049163281
14863182 85 18408606971898045641
14955137 171 17844810287307659654
15324884 4 17612830905090751464
15338160 23 17192884872375871504
17492 54 17678487223846255718
17974551 9 16622341236169826897
1813 80 17458903743525065577
18681886 176 18190192362758700380
19301679 30 18261971687204684017
1979834 28 18412547617909998067
20600515 1 17189266993598461015
20764821 26 18042986426771286027
20775530 9 17690281504472926183
21304303 282 16236763922900105740
21421861 104 18190762872513243469
21860390 5 17240488047557650756
22956985 138 18263078817097692459
23559900 14 18265620884044060061
3052486 1 17979353393271128687
3493558 16 12403362820731269875
35225 105 17558251378977330326
513532 50 16988567921874139983
563151 248 18116144649275945720
57527585 103 16324275616859880342
6287921 2 18410291363687848627

> <PUBCHEM_SHAPE_MULTIPOLES>
626.88
8.57
4.33
2.33
12.93
4.78
-0.48
-2.01
2.99
-1.39
-1.33
-2.79
-0.96
-0.68

> <PUBCHEM_SHAPE_SELFOVERLAP>
1412.706

> <PUBCHEM_SHAPE_VOLUME>
323.1

> <PUBCHEM_COORDINATE_TYPE>
2
5
10

$$$$
