40777542
  -OEChem-12032416253D

 54 57  0     1  0  0  0  0  0999 V2000
    3.2704    0.9355   -1.2034 O   0  0  0  0  0  0  0  0  0  0  0  0
    2.2643   -0.4771    0.3415 N   0  0  0  0  0  0  0  0  0  0  0  0
   -4.4718   -0.3717   -0.0998 N   0  0  0  0  0  0  0  0  0  0  0  0
   -4.5235   -1.6720   -0.4356 N   0  0  0  0  0  0  0  0  0  0  0  0
    4.3283   -1.0170   -0.5314 N   0  0  0  0  0  0  0  0  0  0  0  0
   -5.4932    1.7219   -0.4300 N   0  0  0  0  0  0  0  0  0  0  0  0
   -0.9350   -1.1294    0.4807 C   0  0  2  0  0  0  0  0  0  0  0  0
   -0.0867   -0.1560   -0.3636 C   0  0  0  0  0  0  0  0  0  0  0  0
    1.0654    0.2918    0.5443 C   0  0  1  0  0  0  0  0  0  0  0  0
   -2.4140   -1.0485    0.1798 C   0  0  0  0  0  0  0  0  0  0  0  0
   -0.5582   -0.7514    1.8838 C   0  0  0  0  0  0  0  0  0  0  0  0
    0.5340    0.0195    1.9130 C   0  0  0  0  0  0  0  0  0  0  0  0
   -3.2307    0.0515    0.2761 C   0  0  0  0  0  0  0  0  0  0  0  0
   -3.2635   -2.0800   -0.2629 C   0  0  0  0  0  0  0  0  0  0  0  0
   -2.9370    1.4402    0.6849 C   0  0  0  0  0  0  0  0  0  0  0  0
   -2.9127   -3.4846   -0.5381 C   0  0  0  0  0  0  0  0  0  0  0  0
    3.2872   -0.0921   -0.5274 C   0  0  0  0  0  0  0  0  0  0  0  0
   -5.6297    0.4047   -0.1580 C   0  0  0  0  0  0  0  0  0  0  0  0
   -6.8464   -0.2194    0.0649 C   0  0  0  0  0  0  0  0  0  0  0  0
    5.5116   -0.8597   -1.3439 C   0  0  0  0  0  0  0  0  0  0  0  0
    6.5917   -0.1056   -0.6235 C   0  0  0  0  0  0  0  0  0  0  0  0
   -7.9973    0.5585    0.0045 C   0  0  0  0  0  0  0  0  0  0  0  0
   -6.6338    2.4458   -0.4805 C   0  0  0  0  0  0  0  0  0  0  0  0
   -7.8976    1.9173   -0.2730 C   0  0  0  0  0  0  0  0  0  0  0  0
    6.6568    1.2842   -0.7231 C   0  0  0  0  0  0  0  0  0  0  0  0
    7.5297   -0.7944    0.1452 C   0  0  0  0  0  0  0  0  0  0  0  0
    7.6602    1.9852   -0.0539 C   0  0  0  0  0  0  0  0  0  0  0  0
    8.5330   -0.0936    0.8144 C   0  0  0  0  0  0  0  0  0  0  0  0
    8.5983    1.2962    0.7148 C   0  0  0  0  0  0  0  0  0  0  0  0
   -0.5862   -2.1558    0.3073 H   0  0  0  0  0  0  0  0  0  0  0  0
    0.2647   -0.6396   -1.2834 H   0  0  0  0  0  0  0  0  0  0  0  0
   -0.6590    0.7236   -0.6813 H   0  0  0  0  0  0  0  0  0  0  0  0
    1.2779    1.3559    0.3980 H   0  0  0  0  0  0  0  0  0  0  0  0
   -1.0830   -1.0898    2.7662 H   0  0  0  0  0  0  0  0  0  0  0  0
    0.9904    0.3878    2.8210 H   0  0  0  0  0  0  0  0  0  0  0  0
    2.3588   -1.3706    0.8164 H   0  0  0  0  0  0  0  0  0  0  0  0
   -2.9213    2.1089   -0.1818 H   0  0  0  0  0  0  0  0  0  0  0  0
   -3.6667    1.8095    1.4133 H   0  0  0  0  0  0  0  0  0  0  0  0
   -1.9632    1.5312    1.1713 H   0  0  0  0  0  0  0  0  0  0  0  0
   -2.5213   -3.9665    0.3637 H   0  0  0  0  0  0  0  0  0  0  0  0
   -3.7790   -4.0632   -0.8761 H   0  0  0  0  0  0  0  0  0  0  0  0
   -2.1476   -3.5435   -1.3190 H   0  0  0  0  0  0  0  0  0  0  0  0
    4.2658   -1.8256    0.0795 H   0  0  0  0  0  0  0  0  0  0  0  0
   -6.9390   -1.2759    0.2949 H   0  0  0  0  0  0  0  0  0  0  0  0
    5.2492   -0.3505   -2.2789 H   0  0  0  0  0  0  0  0  0  0  0  0
    5.8594   -1.8628   -1.6159 H   0  0  0  0  0  0  0  0  0  0  0  0
   -8.9702    0.1076    0.1763 H   0  0  0  0  0  0  0  0  0  0  0  0
   -6.5016    3.5002   -0.6998 H   0  0  0  0  0  0  0  0  0  0  0  0
   -8.7812    2.5431   -0.3242 H   0  0  0  0  0  0  0  0  0  0  0  0
    5.9354    1.8342   -1.3210 H   0  0  0  0  0  0  0  0  0  0  0  0
    7.4886   -1.8769    0.2322 H   0  0  0  0  0  0  0  0  0  0  0  0
    7.7115    3.0672   -0.1320 H   0  0  0  0  0  0  0  0  0  0  0  0
    9.2633   -0.6298    1.4134 H   0  0  0  0  0  0  0  0  0  0  0  0
    9.3796    1.8419    1.2358 H   0  0  0  0  0  0  0  0  0  0  0  0
  1 17  2  0  0  0  0
  2  9  1  0  0  0  0
  2 17  1  0  0  0  0
  2 36  1  0  0  0  0
  3  4  1  0  0  0  0
  3 13  1  0  0  0  0
  3 18  1  0  0  0  0
  4 14  2  0  0  0  0
  5 17  1  0  0  0  0
  5 20  1  0  0  0  0
  5 43  1  0  0  0  0
  6 18  1  0  0  0  0
  6 23  2  0  0  0  0
  7  8  1  0  0  0  0
  7 10  1  0  0  0  0
  7 11  1  0  0  0  0
  7 30  1  0  0  0  0
  8  9  1  0  0  0  0
  8 31  1  0  0  0  0
  8 32  1  0  0  0  0
  9 12  1  0  0  0  0
  9 33  1  0  0  0  0
 10 13  2  0  0  0  0
 10 14  1  0  0  0  0
 11 12  2  0  0  0  0
 11 34  1  0  0  0  0
 12 35  1  0  0  0  0
 13 15  1  0  0  0  0
 14 16  1  0  0  0  0
 15 37  1  0  0  0  0
 15 38  1  0  0  0  0
 15 39  1  0  0  0  0
 16 40  1  0  0  0  0
 16 41  1  0  0  0  0
 16 42  1  0  0  0  0
 18 19  2  0  0  0  0
 19 22  1  0  0  0  0
 19 44  1  0  0  0  0
 20 21  1  0  0  0  0
 20 45  1  0  0  0  0
 20 46  1  0  0  0  0
 21 25  2  0  0  0  0
 21 26  1  0  0  0  0
 22 24  2  0  0  0  0
 22 47  1  0  0  0  0
 23 24  1  0  0  0  0
 23 48  1  0  0  0  0
 24 49  1  0  0  0  0
 25 27  1  0  0  0  0
 25 50  1  0  0  0  0
 26 28  2  0  0  0  0
 26 51  1  0  0  0  0
 27 29  2  0  0  0  0
 27 52  1  0  0  0  0
 28 29  1  0  0  0  0
 28 53  1  0  0  0  0
 29 54  1  0  0  0  0
M  END
> <PUBCHEM_COMPOUND_CID>
40777542

> <PUBCHEM_CONFORMER_RMSD>
1

> <PUBCHEM_CONFORMER_DIVERSEORDER>
1
148
160
18
38
104
100
135
103
48
182
184
152
15
173
22
109
172
121
69
186
112
183
144
31
37
32
123
178
190
99
91
92
177
169
193
131
142
95
138
56
34
127
137
179
156
139
134
119
81
150
188
111
161
163
154
46
113
165
19
162
57
116
164
3
79
159
117
126
155
76
132
40
130
187
101
11
98
67
176
53
25
17
74
108
59
192
180
71
110
42
120
153
170
87
13
181
133
33
49
62
28
89
54
39
84
140
10
24
83
80
175
166
43
102
167
61
21
70
60
58
88
158
143
125
35
141
86
118
82
2
30
136
185
7
97
191
168
129
16
171
47
106
94
72
68
8
9
20
64
23
29
93
12
66
157
85
36
45
75
145
96
50
124
27
128
55
65
26
90
63
174
5
151
77
44
114
51
6
105
41
4
146
122
78
107
147
52
115
149
73
189
14

> <PUBCHEM_MMFF94_PARTIAL_CHARGES>
41
1 -0.57
10 -0.18
11 -0.29
12 -0.29
13 -0.33
14 0.11
15 0.18
16 0.18
17 0.69
18 0.29
19 -0.15
2 -0.73
20 0.44
21 -0.14
22 -0.15
23 0.16
24 -0.15
25 -0.15
26 -0.15
27 -0.15
28 -0.15
29 -0.15
3 0.59
34 0.15
35 0.15
36 0.37
4 -0.71
43 0.37
44 0.15
47 0.15
48 0.15
49 0.15
5 -0.73
50 0.15
51 0.15
52 0.15
53 0.15
54 0.15
6 -0.62
7 0.32
9 0.44

> <PUBCHEM_EFFECTIVE_ROTOR_COUNT>
7.6

> <PUBCHEM_PHARMACOPHORE_FEATURES>
9
1 1 acceptor
1 2 donor
1 4 acceptor
1 5 donor
1 6 acceptor
5 3 4 10 13 14 rings
5 7 8 9 11 12 rings
6 21 25 26 27 28 29 rings
6 6 18 19 22 23 24 rings

> <PUBCHEM_HEAVY_ATOM_COUNT>
29

> <PUBCHEM_ATOM_DEF_STEREO_COUNT>
2

> <PUBCHEM_ATOM_UDEF_STEREO_COUNT>
0

> <PUBCHEM_BOND_DEF_STEREO_COUNT>
0

> <PUBCHEM_BOND_UDEF_STEREO_COUNT>
0

> <PUBCHEM_ISOTOPIC_ATOM_COUNT>
0

> <PUBCHEM_COMPONENT_COUNT>
1

> <PUBCHEM_CACTVS_TAUTO_COUNT>
3

> <PUBCHEM_CONFORMER_ID>
026E374600000001

> <PUBCHEM_MMFF94_ENERGY>
64.0938

> <PUBCHEM_FEATURE_SELFOVERLAP>
45.722

> <PUBCHEM_SHAPE_FINGERPRINT>
10076449 9 15985101912635633297
10165383 225 18343021065690778979
10369192 42 18337390449301435365
10429389 143 18271804670978648128
10670039 82 18339076000537832905
10835480 77 18130791161806123486
10883706 142 17676206874741186970
10904742 90 18040997324131155435
11135609 99 11023524927235020017
11135926 11 16588015823180612147
11315181 36 17275108349155067987
11719270 70 17989207041314305398
12082328 90 18408882962523682055
125118 31 18334017216226140684
12758862 11 18202845461045005794
13540713 4 17487320776422345955
13740195 50 18186808011187872019
13914758 101 18333732425233711152
14344974 52 18411976976018406477
14429380 56 16056872555798184384
1454969 45 13686299080384693620
150020 25 17918278671350217516
15183329 4 18201442449811366635
15301273 46 9583520906228744136
15461852 350 17489583502252608367
1577012 14 18114174216684662307
15979999 66 17346591993364769408
1818759 1 12391508711511618757
20505436 4 18040991822521006635
20511986 3 18342453755945060870
21095086 128 10663825174670874324
21150785 3 16128655245710951488
21223535 225 17967243187477051677
21756936 100 17822292401346190403
21792965 131 14707484862999724025
22224240 67 14562538383871967657
23389318 12 14117793640050694920
23559900 14 18060414759142660554
23576562 1 16844995940135575405
249057 3 18413389851910975557
3009799 131 17632578244961554066
328311 84 11891328747570076794
335352 9 18272928333027622501
3633792 109 18201444636429910778
4073 2 18187369887067796258
4093350 32 17531522088746309346
4098825 35 18411980290598716748
4339292 15 18129378362949594823
4403749 210 17631162169055067070
4625314 4 18272653481038149558
4874694 18 18130785651616966334
5028188 123 10951781802518129490
5265222 85 18413669115212130903
5385378 56 16515678914993030866
57035037 87 18412261779442219416
5758199 1 17167863054075005177
5969126 39 14836126524800283283
59755656 520 16660365904570298107
6523845 18 15719388464572510833
9896288 288 8141822590040901431
99344 41 18410572894926727038

> <PUBCHEM_SHAPE_MULTIPOLES>
566.03
28.44
2.29
1.14
26.98
0.7
-0.36
-14.48
2.81
-3.12
0.48
0.91
0.07
0.38

> <PUBCHEM_SHAPE_SELFOVERLAP>
1226.021

> <PUBCHEM_SHAPE_VOLUME>
311

> <PUBCHEM_COORDINATE_TYPE>
2
5
10

$$$$
