11911959
  -OEChem-12032416233D

 50 55  0     1  0  0  0  0  0999 V2000
   -2.8522   -1.1103   -0.3674 S   0  0  0  0  0  0  0  0  0  0  0  0
    4.0043   -3.3049    0.0479 S   0  0  0  0  0  0  0  0  0  0  0  0
   -0.7876    1.7743   -1.4842 O   0  0  0  0  0  0  0  0  0  0  0  0
    3.2581   -1.0428   -2.4411 O   0  0  0  0  0  0  0  0  0  0  0  0
    3.7932    0.1567   -0.5315 N   0  0  0  0  0  0  0  0  0  0  0  0
    1.0740    1.6905   -0.0801 N   0  0  0  0  0  0  0  0  0  0  0  0
    3.3675    2.5945   -0.7791 C   0  0  2  0  0  0  0  0  0  0  0  0
    3.0906    1.5217    1.4195 C   0  0  2  0  0  0  0  0  0  0  0  0
    3.5929    2.7823    0.7174 C   0  0  0  0  0  0  0  0  0  0  0  0
    1.8599    2.4802   -1.0397 C   0  0  0  0  0  0  0  0  0  0  0  0
    4.1394    1.3623   -1.2869 C   0  0  0  0  0  0  0  0  0  0  0  0
    3.8981    0.3009    0.9311 C   0  0  0  0  0  0  0  0  0  0  0  0
    1.6158    1.2952    1.1465 C   0  0  0  0  0  0  0  0  0  0  0  0
    0.8477    0.6751    2.0569 C   0  0  0  0  0  0  0  0  0  0  0  0
   -0.2703    1.4371   -0.4180 C   0  0  0  0  0  0  0  0  0  0  0  0
    3.3225   -0.9817   -1.2124 C   0  0  0  0  0  0  0  0  0  0  0  0
   -1.0920    0.7115    0.6110 C   0  0  0  0  0  0  0  0  0  0  0  0
   -0.5297    0.3798    1.7820 C   0  0  0  0  0  0  0  0  0  0  0  0
    2.8736   -2.1037   -0.3996 C   0  0  0  0  0  0  0  0  0  0  0  0
   -2.4587    0.3872    0.3543 C   0  0  0  0  0  0  0  0  0  0  0  0
   -3.5870    1.1375    0.6124 C   0  0  0  0  0  0  0  0  0  0  0  0
    1.6158   -2.3597    0.0890 C   0  0  0  0  0  0  0  0  0  0  0  0
   -4.8021    0.4841    0.2161 C   0  0  0  0  0  0  0  0  0  0  0  0
   -4.5426   -0.7710   -0.3429 C   0  0  0  0  0  0  0  0  0  0  0  0
    1.5767   -3.5658    0.8466 C   0  0  0  0  0  0  0  0  0  0  0  0
    2.8080   -4.1806    0.9045 C   0  0  0  0  0  0  0  0  0  0  0  0
   -6.1492    0.9105    0.3077 C   0  0  0  0  0  0  0  0  0  0  0  0
   -5.5828   -1.6001   -0.8065 C   0  0  0  0  0  0  0  0  0  0  0  0
   -7.1834    0.0906   -0.1514 C   0  0  0  0  0  0  0  0  0  0  0  0
   -6.9008   -1.1512   -0.7023 C   0  0  0  0  0  0  0  0  0  0  0  0
    3.7466    3.4698   -1.3207 H   0  0  0  0  0  0  0  0  0  0  0  0
    3.2567    1.6399    2.4981 H   0  0  0  0  0  0  0  0  0  0  0  0
    3.0592    3.6694    1.0807 H   0  0  0  0  0  0  0  0  0  0  0  0
    4.6579    2.9394    0.9273 H   0  0  0  0  0  0  0  0  0  0  0  0
    1.6745    2.0917   -2.0490 H   0  0  0  0  0  0  0  0  0  0  0  0
    1.4226    3.4878   -1.0191 H   0  0  0  0  0  0  0  0  0  0  0  0
    3.9579    1.2199   -2.3571 H   0  0  0  0  0  0  0  0  0  0  0  0
    5.2177    1.5185   -1.1604 H   0  0  0  0  0  0  0  0  0  0  0  0
    4.9620    0.4374    1.1611 H   0  0  0  0  0  0  0  0  0  0  0  0
    3.5743   -0.6005    1.4557 H   0  0  0  0  0  0  0  0  0  0  0  0
    1.2498    0.3435    3.0086 H   0  0  0  0  0  0  0  0  0  0  0  0
   -1.0840   -0.1402    2.5579 H   0  0  0  0  0  0  0  0  0  0  0  0
   -3.5530    2.1204    1.0681 H   0  0  0  0  0  0  0  0  0  0  0  0
    0.7583   -1.7278   -0.0964 H   0  0  0  0  0  0  0  0  0  0  0  0
    0.6895   -3.9635    1.3218 H   0  0  0  0  0  0  0  0  0  0  0  0
    3.0620   -5.1026    1.4083 H   0  0  0  0  0  0  0  0  0  0  0  0
   -6.3863    1.8810    0.7369 H   0  0  0  0  0  0  0  0  0  0  0  0
   -5.3710   -2.5738   -1.2392 H   0  0  0  0  0  0  0  0  0  0  0  0
   -8.2129    0.4291   -0.0756 H   0  0  0  0  0  0  0  0  0  0  0  0
   -7.7116   -1.7819   -1.0567 H   0  0  0  0  0  0  0  0  0  0  0  0
  1 20  1  0  0  0  0
  1 24  1  0  0  0  0
  2 19  1  0  0  0  0
  2 26  1  0  0  0  0
  3 15  2  0  0  0  0
  4 16  2  0  0  0  0
  5 11  1  0  0  0  0
  5 12  1  0  0  0  0
  5 16  1  0  0  0  0
  6 10  1  0  0  0  0
  6 13  1  0  0  0  0
  6 15  1  0  0  0  0
  7  9  1  0  0  0  0
  7 10  1  0  0  0  0
  7 11  1  0  0  0  0
  7 31  1  0  0  0  0
  8  9  1  0  0  0  0
  8 12  1  0  0  0  0
  8 13  1  0  0  0  0
  8 32  1  0  0  0  0
  9 33  1  0  0  0  0
  9 34  1  0  0  0  0
 10 35  1  0  0  0  0
 10 36  1  0  0  0  0
 11 37  1  0  0  0  0
 11 38  1  0  0  0  0
 12 39  1  0  0  0  0
 12 40  1  0  0  0  0
 13 14  2  0  0  0  0
 14 18  1  0  0  0  0
 14 41  1  0  0  0  0
 15 17  1  0  0  0  0
 16 19  1  0  0  0  0
 17 18  2  0  0  0  0
 17 20  1  0  0  0  0
 18 42  1  0  0  0  0
 19 22  2  0  0  0  0
 20 21  2  0  0  0  0
 21 23  1  0  0  0  0
 21 43  1  0  0  0  0
 22 25  1  0  0  0  0
 22 44  1  0  0  0  0
 23 24  1  0  0  0  0
 23 27  2  0  0  0  0
 24 28  2  0  0  0  0
 25 26  2  0  0  0  0
 25 45  1  0  0  0  0
 26 46  1  0  0  0  0
 27 29  1  0  0  0  0
 27 47  1  0  0  0  0
 28 30  1  0  0  0  0
 28 48  1  0  0  0  0
 29 30  2  0  0  0  0
 29 49  1  0  0  0  0
 30 50  1  0  0  0  0
M  END
> <PUBCHEM_COMPOUND_CID>
11911959

> <PUBCHEM_CONFORMER_RMSD>
0.8

> <PUBCHEM_CONFORMER_DIVERSEORDER>
1
19
18
3
16
14
17
4
15
13
9
2
20
11
10
12
7
8
6
5

> <PUBCHEM_MMFF94_PARTIAL_CHARGES>
37
1 -0.08
10 0.3
11 0.3
12 0.3
13 -0.03
14 -0.15
15 0.62
16 0.71
17 0.06
18 -0.15
19 -0.05
2 -0.08
20 -0.01
21 -0.15
22 -0.15
24 0.04
25 -0.15
26 -0.11
27 -0.15
28 -0.15
29 -0.15
3 -0.57
30 -0.15
4 -0.57
41 0.15
42 0.15
43 0.15
44 0.15
45 0.15
46 0.15
47 0.15
48 0.15
49 0.15
5 -0.66
50 0.15
6 -0.47
8 0.14

> <PUBCHEM_EFFECTIVE_ROTOR_COUNT>
4

> <PUBCHEM_PHARMACOPHORE_FEATURES>
8
1 3 acceptor
1 4 acceptor
5 1 20 21 23 24 rings
5 2 19 22 25 26 rings
6 23 24 27 28 29 30 rings
6 5 7 8 9 11 12 rings
6 6 13 14 15 17 18 rings
6 6 7 8 9 10 13 rings

> <PUBCHEM_HEAVY_ATOM_COUNT>
30

> <PUBCHEM_ATOM_DEF_STEREO_COUNT>
2

> <PUBCHEM_ATOM_UDEF_STEREO_COUNT>
0

> <PUBCHEM_BOND_DEF_STEREO_COUNT>
0

> <PUBCHEM_BOND_UDEF_STEREO_COUNT>
0

> <PUBCHEM_ISOTOPIC_ATOM_COUNT>
0

> <PUBCHEM_COMPONENT_COUNT>
1

> <PUBCHEM_CACTVS_TAUTO_COUNT>
1

> <PUBCHEM_CONFORMER_ID>
00B5C31700000001

> <PUBCHEM_MMFF94_ENERGY>
76.9941

> <PUBCHEM_FEATURE_SELFOVERLAP>
42.252

> <PUBCHEM_SHAPE_FINGERPRINT>
10675989 125 18201441444721247120
11135609 149 18043791126825710479
11186622 123 18129371765193831063
11796584 16 17846785113607457485
11963148 33 18124864923362511455
12107183 9 17909836436204307729
12236239 1 18260821657760401097
12788726 201 17489316248155136433
13150687 139 17897185692060461436
13533116 47 18342738516328724593
1361 2 18334860575160188844
13617811 41 18261107509313847045
13782708 43 16701732870098523271
14068700 675 18048036264681814434
14347332 77 18339358562030207401
15001296 14 18272645792567213679
15183329 4 17847068783623971961
15250474 111 18271798039169393335
15324115 91 18334019393104464654
15324884 4 17609248936683603416
15664445 248 18335704987279583876
15799311 1 18338528520935033035
16993427 108 17389929077397959730
17093844 170 18337389465105226802
17138139 8 17700968001179394399
17492 54 18262822717219601398
17818456 19 17842848724351902889
19026451 147 18269838623327901874
19315092 285 18201433640791264314
19319366 153 18342450495331848630
19958102 18 18337098013589323063
20511986 3 17988352763169585373
20691752 17 18113625555681038483
20775438 99 18335129930024845651
20775530 9 18048028571967995790
21033650 10 16227171384443510757
21285901 2 17676200265039901717
21641784 216 15719669858430225213
22224240 67 18270954756811221608
23522609 53 17986980543105501385
23559900 14 18261118477763365923
23569914 152 17251422459701514935
238 59 18263380165156425138
239999 70 18060142050447388846
25222932 49 17058636581493178197
27425 322 16951408912858963040
3004659 81 18131637759472859583
338550 245 18339920549473111303
3411729 13 18060411456471000240
34797466 226 16226062089196686711
4073 2 18338518668258755587
4112364 45 14202252702699547748
4340502 62 17916859239992616528
44280117 145 17330840116005270342
444735 86 17914598691505084207
460360 51 17971177145955988529
46194498 28 17894911840929558029
463206 1 18270958050307286827
5104073 3 18131077026645788083
513532 50 17989487433457765686
59682541 52 18334006169495954079
70251023 43 18117559518017600802

> <PUBCHEM_SHAPE_MULTIPOLES>
603.38
13.78
3.93
1.54
28.92
3.46
-0.03
2.48
-2.77
-6.52
0.32
-1.36
-0.28
-0.83

> <PUBCHEM_SHAPE_SELFOVERLAP>
1328.472

> <PUBCHEM_SHAPE_VOLUME>
325.4

> <PUBCHEM_COORDINATE_TYPE>
2
5
10

$$$$
