56775701
  -OEChem-12032416323D

 43 46  0     0  0  0  0  0  0999 V2000
   -1.6623    2.5721   -0.7121 F   0  0  0  0  0  0  0  0  0  0  0  0
   -2.2111   -3.8311    1.0621 O   0  0  0  0  0  0  0  0  0  0  0  0
    2.9895   -1.7156   -0.0499 O   0  0  0  0  0  0  0  0  0  0  0  0
   -1.7617   -0.9059    0.4029 N   0  0  0  0  0  0  0  0  0  0  0  0
    1.8946   -2.5116   -0.3640 N   0  0  0  0  0  0  0  0  0  0  0  0
    4.8689   -0.0115    0.4547 N   0  0  0  0  0  0  0  0  0  0  0  0
   -1.3448   -2.2328   -0.0566 C   0  0  0  0  0  0  0  0  0  0  0  0
   -2.5747   -3.1292   -0.1486 C   0  0  0  0  0  0  0  0  0  0  0  0
   -0.9791   -3.0803    1.1565 C   0  0  0  0  0  0  0  0  0  0  0  0
   -0.3990   -2.1781   -1.2170 C   0  0  0  0  0  0  0  0  0  0  0  0
   -2.3436   -0.1697   -0.7204 C   0  0  0  0  0  0  0  0  0  0  0  0
    0.9558   -1.6582   -0.7830 C   0  0  0  0  0  0  0  0  0  0  0  0
   -3.2857    0.8967   -0.2732 C   0  0  0  0  0  0  0  0  0  0  0  0
    1.3967   -0.3239   -0.7552 C   0  0  0  0  0  0  0  0  0  0  0  0
    2.6808   -0.4150   -0.2870 C   0  0  0  0  0  0  0  0  0  0  0  0
   -2.8895    2.2339   -0.2925 C   0  0  0  0  0  0  0  0  0  0  0  0
   -4.5652    0.5547    0.1648 C   0  0  0  0  0  0  0  0  0  0  0  0
    3.7213    0.5320   -0.0094 C   0  0  0  0  0  0  0  0  0  0  0  0
   -3.7726    3.2291    0.1261 C   0  0  0  0  0  0  0  0  0  0  0  0
   -5.4483    1.5499    0.5836 C   0  0  0  0  0  0  0  0  0  0  0  0
   -5.0521    2.8872    0.5642 C   0  0  0  0  0  0  0  0  0  0  0  0
    3.5324    1.8896   -0.2123 C   0  0  0  0  0  0  0  0  0  0  0  0
    4.5895    2.7443    0.0796 C   0  0  0  0  0  0  0  0  0  0  0  0
    5.8740    0.8504    0.7275 C   0  0  0  0  0  0  0  0  0  0  0  0
    5.7861    2.2228    0.5589 C   0  0  0  0  0  0  0  0  0  0  0  0
   -2.5939   -3.8175   -1.0006 H   0  0  0  0  0  0  0  0  0  0  0  0
   -3.5638   -2.6709   -0.0509 H   0  0  0  0  0  0  0  0  0  0  0  0
   -0.8935   -2.5704    2.1221 H   0  0  0  0  0  0  0  0  0  0  0  0
   -0.1253   -3.7554    1.0417 H   0  0  0  0  0  0  0  0  0  0  0  0
   -0.7642   -1.6062   -2.0764 H   0  0  0  0  0  0  0  0  0  0  0  0
   -0.2462   -3.1923   -1.6138 H   0  0  0  0  0  0  0  0  0  0  0  0
   -1.0277   -0.3477    0.8370 H   0  0  0  0  0  0  0  0  0  0  0  0
   -2.9064   -0.8199   -1.4043 H   0  0  0  0  0  0  0  0  0  0  0  0
   -1.5532    0.2829   -1.3301 H   0  0  0  0  0  0  0  0  0  0  0  0
    0.8586    0.5688   -1.0378 H   0  0  0  0  0  0  0  0  0  0  0  0
   -4.8876   -0.4828    0.1841 H   0  0  0  0  0  0  0  0  0  0  0  0
   -3.4638    4.2701    0.1109 H   0  0  0  0  0  0  0  0  0  0  0  0
   -6.4445    1.2837    0.9244 H   0  0  0  0  0  0  0  0  0  0  0  0
   -5.7396    3.6622    0.8901 H   0  0  0  0  0  0  0  0  0  0  0  0
    2.6001    2.2999   -0.5860 H   0  0  0  0  0  0  0  0  0  0  0  0
    4.4813    3.8150   -0.0659 H   0  0  0  0  0  0  0  0  0  0  0  0
    6.7856    0.3937    1.0986 H   0  0  0  0  0  0  0  0  0  0  0  0
    6.6233    2.8702    0.7931 H   0  0  0  0  0  0  0  0  0  0  0  0
  1 16  1  0  0  0  0
  2  8  1  0  0  0  0
  2  9  1  0  0  0  0
  3  5  1  0  0  0  0
  3 15  1  0  0  0  0
  4  7  1  0  0  0  0
  4 11  1  0  0  0  0
  4 32  1  0  0  0  0
  5 12  2  0  0  0  0
  6 18  1  0  0  0  0
  6 24  2  0  0  0  0
  7  8  1  0  0  0  0
  7  9  1  0  0  0  0
  7 10  1  0  0  0  0
  8 26  1  0  0  0  0
  8 27  1  0  0  0  0
  9 28  1  0  0  0  0
  9 29  1  0  0  0  0
 10 12  1  0  0  0  0
 10 30  1  0  0  0  0
 10 31  1  0  0  0  0
 11 13  1  0  0  0  0
 11 33  1  0  0  0  0
 11 34  1  0  0  0  0
 12 14  1  0  0  0  0
 13 16  1  0  0  0  0
 13 17  2  0  0  0  0
 14 15  2  0  0  0  0
 14 35  1  0  0  0  0
 15 18  1  0  0  0  0
 16 19  2  0  0  0  0
 17 20  1  0  0  0  0
 17 36  1  0  0  0  0
 18 22  2  0  0  0  0
 19 21  1  0  0  0  0
 19 37  1  0  0  0  0
 20 21  2  0  0  0  0
 20 38  1  0  0  0  0
 21 39  1  0  0  0  0
 22 23  1  0  0  0  0
 22 40  1  0  0  0  0
 23 25  2  0  0  0  0
 23 41  1  0  0  0  0
 24 25  1  0  0  0  0
 24 42  1  0  0  0  0
 25 43  1  0  0  0  0
M  END
> <PUBCHEM_COMPOUND_CID>
56775701

> <PUBCHEM_CONFORMER_RMSD>
1.2

> <PUBCHEM_CONFORMER_DIVERSEORDER>
1
32
36
68
21
55
53
74
47
77
33
41
80
60
16
38
43
78
73
61
69
48
59
20
51
28
76
67
37
25
52
12
8
26
65
10
7
46
79
40
30
71
35
31
75
45
34
23
24
72
56
49
44
27
18
6
22
19
57
13
11
54
50
15
42
62
64
58
14
63
29
3
5
39
66
70
9
17
2
4

> <PUBCHEM_MMFF94_PARTIAL_CHARGES>
35
1 -0.19
10 0.18
11 0.41
12 0.11
13 -0.14
14 -0.15
15 0.09
16 0.19
17 -0.15
18 0.36
19 -0.15
2 -0.52
20 -0.15
21 -0.15
22 -0.15
23 -0.15
24 0.16
25 -0.15
3 -0.02
32 0.36
35 0.15
36 0.15
37 0.15
38 0.15
39 0.15
4 -0.84
40 0.15
41 0.15
42 0.15
43 0.15
5 -0.41
6 -0.62
7 0.21
8 0.26
9 0.26

> <PUBCHEM_EFFECTIVE_ROTOR_COUNT>
6.8

> <PUBCHEM_PHARMACOPHORE_FEATURES>
9
1 2 acceptor
1 4 cation
1 4 donor
1 5 acceptor
1 6 acceptor
4 2 7 8 9 rings
5 3 5 12 14 15 rings
6 13 16 17 19 20 21 rings
6 6 18 22 23 24 25 rings

> <PUBCHEM_HEAVY_ATOM_COUNT>
25

> <PUBCHEM_ATOM_DEF_STEREO_COUNT>
0

> <PUBCHEM_ATOM_UDEF_STEREO_COUNT>
0

> <PUBCHEM_BOND_DEF_STEREO_COUNT>
0

> <PUBCHEM_BOND_UDEF_STEREO_COUNT>
0

> <PUBCHEM_ISOTOPIC_ATOM_COUNT>
0

> <PUBCHEM_COMPONENT_COUNT>
1

> <PUBCHEM_CACTVS_TAUTO_COUNT>
1

> <PUBCHEM_CONFORMER_ID>
0362541500000001

> <PUBCHEM_MMFF94_ENERGY>
58.6528

> <PUBCHEM_FEATURE_SELFOVERLAP>
45.672

> <PUBCHEM_SHAPE_FINGERPRINT>
10074138 170 18114471166481580971
10493431 412 18410577266965732637
10670039 82 18118977025599398268
12107183 9 18263350418461048154
12293681 160 18045756118089477735
12390115 104 18269286814608661092
12403259 118 18267293417418265016
12633257 1 18188193343755988240
12788726 201 17755321276340984063
12930653 34 18337392750782296566
13402501 40 18413388722124073752
13965767 371 17896316926442477070
14178342 30 18187369882298029694
14251764 38 18266458887771523172
14251764 75 18057332682549449073
14565420 104 18193565471965563305
14787075 74 18272647931666304229
14790565 3 18268433430366869289
14849402 71 18121505648254448554
15142526 21 18265338305265788723
15338160 23 18265335199651531908
19246450 95 17539373593990484360
20715895 44 18341611456522587160
21302155 148 18337118976629044332
21401589 2 18412549799457764497
23227448 37 18412545435475702797
23559900 14 18270963441140362670
23845131 108 18189056404855543067
2838139 119 18343858909823619772
3117164 225 18262506010673868426
3246875 12 18411984650940231121
5081480 168 17342698550150253452
5104073 3 18261395520503016011
5171179 24 17342363417794133937
5969126 39 18055907947365854807
633830 44 18126843799019215399
6700243 42 17408280252465687622
7288768 16 18260830393095834779
7808743 9 18411976979179035760
9981440 41 18412542132482906642

> <PUBCHEM_SHAPE_MULTIPOLES>
480.53
12.78
4.82
0.93
9.13
1.42
-0.02
-13.53
-3.1
-3.83
-0.73
-0.12
0.38
0.52

> <PUBCHEM_SHAPE_SELFOVERLAP>
1050.167

> <PUBCHEM_SHAPE_VOLUME>
262

> <PUBCHEM_COORDINATE_TYPE>
2
5
10

$$$$
