7663613
  -OEChem-12032416233D

 56 58  0     1  0  0  0  0  0999 V2000
   -6.1080    0.6855   -2.0664 F   0  0  0  0  0  0  0  0  0  0  0  0
    5.3079    0.8154   -1.0375 F   0  0  0  0  0  0  0  0  0  0  0  0
    0.0253    0.7043   -1.0041 O   0  0  0  0  0  0  0  0  0  0  0  0
   -2.6397    0.5853    2.1190 O   0  0  0  0  0  0  0  0  0  0  0  0
    1.9244   -3.3895   -1.7447 O   0  0  0  0  0  0  0  0  0  0  0  0
    1.1931    5.0366   -0.6430 O   0  0  0  0  0  0  0  0  0  0  0  0
   -0.4215    3.9730    0.6007 O   0  0  0  0  0  0  0  0  0  0  0  0
   -1.4607   -0.7957    0.6400 N   0  0  0  0  0  0  0  0  0  0  0  0
    0.8540   -2.3454    0.0518 N   0  0  0  0  0  0  0  0  0  0  0  0
    1.0709    1.6873    0.8287 N   0  0  0  0  0  0  0  0  0  0  0  0
   -0.1502   -0.3527    1.1314 C   0  0  1  0  0  0  0  0  0  0  0  0
    0.8783   -1.4792    1.2361 C   0  0  0  0  0  0  0  0  0  0  0  0
   -1.4586   -1.7400   -0.4918 C   0  0  0  0  0  0  0  0  0  0  0  0
   -0.4652   -2.8742   -0.2770 C   0  0  0  0  0  0  0  0  0  0  0  0
    0.3061    0.7253    0.1913 C   0  0  0  0  0  0  0  0  0  0  0  0
   -2.6138   -0.2046    1.1758 C   0  0  0  0  0  0  0  0  0  0  0  0
    1.9519   -2.6709   -0.7468 C   0  0  0  0  0  0  0  0  0  0  0  0
   -3.9115   -0.5288    0.5673 C   0  0  0  0  0  0  0  0  0  0  0  0
    1.6502    2.8193    0.1422 C   0  0  2  0  0  0  0  0  0  0  0  0
    3.2621   -2.1200   -0.3792 C   0  0  0  0  0  0  0  0  0  0  0  0
    2.9437    3.2434    0.8201 C   0  0  0  0  0  0  0  0  0  0  0  0
   -4.4036    0.2480   -0.4816 C   0  0  0  0  0  0  0  0  0  0  0  0
   -4.6512   -1.6133    1.0388 C   0  0  0  0  0  0  0  0  0  0  0  0
    3.6707   -0.8895   -0.8935 C   0  0  0  0  0  0  0  0  0  0  0  0
    4.0984   -2.8272    0.4846 C   0  0  0  0  0  0  0  0  0  0  0  0
    0.6831    3.9914    0.0667 C   0  0  0  0  0  0  0  0  0  0  0  0
   -5.6353   -0.0600   -1.0591 C   0  0  0  0  0  0  0  0  0  0  0  0
   -5.8830   -1.9212    0.4614 C   0  0  0  0  0  0  0  0  0  0  0  0
    4.9156   -0.3663   -0.5439 C   0  0  0  0  0  0  0  0  0  0  0  0
    5.3432   -2.3041    0.8341 C   0  0  0  0  0  0  0  0  0  0  0  0
   -6.3750   -1.1446   -0.5876 C   0  0  0  0  0  0  0  0  0  0  0  0
    5.7518   -1.0736    0.3199 C   0  0  0  0  0  0  0  0  0  0  0  0
    0.3469    6.1860   -0.7535 C   0  0  0  0  0  0  0  0  0  0  0  0
   -0.2802    0.0868    2.1280 H   0  0  0  0  0  0  0  0  0  0  0  0
    0.6278   -2.1240    2.0877 H   0  0  0  0  0  0  0  0  0  0  0  0
    1.8755   -1.0745    1.4235 H   0  0  0  0  0  0  0  0  0  0  0  0
   -2.4506   -2.1743   -0.6371 H   0  0  0  0  0  0  0  0  0  0  0  0
   -1.2282   -1.1926   -1.4099 H   0  0  0  0  0  0  0  0  0  0  0  0
   -0.4238   -3.5090   -1.1675 H   0  0  0  0  0  0  0  0  0  0  0  0
   -0.7805   -3.5039    0.5637 H   0  0  0  0  0  0  0  0  0  0  0  0
    1.1947    1.6333    1.8357 H   0  0  0  0  0  0  0  0  0  0  0  0
    1.8585    2.5104   -0.8894 H   0  0  0  0  0  0  0  0  0  0  0  0
    2.7567    3.6074    1.8370 H   0  0  0  0  0  0  0  0  0  0  0  0
    3.6412    2.4019    0.8917 H   0  0  0  0  0  0  0  0  0  0  0  0
    3.4418    4.0469    0.2676 H   0  0  0  0  0  0  0  0  0  0  0  0
   -3.8349    1.0947   -0.8571 H   0  0  0  0  0  0  0  0  0  0  0  0
   -4.2766   -2.2253    1.8552 H   0  0  0  0  0  0  0  0  0  0  0  0
    3.0270   -0.3292   -1.5664 H   0  0  0  0  0  0  0  0  0  0  0  0
    3.7894   -3.7867    0.8914 H   0  0  0  0  0  0  0  0  0  0  0  0
   -6.4588   -2.7658    0.8282 H   0  0  0  0  0  0  0  0  0  0  0  0
    5.9942   -2.8546    1.5069 H   0  0  0  0  0  0  0  0  0  0  0  0
   -7.3339   -1.3842   -1.0376 H   0  0  0  0  0  0  0  0  0  0  0  0
    6.7207   -0.6657    0.5920 H   0  0  0  0  0  0  0  0  0  0  0  0
   -0.5820    5.9241   -1.2689 H   0  0  0  0  0  0  0  0  0  0  0  0
    0.1369    6.5980    0.2381 H   0  0  0  0  0  0  0  0  0  0  0  0
    0.8744    6.9409   -1.3426 H   0  0  0  0  0  0  0  0  0  0  0  0
  1 27  1  0  0  0  0
  2 29  1  0  0  0  0
  3 15  2  0  0  0  0
  4 16  2  0  0  0  0
  5 17  2  0  0  0  0
  6 26  1  0  0  0  0
  6 33  1  0  0  0  0
  7 26  2  0  0  0  0
  8 11  1  0  0  0  0
  8 13  1  0  0  0  0
  8 16  1  0  0  0  0
  9 12  1  0  0  0  0
  9 14  1  0  0  0  0
  9 17  1  0  0  0  0
 10 15  1  0  0  0  0
 10 19  1  0  0  0  0
 10 41  1  0  0  0  0
 11 12  1  0  0  0  0
 11 15  1  0  0  0  0
 11 34  1  0  0  0  0
 12 35  1  0  0  0  0
 12 36  1  0  0  0  0
 13 14  1  0  0  0  0
 13 37  1  0  0  0  0
 13 38  1  0  0  0  0
 14 39  1  0  0  0  0
 14 40  1  0  0  0  0
 16 18  1  0  0  0  0
 17 20  1  0  0  0  0
 18 22  2  0  0  0  0
 18 23  1  0  0  0  0
 19 21  1  0  0  0  0
 19 26  1  0  0  0  0
 19 42  1  0  0  0  0
 20 24  2  0  0  0  0
 20 25  1  0  0  0  0
 21 43  1  0  0  0  0
 21 44  1  0  0  0  0
 21 45  1  0  0  0  0
 22 27  1  0  0  0  0
 22 46  1  0  0  0  0
 23 28  2  0  0  0  0
 23 47  1  0  0  0  0
 24 29  1  0  0  0  0
 24 48  1  0  0  0  0
 25 30  2  0  0  0  0
 25 49  1  0  0  0  0
 27 31  2  0  0  0  0
 28 31  1  0  0  0  0
 28 50  1  0  0  0  0
 29 32  2  0  0  0  0
 30 32  1  0  0  0  0
 30 51  1  0  0  0  0
 31 52  1  0  0  0  0
 32 53  1  0  0  0  0
 33 54  1  0  0  0  0
 33 55  1  0  0  0  0
 33 56  1  0  0  0  0
M  END
> <PUBCHEM_COMPOUND_CID>
7663613

> <PUBCHEM_CONFORMER_RMSD>
1.4

> <PUBCHEM_CONFORMER_DIVERSEORDER>
1
60
72
65
64
45
74
59
9
94
80
37
120
91
49
122
40
119
89
131
44
104
124
95
97
51
86
109
33
36
92
38
118
115
41
99
39
101
98
71
31
103
114
93
58
8
67
110
22
4
57
129
121
77
111
108
112
116
130
50
54
42
102
30
23
5
52
75
85
34
127
96
125
90
28
53
76
113
15
128
48
17
87
82
61
46
66
18
6
47
81
73
24
105
20
84
27
26
11
12
35
16
14
25
107
55
56
126
43
88
7
117
13
83
32
2
62
21
63
19
100
79
69
3
78
29
106
70
68
123
10

> <PUBCHEM_MMFF94_PARTIAL_CHARGES>
41
1 -0.19
10 -0.73
11 0.36
12 0.3
13 0.3
14 0.3
15 0.57
16 0.54
17 0.54
18 0.09
19 0.36
2 -0.19
20 0.09
22 -0.15
23 -0.15
24 -0.15
25 -0.15
26 0.66
27 0.19
28 -0.15
29 0.19
3 -0.57
30 -0.15
31 -0.15
32 -0.15
33 0.28
4 -0.57
41 0.37
46 0.15
47 0.15
48 0.15
49 0.15
5 -0.57
50 0.15
51 0.15
52 0.15
53 0.15
6 -0.43
7 -0.57
8 -0.66
9 -0.66

> <PUBCHEM_EFFECTIVE_ROTOR_COUNT>
10.2

> <PUBCHEM_PHARMACOPHORE_FEATURES>
8
1 10 donor
1 3 acceptor
1 4 acceptor
1 5 acceptor
1 7 acceptor
6 18 22 23 27 28 31 rings
6 20 24 25 29 30 32 rings
6 8 9 11 12 13 14 rings

> <PUBCHEM_HEAVY_ATOM_COUNT>
33

> <PUBCHEM_ATOM_DEF_STEREO_COUNT>
2

> <PUBCHEM_ATOM_UDEF_STEREO_COUNT>
0

> <PUBCHEM_BOND_DEF_STEREO_COUNT>
0

> <PUBCHEM_BOND_UDEF_STEREO_COUNT>
0

> <PUBCHEM_ISOTOPIC_ATOM_COUNT>
0

> <PUBCHEM_COMPONENT_COUNT>
1

> <PUBCHEM_CACTVS_TAUTO_COUNT>
2

> <PUBCHEM_CONFORMER_ID>
0074EFFD00000001

> <PUBCHEM_MMFF94_ENERGY>
90.8408

> <PUBCHEM_FEATURE_SELFOVERLAP>
40.598

> <PUBCHEM_SHAPE_FINGERPRINT>
10290309 65 17474119073056285201
10930396 42 18194090042318042554
12788726 201 18263095327367819534
12838862 33 18340758352281097344
13911987 19 18335154076298796102
14068700 675 18059565880811600697
14725015 67 18337660924777268986
14849402 71 18337964497039100145
15439362 3 18193836170199940897
15927050 60 17765998677145359166
17492 54 18337966661776639054
17980427 23 18059586745826034683
18681886 176 18341040891761195627
18785283 64 18267312112831064907
2132832 1 18060145331866155265
21641784 216 18268164079802740812
21814621 53 15719400503323650392
23559900 14 18337103562465607675
23576562 1 18339917238280238511
24771293 8 18201999941367750704
24771750 20 18048047555390622125
25019877 29 16845287225002233462
3493558 16 17676780768324345228
4066623 53 18115291277143031061
4353968 344 18196381312997865334
5265222 85 17397838255083182892
6004065 56 18340199794960595527
6669772 16 18124596650191309788
9981440 41 17329991807442300448

> <PUBCHEM_SHAPE_MULTIPOLES>
620.29
12.86
6.14
1.35
10.7
12.67
0.02
-8.81
2.25
-5.26
1.15
0.78
-0.14
0.51

> <PUBCHEM_SHAPE_SELFOVERLAP>
1322.307

> <PUBCHEM_SHAPE_VOLUME>
343.5

> <PUBCHEM_COORDINATE_TYPE>
2
5
10

$$$$
