11882466
  -OEChem-12032416123D

 65 68  0     1  0  0  0  0  0999 V2000
   -6.1414    1.6647    0.9490 S   0  0  0  0  0  0  0  0  0  0  0  0
    4.7233   -4.8825    0.1285 S   0  0  0  0  0  0  0  0  0  0  0  0
    0.8231   -0.5146   -1.4226 O   0  0  0  0  0  0  0  0  0  0  0  0
    2.6446    1.3273    1.7295 O   0  0  0  0  0  0  0  0  0  0  0  0
   -3.9478   -1.0298   -0.7930 O   0  0  0  0  0  0  0  0  0  0  0  0
   -1.0569   -3.8529   -0.3395 O   0  0  0  0  0  0  0  0  0  0  0  0
    0.8109    1.5236    0.3193 N   0  0  0  0  0  0  0  0  0  0  0  0
   -3.4190    1.0215    0.0954 N   0  0  0  0  0  0  0  0  0  0  0  0
    0.8841   -2.0306    0.3430 N   0  0  0  0  0  0  0  0  0  0  0  0
    3.4999    3.1716   -0.8049 N   0  0  0  0  0  0  0  0  0  0  0  0
    3.9117    4.4078   -1.1340 N   0  0  0  0  0  0  0  0  0  0  0  0
    0.1675   -4.3545   -2.2173 N   0  0  0  0  0  0  0  0  0  0  0  0
   -7.9726    0.0175    0.4898 N   0  0  0  0  0  0  0  0  0  0  0  0
   -7.7490    1.2022    1.0357 N   0  0  0  0  0  0  0  0  0  0  0  0
   -2.0076    0.9275   -0.1939 C   0  0  2  0  0  0  0  0  0  0  0  0
    0.2552    0.2417    0.7709 C   0  0  1  0  0  0  0  0  0  0  0  0
   -1.2606    0.2588    0.9626 C   0  0  0  0  0  0  0  0  0  0  0  0
   -1.4169    2.3089   -0.4648 C   0  0  0  0  0  0  0  0  0  0  0  0
    0.0784    2.2255   -0.7492 C   0  0  0  0  0  0  0  0  0  0  0  0
    0.6890   -0.7867   -0.2324 C   0  0  0  0  0  0  0  0  0  0  0  0
    2.0604    1.9404    0.8339 C   0  0  0  0  0  0  0  0  0  0  0  0
    2.6578    3.1433    0.2639 C   0  0  0  0  0  0  0  0  0  0  0  0
    1.2822   -3.1969   -0.4116 C   0  0  1  0  0  0  0  0  0  0  0  0
   -4.3149    0.0057   -0.2347 C   0  0  0  0  0  0  0  0  0  0  0  0
    2.0675   -4.2013    0.4405 C   0  0  0  0  0  0  0  0  0  0  0  0
    2.5051    4.4443    0.6653 C   0  0  0  0  0  0  0  0  0  0  0  0
   -5.7136    0.2343    0.1543 C   0  0  0  0  0  0  0  0  0  0  0  0
    0.0101   -3.8370   -0.9487 C   0  0  0  0  0  0  0  0  0  0  0  0
    3.3006    5.1810   -0.2324 C   0  0  0  0  0  0  0  0  0  0  0  0
    3.5125   -3.7981    0.6171 C   0  0  0  0  0  0  0  0  0  0  0  0
    3.9654    2.0432   -1.5773 C   0  0  0  0  0  0  0  0  0  0  0  0
   -6.8075   -0.5372   -0.0153 C   0  0  0  0  0  0  0  0  0  0  0  0
    3.5044    6.6391   -0.2614 C   0  0  0  0  0  0  0  0  0  0  0  0
    3.9882   -2.6367    1.1366 C   0  0  0  0  0  0  0  0  0  0  0  0
   -6.8890   -1.8637   -0.6592 C   0  0  0  0  0  0  0  0  0  0  0  0
    5.4130   -2.6236    1.1390 C   0  0  0  0  0  0  0  0  0  0  0  0
    5.9419   -3.7839    0.6178 C   0  0  0  0  0  0  0  0  0  0  0  0
   -1.8874    0.3140   -1.0957 H   0  0  0  0  0  0  0  0  0  0  0  0
    0.7091   -0.0131    1.7366 H   0  0  0  0  0  0  0  0  0  0  0  0
   -1.6395   -0.7600    1.1132 H   0  0  0  0  0  0  0  0  0  0  0  0
   -1.4854    0.8073    1.8881 H   0  0  0  0  0  0  0  0  0  0  0  0
   -1.9276    2.7794   -1.3136 H   0  0  0  0  0  0  0  0  0  0  0  0
   -1.5855    2.9616    0.4022 H   0  0  0  0  0  0  0  0  0  0  0  0
    0.2629    1.7209   -1.7015 H   0  0  0  0  0  0  0  0  0  0  0  0
    0.4556    3.2433   -0.8721 H   0  0  0  0  0  0  0  0  0  0  0  0
   -3.7557    1.8336    0.6049 H   0  0  0  0  0  0  0  0  0  0  0  0
    0.6634   -2.1578    1.3267 H   0  0  0  0  0  0  0  0  0  0  0  0
    1.8899   -2.8591   -1.2613 H   0  0  0  0  0  0  0  0  0  0  0  0
    2.0087   -5.1954   -0.0224 H   0  0  0  0  0  0  0  0  0  0  0  0
    1.6090   -4.3050    1.4332 H   0  0  0  0  0  0  0  0  0  0  0  0
    1.9049    4.8085    1.4870 H   0  0  0  0  0  0  0  0  0  0  0  0
    4.1515    1.2010   -0.9063 H   0  0  0  0  0  0  0  0  0  0  0  0
    4.8938    2.3131   -2.0876 H   0  0  0  0  0  0  0  0  0  0  0  0
    3.1919    1.7901   -2.3064 H   0  0  0  0  0  0  0  0  0  0  0  0
    4.5629    6.8847   -0.1275 H   0  0  0  0  0  0  0  0  0  0  0  0
    2.9418    7.1361    0.5355 H   0  0  0  0  0  0  0  0  0  0  0  0
    3.1719    7.0574   -1.2171 H   0  0  0  0  0  0  0  0  0  0  0  0
    1.0539   -4.3315   -2.7110 H   0  0  0  0  0  0  0  0  0  0  0  0
   -0.6088   -4.7963   -2.6986 H   0  0  0  0  0  0  0  0  0  0  0  0
    3.3771   -1.8262    1.5107 H   0  0  0  0  0  0  0  0  0  0  0  0
   -7.9164   -2.2420   -0.6538 H   0  0  0  0  0  0  0  0  0  0  0  0
   -6.2631   -2.5900   -0.1310 H   0  0  0  0  0  0  0  0  0  0  0  0
   -6.5587   -1.8098   -1.7015 H   0  0  0  0  0  0  0  0  0  0  0  0
    6.0190   -1.8055    1.5061 H   0  0  0  0  0  0  0  0  0  0  0  0
    6.9858   -4.0389    0.5016 H   0  0  0  0  0  0  0  0  0  0  0  0
  1 14  1  0  0  0  0
  1 27  1  0  0  0  0
  2 30  1  0  0  0  0
  2 37  1  0  0  0  0
  3 20  2  0  0  0  0
  4 21  2  0  0  0  0
  5 24  2  0  0  0  0
  6 28  2  0  0  0  0
  7 16  1  0  0  0  0
  7 19  1  0  0  0  0
  7 21  1  0  0  0  0
  8 15  1  0  0  0  0
  8 24  1  0  0  0  0
  8 46  1  0  0  0  0
  9 20  1  0  0  0  0
  9 23  1  0  0  0  0
  9 47  1  0  0  0  0
 10 11  1  0  0  0  0
 10 22  1  0  0  0  0
 10 31  1  0  0  0  0
 11 29  2  0  0  0  0
 12 28  1  0  0  0  0
 12 58  1  0  0  0  0
 12 59  1  0  0  0  0
 13 14  2  0  0  0  0
 13 32  1  0  0  0  0
 15 17  1  0  0  0  0
 15 18  1  0  0  0  0
 15 38  1  0  0  0  0
 16 17  1  0  0  0  0
 16 20  1  0  0  0  0
 16 39  1  0  0  0  0
 17 40  1  0  0  0  0
 17 41  1  0  0  0  0
 18 19  1  0  0  0  0
 18 42  1  0  0  0  0
 18 43  1  0  0  0  0
 19 44  1  0  0  0  0
 19 45  1  0  0  0  0
 21 22  1  0  0  0  0
 22 26  2  0  0  0  0
 23 25  1  0  0  0  0
 23 28  1  0  0  0  0
 23 48  1  0  0  0  0
 24 27  1  0  0  0  0
 25 30  1  0  0  0  0
 25 49  1  0  0  0  0
 25 50  1  0  0  0  0
 26 29  1  0  0  0  0
 26 51  1  0  0  0  0
 27 32  2  0  0  0  0
 29 33  1  0  0  0  0
 30 34  2  0  0  0  0
 31 52  1  0  0  0  0
 31 53  1  0  0  0  0
 31 54  1  0  0  0  0
 32 35  1  0  0  0  0
 33 55  1  0  0  0  0
 33 56  1  0  0  0  0
 33 57  1  0  0  0  0
 34 36  1  0  0  0  0
 34 60  1  0  0  0  0
 35 61  1  0  0  0  0
 35 62  1  0  0  0  0
 35 63  1  0  0  0  0
 36 37  2  0  0  0  0
 36 64  1  0  0  0  0
 37 65  1  0  0  0  0
M  END
> <PUBCHEM_COMPOUND_CID>
11882466

> <PUBCHEM_CONFORMER_RMSD>
1.2

> <PUBCHEM_CONFORMER_DIVERSEORDER>
1
30
110
116
73
46
90
77
122
67
105
74
89
85
52
17
109
34
71
63
96
24
101
94
78
7
76
51
107
118
120
57
54
124
36
12
69
9
39
64
82
111
13
119
31
117
10
68
42
87
35
115
97
66
45
33
103
47
23
106
18
123
25
58
83
27
79
75
41
55
80
28
48
112
91
72
70
37
113
93
95
88
60
86
22
53
29
32
108
62
98
19
11
99
6
50
8
102
121
56
100
65
21
43
81
59
40
61
2
114
26
14
15
4
20
104
84
92
38
49
44
5
16
3

> <PUBCHEM_MMFF94_PARTIAL_CHARGES>
43
1 0.18
10 0.31
11 -0.71
12 -0.8
13 -0.23
14 -0.22
15 0.3
16 0.36
19 0.3
2 -0.08
20 0.57
21 0.71
22 -0.24
23 0.36
24 0.71
25 0.18
26 -0.15
27 -0.05
28 0.57
29 0.11
3 -0.57
30 -0.14
31 0.26
32 0.05
33 0.18
34 -0.15
35 0.18
36 -0.15
37 -0.11
4 -0.57
46 0.37
47 0.37
5 -0.57
51 0.15
58 0.37
59 0.37
6 -0.57
60 0.15
64 0.15
65 0.15
7 -0.66
8 -0.73
9 -0.73

> <PUBCHEM_EFFECTIVE_ROTOR_COUNT>
12.2

> <PUBCHEM_PHARMACOPHORE_FEATURES>
12
1 11 acceptor
1 12 donor
1 3 acceptor
1 4 acceptor
1 5 acceptor
1 6 acceptor
1 8 donor
1 9 donor
5 1 13 14 27 32 rings
5 10 11 22 26 29 rings
5 2 30 34 36 37 rings
6 7 15 16 17 18 19 rings

> <PUBCHEM_HEAVY_ATOM_COUNT>
37

> <PUBCHEM_ATOM_DEF_STEREO_COUNT>
3

> <PUBCHEM_ATOM_UDEF_STEREO_COUNT>
0

> <PUBCHEM_BOND_DEF_STEREO_COUNT>
0

> <PUBCHEM_BOND_UDEF_STEREO_COUNT>
0

> <PUBCHEM_ISOTOPIC_ATOM_COUNT>
0

> <PUBCHEM_COMPONENT_COUNT>
1

> <PUBCHEM_CACTVS_TAUTO_COUNT>
8

> <PUBCHEM_CONFORMER_ID>
00B54FE200000001

> <PUBCHEM_MMFF94_ENERGY>
70.5136

> <PUBCHEM_FEATURE_SELFOVERLAP>
60.9

> <PUBCHEM_SHAPE_FINGERPRINT>
10169797 241 18265921179673840187
10411042 1 18192993712638611106
11062273 29 18409450263041435820
11297750 10 18041835087408931397
11445158 3 18340475682353900639
11621639 148 18409722947095751946
11763715 3 17761795969836694430
12440605 4 18123475139989587811
12522641 126 18334575763083514926
12857493 111 18263923241948488721
13248334 5 18409448103020992696
140371 6 17543913404460792124
14394314 77 17977950081991101043
14790565 3 18049724323439433480
14849402 71 18410856547055983915
15347591 1 18409730673984107185
15400415 2 17977100493920201701
15927050 60 18196653127817309366
16114785 44 17545887486892789328
21049683 271 18261119513325264108
21583282 1 18041853912186929502
21796203 349 17977984252239380771
23559900 14 18266444422532563033
27425 322 18126571356201284981
3380486 145 17834127341894905329
4058900 60 18269287918394722449
5309563 4 18193834839192076386
6609424 69 16806425020799120972
6700243 42 17410232607544818862
9658208 31 17841993587456836249
9962374 69 18411410684575374803
9982175 49 18271790325118005847

> <PUBCHEM_SHAPE_MULTIPOLES>
705.82
15.82
9.24
1.26
35.1
7.7
0.22
-7.27
-3.7
-20.1
1.7
-0.55
-0.26
-2.78

> <PUBCHEM_SHAPE_SELFOVERLAP>
1476.548

> <PUBCHEM_SHAPE_VOLUME>
401.9

> <PUBCHEM_COORDINATE_TYPE>
2
5
10

$$$$
