11867056
  -OEChem-12032416133D

 67 71  0     1  0  0  0  0  0999 V2000
    0.2454    2.6113    0.1579 S   0  0  0  0  0  0  0  0  0  0  0  0
    8.8446    2.3656   -0.0424 F   0  0  0  0  0  0  0  0  0  0  0  0
   -7.3177    0.7047   -0.7309 O   0  0  0  0  0  0  0  0  0  0  0  0
   -6.8849    2.5213    0.7714 O   0  0  0  0  0  0  0  0  0  0  0  0
    0.0329   -2.5362   -1.3712 O   0  0  0  0  0  0  0  0  0  0  0  0
    3.4166   -0.7861   -0.1123 O   0  0  0  0  0  0  0  0  0  0  0  0
    0.5816    0.0532   -0.0299 N   0  0  0  0  0  0  0  0  0  0  0  0
    0.1230   -4.0231    0.4092 N   0  0  0  0  0  0  0  0  0  0  0  0
    2.5731    1.4083    0.0555 N   0  0  0  0  0  0  0  0  0  0  0  0
   -3.2325   -0.3468    0.3709 C   0  0  2  0  0  0  0  0  0  0  0  0
   -3.5323    1.0486   -0.3353 C   0  0  1  0  0  0  0  0  0  0  0  0
   -5.0351    1.5267   -0.3670 C   0  0  1  0  0  0  0  0  0  0  0  0
   -1.7805   -0.8303   -0.0890 C   0  0  1  0  0  0  0  0  0  0  0  0
   -4.2702   -1.3976   -0.1023 C   0  0  0  0  0  0  0  0  0  0  0  0
   -5.9394    0.3440   -0.8157 C   0  0  1  0  0  0  0  0  0  0  0  0
   -2.5342    2.1481    0.1314 C   0  0  0  0  0  0  0  0  0  0  0  0
   -5.7142   -0.9265   -0.0035 C   0  0  0  0  0  0  0  0  0  0  0  0
   -3.2812   -0.2613    1.9164 C   0  0  0  0  0  0  0  0  0  0  0  0
   -0.7797    0.2925    0.0076 C   0  0  0  0  0  0  0  0  0  0  0  0
   -5.5419    2.1352    0.9592 C   0  0  0  0  0  0  0  0  0  0  0  0
   -5.1865    2.6530   -1.4284 C   0  0  0  0  0  0  0  0  0  0  0  0
   -1.1392    1.6224    0.0873 C   0  0  0  0  0  0  0  0  0  0  0  0
   -1.2757   -2.0952    0.6181 C   0  0  0  0  0  0  0  0  0  0  0  0
   -0.3123   -2.8782   -0.2431 C   0  0  0  0  0  0  0  0  0  0  0  0
    1.2192    1.2008    0.0501 C   0  0  0  0  0  0  0  0  0  0  0  0
    1.0454   -4.9467   -0.1866 C   0  0  0  0  0  0  0  0  0  0  0  0
    2.5270   -4.7198   -0.1157 C   0  0  0  0  0  0  0  0  0  0  0  0
    1.9019   -5.8420    0.6601 C   0  0  0  0  0  0  0  0  0  0  0  0
    3.5740    0.4266   -0.0241 C   0  0  0  0  0  0  0  0  0  0  0  0
    4.9697    0.9396   -0.0282 C   0  0  0  0  0  0  0  0  0  0  0  0
    5.9816    0.2034   -0.6446 C   0  0  0  0  0  0  0  0  0  0  0  0
    5.2670    2.1575    0.5834 C   0  0  0  0  0  0  0  0  0  0  0  0
    7.2906    0.6850   -0.6494 C   0  0  0  0  0  0  0  0  0  0  0  0
    6.5760    2.6392    0.5787 C   0  0  0  0  0  0  0  0  0  0  0  0
    7.5878    1.9029   -0.0377 C   0  0  0  0  0  0  0  0  0  0  0  0
   -3.2881    0.8658   -1.3963 H   0  0  0  0  0  0  0  0  0  0  0  0
   -1.8669   -1.0423   -1.1653 H   0  0  0  0  0  0  0  0  0  0  0  0
   -4.0701   -1.6662   -1.1482 H   0  0  0  0  0  0  0  0  0  0  0  0
   -4.1768   -2.3251    0.4738 H   0  0  0  0  0  0  0  0  0  0  0  0
   -5.7369    0.1217   -1.8719 H   0  0  0  0  0  0  0  0  0  0  0  0
   -2.6088    3.0253   -0.5199 H   0  0  0  0  0  0  0  0  0  0  0  0
   -2.7606    2.4750    1.1518 H   0  0  0  0  0  0  0  0  0  0  0  0
   -6.3762   -1.7176   -0.3787 H   0  0  0  0  0  0  0  0  0  0  0  0
   -6.0148   -0.7788    1.0396 H   0  0  0  0  0  0  0  0  0  0  0  0
   -3.0407   -1.2269    2.3748 H   0  0  0  0  0  0  0  0  0  0  0  0
   -4.2674   -0.0045    2.2975 H   0  0  0  0  0  0  0  0  0  0  0  0
   -2.5696    0.4645    2.3195 H   0  0  0  0  0  0  0  0  0  0  0  0
   -5.5242    1.4297    1.7859 H   0  0  0  0  0  0  0  0  0  0  0  0
   -4.9676    3.0213    1.2462 H   0  0  0  0  0  0  0  0  0  0  0  0
   -4.7572    2.3464   -2.3893 H   0  0  0  0  0  0  0  0  0  0  0  0
   -4.6825    3.5747   -1.1193 H   0  0  0  0  0  0  0  0  0  0  0  0
   -6.2346    2.9090   -1.6193 H   0  0  0  0  0  0  0  0  0  0  0  0
   -2.1012   -2.7787    0.8412 H   0  0  0  0  0  0  0  0  0  0  0  0
   -0.7817   -1.8519    1.5672 H   0  0  0  0  0  0  0  0  0  0  0  0
   -7.8397   -0.0451   -1.0639 H   0  0  0  0  0  0  0  0  0  0  0  0
   -7.1936    2.9121    1.6066 H   0  0  0  0  0  0  0  0  0  0  0  0
    0.6574   -5.3832   -1.1018 H   0  0  0  0  0  0  0  0  0  0  0  0
   -0.2192   -4.2339    1.3430 H   0  0  0  0  0  0  0  0  0  0  0  0
    3.1184   -4.9749   -0.9863 H   0  0  0  0  0  0  0  0  0  0  0  0
    2.8931   -3.8660    0.4413 H   0  0  0  0  0  0  0  0  0  0  0  0
    1.8505   -5.7404    1.7373 H   0  0  0  0  0  0  0  0  0  0  0  0
    2.0741   -6.8530    0.3122 H   0  0  0  0  0  0  0  0  0  0  0  0
    2.8324    2.3893    0.0829 H   0  0  0  0  0  0  0  0  0  0  0  0
    5.7708   -0.7450   -1.1317 H   0  0  0  0  0  0  0  0  0  0  0  0
    4.5197    2.7466    1.1063 H   0  0  0  0  0  0  0  0  0  0  0  0
    8.0786    0.1130   -1.1302 H   0  0  0  0  0  0  0  0  0  0  0  0
    6.8100    3.5834    1.0615 H   0  0  0  0  0  0  0  0  0  0  0  0
  1 22  1  0  0  0  0
  1 25  1  0  0  0  0
  2 35  1  0  0  0  0
  3 15  1  0  0  0  0
  3 55  1  0  0  0  0
  4 20  1  0  0  0  0
  4 56  1  0  0  0  0
  5 24  2  0  0  0  0
  6 29  2  0  0  0  0
  7 19  1  0  0  0  0
  7 25  2  0  0  0  0
  8 24  1  0  0  0  0
  8 26  1  0  0  0  0
  8 58  1  0  0  0  0
  9 25  1  0  0  0  0
  9 29  1  0  0  0  0
  9 63  1  0  0  0  0
 10 11  1  0  0  0  0
 10 13  1  0  0  0  0
 10 14  1  0  0  0  0
 10 18  1  0  0  0  0
 11 12  1  0  0  0  0
 11 16  1  0  0  0  0
 11 36  1  0  0  0  0
 12 15  1  0  0  0  0
 12 20  1  0  0  0  0
 12 21  1  0  0  0  0
 13 19  1  0  0  0  0
 13 23  1  0  0  0  0
 13 37  1  0  0  0  0
 14 17  1  0  0  0  0
 14 38  1  0  0  0  0
 14 39  1  0  0  0  0
 15 17  1  0  0  0  0
 15 40  1  0  0  0  0
 16 22  1  0  0  0  0
 16 41  1  0  0  0  0
 16 42  1  0  0  0  0
 17 43  1  0  0  0  0
 17 44  1  0  0  0  0
 18 45  1  0  0  0  0
 18 46  1  0  0  0  0
 18 47  1  0  0  0  0
 19 22  2  0  0  0  0
 20 48  1  0  0  0  0
 20 49  1  0  0  0  0
 21 50  1  0  0  0  0
 21 51  1  0  0  0  0
 21 52  1  0  0  0  0
 23 24  1  0  0  0  0
 23 53  1  0  0  0  0
 23 54  1  0  0  0  0
 26 27  1  0  0  0  0
 26 28  1  0  0  0  0
 26 57  1  0  0  0  0
 27 28  1  0  0  0  0
 27 59  1  0  0  0  0
 27 60  1  0  0  0  0
 28 61  1  0  0  0  0
 28 62  1  0  0  0  0
 29 30  1  0  0  0  0
 30 31  2  0  0  0  0
 30 32  1  0  0  0  0
 31 33  1  0  0  0  0
 31 64  1  0  0  0  0
 32 34  2  0  0  0  0
 32 65  1  0  0  0  0
 33 35  2  0  0  0  0
 33 66  1  0  0  0  0
 34 35  1  0  0  0  0
 34 67  1  0  0  0  0
M  END
> <PUBCHEM_COMPOUND_CID>
11867056

> <PUBCHEM_CONFORMER_RMSD>
1

> <PUBCHEM_CONFORMER_DIVERSEORDER>
1
11
10
4
15
7
16
8
9
5
14
13
6
12
3
2

> <PUBCHEM_MMFF94_PARTIAL_CHARGES>
41
1 -0.08
13 0.18
15 0.28
16 0.18
19 0.05
2 -0.19
20 0.28
22 -0.14
23 0.06
24 0.57
25 0.44
26 0.05
27 -0.2
28 -0.2
29 0.54
3 -0.68
30 0.09
31 -0.15
32 -0.15
33 -0.15
34 -0.15
35 0.19
4 -0.68
5 -0.57
55 0.4
56 0.4
57 0.1
58 0.37
59 0.1
6 -0.57
60 0.1
61 0.1
62 0.1
63 0.37
64 0.15
65 0.15
66 0.15
67 0.15
7 -0.57
8 -0.58
9 -0.49

> <PUBCHEM_EFFECTIVE_ROTOR_COUNT>
9.8

> <PUBCHEM_PHARMACOPHORE_FEATURES>
12
1 3 acceptor
1 3 donor
1 4 acceptor
1 4 donor
1 5 acceptor
1 6 acceptor
1 8 donor
1 9 donor
5 1 7 19 22 25 rings
6 10 11 12 14 15 17 rings
6 10 11 13 16 19 22 rings
6 30 31 32 33 34 35 rings

> <PUBCHEM_HEAVY_ATOM_COUNT>
35

> <PUBCHEM_ATOM_DEF_STEREO_COUNT>
5

> <PUBCHEM_ATOM_UDEF_STEREO_COUNT>
0

> <PUBCHEM_BOND_DEF_STEREO_COUNT>
0

> <PUBCHEM_BOND_UDEF_STEREO_COUNT>
0

> <PUBCHEM_ISOTOPIC_ATOM_COUNT>
0

> <PUBCHEM_COMPONENT_COUNT>
1

> <PUBCHEM_CACTVS_TAUTO_COUNT>
6

> <PUBCHEM_CONFORMER_ID>
00B513B000000001

> <PUBCHEM_MMFF94_ENERGY>
108.5138

> <PUBCHEM_FEATURE_SELFOVERLAP>
61.043

> <PUBCHEM_SHAPE_FINGERPRINT>
10050765 1 18050567344706823261
10190206 1 18198326533033394727
10290309 65 18336820901962060420
10369192 42 18334572447537541725
10864689 126 18411142459556558232
10940486 97 18045785856220826956
11007060 377 18199748218357080826
11135609 187 18411135822740076025
11135926 11 18410007694214893589
11136131 41 18261385616625507674
11315181 36 18413109489668924337
11578080 2 17242717699074096317
11719270 70 18410285892447951522
12838862 33 18338781408261294028
14394314 77 18410858754427009801
14659021 117 17766544026270547422
14725015 67 17981324809383821623
14790565 3 18410576222845736808
14856354 85 16298665091966846280
15183329 4 18333726922821858009
15347591 1 18194682567627447773
15400415 2 18410291462999695064
15439362 3 18336826369365504011
15849732 13 18260546757539967884
15890870 6 18410574015770201316
15927050 60 18341327868253779038
16067689 302 18413393125446838183
16090146 7 18340223958980009456
16719943 64 18337952398190495986
18681886 176 18335976579568324905
20771845 165 17970339314001324757
21133665 82 18410576219668971670
21360443 120 18409168796506712294
22311459 1 18410292493681427045
23523788 1 17462323331935571579
23559900 14 17977656520939710171
244849 19 17824569399770028971
249057 3 18335702793152851292
283562 15 18271812280621778497
3383291 50 18266740366679328074
3411729 13 18261391092165016555
4017518 198 18342462569270934254
4073 2 18410862044882790883
4516262 110 18338514132953145597
4625314 4 18267588087216017332
5265222 85 18337675342360521636
5385378 56 18338525127551874161
563151 97 18412824656043014681
57527295 17 18059563665136061449
6371380 46 18271521005135905048
6669772 16 18410576154252971462
99344 41 18411135823103955812
9961470 85 18411418419716945178
9981440 41 18334866042827922675

> <PUBCHEM_SHAPE_MULTIPOLES>
678.44
19.41
5.86
0.98
19.09
12.09
-0.09
-20.55
1.59
4.65
-0.46
-0.87
-0.09
0.5

> <PUBCHEM_SHAPE_SELFOVERLAP>
1444.003

> <PUBCHEM_SHAPE_VOLUME>
381.9

> <PUBCHEM_COORDINATE_TYPE>
2
5
10

$$$$
