44716827
  -OEChem-12032416123D

 75 79  0     1  0  0  0  0  0999 V2000
    3.4907    1.1707   -1.6854 S   0  0  0  0  0  0  0  0  0  0  0  0
   -0.6367    1.1419    1.9420 O   0  0  0  0  0  0  0  0  0  0  0  0
   -3.6109    3.8079    0.2253 O   0  0  0  0  0  0  0  0  0  0  0  0
    4.4599    1.4942   -2.7150 O   0  0  0  0  0  0  0  0  0  0  0  0
    3.0576   -0.2006   -1.4966 O   0  0  0  0  0  0  0  0  0  0  0  0
   -3.3431   -1.7417    2.4119 O   0  0  0  0  0  0  0  0  0  0  0  0
   -1.7702    2.4033   -0.1447 N   0  0  0  0  0  0  0  0  0  0  0  0
    2.1206    2.1563   -1.8681 N   0  0  0  0  0  0  0  0  0  0  0  0
   -1.1377   -0.9223    0.9893 N   0  0  0  0  0  0  0  0  0  0  0  0
   -4.5882    1.4405   -1.7013 N   0  0  0  0  0  0  0  0  0  0  0  0
    4.0938    0.9485    0.9940 N   0  0  0  0  0  0  0  0  0  0  0  0
   -5.4639    0.4229   -1.7627 N   0  0  0  0  0  0  0  0  0  0  0  0
    5.0557    2.8988    1.4444 N   0  0  0  0  0  0  0  0  0  0  0  0
    2.8954   -2.9266    0.3986 N   0  0  0  0  0  0  0  0  0  0  0  0
   -2.0436   -1.8349    4.3037 N   0  0  0  0  0  0  0  0  0  0  0  0
    1.0372    2.1096   -0.8560 C   0  0  2  0  0  0  0  0  0  0  0  0
   -1.2332    1.0493   -0.3694 C   0  0  1  0  0  0  0  0  0  0  0  0
    0.0167    1.0411   -1.2520 C   0  0  0  0  0  0  0  0  0  0  0  0
    0.3733    3.4801   -0.7656 C   0  0  0  0  0  0  0  0  0  0  0  0
   -0.8001    3.4468    0.2051 C   0  0  0  0  0  0  0  0  0  0  0  0
   -0.9737    0.4523    0.9831 C   0  0  0  0  0  0  0  0  0  0  0  0
   -3.1353    2.7187   -0.0920 C   0  0  0  0  0  0  0  0  0  0  0  0
   -0.9257   -1.7386    2.1628 C   0  0  2  0  0  0  0  0  0  0  0  0
   -4.1020    1.6742   -0.4485 C   0  0  0  0  0  0  0  0  0  0  0  0
   -0.4998   -3.1673    1.8059 C   0  0  0  0  0  0  0  0  0  0  0  0
    4.1357    1.7261   -0.1361 C   0  0  0  0  0  0  0  0  0  0  0  0
    0.7802   -3.2129    1.0073 C   0  0  0  0  0  0  0  0  0  0  0  0
   -4.7016    0.7453    0.3663 C   0  0  0  0  0  0  0  0  0  0  0  0
   -2.2337   -1.7539    2.9402 C   0  0  0  0  0  0  0  0  0  0  0  0
    4.7279    2.9407    0.1187 C   0  0  0  0  0  0  0  0  0  0  0  0
   -5.5292    0.0022   -0.4967 C   0  0  0  0  0  0  0  0  0  0  0  0
    0.9603   -3.8123   -0.2706 C   0  0  0  0  0  0  0  0  0  0  0  0
    1.9874   -2.6769    1.3924 C   0  0  0  0  0  0  0  0  0  0  0  0
   -4.2562    2.1603   -2.9089 C   0  0  0  0  0  0  0  0  0  0  0  0
    2.2959   -3.6186   -0.6295 C   0  0  0  0  0  0  0  0  0  0  0  0
    4.6561    1.6839    1.9274 C   0  0  0  0  0  0  0  0  0  0  0  0
    0.1126   -4.5032   -1.1591 C   0  0  0  0  0  0  0  0  0  0  0  0
   -6.4055   -1.1280   -0.1459 C   0  0  0  0  0  0  0  0  0  0  0  0
    2.8284   -4.0831   -1.8375 C   0  0  0  0  0  0  0  0  0  0  0  0
    5.7046    3.9444    2.1972 C   0  0  0  0  0  0  0  0  0  0  0  0
    0.6314   -4.9736   -2.3710 C   0  0  0  0  0  0  0  0  0  0  0  0
    1.9688   -4.7656   -2.7029 C   0  0  0  0  0  0  0  0  0  0  0  0
    1.4561    1.8669    0.1264 H   0  0  0  0  0  0  0  0  0  0  0  0
   -1.9905    0.4418   -0.8738 H   0  0  0  0  0  0  0  0  0  0  0  0
    0.4782    0.0471   -1.2400 H   0  0  0  0  0  0  0  0  0  0  0  0
   -0.2965    1.2197   -2.2901 H   0  0  0  0  0  0  0  0  0  0  0  0
    1.1011    4.2346   -0.4437 H   0  0  0  0  0  0  0  0  0  0  0  0
    0.0178    3.7894   -1.7575 H   0  0  0  0  0  0  0  0  0  0  0  0
   -1.2914    4.4263    0.1891 H   0  0  0  0  0  0  0  0  0  0  0  0
   -0.4539    3.3049    1.2317 H   0  0  0  0  0  0  0  0  0  0  0  0
    1.8021    2.3540   -2.8256 H   0  0  0  0  0  0  0  0  0  0  0  0
   -1.4724   -1.3844    0.1485 H   0  0  0  0  0  0  0  0  0  0  0  0
   -0.1556   -1.2531    2.7756 H   0  0  0  0  0  0  0  0  0  0  0  0
   -0.3582   -3.7532    2.7234 H   0  0  0  0  0  0  0  0  0  0  0  0
   -1.3046   -3.6646    1.2501 H   0  0  0  0  0  0  0  0  0  0  0  0
   -4.5609    0.6277    1.4311 H   0  0  0  0  0  0  0  0  0  0  0  0
    4.9349    3.7994   -0.5051 H   0  0  0  0  0  0  0  0  0  0  0  0
    2.2847   -2.1401    2.2825 H   0  0  0  0  0  0  0  0  0  0  0  0
   -4.3350    3.2321   -2.7117 H   0  0  0  0  0  0  0  0  0  0  0  0
   -4.9531    1.8815   -3.7037 H   0  0  0  0  0  0  0  0  0  0  0  0
   -3.2353    1.8941   -3.1936 H   0  0  0  0  0  0  0  0  0  0  0  0
    3.8652   -2.6427    0.4157 H   0  0  0  0  0  0  0  0  0  0  0  0
    4.7979    1.3921    2.9591 H   0  0  0  0  0  0  0  0  0  0  0  0
   -2.8346   -1.8668    4.9384 H   0  0  0  0  0  0  0  0  0  0  0  0
   -1.1208   -1.8670    4.7251 H   0  0  0  0  0  0  0  0  0  0  0  0
   -0.9326   -4.6746   -0.9190 H   0  0  0  0  0  0  0  0  0  0  0  0
   -6.3458   -1.3617    0.9221 H   0  0  0  0  0  0  0  0  0  0  0  0
   -6.1190   -2.0269   -0.7016 H   0  0  0  0  0  0  0  0  0  0  0  0
   -7.4494   -0.8958   -0.3806 H   0  0  0  0  0  0  0  0  0  0  0  0
    3.8692   -3.9210   -2.0969 H   0  0  0  0  0  0  0  0  0  0  0  0
    4.9304    4.5898    2.6189 H   0  0  0  0  0  0  0  0  0  0  0  0
    6.3012    3.4929    2.9940 H   0  0  0  0  0  0  0  0  0  0  0  0
    6.3548    4.5147    1.5289 H   0  0  0  0  0  0  0  0  0  0  0  0
   -0.0178   -5.5068   -3.0605 H   0  0  0  0  0  0  0  0  0  0  0  0
    2.3507   -5.1392   -3.6496 H   0  0  0  0  0  0  0  0  0  0  0  0
  1  4  2  0  0  0  0
  1  5  2  0  0  0  0
  1  8  1  0  0  0  0
  1 26  1  0  0  0  0
  2 21  2  0  0  0  0
  3 22  2  0  0  0  0
  6 29  2  0  0  0  0
  7 17  1  0  0  0  0
  7 20  1  0  0  0  0
  7 22  1  0  0  0  0
  8 16  1  0  0  0  0
  8 51  1  0  0  0  0
  9 21  1  0  0  0  0
  9 23  1  0  0  0  0
  9 52  1  0  0  0  0
 10 12  1  0  0  0  0
 10 24  1  0  0  0  0
 10 34  1  0  0  0  0
 11 26  1  0  0  0  0
 11 36  2  0  0  0  0
 12 31  2  0  0  0  0
 13 30  1  0  0  0  0
 13 36  1  0  0  0  0
 13 40  1  0  0  0  0
 14 33  1  0  0  0  0
 14 35  1  0  0  0  0
 14 62  1  0  0  0  0
 15 29  1  0  0  0  0
 15 64  1  0  0  0  0
 15 65  1  0  0  0  0
 16 18  1  0  0  0  0
 16 19  1  0  0  0  0
 16 43  1  0  0  0  0
 17 18  1  0  0  0  0
 17 21  1  0  0  0  0
 17 44  1  0  0  0  0
 18 45  1  0  0  0  0
 18 46  1  0  0  0  0
 19 20  1  0  0  0  0
 19 47  1  0  0  0  0
 19 48  1  0  0  0  0
 20 49  1  0  0  0  0
 20 50  1  0  0  0  0
 22 24  1  0  0  0  0
 23 25  1  0  0  0  0
 23 29  1  0  0  0  0
 23 53  1  0  0  0  0
 24 28  2  0  0  0  0
 25 27  1  0  0  0  0
 25 54  1  0  0  0  0
 25 55  1  0  0  0  0
 26 30  2  0  0  0  0
 27 32  1  0  0  0  0
 27 33  2  0  0  0  0
 28 31  1  0  0  0  0
 28 56  1  0  0  0  0
 30 57  1  0  0  0  0
 31 38  1  0  0  0  0
 32 35  1  0  0  0  0
 32 37  2  0  0  0  0
 33 58  1  0  0  0  0
 34 59  1  0  0  0  0
 34 60  1  0  0  0  0
 34 61  1  0  0  0  0
 35 39  2  0  0  0  0
 36 63  1  0  0  0  0
 37 41  1  0  0  0  0
 37 66  1  0  0  0  0
 38 67  1  0  0  0  0
 38 68  1  0  0  0  0
 38 69  1  0  0  0  0
 39 42  1  0  0  0  0
 39 70  1  0  0  0  0
 40 71  1  0  0  0  0
 40 72  1  0  0  0  0
 40 73  1  0  0  0  0
 41 42  2  0  0  0  0
 41 74  1  0  0  0  0
 42 75  1  0  0  0  0
M  END
> <PUBCHEM_COMPOUND_CID>
44716827

> <PUBCHEM_CONFORMER_RMSD>
1.2

> <PUBCHEM_CONFORMER_DIVERSEORDER>
1
146
12
185
73
37
91
173
135
174
106
43
123
184
118
29
168
112
95
131
208
90
214
211
198
202
101
122
72
15
97
142
129
201
170
114
41
137
45
136
186
149
107
213
86
109
167
89
64
132
127
44
144
14
48
209
49
117
99
200
93
102
39
21
113
20
105
98
83
61
166
38
145
128
17
111
152
139
3
100
199
24
59
121
182
181
130
124
172
125
36
85
154
134
70
212
67
35
96
155
108
62
160
8
25
55
104
69
207
81
7
68
197
179
57
163
203
153
175
18
157
54
78
178
143
34
115
159
158
195
171
79
46
88
141
194
76
51
71
31
60
66
120
164
27
42
215
116
63
210
58
50
148
177
6
77
30
23
13
11
92
176
204
191
16
192
28
40
33
103
9
193
165
94
133
180
74
26
140
156
151
147
22
150
196
87
110
75
138
169
19
84
183
32
80
126
56
190
4
162
189
161
205
187
53
82
47
65
188
119
52
206
2
10
5

> <PUBCHEM_MMFF94_PARTIAL_CHARGES>
52
1 1.5
10 0.31
11 -0.57
12 -0.71
13 0.05
14 0.03
15 -0.8
16 0.36
17 0.36
2 -0.57
20 0.3
21 0.57
22 0.71
23 0.36
24 -0.24
25 0.18
26 0.16
27 -0.18
28 -0.15
29 0.57
3 -0.57
30 -0.3
31 0.11
33 -0.3
34 0.26
35 -0.15
36 0.04
37 -0.15
38 0.18
39 -0.15
4 -0.65
40 0.26
41 -0.15
42 -0.15
5 -0.65
51 0.42
52 0.37
56 0.15
57 0.15
58 0.15
6 -0.57
62 0.27
63 0.15
64 0.37
65 0.37
66 0.15
7 -0.66
70 0.15
74 0.15
75 0.15
8 -0.91
9 -0.73

> <PUBCHEM_EFFECTIVE_ROTOR_COUNT>
12.2

> <PUBCHEM_PHARMACOPHORE_FEATURES>
17
1 12 acceptor
1 14 cation
1 14 donor
1 15 donor
1 2 acceptor
1 3 acceptor
1 4 acceptor
1 5 acceptor
1 6 acceptor
1 8 donor
1 9 donor
3 11 13 36 cation
5 10 12 24 28 31 rings
5 11 13 26 30 36 rings
5 14 27 32 33 35 rings
6 32 35 37 39 41 42 rings
6 7 16 17 18 19 20 rings

> <PUBCHEM_HEAVY_ATOM_COUNT>
42

> <PUBCHEM_ATOM_DEF_STEREO_COUNT>
3

> <PUBCHEM_ATOM_UDEF_STEREO_COUNT>
0

> <PUBCHEM_BOND_DEF_STEREO_COUNT>
0

> <PUBCHEM_BOND_UDEF_STEREO_COUNT>
0

> <PUBCHEM_ISOTOPIC_ATOM_COUNT>
0

> <PUBCHEM_COMPONENT_COUNT>
1

> <PUBCHEM_CACTVS_TAUTO_COUNT>
4

> <PUBCHEM_CONFORMER_ID>
02AA531B00000001

> <PUBCHEM_MMFF94_ENERGY>
80.8709

> <PUBCHEM_FEATURE_SELFOVERLAP>
86.386

> <PUBCHEM_SHAPE_FINGERPRINT>
11285246 1 17686917020234204331
11763715 3 16843604860057283082
12156800 1 17269434959107749454
14068700 686 18337662044941794101
14114206 34 16961558664299804766
14295345 954 18125999369720918830
14674994 50 17839740709479083640
15775530 1 17824009821060031651
15815584 197 17531524266178812953
17909252 39 18198062486827891367
20028762 73 18266740362953540181
20511986 3 17096642304867870500
20775438 99 18335973187024267423
23559900 14 17909824341111853277
3298306 158 18261121823638029943

> <PUBCHEM_SHAPE_MULTIPOLES>
794.01
11.1
7.49
3.2
5.13
7.02
1.34
-10.48
-0.83
-6.68
-2.48
0.17
1.88
4.41

> <PUBCHEM_SHAPE_SELFOVERLAP>
1699.312

> <PUBCHEM_SHAPE_VOLUME>
444

> <PUBCHEM_COORDINATE_TYPE>
2
5
10

$$$$
