40777423
  -OEChem-12032416173D

 61 63  0     1  0  0  0  0  0999 V2000
    4.7909   -0.4033   -1.3253 O   0  0  0  0  0  0  0  0  0  0  0  0
   -3.1716   -1.1822   -1.4721 O   0  0  0  0  0  0  0  0  0  0  0  0
   -9.0088   -0.0888    0.6089 O   0  0  0  0  0  0  0  0  0  0  0  0
    0.8233    3.1440   -0.2140 N   0  0  0  0  0  0  0  0  0  0  0  0
    5.1291   -0.8364    0.9328 N   0  0  0  0  0  0  0  0  0  0  0  0
   -1.7861   -1.2471   -1.5570 N   0  0  0  0  0  0  0  0  0  0  0  0
    8.8525   -0.8713    0.8649 N   0  0  0  0  0  0  0  0  0  0  0  0
    2.2259    0.6481   -0.9280 C   0  0  1  0  0  0  0  0  0  0  0  0
    0.7017    0.7057   -0.6675 C   0  0  2  0  0  0  0  0  0  0  0  0
    2.7144    2.0414   -1.3584 C   0  0  0  0  0  0  0  0  0  0  0  0
    0.3306    1.8581    0.2810 C   0  0  0  0  0  0  0  0  0  0  0  0
    2.2739    3.1387   -0.3906 C   0  0  0  0  0  0  0  0  0  0  0  0
    0.1311   -0.6171   -0.1545 C   0  0  0  0  0  0  0  0  0  0  0  0
    3.0426    0.1268    0.2605 C   0  0  0  0  0  0  0  0  0  0  0  0
   -1.3443   -0.7139   -0.4143 C   0  0  0  0  0  0  0  0  0  0  0  0
    4.4019   -0.3893   -0.1607 C   0  0  0  0  0  0  0  0  0  0  0  0
   -2.3950   -0.2991    0.4222 C   0  0  0  0  0  0  0  0  0  0  0  0
    6.4619   -1.3839    0.8235 C   0  0  0  0  0  0  0  0  0  0  0  0
   -3.5220   -0.6159   -0.2891 C   0  0  0  0  0  0  0  0  0  0  0  0
    7.5169   -0.2947    0.9490 C   0  0  0  0  0  0  0  0  0  0  0  0
   -4.9309   -0.4814   -0.0579 C   0  0  0  0  0  0  0  0  0  0  0  0
   -5.3919    0.0887    1.1288 C   0  0  0  0  0  0  0  0  0  0  0  0
   -5.8405   -0.9202   -1.0202 C   0  0  0  0  0  0  0  0  0  0  0  0
    9.2100   -1.1455   -0.5284 C   0  0  0  0  0  0  0  0  0  0  0  0
    9.8398    0.0216    1.4751 C   0  0  0  0  0  0  0  0  0  0  0  0
   -6.7622    0.2197    1.3535 C   0  0  0  0  0  0  0  0  0  0  0  0
   -7.2108   -0.7891   -0.7957 C   0  0  0  0  0  0  0  0  0  0  0  0
   -7.6716   -0.2192    0.3911 C   0  0  0  0  0  0  0  0  0  0  0  0
   -9.4107    0.5055    1.8424 C   0  0  0  0  0  0  0  0  0  0  0  0
    2.3762   -0.0334   -1.7768 H   0  0  0  0  0  0  0  0  0  0  0  0
    0.2348    0.9256   -1.6406 H   0  0  0  0  0  0  0  0  0  0  0  0
    2.3083    2.2642   -2.3545 H   0  0  0  0  0  0  0  0  0  0  0  0
    3.8049    2.0641   -1.4623 H   0  0  0  0  0  0  0  0  0  0  0  0
   -0.7561    1.9455    0.3700 H   0  0  0  0  0  0  0  0  0  0  0  0
    0.7184    1.6737    1.2905 H   0  0  0  0  0  0  0  0  0  0  0  0
    2.7748    3.0381    0.5785 H   0  0  0  0  0  0  0  0  0  0  0  0
    2.5775    4.1097   -0.7979 H   0  0  0  0  0  0  0  0  0  0  0  0
    0.3107   -0.7386    0.9207 H   0  0  0  0  0  0  0  0  0  0  0  0
    0.6244   -1.4603   -0.6555 H   0  0  0  0  0  0  0  0  0  0  0  0
    2.5418   -0.7238    0.7347 H   0  0  0  0  0  0  0  0  0  0  0  0
    3.1754    0.8896    1.0344 H   0  0  0  0  0  0  0  0  0  0  0  0
    0.5664    3.8796    0.4436 H   0  0  0  0  0  0  0  0  0  0  0  0
   -2.3318    0.1590    1.3985 H   0  0  0  0  0  0  0  0  0  0  0  0
    4.7198   -0.7743    1.8606 H   0  0  0  0  0  0  0  0  0  0  0  0
    6.5699   -2.1224    1.6260 H   0  0  0  0  0  0  0  0  0  0  0  0
    6.5306   -1.9122   -0.1324 H   0  0  0  0  0  0  0  0  0  0  0  0
    7.3634    0.4968    0.2035 H   0  0  0  0  0  0  0  0  0  0  0  0
    7.3721    0.1826    1.9282 H   0  0  0  0  0  0  0  0  0  0  0  0
   -4.7067    0.4397    1.8963 H   0  0  0  0  0  0  0  0  0  0  0  0
   -5.5208   -1.3692   -1.9571 H   0  0  0  0  0  0  0  0  0  0  0  0
    8.5403   -1.8820   -0.9824 H   0  0  0  0  0  0  0  0  0  0  0  0
   10.2153   -1.5794   -0.5836 H   0  0  0  0  0  0  0  0  0  0  0  0
    9.1988   -0.2396   -1.1457 H   0  0  0  0  0  0  0  0  0  0  0  0
    9.6147    0.1794    2.5358 H   0  0  0  0  0  0  0  0  0  0  0  0
    9.8747    0.9984    0.9789 H   0  0  0  0  0  0  0  0  0  0  0  0
   10.8401   -0.4235    1.4326 H   0  0  0  0  0  0  0  0  0  0  0  0
   -7.0516    0.6714    2.2962 H   0  0  0  0  0  0  0  0  0  0  0  0
   -7.9150   -1.1322   -1.5489 H   0  0  0  0  0  0  0  0  0  0  0  0
  -10.5053    0.5305    1.8475 H   0  0  0  0  0  0  0  0  0  0  0  0
   -9.0670    1.5426    1.9203 H   0  0  0  0  0  0  0  0  0  0  0  0
   -9.1008   -0.1003    2.7006 H   0  0  0  0  0  0  0  0  0  0  0  0
  1 16  2  0  0  0  0
  2  6  1  0  0  0  0
  2 19  1  0  0  0  0
  3 28  1  0  0  0  0
  3 29  1  0  0  0  0
  4 11  1  0  0  0  0
  4 12  1  0  0  0  0
  4 42  1  0  0  0  0
  5 16  1  0  0  0  0
  5 18  1  0  0  0  0
  5 44  1  0  0  0  0
  6 15  2  0  0  0  0
  7 20  1  0  0  0  0
  7 24  1  0  0  0  0
  7 25  1  0  0  0  0
  8  9  1  0  0  0  0
  8 10  1  0  0  0  0
  8 14  1  0  0  0  0
  8 30  1  0  0  0  0
  9 11  1  0  0  0  0
  9 13  1  0  0  0  0
  9 31  1  0  0  0  0
 10 12  1  0  0  0  0
 10 32  1  0  0  0  0
 10 33  1  0  0  0  0
 11 34  1  0  0  0  0
 11 35  1  0  0  0  0
 12 36  1  0  0  0  0
 12 37  1  0  0  0  0
 13 15  1  0  0  0  0
 13 38  1  0  0  0  0
 13 39  1  0  0  0  0
 14 16  1  0  0  0  0
 14 40  1  0  0  0  0
 14 41  1  0  0  0  0
 15 17  1  0  0  0  0
 17 19  2  0  0  0  0
 17 43  1  0  0  0  0
 18 20  1  0  0  0  0
 18 45  1  0  0  0  0
 18 46  1  0  0  0  0
 19 21  1  0  0  0  0
 20 47  1  0  0  0  0
 20 48  1  0  0  0  0
 21 22  2  0  0  0  0
 21 23  1  0  0  0  0
 22 26  1  0  0  0  0
 22 49  1  0  0  0  0
 23 27  2  0  0  0  0
 23 50  1  0  0  0  0
 24 51  1  0  0  0  0
 24 52  1  0  0  0  0
 24 53  1  0  0  0  0
 25 54  1  0  0  0  0
 25 55  1  0  0  0  0
 25 56  1  0  0  0  0
 26 28  2  0  0  0  0
 26 57  1  0  0  0  0
 27 28  1  0  0  0  0
 27 58  1  0  0  0  0
 29 59  1  0  0  0  0
 29 60  1  0  0  0  0
 29 61  1  0  0  0  0
M  END
> <PUBCHEM_COMPOUND_CID>
40777423

> <PUBCHEM_CONFORMER_RMSD>
1.2

> <PUBCHEM_CONFORMER_DIVERSEORDER>
1
3
73
92
68
64
78
5
8
98
87
34
99
67
29
54
47
91
57
90
15
101
43
89
94
37
45
79
48
65
88
71
23
42
76
16
59
12
63
30
95
21
28
38
36
74
93
52
17
55
72
53
62
32
11
39
50
22
35
96
75
7
80
9
14
24
6
69
97
40
85
44
77
31
84
18
83
19
100
20
27
49
2
41
25
81
82
86
46
70
58
33
61
56
4
102
10
13
60
26
51
66

> <PUBCHEM_MMFF94_PARTIAL_CHARGES>
33
1 -0.57
11 0.27
12 0.27
13 0.18
14 0.06
15 0.11
16 0.57
17 -0.15
18 0.3
19 0.09
2 -0.02
20 0.27
21 0.05
22 -0.15
23 -0.15
24 0.27
25 0.27
26 -0.15
27 -0.15
28 0.08
29 0.28
3 -0.36
4 -0.9
42 0.36
43 0.15
44 0.37
49 0.15
5 -0.73
50 0.15
57 0.15
58 0.15
6 -0.41
7 -0.81

> <PUBCHEM_EFFECTIVE_ROTOR_COUNT>
11.2

> <PUBCHEM_PHARMACOPHORE_FEATURES>
10
1 1 acceptor
1 3 acceptor
1 4 cation
1 4 donor
1 5 donor
1 6 acceptor
1 7 cation
5 2 6 15 17 19 rings
6 21 22 23 26 27 28 rings
6 4 8 9 10 11 12 rings

> <PUBCHEM_HEAVY_ATOM_COUNT>
29

> <PUBCHEM_ATOM_DEF_STEREO_COUNT>
2

> <PUBCHEM_ATOM_UDEF_STEREO_COUNT>
0

> <PUBCHEM_BOND_DEF_STEREO_COUNT>
0

> <PUBCHEM_BOND_UDEF_STEREO_COUNT>
0

> <PUBCHEM_ISOTOPIC_ATOM_COUNT>
0

> <PUBCHEM_COMPONENT_COUNT>
1

> <PUBCHEM_CACTVS_TAUTO_COUNT>
2

> <PUBCHEM_CONFORMER_ID>
026E36CF00000001

> <PUBCHEM_MMFF94_ENERGY>
58.5339

> <PUBCHEM_FEATURE_SELFOVERLAP>
50.746

> <PUBCHEM_SHAPE_FINGERPRINT>
10 15 14333126364625054468
10076449 9 16950282897009122022
10670039 82 15502646079943616111
10674148 151 15068621591119386640
11315181 36 13830133893728942835
11456790 92 18410301315649411081
11476731 38 18041003952009050020
12539745 222 17530961337251887701
12592606 108 18335979848043523271
12741549 16 17531245050001648477
13150687 139 9079117795862620680
13540713 5 17983851465196163101
13617811 41 18335712616248894894
13673619 4 17385720292429449588
14150022 121 17060060302954241136
14251764 18 18273213118812208124
14251764 46 17167581578935069307
14344974 52 12107800618300755974
15131766 46 15766930343326943592
15183329 4 17774457057110882221
15247644 1 16950284005343515211
15419008 145 18337957792891265025
15461852 350 15841263844154521341
1577012 14 18129950095804492733
15980000 95 18410012139812955028
1754911 235 9007057959276589019
18006028 8 18408036308826692012
19301679 30 18264488378382895218
19315958 150 16845577509109627878
20105231 36 14129069119109232825
21095086 128 14418134019352312459
21150785 3 11818994071895837210
21267235 1 18261109660939273316
21781055 127 17774742899314776696
21792934 111 18411131446859971944
21792961 116 17604418622898544374
232437 2 14634868635435019530
246663 6 16443347563523094899
249057 3 18260829323311744762
3004659 81 18059587926494031621
3178227 256 18040719168779055714
4325135 7 9223230745511026347
44426699 302 16951131819989449412
5028188 123 16916499389846830228
5104073 3 18268994370253970947
5219985 9 18334852819150885324
54039377 194 18113900442526024772
5486654 2 8358257042736351109
59521660 218 18040999600479977900
6058803 2 17839174465544274501
6081469 158 16988566780188058786
636775 72 15913336758873804635
636775 8 11819287659540270201
6691757 9 16988845020849395239
9663363 56 18333723620766765706
9962374 69 18187921836881842231

> <PUBCHEM_SHAPE_MULTIPOLES>
559.27
31.62
1.93
1.42
12.15
2.21
0.1
-11.47
15
2.25
-0.41
-0.7
-0.1
-1.74

> <PUBCHEM_SHAPE_SELFOVERLAP>
1161.308

> <PUBCHEM_SHAPE_VOLUME>
319.3

> <PUBCHEM_COORDINATE_TYPE>
2
5
10

$$$$
