28959933
  -OEChem-12032416353D

 71 74  0     1  0  0  0  0  0999 V2000
   -8.8062    0.6499   -0.9406 F   0  0  0  0  0  0  0  0  0  0  0  0
    3.0144   -2.8640   -1.9724 O   0  0  0  0  0  0  0  0  0  0  0  0
    5.3377    4.9356   -0.4210 O   0  0  0  0  0  0  0  0  0  0  0  0
    6.5927    3.0390   -0.3256 O   0  0  0  0  0  0  0  0  0  0  0  0
    3.5432   -1.3264   -0.3130 N   0  0  0  0  0  0  0  0  0  0  0  0
   -0.6360    1.3372    0.7778 N   0  0  0  0  0  0  0  0  0  0  0  0
   -3.4346    0.9918    0.3222 N   0  0  0  0  0  0  0  0  0  0  0  0
    3.1268    0.7949    0.9116 C   0  0  2  0  0  0  0  0  0  0  0  0
    4.3137    1.4288    0.1421 C   0  0  1  0  0  0  0  0  0  0  0  0
    3.3219   -0.7290    1.0100 C   0  0  0  0  0  0  0  0  0  0  0  0
    4.5409    0.7398   -1.2140 C   0  0  0  0  0  0  0  0  0  0  0  0
    1.7522    1.1183    0.3130 C   0  0  0  0  0  0  0  0  0  0  0  0
    4.6772   -0.7720   -1.0521 C   0  0  0  0  0  0  0  0  0  0  0  0
    1.6453   -2.8721   -0.0499 C   0  0  0  0  0  0  0  0  0  0  0  0
    4.1743    2.9402   -0.0379 C   0  0  0  0  0  0  0  0  0  0  0  0
    0.6655    1.0424    1.3760 C   0  0  0  0  0  0  0  0  0  0  0  0
    2.7911   -2.3612   -0.8681 C   0  0  0  0  0  0  0  0  0  0  0  0
    0.5276   -3.3648   -0.9703 C   0  0  0  0  0  0  0  0  0  0  0  0
    2.1423   -3.9851    0.8744 C   0  0  0  0  0  0  0  0  0  0  0  0
   -0.6168   -3.9894   -0.1762 C   0  0  0  0  0  0  0  0  0  0  0  0
    0.9962   -4.6118    1.6642 C   0  0  0  0  0  0  0  0  0  0  0  0
   -0.1205   -5.1000    0.7454 C   0  0  0  0  0  0  0  0  0  0  0  0
   -1.6084    1.7028    1.8148 C   0  0  0  0  0  0  0  0  0  0  0  0
   -1.1271    0.1811    0.0178 C   0  0  0  0  0  0  0  0  0  0  0  0
   -2.9605    2.0685    1.1970 C   0  0  0  0  0  0  0  0  0  0  0  0
   -2.4622    0.4968   -0.6604 C   0  0  0  0  0  0  0  0  0  0  0  0
    5.5069    3.5965   -0.2719 C   0  0  0  0  0  0  0  0  0  0  0  0
   -4.7942    0.9049    0.0030 C   0  0  0  0  0  0  0  0  0  0  0  0
   -5.5718    2.0616   -0.0560 C   0  0  0  0  0  0  0  0  0  0  0  0
   -5.3721   -0.3380   -0.2564 C   0  0  0  0  0  0  0  0  0  0  0  0
   -6.9271    1.9754   -0.3747 C   0  0  0  0  0  0  0  0  0  0  0  0
   -6.7275   -0.4241   -0.5748 C   0  0  0  0  0  0  0  0  0  0  0  0
   -7.5050    0.7326   -0.6341 C   0  0  0  0  0  0  0  0  0  0  0  0
    3.1625    1.2001    1.9326 H   0  0  0  0  0  0  0  0  0  0  0  0
    5.2071    1.2353    0.7543 H   0  0  0  0  0  0  0  0  0  0  0  0
    4.2339   -0.9335    1.5871 H   0  0  0  0  0  0  0  0  0  0  0  0
    2.5204   -1.1916    1.5816 H   0  0  0  0  0  0  0  0  0  0  0  0
    5.4402    1.1258   -1.7060 H   0  0  0  0  0  0  0  0  0  0  0  0
    3.6972    0.9531   -1.8826 H   0  0  0  0  0  0  0  0  0  0  0  0
    1.5544    0.4562   -0.5346 H   0  0  0  0  0  0  0  0  0  0  0  0
    1.7354    2.1352   -0.0934 H   0  0  0  0  0  0  0  0  0  0  0  0
    4.7676   -1.2407   -2.0372 H   0  0  0  0  0  0  0  0  0  0  0  0
    5.5862   -1.0169   -0.4901 H   0  0  0  0  0  0  0  0  0  0  0  0
    1.1886   -2.0702    0.5336 H   0  0  0  0  0  0  0  0  0  0  0  0
    3.5246    3.1803   -0.8867 H   0  0  0  0  0  0  0  0  0  0  0  0
    3.7543    3.3847    0.8722 H   0  0  0  0  0  0  0  0  0  0  0  0
    0.8990    1.7968    2.1392 H   0  0  0  0  0  0  0  0  0  0  0  0
    0.6559    0.0727    1.8875 H   0  0  0  0  0  0  0  0  0  0  0  0
    0.9069   -4.1160   -1.6754 H   0  0  0  0  0  0  0  0  0  0  0  0
    0.1441   -2.5360   -1.5779 H   0  0  0  0  0  0  0  0  0  0  0  0
    2.8949   -3.6013    1.5729 H   0  0  0  0  0  0  0  0  0  0  0  0
    2.6430   -4.7652    0.2855 H   0  0  0  0  0  0  0  0  0  0  0  0
   -1.3678   -4.3908   -0.8658 H   0  0  0  0  0  0  0  0  0  0  0  0
   -1.1141   -3.2154    0.4207 H   0  0  0  0  0  0  0  0  0  0  0  0
    0.5928   -3.8732    2.3679 H   0  0  0  0  0  0  0  0  0  0  0  0
    1.3743   -5.4490    2.2616 H   0  0  0  0  0  0  0  0  0  0  0  0
   -0.9538   -5.4795    1.3474 H   0  0  0  0  0  0  0  0  0  0  0  0
    0.2456   -5.9390    0.1410 H   0  0  0  0  0  0  0  0  0  0  0  0
   -1.2498    2.5710    2.3810 H   0  0  0  0  0  0  0  0  0  0  0  0
   -1.7404    0.8784    2.5287 H   0  0  0  0  0  0  0  0  0  0  0  0
   -1.2519   -0.6890    0.6764 H   0  0  0  0  0  0  0  0  0  0  0  0
   -0.4295   -0.1093   -0.7732 H   0  0  0  0  0  0  0  0  0  0  0  0
   -2.8622    2.9996    0.6240 H   0  0  0  0  0  0  0  0  0  0  0  0
   -3.6701    2.2455    2.0148 H   0  0  0  0  0  0  0  0  0  0  0  0
   -2.8145   -0.4143   -1.1575 H   0  0  0  0  0  0  0  0  0  0  0  0
   -2.3196    1.2560   -1.4404 H   0  0  0  0  0  0  0  0  0  0  0  0
    6.1896    5.3967   -0.5761 H   0  0  0  0  0  0  0  0  0  0  0  0
   -5.1528    3.0470    0.1258 H   0  0  0  0  0  0  0  0  0  0  0  0
   -4.7868   -1.2522   -0.2014 H   0  0  0  0  0  0  0  0  0  0  0  0
   -7.5324    2.8757   -0.4243 H   0  0  0  0  0  0  0  0  0  0  0  0
   -7.1786   -1.3917   -0.7738 H   0  0  0  0  0  0  0  0  0  0  0  0
  1 33  1  0  0  0  0
  2 17  2  0  0  0  0
  3 27  1  0  0  0  0
  3 67  1  0  0  0  0
  4 27  2  0  0  0  0
  5 10  1  0  0  0  0
  5 13  1  0  0  0  0
  5 17  1  0  0  0  0
  6 16  1  0  0  0  0
  6 23  1  0  0  0  0
  6 24  1  0  0  0  0
  7 25  1  0  0  0  0
  7 26  1  0  0  0  0
  7 28  1  0  0  0  0
  8  9  1  0  0  0  0
  8 10  1  0  0  0  0
  8 12  1  0  0  0  0
  8 34  1  0  0  0  0
  9 11  1  0  0  0  0
  9 15  1  0  0  0  0
  9 35  1  0  0  0  0
 10 36  1  0  0  0  0
 10 37  1  0  0  0  0
 11 13  1  0  0  0  0
 11 38  1  0  0  0  0
 11 39  1  0  0  0  0
 12 16  1  0  0  0  0
 12 40  1  0  0  0  0
 12 41  1  0  0  0  0
 13 42  1  0  0  0  0
 13 43  1  0  0  0  0
 14 17  1  0  0  0  0
 14 18  1  0  0  0  0
 14 19  1  0  0  0  0
 14 44  1  0  0  0  0
 15 27  1  0  0  0  0
 15 45  1  0  0  0  0
 15 46  1  0  0  0  0
 16 47  1  0  0  0  0
 16 48  1  0  0  0  0
 18 20  1  0  0  0  0
 18 49  1  0  0  0  0
 18 50  1  0  0  0  0
 19 21  1  0  0  0  0
 19 51  1  0  0  0  0
 19 52  1  0  0  0  0
 20 22  1  0  0  0  0
 20 53  1  0  0  0  0
 20 54  1  0  0  0  0
 21 22  1  0  0  0  0
 21 55  1  0  0  0  0
 21 56  1  0  0  0  0
 22 57  1  0  0  0  0
 22 58  1  0  0  0  0
 23 25  1  0  0  0  0
 23 59  1  0  0  0  0
 23 60  1  0  0  0  0
 24 26  1  0  0  0  0
 24 61  1  0  0  0  0
 24 62  1  0  0  0  0
 25 63  1  0  0  0  0
 25 64  1  0  0  0  0
 26 65  1  0  0  0  0
 26 66  1  0  0  0  0
 28 29  2  0  0  0  0
 28 30  1  0  0  0  0
 29 31  1  0  0  0  0
 29 68  1  0  0  0  0
 30 32  2  0  0  0  0
 30 69  1  0  0  0  0
 31 33  2  0  0  0  0
 31 70  1  0  0  0  0
 32 33  1  0  0  0  0
 32 71  1  0  0  0  0
M  END
> <PUBCHEM_COMPOUND_CID>
28959933

> <PUBCHEM_CONFORMER_RMSD>
1.2

> <PUBCHEM_CONFORMER_DIVERSEORDER>
1
130
147
79
59
12
114
184
42
120
142
162
154
111
57
60
160
61
169
122
148
126
75
118
72
31
44
172
51
173
140
33
115
99
104
78
109
113
135
146
102
36
86
156
141
10
7
66
179
43
139
85
158
29
53
129
91
97
40
64
123
180
73
143
20
81
145
89
74
149
101
80
166
116
151
71
4
58
150
6
30
110
23
87
134
82
181
112
37
177
100
13
63
178
38
174
186
182
107
185
76
103
138
54
17
183
168
70
136
98
108
39
18
125
93
41
131
9
95
68
163
117
3
127
155
5
176
132
157
21
52
94
49
170
164
137
77
16
46
65
24
175
92
22
26
14
187
55
88
128
62
119
67
133
159
161
106
8
45
167
105
56
121
48
27
153
15
28
25
96
32
69
165
144
84
50
35
47
11
90
171
124
34
83
2
152
19

> <PUBCHEM_MMFF94_PARTIAL_CHARGES>
29
1 -0.19
10 0.3
13 0.3
14 0.06
15 0.06
16 0.27
17 0.57
2 -0.57
23 0.27
24 0.27
25 0.37
26 0.37
27 0.66
28 0.1
29 -0.15
3 -0.65
30 -0.15
31 -0.15
32 -0.15
33 0.19
4 -0.57
5 -0.66
6 -0.81
67 0.5
68 0.15
69 0.15
7 -0.84
70 0.15
71 0.15

> <PUBCHEM_EFFECTIVE_ROTOR_COUNT>
11.6

> <PUBCHEM_PHARMACOPHORE_FEATURES>
10
1 2 acceptor
1 3 acceptor
1 4 acceptor
1 6 cation
1 7 cation
3 3 4 27 anion
6 14 18 19 20 21 22 rings
6 28 29 30 31 32 33 rings
6 5 8 9 10 11 13 rings
6 6 7 23 24 25 26 rings

> <PUBCHEM_HEAVY_ATOM_COUNT>
33

> <PUBCHEM_ATOM_DEF_STEREO_COUNT>
2

> <PUBCHEM_ATOM_UDEF_STEREO_COUNT>
0

> <PUBCHEM_BOND_DEF_STEREO_COUNT>
0

> <PUBCHEM_BOND_UDEF_STEREO_COUNT>
0

> <PUBCHEM_ISOTOPIC_ATOM_COUNT>
0

> <PUBCHEM_COMPONENT_COUNT>
1

> <PUBCHEM_CACTVS_TAUTO_COUNT>
1

> <PUBCHEM_CONFORMER_ID>
01B9E4BD00000001

> <PUBCHEM_MMFF94_ENERGY>
77.4499

> <PUBCHEM_FEATURE_SELFOVERLAP>
50.806

> <PUBCHEM_SHAPE_FINGERPRINT>
10673678 19 18335423516534718749
10675989 125 18337956692529713416
11135609 187 18341611559575701345
13150687 139 18340779221506148388
13165054 146 17972599068400741780
13533116 47 18130785621166767817
1361 2 18408886252104568661
13617811 41 18343012307535902049
13692114 37 18130496531576966642
14190465 44 18052806229680690992
14675020 138 18269537412796423704
15001296 14 18411415073657554487
15183329 4 18271525300324831281
15250474 111 18055068766711317987
15276724 80 17403750333864411888
15484559 13 18412831296104867196
15927050 60 18270112543420280671
16993438 75 18048038763719700354
17134984 74 18409445856921953827
17138139 8 17845073229415897295
18365409 1 18194123147029323191
19026451 147 18049438141231912131
19319366 153 18341324535284713007
19427546 62 18336828688516312776
20587220 46 15984817099794413287
21304303 94 18343588417347816918
21360442 67 18408040723995556707
23516275 137 17130738069807481551
23522609 53 17631476526259510057
23559900 14 18341323406699870105
23845131 108 18261677055699244426
239999 70 18129380410414274318
27425 322 17458913759594320304
3004659 81 18343017744526005489
4058900 60 18411426119569479009
4073 2 18408042927603501299
437795 163 18340479076475823167
5265222 85 18194118740883571825
6057620 51 18343017822727350113

> <PUBCHEM_SHAPE_MULTIPOLES>
639.3
17.59
6.49
1.32
32.43
5.94
0.17
-18.12
-6.45
-10.01
0.91
-0.47
0.54
-0.53

> <PUBCHEM_SHAPE_SELFOVERLAP>
1331.179

> <PUBCHEM_SHAPE_VOLUME>
362.7

> <PUBCHEM_COORDINATE_TYPE>
2
5
10

$$$$
