45784311
  -OEChem-12032416293D

 50 53  0     1  0  0  0  0  0999 V2000
   -7.6720   -0.2406    0.2930 S   0  0  0  0  0  0  0  0  0  0  0  0
    8.4575   -0.2629   -0.0914 O   0  0  0  0  0  0  0  0  0  0  0  0
   -8.3146    1.0562    0.4565 O   0  0  0  0  0  0  0  0  0  0  0  0
   -8.2341   -1.2142   -0.6323 O   0  0  0  0  0  0  0  0  0  0  0  0
   -0.9814   -0.1248   -0.3206 N   0  0  1  0  0  0  0  0  0  0  0  0
    3.6597   -1.1966    0.2026 N   0  0  0  0  0  0  0  0  0  0  0  0
    3.0836    0.9489    0.1308 N   0  0  0  0  0  0  0  0  0  0  0  0
    1.1969   -0.7230    0.3089 C   0  0  1  0  0  0  0  0  0  0  0  0
    0.4378   -0.1816    1.5328 C   0  0  0  0  0  0  0  0  0  0  0  0
    0.3560   -0.2815   -0.8964 C   0  0  0  0  0  0  0  0  0  0  0  0
   -0.7647    0.5546    0.9567 C   0  0  0  0  0  0  0  0  0  0  0  0
    2.6403   -0.2856    0.2123 C   0  0  0  0  0  0  0  0  0  0  0  0
   -1.8797    0.6138   -1.1958 C   0  0  0  0  0  0  0  0  0  0  0  0
   -3.3235    0.4014   -0.8255 C   0  0  0  0  0  0  0  0  0  0  0  0
    4.8393   -0.5038    0.1083 C   0  0  0  0  0  0  0  0  0  0  0  0
    4.4531    0.8329    0.0651 C   0  0  0  0  0  0  0  0  0  0  0  0
   -3.9629   -0.7904   -1.1666 C   0  0  0  0  0  0  0  0  0  0  0  0
   -4.0217    1.3963   -0.1411 C   0  0  0  0  0  0  0  0  0  0  0  0
    6.1705   -0.9190    0.0587 C   0  0  0  0  0  0  0  0  0  0  0  0
    5.4401    1.8281   -0.0334 C   0  0  0  0  0  0  0  0  0  0  0  0
   -5.3005   -0.9873   -0.8236 C   0  0  0  0  0  0  0  0  0  0  0  0
   -5.3592    1.1995    0.2020 C   0  0  0  0  0  0  0  0  0  0  0  0
   -5.9986    0.0077   -0.1393 C   0  0  0  0  0  0  0  0  0  0  0  0
    7.1396    0.0847   -0.0393 C   0  0  0  0  0  0  0  0  0  0  0  0
    6.7832    1.4345   -0.0845 C   0  0  0  0  0  0  0  0  0  0  0  0
   -7.6058   -0.9921    1.9037 C   0  0  0  0  0  0  0  0  0  0  0  0
    8.7611   -1.6549   -0.0415 C   0  0  0  0  0  0  0  0  0  0  0  0
    1.1690   -1.8210    0.3659 H   0  0  0  0  0  0  0  0  0  0  0  0
    0.1031   -1.0217    2.1542 H   0  0  0  0  0  0  0  0  0  0  0  0
    1.0436    0.4773    2.1639 H   0  0  0  0  0  0  0  0  0  0  0  0
    0.3707   -1.0373   -1.6892 H   0  0  0  0  0  0  0  0  0  0  0  0
    0.7241    0.6641   -1.3165 H   0  0  0  0  0  0  0  0  0  0  0  0
   -0.5162    1.6151    0.8206 H   0  0  0  0  0  0  0  0  0  0  0  0
   -1.6275    0.4799    1.6259 H   0  0  0  0  0  0  0  0  0  0  0  0
   -1.7641    0.2611   -2.2306 H   0  0  0  0  0  0  0  0  0  0  0  0
   -1.6361    1.6844   -1.2303 H   0  0  0  0  0  0  0  0  0  0  0  0
    3.5649   -2.2022    0.2553 H   0  0  0  0  0  0  0  0  0  0  0  0
   -3.4291   -1.5738   -1.6983 H   0  0  0  0  0  0  0  0  0  0  0  0
   -3.5343    2.3280    0.1335 H   0  0  0  0  0  0  0  0  0  0  0  0
    6.3798   -1.9799    0.0980 H   0  0  0  0  0  0  0  0  0  0  0  0
    5.1732    2.8795   -0.0693 H   0  0  0  0  0  0  0  0  0  0  0  0
   -5.7758   -1.9263   -1.0928 H   0  0  0  0  0  0  0  0  0  0  0  0
   -5.8820    1.9844    0.7413 H   0  0  0  0  0  0  0  0  0  0  0  0
    7.5548    2.1970   -0.1607 H   0  0  0  0  0  0  0  0  0  0  0  0
   -7.1118   -0.3072    2.5955 H   0  0  0  0  0  0  0  0  0  0  0  0
   -7.0595   -1.9346    1.8335 H   0  0  0  0  0  0  0  0  0  0  0  0
   -8.6302   -1.1794    2.2326 H   0  0  0  0  0  0  0  0  0  0  0  0
    8.4483   -2.1025    0.9081 H   0  0  0  0  0  0  0  0  0  0  0  0
    8.3538   -2.1883   -0.9071 H   0  0  0  0  0  0  0  0  0  0  0  0
    9.8508   -1.7496   -0.0937 H   0  0  0  0  0  0  0  0  0  0  0  0
  1  3  2  0  0  0  0
  1  4  2  0  0  0  0
  1 23  1  0  0  0  0
  1 26  1  0  0  0  0
  2 24  1  0  0  0  0
  2 27  1  0  0  0  0
  5 10  1  0  0  0  0
  5 11  1  0  0  0  0
  5 13  1  0  0  0  0
  6 12  1  0  0  0  0
  6 15  1  0  0  0  0
  6 37  1  0  0  0  0
  7 12  2  0  0  0  0
  7 16  1  0  0  0  0
  8  9  1  0  0  0  0
  8 10  1  0  0  0  0
  8 12  1  0  0  0  0
  8 28  1  0  0  0  0
  9 11  1  0  0  0  0
  9 29  1  0  0  0  0
  9 30  1  0  0  0  0
 10 31  1  0  0  0  0
 10 32  1  0  0  0  0
 11 33  1  0  0  0  0
 11 34  1  0  0  0  0
 13 14  1  0  0  0  0
 13 35  1  0  0  0  0
 13 36  1  0  0  0  0
 14 17  2  0  0  0  0
 14 18  1  0  0  0  0
 15 16  2  0  0  0  0
 15 19  1  0  0  0  0
 16 20  1  0  0  0  0
 17 21  1  0  0  0  0
 17 38  1  0  0  0  0
 18 22  2  0  0  0  0
 18 39  1  0  0  0  0
 19 24  2  0  0  0  0
 19 40  1  0  0  0  0
 20 25  2  0  0  0  0
 20 41  1  0  0  0  0
 21 23  2  0  0  0  0
 21 42  1  0  0  0  0
 22 23  1  0  0  0  0
 22 43  1  0  0  0  0
 24 25  1  0  0  0  0
 25 44  1  0  0  0  0
 26 45  1  0  0  0  0
 26 46  1  0  0  0  0
 26 47  1  0  0  0  0
 27 48  1  0  0  0  0
 27 49  1  0  0  0  0
 27 50  1  0  0  0  0
M  END
> <PUBCHEM_COMPOUND_CID>
45784311

> <PUBCHEM_CONFORMER_RMSD>
0.8

> <PUBCHEM_CONFORMER_DIVERSEORDER>
1
125
137
120
10
94
74
71
122
8
24
41
99
77
90
127
147
34
37
107
66
134
95
118
83
130
101
133
141
106
91
59
129
3
22
140
103
45
128
117
68
86
108
15
123
31
145
47
98
138
27
64
115
87
44
73
81
67
21
119
121
23
93
112
76
6
82
142
132
85
32
97
109
80
110
9
19
12
144
54
100
36
102
113
105
25
72
11
126
96
60
88
143
58
111
84
104
56
30
38
49
14
28
43
7
4
61
40
52
135
16
57
75
116
13
42
17
62
50
20
33
148
48
131
78
2
136
114
63
89
18
51
65
139
35
39
69
29
5
53
124
92
55
70
146
26
79
46

> <PUBCHEM_MMFF94_PARTIAL_CHARGES>
34
1 1.2
10 0.27
11 0.27
12 0.01
13 0.41
14 -0.14
15 -0.15
16 0.23
17 -0.15
18 -0.15
19 -0.15
2 -0.36
20 -0.15
21 -0.15
22 -0.15
23 -0.01
24 0.08
25 -0.15
26 0.11
27 0.28
3 -0.65
37 0.27
38 0.15
39 0.15
4 -0.65
40 0.15
41 0.15
42 0.15
43 0.15
44 0.15
5 -0.81
6 0.03
7 -0.57
8 0.18

> <PUBCHEM_EFFECTIVE_ROTOR_COUNT>
6

> <PUBCHEM_PHARMACOPHORE_FEATURES>
10
1 2 acceptor
1 3 acceptor
1 4 acceptor
1 5 cation
1 6 donor
3 6 7 12 cation
5 5 8 9 10 11 rings
5 6 7 12 15 16 rings
6 14 17 18 21 22 23 rings
6 15 16 19 20 24 25 rings

> <PUBCHEM_HEAVY_ATOM_COUNT>
27

> <PUBCHEM_ATOM_DEF_STEREO_COUNT>
1

> <PUBCHEM_ATOM_UDEF_STEREO_COUNT>
0

> <PUBCHEM_BOND_DEF_STEREO_COUNT>
0

> <PUBCHEM_BOND_UDEF_STEREO_COUNT>
0

> <PUBCHEM_ISOTOPIC_ATOM_COUNT>
0

> <PUBCHEM_COMPONENT_COUNT>
1

> <PUBCHEM_CACTVS_TAUTO_COUNT>
2

> <PUBCHEM_CONFORMER_ID>
02BA9CF700000001

> <PUBCHEM_MMFF94_ENERGY>
61.1158

> <PUBCHEM_FEATURE_SELFOVERLAP>
50.871

> <PUBCHEM_SHAPE_FINGERPRINT>
10 15 18343586240120644517
10299344 5 18201718466159034967
11135609 127 11599422729933273474
11135926 11 17560793304053426903
11315181 36 10737287931494034629
11524674 6 15626220256351027079
12089408 11 17988923387733594748
12104220 1 18040722450962277545
12166972 35 18335138700817217988
12236239 1 18059852870779429388
12730499 353 18113897148507999162
13533116 47 17241033307432103034
14123256 10 17240481403480425473
14251764 18 17846778525138142285
14251764 46 17894630349194769339
14344974 52 16443074928680881958
14849402 71 18337113491724166445
14856354 85 17632578284270244893
14933364 13 18412543210482378157
15183329 4 18272082790572569708
15419008 47 16226039011614973365
15461852 350 14707212132286497219
15510794 2 18260832592731279803
15716309 27 18411135840399954023
15849732 13 12107789605403118610
17093844 174 12823292412470123343
18335252 98 18409451370953041051
21095086 128 18410008840564999071
21150785 3 14273456976497504022
21267235 1 18411136914453137852
21315763 28 18412261731500876452
21521721 280 18334858350514504587
21792934 111 15626215810917729938
21792961 116 17632294523616792129
22224240 67 16805322205982134793
23035841 295 17917991685371218919
232437 2 18412544319369976039
23516275 137 17987256472652451399
23536379 177 18343299258521249620
23569943 247 17098325399286887922
249057 3 18411135861706050566
2747138 104 17530969098442511333
28498 318 11383839264001679184
328311 84 18261112959389779966
4073 2 18115027515133545338
4325135 7 18409728465273781701
4339292 15 14691992723285888557
5283156 175 17417813925017393350
5758199 1 18113336414108589763
59682541 35 17313106388325962793
5969126 39 13984654863744242159
59755656 520 18187357749279350814
6009941 240 11312049963580511341
6691757 9 13190348937665650945
9663363 56 15123504796240529043
9953998 17 18186525398187512153

> <PUBCHEM_SHAPE_MULTIPOLES>
526.95
29.03
1.43
1.1
0.95
0.18
0.21
-4.63
2.13
0.99
0.02
-1.76
-0.19
0.09

> <PUBCHEM_SHAPE_SELFOVERLAP>
1130.671

> <PUBCHEM_SHAPE_VOLUME>
295.1

> <PUBCHEM_COORDINATE_TYPE>
2
5
10

$$$$
