38027309
  -OEChem-12032416253D

 62 64  0     1  0  0  0  0  0999 V2000
    1.7097   -3.2174   -1.0500 O   0  0  0  0  0  0  0  0  0  0  0  0
   -1.8620    2.9790    0.2369 O   0  0  0  0  0  0  0  0  0  0  0  0
    2.5445   -1.7061    0.5157 N   0  0  0  0  0  0  0  0  0  0  0  0
   -2.5371    0.8083    0.7200 N   0  0  0  0  0  0  0  0  0  0  0  0
    1.5496    0.6931   -1.0000 C   0  0  1  0  0  0  0  0  0  0  0  0
    2.9564    0.5277   -0.3726 C   0  0  1  0  0  0  0  0  0  0  0  0
    0.9583    2.0637   -0.6367 C   0  0  0  0  0  0  0  0  0  0  0  0
    0.8399    2.2620    0.8861 C   0  0  2  0  0  0  0  0  0  0  0  0
    1.5833    0.5299   -2.5229 C   0  0  0  0  0  0  0  0  0  0  0  0
    2.1110    1.8610    1.6068 C   0  0  0  0  0  0  0  0  0  0  0  0
    3.0516    1.0968    1.0237 C   0  0  0  0  0  0  0  0  0  0  0  0
    3.3844   -0.9441   -0.3543 C   0  0  0  0  0  0  0  0  0  0  0  0
    0.9742   -3.4349    1.1739 C   0  0  0  0  0  0  0  0  0  0  0  0
   -0.3708    1.5088    1.4488 C   0  0  0  0  0  0  0  0  0  0  0  0
   -0.3708   -2.8716    1.5274 C   0  0  0  0  0  0  0  0  0  0  0  0
   -0.2730   -4.1848    0.8078 C   0  0  0  0  0  0  0  0  0  0  0  0
    0.2150    0.1002   -3.0423 C   0  0  0  0  0  0  0  0  0  0  0  0
    2.0310    1.8278   -3.1872 C   0  0  0  0  0  0  0  0  0  0  0  0
   -3.8405    0.8742    0.1061 C   0  0  0  0  0  0  0  0  0  0  0  0
    1.7737   -2.7838    0.0944 C   0  0  0  0  0  0  0  0  0  0  0  0
    2.2980    2.3969    2.9989 C   0  0  0  0  0  0  0  0  0  0  0  0
   -4.8208   -0.0890    0.7632 C   0  0  0  0  0  0  0  0  0  0  0  0
   -3.8127    0.3936   -1.3399 C   0  0  0  0  0  0  0  0  0  0  0  0
   -1.6512    1.8757    0.7333 C   0  0  0  0  0  0  0  0  0  0  0  0
   -4.5250   -1.4388    0.1153 C   0  0  0  0  0  0  0  0  0  0  0  0
   -3.9167   -1.1281   -1.2525 C   0  0  0  0  0  0  0  0  0  0  0  0
    0.8845   -0.0751   -0.5866 H   0  0  0  0  0  0  0  0  0  0  0  0
    3.6931    1.0732   -0.9755 H   0  0  0  0  0  0  0  0  0  0  0  0
    0.0056    2.2288   -1.1449 H   0  0  0  0  0  0  0  0  0  0  0  0
    1.6246    2.8664   -0.9807 H   0  0  0  0  0  0  0  0  0  0  0  0
    0.6812    3.3376    1.0482 H   0  0  0  0  0  0  0  0  0  0  0  0
    2.2892   -0.2574   -2.8067 H   0  0  0  0  0  0  0  0  0  0  0  0
    3.9662    0.8793    1.5721 H   0  0  0  0  0  0  0  0  0  0  0  0
    4.4054   -1.0360    0.0356 H   0  0  0  0  0  0  0  0  0  0  0  0
    3.3923   -1.3812   -1.3566 H   0  0  0  0  0  0  0  0  0  0  0  0
    1.5625   -3.8440    1.9897 H   0  0  0  0  0  0  0  0  0  0  0  0
   -0.5207    1.7567    2.5067 H   0  0  0  0  0  0  0  0  0  0  0  0
   -0.2019    0.4269    1.3985 H   0  0  0  0  0  0  0  0  0  0  0  0
   -0.7428   -2.0227    0.9673 H   0  0  0  0  0  0  0  0  0  0  0  0
   -0.6670   -2.8865    2.5690 H   0  0  0  0  0  0  0  0  0  0  0  0
   -0.5028   -5.0836    1.3673 H   0  0  0  0  0  0  0  0  0  0  0  0
   -0.5977   -4.2107   -0.2250 H   0  0  0  0  0  0  0  0  0  0  0  0
   -4.2004    1.9068    0.1676 H   0  0  0  0  0  0  0  0  0  0  0  0
   -0.5567    0.8515   -2.8499 H   0  0  0  0  0  0  0  0  0  0  0  0
   -0.1035   -0.8401   -2.5792 H   0  0  0  0  0  0  0  0  0  0  0  0
    0.2513   -0.0628   -4.1250 H   0  0  0  0  0  0  0  0  0  0  0  0
    1.2667    2.6117   -3.1612 H   0  0  0  0  0  0  0  0  0  0  0  0
    2.2262    1.6385   -4.2502 H   0  0  0  0  0  0  0  0  0  0  0  0
    2.9629    2.2179   -2.7675 H   0  0  0  0  0  0  0  0  0  0  0  0
    2.5439   -1.4755    1.5054 H   0  0  0  0  0  0  0  0  0  0  0  0
    2.2307    3.4897    2.9976 H   0  0  0  0  0  0  0  0  0  0  0  0
    3.2739    2.1277    3.4170 H   0  0  0  0  0  0  0  0  0  0  0  0
    1.5317    2.0009    3.6720 H   0  0  0  0  0  0  0  0  0  0  0  0
   -5.8489    0.2083    0.5225 H   0  0  0  0  0  0  0  0  0  0  0  0
   -4.7277   -0.1292    1.8531 H   0  0  0  0  0  0  0  0  0  0  0  0
   -2.9210    0.7113   -1.8888 H   0  0  0  0  0  0  0  0  0  0  0  0
   -4.6898    0.7812   -1.8729 H   0  0  0  0  0  0  0  0  0  0  0  0
   -5.4300   -2.0486    0.0304 H   0  0  0  0  0  0  0  0  0  0  0  0
   -3.8063   -2.0035    0.7208 H   0  0  0  0  0  0  0  0  0  0  0  0
   -2.9233   -1.5851   -1.3302 H   0  0  0  0  0  0  0  0  0  0  0  0
   -4.5261   -1.5298   -2.0685 H   0  0  0  0  0  0  0  0  0  0  0  0
   -2.2511   -0.0769    1.1281 H   0  0  0  0  0  0  0  0  0  0  0  0
  1 20  2  0  0  0  0
  2 24  2  0  0  0  0
  3 12  1  0  0  0  0
  3 20  1  0  0  0  0
  3 50  1  0  0  0  0
  4 19  1  0  0  0  0
  4 24  1  0  0  0  0
  4 62  1  0  0  0  0
  5  6  1  0  0  0  0
  5  7  1  0  0  0  0
  5  9  1  0  0  0  0
  5 27  1  0  0  0  0
  6 11  1  0  0  0  0
  6 12  1  0  0  0  0
  6 28  1  0  0  0  0
  7  8  1  0  0  0  0
  7 29  1  0  0  0  0
  7 30  1  0  0  0  0
  8 10  1  0  0  0  0
  8 14  1  0  0  0  0
  8 31  1  0  0  0  0
  9 17  1  0  0  0  0
  9 18  1  0  0  0  0
  9 32  1  0  0  0  0
 10 11  2  0  0  0  0
 10 21  1  0  0  0  0
 11 33  1  0  0  0  0
 12 34  1  0  0  0  0
 12 35  1  0  0  0  0
 13 15  1  0  0  0  0
 13 16  1  0  0  0  0
 13 20  1  0  0  0  0
 13 36  1  0  0  0  0
 14 24  1  0  0  0  0
 14 37  1  0  0  0  0
 14 38  1  0  0  0  0
 15 16  1  0  0  0  0
 15 39  1  0  0  0  0
 15 40  1  0  0  0  0
 16 41  1  0  0  0  0
 16 42  1  0  0  0  0
 17 44  1  0  0  0  0
 17 45  1  0  0  0  0
 17 46  1  0  0  0  0
 18 47  1  0  0  0  0
 18 48  1  0  0  0  0
 18 49  1  0  0  0  0
 19 22  1  0  0  0  0
 19 23  1  0  0  0  0
 19 43  1  0  0  0  0
 21 51  1  0  0  0  0
 21 52  1  0  0  0  0
 21 53  1  0  0  0  0
 22 25  1  0  0  0  0
 22 54  1  0  0  0  0
 22 55  1  0  0  0  0
 23 26  1  0  0  0  0
 23 56  1  0  0  0  0
 23 57  1  0  0  0  0
 25 26  1  0  0  0  0
 25 58  1  0  0  0  0
 25 59  1  0  0  0  0
 26 60  1  0  0  0  0
 26 61  1  0  0  0  0
M  END
> <PUBCHEM_COMPOUND_CID>
38027309

> <PUBCHEM_CONFORMER_RMSD>
1

> <PUBCHEM_CONFORMER_DIVERSEORDER>
1
35
135
50
93
125
127
109
19
104
128
39
88
68
15
29
65
30
108
81
27
115
63
73
34
100
110
129
123
18
118
42
64
101
113
86
52
37
97
4
124
48
41
62
70
132
95
61
66
13
72
134
59
9
60
87
122
23
12
16
69
8
112
74
92
99
106
120
38
17
84
103
89
53
83
90
102
6
33
119
79
111
40
131
55
121
116
67
80
71
36
57
32
10
20
82
98
54
126
77
49
75
45
46
91
107
76
78
85
133
44
114
96
130
51
94
2
3
47
43
21
56
11
24
5
117
105
7
25
58
22
14
26
31
28

> <PUBCHEM_MMFF94_PARTIAL_CHARGES>
25
1 -0.57
10 -0.28
11 -0.29
12 0.3
13 -0.1
14 0.06
15 -0.2
16 -0.2
19 0.3
2 -0.57
20 0.63
21 0.14
24 0.57
3 -0.73
33 0.15
36 0.1
39 0.1
4 -0.73
40 0.1
41 0.1
42 0.1
50 0.37
6 0.14
62 0.37
8 0.14

> <PUBCHEM_EFFECTIVE_ROTOR_COUNT>
11.4

> <PUBCHEM_PHARMACOPHORE_FEATURES>
7
1 1 acceptor
1 2 acceptor
1 3 donor
1 4 donor
3 9 17 18 hydrophobe
5 19 22 23 25 26 rings
6 5 6 7 8 10 11 rings

> <PUBCHEM_HEAVY_ATOM_COUNT>
26

> <PUBCHEM_ATOM_DEF_STEREO_COUNT>
3

> <PUBCHEM_ATOM_UDEF_STEREO_COUNT>
0

> <PUBCHEM_BOND_DEF_STEREO_COUNT>
0

> <PUBCHEM_BOND_UDEF_STEREO_COUNT>
0

> <PUBCHEM_ISOTOPIC_ATOM_COUNT>
0

> <PUBCHEM_COMPONENT_COUNT>
1

> <PUBCHEM_CACTVS_TAUTO_COUNT>
4

> <PUBCHEM_CONFORMER_ID>
0244402D00000001

> <PUBCHEM_MMFF94_ENERGY>
45.8269

> <PUBCHEM_FEATURE_SELFOVERLAP>
35.52

> <PUBCHEM_SHAPE_FINGERPRINT>
10064457 181 18263078971441506990
11370993 70 18261106426037589015
12156800 1 17470175124921000460
12539773 59 16534562734488205323
13122387 1 17832705673750950955
13583140 156 18128233632808653205
14787075 74 18272653433487794280
14863182 85 18334576871126853513
16114785 44 16118777512541719576
17921350 177 16443889665668461975
20691752 17 18339073908450559101
20764821 26 17904487655511060107
20775530 9 18046626698831891347
20905425 154 18200035014893190485
21304303 282 16163294551995757420
23419403 2 17613670940152564746
238 59 18261969491157655619
25222932 49 17842535604477888807
3027735 51 15308988718548898509
3052486 1 17830457541490644074
35225 105 17832709354321535759
392239 28 17983848991991690338
463206 1 18411424981840735683

> <PUBCHEM_SHAPE_MULTIPOLES>
513.37
7.02
4.47
2.74
9.74
5.15
-1.52
-0.79
-0.05
-1.28
1.93
-2.08
-1.58
0.35

> <PUBCHEM_SHAPE_SELFOVERLAP>
1045.408

> <PUBCHEM_SHAPE_VOLUME>
298.1

> <PUBCHEM_COORDINATE_TYPE>
2
5
10

$$$$
