44716382
  -OEChem-12032416343D

 75 80  0     1  0  0  0  0  0999 V2000
    4.3717    2.1302   -2.9633 O   0  0  0  0  0  0  0  0  0  0  0  0
   -4.1469   -2.9638   -0.3273 O   0  0  0  0  0  0  0  0  0  0  0  0
    0.2979   -3.9423   -0.4352 N   0  0  2  0  0  0  0  0  0  0  0  0
    3.4151   -0.5833    1.1501 N   0  0  2  0  0  0  0  0  0  0  0  0
    4.3067    1.9071   -0.6333 N   0  0  0  0  0  0  0  0  0  0  0  0
   -2.5196   -1.7308    0.7700 N   0  0  0  0  0  0  0  0  0  0  0  0
   -7.1502    2.6435    0.1172 N   0  0  0  0  0  0  0  0  0  0  0  0
    1.6162   -1.7473   -0.8945 C   0  0  2  0  0  0  0  0  0  0  0  0
    2.2828   -2.5651    0.2352 C   0  0  2  0  0  0  0  0  0  0  0  0
    0.1550   -1.4472   -0.5126 C   0  0  0  0  0  0  0  0  0  0  0  0
   -0.6244   -2.7756   -0.3918 C   0  0  2  0  0  0  0  0  0  0  0  0
    1.3828   -3.7778    0.5625 C   0  0  0  0  0  0  0  0  0  0  0  0
    1.5853   -2.6504   -2.1423 C   0  0  0  0  0  0  0  0  0  0  0  0
    2.5840   -1.7399    1.4749 C   0  0  0  0  0  0  0  0  0  0  0  0
    0.9135   -3.9878   -1.7838 C   0  0  0  0  0  0  0  0  0  0  0  0
    5.7383    0.2223    0.6602 C   0  0  2  0  0  0  0  0  0  0  0  0
    4.1876    1.6810    1.8717 C   0  0  1  0  0  0  0  0  0  0  0  0
    4.8147   -0.9795    0.9517 C   0  0  0  0  0  0  0  0  0  0  0  0
    3.2924    0.4592    2.1801 C   0  0  0  0  0  0  0  0  0  0  0  0
    5.6459    1.2375    1.7920 C   0  0  0  0  0  0  0  0  0  0  0  0
   -1.5300   -2.7931    0.8418 C   0  0  0  0  0  0  0  0  0  0  0  0
    5.3956    0.9216   -0.6623 C   0  0  0  0  0  0  0  0  0  0  0  0
    3.7550    2.3429    0.5765 C   0  0  0  0  0  0  0  0  0  0  0  0
    2.8369    3.3246    0.5856 C   0  0  0  0  0  0  0  0  0  0  0  0
    3.9159    2.4581   -1.8677 C   0  0  0  0  0  0  0  0  0  0  0  0
    2.3923    3.9259   -0.6400 C   0  0  0  0  0  0  0  0  0  0  0  0
    2.8794    3.5271   -1.8178 C   0  0  0  0  0  0  0  0  0  0  0  0
   -3.7560   -1.9171    0.1829 C   0  0  0  0  0  0  0  0  0  0  0  0
   -4.6434   -0.7259    0.1661 C   0  0  0  0  0  0  0  0  0  0  0  0
   -5.6118   -0.5916   -0.8289 C   0  0  0  0  0  0  0  0  0  0  0  0
   -4.5079    0.2589    1.1446 C   0  0  0  0  0  0  0  0  0  0  0  0
   -6.4443    0.5272   -0.8456 C   0  0  0  0  0  0  0  0  0  0  0  0
   -5.3403    1.3779    1.1281 C   0  0  0  0  0  0  0  0  0  0  0  0
   -6.3086    1.5120    0.1329 C   0  0  0  0  0  0  0  0  0  0  0  0
   -8.1600    2.7931   -0.9118 C   0  0  0  0  0  0  0  0  0  0  0  0
   -7.0216    3.6683    1.1343 C   0  0  0  0  0  0  0  0  0  0  0  0
    2.1558   -0.8228   -1.1228 H   0  0  0  0  0  0  0  0  0  0  0  0
    3.2249   -2.9714   -0.1562 H   0  0  0  0  0  0  0  0  0  0  0  0
   -0.3057   -0.8283   -1.2932 H   0  0  0  0  0  0  0  0  0  0  0  0
    0.1195   -0.8598    0.4107 H   0  0  0  0  0  0  0  0  0  0  0  0
   -1.2911   -2.8531   -1.2635 H   0  0  0  0  0  0  0  0  0  0  0  0
    1.9955   -4.6890    0.5756 H   0  0  0  0  0  0  0  0  0  0  0  0
    0.9624   -3.7134    1.5723 H   0  0  0  0  0  0  0  0  0  0  0  0
    2.6029   -2.8307   -2.5083 H   0  0  0  0  0  0  0  0  0  0  0  0
    1.0325   -2.1551   -2.9496 H   0  0  0  0  0  0  0  0  0  0  0  0
    1.6357   -1.4065    1.9146 H   0  0  0  0  0  0  0  0  0  0  0  0
    3.0581   -2.3639    2.2445 H   0  0  0  0  0  0  0  0  0  0  0  0
    0.1525   -4.2359   -2.5341 H   0  0  0  0  0  0  0  0  0  0  0  0
    1.6463   -4.8035   -1.8299 H   0  0  0  0  0  0  0  0  0  0  0  0
    6.7652   -0.1585    0.5927 H   0  0  0  0  0  0  0  0  0  0  0  0
    4.0933    2.3953    2.7002 H   0  0  0  0  0  0  0  0  0  0  0  0
    4.9047   -1.6756    0.1107 H   0  0  0  0  0  0  0  0  0  0  0  0
    5.1938   -1.5020    1.8407 H   0  0  0  0  0  0  0  0  0  0  0  0
    2.2480    0.7912    2.2447 H   0  0  0  0  0  0  0  0  0  0  0  0
    3.5621    0.0558    3.1658 H   0  0  0  0  0  0  0  0  0  0  0  0
    5.9625    0.7857    2.7400 H   0  0  0  0  0  0  0  0  0  0  0  0
    6.3081    2.0921    1.6051 H   0  0  0  0  0  0  0  0  0  0  0  0
   -0.9686   -2.6312    1.7673 H   0  0  0  0  0  0  0  0  0  0  0  0
   -2.0490   -3.7550    0.9233 H   0  0  0  0  0  0  0  0  0  0  0  0
    6.2821    1.4717   -1.0066 H   0  0  0  0  0  0  0  0  0  0  0  0
    5.1772    0.1838   -1.4447 H   0  0  0  0  0  0  0  0  0  0  0  0
   -2.2344   -0.8201    1.1132 H   0  0  0  0  0  0  0  0  0  0  0  0
    2.3883    3.6761    1.5087 H   0  0  0  0  0  0  0  0  0  0  0  0
    1.6418    4.7064   -0.5848 H   0  0  0  0  0  0  0  0  0  0  0  0
    2.5500    3.9685   -2.7508 H   0  0  0  0  0  0  0  0  0  0  0  0
   -5.7293   -1.3461   -1.6025 H   0  0  0  0  0  0  0  0  0  0  0  0
   -3.7903    0.1785    1.9557 H   0  0  0  0  0  0  0  0  0  0  0  0
   -7.1811    0.5859   -1.6406 H   0  0  0  0  0  0  0  0  0  0  0  0
   -5.2003    2.1125    1.9149 H   0  0  0  0  0  0  0  0  0  0  0  0
   -8.7286    3.7217   -0.7892 H   0  0  0  0  0  0  0  0  0  0  0  0
   -8.8878    1.9750   -0.8740 H   0  0  0  0  0  0  0  0  0  0  0  0
   -7.7065    2.8358   -1.9084 H   0  0  0  0  0  0  0  0  0  0  0  0
   -7.7436    4.4790    0.9857 H   0  0  0  0  0  0  0  0  0  0  0  0
   -6.0277    4.1289    1.1089 H   0  0  0  0  0  0  0  0  0  0  0  0
   -7.2126    3.2607    2.1333 H   0  0  0  0  0  0  0  0  0  0  0  0
  1 25  2  0  0  0  0
  2 28  2  0  0  0  0
  3 11  1  0  0  0  0
  3 12  1  0  0  0  0
  3 15  1  0  0  0  0
  4 14  1  0  0  0  0
  4 18  1  0  0  0  0
  4 19  1  0  0  0  0
  5 22  1  0  0  0  0
  5 23  1  0  0  0  0
  5 25  1  0  0  0  0
  6 21  1  0  0  0  0
  6 28  1  0  0  0  0
  6 62  1  0  0  0  0
  7 34  1  0  0  0  0
  7 35  1  0  0  0  0
  7 36  1  0  0  0  0
  8  9  1  0  0  0  0
  8 10  1  0  0  0  0
  8 13  1  0  0  0  0
  8 37  1  0  0  0  0
  9 12  1  0  0  0  0
  9 14  1  0  0  0  0
  9 38  1  0  0  0  0
 10 11  1  0  0  0  0
 10 39  1  0  0  0  0
 10 40  1  0  0  0  0
 11 21  1  0  0  0  0
 11 41  1  0  0  0  0
 12 42  1  0  0  0  0
 12 43  1  0  0  0  0
 13 15  1  0  0  0  0
 13 44  1  0  0  0  0
 13 45  1  0  0  0  0
 14 46  1  0  0  0  0
 14 47  1  0  0  0  0
 15 48  1  0  0  0  0
 15 49  1  0  0  0  0
 16 18  1  0  0  0  0
 16 20  1  0  0  0  0
 16 22  1  0  0  0  0
 16 50  1  0  0  0  0
 17 19  1  0  0  0  0
 17 20  1  0  0  0  0
 17 23  1  0  0  0  0
 17 51  1  0  0  0  0
 18 52  1  0  0  0  0
 18 53  1  0  0  0  0
 19 54  1  0  0  0  0
 19 55  1  0  0  0  0
 20 56  1  0  0  0  0
 20 57  1  0  0  0  0
 21 58  1  0  0  0  0
 21 59  1  0  0  0  0
 22 60  1  0  0  0  0
 22 61  1  0  0  0  0
 23 24  2  0  0  0  0
 24 26  1  0  0  0  0
 24 63  1  0  0  0  0
 25 27  1  0  0  0  0
 26 27  2  0  0  0  0
 26 64  1  0  0  0  0
 27 65  1  0  0  0  0
 28 29  1  0  0  0  0
 29 30  2  0  0  0  0
 29 31  1  0  0  0  0
 30 32  1  0  0  0  0
 30 66  1  0  0  0  0
 31 33  2  0  0  0  0
 31 67  1  0  0  0  0
 32 34  2  0  0  0  0
 32 68  1  0  0  0  0
 33 34  1  0  0  0  0
 33 69  1  0  0  0  0
 35 70  1  0  0  0  0
 35 71  1  0  0  0  0
 35 72  1  0  0  0  0
 36 73  1  0  0  0  0
 36 74  1  0  0  0  0
 36 75  1  0  0  0  0
M  END
> <PUBCHEM_COMPOUND_CID>
44716382

> <PUBCHEM_CONFORMER_RMSD>
1

> <PUBCHEM_CONFORMER_DIVERSEORDER>
1
16
15
68
32
50
72
73
90
67
89
66
78
88
17
42
45
52
75
47
57
41
80
8
12
79
34
48
40
13
55
77
11
6
70
63
86
82
21
60
3
9
49
53
25
24
74
71
84
26
51
56
36
81
4
76
19
37
27
85
20
31
83
14
23
43
38
39
22
65
18
59
87
61
62
33
35
10
54
64
2
46
29
69
7
5
44
58
28
30

> <PUBCHEM_MMFF94_PARTIAL_CHARGES>
38
1 -0.57
11 0.27
12 0.27
14 0.27
15 0.27
17 0.14
18 0.27
19 0.27
2 -0.57
21 0.3
22 0.3
23 -0.03
24 -0.15
25 0.62
26 -0.15
27 -0.14
28 0.54
29 0.09
3 -0.81
30 -0.15
31 -0.15
32 -0.15
33 -0.15
34 0.1
35 0.37
36 0.37
4 -0.81
5 -0.47
6 -0.73
62 0.37
63 0.15
64 0.15
65 0.15
66 0.15
67 0.15
68 0.15
69 0.15
7 -0.84

> <PUBCHEM_EFFECTIVE_ROTOR_COUNT>
9.2

> <PUBCHEM_PHARMACOPHORE_FEATURES>
11
1 1 acceptor
1 2 acceptor
1 3 cation
1 4 cation
1 6 donor
1 7 cation
6 29 30 31 32 33 34 rings
6 4 16 17 18 19 20 rings
6 5 16 17 20 22 23 rings
6 5 23 24 25 26 27 rings
8 3 8 9 10 11 12 13 15 rings

> <PUBCHEM_HEAVY_ATOM_COUNT>
36

> <PUBCHEM_ATOM_DEF_STEREO_COUNT>
5

> <PUBCHEM_ATOM_UDEF_STEREO_COUNT>
0

> <PUBCHEM_BOND_DEF_STEREO_COUNT>
0

> <PUBCHEM_BOND_UDEF_STEREO_COUNT>
0

> <PUBCHEM_ISOTOPIC_ATOM_COUNT>
0

> <PUBCHEM_COMPONENT_COUNT>
1

> <PUBCHEM_CACTVS_TAUTO_COUNT>
6

> <PUBCHEM_CONFORMER_ID>
02AA515E00000001

> <PUBCHEM_MMFF94_ENERGY>
108.2645

> <PUBCHEM_FEATURE_SELFOVERLAP>
57.376

> <PUBCHEM_SHAPE_FINGERPRINT>
10673678 19 18272929419206423555
10674148 151 17824836770591247372
10763959 59 18410293627394232450
10811444 77 18409728443999703905
12104220 4 17967817145378709433
12422481 6 17821721758504650301
12758862 65 11674886576338536692
12925494 130 18409444817381138625
12975358 362 18265633013259304633
13512321 179 18335712589519111292
13553639 21 10735888295931877941
13617811 41 16618136132907941790
13782708 43 9007053574410339755
13944108 23 18268151954814729857
14117953 113 18338798918668646332
14268113 111 17392473291649958645
14950920 106 17025137777852015826
15064981 194 18131641059099649283
15082195 135 17702949106901421607
15198563 99 17483097629401360031
16112460 7 18338799988522094369
16708801 149 18266742561739906357
16988056 13 18128828438782143134
20691028 202 18338800014518387369
20715895 44 18412260614756431035
22033318 11 18113888347845684128
22122407 14 18115590494523789002
241686 156 18335700593871113229
245318 6 18261398913553195893
2748736 6 18409727366136797733
2838139 119 18200304541144945842
3103668 31 16827286836317705455
394071 54 18339364037992028425
4066623 53 17838630954898418294
4144715 1 18189062052231746122
5109719 28 18336275566012126041
550186 72 17761774374999891587
57591035 28 17906755617508311782
6677587 24 15840695456889392640

> <PUBCHEM_SHAPE_MULTIPOLES>
704.22
18.87
6.05
2
36.53
0.58
-0.62
-20.41
1.82
-0.08
-1.85
-2.73
-0.71
-1.35

> <PUBCHEM_SHAPE_SELFOVERLAP>
1521.709

> <PUBCHEM_SHAPE_VOLUME>
375.9

> <PUBCHEM_COORDINATE_TYPE>
2
5
10

$$$$
