44716868
  -OEChem-12032416173D

 70 72  0     1  0  0  0  0  0999 V2000
    6.8474   -0.7290   -1.9542 F   0  0  0  0  0  0  0  0  0  0  0  0
    3.5858   -4.1021   -1.3126 F   0  0  0  0  0  0  0  0  0  0  0  0
   -4.5149   -0.4904   -0.1506 O   0  0  0  0  0  0  0  0  0  0  0  0
    1.0985    4.0787    0.1173 O   0  0  0  0  0  0  0  0  0  0  0  0
   -5.0014    1.8384   -1.5210 O   0  0  0  0  0  0  0  0  0  0  0  0
    3.8720    2.0534    1.5856 O   0  0  0  0  0  0  0  0  0  0  0  0
   -4.0290   -2.7040    0.2213 O   0  0  0  0  0  0  0  0  0  0  0  0
    2.9993   -0.0272    2.1429 N   0  0  0  0  0  0  0  0  0  0  0  0
   -6.2156   -1.9479    0.0480 N   0  0  0  0  0  0  0  0  0  0  0  0
   -0.7843    1.6056    0.5765 C   0  0  2  0  0  0  0  0  0  0  0  0
   -1.2854    1.4203   -0.9079 C   0  0  1  0  0  0  0  0  0  0  0  0
   -2.7978    1.0174   -1.0991 C   0  0  1  0  0  0  0  0  0  0  0  0
    0.7980    1.6837    0.5243 C   0  0  1  0  0  0  0  0  0  0  0  0
   -1.2067    0.3574    1.3972 C   0  0  0  0  0  0  0  0  0  0  0  0
   -0.8123    2.5895   -1.7996 C   0  0  0  0  0  0  0  0  0  0  0  0
   -3.1195   -0.1903   -0.1677 C   0  0  1  0  0  0  0  0  0  0  0  0
    1.3287    2.7825   -0.4255 C   0  0  1  0  0  0  0  0  0  0  0  0
   -2.6879    0.0165    1.2800 C   0  0  0  0  0  0  0  0  0  0  0  0
    0.7134    2.6902   -1.8189 C   0  0  0  0  0  0  0  0  0  0  0  0
   -1.3673    2.8578    1.2757 C   0  0  0  0  0  0  0  0  0  0  0  0
   -3.7911    2.1769   -0.8802 C   0  0  0  0  0  0  0  0  0  0  0  0
   -3.0171    0.5453   -2.5658 C   0  0  0  0  0  0  0  0  0  0  0  0
    1.4853    1.8017    1.8942 C   0  0  0  0  0  0  0  0  0  0  0  0
    2.9183    1.3262    1.8496 C   0  0  0  0  0  0  0  0  0  0  0  0
   -4.8443   -1.8025    0.0557 C   0  0  0  0  0  0  0  0  0  0  0  0
    4.2473   -0.7550    2.1719 C   0  0  0  0  0  0  0  0  0  0  0  0
   -6.8893   -3.2116    0.2386 C   0  0  0  0  0  0  0  0  0  0  0  0
    4.5883   -1.3394    0.8316 C   0  0  0  0  0  0  0  0  0  0  0  0
   -6.9629   -3.5852    1.7046 C   0  0  0  0  0  0  0  0  0  0  0  0
    3.9152   -2.4715    0.3728 C   0  0  0  0  0  0  0  0  0  0  0  0
    5.5787   -0.7506    0.0453 C   0  0  0  0  0  0  0  0  0  0  0  0
    5.8959   -1.2938   -1.1995 C   0  0  0  0  0  0  0  0  0  0  0  0
    4.2322   -3.0149   -0.8722 C   0  0  0  0  0  0  0  0  0  0  0  0
    5.2227   -2.4261   -1.6582 C   0  0  0  0  0  0  0  0  0  0  0  0
   -0.7328    0.5403   -1.2788 H   0  0  0  0  0  0  0  0  0  0  0  0
    1.1301    0.7297    0.0852 H   0  0  0  0  0  0  0  0  0  0  0  0
   -0.6243   -0.5137    1.0688 H   0  0  0  0  0  0  0  0  0  0  0  0
   -0.9851    0.4949    2.4613 H   0  0  0  0  0  0  0  0  0  0  0  0
   -1.1423    2.4469   -2.8333 H   0  0  0  0  0  0  0  0  0  0  0  0
   -1.2389    3.5417   -1.4706 H   0  0  0  0  0  0  0  0  0  0  0  0
   -2.5604   -1.0497   -0.5660 H   0  0  0  0  0  0  0  0  0  0  0  0
    2.4145    2.6800   -0.5330 H   0  0  0  0  0  0  0  0  0  0  0  0
   -3.3092    0.7801    1.7609 H   0  0  0  0  0  0  0  0  0  0  0  0
   -2.8804   -0.8955    1.8592 H   0  0  0  0  0  0  0  0  0  0  0  0
    0.9986    3.5641   -2.4168 H   0  0  0  0  0  0  0  0  0  0  0  0
    1.1168    1.8063   -2.3289 H   0  0  0  0  0  0  0  0  0  0  0  0
   -0.8876    3.0283    2.2454 H   0  0  0  0  0  0  0  0  0  0  0  0
   -2.4323    2.7647    1.4889 H   0  0  0  0  0  0  0  0  0  0  0  0
   -1.2481    3.7703    0.6891 H   0  0  0  0  0  0  0  0  0  0  0  0
   -4.0071    2.3556    0.1738 H   0  0  0  0  0  0  0  0  0  0  0  0
   -3.4347    3.1091   -1.3259 H   0  0  0  0  0  0  0  0  0  0  0  0
   -3.9639    0.0086   -2.6979 H   0  0  0  0  0  0  0  0  0  0  0  0
   -2.2280   -0.1518   -2.8717 H   0  0  0  0  0  0  0  0  0  0  0  0
   -3.0093    1.3805   -3.2745 H   0  0  0  0  0  0  0  0  0  0  0  0
    1.4907    2.8351    2.2599 H   0  0  0  0  0  0  0  0  0  0  0  0
    0.9650    1.2253    2.6643 H   0  0  0  0  0  0  0  0  0  0  0  0
    1.4779    4.7290   -0.4979 H   0  0  0  0  0  0  0  0  0  0  0  0
   -5.6189    2.5764   -1.3820 H   0  0  0  0  0  0  0  0  0  0  0  0
    2.1479   -0.5534    2.3173 H   0  0  0  0  0  0  0  0  0  0  0  0
   -6.7828   -1.1177   -0.0940 H   0  0  0  0  0  0  0  0  0  0  0  0
    5.0441   -0.0883    2.5220 H   0  0  0  0  0  0  0  0  0  0  0  0
    4.1486   -1.5544    2.9152 H   0  0  0  0  0  0  0  0  0  0  0  0
   -6.3510   -3.9848   -0.3196 H   0  0  0  0  0  0  0  0  0  0  0  0
   -7.8949   -3.1158   -0.1824 H   0  0  0  0  0  0  0  0  0  0  0  0
   -7.4957   -4.5327    1.8307 H   0  0  0  0  0  0  0  0  0  0  0  0
   -7.4904   -2.8160    2.2785 H   0  0  0  0  0  0  0  0  0  0  0  0
   -5.9635   -3.6959    2.1381 H   0  0  0  0  0  0  0  0  0  0  0  0
    3.1416   -2.9390    0.9762 H   0  0  0  0  0  0  0  0  0  0  0  0
    6.1104    0.1325    0.3893 H   0  0  0  0  0  0  0  0  0  0  0  0
    5.4697   -2.8492   -2.6273 H   0  0  0  0  0  0  0  0  0  0  0  0
  1 32  1  0  0  0  0
  2 33  1  0  0  0  0
  3 16  1  0  0  0  0
  3 25  1  0  0  0  0
  4 17  1  0  0  0  0
  4 57  1  0  0  0  0
  5 21  1  0  0  0  0
  5 58  1  0  0  0  0
  6 24  2  0  0  0  0
  7 25  2  0  0  0  0
  8 24  1  0  0  0  0
  8 26  1  0  0  0  0
  8 59  1  0  0  0  0
  9 25  1  0  0  0  0
  9 27  1  0  0  0  0
  9 60  1  0  0  0  0
 10 11  1  0  0  0  0
 10 13  1  0  0  0  0
 10 14  1  0  0  0  0
 10 20  1  0  0  0  0
 11 12  1  0  0  0  0
 11 15  1  0  0  0  0
 11 35  1  0  0  0  0
 12 16  1  0  0  0  0
 12 21  1  0  0  0  0
 12 22  1  0  0  0  0
 13 17  1  0  0  0  0
 13 23  1  0  0  0  0
 13 36  1  0  0  0  0
 14 18  1  0  0  0  0
 14 37  1  0  0  0  0
 14 38  1  0  0  0  0
 15 19  1  0  0  0  0
 15 39  1  0  0  0  0
 15 40  1  0  0  0  0
 16 18  1  0  0  0  0
 16 41  1  0  0  0  0
 17 19  1  0  0  0  0
 17 42  1  0  0  0  0
 18 43  1  0  0  0  0
 18 44  1  0  0  0  0
 19 45  1  0  0  0  0
 19 46  1  0  0  0  0
 20 47  1  0  0  0  0
 20 48  1  0  0  0  0
 20 49  1  0  0  0  0
 21 50  1  0  0  0  0
 21 51  1  0  0  0  0
 22 52  1  0  0  0  0
 22 53  1  0  0  0  0
 22 54  1  0  0  0  0
 23 24  1  0  0  0  0
 23 55  1  0  0  0  0
 23 56  1  0  0  0  0
 26 28  1  0  0  0  0
 26 61  1  0  0  0  0
 26 62  1  0  0  0  0
 27 29  1  0  0  0  0
 27 63  1  0  0  0  0
 27 64  1  0  0  0  0
 28 30  2  0  0  0  0
 28 31  1  0  0  0  0
 29 65  1  0  0  0  0
 29 66  1  0  0  0  0
 29 67  1  0  0  0  0
 30 33  1  0  0  0  0
 30 68  1  0  0  0  0
 31 32  2  0  0  0  0
 31 69  1  0  0  0  0
 32 34  1  0  0  0  0
 33 34  2  0  0  0  0
 34 70  1  0  0  0  0
M  END
> <PUBCHEM_COMPOUND_CID>
44716868

> <PUBCHEM_CONFORMER_RMSD>
1.2

> <PUBCHEM_CONFORMER_DIVERSEORDER>
1
16
39
64
51
23
45
65
63
49
42
25
59
62
37
12
20
34
10
60
61
56
54
46
31
18
57
8
47
28
55
32
9
44
24
58
29
40
17
53
36
14
30
52
22
48
43
4
33
13
27
11
21
41
26
50
3
38
19
7
35
15
5
6
2

> <PUBCHEM_MMFF94_PARTIAL_CHARGES>
30
1 -0.19
16 0.28
17 0.28
2 -0.19
21 0.28
23 0.06
24 0.57
25 0.78
26 0.44
27 0.3
28 -0.14
3 -0.43
30 -0.15
31 -0.15
32 0.19
33 0.19
34 -0.15
4 -0.68
5 -0.68
57 0.4
58 0.4
59 0.37
6 -0.57
60 0.37
68 0.15
69 0.15
7 -0.57
70 0.15
8 -0.73
9 -0.73

> <PUBCHEM_EFFECTIVE_ROTOR_COUNT>
11.6

> <PUBCHEM_PHARMACOPHORE_FEATURES>
11
1 4 acceptor
1 4 donor
1 5 acceptor
1 5 donor
1 6 acceptor
1 7 acceptor
1 8 donor
1 9 donor
6 10 11 12 14 16 18 rings
6 10 11 13 15 17 19 rings
6 28 30 31 32 33 34 rings

> <PUBCHEM_HEAVY_ATOM_COUNT>
34

> <PUBCHEM_ATOM_DEF_STEREO_COUNT>
5

> <PUBCHEM_ATOM_UDEF_STEREO_COUNT>
1

> <PUBCHEM_BOND_DEF_STEREO_COUNT>
0

> <PUBCHEM_BOND_UDEF_STEREO_COUNT>
0

> <PUBCHEM_ISOTOPIC_ATOM_COUNT>
0

> <PUBCHEM_COMPONENT_COUNT>
1

> <PUBCHEM_CACTVS_TAUTO_COUNT>
4

> <PUBCHEM_CONFORMER_ID>
02AA534400000001

> <PUBCHEM_MMFF94_ENERGY>
93.9593

> <PUBCHEM_FEATURE_SELFOVERLAP>
55.837

> <PUBCHEM_SHAPE_FINGERPRINT>
10169797 241 17703216331783552570
10928967 22 17273401778613318686
10981352 41 18270674406873595863
11607047 141 18268726076969488715
11991303 11 17480867420367269592
12422481 6 14836127615463675216
12623949 98 18263923422478740859
12633257 1 15267335245196339904
131258 43 18201449099175920260
13383661 66 18412832399305307811
13782708 43 18341042034612450807
14556957 393 15213565794189048559
15510800 12 18270385119119063986
16989378 47 17313104211273461495
20587220 46 17540547142396702179
20715895 44 11386364855306754518
20775530 9 18341040891307287326
21796203 349 16343130326659821442
22864921 267 18270975647722378651
23559900 14 18411692162918761220
23569914 2 8862101528957963951
24893989 43 17537154031901474331
25269216 80 17531252776963953699
3146122 67 17681559456940564427
3886686 26 17556600759116840795
4394409 98 16242919461707647322
46194498 28 18188484808473487232
613672 6 18199162062896001216
86090 222 18341325673825937762
9831232 110 18334289907826101123

> <PUBCHEM_SHAPE_MULTIPOLES>
645.85
15.99
4.97
2.28
4.37
1.54
-0.07
21.19
-1.65
2.2
-0.59
-1.49
-0.45
4.25

> <PUBCHEM_SHAPE_SELFOVERLAP>
1344.659

> <PUBCHEM_SHAPE_VOLUME>
364.9

> <PUBCHEM_COORDINATE_TYPE>
2
5
10

$$$$
