40777646
  -OEChem-12032416353D

 62 65  0     1  0  0  0  0  0999 V2000
    7.2901   -2.7985   -1.4542 Cl  0  0  0  0  0  0  0  0  0  0  0  0
   -2.6767   -0.5528    0.1044 N   0  0  0  0  0  0  0  0  0  0  0  0
    3.9475    0.8449   -0.1885 N   0  0  0  0  0  0  0  0  0  0  0  0
    3.7157    2.0488   -0.7393 N   0  0  0  0  0  0  0  0  0  0  0  0
   -8.9757    0.2930   -0.5864 N   0  0  0  0  0  0  0  0  0  0  0  0
    0.3085    0.8422    0.2334 C   0  0  2  0  0  0  0  0  0  0  0  0
   -0.2620   -0.4075   -0.4644 C   0  0  0  0  0  0  0  0  0  0  0  0
   -1.3331   -0.9755    0.4820 C   0  0  1  0  0  0  0  0  0  0  0  0
    1.7788    1.0600   -0.0402 C   0  0  0  0  0  0  0  0  0  0  0  0
   -0.0304    0.5847    1.6724 C   0  0  0  0  0  0  0  0  0  0  0  0
   -0.9283   -0.3978    1.8022 C   0  0  0  0  0  0  0  0  0  0  0  0
    2.8203    0.2114    0.2459 C   0  0  0  0  0  0  0  0  0  0  0  0
    2.3892    2.1746   -0.6460 C   0  0  0  0  0  0  0  0  0  0  0  0
   -3.6872   -1.3379    0.8014 C   0  0  0  0  0  0  0  0  0  0  0  0
    2.8335   -1.1214    0.8823 C   0  0  0  0  0  0  0  0  0  0  0  0
    1.7396    3.3943   -1.1573 C   0  0  0  0  0  0  0  0  0  0  0  0
    5.2535    0.3609   -0.1071 C   0  0  0  0  0  0  0  0  0  0  0  0
   -5.0828   -0.9076    0.4352 C   0  0  0  0  0  0  0  0  0  0  0  0
    5.5960   -0.8343   -0.7395 C   0  0  0  0  0  0  0  0  0  0  0  0
    6.2171    1.0733    0.6068 C   0  0  0  0  0  0  0  0  0  0  0  0
   -5.6150    0.2643    0.9730 C   0  0  0  0  0  0  0  0  0  0  0  0
   -5.8433   -1.6805   -0.4422 C   0  0  0  0  0  0  0  0  0  0  0  0
   -6.9078    0.6631    0.6338 C   0  0  0  0  0  0  0  0  0  0  0  0
   -7.1363   -1.2819   -0.7815 C   0  0  0  0  0  0  0  0  0  0  0  0
   -7.6684   -0.1101   -0.2434 C   0  0  0  0  0  0  0  0  0  0  0  0
    6.9020   -1.3171   -0.6579 C   0  0  0  0  0  0  0  0  0  0  0  0
    7.5230    0.5905    0.6884 C   0  0  0  0  0  0  0  0  0  0  0  0
    7.8656   -0.6048    0.0562 C   0  0  0  0  0  0  0  0  0  0  0  0
    9.2757   -1.0880    0.1664 C   0  0  0  0  0  0  0  0  0  0  0  0
   -9.7714   -0.4992   -1.5031 C   0  0  0  0  0  0  0  0  0  0  0  0
   -9.5379    1.5089   -0.0329 C   0  0  0  0  0  0  0  0  0  0  0  0
   -0.2550    1.7273   -0.0889 H   0  0  0  0  0  0  0  0  0  0  0  0
   -0.6558   -0.1577   -1.4575 H   0  0  0  0  0  0  0  0  0  0  0  0
    0.5038   -1.1737   -0.6392 H   0  0  0  0  0  0  0  0  0  0  0  0
   -1.2474   -2.0689    0.4844 H   0  0  0  0  0  0  0  0  0  0  0  0
    0.3695    1.1511    2.5019 H   0  0  0  0  0  0  0  0  0  0  0  0
   -1.3269   -0.7230    2.7530 H   0  0  0  0  0  0  0  0  0  0  0  0
   -2.7982   -0.6751   -0.9012 H   0  0  0  0  0  0  0  0  0  0  0  0
   -3.5840   -1.2428    1.8897 H   0  0  0  0  0  0  0  0  0  0  0  0
   -3.5651   -2.4050    0.5738 H   0  0  0  0  0  0  0  0  0  0  0  0
    2.8857   -1.9100    0.1248 H   0  0  0  0  0  0  0  0  0  0  0  0
    3.6833   -1.2375    1.5632 H   0  0  0  0  0  0  0  0  0  0  0  0
    1.9386   -1.3045    1.4809 H   0  0  0  0  0  0  0  0  0  0  0  0
    1.2160    3.9174   -0.3505 H   0  0  0  0  0  0  0  0  0  0  0  0
    2.4639    4.0915   -1.5919 H   0  0  0  0  0  0  0  0  0  0  0  0
    1.0104    3.1442   -1.9348 H   0  0  0  0  0  0  0  0  0  0  0  0
    4.8521   -1.3858   -1.3110 H   0  0  0  0  0  0  0  0  0  0  0  0
    5.9666    2.0045    1.1094 H   0  0  0  0  0  0  0  0  0  0  0  0
   -5.0314    0.8742    1.6578 H   0  0  0  0  0  0  0  0  0  0  0  0
   -5.4400   -2.5944   -0.8703 H   0  0  0  0  0  0  0  0  0  0  0  0
   -7.2762    1.5821    1.0786 H   0  0  0  0  0  0  0  0  0  0  0  0
   -7.6871   -1.9171   -1.4680 H   0  0  0  0  0  0  0  0  0  0  0  0
    8.2602    1.1586    1.2497 H   0  0  0  0  0  0  0  0  0  0  0  0
    9.3099   -2.0673    0.6552 H   0  0  0  0  0  0  0  0  0  0  0  0
    9.7372   -1.1577   -0.8241 H   0  0  0  0  0  0  0  0  0  0  0  0
    9.8943   -0.4085    0.7630 H   0  0  0  0  0  0  0  0  0  0  0  0
  -10.7591   -0.0550   -1.6700 H   0  0  0  0  0  0  0  0  0  0  0  0
   -9.9462   -1.5059   -1.1073 H   0  0  0  0  0  0  0  0  0  0  0  0
   -9.2915   -0.5687   -2.4857 H   0  0  0  0  0  0  0  0  0  0  0  0
  -10.5585    1.6830   -0.3917 H   0  0  0  0  0  0  0  0  0  0  0  0
   -8.9507    2.3861   -0.3268 H   0  0  0  0  0  0  0  0  0  0  0  0
   -9.5976    1.4559    1.0599 H   0  0  0  0  0  0  0  0  0  0  0  0
  1 26  1  0  0  0  0
  2  8  1  0  0  0  0
  2 14  1  0  0  0  0
  2 38  1  0  0  0  0
  3  4  1  0  0  0  0
  3 12  1  0  0  0  0
  3 17  1  0  0  0  0
  4 13  2  0  0  0  0
  5 25  1  0  0  0  0
  5 30  1  0  0  0  0
  5 31  1  0  0  0  0
  6  7  1  0  0  0  0
  6  9  1  0  0  0  0
  6 10  1  0  0  0  0
  6 32  1  0  0  0  0
  7  8  1  0  0  0  0
  7 33  1  0  0  0  0
  7 34  1  0  0  0  0
  8 11  1  0  0  0  0
  8 35  1  0  0  0  0
  9 12  2  0  0  0  0
  9 13  1  0  0  0  0
 10 11  2  0  0  0  0
 10 36  1  0  0  0  0
 11 37  1  0  0  0  0
 12 15  1  0  0  0  0
 13 16  1  0  0  0  0
 14 18  1  0  0  0  0
 14 39  1  0  0  0  0
 14 40  1  0  0  0  0
 15 41  1  0  0  0  0
 15 42  1  0  0  0  0
 15 43  1  0  0  0  0
 16 44  1  0  0  0  0
 16 45  1  0  0  0  0
 16 46  1  0  0  0  0
 17 19  2  0  0  0  0
 17 20  1  0  0  0  0
 18 21  2  0  0  0  0
 18 22  1  0  0  0  0
 19 26  1  0  0  0  0
 19 47  1  0  0  0  0
 20 27  2  0  0  0  0
 20 48  1  0  0  0  0
 21 23  1  0  0  0  0
 21 49  1  0  0  0  0
 22 24  2  0  0  0  0
 22 50  1  0  0  0  0
 23 25  2  0  0  0  0
 23 51  1  0  0  0  0
 24 25  1  0  0  0  0
 24 52  1  0  0  0  0
 26 28  2  0  0  0  0
 27 28  1  0  0  0  0
 27 53  1  0  0  0  0
 28 29  1  0  0  0  0
 29 54  1  0  0  0  0
 29 55  1  0  0  0  0
 29 56  1  0  0  0  0
 30 57  1  0  0  0  0
 30 58  1  0  0  0  0
 30 59  1  0  0  0  0
 31 60  1  0  0  0  0
 31 61  1  0  0  0  0
 31 62  1  0  0  0  0
M  END
> <PUBCHEM_COMPOUND_CID>
40777646

> <PUBCHEM_CONFORMER_RMSD>
1

> <PUBCHEM_CONFORMER_DIVERSEORDER>
1
51
115
131
122
80
140
70
23
53
135
145
66
105
9
141
31
42
67
94
26
29
46
125
49
62
41
111
106
120
82
128
92
4
91
54
65
71
74
142
64
33
27
34
100
8
87
133
95
58
50
112
13
88
38
19
130
78
79
117
90
18
57
114
146
124
21
84
44
121
2
15
37
137
85
81
5
52
72
134
32
97
47
83
10
35
136
43
132
76
56
113
12
98
75
119
89
36
107
118
14
101
73
103
104
39
102
24
109
11
99
28
139
30
143
147
61
69
63
126
60
110
93
7
116
108
123
129
40
55
144
138
6
77
45
22
86
127
25
3
96
17
68
59
48
20
16

> <PUBCHEM_MMFF94_PARTIAL_CHARGES>
40
1 -0.18
10 -0.29
11 -0.29
12 -0.33
13 0.11
14 0.41
15 0.18
16 0.18
17 -0.02
18 -0.14
19 -0.15
2 -0.9
20 -0.15
21 -0.15
22 -0.15
23 -0.15
24 -0.15
25 0.1
26 0.18
27 -0.15
28 -0.14
29 0.14
3 0.59
30 0.37
31 0.37
36 0.15
37 0.15
38 0.36
4 -0.71
47 0.15
48 0.15
49 0.15
5 -0.84
50 0.15
51 0.15
52 0.15
53 0.15
6 0.32
8 0.41
9 -0.18

> <PUBCHEM_EFFECTIVE_ROTOR_COUNT>
6.6

> <PUBCHEM_PHARMACOPHORE_FEATURES>
8
1 2 cation
1 2 donor
1 4 acceptor
1 5 cation
5 3 4 9 12 13 rings
5 6 7 8 10 11 rings
6 17 19 20 26 27 28 rings
6 18 21 22 23 24 25 rings

> <PUBCHEM_HEAVY_ATOM_COUNT>
31

> <PUBCHEM_ATOM_DEF_STEREO_COUNT>
2

> <PUBCHEM_ATOM_UDEF_STEREO_COUNT>
0

> <PUBCHEM_BOND_DEF_STEREO_COUNT>
0

> <PUBCHEM_BOND_UDEF_STEREO_COUNT>
0

> <PUBCHEM_ISOTOPIC_ATOM_COUNT>
0

> <PUBCHEM_COMPONENT_COUNT>
1

> <PUBCHEM_CACTVS_TAUTO_COUNT>
1

> <PUBCHEM_CONFORMER_ID>
026E37AE00000001

> <PUBCHEM_MMFF94_ENERGY>
99.5328

> <PUBCHEM_FEATURE_SELFOVERLAP>
40.597

> <PUBCHEM_SHAPE_FINGERPRINT>
10 15 12535628267811677382
10162869 55 12319447793158285193
10165383 225 15863787296710156466
10209105 3 18189613853024780658
106641 1 12463569582319312906
10674148 151 17385721413653589104
11115154 58 18408044000354263240
11719270 70 17561088003218955206
11828422 8 17319599155181822956
12089408 11 17989488533190608393
12664476 115 16443058405635596447
12741549 16 18201995522596295432
13692114 37 11599995566210384916
13885169 127 18343303648009552745
13914758 101 18412549794682944097
14117953 113 18408891732973286742
14118638 360 17241037708934921209
14216079 64 18410857634284011990
14251764 46 18202281402932220083
14294032 229 16589139425195666452
14671636 106 8574418826156704369
14856354 85 14057004957987097019
14918687 75 11530778020362398025
15131766 46 16842175779047709400
15183329 4 18186801387488614139
15247644 1 15482673476995018782
15326923 82 18343580760064355632
15347591 1 18118970440870739383
15439362 3 17753901815973764108
15728490 51 9583514313955533265
15849732 13 18131070450280574774
16120349 18 18202561813464033808
17686467 74 9511457819603475375
18335252 114 18335136518609425485
18335252 98 9871755693243582704
19841028 212 18270964545153075766
21585482 111 17386555853629141221
21792934 111 18335696170729784904
21792938 131 17604419693105395242
21792961 116 17385718063810868794
22224240 67 11815898955327363900
23524908 199 18410851019791796431
23559900 14 18115874181683035112
249057 25 18059592303050077137
249057 3 18261112997643734459
28498 318 18409730655543656670
3103668 31 17823130146864453037
335352 9 18333735732295017662
3552219 110 12468636106215282399
3633792 109 18412547604286637419
4173938 188 9294992571533220645
4339292 15 16056306342107364535
474113 269 17775288218717877902
5028188 123 15936699249937844723
57303763 176 18264487274550036897
5758199 1 9799693692595472292
58902169 19 18340763853965191365
59682541 35 11239996767747115975
6081469 158 18202282489991365520
6201320 82 17751909235491910397
6204607 403 11025808569330376254
6394761 36 17749390373281513951
9663363 56 18186800288979234512
9689198 14 12107504836207506346
99344 41 18202284701789383543

> <PUBCHEM_SHAPE_MULTIPOLES>
619.91
33.01
2.24
1.25
34.62
0.82
-0.11
-8.58
7.85
-2.67
1.03
0.35
-0.07
0.36

> <PUBCHEM_SHAPE_SELFOVERLAP>
1324.568

> <PUBCHEM_SHAPE_VOLUME>
348.5

> <PUBCHEM_COORDINATE_TYPE>
2
5
10

$$$$
