75367657
  -OEChem-12032416383D

 49 51  0     1  0  0  0  0  0999 V2000
   -5.3190   -0.6778    0.7184 F   0  0  0  0  0  0  0  0  0  0  0  0
   -4.8505   -0.5723   -1.3965 F   0  0  0  0  0  0  0  0  0  0  0  0
   -5.8121    1.1120   -0.4135 F   0  0  0  0  0  0  0  0  0  0  0  0
    2.8757    3.2976   -1.3714 O   0  0  0  0  0  0  0  0  0  0  0  0
    0.1960    2.3986    0.9837 O   0  0  0  0  0  0  0  0  0  0  0  0
   -0.0425   -4.6445    0.0118 O   0  0  0  0  0  0  0  0  0  0  0  0
    3.3044    0.7480   -0.1061 N   0  0  1  0  0  0  0  0  0  0  0  0
    2.3279    1.3164    0.8227 C   0  0  0  0  0  0  0  0  0  0  0  0
    1.2583    2.1196    0.0710 C   0  0  2  0  0  0  0  0  0  0  0  0
    4.4156    1.6442   -0.4443 C   0  0  0  0  0  0  0  0  0  0  0  0
    1.7320    3.4372   -0.5372 C   0  0  0  0  0  0  0  0  0  0  0  0
    3.8231   -0.5316    0.3788 C   0  0  0  0  0  0  0  0  0  0  0  0
    4.0717    3.1213   -0.6217 C   0  0  0  0  0  0  0  0  0  0  0  0
    2.7945   -1.6266    0.2814 C   0  0  0  0  0  0  0  0  0  0  0  0
   -1.0242    1.8577    0.6852 C   0  0  0  0  0  0  0  0  0  0  0  0
    2.2365   -1.9508   -0.9552 C   0  0  0  0  0  0  0  0  0  0  0  0
    2.3991   -2.3168    1.4274 C   0  0  0  0  0  0  0  0  0  0  0  0
   -2.1251    2.6900    0.4825 C   0  0  0  0  0  0  0  0  0  0  0  0
   -1.1679    0.4739    0.5843 C   0  0  0  0  0  0  0  0  0  0  0  0
    1.2834   -2.9652   -1.0459 C   0  0  0  0  0  0  0  0  0  0  0  0
    1.4461   -3.3312    1.3367 C   0  0  0  0  0  0  0  0  0  0  0  0
    0.8882   -3.6553    0.1000 C   0  0  0  0  0  0  0  0  0  0  0  0
   -3.3697    2.1385    0.1790 C   0  0  0  0  0  0  0  0  0  0  0  0
   -2.4126   -0.0775    0.2808 C   0  0  0  0  0  0  0  0  0  0  0  0
   -3.5135    0.7546    0.0779 C   0  0  0  0  0  0  0  0  0  0  0  0
   -4.8439    0.1645   -0.2464 C   0  0  0  0  0  0  0  0  0  0  0  0
   -0.5715   -4.9243   -1.2836 C   0  0  0  0  0  0  0  0  0  0  0  0
    2.8078    1.9269    1.5996 H   0  0  0  0  0  0  0  0  0  0  0  0
    1.8060    0.5351    1.3871 H   0  0  0  0  0  0  0  0  0  0  0  0
    0.9030    1.4963   -0.7638 H   0  0  0  0  0  0  0  0  0  0  0  0
    4.8402    1.2843   -1.3903 H   0  0  0  0  0  0  0  0  0  0  0  0
    5.2151    1.5813    0.3058 H   0  0  0  0  0  0  0  0  0  0  0  0
    0.9255    3.8450   -1.1585 H   0  0  0  0  0  0  0  0  0  0  0  0
    1.9071    4.1955    0.2371 H   0  0  0  0  0  0  0  0  0  0  0  0
    4.2068   -0.4345    1.4034 H   0  0  0  0  0  0  0  0  0  0  0  0
    4.6754   -0.8570   -0.2342 H   0  0  0  0  0  0  0  0  0  0  0  0
    4.8794    3.6012   -1.1857 H   0  0  0  0  0  0  0  0  0  0  0  0
    4.0191    3.6384    0.3444 H   0  0  0  0  0  0  0  0  0  0  0  0
    2.5385   -1.4245   -1.8570 H   0  0  0  0  0  0  0  0  0  0  0  0
    2.8241   -2.0742    2.3976 H   0  0  0  0  0  0  0  0  0  0  0  0
   -2.0183    3.7686    0.5595 H   0  0  0  0  0  0  0  0  0  0  0  0
   -0.3264   -0.1919    0.7480 H   0  0  0  0  0  0  0  0  0  0  0  0
    0.8913   -3.1656   -2.0371 H   0  0  0  0  0  0  0  0  0  0  0  0
    1.1415   -3.8648    2.2329 H   0  0  0  0  0  0  0  0  0  0  0  0
   -4.2144    2.8040    0.0248 H   0  0  0  0  0  0  0  0  0  0  0  0
   -2.5148   -1.1570    0.2061 H   0  0  0  0  0  0  0  0  0  0  0  0
   -1.2962   -5.7369   -1.1682 H   0  0  0  0  0  0  0  0  0  0  0  0
    0.2056   -5.2835   -1.9668 H   0  0  0  0  0  0  0  0  0  0  0  0
   -1.1166   -4.0652   -1.6894 H   0  0  0  0  0  0  0  0  0  0  0  0
  1 26  1  0  0  0  0
  2 26  1  0  0  0  0
  3 26  1  0  0  0  0
  4 11  1  0  0  0  0
  4 13  1  0  0  0  0
  5  9  1  0  0  0  0
  5 15  1  0  0  0  0
  6 22  1  0  0  0  0
  6 27  1  0  0  0  0
  7  8  1  0  0  0  0
  7 10  1  0  0  0  0
  7 12  1  0  0  0  0
  8  9  1  0  0  0  0
  8 28  1  0  0  0  0
  8 29  1  0  0  0  0
  9 11  1  0  0  0  0
  9 30  1  0  0  0  0
 10 13  1  0  0  0  0
 10 31  1  0  0  0  0
 10 32  1  0  0  0  0
 11 33  1  0  0  0  0
 11 34  1  0  0  0  0
 12 14  1  0  0  0  0
 12 35  1  0  0  0  0
 12 36  1  0  0  0  0
 13 37  1  0  0  0  0
 13 38  1  0  0  0  0
 14 16  2  0  0  0  0
 14 17  1  0  0  0  0
 15 18  2  0  0  0  0
 15 19  1  0  0  0  0
 16 20  1  0  0  0  0
 16 39  1  0  0  0  0
 17 21  2  0  0  0  0
 17 40  1  0  0  0  0
 18 23  1  0  0  0  0
 18 41  1  0  0  0  0
 19 24  2  0  0  0  0
 19 42  1  0  0  0  0
 20 22  2  0  0  0  0
 20 43  1  0  0  0  0
 21 22  1  0  0  0  0
 21 44  1  0  0  0  0
 23 25  2  0  0  0  0
 23 45  1  0  0  0  0
 24 25  1  0  0  0  0
 24 46  1  0  0  0  0
 25 26  1  0  0  0  0
 27 47  1  0  0  0  0
 27 48  1  0  0  0  0
 27 49  1  0  0  0  0
M  END
> <PUBCHEM_COMPOUND_CID>
75367657

> <PUBCHEM_CONFORMER_RMSD>
0.8

> <PUBCHEM_CONFORMER_DIVERSEORDER>
7
118
3
65
185
32
41
188
35
144
134
77
112
152
109
107
9
192
170
54
55
24
135
138
151
29
190
36
94
194
76
125
81
106
79
150
22
117
87
23
174
103
179
148
61
43
128
181
30
173
26
88
100
96
53
142
33
82
1
39
31
52
178
187
90
21
34
17
172
147
183
49
48
63
168
166
69
80
75
15
149
72
74
70
108
191
62
182
46
153
137
139
84
105
6
180
93
68
13
162
189
60
56
98
16
184
89
167
50
163
44
102
124
130
25
27
101
20
2
73
169
83
86
95
122
177
120
111
193
71
121
123
155
45
165
154
38
127
67
14
186
64
175
78
115
157
59
161
176
145
104
99
97
143
4
40
131
126
146
85
91
110
158
11
92
114
164
140
8
42
132
5
136
119
156
10
133
141
18
28
51
19
116
159
58
129
12
66
37
160
57
171
113
47

> <PUBCHEM_MMFF94_PARTIAL_CHARGES>
35
1 -0.34
10 0.27
11 0.28
12 0.41
13 0.28
14 -0.14
15 0.08
16 -0.15
17 -0.15
18 -0.15
19 -0.15
2 -0.34
20 -0.15
21 -0.15
22 0.08
23 -0.15
24 -0.15
25 -0.14
26 1.16
27 0.28
3 -0.34
39 0.15
4 -0.56
40 0.15
41 0.15
42 0.15
43 0.15
44 0.15
45 0.15
46 0.15
5 -0.36
6 -0.36
7 -0.81
8 0.27
9 0.28

> <PUBCHEM_EFFECTIVE_ROTOR_COUNT>
7.4

> <PUBCHEM_PHARMACOPHORE_FEATURES>
7
1 4 acceptor
1 5 acceptor
1 6 acceptor
1 7 cation
6 14 16 17 20 21 22 rings
6 15 18 19 23 24 25 rings
7 4 7 8 9 10 11 13 rings

> <PUBCHEM_HEAVY_ATOM_COUNT>
27

> <PUBCHEM_ATOM_DEF_STEREO_COUNT>
1

> <PUBCHEM_ATOM_UDEF_STEREO_COUNT>
0

> <PUBCHEM_BOND_DEF_STEREO_COUNT>
0

> <PUBCHEM_BOND_UDEF_STEREO_COUNT>
0

> <PUBCHEM_ISOTOPIC_ATOM_COUNT>
0

> <PUBCHEM_COMPONENT_COUNT>
1

> <PUBCHEM_CACTVS_TAUTO_COUNT>
1

> <PUBCHEM_CONFORMER_ID>
047E04E900000007

> <PUBCHEM_MMFF94_ENERGY>
88.99

> <PUBCHEM_FEATURE_SELFOVERLAP>
35.522

> <PUBCHEM_SHAPE_FINGERPRINT>
10090160 65 18410007766817861349
10940486 97 15958383419061623486
1100329 8 18338510954397238938
11756154 67 17116646436938746919
12156800 1 17469077752102328118
12553582 1 17688322187657509416
13150687 139 18337684126307367492
1361 2 18337107964269268829
138480 1 18050008783771634850
14117953 113 18338791200628285390
14863182 85 18413102862391689256
15250474 111 18342170025983886657
15338160 23 17263522967454806912
15664445 248 18196099832628525015
15968369 153 17337583905500176847
16114785 44 15688946497384747784
161222 619 18192457292883222811
17138139 8 17771330148471498919
17492 54 18189076256310137476
18681886 176 18410569549315411306
19930381 70 18194401087490535243
20028762 73 18272086042554344814
20645477 70 18261111885020741441
20764821 26 18267013045900691219
21133410 62 18118382159712696207
21304303 94 18268451147153912396
21421861 104 18269006292930385825
22113638 7 18410001135762974202
23559900 14 18052532171394237267
238 59 18336277785719063578
4280585 95 17833270822901583994
463206 1 18272082846660274197
5312544 6 18409164428551157677

> <PUBCHEM_SHAPE_MULTIPOLES>
511.24
9.17
6.43
1.16
12.47
5.84
-0.03
-4.21
-1.2
-4.58
-1.48
-0.34
0.53
-1.51

> <PUBCHEM_SHAPE_SELFOVERLAP>
1084.526

> <PUBCHEM_SHAPE_VOLUME>
286.3

> <PUBCHEM_COORDINATE_TYPE>
2
5
10

$$$$
