75536632
  -OEChem-12032416393D

 46 48  0     1  0  0  0  0  0999 V2000
   -4.8090    2.1451   -0.5405 F   0  0  0  0  0  0  0  0  0  0  0  0
    0.5987    0.8379    0.1073 O   0  0  0  0  0  0  0  0  0  0  0  0
   -0.5771   -2.4940   -0.5418 O   0  0  0  0  0  0  0  0  0  0  0  0
    4.0280   -2.0158   -0.2131 O   0  0  0  0  0  0  0  0  0  0  0  0
   -2.8328   -0.3489   -0.1100 N   0  0  0  0  0  0  0  0  0  0  0  0
    3.1127   -0.0296   -0.9877 N   0  0  0  0  0  0  0  0  0  0  0  0
   -1.4377   -0.3696    0.2986 C   0  0  1  0  0  0  0  0  0  0  0  0
   -0.5270   -1.0873   -0.6803 C   0  0  1  0  0  0  0  0  0  0  0  0
    0.8314   -0.5258   -0.2827 C   0  0  1  0  0  0  0  0  0  0  0  0
   -0.8108    1.0146    0.3333 C   0  0  0  0  0  0  0  0  0  0  0  0
    1.8520   -0.5714   -1.4059 C   0  0  0  0  0  0  0  0  0  0  0  0
   -3.6985    0.0408    0.9966 C   0  0  0  0  0  0  0  0  0  0  0  0
   -5.1467    0.0837    0.5872 C   0  0  0  0  0  0  0  0  0  0  0  0
    4.1149   -0.8077   -0.4161 C   0  0  0  0  0  0  0  0  0  0  0  0
   -5.6284    1.1510   -0.1706 C   0  0  0  0  0  0  0  0  0  0  0  0
   -6.0071   -0.9463    0.9670 C   0  0  0  0  0  0  0  0  0  0  0  0
    5.3523   -0.0912   -0.0128 C   0  0  0  0  0  0  0  0  0  0  0  0
   -6.9705    1.1883   -0.5487 C   0  0  0  0  0  0  0  0  0  0  0  0
   -7.3493   -0.9091    0.5889 C   0  0  0  0  0  0  0  0  0  0  0  0
   -7.8311    0.1582   -0.1689 C   0  0  0  0  0  0  0  0  0  0  0  0
    6.1430   -0.5920    1.0214 C   0  0  0  0  0  0  0  0  0  0  0  0
    5.7239    1.0818   -0.6696 C   0  0  0  0  0  0  0  0  0  0  0  0
    7.3056    0.0802    1.3988 C   0  0  0  0  0  0  0  0  0  0  0  0
    6.8864    1.7539   -0.2923 C   0  0  0  0  0  0  0  0  0  0  0  0
    7.6772    1.2532    0.7419 C   0  0  0  0  0  0  0  0  0  0  0  0
   -1.3362   -0.8586    1.2779 H   0  0  0  0  0  0  0  0  0  0  0  0
   -0.7758   -0.8248   -1.7161 H   0  0  0  0  0  0  0  0  0  0  0  0
    1.2278   -1.0533    0.5949 H   0  0  0  0  0  0  0  0  0  0  0  0
   -1.1872    1.6626   -0.4667 H   0  0  0  0  0  0  0  0  0  0  0  0
   -0.9632    1.5238    1.2897 H   0  0  0  0  0  0  0  0  0  0  0  0
    1.5208    0.0407   -2.2520 H   0  0  0  0  0  0  0  0  0  0  0  0
    1.9958   -1.5992   -1.7559 H   0  0  0  0  0  0  0  0  0  0  0  0
   -3.1010   -1.2814   -0.4261 H   0  0  0  0  0  0  0  0  0  0  0  0
   -3.4245    1.0332    1.3766 H   0  0  0  0  0  0  0  0  0  0  0  0
   -3.5791   -0.6541    1.8382 H   0  0  0  0  0  0  0  0  0  0  0  0
   -0.3569   -2.7188    0.3780 H   0  0  0  0  0  0  0  0  0  0  0  0
    3.2221    0.9761   -1.0622 H   0  0  0  0  0  0  0  0  0  0  0  0
   -5.6455   -1.7853    1.5555 H   0  0  0  0  0  0  0  0  0  0  0  0
   -7.3453    2.0194   -1.1388 H   0  0  0  0  0  0  0  0  0  0  0  0
   -8.0192   -1.7114    0.8841 H   0  0  0  0  0  0  0  0  0  0  0  0
   -8.8760    0.1872   -0.4634 H   0  0  0  0  0  0  0  0  0  0  0  0
    5.8682   -1.5021    1.5481 H   0  0  0  0  0  0  0  0  0  0  0  0
    5.1542    1.4886   -1.4997 H   0  0  0  0  0  0  0  0  0  0  0  0
    7.9211   -0.3092    2.2045 H   0  0  0  0  0  0  0  0  0  0  0  0
    7.1802    2.6635   -0.8082 H   0  0  0  0  0  0  0  0  0  0  0  0
    8.5832    1.7759    1.0347 H   0  0  0  0  0  0  0  0  0  0  0  0
  1 15  1  0  0  0  0
  2  9  1  0  0  0  0
  2 10  1  0  0  0  0
  3  8  1  0  0  0  0
  3 36  1  0  0  0  0
  4 14  2  0  0  0  0
  5  7  1  0  0  0  0
  5 12  1  0  0  0  0
  5 33  1  0  0  0  0
  6 11  1  0  0  0  0
  6 14  1  0  0  0  0
  6 37  1  0  0  0  0
  7  8  1  0  0  0  0
  7 10  1  0  0  0  0
  7 26  1  0  0  0  0
  8  9  1  0  0  0  0
  8 27  1  0  0  0  0
  9 11  1  0  0  0  0
  9 28  1  0  0  0  0
 10 29  1  0  0  0  0
 10 30  1  0  0  0  0
 11 31  1  0  0  0  0
 11 32  1  0  0  0  0
 12 13  1  0  0  0  0
 12 34  1  0  0  0  0
 12 35  1  0  0  0  0
 13 15  1  0  0  0  0
 13 16  2  0  0  0  0
 14 17  1  0  0  0  0
 15 18  2  0  0  0  0
 16 19  1  0  0  0  0
 16 38  1  0  0  0  0
 17 21  2  0  0  0  0
 17 22  1  0  0  0  0
 18 20  1  0  0  0  0
 18 39  1  0  0  0  0
 19 20  2  0  0  0  0
 19 40  1  0  0  0  0
 20 41  1  0  0  0  0
 21 23  1  0  0  0  0
 21 42  1  0  0  0  0
 22 24  2  0  0  0  0
 22 43  1  0  0  0  0
 23 25  2  0  0  0  0
 23 44  1  0  0  0  0
 24 25  1  0  0  0  0
 24 45  1  0  0  0  0
 25 46  1  0  0  0  0
M  END
> <PUBCHEM_COMPOUND_CID>
75536632

> <PUBCHEM_CONFORMER_RMSD>
1

> <PUBCHEM_CONFORMER_DIVERSEORDER>
1
88
76
171
188
7
38
100
85
31
212
129
67
104
203
132
140
9
55
128
180
64
199
6
72
109
170
52
33
131
24
91
81
122
165
15
99
105
181
200
147
17
83
80
186
86
205
168
184
20
149
210
153
182
166
49
121
159
137
134
191
103
29
87
215
177
161
35
187
148
127
92
193
41
113
163
158
157
70
19
36
53
94
209
126
143
162
106
45
139
150
167
16
4
198
14
78
160
192
185
47
146
156
42
141
114
26
79
5
136
75
23
206
175
133
144
40
73
107
58
74
214
97
138
56
196
213
108
84
130
195
112
27
207
202
194
12
111
32
68
120
115
21
25
82
50
173
98
34
142
211
183
154
8
77
54
152
124
155
145
204
172
90
28
151
169
22
37
13
102
96
10
93
110
179
119
135
48
44
178
117
176
63
11
118
39
174
66
89
51
164
59
30
208
3
69
197
61
123
116
62
18
2
65
216
125
57
46
101
190
43
60
71
189
201
95

> <PUBCHEM_MMFF94_PARTIAL_CHARGES>
37
1 -0.19
10 0.28
11 0.3
12 0.41
13 -0.14
14 0.54
15 0.19
16 -0.15
17 0.09
18 -0.15
19 -0.15
2 -0.56
20 -0.15
21 -0.15
22 -0.15
23 -0.15
24 -0.15
25 -0.15
3 -0.68
33 0.36
36 0.4
37 0.37
38 0.15
39 0.15
4 -0.57
40 0.15
41 0.15
42 0.15
43 0.15
44 0.15
45 0.15
46 0.15
5 -0.9
6 -0.73
7 0.27
8 0.28
9 0.28

> <PUBCHEM_EFFECTIVE_ROTOR_COUNT>
8

> <PUBCHEM_PHARMACOPHORE_FEATURES>
10
1 2 acceptor
1 3 acceptor
1 3 donor
1 4 acceptor
1 5 cation
1 5 donor
1 6 donor
5 2 7 8 9 10 rings
6 13 15 16 18 19 20 rings
6 17 21 22 23 24 25 rings

> <PUBCHEM_HEAVY_ATOM_COUNT>
25

> <PUBCHEM_ATOM_DEF_STEREO_COUNT>
3

> <PUBCHEM_ATOM_UDEF_STEREO_COUNT>
0

> <PUBCHEM_BOND_DEF_STEREO_COUNT>
0

> <PUBCHEM_BOND_UDEF_STEREO_COUNT>
0

> <PUBCHEM_ISOTOPIC_ATOM_COUNT>
0

> <PUBCHEM_COMPONENT_COUNT>
1

> <PUBCHEM_CACTVS_TAUTO_COUNT>
2

> <PUBCHEM_CONFORMER_ID>
048098F800000001

> <PUBCHEM_MMFF94_ENERGY>
57.5206

> <PUBCHEM_FEATURE_SELFOVERLAP>
50.747

> <PUBCHEM_SHAPE_FINGERPRINT>
10 15 18408886252130526658
10162869 55 18341886446256481983
11315181 36 18059859459691849801
11638347 137 18113617864001571954
11719270 70 18410577271108011398
125118 31 18409169887682022252
12592606 108 7853565799893021289
13533116 47 17131841906904965998
13914758 101 16443062781611587437
14123256 10 16917068858368376032
14216079 64 13045935803259783096
14251764 18 17894632569054538662
14347424 109 16298390193154654844
14461889 52 18407762551495230226
15131766 46 17462299237770225980
15183329 4 15357701872510707603
15419008 47 18343860009341640121
15849732 13 18408887347199364597
16090146 7 13973411317318962542
17093844 174 17821447963773567513
20157964 124 18273498949239516382
20554085 129 17917419930993999106
21095086 128 10809348849942508377
21130935 74 18339085878551274299
21150785 3 16845570924491920973
21365058 27 15339121243262639813
21521721 280 17418095416520189779
220451 1 13830132759034248149
221357 26 12103851151217366442
22224240 67 17989205957964220462
23035841 295 10015864267312285517
23081809 10 16199877159124391695
246663 6 11458422427584762576
24771293 8 17917718997623835337
249057 25 17095818654498754085
28498 318 12685085990785689650
34797466 226 14476962294228167272
4325135 7 13973965402691882681
4340502 62 17749389261212519434
445580 37 12103575169087128491
5470011 282 10735876193023935560
5758199 1 16845579712227272991
636775 72 18339924802288059737
6394761 36 12324239464726514109

> <PUBCHEM_SHAPE_MULTIPOLES>
479.64
26.14
1.67
1.07
1.47
0.09
0.07
-7.47
5.59
-0.25
-0.27
-0.76
0.09
0.72

> <PUBCHEM_SHAPE_SELFOVERLAP>
1020.021

> <PUBCHEM_SHAPE_VOLUME>
267.5

> <PUBCHEM_COORDINATE_TYPE>
2
5
10

$$$$
