44716320
  -OEChem-12032416163D

 58 62  0     1  0  0  0  0  0999 V2000
   -3.7167   -0.4453    1.1472 N   0  0  2  0  0  0  0  0  0  0  0  0
    0.1497   -3.3168   -0.2235 N   0  0  0  0  0  0  0  0  0  0  0  0
   -2.6743    2.7506   -0.5777 N   0  0  0  0  0  0  0  0  0  0  0  0
    1.4852   -3.1787   -0.2856 N   0  0  0  0  0  0  0  0  0  0  0  0
    0.1931    3.8966    0.9856 N   0  0  0  0  0  0  0  0  0  0  0  0
   -2.8500   -1.7032   -0.9622 C   0  0  2  0  0  0  0  0  0  0  0  0
   -2.0187   -2.1019    0.2886 C   0  0  2  0  0  0  0  0  0  0  0  0
   -3.4935    0.5180    0.0369 C   0  0  2  0  0  0  0  0  0  0  0  0
   -2.7873   -0.1726   -1.1496 C   0  0  0  0  0  0  0  0  0  0  0  0
   -4.3192   -2.0625   -0.6533 C   0  0  0  0  0  0  0  0  0  0  0  0
   -2.4575   -1.1689    1.4533 C   0  0  0  0  0  0  0  0  0  0  0  0
   -4.7215   -1.4366    0.6936 C   0  0  0  0  0  0  0  0  0  0  0  0
   -2.7452    1.7717    0.4946 C   0  0  0  0  0  0  0  0  0  0  0  0
   -0.5050   -2.1801    0.1503 C   0  0  0  0  0  0  0  0  0  0  0  0
    0.4698   -1.2327    0.3469 C   0  0  0  0  0  0  0  0  0  0  0  0
    1.6746   -1.9035    0.0639 C   0  0  0  0  0  0  0  0  0  0  0  0
   -1.9535    3.9436   -0.1509 C   0  0  0  0  0  0  0  0  0  0  0  0
   -0.4429   -4.5954   -0.5409 C   0  0  0  0  0  0  0  0  0  0  0  0
    3.0025   -1.3503    0.1225 C   0  0  0  0  0  0  0  0  0  0  0  0
   -0.4660    3.7435   -0.1848 C   0  0  0  0  0  0  0  0  0  0  0  0
    3.2917   -0.3264    1.0246 C   0  0  0  0  0  0  0  0  0  0  0  0
    3.9998   -1.8379   -0.7221 C   0  0  0  0  0  0  0  0  0  0  0  0
    0.1477    3.4182   -1.3838 C   0  0  0  0  0  0  0  0  0  0  0  0
    4.5780    0.2100    1.0821 C   0  0  0  0  0  0  0  0  0  0  0  0
    5.2861   -1.3017   -0.6645 C   0  0  0  0  0  0  0  0  0  0  0  0
    5.5752   -0.2777    0.2375 C   0  0  0  0  0  0  0  0  0  0  0  0
    1.5264    3.2384   -1.3813 C   0  0  0  0  0  0  0  0  0  0  0  0
    1.5322    3.7141    0.9491 C   0  0  0  0  0  0  0  0  0  0  0  0
    2.2393    3.3872   -0.1967 C   0  0  0  0  0  0  0  0  0  0  0  0
   -2.4994   -2.2199   -1.8615 H   0  0  0  0  0  0  0  0  0  0  0  0
   -2.3474   -3.1123    0.5753 H   0  0  0  0  0  0  0  0  0  0  0  0
   -4.4838    0.8571   -0.3031 H   0  0  0  0  0  0  0  0  0  0  0  0
   -3.2903    0.1039   -2.0846 H   0  0  0  0  0  0  0  0  0  0  0  0
   -1.7411    0.1407   -1.2440 H   0  0  0  0  0  0  0  0  0  0  0  0
   -4.9702   -1.6905   -1.4537 H   0  0  0  0  0  0  0  0  0  0  0  0
   -4.4461   -3.1506   -0.6110 H   0  0  0  0  0  0  0  0  0  0  0  0
   -1.6840   -0.4553    1.7509 H   0  0  0  0  0  0  0  0  0  0  0  0
   -2.6156   -1.7808    2.3522 H   0  0  0  0  0  0  0  0  0  0  0  0
   -4.8433   -2.2177    1.4548 H   0  0  0  0  0  0  0  0  0  0  0  0
   -5.7051   -0.9593    0.6035 H   0  0  0  0  0  0  0  0  0  0  0  0
   -1.7352    1.5067    0.8250 H   0  0  0  0  0  0  0  0  0  0  0  0
   -3.2684    2.2028    1.3582 H   0  0  0  0  0  0  0  0  0  0  0  0
    0.3242   -0.2018    0.6373 H   0  0  0  0  0  0  0  0  0  0  0  0
   -3.6224    3.0137   -0.8470 H   0  0  0  0  0  0  0  0  0  0  0  0
   -2.1909    4.7614   -0.8430 H   0  0  0  0  0  0  0  0  0  0  0  0
   -2.2853    4.2835    0.8383 H   0  0  0  0  0  0  0  0  0  0  0  0
   -1.2484   -4.4428   -1.2630 H   0  0  0  0  0  0  0  0  0  0  0  0
    0.3166   -5.2495   -0.9778 H   0  0  0  0  0  0  0  0  0  0  0  0
   -0.8246   -5.0356    0.3834 H   0  0  0  0  0  0  0  0  0  0  0  0
    2.5388    0.0688    1.7019 H   0  0  0  0  0  0  0  0  0  0  0  0
    3.8031   -2.6292   -1.4414 H   0  0  0  0  0  0  0  0  0  0  0  0
   -0.4135    3.3078   -2.3055 H   0  0  0  0  0  0  0  0  0  0  0  0
    4.8035    1.0067    1.7850 H   0  0  0  0  0  0  0  0  0  0  0  0
    6.0625   -1.6797   -1.3233 H   0  0  0  0  0  0  0  0  0  0  0  0
    6.5767    0.1401    0.2820 H   0  0  0  0  0  0  0  0  0  0  0  0
    2.0447    2.9826   -2.3005 H   0  0  0  0  0  0  0  0  0  0  0  0
    2.0415    3.8404    1.8988 H   0  0  0  0  0  0  0  0  0  0  0  0
    3.3143    3.2510   -0.1711 H   0  0  0  0  0  0  0  0  0  0  0  0
  1  8  1  0  0  0  0
  1 11  1  0  0  0  0
  1 12  1  0  0  0  0
  2  4  1  0  0  0  0
  2 14  1  0  0  0  0
  2 18  1  0  0  0  0
  3 13  1  0  0  0  0
  3 17  1  0  0  0  0
  3 44  1  0  0  0  0
  4 16  2  0  0  0  0
  5 20  1  0  0  0  0
  5 28  2  0  0  0  0
  6  7  1  0  0  0  0
  6  9  1  0  0  0  0
  6 10  1  0  0  0  0
  6 30  1  0  0  0  0
  7 11  1  0  0  0  0
  7 14  1  0  0  0  0
  7 31  1  0  0  0  0
  8  9  1  0  0  0  0
  8 13  1  0  0  0  0
  8 32  1  0  0  0  0
  9 33  1  0  0  0  0
  9 34  1  0  0  0  0
 10 12  1  0  0  0  0
 10 35  1  0  0  0  0
 10 36  1  0  0  0  0
 11 37  1  0  0  0  0
 11 38  1  0  0  0  0
 12 39  1  0  0  0  0
 12 40  1  0  0  0  0
 13 41  1  0  0  0  0
 13 42  1  0  0  0  0
 14 15  2  0  0  0  0
 15 16  1  0  0  0  0
 15 43  1  0  0  0  0
 16 19  1  0  0  0  0
 17 20  1  0  0  0  0
 17 45  1  0  0  0  0
 17 46  1  0  0  0  0
 18 47  1  0  0  0  0
 18 48  1  0  0  0  0
 18 49  1  0  0  0  0
 19 21  2  0  0  0  0
 19 22  1  0  0  0  0
 20 23  2  0  0  0  0
 21 24  1  0  0  0  0
 21 50  1  0  0  0  0
 22 25  2  0  0  0  0
 22 51  1  0  0  0  0
 23 27  1  0  0  0  0
 23 52  1  0  0  0  0
 24 26  2  0  0  0  0
 24 53  1  0  0  0  0
 25 26  1  0  0  0  0
 25 54  1  0  0  0  0
 26 55  1  0  0  0  0
 27 29  2  0  0  0  0
 27 56  1  0  0  0  0
 28 29  1  0  0  0  0
 28 57  1  0  0  0  0
 29 58  1  0  0  0  0
M  END
> <PUBCHEM_COMPOUND_CID>
44716320

> <PUBCHEM_CONFORMER_RMSD>
1

> <PUBCHEM_CONFORMER_DIVERSEORDER>
2
47
66
60
30
35
38
16
58
52
14
24
3
22
64
32
54
13
61
1
53
40
49
11
20
34
46
48
23
65
51
42
27
50
39
63
17
37
44
57
29
59
8
56
36
41
31
5
43
33
9
21
6
45
28
26
10
15
7
55
25
62
18
12
4
19

> <PUBCHEM_MMFF94_PARTIAL_CHARGES>
37
1 -0.81
11 0.27
12 0.27
13 0.27
14 -0.33
15 -0.15
16 0.23
17 0.41
18 0.26
19 0.05
2 0.31
20 0.17
21 -0.15
22 -0.15
23 -0.15
24 -0.15
25 -0.15
26 -0.15
27 -0.15
28 0.16
29 -0.15
3 -0.9
4 -0.71
43 0.15
44 0.36
5 -0.62
50 0.15
51 0.15
52 0.15
53 0.15
54 0.15
55 0.15
56 0.15
57 0.15
58 0.15
7 0.18
8 0.27

> <PUBCHEM_EFFECTIVE_ROTOR_COUNT>
7.2

> <PUBCHEM_PHARMACOPHORE_FEATURES>
9
1 1 cation
1 3 cation
1 3 donor
1 4 acceptor
1 5 acceptor
5 2 4 14 15 16 rings
6 19 21 22 24 25 26 rings
6 5 20 23 27 28 29 rings
8 1 6 7 8 9 10 11 12 rings

> <PUBCHEM_HEAVY_ATOM_COUNT>
29

> <PUBCHEM_ATOM_DEF_STEREO_COUNT>
3

> <PUBCHEM_ATOM_UDEF_STEREO_COUNT>
0

> <PUBCHEM_BOND_DEF_STEREO_COUNT>
0

> <PUBCHEM_BOND_UDEF_STEREO_COUNT>
0

> <PUBCHEM_ISOTOPIC_ATOM_COUNT>
0

> <PUBCHEM_COMPONENT_COUNT>
1

> <PUBCHEM_CACTVS_TAUTO_COUNT>
1

> <PUBCHEM_CONFORMER_ID>
02AA512000000002

> <PUBCHEM_MMFF94_ENERGY>
70.6271

> <PUBCHEM_FEATURE_SELFOVERLAP>
45.672

> <PUBCHEM_SHAPE_FINGERPRINT>
10006869 2 17831295004922387081
10670039 82 18335713685310668446
11014199 57 18267303320895924886
11513181 2 18343591737441439932
12156800 1 17198588837957882200
12645989 146 18343021108002980358
13122387 1 18409728435072165724
13140716 1 18118969341016850587
13402501 40 18339077082025326080
14117953 113 18412825789998842327
14363568 33 18120675770410144976
14725015 67 18261097591537950505
14955137 171 18336842973076717306
15297060 5 18127137377340704312
15721738 15 16532265872601402676
17627616 140 17758399960554181924
18336668 15 18186521029509699916
19611394 137 18115606961967167595
19930381 70 18121778593652416891
20567600 299 17981606284433787880
20721686 56 18191305077568864656
20764821 26 18266175041861965376
21033648 29 18130496492305252242
21344244 246 17907564085104187647
21860390 5 18198347454008510118
22113638 7 18338794644986263198
463206 1 18050007988923454792
469060 322 18337410257078895707
6287921 2 18270677709259516539
9961470 85 17981877854872977337

> <PUBCHEM_SHAPE_MULTIPOLES>
571.9
9.15
6.61
1.18
5.44
4.95
0
-4.57
0.72
-0.03
-1.13
-0.09
0.36
0.25

> <PUBCHEM_SHAPE_SELFOVERLAP>
1242.302

> <PUBCHEM_SHAPE_VOLUME>
306.6

> <PUBCHEM_COORDINATE_TYPE>
2
5
10

$$$$
