11912605
  -OEChem-12032416113D

 66 68  0     1  0  0  0  0  0999 V2000
    3.6706   -5.0798    0.1519 F   0  0  0  0  0  0  0  0  0  0  0  0
   -2.6639    3.8908    0.1573 O   0  0  0  0  0  0  0  0  0  0  0  0
    4.4145    1.5910   -1.4011 O   0  0  0  0  0  0  0  0  0  0  0  0
   -4.6100   -2.8589   -0.5864 O   0  0  0  0  0  0  0  0  0  0  0  0
   -6.7430   -2.5518    0.2231 O   0  0  0  0  0  0  0  0  0  0  0  0
   -0.7247    3.0886   -0.8117 N   0  0  0  0  0  0  0  0  0  0  0  0
    5.0418    1.0537    0.7713 N   0  0  0  0  0  0  0  0  0  0  0  0
   -2.6359    1.7160   -0.6494 N   0  0  0  0  0  0  0  0  0  0  0  0
    2.1378    3.0037   -0.3947 C   0  0  1  0  0  0  0  0  0  0  0  0
    1.3335    1.7115   -0.6965 C   0  0  2  0  0  0  0  0  0  0  0  0
    1.2553    4.0905    0.2458 C   0  0  0  0  0  0  0  0  0  0  0  0
    0.0744    2.0669   -1.5049 C   0  0  0  0  0  0  0  0  0  0  0  0
   -0.0083    4.3429   -0.5758 C   0  0  0  0  0  0  0  0  0  0  0  0
    0.9594    0.9028    0.5510 C   0  0  0  0  0  0  0  0  0  0  0  0
    3.3831    2.7508    0.4547 C   0  0  0  0  0  0  0  0  0  0  0  0
    0.2609   -0.3877    0.1773 C   0  0  0  0  0  0  0  0  0  0  0  0
   -2.0688    2.9652   -0.4003 C   0  0  0  0  0  0  0  0  0  0  0  0
    4.3208    1.7510   -0.1871 C   0  0  0  0  0  0  0  0  0  0  0  0
    6.0106    0.0331    0.4429 C   0  0  0  0  0  0  0  0  0  0  0  0
   -3.6547    1.0706    0.0946 C   0  0  0  0  0  0  0  0  0  0  0  0
    5.3864   -1.3301    0.3652 C   0  0  0  0  0  0  0  0  0  0  0  0
   -4.1120   -0.1883   -0.2944 C   0  0  0  0  0  0  0  0  0  0  0  0
   -4.2004    1.6950    1.2161 C   0  0  0  0  0  0  0  0  0  0  0  0
   -5.1153   -0.8228    0.4381 C   0  0  0  0  0  0  0  0  0  0  0  0
    5.3180   -2.1316    1.5047 C   0  0  0  0  0  0  0  0  0  0  0  0
    4.8751   -1.7950   -0.8464 C   0  0  0  0  0  0  0  0  0  0  0  0
   -5.2035    1.0605    1.9488 C   0  0  0  0  0  0  0  0  0  0  0  0
   -5.6609   -0.1984    1.5597 C   0  0  0  0  0  0  0  0  0  0  0  0
    4.7384   -3.3983    1.4324 C   0  0  0  0  0  0  0  0  0  0  0  0
    4.2956   -3.0618   -0.9186 C   0  0  0  0  0  0  0  0  0  0  0  0
   -5.5922   -2.1356    0.0336 C   0  0  0  0  0  0  0  0  0  0  0  0
    4.2272   -3.8633    0.2209 C   0  0  0  0  0  0  0  0  0  0  0  0
   -4.9590   -4.1733   -1.0339 C   0  0  0  0  0  0  0  0  0  0  0  0
   -3.7506   -4.8083   -1.6884 C   0  0  0  0  0  0  0  0  0  0  0  0
    2.4736    3.4006   -1.3646 H   0  0  0  0  0  0  0  0  0  0  0  0
    1.9436    1.0643   -1.3392 H   0  0  0  0  0  0  0  0  0  0  0  0
    1.8194    5.0263    0.3372 H   0  0  0  0  0  0  0  0  0  0  0  0
    0.9724    3.7892    1.2621 H   0  0  0  0  0  0  0  0  0  0  0  0
   -0.4908    1.1787   -1.7770 H   0  0  0  0  0  0  0  0  0  0  0  0
    0.3762    2.5133   -2.4620 H   0  0  0  0  0  0  0  0  0  0  0  0
   -0.6418    5.0706   -0.0596 H   0  0  0  0  0  0  0  0  0  0  0  0
    0.2467    4.7680   -1.5537 H   0  0  0  0  0  0  0  0  0  0  0  0
    0.3245    1.4782    1.2333 H   0  0  0  0  0  0  0  0  0  0  0  0
    1.8618    0.6325    1.1090 H   0  0  0  0  0  0  0  0  0  0  0  0
    3.1067    2.4344    1.4665 H   0  0  0  0  0  0  0  0  0  0  0  0
    3.9488    3.6848    0.5656 H   0  0  0  0  0  0  0  0  0  0  0  0
    0.1839   -1.0313    1.0607 H   0  0  0  0  0  0  0  0  0  0  0  0
    0.8196   -0.9426   -0.5835 H   0  0  0  0  0  0  0  0  0  0  0  0
   -0.7574   -0.2324   -0.1807 H   0  0  0  0  0  0  0  0  0  0  0  0
    4.8874    1.2510    1.7557 H   0  0  0  0  0  0  0  0  0  0  0  0
   -2.2950    1.1799   -1.4386 H   0  0  0  0  0  0  0  0  0  0  0  0
    6.4969    0.2845   -0.5072 H   0  0  0  0  0  0  0  0  0  0  0  0
    6.7887    0.0568    1.2143 H   0  0  0  0  0  0  0  0  0  0  0  0
   -3.6843   -0.6567   -1.1782 H   0  0  0  0  0  0  0  0  0  0  0  0
   -3.8706    2.6572    1.5869 H   0  0  0  0  0  0  0  0  0  0  0  0
    5.7110   -1.7799    2.4550 H   0  0  0  0  0  0  0  0  0  0  0  0
    4.9233   -1.1827   -1.7426 H   0  0  0  0  0  0  0  0  0  0  0  0
   -5.6240    1.5429    2.8265 H   0  0  0  0  0  0  0  0  0  0  0  0
   -6.4400   -0.6808    2.1444 H   0  0  0  0  0  0  0  0  0  0  0  0
    4.6844   -4.0225    2.3195 H   0  0  0  0  0  0  0  0  0  0  0  0
    3.8975   -3.4242   -1.8617 H   0  0  0  0  0  0  0  0  0  0  0  0
   -5.7801   -4.1054   -1.7559 H   0  0  0  0  0  0  0  0  0  0  0  0
   -5.2774   -4.7765   -0.1766 H   0  0  0  0  0  0  0  0  0  0  0  0
   -2.9154   -4.8648   -0.9825 H   0  0  0  0  0  0  0  0  0  0  0  0
   -3.4098   -4.2044   -2.5359 H   0  0  0  0  0  0  0  0  0  0  0  0
   -3.9823   -5.8163   -2.0433 H   0  0  0  0  0  0  0  0  0  0  0  0
  1 32  1  0  0  0  0
  2 17  2  0  0  0  0
  3 18  2  0  0  0  0
  4 31  1  0  0  0  0
  4 33  1  0  0  0  0
  5 31  2  0  0  0  0
  6 12  1  0  0  0  0
  6 13  1  0  0  0  0
  6 17  1  0  0  0  0
  7 18  1  0  0  0  0
  7 19  1  0  0  0  0
  7 50  1  0  0  0  0
  8 17  1  0  0  0  0
  8 20  1  0  0  0  0
  8 51  1  0  0  0  0
  9 10  1  0  0  0  0
  9 11  1  0  0  0  0
  9 15  1  0  0  0  0
  9 35  1  0  0  0  0
 10 12  1  0  0  0  0
 10 14  1  0  0  0  0
 10 36  1  0  0  0  0
 11 13  1  0  0  0  0
 11 37  1  0  0  0  0
 11 38  1  0  0  0  0
 12 39  1  0  0  0  0
 12 40  1  0  0  0  0
 13 41  1  0  0  0  0
 13 42  1  0  0  0  0
 14 16  1  0  0  0  0
 14 43  1  0  0  0  0
 14 44  1  0  0  0  0
 15 18  1  0  0  0  0
 15 45  1  0  0  0  0
 15 46  1  0  0  0  0
 16 47  1  0  0  0  0
 16 48  1  0  0  0  0
 16 49  1  0  0  0  0
 19 21  1  0  0  0  0
 19 52  1  0  0  0  0
 19 53  1  0  0  0  0
 20 22  1  0  0  0  0
 20 23  2  0  0  0  0
 21 25  2  0  0  0  0
 21 26  1  0  0  0  0
 22 24  2  0  0  0  0
 22 54  1  0  0  0  0
 23 27  1  0  0  0  0
 23 55  1  0  0  0  0
 24 28  1  0  0  0  0
 24 31  1  0  0  0  0
 25 29  1  0  0  0  0
 25 56  1  0  0  0  0
 26 30  2  0  0  0  0
 26 57  1  0  0  0  0
 27 28  2  0  0  0  0
 27 58  1  0  0  0  0
 28 59  1  0  0  0  0
 29 32  2  0  0  0  0
 29 60  1  0  0  0  0
 30 32  1  0  0  0  0
 30 61  1  0  0  0  0
 33 34  1  0  0  0  0
 33 62  1  0  0  0  0
 33 63  1  0  0  0  0
 34 64  1  0  0  0  0
 34 65  1  0  0  0  0
 34 66  1  0  0  0  0
M  END
> <PUBCHEM_COMPOUND_CID>
11912605

> <PUBCHEM_CONFORMER_RMSD>
1.2

> <PUBCHEM_CONFORMER_DIVERSEORDER>
4
89
117
11
94
50
18
53
114
37
29
48
110
25
51
113
104
79
109
103
54
70
28
69
20
10
65
58
86
84
23
102
45
87
90
75
112
41
119
80
35
8
57
27
66
62
56
88
96
2
101
105
118
76
100
60
85
39
92
82
106
42
40
68
49
77
26
71
7
12
52
55
9
13
15
30
3
67
108
38
46
95
1
98
74
97
17
107
6
78
99
111
83
32
115
81
93
21
24
73
31
47
5
43
72
116
63
19
36
16
34
44
33
91
64
22
61
59
14

> <PUBCHEM_MMFF94_PARTIAL_CHARGES>
38
1 -0.19
12 0.3
13 0.3
15 0.06
17 0.69
18 0.57
19 0.44
2 -0.57
20 0.12
21 -0.14
22 -0.15
23 -0.15
24 0.09
25 -0.15
26 -0.15
27 -0.15
28 -0.15
29 -0.15
3 -0.57
30 -0.15
31 0.63
32 0.19
33 0.28
4 -0.43
5 -0.57
50 0.37
51 0.37
54 0.15
55 0.15
56 0.15
57 0.15
58 0.15
59 0.15
6 -0.66
60 0.15
61 0.15
7 -0.73
8 -0.55

> <PUBCHEM_EFFECTIVE_ROTOR_COUNT>
13.2

> <PUBCHEM_PHARMACOPHORE_FEATURES>
9
1 16 hydrophobe
1 2 acceptor
1 3 acceptor
1 5 acceptor
1 7 donor
1 8 donor
6 20 22 23 24 27 28 rings
6 21 25 26 29 30 32 rings
6 6 9 10 11 12 13 rings

> <PUBCHEM_HEAVY_ATOM_COUNT>
34

> <PUBCHEM_ATOM_DEF_STEREO_COUNT>
2

> <PUBCHEM_ATOM_UDEF_STEREO_COUNT>
0

> <PUBCHEM_BOND_DEF_STEREO_COUNT>
0

> <PUBCHEM_BOND_UDEF_STEREO_COUNT>
0

> <PUBCHEM_ISOTOPIC_ATOM_COUNT>
0

> <PUBCHEM_COMPONENT_COUNT>
1

> <PUBCHEM_CACTVS_TAUTO_COUNT>
4

> <PUBCHEM_CONFORMER_ID>
00B5C59D00000004

> <PUBCHEM_MMFF94_ENERGY>
81.8153

> <PUBCHEM_FEATURE_SELFOVERLAP>
45.671

> <PUBCHEM_SHAPE_FINGERPRINT>
10622 236 18055061332228988791
10864689 126 17616254680603122646
11146346 40 16256415511609834367
117089 54 18337397041475457874
11963148 33 18408318887473217894
12107183 9 18269570372987915209
12422481 6 17702943604842262860
13165053 137 16031817601108484994
14347332 77 18408323267980988321
14950920 106 17988925565588528145
15019793 15 18410853231431155466
15406563 47 17901944137217881749
16110190 28 18341055108250170539
18608769 82 18266460911222904234
19301676 85 17903907865048497445
20028762 73 18195526128155914348
25222932 49 18411983555681236708
260245 28 17982164827640624151
2748736 6 10231748955709680656
4440575 13 18128248099229340175
50009960 94 17751056052379136730
50080093 196 18337382850614017618
5326457 24 18341615948836832683
56633871 153 18410860962546147353
6201320 221 17838038662277252063
7970288 3 18410571829373664045

> <PUBCHEM_SHAPE_MULTIPOLES>
654.01
17.04
7.48
1.39
4.53
4.27
0.17
16.99
4.29
-0.43
-2.04
0.55
0.47
-3.08

> <PUBCHEM_SHAPE_SELFOVERLAP>
1368.059

> <PUBCHEM_SHAPE_VOLUME>
369

> <PUBCHEM_COORDINATE_TYPE>
2
5
10

$$$$
