75536304
  -OEChem-12032416303D

 56 59  0     1  0  0  0  0  0999 V2000
    2.7624    0.4927   -0.6995 O   0  0  0  0  0  0  0  0  0  0  0  0
    5.5171   -0.2077   -1.4801 O   0  0  0  0  0  0  0  0  0  0  0  0
   -3.2744   -3.2698    0.3016 O   0  0  0  0  0  0  0  0  0  0  0  0
   -1.1459    2.8508    1.0876 O   0  0  0  0  0  0  0  0  0  0  0  0
    1.6321   -3.6646   -0.2011 O   0  0  0  0  0  0  0  0  0  0  0  0
    1.4065   -1.5672    0.7014 N   0  0  0  0  0  0  0  0  0  0  0  0
   -0.5031   -2.7872    0.0279 N   0  0  0  0  0  0  0  0  0  0  0  0
    0.2116    3.1468    1.1083 N   0  0  0  0  0  0  0  0  0  0  0  0
    3.4523   -0.7121   -0.3424 C   0  0  1  0  0  0  0  0  0  0  0  0
    4.9592   -0.4684   -0.1894 C   0  0  2  0  0  0  0  0  0  0  0  0
    2.9645    1.5951    0.1881 C   0  0  1  0  0  0  0  0  0  0  0  0
    5.2664    0.7323    0.7014 C   0  0  0  0  0  0  0  0  0  0  0  0
    4.4480    1.9490    0.2789 C   0  0  0  0  0  0  0  0  0  0  0  0
    2.8250   -1.3609    0.8897 C   0  0  0  0  0  0  0  0  0  0  0  0
    2.1582    2.7707   -0.3504 C   0  0  0  0  0  0  0  0  0  0  0  0
    0.6940    2.6367   -0.0285 C   0  0  0  0  0  0  0  0  0  0  0  0
    0.8956   -2.7381    0.1536 C   0  0  0  0  0  0  0  0  0  0  0  0
   -1.1267   -3.9817   -0.5464 C   0  0  0  0  0  0  0  0  0  0  0  0
   -1.4356   -1.6796    0.2814 C   0  0  0  0  0  0  0  0  0  0  0  0
   -0.3028    2.0134   -0.7990 C   0  0  0  0  0  0  0  0  0  0  0  0
   -2.3716   -4.3750    0.2334 C   0  0  0  0  0  0  0  0  0  0  0  0
   -2.6834   -2.1759    1.0041 C   0  0  0  0  0  0  0  0  0  0  0  0
   -1.4401    2.1759   -0.0531 C   0  0  0  0  0  0  0  0  0  0  0  0
   -2.8146    1.8016   -0.2177 C   0  0  0  0  0  0  0  0  0  0  0  0
   -3.2164    1.1071   -1.3588 C   0  0  0  0  0  0  0  0  0  0  0  0
   -3.7496    2.1319    0.7631 C   0  0  0  0  0  0  0  0  0  0  0  0
   -4.5534    0.7430   -1.5191 C   0  0  0  0  0  0  0  0  0  0  0  0
   -5.0866    1.7678    0.6030 C   0  0  0  0  0  0  0  0  0  0  0  0
   -5.4885    1.0734   -0.5381 C   0  0  0  0  0  0  0  0  0  0  0  0
    3.3013   -1.3843   -1.1967 H   0  0  0  0  0  0  0  0  0  0  0  0
    5.4532   -1.3671    0.1961 H   0  0  0  0  0  0  0  0  0  0  0  0
    2.5957    1.3320    1.1867 H   0  0  0  0  0  0  0  0  0  0  0  0
    6.3318    0.9858    0.6530 H   0  0  0  0  0  0  0  0  0  0  0  0
    5.0373    0.4869    1.7451 H   0  0  0  0  0  0  0  0  0  0  0  0
    4.6067    2.7675    0.9901 H   0  0  0  0  0  0  0  0  0  0  0  0
    4.8070    2.2929   -0.6995 H   0  0  0  0  0  0  0  0  0  0  0  0
    2.9293   -0.7389    1.7832 H   0  0  0  0  0  0  0  0  0  0  0  0
    3.3079   -2.3216    1.1002 H   0  0  0  0  0  0  0  0  0  0  0  0
    2.2746    2.8525   -1.4386 H   0  0  0  0  0  0  0  0  0  0  0  0
    2.5183    3.7120    0.0846 H   0  0  0  0  0  0  0  0  0  0  0  0
    0.8081   -0.7994    0.9701 H   0  0  0  0  0  0  0  0  0  0  0  0
    6.4775   -0.1033   -1.3695 H   0  0  0  0  0  0  0  0  0  0  0  0
   -1.3946   -3.7223   -1.5775 H   0  0  0  0  0  0  0  0  0  0  0  0
   -0.4224   -4.8181   -0.5812 H   0  0  0  0  0  0  0  0  0  0  0  0
   -1.7052   -1.2948   -0.7076 H   0  0  0  0  0  0  0  0  0  0  0  0
   -0.9976   -0.8650    0.8542 H   0  0  0  0  0  0  0  0  0  0  0  0
   -0.1977    1.5200   -1.7542 H   0  0  0  0  0  0  0  0  0  0  0  0
   -2.8860   -5.1994   -0.2700 H   0  0  0  0  0  0  0  0  0  0  0  0
   -2.1220   -4.7048    1.2489 H   0  0  0  0  0  0  0  0  0  0  0  0
   -2.4487   -2.4892    2.0284 H   0  0  0  0  0  0  0  0  0  0  0  0
   -3.4262   -1.3748    1.0643 H   0  0  0  0  0  0  0  0  0  0  0  0
   -2.5114    0.8361   -2.1404 H   0  0  0  0  0  0  0  0  0  0  0  0
   -3.4756    2.6716    1.6660 H   0  0  0  0  0  0  0  0  0  0  0  0
   -4.8664    0.2017   -2.4070 H   0  0  0  0  0  0  0  0  0  0  0  0
   -5.8151    2.0244    1.3666 H   0  0  0  0  0  0  0  0  0  0  0  0
   -6.5294    0.7895   -0.6625 H   0  0  0  0  0  0  0  0  0  0  0  0
  1  9  1  0  0  0  0
  1 11  1  0  0  0  0
  2 10  1  0  0  0  0
  2 42  1  0  0  0  0
  3 21  1  0  0  0  0
  3 22  1  0  0  0  0
  4  8  1  0  0  0  0
  4 23  1  0  0  0  0
  5 17  2  0  0  0  0
  6 14  1  0  0  0  0
  6 17  1  0  0  0  0
  6 41  1  0  0  0  0
  7 17  1  0  0  0  0
  7 18  1  0  0  0  0
  7 19  1  0  0  0  0
  8 16  2  0  0  0  0
  9 10  1  0  0  0  0
  9 14  1  0  0  0  0
  9 30  1  0  0  0  0
 10 12  1  0  0  0  0
 10 31  1  0  0  0  0
 11 13  1  0  0  0  0
 11 15  1  0  0  0  0
 11 32  1  0  0  0  0
 12 13  1  0  0  0  0
 12 33  1  0  0  0  0
 12 34  1  0  0  0  0
 13 35  1  0  0  0  0
 13 36  1  0  0  0  0
 14 37  1  0  0  0  0
 14 38  1  0  0  0  0
 15 16  1  0  0  0  0
 15 39  1  0  0  0  0
 15 40  1  0  0  0  0
 16 20  1  0  0  0  0
 18 21  1  0  0  0  0
 18 43  1  0  0  0  0
 18 44  1  0  0  0  0
 19 22  1  0  0  0  0
 19 45  1  0  0  0  0
 19 46  1  0  0  0  0
 20 23  2  0  0  0  0
 20 47  1  0  0  0  0
 21 48  1  0  0  0  0
 21 49  1  0  0  0  0
 22 50  1  0  0  0  0
 22 51  1  0  0  0  0
 23 24  1  0  0  0  0
 24 25  2  0  0  0  0
 24 26  1  0  0  0  0
 25 27  1  0  0  0  0
 25 52  1  0  0  0  0
 26 28  2  0  0  0  0
 26 53  1  0  0  0  0
 27 29  2  0  0  0  0
 27 54  1  0  0  0  0
 28 29  1  0  0  0  0
 28 55  1  0  0  0  0
 29 56  1  0  0  0  0
M  END
> <PUBCHEM_COMPOUND_CID>
75536304

> <PUBCHEM_CONFORMER_RMSD>
1

> <PUBCHEM_CONFORMER_DIVERSEORDER>
1
107
133
126
51
163
70
48
159
167
71
77
164
42
28
88
156
30
130
145
47
90
165
104
54
136
80
17
56
117
57
108
97
83
29
112
78
89
85
155
169
147
149
157
79
125
55
7
148
129
12
115
16
22
74
18
123
161
144
64
179
116
146
99
109
87
101
39
132
91
3
66
62
31
138
43
180
118
73
162
158
173
122
45
36
103
153
67
40
177
166
59
105
27
171
98
60
174
92
81
124
35
5
13
143
23
106
58
37
142
61
175
50
102
19
181
63
100
26
113
128
135
160
151
178
75
134
25
82
34
21
121
94
46
119
65
41
152
137
139
150
170
52
96
9
38
2
69
127
6
154
33
93
15
176
68
131
172
14
20
84
140
49
95
10
141
53
114
44
110
86
8
11
24
111
72
120
32
76
4
168

> <PUBCHEM_MMFF94_PARTIAL_CHARGES>
35
1 -0.56
10 0.28
11 0.28
14 0.3
15 0.18
16 0.11
17 0.69
18 0.3
19 0.3
2 -0.68
20 -0.15
21 0.28
22 0.28
23 0.09
24 0.05
25 -0.15
26 -0.15
27 -0.15
28 -0.15
29 -0.15
3 -0.56
4 -0.02
41 0.37
42 0.4
47 0.15
5 -0.57
52 0.15
53 0.15
54 0.15
55 0.15
56 0.15
6 -0.73
7 -0.66
8 -0.41
9 0.28

> <PUBCHEM_EFFECTIVE_ROTOR_COUNT>
9.4

> <PUBCHEM_PHARMACOPHORE_FEATURES>
11
1 1 acceptor
1 2 acceptor
1 2 donor
1 3 acceptor
1 5 acceptor
1 6 donor
1 8 acceptor
5 4 8 16 20 23 rings
6 1 9 10 11 12 13 rings
6 24 25 26 27 28 29 rings
6 3 7 18 19 21 22 rings

> <PUBCHEM_HEAVY_ATOM_COUNT>
29

> <PUBCHEM_ATOM_DEF_STEREO_COUNT>
3

> <PUBCHEM_ATOM_UDEF_STEREO_COUNT>
0

> <PUBCHEM_BOND_DEF_STEREO_COUNT>
0

> <PUBCHEM_BOND_UDEF_STEREO_COUNT>
0

> <PUBCHEM_ISOTOPIC_ATOM_COUNT>
0

> <PUBCHEM_COMPONENT_COUNT>
1

> <PUBCHEM_CACTVS_TAUTO_COUNT>
2

> <PUBCHEM_CONFORMER_ID>
048097B000000001

> <PUBCHEM_MMFF94_ENERGY>
53.7565

> <PUBCHEM_FEATURE_SELFOVERLAP>
55.826

> <PUBCHEM_SHAPE_FINGERPRINT>
108634 29 18413394224398595302
1100329 8 18411135857184495968
11135609 187 18337940222084922893
11513181 2 18058448699519986759
12156800 1 18048067260642710287
12422481 6 18046093642409559123
12788726 201 17986955146030300704
13122387 1 18338232648768756563
13140716 1 18411133671341548112
13402501 40 18409166623559001133
1361 2 18338517418169986953
138480 1 17185595711161658554
14028597 1 17702679752818319393
14117953 113 17904468615424671189
14747281 78 16881860143428784693
14790565 3 18267587901398072593
14840074 17 18041288672736675789
14866123 147 18338233868513426387
14931854 50 18338231557493681837
15483637 11 18265612268107815215
17492 54 18188483584676677317
17627616 140 18190451676078423635
19930381 70 17977384937145510027
20028762 73 18129091235120111366
20764821 26 18337392759186880797
22113638 7 18408602565119272556
23559900 14 18340483473826150872
3014063 31 18050001400691314959
3052486 1 18261105327248732488
3383291 50 18340763840727270115
338550 245 18188777282713802037
340366 18 18040435533439473109
3680242 22 18263075527014704048
373842 8 18263918848233849138
463206 1 18411979182571624541
469060 322 16733256949664937887
484989 97 18264205980083116063
508706 21 18263917907609208343
5309563 4 17257653850887624263
6287921 2 17695342577859158643
653340 110 18124307474391043776

> <PUBCHEM_SHAPE_MULTIPOLES>
552.52
10.78
5.63
1.09
3.1
5.64
0.14
-4.2
1.32
-3.13
-0.65
-0.33
-0.28
0.34

> <PUBCHEM_SHAPE_SELFOVERLAP>
1170.665

> <PUBCHEM_SHAPE_VOLUME>
307.3

> <PUBCHEM_COORDINATE_TYPE>
2
5
10

$$$$
