38027041
  -OEChem-12032416253D

 73 75  0     1  0  0  0  0  0999 V2000
    2.4025    2.4562   -0.7652 O   0  0  0  0  0  0  0  0  0  0  0  0
   -3.8519   -0.8458    1.6240 O   0  0  0  0  0  0  0  0  0  0  0  0
    7.7756   -1.3365    1.1662 O   0  0  0  0  0  0  0  0  0  0  0  0
   -3.8617    0.6716   -0.1225 N   0  0  0  0  0  0  0  0  0  0  0  0
    2.2067    0.3440   -1.7143 N   0  0  0  0  0  0  0  0  0  0  0  0
    5.3024   -1.1021   -0.2231 N   0  0  0  0  0  0  0  0  0  0  0  0
   -3.5449   -1.5673   -0.5887 N   0  0  0  0  0  0  0  0  0  0  0  0
   -1.6070    2.2680    1.0657 C   0  0  1  0  0  0  0  0  0  0  0  0
   -2.9287    2.8391    0.4939 C   0  0  1  0  0  0  0  0  0  0  0  0
   -0.4041    3.0554    0.5244 C   0  0  0  0  0  0  0  0  0  0  0  0
   -0.3273    3.0174   -1.0136 C   0  0  2  0  0  0  0  0  0  0  0  0
   -1.5939    2.2891    2.5974 C   0  0  0  0  0  0  0  0  0  0  0  0
   -1.6701    3.3098   -1.6519 C   0  0  0  0  0  0  0  0  0  0  0  0
   -2.8205    3.2382   -0.9592 C   0  0  0  0  0  0  0  0  0  0  0  0
   -4.0817    1.8436    0.6656 C   0  0  0  0  0  0  0  0  0  0  0  0
    0.2343    1.6788   -1.5056 C   0  0  0  0  0  0  0  0  0  0  0  0
   -0.6342    1.2328    3.1359 C   0  0  0  0  0  0  0  0  0  0  0  0
   -1.2140    3.6755    3.1071 C   0  0  0  0  0  0  0  0  0  0  0  0
   -1.6563    3.7314   -3.0948 C   0  0  0  0  0  0  0  0  0  0  0  0
    1.7245    1.5681   -1.2747 C   0  0  0  0  0  0  0  0  0  0  0  0
   -3.7591   -0.6230    0.4191 C   0  0  0  0  0  0  0  0  0  0  0  0
    3.5976   -0.0360   -1.6207 C   0  0  0  0  0  0  0  0  0  0  0  0
    3.8898   -0.7356   -0.3014 C   0  0  0  0  0  0  0  0  0  0  0  0
    5.5165   -2.1400    0.7950 C   0  0  0  0  0  0  0  0  0  0  0  0
    6.1309    0.0743    0.0753 C   0  0  0  0  0  0  0  0  0  0  0  0
    6.9984   -2.4969    0.8674 C   0  0  0  0  0  0  0  0  0  0  0  0
    7.5983   -0.3351    0.1637 C   0  0  0  0  0  0  0  0  0  0  0  0
   -3.3898   -2.9662   -0.4488 C   0  0  0  0  0  0  0  0  0  0  0  0
   -3.1806   -3.7608   -1.5759 C   0  0  0  0  0  0  0  0  0  0  0  0
   -3.4462   -3.5512    0.8162 C   0  0  0  0  0  0  0  0  0  0  0  0
   -3.0279   -5.1405   -1.4381 C   0  0  0  0  0  0  0  0  0  0  0  0
   -3.2934   -4.9307    0.9541 C   0  0  0  0  0  0  0  0  0  0  0  0
   -3.0843   -5.7254   -0.1730 C   0  0  0  0  0  0  0  0  0  0  0  0
   -1.5038    1.2267    0.7392 H   0  0  0  0  0  0  0  0  0  0  0  0
   -3.2015    3.7503    1.0411 H   0  0  0  0  0  0  0  0  0  0  0  0
    0.5319    2.6933    0.9608 H   0  0  0  0  0  0  0  0  0  0  0  0
   -0.4847    4.1174    0.7901 H   0  0  0  0  0  0  0  0  0  0  0  0
    0.3565    3.8238   -1.3141 H   0  0  0  0  0  0  0  0  0  0  0  0
   -2.5856    2.0435    2.9912 H   0  0  0  0  0  0  0  0  0  0  0  0
   -3.7510    3.5049   -1.4568 H   0  0  0  0  0  0  0  0  0  0  0  0
   -5.0197    2.2876    0.3106 H   0  0  0  0  0  0  0  0  0  0  0  0
   -4.2406    1.5789    1.7143 H   0  0  0  0  0  0  0  0  0  0  0  0
    0.0826    1.5680   -2.5863 H   0  0  0  0  0  0  0  0  0  0  0  0
   -0.2633    0.8273   -1.0284 H   0  0  0  0  0  0  0  0  0  0  0  0
    0.3997    1.4120    2.8250 H   0  0  0  0  0  0  0  0  0  0  0  0
   -0.9223    0.2323    2.7955 H   0  0  0  0  0  0  0  0  0  0  0  0
   -0.6511    1.2240    4.2313 H   0  0  0  0  0  0  0  0  0  0  0  0
   -0.1528    3.9085    2.9701 H   0  0  0  0  0  0  0  0  0  0  0  0
   -1.3912    3.7217    4.1888 H   0  0  0  0  0  0  0  0  0  0  0  0
   -1.8192    4.4705    2.6614 H   0  0  0  0  0  0  0  0  0  0  0  0
   -0.9950    4.5931   -3.2326 H   0  0  0  0  0  0  0  0  0  0  0  0
   -2.6515    4.0239   -3.4467 H   0  0  0  0  0  0  0  0  0  0  0  0
   -1.3083    2.9186   -3.7385 H   0  0  0  0  0  0  0  0  0  0  0  0
   -3.8438    0.7644   -1.1335 H   0  0  0  0  0  0  0  0  0  0  0  0
    1.5605   -0.3295   -2.1156 H   0  0  0  0  0  0  0  0  0  0  0  0
    4.1965    0.8699   -1.7516 H   0  0  0  0  0  0  0  0  0  0  0  0
    3.8052   -0.7020   -2.4657 H   0  0  0  0  0  0  0  0  0  0  0  0
    3.2647   -1.6382   -0.2650 H   0  0  0  0  0  0  0  0  0  0  0  0
    3.5821   -0.1181    0.5529 H   0  0  0  0  0  0  0  0  0  0  0  0
    4.9488   -3.0437    0.5454 H   0  0  0  0  0  0  0  0  0  0  0  0
    5.1769   -1.7841    1.7765 H   0  0  0  0  0  0  0  0  0  0  0  0
    5.8237    0.5251    1.0282 H   0  0  0  0  0  0  0  0  0  0  0  0
    6.0449    0.8382   -0.7030 H   0  0  0  0  0  0  0  0  0  0  0  0
   -3.4906   -1.2137   -1.5405 H   0  0  0  0  0  0  0  0  0  0  0  0
    7.1677   -3.2253    1.6668 H   0  0  0  0  0  0  0  0  0  0  0  0
    7.3534   -2.9439   -0.0693 H   0  0  0  0  0  0  0  0  0  0  0  0
    7.9734   -0.7080   -0.7972 H   0  0  0  0  0  0  0  0  0  0  0  0
    8.2099    0.5281    0.4452 H   0  0  0  0  0  0  0  0  0  0  0  0
   -3.1344   -3.3176   -2.5674 H   0  0  0  0  0  0  0  0  0  0  0  0
   -3.6045   -3.0036    1.7344 H   0  0  0  0  0  0  0  0  0  0  0  0
   -2.8650   -5.7594   -2.3157 H   0  0  0  0  0  0  0  0  0  0  0  0
   -3.3370   -5.3876    1.9386 H   0  0  0  0  0  0  0  0  0  0  0  0
   -2.9653   -6.7996   -0.0657 H   0  0  0  0  0  0  0  0  0  0  0  0
  1 20  2  0  0  0  0
  2 21  2  0  0  0  0
  3 26  1  0  0  0  0
  3 27  1  0  0  0  0
  4 15  1  0  0  0  0
  4 21  1  0  0  0  0
  4 54  1  0  0  0  0
  5 20  1  0  0  0  0
  5 22  1  0  0  0  0
  5 55  1  0  0  0  0
  6 23  1  0  0  0  0
  6 24  1  0  0  0  0
  6 25  1  0  0  0  0
  7 21  1  0  0  0  0
  7 28  1  0  0  0  0
  7 64  1  0  0  0  0
  8  9  1  0  0  0  0
  8 10  1  0  0  0  0
  8 12  1  0  0  0  0
  8 34  1  0  0  0  0
  9 14  1  0  0  0  0
  9 15  1  0  0  0  0
  9 35  1  0  0  0  0
 10 11  1  0  0  0  0
 10 36  1  0  0  0  0
 10 37  1  0  0  0  0
 11 13  1  0  0  0  0
 11 16  1  0  0  0  0
 11 38  1  0  0  0  0
 12 17  1  0  0  0  0
 12 18  1  0  0  0  0
 12 39  1  0  0  0  0
 13 14  2  0  0  0  0
 13 19  1  0  0  0  0
 14 40  1  0  0  0  0
 15 41  1  0  0  0  0
 15 42  1  0  0  0  0
 16 20  1  0  0  0  0
 16 43  1  0  0  0  0
 16 44  1  0  0  0  0
 17 45  1  0  0  0  0
 17 46  1  0  0  0  0
 17 47  1  0  0  0  0
 18 48  1  0  0  0  0
 18 49  1  0  0  0  0
 18 50  1  0  0  0  0
 19 51  1  0  0  0  0
 19 52  1  0  0  0  0
 19 53  1  0  0  0  0
 22 23  1  0  0  0  0
 22 56  1  0  0  0  0
 22 57  1  0  0  0  0
 23 58  1  0  0  0  0
 23 59  1  0  0  0  0
 24 26  1  0  0  0  0
 24 60  1  0  0  0  0
 24 61  1  0  0  0  0
 25 27  1  0  0  0  0
 25 62  1  0  0  0  0
 25 63  1  0  0  0  0
 26 65  1  0  0  0  0
 26 66  1  0  0  0  0
 27 67  1  0  0  0  0
 27 68  1  0  0  0  0
 28 29  2  0  0  0  0
 28 30  1  0  0  0  0
 29 31  1  0  0  0  0
 29 69  1  0  0  0  0
 30 32  2  0  0  0  0
 30 70  1  0  0  0  0
 31 33  2  0  0  0  0
 31 71  1  0  0  0  0
 32 33  1  0  0  0  0
 32 72  1  0  0  0  0
 33 73  1  0  0  0  0
M  END
> <PUBCHEM_COMPOUND_CID>
38027041

> <PUBCHEM_CONFORMER_RMSD>
1.2

> <PUBCHEM_CONFORMER_DIVERSEORDER>
1
113
188
31
192
12
53
84
132
51
3
59
153
117
193
206
10
102
201
170
143
121
184
60
135
164
6
69
230
182
85
112
38
236
41
78
91
208
64
103
161
25
179
82
140
70
90
145
139
171
74
32
165
55
79
169
210
71
235
203
45
99
202
168
97
26
189
34
87
158
98
110
39
205
204
187
227
147
229
46
114
75
42
72
81
149
228
219
105
33
104
159
178
15
18
56
200
196
120
177
88
124
86
35
152
123
62
96
65
5
115
176
130
101
8
138
24
166
191
118
30
160
232
156
234
216
194
89
80
136
107
137
13
36
131
175
61
48
108
19
92
209
57
52
127
126
174
119
223
23
142
20
151
22
43
226
180
233
134
106
190
47
224
207
155
67
7
211
128
162
44
54
144
49
100
29
63
129
148
215
40
221
14
141
94
185
27
17
133
172
197
116
225
93
122
111
154
220
183
198
195
163
2
37
68
186
231
146
95
157
173
76
199
73
167
214
9
58
11
77
66
213
28
109
125
4
222
150
16
218
212
50
83
21
181
217

> <PUBCHEM_MMFF94_PARTIAL_CHARGES>
37
1 -0.57
11 0.14
13 -0.28
14 -0.29
15 0.3
16 0.06
19 0.14
2 -0.57
20 0.57
21 0.69
22 0.3
23 0.27
24 0.27
25 0.27
26 0.28
27 0.28
28 0.12
29 -0.15
3 -0.56
30 -0.15
31 -0.15
32 -0.15
33 -0.15
4 -0.73
40 0.15
5 -0.73
54 0.37
55 0.37
6 -0.81
64 0.37
69 0.15
7 -0.55
70 0.15
71 0.15
72 0.15
73 0.15
9 0.14

> <PUBCHEM_EFFECTIVE_ROTOR_COUNT>
14

> <PUBCHEM_PHARMACOPHORE_FEATURES>
11
1 1 acceptor
1 2 acceptor
1 3 acceptor
1 4 donor
1 5 donor
1 6 cation
1 7 donor
3 12 17 18 hydrophobe
6 28 29 30 31 32 33 rings
6 3 6 24 25 26 27 rings
6 8 9 10 11 13 14 rings

> <PUBCHEM_HEAVY_ATOM_COUNT>
33

> <PUBCHEM_ATOM_DEF_STEREO_COUNT>
3

> <PUBCHEM_ATOM_UDEF_STEREO_COUNT>
0

> <PUBCHEM_BOND_DEF_STEREO_COUNT>
0

> <PUBCHEM_BOND_UDEF_STEREO_COUNT>
0

> <PUBCHEM_ISOTOPIC_ATOM_COUNT>
0

> <PUBCHEM_COMPONENT_COUNT>
1

> <PUBCHEM_CACTVS_TAUTO_COUNT>
6

> <PUBCHEM_CONFORMER_ID>
02443F2100000001

> <PUBCHEM_MMFF94_ENERGY>
66.8698

> <PUBCHEM_FEATURE_SELFOVERLAP>
55.87

> <PUBCHEM_SHAPE_FINGERPRINT>
10254770 206 18410289246549079187
10319688 45 18335701628778676076
10622 236 18262522627353625838
11211813 163 9150905996745351990
11285246 1 18042399312735492403
12523318 42 18341898433236417580
14040221 299 17989214720103621462
14251764 75 10844521676473777782
14844126 61 18333733481373601289
15320294 125 18188216407340549631
15803439 3 17318693943494264869
15968369 26 16822753047607869283
18603816 31 17461145570909849906
19611394 137 17988924466777818568
20764821 26 16108957859919161639
20775530 9 17838635687967533479
21049683 118 16121662154111135113
21458453 9 17417521549255690338
229767 44 18337959978396193399
3044373 233 17176606602468256259
484985 159 18260818276850707727
5080951 261 18188202105210106292

> <PUBCHEM_SHAPE_MULTIPOLES>
641.59
14.48
8.17
2.62
42.16
9.61
-0.89
15.07
-3.1
-13.56
1.18
-1.46
-2.99
-1.9

> <PUBCHEM_SHAPE_SELFOVERLAP>
1314.62

> <PUBCHEM_SHAPE_VOLUME>
366.9

> <PUBCHEM_COORDINATE_TYPE>
2
5
10

$$$$
