38029190
  -OEChem-12032416253D

 74 76  0     1  0  0  0  0  0999 V2000
   -3.9852    2.8375    0.4329 O   0  0  0  0  0  0  0  0  0  0  0  0
    0.3622   -3.1838    0.8846 O   0  0  0  0  0  0  0  0  0  0  0  0
    7.2758   -0.6495   -0.8816 O   0  0  0  0  0  0  0  0  0  0  0  0
   -1.1176   -2.8650   -0.8650 N   0  0  0  0  0  0  0  0  0  0  0  0
   -1.8885    3.4547   -0.3432 N   0  0  0  0  0  0  0  0  0  0  0  0
    1.0348   -2.0528   -1.0593 N   0  0  0  0  0  0  0  0  0  0  0  0
    2.7480    3.9643    0.2166 N   0  0  0  0  0  0  0  0  0  0  0  0
   -3.0918   -1.4184    0.8823 C   0  0  1  0  0  0  0  0  0  0  0  0
   -3.4192   -2.5525   -0.1209 C   0  0  1  0  0  0  0  0  0  0  0  0
   -4.0733   -0.2493    0.7090 C   0  0  0  0  0  0  0  0  0  0  0  0
   -4.0383    0.3344   -0.7160 C   0  0  2  0  0  0  0  0  0  0  0  0
   -3.1258   -1.9137    2.3316 C   0  0  0  0  0  0  0  0  0  0  0  0
   -4.0870   -0.7521   -1.7710 C   0  0  0  0  0  0  0  0  0  0  0  0
   -3.8205   -2.0387   -1.4837 C   0  0  0  0  0  0  0  0  0  0  0  0
   -2.2388   -3.5196   -0.2670 C   0  0  0  0  0  0  0  0  0  0  0  0
   -2.8149    1.2364   -0.9134 C   0  0  0  0  0  0  0  0  0  0  0  0
   -4.5610   -1.9535    2.8466 C   0  0  0  0  0  0  0  0  0  0  0  0
   -2.2575   -1.0263    3.2177 C   0  0  0  0  0  0  0  0  0  0  0  0
   -4.4942   -0.3331   -3.1562 C   0  0  0  0  0  0  0  0  0  0  0  0
   -2.9658    2.5724   -0.2097 C   0  0  0  0  0  0  0  0  0  0  0  0
    0.1353   -2.7373   -0.2374 C   0  0  0  0  0  0  0  0  0  0  0  0
   -0.6909    3.1184   -1.1097 C   0  0  0  0  0  0  0  0  0  0  0  0
   -1.8795    4.7760    0.2723 C   0  0  0  0  0  0  0  0  0  0  0  0
    0.5395    3.0983   -0.2496 C   0  0  0  0  0  0  0  0  0  0  0  0
    2.3841   -1.7270   -0.7873 C   0  0  0  0  0  0  0  0  0  0  0  0
    0.6386    2.2388    0.8388 C   0  0  0  0  0  0  0  0  0  0  0  0
    1.6123    3.9337   -0.5161 C   0  0  0  0  0  0  0  0  0  0  0  0
    2.9609   -2.1004    0.4267 C   0  0  0  0  0  0  0  0  0  0  0  0
    3.1375   -1.0310   -1.7327 C   0  0  0  0  0  0  0  0  0  0  0  0
    1.7913    2.2409    1.6166 C   0  0  0  0  0  0  0  0  0  0  0  0
    4.2910   -1.7778    0.6952 C   0  0  0  0  0  0  0  0  0  0  0  0
    4.4676   -0.7084   -1.4641 C   0  0  0  0  0  0  0  0  0  0  0  0
    2.8081    3.1147    1.2667 C   0  0  0  0  0  0  0  0  0  0  0  0
    5.0445   -1.0819   -0.2503 C   0  0  0  0  0  0  0  0  0  0  0  0
    6.4312   -0.7459    0.0310 C   0  0  0  0  0  0  0  0  0  0  0  0
    6.8874   -0.5025    1.4657 C   0  0  0  0  0  0  0  0  0  0  0  0
   -2.0819   -1.0464    0.6750 H   0  0  0  0  0  0  0  0  0  0  0  0
   -4.2726   -3.1345    0.2493 H   0  0  0  0  0  0  0  0  0  0  0  0
   -3.8830    0.5350    1.4477 H   0  0  0  0  0  0  0  0  0  0  0  0
   -5.1068   -0.5846    0.8657 H   0  0  0  0  0  0  0  0  0  0  0  0
   -4.9507    0.9361   -0.8320 H   0  0  0  0  0  0  0  0  0  0  0  0
   -2.7136   -2.9257    2.3990 H   0  0  0  0  0  0  0  0  0  0  0  0
   -3.9168   -2.7837   -2.2712 H   0  0  0  0  0  0  0  0  0  0  0  0
   -2.5095   -4.3475   -0.9335 H   0  0  0  0  0  0  0  0  0  0  0  0
   -1.9580   -3.9694    0.6889 H   0  0  0  0  0  0  0  0  0  0  0  0
   -2.6986    1.4591   -1.9801 H   0  0  0  0  0  0  0  0  0  0  0  0
   -1.9073    0.7361   -0.5638 H   0  0  0  0  0  0  0  0  0  0  0  0
   -4.9750   -0.9593    3.0448 H   0  0  0  0  0  0  0  0  0  0  0  0
   -4.5833   -2.4818    3.8079 H   0  0  0  0  0  0  0  0  0  0  0  0
   -5.2348   -2.4991    2.1794 H   0  0  0  0  0  0  0  0  0  0  0  0
   -2.6128    0.0084    3.2470 H   0  0  0  0  0  0  0  0  0  0  0  0
   -1.2198   -1.0183    2.8667 H   0  0  0  0  0  0  0  0  0  0  0  0
   -2.2528   -1.4016    4.2470 H   0  0  0  0  0  0  0  0  0  0  0  0
   -5.4530    0.1948   -3.1275 H   0  0  0  0  0  0  0  0  0  0  0  0
   -4.6146   -1.1916   -3.8258 H   0  0  0  0  0  0  0  0  0  0  0  0
   -3.7460    0.3270   -3.6038 H   0  0  0  0  0  0  0  0  0  0  0  0
   -1.2049   -2.5306   -1.8198 H   0  0  0  0  0  0  0  0  0  0  0  0
   -0.5984    3.8823   -1.8926 H   0  0  0  0  0  0  0  0  0  0  0  0
   -0.7468    2.1670   -1.6400 H   0  0  0  0  0  0  0  0  0  0  0  0
   -1.6351    5.5277   -0.4838 H   0  0  0  0  0  0  0  0  0  0  0  0
   -1.1431    4.8032    1.0798 H   0  0  0  0  0  0  0  0  0  0  0  0
   -2.8603    5.0101    0.6953 H   0  0  0  0  0  0  0  0  0  0  0  0
    0.6839   -1.7458   -1.9631 H   0  0  0  0  0  0  0  0  0  0  0  0
   -0.1704    1.5590    1.0906 H   0  0  0  0  0  0  0  0  0  0  0  0
    1.5966    4.6274   -1.3511 H   0  0  0  0  0  0  0  0  0  0  0  0
    2.4434   -2.6419    1.2058 H   0  0  0  0  0  0  0  0  0  0  0  0
    2.6994   -0.7326   -2.6816 H   0  0  0  0  0  0  0  0  0  0  0  0
    1.8916    1.5775    2.4679 H   0  0  0  0  0  0  0  0  0  0  0  0
    4.7194   -2.0913    1.6433 H   0  0  0  0  0  0  0  0  0  0  0  0
    5.0377   -0.1617   -2.2107 H   0  0  0  0  0  0  0  0  0  0  0  0
    3.7283    3.1539    1.8402 H   0  0  0  0  0  0  0  0  0  0  0  0
    6.0848   -0.0538    2.0573 H   0  0  0  0  0  0  0  0  0  0  0  0
    7.7242    0.2024    1.4592 H   0  0  0  0  0  0  0  0  0  0  0  0
    7.2079   -1.4465    1.9129 H   0  0  0  0  0  0  0  0  0  0  0  0
  1 20  2  0  0  0  0
  2 21  2  0  0  0  0
  3 35  2  0  0  0  0
  4 15  1  0  0  0  0
  4 21  1  0  0  0  0
  4 57  1  0  0  0  0
  5 20  1  0  0  0  0
  5 22  1  0  0  0  0
  5 23  1  0  0  0  0
  6 21  1  0  0  0  0
  6 25  1  0  0  0  0
  6 63  1  0  0  0  0
  7 27  1  0  0  0  0
  7 33  2  0  0  0  0
  8  9  1  0  0  0  0
  8 10  1  0  0  0  0
  8 12  1  0  0  0  0
  8 37  1  0  0  0  0
  9 14  1  0  0  0  0
  9 15  1  0  0  0  0
  9 38  1  0  0  0  0
 10 11  1  0  0  0  0
 10 39  1  0  0  0  0
 10 40  1  0  0  0  0
 11 13  1  0  0  0  0
 11 16  1  0  0  0  0
 11 41  1  0  0  0  0
 12 17  1  0  0  0  0
 12 18  1  0  0  0  0
 12 42  1  0  0  0  0
 13 14  2  0  0  0  0
 13 19  1  0  0  0  0
 14 43  1  0  0  0  0
 15 44  1  0  0  0  0
 15 45  1  0  0  0  0
 16 20  1  0  0  0  0
 16 46  1  0  0  0  0
 16 47  1  0  0  0  0
 17 48  1  0  0  0  0
 17 49  1  0  0  0  0
 17 50  1  0  0  0  0
 18 51  1  0  0  0  0
 18 52  1  0  0  0  0
 18 53  1  0  0  0  0
 19 54  1  0  0  0  0
 19 55  1  0  0  0  0
 19 56  1  0  0  0  0
 22 24  1  0  0  0  0
 22 58  1  0  0  0  0
 22 59  1  0  0  0  0
 23 60  1  0  0  0  0
 23 61  1  0  0  0  0
 23 62  1  0  0  0  0
 24 26  1  0  0  0  0
 24 27  2  0  0  0  0
 25 28  2  0  0  0  0
 25 29  1  0  0  0  0
 26 30  2  0  0  0  0
 26 64  1  0  0  0  0
 27 65  1  0  0  0  0
 28 31  1  0  0  0  0
 28 66  1  0  0  0  0
 29 32  2  0  0  0  0
 29 67  1  0  0  0  0
 30 33  1  0  0  0  0
 30 68  1  0  0  0  0
 31 34  2  0  0  0  0
 31 69  1  0  0  0  0
 32 34  1  0  0  0  0
 32 70  1  0  0  0  0
 33 71  1  0  0  0  0
 34 35  1  0  0  0  0
 35 36  1  0  0  0  0
 36 72  1  0  0  0  0
 36 73  1  0  0  0  0
 36 74  1  0  0  0  0
M  END
> <PUBCHEM_COMPOUND_CID>
38029190

> <PUBCHEM_CONFORMER_RMSD>
1.2

> <PUBCHEM_CONFORMER_DIVERSEORDER>
1
200
235
13
221
175
250
99
117
168
234
81
256
215
173
174
82
73
87
197
182
53
239
8
88
140
162
130
135
18
219
33
70
236
179
30
155
113
60
166
170
257
251
185
172
192
245
249
38
54
254
52
258
193
176
34
71
101
226
35
244
125
218
191
32
232
36
188
195
147
247
248
134
98
43
209
29
69
31
216
100
161
16
164
198
58
103
47
128
138
126
2
243
114
97
189
57
224
59
93
111
95
171
159
183
167
255
203
80
55
17
194
253
5
51
240
238
39
77
41
217
259
206
157
64
94
129
20
153
184
48
146
23
42
228
61
11
63
110
180
229
74
84
22
15
233
26
190
65
178
143
50
237
149
199
204
201
106
28
212
207
40
246
222
45
145
56
10
107
86
202
163
115
91
112
119
46
108
7
186
220
68
105
85
242
118
205
27
223
62
12
154
196
231
144
44
142
21
120
19
4
160
132
131
148
3
227
151
79
252
14
210
92
127
165
121
104
139
102
177
24
76
72
90
208
83
124
150
181
66
137
214
78
152
25
122
141
75
211
37
6
89
49
241
96
169
133
109
225
67
136
9
213
158
116
123
187
230
156

> <PUBCHEM_MMFF94_PARTIAL_CHARGES>
42
1 -0.57
11 0.14
13 -0.28
14 -0.29
15 0.3
16 0.06
19 0.14
2 -0.57
20 0.57
21 0.69
22 0.44
23 0.3
24 -0.14
25 0.12
26 -0.15
27 0.16
28 -0.15
29 -0.15
3 -0.57
30 -0.15
31 -0.15
32 -0.15
33 0.16
34 0.09
35 0.42
36 0.06
4 -0.73
43 0.15
5 -0.66
57 0.37
6 -0.55
63 0.37
64 0.15
65 0.15
66 0.15
67 0.15
68 0.15
69 0.15
7 -0.62
70 0.15
71 0.15
9 0.14

> <PUBCHEM_EFFECTIVE_ROTOR_COUNT>
12.8

> <PUBCHEM_PHARMACOPHORE_FEATURES>
10
1 1 acceptor
1 2 acceptor
1 3 acceptor
1 4 donor
1 6 donor
1 7 acceptor
3 12 17 18 hydrophobe
6 25 28 29 31 32 34 rings
6 7 24 26 27 30 33 rings
6 8 9 10 11 13 14 rings

> <PUBCHEM_HEAVY_ATOM_COUNT>
36

> <PUBCHEM_ATOM_DEF_STEREO_COUNT>
3

> <PUBCHEM_ATOM_UDEF_STEREO_COUNT>
0

> <PUBCHEM_BOND_DEF_STEREO_COUNT>
0

> <PUBCHEM_BOND_UDEF_STEREO_COUNT>
0

> <PUBCHEM_ISOTOPIC_ATOM_COUNT>
0

> <PUBCHEM_COMPONENT_COUNT>
1

> <PUBCHEM_CACTVS_TAUTO_COUNT>
16

> <PUBCHEM_CONFORMER_ID>
0244478600000001

> <PUBCHEM_MMFF94_ENERGY>
93.5634

> <PUBCHEM_FEATURE_SELFOVERLAP>
50.796

> <PUBCHEM_SHAPE_FINGERPRINT>
10032420 55 18045200675084223188
10864689 126 17982171119978202516
12422481 6 18127107875426529088
12608794 3 18270699652311365827
13560911 43 18337945804782817755
14020679 6 18190757336305979569
14647877 51 18269831077180801212
14725015 67 18260833700573970467
15274700 232 16755792184371933878
15968369 153 18343590641935167561
16067690 210 18042964260027716394
16993438 75 18265056829856730248
17627616 140 17974574903089360876
17980427 23 17489317424792156138
19315092 285 16628816595432667445
19319366 153 17466225228467247697
20721686 56 18337667641161880182
20764821 26 18338237179590027981
21344244 246 17838032052016251711
373842 8 18267290118778347668
469060 322 18341624749964001891
508706 21 18341883100097351242
5171179 24 18201706380184530152
6036956 94 18333735688792282564

> <PUBCHEM_SHAPE_MULTIPOLES>
703.33
12.83
6.02
2.35
18.88
6.57
0.78
-6.38
-0.4
-1.45
0.45
-2.91
-1.19
1.53

> <PUBCHEM_SHAPE_SELFOVERLAP>
1467.974

> <PUBCHEM_SHAPE_VOLUME>
396.2

> <PUBCHEM_COORDINATE_TYPE>
2
5
10

$$$$
