45783797
  -OEChem-12032416263D

 52 55  0     1  0  0  0  0  0999 V2000
   -1.7315   -1.6051    2.0262 O   0  0  0  0  0  0  0  0  0  0  0  0
    1.9061    3.4715   -0.8371 O   0  0  0  0  0  0  0  0  0  0  0  0
    1.4774    4.1279    1.2965 O   0  0  0  0  0  0  0  0  0  0  0  0
   -3.7892   -0.4799   -0.8030 N   0  0  1  0  0  0  0  0  0  0  0  0
   -0.9968   -1.2239   -0.0550 N   0  0  0  0  0  0  0  0  0  0  0  0
   -0.3329   -1.6049    2.1009 N   0  0  0  0  0  0  0  0  0  0  0  0
    3.7406   -1.3725    1.0214 N   0  0  0  0  0  0  0  0  0  0  0  0
    5.3910   -1.0563   -0.6673 N   0  0  0  0  0  0  0  0  0  0  0  0
   -3.5119   -1.3254    0.3754 C   0  0  1  0  0  0  0  0  0  0  0  0
   -4.0822   -2.7077    0.0080 C   0  0  0  0  0  0  0  0  0  0  0  0
   -4.7123   -2.5258   -1.3656 C   0  0  0  0  0  0  0  0  0  0  0  0
   -4.9833   -1.0367   -1.4393 C   0  0  0  0  0  0  0  0  0  0  0  0
   -3.9509    0.9302   -0.4731 C   0  0  0  0  0  0  0  0  0  0  0  0
   -2.0388   -1.3743    0.7229 C   0  0  0  0  0  0  0  0  0  0  0  0
   -2.6247    1.6164   -0.2796 C   0  0  0  0  0  0  0  0  0  0  0  0
   -2.3316    2.2368    0.9349 C   0  0  0  0  0  0  0  0  0  0  0  0
   -1.6894    1.6318   -1.3144 C   0  0  0  0  0  0  0  0  0  0  0  0
    0.0268   -1.3737    0.8348 C   0  0  0  0  0  0  0  0  0  0  0  0
   -1.1032    2.8725    1.1145 C   0  0  0  0  0  0  0  0  0  0  0  0
   -0.4610    2.2676   -1.1346 C   0  0  0  0  0  0  0  0  0  0  0  0
    1.3991   -1.2881    0.4259 C   0  0  0  0  0  0  0  0  0  0  0  0
   -0.1678    2.8878    0.0798 C   0  0  0  0  0  0  0  0  0  0  0  0
    1.7376   -1.0476   -0.9011 C   0  0  0  0  0  0  0  0  0  0  0  0
    2.4286   -1.4418    1.3403 C   0  0  0  0  0  0  0  0  0  0  0  0
    1.1135    3.5498    0.2670 C   0  0  0  0  0  0  0  0  0  0  0  0
    3.0767   -0.9695   -1.2680 C   0  0  0  0  0  0  0  0  0  0  0  0
    4.0313   -1.1375   -0.2777 C   0  0  0  0  0  0  0  0  0  0  0  0
    5.7384   -0.8072   -2.0488 C   0  0  0  0  0  0  0  0  0  0  0  0
    6.4401   -1.2142    0.3157 C   0  0  0  0  0  0  0  0  0  0  0  0
   -4.0633   -0.9616    1.2538 H   0  0  0  0  0  0  0  0  0  0  0  0
   -3.3317   -3.5054   -0.0108 H   0  0  0  0  0  0  0  0  0  0  0  0
   -4.8562   -2.9912    0.7316 H   0  0  0  0  0  0  0  0  0  0  0  0
   -5.6199   -3.1242   -1.4870 H   0  0  0  0  0  0  0  0  0  0  0  0
   -4.0000   -2.8242   -2.1448 H   0  0  0  0  0  0  0  0  0  0  0  0
   -5.0946   -0.6991   -2.4744 H   0  0  0  0  0  0  0  0  0  0  0  0
   -5.8953   -0.7879   -0.8819 H   0  0  0  0  0  0  0  0  0  0  0  0
   -4.6087    1.0721    0.3944 H   0  0  0  0  0  0  0  0  0  0  0  0
   -4.4442    1.4535   -1.3045 H   0  0  0  0  0  0  0  0  0  0  0  0
   -3.0499    2.2307    1.7503 H   0  0  0  0  0  0  0  0  0  0  0  0
   -1.9054    1.1564   -2.2676 H   0  0  0  0  0  0  0  0  0  0  0  0
   -0.8934    3.3490    2.0686 H   0  0  0  0  0  0  0  0  0  0  0  0
    0.2380    2.2549   -1.9661 H   0  0  0  0  0  0  0  0  0  0  0  0
    0.9794   -0.9170   -1.6690 H   0  0  0  0  0  0  0  0  0  0  0  0
    2.2495   -1.6315    2.3944 H   0  0  0  0  0  0  0  0  0  0  0  0
    3.2964   -0.7804   -2.3116 H   0  0  0  0  0  0  0  0  0  0  0  0
    5.3710   -1.6042   -2.7051 H   0  0  0  0  0  0  0  0  0  0  0  0
    5.3586    0.1626   -2.3895 H   0  0  0  0  0  0  0  0  0  0  0  0
    6.8251   -0.7749   -2.1885 H   0  0  0  0  0  0  0  0  0  0  0  0
    6.3644   -0.4432    1.0902 H   0  0  0  0  0  0  0  0  0  0  0  0
    6.3796   -2.1988    0.7925 H   0  0  0  0  0  0  0  0  0  0  0  0
    7.4378   -1.1307   -0.1284 H   0  0  0  0  0  0  0  0  0  0  0  0
    2.7679    3.9197   -0.7002 H   0  0  0  0  0  0  0  0  0  0  0  0
  1  6  1  0  0  0  0
  1 14  1  0  0  0  0
  2 25  1  0  0  0  0
  2 52  1  0  0  0  0
  3 25  2  0  0  0  0
  4  9  1  0  0  0  0
  4 12  1  0  0  0  0
  4 13  1  0  0  0  0
  5 14  2  0  0  0  0
  5 18  1  0  0  0  0
  6 18  2  0  0  0  0
  7 24  1  0  0  0  0
  7 27  2  0  0  0  0
  8 27  1  0  0  0  0
  8 28  1  0  0  0  0
  8 29  1  0  0  0  0
  9 10  1  0  0  0  0
  9 14  1  0  0  0  0
  9 30  1  0  0  0  0
 10 11  1  0  0  0  0
 10 31  1  0  0  0  0
 10 32  1  0  0  0  0
 11 12  1  0  0  0  0
 11 33  1  0  0  0  0
 11 34  1  0  0  0  0
 12 35  1  0  0  0  0
 12 36  1  0  0  0  0
 13 15  1  0  0  0  0
 13 37  1  0  0  0  0
 13 38  1  0  0  0  0
 15 16  2  0  0  0  0
 15 17  1  0  0  0  0
 16 19  1  0  0  0  0
 16 39  1  0  0  0  0
 17 20  2  0  0  0  0
 17 40  1  0  0  0  0
 18 21  1  0  0  0  0
 19 22  2  0  0  0  0
 19 41  1  0  0  0  0
 20 22  1  0  0  0  0
 20 42  1  0  0  0  0
 21 23  1  0  0  0  0
 21 24  2  0  0  0  0
 22 25  1  0  0  0  0
 23 26  2  0  0  0  0
 23 43  1  0  0  0  0
 24 44  1  0  0  0  0
 26 27  1  0  0  0  0
 26 45  1  0  0  0  0
 28 46  1  0  0  0  0
 28 47  1  0  0  0  0
 28 48  1  0  0  0  0
 29 49  1  0  0  0  0
 29 50  1  0  0  0  0
 29 51  1  0  0  0  0
M  END
> <PUBCHEM_COMPOUND_CID>
45783797

> <PUBCHEM_CONFORMER_RMSD>
0.8

> <PUBCHEM_CONFORMER_DIVERSEORDER>
1
42
9
59
38
7
52
18
55
80
79
23
29
76
69
13
70
14
77
5
27
15
51
68
34
46
61
10
4
67
28
82
49
60
78
8
65
53
62
33
64
86
75
85
39
84
40
3
44
22
41
73
63
83
19
71
66
30
45
43
47
81
36
54
50
48
6
57
74
72
31
25
2
21
17
12
56
35
24
11
58
16
20
26
32
37

> <PUBCHEM_MMFF94_PARTIAL_CHARGES>
35
1 -0.02
12 0.27
13 0.41
14 0.3
15 -0.14
16 -0.15
17 -0.15
18 0.46
19 -0.15
2 -0.65
20 -0.15
21 0.05
22 0.09
23 -0.15
24 0.16
25 0.63
26 -0.15
27 0.41
28 0.37
29 0.37
3 -0.57
39 0.15
4 -0.81
40 0.15
41 0.15
42 0.15
43 0.15
44 0.15
45 0.15
5 -0.57
52 0.5
6 -0.41
7 -0.62
8 -0.84
9 0.45

> <PUBCHEM_EFFECTIVE_ROTOR_COUNT>
7

> <PUBCHEM_PHARMACOPHORE_FEATURES>
10
1 2 acceptor
1 3 acceptor
1 4 cation
3 2 3 25 anion
3 5 6 18 cation
3 7 8 27 cation
5 1 5 6 14 18 rings
5 4 9 10 11 12 rings
6 15 16 17 19 20 22 rings
6 7 21 23 24 26 27 rings

> <PUBCHEM_HEAVY_ATOM_COUNT>
29

> <PUBCHEM_ATOM_DEF_STEREO_COUNT>
1

> <PUBCHEM_ATOM_UDEF_STEREO_COUNT>
0

> <PUBCHEM_BOND_DEF_STEREO_COUNT>
0

> <PUBCHEM_BOND_UDEF_STEREO_COUNT>
0

> <PUBCHEM_ISOTOPIC_ATOM_COUNT>
0

> <PUBCHEM_COMPONENT_COUNT>
1

> <PUBCHEM_CACTVS_TAUTO_COUNT>
1

> <PUBCHEM_CONFORMER_ID>
02BA9AF500000001

> <PUBCHEM_MMFF94_ENERGY>
78.2071

> <PUBCHEM_FEATURE_SELFOVERLAP>
50.805

> <PUBCHEM_SHAPE_FINGERPRINT>
1100329 8 18411419467424831593
12156800 1 15217465722966645836
12166972 35 17749113321984260910
12788726 201 18190741929725051368
13009979 54 17536849114876704195
13761468 95 17611761011150942926
14787075 74 18333450924302489716
14790565 3 17691403006349439281
14910302 57 17916303827475035486
16090146 7 17918001560445817315
17492 54 18042395847213465253
17818456 19 17831000348243373658
19319366 153 17607243156864785299
20642791 239 18188197707654251085
20642791 35 18335687344328930541
20691752 17 17459172110641182581
20775438 99 17619888987514538567
20905425 154 18194119848953141413
21344244 246 17908694378282266103
23402539 116 18409448072460583174
23419403 2 18045470210146465485
23557571 272 18272368629141471447
23559900 14 18339911714735750785
238918 7 17544470216230649280
3298306 158 17832984223633224413
392239 28 18337955593677676576
4280585 95 18337659863007820592
5171179 24 18341606070391076209
531348 171 18055361245189422022
57527585 103 17388857177470954451
7471813 234 18339922718267948574

> <PUBCHEM_SHAPE_MULTIPOLES>
554.29
10.81
4.42
1.67
11.18
5.26
0.08
-9
-4.59
-1.35
0.71
0.32
-0.4
-0.31

> <PUBCHEM_SHAPE_SELFOVERLAP>
1202.24

> <PUBCHEM_SHAPE_VOLUME>
304.8

> <PUBCHEM_COORDINATE_TYPE>
2
5
10

$$$$
