45783499
  -OEChem-12032416273D

 50 53  0     1  0  0  0  0  0999 V2000
   -2.3495    0.3030   -2.0137 O   0  0  0  0  0  0  0  0  0  0  0  0
    7.4988   -0.7351    0.8087 O   0  0  0  0  0  0  0  0  0  0  0  0
   -4.2303    0.4901    0.9488 N   0  0  1  0  0  0  0  0  0  0  0  0
   -1.3257    0.9856   -0.1422 N   0  0  0  0  0  0  0  0  0  0  0  0
   -2.6726   -2.0632    1.4167 N   0  0  0  0  0  0  0  0  0  0  0  0
   -3.5134   -2.6184   -0.5623 N   0  0  0  0  0  0  0  0  0  0  0  0
   -0.9816    0.0789   -2.2141 N   0  0  0  0  0  0  0  0  0  0  0  0
    3.1893   -0.0833   -1.5897 N   0  0  0  0  0  0  0  0  0  0  0  0
    5.0594    0.3257   -0.1716 N   0  0  0  0  0  0  0  0  0  0  0  0
   -3.8670    1.1751   -0.3077 C   0  0  1  0  0  0  0  0  0  0  0  0
   -4.0484    2.6736   -0.0029 C   0  0  0  0  0  0  0  0  0  0  0  0
   -4.5734    2.7284    1.4247 C   0  0  0  0  0  0  0  0  0  0  0  0
   -5.1892    1.3593    1.6312 C   0  0  0  0  0  0  0  0  0  0  0  0
   -4.7589   -0.8517    0.7395 C   0  0  0  0  0  0  0  0  0  0  0  0
   -2.4649    0.8382   -0.7701 C   0  0  0  0  0  0  0  0  0  0  0  0
   -3.6626   -1.8547    0.4970 C   0  0  0  0  0  0  0  0  0  0  0  0
   -0.4448    0.5062   -1.0674 C   0  0  0  0  0  0  0  0  0  0  0  0
   -1.8392   -3.0211    0.9115 C   0  0  0  0  0  0  0  0  0  0  0  0
    0.9668    0.4694   -0.8152 C   0  0  0  0  0  0  0  0  0  0  0  0
   -2.3786   -3.3480   -0.3104 C   0  0  0  0  0  0  0  0  0  0  0  0
    1.4917    0.9239    0.3895 C   0  0  0  0  0  0  0  0  0  0  0  0
    1.8501   -0.0205   -1.7637 C   0  0  0  0  0  0  0  0  0  0  0  0
    2.8645    0.8755    0.6057 C   0  0  0  0  0  0  0  0  0  0  0  0
    3.6629    0.3675   -0.4064 C   0  0  0  0  0  0  0  0  0  0  0  0
    5.6500    0.7800    1.0451 C   0  0  0  0  0  0  0  0  0  0  0  0
    7.1608    0.6361    0.9750 C   0  0  0  0  0  0  0  0  0  0  0  0
    8.9059   -0.9207    0.7440 C   0  0  0  0  0  0  0  0  0  0  0  0
   -4.5733    0.9177   -1.1096 H   0  0  0  0  0  0  0  0  0  0  0  0
   -3.1308    3.2632   -0.1031 H   0  0  0  0  0  0  0  0  0  0  0  0
   -4.7958    3.0996   -0.6835 H   0  0  0  0  0  0  0  0  0  0  0  0
   -5.2935    3.5389    1.5701 H   0  0  0  0  0  0  0  0  0  0  0  0
   -3.7406    2.8825    2.1222 H   0  0  0  0  0  0  0  0  0  0  0  0
   -6.1821    1.3145    1.1657 H   0  0  0  0  0  0  0  0  0  0  0  0
   -5.2825    1.1166    2.6942 H   0  0  0  0  0  0  0  0  0  0  0  0
   -5.4914   -0.8860   -0.0766 H   0  0  0  0  0  0  0  0  0  0  0  0
   -5.2884   -1.1871    1.6419 H   0  0  0  0  0  0  0  0  0  0  0  0
   -2.5726   -1.5935    2.3068 H   0  0  0  0  0  0  0  0  0  0  0  0
   -0.9687   -3.3678    1.4490 H   0  0  0  0  0  0  0  0  0  0  0  0
   -2.0068   -4.0707   -1.0220 H   0  0  0  0  0  0  0  0  0  0  0  0
    0.8549    1.3198    1.1765 H   0  0  0  0  0  0  0  0  0  0  0  0
    1.5216   -0.3945   -2.7289 H   0  0  0  0  0  0  0  0  0  0  0  0
    3.2397    1.2362    1.5560 H   0  0  0  0  0  0  0  0  0  0  0  0
    5.6320   -0.0514   -0.9181 H   0  0  0  0  0  0  0  0  0  0  0  0
    5.4167    1.8354    1.2273 H   0  0  0  0  0  0  0  0  0  0  0  0
    5.2839    0.1806    1.8875 H   0  0  0  0  0  0  0  0  0  0  0  0
    7.5591    1.2154    0.1330 H   0  0  0  0  0  0  0  0  0  0  0  0
    7.6070    1.0126    1.9028 H   0  0  0  0  0  0  0  0  0  0  0  0
    9.3807   -0.5837    1.6705 H   0  0  0  0  0  0  0  0  0  0  0  0
    9.1068   -1.9879    0.6175 H   0  0  0  0  0  0  0  0  0  0  0  0
    9.3250   -0.3830   -0.1120 H   0  0  0  0  0  0  0  0  0  0  0  0
  1  7  1  0  0  0  0
  1 15  1  0  0  0  0
  2 26  1  0  0  0  0
  2 27  1  0  0  0  0
  3 10  1  0  0  0  0
  3 13  1  0  0  0  0
  3 14  1  0  0  0  0
  4 15  2  0  0  0  0
  4 17  1  0  0  0  0
  5 16  1  0  0  0  0
  5 18  1  0  0  0  0
  5 37  1  0  0  0  0
  6 16  2  0  0  0  0
  6 20  1  0  0  0  0
  7 17  2  0  0  0  0
  8 22  1  0  0  0  0
  8 24  2  0  0  0  0
  9 24  1  0  0  0  0
  9 25  1  0  0  0  0
  9 43  1  0  0  0  0
 10 11  1  0  0  0  0
 10 15  1  0  0  0  0
 10 28  1  0  0  0  0
 11 12  1  0  0  0  0
 11 29  1  0  0  0  0
 11 30  1  0  0  0  0
 12 13  1  0  0  0  0
 12 31  1  0  0  0  0
 12 32  1  0  0  0  0
 13 33  1  0  0  0  0
 13 34  1  0  0  0  0
 14 16  1  0  0  0  0
 14 35  1  0  0  0  0
 14 36  1  0  0  0  0
 17 19  1  0  0  0  0
 18 20  2  0  0  0  0
 18 38  1  0  0  0  0
 19 21  1  0  0  0  0
 19 22  2  0  0  0  0
 20 39  1  0  0  0  0
 21 23  2  0  0  0  0
 21 40  1  0  0  0  0
 22 41  1  0  0  0  0
 23 24  1  0  0  0  0
 23 42  1  0  0  0  0
 25 26  1  0  0  0  0
 25 44  1  0  0  0  0
 25 45  1  0  0  0  0
 26 46  1  0  0  0  0
 26 47  1  0  0  0  0
 27 48  1  0  0  0  0
 27 49  1  0  0  0  0
 27 50  1  0  0  0  0
M  END
> <PUBCHEM_COMPOUND_CID>
45783499

> <PUBCHEM_CONFORMER_RMSD>
1

> <PUBCHEM_CONFORMER_DIVERSEORDER>
1
50
14
23
29
54
51
12
44
60
57
30
40
28
58
16
59
9
53
56
20
36
27
55
34
49
41
25
48
52
11
7
4
24
19
43
26
22
38
45
39
5
46
33
31
35
8
18
47
21
42
15
37
6
10
2
17
13
32
3

> <PUBCHEM_MMFF94_PARTIAL_CHARGES>
32
1 -0.02
10 0.45
13 0.27
14 0.45
15 0.3
16 0.01
17 0.46
18 -0.3
19 0.05
2 -0.56
20 0.08
21 -0.15
22 0.16
23 -0.15
24 0.41
25 0.37
26 0.28
27 0.28
3 -0.81
37 0.27
38 0.15
39 0.15
4 -0.57
40 0.15
41 0.15
42 0.15
43 0.4
5 0.03
6 -0.57
7 -0.41
8 -0.62
9 -0.87

> <PUBCHEM_EFFECTIVE_ROTOR_COUNT>
9

> <PUBCHEM_PHARMACOPHORE_FEATURES>
11
1 2 acceptor
1 3 cation
1 5 donor
1 9 donor
3 4 7 17 cation
3 5 6 16 cation
3 8 9 24 cation
5 1 4 7 15 17 rings
5 3 10 11 12 13 rings
5 5 6 16 18 20 rings
6 8 19 21 22 23 24 rings

> <PUBCHEM_HEAVY_ATOM_COUNT>
27

> <PUBCHEM_ATOM_DEF_STEREO_COUNT>
1

> <PUBCHEM_ATOM_UDEF_STEREO_COUNT>
0

> <PUBCHEM_BOND_DEF_STEREO_COUNT>
0

> <PUBCHEM_BOND_UDEF_STEREO_COUNT>
0

> <PUBCHEM_ISOTOPIC_ATOM_COUNT>
0

> <PUBCHEM_COMPONENT_COUNT>
1

> <PUBCHEM_CACTVS_TAUTO_COUNT>
8

> <PUBCHEM_CONFORMER_ID>
02BA99CB00000001

> <PUBCHEM_MMFF94_ENERGY>
49.7515

> <PUBCHEM_FEATURE_SELFOVERLAP>
55.825

> <PUBCHEM_SHAPE_FINGERPRINT>
10 15 17775282790258952400
10319926 262 18341902896102622718
11036077 4 18335138700320650571
11524674 6 18272366482080115734
11552529 35 18267584800404836839
12422481 6 17750233621169483330
12616971 3 17095246934327349068
12633257 1 18337123340563502785
13004483 165 17911244137679519839
13583140 156 17560522897117714387
13994607 96 13326586189378777383
14844126 61 18338519767644231219
14856354 85 18335987540556226100
15021287 119 17167867465286291788
15183329 4 16732696169555990730
15326921 28 17973145254189717501
15348495 7 18343298210929239304
15352257 5 18260825982940297866
15537594 2 17313097519729881698
17093844 174 17704061902836241680
17780758 139 18408321107385565625
17913733 40 17275390915317502078
18927931 339 15719390620466738925
20554085 129 18268980996111290537
21033648 29 17561096777826467557
21150785 3 8214135266734538128
21267235 1 14490485161589052868
21756936 100 18272647914080370081
23522609 53 17823726160156314916
23559900 14 18126593165738564038
255183 451 9077101227102538977
397830 11 18267010830277549344
4073 2 18413106174296400562
4169191 19 14332831778004668690
484985 159 17749377218134971963
5104073 3 18060144189177799134
5364581 5 18127687347581587320
602551 16 18336274525596182039
68570916 9 18261111937594135236
9953998 17 18334852836230358936

> <PUBCHEM_SHAPE_MULTIPOLES>
509.04
17.69
2.89
1.67
44.93
2.06
0.52
-1.27
-9.46
-5.9
-0.91
-0.46
-0.15
-0.43

> <PUBCHEM_SHAPE_SELFOVERLAP>
1089.284

> <PUBCHEM_SHAPE_VOLUME>
282.4

> <PUBCHEM_COORDINATE_TYPE>
2
5
10

$$$$
