51137738
  -OEChem-12032416343D

 43 45  0     1  0  0  0  0  0999 V2000
    2.0201   -0.7162   -0.1546 O   0  0  0  0  0  0  0  0  0  0  0  0
   -2.2243   -1.0153   -1.8234 O   0  0  0  0  0  0  0  0  0  0  0  0
   -6.8531    2.1729    1.1198 O   0  0  0  0  0  0  0  0  0  0  0  0
   -6.2226    1.6447   -0.9990 O   0  0  0  0  0  0  0  0  0  0  0  0
   -0.9211   -2.0060   -0.1927 N   0  0  0  0  0  0  0  0  0  0  0  0
    3.6101   -2.2377    0.2472 N   0  0  0  0  0  0  0  0  0  0  0  0
    4.1903   -0.9849    0.3166 N   0  0  0  0  0  0  0  0  0  0  0  0
    1.2209   -3.0367   -0.2247 C   0  0  1  0  0  0  0  0  0  0  0  0
    0.5148   -3.3604    1.1013 C   0  0  0  0  0  0  0  0  0  0  0  0
    0.0488   -2.5930   -1.1090 C   0  0  0  0  0  0  0  0  0  0  0  0
   -0.5928   -2.3176    1.1937 C   0  0  0  0  0  0  0  0  0  0  0  0
    2.3436   -2.0324   -0.0296 C   0  0  0  0  0  0  0  0  0  0  0  0
   -1.9908   -1.2497   -0.6366 C   0  0  0  0  0  0  0  0  0  0  0  0
   -2.8967   -0.7098    0.4408 C   0  0  0  0  0  0  0  0  0  0  0  0
   -4.0300    0.1012   -0.1703 C   0  0  0  0  0  0  0  0  0  0  0  0
    3.2258   -0.1281    0.0754 C   0  0  0  0  0  0  0  0  0  0  0  0
   -4.9720    0.7304    0.8545 C   0  0  0  0  0  0  0  0  0  0  0  0
    3.2459    1.3048    0.0185 C   0  0  0  0  0  0  0  0  0  0  0  0
   -6.0639    1.5481    0.2110 C   0  0  0  0  0  0  0  0  0  0  0  0
    4.4373    1.9950    0.2418 C   0  0  0  0  0  0  0  0  0  0  0  0
    2.0741    2.0082   -0.2600 C   0  0  0  0  0  0  0  0  0  0  0  0
    4.4569    3.3887    0.1867 C   0  0  0  0  0  0  0  0  0  0  0  0
    2.0936    3.4018   -0.3153 C   0  0  0  0  0  0  0  0  0  0  0  0
    3.2851    4.0921   -0.0919 C   0  0  0  0  0  0  0  0  0  0  0  0
    1.6813   -3.9395   -0.6442 H   0  0  0  0  0  0  0  0  0  0  0  0
    0.0645   -4.3590    1.0347 H   0  0  0  0  0  0  0  0  0  0  0  0
    1.1722   -3.3447    1.9761 H   0  0  0  0  0  0  0  0  0  0  0  0
   -0.4378   -3.4569   -1.5768 H   0  0  0  0  0  0  0  0  0  0  0  0
    0.3216   -1.8804   -1.8938 H   0  0  0  0  0  0  0  0  0  0  0  0
   -0.2418   -1.3973    1.6727 H   0  0  0  0  0  0  0  0  0  0  0  0
   -1.4682   -2.6887    1.7332 H   0  0  0  0  0  0  0  0  0  0  0  0
   -2.3088   -0.0795    1.1170 H   0  0  0  0  0  0  0  0  0  0  0  0
   -3.3141   -1.5453    1.0126 H   0  0  0  0  0  0  0  0  0  0  0  0
   -3.6116    0.8996   -0.7982 H   0  0  0  0  0  0  0  0  0  0  0  0
   -4.6141   -0.5377   -0.8465 H   0  0  0  0  0  0  0  0  0  0  0  0
   -4.4014    1.3893    1.5184 H   0  0  0  0  0  0  0  0  0  0  0  0
   -5.4438   -0.0553    1.4545 H   0  0  0  0  0  0  0  0  0  0  0  0
    5.3626    1.4675    0.4606 H   0  0  0  0  0  0  0  0  0  0  0  0
    1.1267    1.5060   -0.4392 H   0  0  0  0  0  0  0  0  0  0  0  0
    5.3844    3.9264    0.3606 H   0  0  0  0  0  0  0  0  0  0  0  0
    1.1814    3.9500   -0.5321 H   0  0  0  0  0  0  0  0  0  0  0  0
    3.3002    5.1772   -0.1349 H   0  0  0  0  0  0  0  0  0  0  0  0
   -7.5577    2.7030    0.6899 H   0  0  0  0  0  0  0  0  0  0  0  0
  1 12  1  0  0  0  0
  1 16  1  0  0  0  0
  2 13  2  0  0  0  0
  3 19  1  0  0  0  0
  3 43  1  0  0  0  0
  4 19  2  0  0  0  0
  5 10  1  0  0  0  0
  5 11  1  0  0  0  0
  5 13  1  0  0  0  0
  6  7  1  0  0  0  0
  6 12  2  0  0  0  0
  7 16  2  0  0  0  0
  8  9  1  0  0  0  0
  8 10  1  0  0  0  0
  8 12  1  0  0  0  0
  8 25  1  0  0  0  0
  9 11  1  0  0  0  0
  9 26  1  0  0  0  0
  9 27  1  0  0  0  0
 10 28  1  0  0  0  0
 10 29  1  0  0  0  0
 11 30  1  0  0  0  0
 11 31  1  0  0  0  0
 13 14  1  0  0  0  0
 14 15  1  0  0  0  0
 14 32  1  0  0  0  0
 14 33  1  0  0  0  0
 15 17  1  0  0  0  0
 15 34  1  0  0  0  0
 15 35  1  0  0  0  0
 16 18  1  0  0  0  0
 17 19  1  0  0  0  0
 17 36  1  0  0  0  0
 17 37  1  0  0  0  0
 18 20  2  0  0  0  0
 18 21  1  0  0  0  0
 20 22  1  0  0  0  0
 20 38  1  0  0  0  0
 21 23  2  0  0  0  0
 21 39  1  0  0  0  0
 22 24  2  0  0  0  0
 22 40  1  0  0  0  0
 23 24  1  0  0  0  0
 23 41  1  0  0  0  0
 24 42  1  0  0  0  0
M  END
> <PUBCHEM_COMPOUND_CID>
51137738

> <PUBCHEM_CONFORMER_RMSD>
1

> <PUBCHEM_CONFORMER_DIVERSEORDER>
1
49
19
46
74
4
97
30
7
76
113
80
28
50
106
102
34
38
3
40
23
68
70
109
73
5
107
87
31
91
84
101
81
8
89
110
62
54
104
6
105
93
22
114
39
36
11
21
10
59
67
63
108
20
18
100
48
15
111
66
96
60
79
45
72
27
26
71
56
98
69
43
12
65
82
29
53
61
17
35
37
33
13
41
9
115
25
94
42
99
55
2
58
16
90
32
52
64
44
47
57
112
92
77
85
51
83
24
78
88
86
75
14
95
103
116

> <PUBCHEM_MMFF94_PARTIAL_CHARGES>
28
1 -0.28
10 0.3
11 0.3
12 0.3
13 0.57
14 0.06
16 0.43
17 0.06
18 0.05
19 0.66
2 -0.57
20 -0.15
21 -0.15
22 -0.15
23 -0.15
24 -0.15
3 -0.65
38 0.15
39 0.15
4 -0.57
40 0.15
41 0.15
42 0.15
43 0.5
5 -0.66
6 -0.34
7 -0.34
8 0.18

> <PUBCHEM_EFFECTIVE_ROTOR_COUNT>
8

> <PUBCHEM_PHARMACOPHORE_FEATURES>
7
1 2 acceptor
1 3 acceptor
1 4 acceptor
3 3 4 19 anion
5 1 6 7 12 16 rings
5 5 8 9 10 11 rings
6 18 20 21 22 23 24 rings

> <PUBCHEM_HEAVY_ATOM_COUNT>
24

> <PUBCHEM_ATOM_DEF_STEREO_COUNT>
1

> <PUBCHEM_ATOM_UDEF_STEREO_COUNT>
0

> <PUBCHEM_BOND_DEF_STEREO_COUNT>
0

> <PUBCHEM_BOND_UDEF_STEREO_COUNT>
0

> <PUBCHEM_ISOTOPIC_ATOM_COUNT>
0

> <PUBCHEM_COMPONENT_COUNT>
1

> <PUBCHEM_CACTVS_TAUTO_COUNT>
1

> <PUBCHEM_CONFORMER_ID>
030C4CCA00000001

> <PUBCHEM_MMFF94_ENERGY>
41.3567

> <PUBCHEM_FEATURE_SELFOVERLAP>
35.58

> <PUBCHEM_SHAPE_FINGERPRINT>
10411042 1 17834114139440607386
10615611 76 17844825702477795105
10675989 125 18413110545603327008
10937287 8 18268429212122765815
10951579 204 16389040824703196572
12107183 9 18191005989453532360
12633257 1 18115848858871952914
12788726 201 17346611746304297009
12925494 130 18336828684432141089
13590594 115 17907304247571262290
13878862 14 18189034440023364373
13944108 23 18265626394092053244
13965767 371 17968928807906640428
14223995 32 18126840736887998920
14251764 38 18265895933243455811
14251764 75 18340212998128530561
14429380 56 18337379454290990237
15081414 286 18196372524328452742
15142526 21 18334295383703474275
15238133 3 18333735745496573622
15295992 7 18186805794204837282
15322535 138 17621025895348642713
15475509 84 17466216436152227931
155225 5 16969707174485414836
16087824 20 18338238159618453476
16760501 71 18410580583059975073
1768 85 18408325476042779129
17810953 82 18411141333167649573
18335252 114 18267298742502894847
20715895 44 18412824676884829433
21033650 10 14835862654942374595
21344244 78 17756686560413428659
21388113 180 18334005078353384109
21475661 188 18407761434608385251
21716022 299 14403514775574519247
21860390 5 18272094846551278934
22122407 14 18267597797614490385
22182937 141 18048034370083823810
23569914 152 9148953092443593185
23845131 108 18187644739025802899
245318 6 18189068645069569693
3388396 114 16398298712333658964
4487111 67 16896523684877796581
474 4 18412261727148036427
5048184 11 18195809793571409020
5104073 3 18114456855065001058
56616090 13 18410293623014849739
633830 44 18411976974969049223
7288768 16 18042120036681485283
7970288 3 11853335702545145304

> <PUBCHEM_SHAPE_MULTIPOLES>
455.49
12.77
5.32
1.03
21.04
1.27
0.11
15.49
-1.64
-4.41
-0.36
0.93
-0.38
-0.63

> <PUBCHEM_SHAPE_SELFOVERLAP>
967.605

> <PUBCHEM_SHAPE_VOLUME>
254.4

> <PUBCHEM_COORDINATE_TYPE>
2
5
10

$$$$
