11865859
  -OEChem-12032416123D

 72 74  0     1  0  0  0  0  0999 V2000
    3.6646   -0.2133   -1.5180 O   0  0  0  0  0  0  0  0  0  0  0  0
    1.7879    1.2624    1.1626 O   0  0  0  0  0  0  0  0  0  0  0  0
   -2.3617   -2.7913    0.9880 O   0  0  0  0  0  0  0  0  0  0  0  0
    1.7641    3.2644   -2.2804 O   0  0  0  0  0  0  0  0  0  0  0  0
    2.4706   -1.1417    0.2343 N   0  0  0  0  0  0  0  0  0  0  0  0
   -0.2925   -2.5902   -0.0460 N   0  0  0  0  0  0  0  0  0  0  0  0
    0.3467    1.5763   -0.6384 N   0  0  0  0  0  0  0  0  0  0  0  0
   -1.7058   -4.3015   -0.6467 N   0  0  0  0  0  0  0  0  0  0  0  0
   -3.8345    3.4229    1.5571 N   0  0  0  0  0  0  0  0  0  0  0  0
    1.6534    4.8822   -0.6536 N   0  0  0  0  0  0  0  0  0  0  0  0
    1.1649   -0.6241   -0.1621 C   0  0  1  0  0  0  0  0  0  0  0  0
    0.1556   -1.4178    0.6675 C   0  0  2  0  0  0  0  0  0  0  0  0
    0.9463   -1.7980    1.9224 C   0  0  0  0  0  0  0  0  0  0  0  0
    2.3663   -2.0016    1.4100 C   0  0  0  0  0  0  0  0  0  0  0  0
    3.6111   -0.9476   -0.5300 C   0  0  0  0  0  0  0  0  0  0  0  0
    1.1535    0.8304    0.2037 C   0  0  0  0  0  0  0  0  0  0  0  0
    4.8362   -1.6987   -0.0725 C   0  0  0  0  0  0  0  0  0  0  0  0
    5.9909   -0.7666    0.3361 C   0  0  0  0  0  0  0  0  0  0  0  0
    0.1470    2.9993   -0.4860 C   0  0  2  0  0  0  0  0  0  0  0  0
    5.4885    0.1334    1.4808 C   0  0  0  0  0  0  0  0  0  0  0  0
    7.2019   -1.5702    0.8398 C   0  0  0  0  0  0  0  0  0  0  0  0
    6.4239    0.1288   -0.8373 C   0  0  0  0  0  0  0  0  0  0  0  0
   -1.5299   -3.1905    0.1741 C   0  0  0  0  0  0  0  0  0  0  0  0
   -1.2158    3.4554   -1.0224 C   0  0  0  0  0  0  0  0  0  0  0  0
   -2.3452    3.1809   -0.0710 C   0  0  0  0  0  0  0  0  0  0  0  0
    1.2738    3.6924   -1.2382 C   0  0  0  0  0  0  0  0  0  0  0  0
   -3.1370    1.9999   -0.0131 C   0  0  0  0  0  0  0  0  0  0  0  0
   -2.7981    4.0368    0.9065 C   0  0  0  0  0  0  0  0  0  0  0  0
   -2.9019   -5.1101   -0.6235 C   0  0  0  0  0  0  0  0  0  0  0  0
   -4.0636    2.1776    1.0165 C   0  0  0  0  0  0  0  0  0  0  0  0
   -3.1543    0.7930   -0.7402 C   0  0  0  0  0  0  0  0  0  0  0  0
   -5.0104    1.2050    1.3568 C   0  0  0  0  0  0  0  0  0  0  0  0
   -3.8813   -4.5602   -1.6064 C   0  0  0  0  0  0  0  0  0  0  0  0
   -4.0957   -0.1889   -0.4109 C   0  0  0  0  0  0  0  0  0  0  0  0
   -5.0086    0.0160    0.6218 C   0  0  0  0  0  0  0  0  0  0  0  0
   -5.1107   -4.1448   -1.2812 C   0  0  0  0  0  0  0  0  0  0  0  0
    1.0383   -0.7476   -1.2441 H   0  0  0  0  0  0  0  0  0  0  0  0
   -0.7254   -0.8238    0.9358 H   0  0  0  0  0  0  0  0  0  0  0  0
    0.5631   -2.6830    2.4396 H   0  0  0  0  0  0  0  0  0  0  0  0
    0.9325   -0.9618    2.6322 H   0  0  0  0  0  0  0  0  0  0  0  0
    2.5204   -3.0383    1.0912 H   0  0  0  0  0  0  0  0  0  0  0  0
    3.1126   -1.7344    2.1623 H   0  0  0  0  0  0  0  0  0  0  0  0
    4.6371   -2.4084    0.7322 H   0  0  0  0  0  0  0  0  0  0  0  0
    5.1501   -2.3203   -0.9223 H   0  0  0  0  0  0  0  0  0  0  0  0
    0.3510   -3.0406   -0.6898 H   0  0  0  0  0  0  0  0  0  0  0  0
   -0.0815    1.1217   -1.4396 H   0  0  0  0  0  0  0  0  0  0  0  0
    0.2398    3.2420    0.5805 H   0  0  0  0  0  0  0  0  0  0  0  0
    5.1508   -0.4612    2.3365 H   0  0  0  0  0  0  0  0  0  0  0  0
    4.6644    0.7845    1.1718 H   0  0  0  0  0  0  0  0  0  0  0  0
    6.2922    0.7882    1.8384 H   0  0  0  0  0  0  0  0  0  0  0  0
    6.9293   -2.2039    1.6910 H   0  0  0  0  0  0  0  0  0  0  0  0
    7.5922   -2.2218    0.0502 H   0  0  0  0  0  0  0  0  0  0  0  0
    8.0149   -0.9104    1.1627 H   0  0  0  0  0  0  0  0  0  0  0  0
    5.6990    0.9158   -1.0643 H   0  0  0  0  0  0  0  0  0  0  0  0
    6.5955   -0.4612   -1.7443 H   0  0  0  0  0  0  0  0  0  0  0  0
    7.3634    0.6438   -0.6024 H   0  0  0  0  0  0  0  0  0  0  0  0
   -1.4254    2.9861   -1.9925 H   0  0  0  0  0  0  0  0  0  0  0  0
   -1.1938    4.5365   -1.2169 H   0  0  0  0  0  0  0  0  0  0  0  0
   -0.9715   -4.5429   -1.3053 H   0  0  0  0  0  0  0  0  0  0  0  0
   -2.4764    5.0267    1.1989 H   0  0  0  0  0  0  0  0  0  0  0  0
   -3.3063   -5.1343    0.3940 H   0  0  0  0  0  0  0  0  0  0  0  0
   -2.6189   -6.1281   -0.9084 H   0  0  0  0  0  0  0  0  0  0  0  0
   -4.3564    3.8249    2.3236 H   0  0  0  0  0  0  0  0  0  0  0  0
    2.3864    5.4523   -1.0624 H   0  0  0  0  0  0  0  0  0  0  0  0
    1.2228    5.2351    0.1951 H   0  0  0  0  0  0  0  0  0  0  0  0
   -2.4530    0.6155   -1.5502 H   0  0  0  0  0  0  0  0  0  0  0  0
   -5.7213    1.3635    2.1606 H   0  0  0  0  0  0  0  0  0  0  0  0
   -4.1135   -1.1202   -0.9698 H   0  0  0  0  0  0  0  0  0  0  0  0
   -3.5763   -4.5110   -2.6489 H   0  0  0  0  0  0  0  0  0  0  0  0
   -5.7307   -0.7607    0.8605 H   0  0  0  0  0  0  0  0  0  0  0  0
   -5.7800   -3.7601   -2.0429 H   0  0  0  0  0  0  0  0  0  0  0  0
   -5.4683   -4.1769   -0.2580 H   0  0  0  0  0  0  0  0  0  0  0  0
  1 15  2  0  0  0  0
  2 16  2  0  0  0  0
  3 23  2  0  0  0  0
  4 26  2  0  0  0  0
  5 11  1  0  0  0  0
  5 14  1  0  0  0  0
  5 15  1  0  0  0  0
  6 12  1  0  0  0  0
  6 23  1  0  0  0  0
  6 45  1  0  0  0  0
  7 16  1  0  0  0  0
  7 19  1  0  0  0  0
  7 46  1  0  0  0  0
  8 23  1  0  0  0  0
  8 29  1  0  0  0  0
  8 59  1  0  0  0  0
  9 28  1  0  0  0  0
  9 30  1  0  0  0  0
  9 63  1  0  0  0  0
 10 26  1  0  0  0  0
 10 64  1  0  0  0  0
 10 65  1  0  0  0  0
 11 12  1  0  0  0  0
 11 16  1  0  0  0  0
 11 37  1  0  0  0  0
 12 13  1  0  0  0  0
 12 38  1  0  0  0  0
 13 14  1  0  0  0  0
 13 39  1  0  0  0  0
 13 40  1  0  0  0  0
 14 41  1  0  0  0  0
 14 42  1  0  0  0  0
 15 17  1  0  0  0  0
 17 18  1  0  0  0  0
 17 43  1  0  0  0  0
 17 44  1  0  0  0  0
 18 20  1  0  0  0  0
 18 21  1  0  0  0  0
 18 22  1  0  0  0  0
 19 24  1  0  0  0  0
 19 26  1  0  0  0  0
 19 47  1  0  0  0  0
 20 48  1  0  0  0  0
 20 49  1  0  0  0  0
 20 50  1  0  0  0  0
 21 51  1  0  0  0  0
 21 52  1  0  0  0  0
 21 53  1  0  0  0  0
 22 54  1  0  0  0  0
 22 55  1  0  0  0  0
 22 56  1  0  0  0  0
 24 25  1  0  0  0  0
 24 57  1  0  0  0  0
 24 58  1  0  0  0  0
 25 27  1  0  0  0  0
 25 28  2  0  0  0  0
 27 30  1  0  0  0  0
 27 31  2  0  0  0  0
 28 60  1  0  0  0  0
 29 33  1  0  0  0  0
 29 61  1  0  0  0  0
 29 62  1  0  0  0  0
 30 32  2  0  0  0  0
 31 34  1  0  0  0  0
 31 66  1  0  0  0  0
 32 35  1  0  0  0  0
 32 67  1  0  0  0  0
 33 36  2  0  0  0  0
 33 69  1  0  0  0  0
 34 35  2  0  0  0  0
 34 68  1  0  0  0  0
 35 70  1  0  0  0  0
 36 71  1  0  0  0  0
 36 72  1  0  0  0  0
M  END
> <PUBCHEM_COMPOUND_CID>
11865859

> <PUBCHEM_CONFORMER_RMSD>
1.2

> <PUBCHEM_CONFORMER_DIVERSEORDER>
1
28
52
33
53
40
54
11
23
50
36
49
44
14
22
51
48
29
38
43
24
3
37
42
12
31
25
55
17
30
6
15
27
10
47
8
18
39
19
7
34
21
45
13
35
32
26
20
41
4
5
16
9
46
2

> <PUBCHEM_MMFF94_PARTIAL_CHARGES>
44
1 -0.57
10 -0.8
11 0.36
12 0.3
14 0.3
15 0.57
16 0.57
17 0.06
19 0.36
2 -0.57
23 0.69
24 0.18
25 -0.18
26 0.57
28 -0.3
29 0.44
3 -0.57
30 -0.15
31 -0.15
32 -0.15
33 -0.29
34 -0.15
35 -0.15
36 -0.3
4 -0.57
45 0.37
46 0.37
5 -0.66
59 0.37
6 -0.73
60 0.15
63 0.27
64 0.37
65 0.37
66 0.15
67 0.15
68 0.15
69 0.15
7 -0.73
70 0.15
71 0.15
72 0.15
8 -0.73
9 0.03

> <PUBCHEM_EFFECTIVE_ROTOR_COUNT>
15

> <PUBCHEM_PHARMACOPHORE_FEATURES>
15
1 1 acceptor
1 10 donor
1 2 acceptor
1 3 acceptor
1 36 hydrophobe
1 4 acceptor
1 6 donor
1 7 donor
1 8 donor
1 9 cation
1 9 donor
4 18 20 21 22 hydrophobe
5 5 11 12 13 14 rings
5 9 25 27 28 30 rings
6 27 30 31 32 34 35 rings

> <PUBCHEM_HEAVY_ATOM_COUNT>
36

> <PUBCHEM_ATOM_DEF_STEREO_COUNT>
3

> <PUBCHEM_ATOM_UDEF_STEREO_COUNT>
0

> <PUBCHEM_BOND_DEF_STEREO_COUNT>
0

> <PUBCHEM_BOND_UDEF_STEREO_COUNT>
0

> <PUBCHEM_ISOTOPIC_ATOM_COUNT>
0

> <PUBCHEM_COMPONENT_COUNT>
1

> <PUBCHEM_CACTVS_TAUTO_COUNT>
12

> <PUBCHEM_CONFORMER_ID>
00B50F0300000001

> <PUBCHEM_MMFF94_ENERGY>
74.2849

> <PUBCHEM_FEATURE_SELFOVERLAP>
76.265

> <PUBCHEM_SHAPE_FINGERPRINT>
10290309 65 17833834872044808477
10675989 125 17329157278365088524
10815517 723 18412823599280866155
10940486 97 18409736161649798853
1100329 8 18262243316776538468
11014199 57 18267581497459058455
12107698 1 18267864071963617759
12440605 4 18046930426081681424
13757389 114 18341058419337581510
14068700 675 18339354279552103151
14117953 113 18411693293386353487
14790565 3 18267024947238861104
15264996 163 18334849512168258637
15297060 5 18057329374843726601
15351339 4 17760638570982282315
15927050 60 18193015892003527268
17349148 13 16662636267602121960
17627616 140 17902235846843468653
19311894 1 18410008806247660230
19319366 153 17676212329471414322
20764821 26 18192443076229651463
21033648 29 18201428126042908593
255183 313 18339364041912481994
3493558 16 18272366533830772288
354706 35 17610318477855411325
3610482 184 18189353371484008726
3882209 13 18052799614734033919
392239 28 18117565033404662808
4461854 278 18269294382652591819
50677037 204 18411125931609955538
57527358 35 15043076796348276913
6608658 132 18335411349256210083

> <PUBCHEM_SHAPE_MULTIPOLES>
687.5
13.01
7.37
1.56
16.37
2.12
0.01
5.25
-1.72
-10.21
2.75
0
-0.24
-3.79

> <PUBCHEM_SHAPE_SELFOVERLAP>
1441.802

> <PUBCHEM_SHAPE_VOLUME>
388.7

> <PUBCHEM_COORDINATE_TYPE>
2
5
10

$$$$
