56774074
  -OEChem-12032416323D

 47 48  0     1  0  0  0  0  0999 V2000
   -4.3436   -2.0371   -0.0527 S   0  0  0  0  0  0  0  0  0  0  0  0
   -3.1382   -2.8399    0.0086 O   0  0  0  0  0  0  0  0  0  0  0  0
   -5.4620   -2.4278   -0.8882 O   0  0  0  0  0  0  0  0  0  0  0  0
    3.1784    1.0921    1.0887 O   0  0  0  0  0  0  0  0  0  0  0  0
   -3.9352   -0.4167   -0.4138 N   0  0  0  0  0  0  0  0  0  0  0  0
    2.0956    1.9212    0.8213 N   0  0  0  0  0  0  0  0  0  0  0  0
   -2.4964    1.7508   -0.2581 C   0  0  0  0  0  0  0  0  0  0  0  0
   -1.0877    1.4514    0.2955 C   0  0  1  0  0  0  0  0  0  0  0  0
   -2.9402    0.4074    0.3573 C   0  0  2  0  0  0  0  0  0  0  0  0
   -1.4688   -0.0429    0.2440 C   0  0  0  0  0  0  0  0  0  0  0  0
    0.1110    1.8407   -0.5799 C   0  0  0  0  0  0  0  0  0  0  0  0
   -2.6208    1.7802   -1.7701 C   0  0  0  0  0  0  0  0  0  0  0  0
   -3.1279    2.9887    0.3390 C   0  0  0  0  0  0  0  0  0  0  0  0
    1.3575    1.2498   -0.0671 C   0  0  0  0  0  0  0  0  0  0  0  0
    1.9190    0.0036   -0.3945 C   0  0  0  0  0  0  0  0  0  0  0  0
   -4.9539   -1.8399    1.6045 C   0  0  0  0  0  0  0  0  0  0  0  0
    3.0619   -0.0466    0.3588 C   0  0  0  0  0  0  0  0  0  0  0  0
    4.1578   -1.0679    0.5258 C   0  0  0  0  0  0  0  0  0  0  0  0
    5.4218   -0.6719   -0.2405 C   0  0  0  0  0  0  0  0  0  0  0  0
    6.5135   -1.7316   -0.0933 C   0  0  0  0  0  0  0  0  0  0  0  0
    7.7582   -1.3635   -0.8852 C   0  0  0  0  0  0  0  0  0  0  0  0
   -0.9525    1.8048    1.3296 H   0  0  0  0  0  0  0  0  0  0  0  0
   -3.2675    0.5119    1.4004 H   0  0  0  0  0  0  0  0  0  0  0  0
   -1.2212   -0.5602   -0.6906 H   0  0  0  0  0  0  0  0  0  0  0  0
   -1.1031   -0.6472    1.0797 H   0  0  0  0  0  0  0  0  0  0  0  0
    0.1938    2.9343   -0.6134 H   0  0  0  0  0  0  0  0  0  0  0  0
   -0.0250    1.5107   -1.6162 H   0  0  0  0  0  0  0  0  0  0  0  0
   -3.6707    1.8454   -2.0792 H   0  0  0  0  0  0  0  0  0  0  0  0
   -2.1986    0.8941   -2.2562 H   0  0  0  0  0  0  0  0  0  0  0  0
   -2.1146    2.6568   -2.1911 H   0  0  0  0  0  0  0  0  0  0  0  0
   -4.1879    3.0609    0.0712 H   0  0  0  0  0  0  0  0  0  0  0  0
   -2.6290    3.8980   -0.0139 H   0  0  0  0  0  0  0  0  0  0  0  0
   -3.0700    2.9874    1.4333 H   0  0  0  0  0  0  0  0  0  0  0  0
   -4.7209    0.1450   -0.7694 H   0  0  0  0  0  0  0  0  0  0  0  0
    1.5503   -0.7485   -1.0764 H   0  0  0  0  0  0  0  0  0  0  0  0
   -5.3376   -2.8075    1.9364 H   0  0  0  0  0  0  0  0  0  0  0  0
   -4.1376   -1.5291    2.2581 H   0  0  0  0  0  0  0  0  0  0  0  0
   -5.7621   -1.1062    1.6022 H   0  0  0  0  0  0  0  0  0  0  0  0
    4.3824   -1.1771    1.5935 H   0  0  0  0  0  0  0  0  0  0  0  0
    3.7937   -2.0399    0.1717 H   0  0  0  0  0  0  0  0  0  0  0  0
    5.1815   -0.5356   -1.3028 H   0  0  0  0  0  0  0  0  0  0  0  0
    5.7925    0.2941    0.1251 H   0  0  0  0  0  0  0  0  0  0  0  0
    6.7791   -1.8475    0.9639 H   0  0  0  0  0  0  0  0  0  0  0  0
    6.1411   -2.7016   -0.4429 H   0  0  0  0  0  0  0  0  0  0  0  0
    8.1748   -0.4116   -0.5407 H   0  0  0  0  0  0  0  0  0  0  0  0
    8.5260   -2.1341   -0.7644 H   0  0  0  0  0  0  0  0  0  0  0  0
    7.5320   -1.2738   -1.9525 H   0  0  0  0  0  0  0  0  0  0  0  0
  1  2  2  0  0  0  0
  1  3  2  0  0  0  0
  1  5  1  0  0  0  0
  1 16  1  0  0  0  0
  4  6  1  0  0  0  0
  4 17  1  0  0  0  0
  5  9  1  0  0  0  0
  5 34  1  0  0  0  0
  6 14  2  0  0  0  0
  7  8  1  0  0  0  0
  7  9  1  0  0  0  0
  7 12  1  0  0  0  0
  7 13  1  0  0  0  0
  8 10  1  0  0  0  0
  8 11  1  0  0  0  0
  8 22  1  0  0  0  0
  9 10  1  0  0  0  0
  9 23  1  0  0  0  0
 10 24  1  0  0  0  0
 10 25  1  0  0  0  0
 11 14  1  0  0  0  0
 11 26  1  0  0  0  0
 11 27  1  0  0  0  0
 12 28  1  0  0  0  0
 12 29  1  0  0  0  0
 12 30  1  0  0  0  0
 13 31  1  0  0  0  0
 13 32  1  0  0  0  0
 13 33  1  0  0  0  0
 14 15  1  0  0  0  0
 15 17  2  0  0  0  0
 15 35  1  0  0  0  0
 16 36  1  0  0  0  0
 16 37  1  0  0  0  0
 16 38  1  0  0  0  0
 17 18  1  0  0  0  0
 18 19  1  0  0  0  0
 18 39  1  0  0  0  0
 18 40  1  0  0  0  0
 19 20  1  0  0  0  0
 19 41  1  0  0  0  0
 19 42  1  0  0  0  0
 20 21  1  0  0  0  0
 20 43  1  0  0  0  0
 20 44  1  0  0  0  0
 21 45  1  0  0  0  0
 21 46  1  0  0  0  0
 21 47  1  0  0  0  0
M  END
> <PUBCHEM_COMPOUND_CID>
56774074

> <PUBCHEM_CONFORMER_RMSD>
1.2

> <PUBCHEM_CONFORMER_DIVERSEORDER>
1
14
59
71
66
60
7
38
37
35
21
28
64
58
32
55
31
43
47
48
10
62
72
18
70
30
68
53
16
34
41
8
67
27
39
46
54
33
3
15
13
6
44
50
29
40
9
22
52
2
36
63
57
12
20
61
51
42
17
23
11
45
25
24
5
49
65
26
56
69
4
19

> <PUBCHEM_MMFF94_PARTIAL_CHARGES>
15
1 1.33
11 0.18
14 0.11
15 -0.15
16 0.11
17 -0.04
18 0.18
2 -0.65
3 -0.65
34 0.42
35 0.15
4 -0.02
5 -0.87
6 -0.41
9 0.31

> <PUBCHEM_EFFECTIVE_ROTOR_COUNT>
7.8

> <PUBCHEM_PHARMACOPHORE_FEATURES>
8
1 2 acceptor
1 21 hydrophobe
1 3 acceptor
1 5 donor
1 6 acceptor
3 7 12 13 hydrophobe
4 7 8 9 10 rings
5 4 6 14 15 17 rings

> <PUBCHEM_HEAVY_ATOM_COUNT>
21

> <PUBCHEM_ATOM_DEF_STEREO_COUNT>
2

> <PUBCHEM_ATOM_UDEF_STEREO_COUNT>
0

> <PUBCHEM_BOND_DEF_STEREO_COUNT>
0

> <PUBCHEM_BOND_UDEF_STEREO_COUNT>
0

> <PUBCHEM_ISOTOPIC_ATOM_COUNT>
0

> <PUBCHEM_COMPONENT_COUNT>
1

> <PUBCHEM_CACTVS_TAUTO_COUNT>
1

> <PUBCHEM_CONFORMER_ID>
03624DBA00000001

> <PUBCHEM_MMFF94_ENERGY>
20.6307

> <PUBCHEM_FEATURE_SELFOVERLAP>
40.613

> <PUBCHEM_SHAPE_FINGERPRINT>
11545043 162 18201714029589648344
11796584 16 18267303119696749454
11809386 21 18114174199088068482
12633257 1 16343142557808243319
12760667 363 18411980291258430979
12916754 54 18411698820107384265
13288520 33 18411982433866746100
13544653 18 18265331897201151377
13690498 29 18260267434526085900
13740256 8 18413108342996402576
14123256 34 18411989061555412122
14950920 106 16988280988236816979
15537594 2 17968099651353137554
16120349 21 18341059545119919689
17492 89 18338233898514529933
17780758 139 17917436388796331569
18643901 69 18335989692176826087
18927931 339 18411420605205848311
193927 3 18260829344991744561
20281389 69 8430299244207569750
20621476 21 18059303071937189390
21054139 6 18113620058962130834
21267235 1 18409453595809280547
220451 1 18042691603146124832
23379529 103 18117844523568347787
23402539 116 16733273331413782188
23522609 53 18052292645490681688
23559900 14 18339631330327844737
23622692 118 18409730681218625580
270888 7 8862677793277925527
3004659 81 18041272261882616327
312423 11 18187656841837233397
335352 9 18409164382034699805
5104073 3 18201715142018099800
5486654 36 18410019827397388705
56633871 153 18268438013276581979
59755656 215 18337668616436357471
59755656 520 18191298278952750253
7970288 3 18266456684306094423
8863177 126 18343579668641651986
9709674 26 18261954179667842873
999808 66 18130510756355878462

> <PUBCHEM_SHAPE_MULTIPOLES>
408.45
15.56
3.16
1.1
26.12
0.36
0.08
13.77
1.87
-4.75
0.05
-0.67
-0.05
0.9

> <PUBCHEM_SHAPE_SELFOVERLAP>
811.274

> <PUBCHEM_SHAPE_VOLUME>
246.9

> <PUBCHEM_COORDINATE_TYPE>
2
5
10

$$$$
