40779513
  -OEChem-12032416163D

 68 71  0     1  0  0  0  0  0999 V2000
   -1.3095    2.4015    1.0313 O   0  0  0  0  0  0  0  0  0  0  0  0
    3.9017    2.5016    0.1261 O   0  0  0  0  0  0  0  0  0  0  0  0
    6.3479    1.2272   -0.2135 O   0  0  0  0  0  0  0  0  0  0  0  0
   -4.0916   -1.7527    0.7068 N   0  0  2  0  0  0  0  0  0  0  0  0
    0.3689   -3.3952    0.4747 N   0  0  0  0  0  0  0  0  0  0  0  0
   -3.5218    1.9589    0.5340 N   0  0  0  0  0  0  0  0  0  0  0  0
    1.6535   -3.0119    0.5694 N   0  0  0  0  0  0  0  0  0  0  0  0
   -2.6365   -1.9275   -1.4461 C   0  0  2  0  0  0  0  0  0  0  0  0
   -1.9451   -2.6579   -0.2617 C   0  0  2  0  0  0  0  0  0  0  0  0
   -3.9220   -0.4073    0.0973 C   0  0  2  0  0  0  0  0  0  0  0  0
   -2.8973   -0.4572   -1.0564 C   0  0  0  0  0  0  0  0  0  0  0  0
   -4.0141   -2.5970   -1.6388 C   0  0  0  0  0  0  0  0  0  0  0  0
   -2.7650   -2.3394    1.0212 C   0  0  0  0  0  0  0  0  0  0  0  0
   -4.7575   -2.6231   -0.2918 C   0  0  0  0  0  0  0  0  0  0  0  0
   -3.5632    0.6605    1.1329 C   0  0  0  0  0  0  0  0  0  0  0  0
   -0.4515   -2.4457   -0.0599 C   0  0  0  0  0  0  0  0  0  0  0  0
    0.3522   -1.3661   -0.3338 C   0  0  0  0  0  0  0  0  0  0  0  0
    1.6371   -1.7717    0.0739 C   0  0  0  0  0  0  0  0  0  0  0  0
   -0.0094   -4.7136    0.9281 C   0  0  0  0  0  0  0  0  0  0  0  0
   -2.3756    2.7533    0.5253 C   0  0  0  0  0  0  0  0  0  0  0  0
   -2.5430    4.1180   -0.1754 C   0  0  0  0  0  0  0  0  0  0  0  0
    2.8483   -0.9968    0.0006 C   0  0  0  0  0  0  0  0  0  0  0  0
   -3.6368    4.9394    0.5239 C   0  0  0  0  0  0  0  0  0  0  0  0
   -1.2182    4.8981   -0.0970 C   0  0  0  0  0  0  0  0  0  0  0  0
   -2.9020    3.9100   -1.6546 C   0  0  0  0  0  0  0  0  0  0  0  0
    2.7939    0.3935    0.0996 C   0  0  0  0  0  0  0  0  0  0  0  0
    4.0762   -1.6363   -0.1701 C   0  0  0  0  0  0  0  0  0  0  0  0
    3.9672    1.1444    0.0281 C   0  0  0  0  0  0  0  0  0  0  0  0
    5.2495   -0.8854   -0.2418 C   0  0  0  0  0  0  0  0  0  0  0  0
    5.1951    0.5049   -0.1427 C   0  0  0  0  0  0  0  0  0  0  0  0
    2.6080    3.0768    0.2993 C   0  0  0  0  0  0  0  0  0  0  0  0
    7.5605    0.4966   -0.3889 C   0  0  0  0  0  0  0  0  0  0  0  0
   -2.0394   -1.9889   -2.3621 H   0  0  0  0  0  0  0  0  0  0  0  0
   -2.0688   -3.7310   -0.4712 H   0  0  0  0  0  0  0  0  0  0  0  0
   -4.8925   -0.1069   -0.3256 H   0  0  0  0  0  0  0  0  0  0  0  0
   -1.9694    0.0487   -0.7883 H   0  0  0  0  0  0  0  0  0  0  0  0
   -3.3052    0.0794   -1.9225 H   0  0  0  0  0  0  0  0  0  0  0  0
   -3.8943   -3.6186   -2.0179 H   0  0  0  0  0  0  0  0  0  0  0  0
   -4.5977   -2.0413   -2.3828 H   0  0  0  0  0  0  0  0  0  0  0  0
   -2.9172   -3.2672    1.5886 H   0  0  0  0  0  0  0  0  0  0  0  0
   -2.2089   -1.6864    1.7035 H   0  0  0  0  0  0  0  0  0  0  0  0
   -5.7971   -2.3033   -0.4338 H   0  0  0  0  0  0  0  0  0  0  0  0
   -4.8160   -3.6502    0.0905 H   0  0  0  0  0  0  0  0  0  0  0  0
   -2.6102    0.4474    1.6258 H   0  0  0  0  0  0  0  0  0  0  0  0
   -4.3328    0.6979    1.9125 H   0  0  0  0  0  0  0  0  0  0  0  0
    0.0664   -0.4270   -0.7808 H   0  0  0  0  0  0  0  0  0  0  0  0
   -4.3808    2.3164    0.1285 H   0  0  0  0  0  0  0  0  0  0  0  0
   -0.3279   -5.2986    0.0621 H   0  0  0  0  0  0  0  0  0  0  0  0
    0.8503   -5.1957    1.4019 H   0  0  0  0  0  0  0  0  0  0  0  0
   -0.8179   -4.6177    1.6559 H   0  0  0  0  0  0  0  0  0  0  0  0
   -3.4317    5.0325    1.5965 H   0  0  0  0  0  0  0  0  0  0  0  0
   -4.6253    4.4795    0.4206 H   0  0  0  0  0  0  0  0  0  0  0  0
   -3.7024    5.9495    0.1039 H   0  0  0  0  0  0  0  0  0  0  0  0
   -0.4055    4.3506   -0.5883 H   0  0  0  0  0  0  0  0  0  0  0  0
   -0.9174    5.0671    0.9435 H   0  0  0  0  0  0  0  0  0  0  0  0
   -1.3021    5.8766   -0.5833 H   0  0  0  0  0  0  0  0  0  0  0  0
   -3.8770    3.4252   -1.7737 H   0  0  0  0  0  0  0  0  0  0  0  0
   -2.1610    3.2736   -2.1519 H   0  0  0  0  0  0  0  0  0  0  0  0
   -2.9426    4.8647   -2.1910 H   0  0  0  0  0  0  0  0  0  0  0  0
    1.8216    0.8508    0.2468 H   0  0  0  0  0  0  0  0  0  0  0  0
    4.1488   -2.7177   -0.2590 H   0  0  0  0  0  0  0  0  0  0  0  0
    6.1663   -1.4489   -0.3770 H   0  0  0  0  0  0  0  0  0  0  0  0
    2.7432    4.1623    0.3534 H   0  0  0  0  0  0  0  0  0  0  0  0
    2.1510    2.7678    1.2456 H   0  0  0  0  0  0  0  0  0  0  0  0
    1.9596    2.8819   -0.5619 H   0  0  0  0  0  0  0  0  0  0  0  0
    8.3749    1.2278   -0.4238 H   0  0  0  0  0  0  0  0  0  0  0  0
    7.5740   -0.0397   -1.3438 H   0  0  0  0  0  0  0  0  0  0  0  0
    7.7614   -0.1623    0.4626 H   0  0  0  0  0  0  0  0  0  0  0  0
  1 20  2  0  0  0  0
  2 28  1  0  0  0  0
  2 31  1  0  0  0  0
  3 30  1  0  0  0  0
  3 32  1  0  0  0  0
  4 10  1  0  0  0  0
  4 13  1  0  0  0  0
  4 14  1  0  0  0  0
  5  7  1  0  0  0  0
  5 16  1  0  0  0  0
  5 19  1  0  0  0  0
  6 15  1  0  0  0  0
  6 20  1  0  0  0  0
  6 47  1  0  0  0  0
  7 18  2  0  0  0  0
  8  9  1  0  0  0  0
  8 11  1  0  0  0  0
  8 12  1  0  0  0  0
  8 33  1  0  0  0  0
  9 13  1  0  0  0  0
  9 16  1  0  0  0  0
  9 34  1  0  0  0  0
 10 11  1  0  0  0  0
 10 15  1  0  0  0  0
 10 35  1  0  0  0  0
 11 36  1  0  0  0  0
 11 37  1  0  0  0  0
 12 14  1  0  0  0  0
 12 38  1  0  0  0  0
 12 39  1  0  0  0  0
 13 40  1  0  0  0  0
 13 41  1  0  0  0  0
 14 42  1  0  0  0  0
 14 43  1  0  0  0  0
 15 44  1  0  0  0  0
 15 45  1  0  0  0  0
 16 17  2  0  0  0  0
 17 18  1  0  0  0  0
 17 46  1  0  0  0  0
 18 22  1  0  0  0  0
 19 48  1  0  0  0  0
 19 49  1  0  0  0  0
 19 50  1  0  0  0  0
 20 21  1  0  0  0  0
 21 23  1  0  0  0  0
 21 24  1  0  0  0  0
 21 25  1  0  0  0  0
 22 26  2  0  0  0  0
 22 27  1  0  0  0  0
 23 51  1  0  0  0  0
 23 52  1  0  0  0  0
 23 53  1  0  0  0  0
 24 54  1  0  0  0  0
 24 55  1  0  0  0  0
 24 56  1  0  0  0  0
 25 57  1  0  0  0  0
 25 58  1  0  0  0  0
 25 59  1  0  0  0  0
 26 28  1  0  0  0  0
 26 60  1  0  0  0  0
 27 29  2  0  0  0  0
 27 61  1  0  0  0  0
 28 30  2  0  0  0  0
 29 30  1  0  0  0  0
 29 62  1  0  0  0  0
 31 63  1  0  0  0  0
 31 64  1  0  0  0  0
 31 65  1  0  0  0  0
 32 66  1  0  0  0  0
 32 67  1  0  0  0  0
 32 68  1  0  0  0  0
M  END
> <PUBCHEM_COMPOUND_CID>
40779513

> <PUBCHEM_CONFORMER_RMSD>
1

> <PUBCHEM_CONFORMER_DIVERSEORDER>
1
57
67
65
11
49
75
74
45
46
61
33
9
76
73
48
37
68
44
39
55
10
82
83
51
35
36
69
71
53
59
66
64
78
22
80
52
42
31
24
5
62
70
60
26
4
8
23
18
12
47
56
17
6
41
58
72
21
32
54
81
25
14
43
20
19
16
38
3
40
30
50
28
29
77
34
2
27
15
13
7
79
63

> <PUBCHEM_MMFF94_PARTIAL_CHARGES>
31
1 -0.57
10 0.27
13 0.27
14 0.27
15 0.3
16 -0.33
17 -0.15
18 0.23
19 0.26
2 -0.36
20 0.57
21 0.06
22 0.05
26 -0.15
27 -0.15
28 0.08
29 -0.15
3 -0.36
30 0.08
31 0.28
32 0.28
4 -0.81
46 0.15
47 0.37
5 0.31
6 -0.73
60 0.15
61 0.15
62 0.15
7 -0.71
9 0.18

> <PUBCHEM_EFFECTIVE_ROTOR_COUNT>
9.2

> <PUBCHEM_PHARMACOPHORE_FEATURES>
10
1 1 acceptor
1 2 acceptor
1 3 acceptor
1 4 cation
1 6 donor
1 7 acceptor
4 21 23 24 25 hydrophobe
5 5 7 16 17 18 rings
6 22 26 27 28 29 30 rings
8 4 8 9 10 11 12 13 14 rings

> <PUBCHEM_HEAVY_ATOM_COUNT>
32

> <PUBCHEM_ATOM_DEF_STEREO_COUNT>
3

> <PUBCHEM_ATOM_UDEF_STEREO_COUNT>
0

> <PUBCHEM_BOND_DEF_STEREO_COUNT>
0

> <PUBCHEM_BOND_UDEF_STEREO_COUNT>
0

> <PUBCHEM_ISOTOPIC_ATOM_COUNT>
0

> <PUBCHEM_COMPONENT_COUNT>
1

> <PUBCHEM_CACTVS_TAUTO_COUNT>
2

> <PUBCHEM_CONFORMER_ID>
026E3EF900000001

> <PUBCHEM_MMFF94_ENERGY>
100.7219

> <PUBCHEM_FEATURE_SELFOVERLAP>
50.751

> <PUBCHEM_SHAPE_FINGERPRINT>
100830 39 18409168840242160800
10087517 78 18341611559833442862
10670039 82 18412260662354414338
10871710 139 18412825789909222999
10951579 204 18267605558952632516
1100329 8 17760644768303865154
11513181 2 18201441342116675366
12104220 1 18337388357330673316
12107183 9 17903348209335589930
12788726 201 18337380625925576698
12978246 48 18194964045722908417
13560911 43 18188762972167439688
13761468 95 17773052872696783968
14251764 75 17838345077353466761
14394314 77 18196098952820034609
14466204 15 18338229350550716154
14790565 3 18336270055300488010
15183329 4 18335134341667836622
15320467 1 18266179418133394992
15400415 2 17906734696586241136
15419008 145 18337098030806317000
15439362 3 17619056675114048829
15483637 11 18410572851286041908
161222 619 17620782504474284353
16992787 43 18338510834713687717
17627616 140 18264772052277191186
19611394 137 17827088612563834291
21033648 29 17751335478044569118
23559900 14 18124593343899883362
25265897 201 17770525056925762477
283562 15 18408036321258458879
325973 47 18050006885254106892
3388396 114 18339624707656722591
392239 28 18337402654987255611
469060 322 18266198265003408363
508706 21 18411417310913113296
5252454 2 18129381497451840121
550186 7 18272381870942156374
6036956 94 18334583485614814789
6371009 1 18337377331907011578
653340 110 18411972568733393616
6608658 132 18342449400099338375
7288768 16 17895485708927287603

> <PUBCHEM_SHAPE_MULTIPOLES>
621.01
12.65
7.17
1.09
21.22
5.9
-0.25
3.26
-1.58
-8.26
0.5
-1.23
-0.15
-0.69

> <PUBCHEM_SHAPE_SELFOVERLAP>
1319.843

> <PUBCHEM_SHAPE_VOLUME>
346.2

> <PUBCHEM_COORDINATE_TYPE>
2
5
10

$$$$
