56776085
  -OEChem-12032416393D

 77 81  0     1  0  0  0  0  0999 V2000
   -0.8971    0.2805    1.4614 O   0  0  0  0  0  0  0  0  0  0  0  0
    0.2556   -2.9553    2.6300 O   0  0  0  0  0  0  0  0  0  0  0  0
    5.5892   -0.8480   -2.1099 O   0  0  0  0  0  0  0  0  0  0  0  0
   -8.5992    1.5912   -1.5320 O   0  0  0  0  0  0  0  0  0  0  0  0
    1.1549   -3.2180    0.5119 N   0  0  0  0  0  0  0  0  0  0  0  0
    4.2973    1.0793   -2.2393 N   0  0  0  0  0  0  0  0  0  0  0  0
   -1.9529   -2.6649    0.4409 N   0  0  0  0  0  0  0  0  0  0  0  0
   -6.0952    1.1147   -0.3478 N   0  0  0  0  0  0  0  0  0  0  0  0
    5.7041    2.8078    2.2588 N   0  0  0  0  0  0  0  0  0  0  0  0
    2.6877   -1.3817   -0.1158 C   0  0  2  0  0  0  0  0  0  0  0  0
    2.8532   -2.0310   -1.5191 C   0  0  1  0  0  0  0  0  0  0  0  0
    1.5919   -2.8198   -1.9130 C   0  0  0  0  0  0  0  0  0  0  0  0
    2.3918   -2.5214    0.8803 C   0  0  0  0  0  0  0  0  0  0  0  0
    1.5909   -0.2898   -0.0975 C   0  0  0  0  0  0  0  0  0  0  0  0
    1.1700   -3.8159   -0.8306 C   0  0  0  0  0  0  0  0  0  0  0  0
    3.2299   -1.0310   -2.6122 C   0  0  0  0  0  0  0  0  0  0  0  0
    1.4647    0.4900    1.2203 C   0  0  0  0  0  0  0  0  0  0  0  0
    0.1279   -3.3125    1.4530 C   0  0  0  0  0  0  0  0  0  0  0  0
    4.5109   -0.2903   -2.2940 C   0  0  0  0  0  0  0  0  0  0  0  0
    0.1342    1.2495    1.2552 C   0  0  0  0  0  0  0  0  0  0  0  0
   -1.2293   -3.8122    0.9921 C   0  0  0  0  0  0  0  0  0  0  0  0
   -2.6485   -1.9047    1.4857 C   0  0  0  0  0  0  0  0  0  0  0  0
   -2.1637    0.5600    1.0243 C   0  0  0  0  0  0  0  0  0  0  0  0
   -3.0635   -0.5282    1.0097 C   0  0  0  0  0  0  0  0  0  0  0  0
    5.3461    2.0307   -1.9519 C   0  0  0  0  0  0  0  0  0  0  0  0
   -4.3722   -0.3300    0.5437 C   0  0  0  0  0  0  0  0  0  0  0  0
   -4.7923    0.9316    0.1270 C   0  0  0  0  0  0  0  0  0  0  0  0
   -2.6021    1.8266    0.6254 C   0  0  0  0  0  0  0  0  0  0  0  0
   -3.9111    2.0081    0.1754 C   0  0  0  0  0  0  0  0  0  0  0  0
    5.4709    2.3021   -0.4805 C   0  0  0  0  0  0  0  0  0  0  0  0
   -6.5203    0.3417   -1.5229 C   0  0  0  0  0  0  0  0  0  0  0  0
   -6.7595    2.4119   -0.1798 C   0  0  0  0  0  0  0  0  0  0  0  0
   -8.0425    0.2773   -1.5736 C   0  0  0  0  0  0  0  0  0  0  0  0
   -8.2691    2.2374   -0.3030 C   0  0  0  0  0  0  0  0  0  0  0  0
    4.5378    3.1079    0.1625 C   0  0  0  0  0  0  0  0  0  0  0  0
    6.5204    1.7487    0.2447 C   0  0  0  0  0  0  0  0  0  0  0  0
    4.6976    3.3280    1.5211 C   0  0  0  0  0  0  0  0  0  0  0  0
    6.5916    2.0295    1.5995 C   0  0  0  0  0  0  0  0  0  0  0  0
    3.6374   -0.9199    0.1819 H   0  0  0  0  0  0  0  0  0  0  0  0
    3.6791   -2.7538   -1.4433 H   0  0  0  0  0  0  0  0  0  0  0  0
    1.7674   -3.3629   -2.8496 H   0  0  0  0  0  0  0  0  0  0  0  0
    0.7629   -2.1290   -2.1087 H   0  0  0  0  0  0  0  0  0  0  0  0
    3.2004   -3.2631    0.8648 H   0  0  0  0  0  0  0  0  0  0  0  0
    2.3444   -2.1440    1.9048 H   0  0  0  0  0  0  0  0  0  0  0  0
    0.6227   -0.7386   -0.3436 H   0  0  0  0  0  0  0  0  0  0  0  0
    1.7830    0.4486   -0.8825 H   0  0  0  0  0  0  0  0  0  0  0  0
    0.2078   -4.2446   -1.1069 H   0  0  0  0  0  0  0  0  0  0  0  0
    1.8876   -4.6445   -0.7925 H   0  0  0  0  0  0  0  0  0  0  0  0
    2.4042   -0.3439   -2.8242 H   0  0  0  0  0  0  0  0  0  0  0  0
    3.4115   -1.5685   -3.5522 H   0  0  0  0  0  0  0  0  0  0  0  0
    1.5058   -0.1831    2.0809 H   0  0  0  0  0  0  0  0  0  0  0  0
    2.2990    1.1936    1.3038 H   0  0  0  0  0  0  0  0  0  0  0  0
    0.1252    1.9534    2.0941 H   0  0  0  0  0  0  0  0  0  0  0  0
    0.0139    1.7961    0.3128 H   0  0  0  0  0  0  0  0  0  0  0  0
   -1.7595   -4.2613    1.8410 H   0  0  0  0  0  0  0  0  0  0  0  0
   -1.1382   -4.6107    0.2554 H   0  0  0  0  0  0  0  0  0  0  0  0
    3.3647    1.4513   -2.3910 H   0  0  0  0  0  0  0  0  0  0  0  0
   -2.6456   -2.9962   -0.2309 H   0  0  0  0  0  0  0  0  0  0  0  0
   -2.0292   -1.7789    2.3818 H   0  0  0  0  0  0  0  0  0  0  0  0
   -3.5319   -2.4647    1.8193 H   0  0  0  0  0  0  0  0  0  0  0  0
    5.1090    2.9583   -2.4852 H   0  0  0  0  0  0  0  0  0  0  0  0
    6.2920    1.6577   -2.3619 H   0  0  0  0  0  0  0  0  0  0  0  0
   -5.0645   -1.1693    0.5283 H   0  0  0  0  0  0  0  0  0  0  0  0
   -1.9507    2.6945    0.6570 H   0  0  0  0  0  0  0  0  0  0  0  0
   -4.2032    3.0042   -0.1454 H   0  0  0  0  0  0  0  0  0  0  0  0
   -6.1397    0.8403   -2.4231 H   0  0  0  0  0  0  0  0  0  0  0  0
   -6.1251   -0.6798   -1.5137 H   0  0  0  0  0  0  0  0  0  0  0  0
   -6.5364    2.8497    0.8004 H   0  0  0  0  0  0  0  0  0  0  0  0
   -6.4108    3.0996   -0.9601 H   0  0  0  0  0  0  0  0  0  0  0  0
   -8.4453   -0.3161   -0.7439 H   0  0  0  0  0  0  0  0  0  0  0  0
   -8.3653   -0.1951   -2.5068 H   0  0  0  0  0  0  0  0  0  0  0  0
   -8.7600    3.2157   -0.2945 H   0  0  0  0  0  0  0  0  0  0  0  0
   -8.6736    1.6558    0.5343 H   0  0  0  0  0  0  0  0  0  0  0  0
    3.7062    3.5535   -0.3726 H   0  0  0  0  0  0  0  0  0  0  0  0
    7.2653    1.1142   -0.2232 H   0  0  0  0  0  0  0  0  0  0  0  0
    3.9960    3.9479    2.0695 H   0  0  0  0  0  0  0  0  0  0  0  0
    7.3905    1.6217    2.2100 H   0  0  0  0  0  0  0  0  0  0  0  0
  1 20  1  0  0  0  0
  1 23  1  0  0  0  0
  2 18  2  0  0  0  0
  3 19  2  0  0  0  0
  4 33  1  0  0  0  0
  4 34  1  0  0  0  0
  5 13  1  0  0  0  0
  5 15  1  0  0  0  0
  5 18  1  0  0  0  0
  6 19  1  0  0  0  0
  6 25  1  0  0  0  0
  6 57  1  0  0  0  0
  7 21  1  0  0  0  0
  7 22  1  0  0  0  0
  7 58  1  0  0  0  0
  8 27  1  0  0  0  0
  8 31  1  0  0  0  0
  8 32  1  0  0  0  0
  9 37  2  0  0  0  0
  9 38  1  0  0  0  0
 10 11  1  0  0  0  0
 10 13  1  0  0  0  0
 10 14  1  0  0  0  0
 10 39  1  0  0  0  0
 11 12  1  0  0  0  0
 11 16  1  0  0  0  0
 11 40  1  0  0  0  0
 12 15  1  0  0  0  0
 12 41  1  0  0  0  0
 12 42  1  0  0  0  0
 13 43  1  0  0  0  0
 13 44  1  0  0  0  0
 14 17  1  0  0  0  0
 14 45  1  0  0  0  0
 14 46  1  0  0  0  0
 15 47  1  0  0  0  0
 15 48  1  0  0  0  0
 16 19  1  0  0  0  0
 16 49  1  0  0  0  0
 16 50  1  0  0  0  0
 17 20  1  0  0  0  0
 17 51  1  0  0  0  0
 17 52  1  0  0  0  0
 18 21  1  0  0  0  0
 20 53  1  0  0  0  0
 20 54  1  0  0  0  0
 21 55  1  0  0  0  0
 21 56  1  0  0  0  0
 22 24  1  0  0  0  0
 22 59  1  0  0  0  0
 22 60  1  0  0  0  0
 23 24  2  0  0  0  0
 23 28  1  0  0  0  0
 24 26  1  0  0  0  0
 25 30  1  0  0  0  0
 25 61  1  0  0  0  0
 25 62  1  0  0  0  0
 26 27  2  0  0  0  0
 26 63  1  0  0  0  0
 27 29  1  0  0  0  0
 28 29  2  0  0  0  0
 28 64  1  0  0  0  0
 29 65  1  0  0  0  0
 30 35  2  0  0  0  0
 30 36  1  0  0  0  0
 31 33  1  0  0  0  0
 31 66  1  0  0  0  0
 31 67  1  0  0  0  0
 32 34  1  0  0  0  0
 32 68  1  0  0  0  0
 32 69  1  0  0  0  0
 33 70  1  0  0  0  0
 33 71  1  0  0  0  0
 34 72  1  0  0  0  0
 34 73  1  0  0  0  0
 35 37  1  0  0  0  0
 35 74  1  0  0  0  0
 36 38  2  0  0  0  0
 36 75  1  0  0  0  0
 37 76  1  0  0  0  0
 38 77  1  0  0  0  0
M  END
> <PUBCHEM_COMPOUND_CID>
56776085

> <PUBCHEM_CONFORMER_RMSD>
1

> <PUBCHEM_CONFORMER_DIVERSEORDER>
6
213
139
41
113
84
202
173
124
151
100
102
134
57
209
116
184
95
215
208
153
105
123
56
111
150
133
175
131
49
44
65
80
34
117
79
156
53
143
186
86
154
43
148
78
207
92
114
174
88
35
70
58
45
25
165
141
180
163
97
125
64
130
120
23
20
185
106
13
142
210
195
190
32
87
197
145
31
140
54
164
93
3
214
161
196
157
126
138
201
74
144
188
28
152
170
101
76
75
204
199
98
85
30
121
96
50
42
11
47
194
179
59
203
82
115
51
212
118
109
103
211
7
200
90
77
155
15
198
205
46
40
26
147
159
172
129
52
110
21
132
66
48
24
62
91
182
206
189
10
167
191
108
60
119
72
162
104
107
27
122
18
5
169
149
37
14
17
158
112
136
181
89
69
39
160
2
94
16
99
187
22
192
63
73
29
168
178
1
67
171
83
33
146
177
38
71
36
193
8
9
4
81
176
166
19
137
61
127
128
55
183
12
68
135

> <PUBCHEM_MMFF94_PARTIAL_CHARGES>
42
1 -0.36
13 0.3
15 0.3
16 0.06
18 0.57
19 0.57
2 -0.57
20 0.28
21 0.33
22 0.41
23 0.08
24 -0.14
25 0.44
26 -0.15
27 0.1
28 -0.15
29 -0.15
3 -0.57
30 -0.14
31 0.37
32 0.37
33 0.28
34 0.28
35 -0.15
36 -0.15
37 0.16
38 0.16
4 -0.56
5 -0.66
57 0.37
58 0.36
6 -0.73
63 0.15
64 0.15
65 0.15
7 -0.9
74 0.15
75 0.15
76 0.15
77 0.15
8 -0.84
9 -0.62

> <PUBCHEM_EFFECTIVE_ROTOR_COUNT>
9.4

> <PUBCHEM_PHARMACOPHORE_FEATURES>
13
1 1 acceptor
1 2 acceptor
1 3 acceptor
1 4 acceptor
1 6 donor
1 7 cation
1 7 donor
1 8 cation
1 9 acceptor
6 23 24 26 27 28 29 rings
6 4 8 31 32 33 34 rings
6 5 10 11 12 13 15 rings
6 9 30 35 36 37 38 rings

> <PUBCHEM_HEAVY_ATOM_COUNT>
38

> <PUBCHEM_ATOM_DEF_STEREO_COUNT>
2

> <PUBCHEM_ATOM_UDEF_STEREO_COUNT>
0

> <PUBCHEM_BOND_DEF_STEREO_COUNT>
0

> <PUBCHEM_BOND_UDEF_STEREO_COUNT>
0

> <PUBCHEM_ISOTOPIC_ATOM_COUNT>
0

> <PUBCHEM_COMPONENT_COUNT>
1

> <PUBCHEM_CACTVS_TAUTO_COUNT>
4

> <PUBCHEM_CONFORMER_ID>
0362559500000006

> <PUBCHEM_MMFF94_ENERGY>
114.7674

> <PUBCHEM_FEATURE_SELFOVERLAP>
65.974

> <PUBCHEM_SHAPE_FINGERPRINT>
10319926 262 9871477495732944913
10556698 54 18201442428321511305
10675989 125 18263930925760318033
10692045 39 11602821298556877213
11007060 377 18271814523448716697
11135609 12 9367351418329015542
11135609 187 18409442562872046081
11331351 85 16894551663596825114
11765517 15 17386272243035007658
12422481 6 16805589405115560702
13150687 139 18412551998671190278
14190465 44 18040997345526974899
14675020 138 17894911806390328240
15082195 135 18059861614636960310
15320295 40 17702945804688781938
15721738 202 13110965340263134604
20156587 77 10303541683198766470
20554085 129 18260826007654806849
20578428 11 14045440281473998064
20737093 193 15978868965232063904
20775438 99 17346606287785414174
21049683 118 18261667156121010762
21133410 127 17763747994409468628
21792934 111 8430321238967005929
22864921 267 11241970356917744709
3298306 158 18200600323379821640
3918712 181 18260835946547467900
4112364 45 16443063902423614383
4756326 101 17560220536548792848
57359948 33 18190449477324239381
6201460 15 12676411831833269460
9849439 229 18186801391773356739

> <PUBCHEM_SHAPE_MULTIPOLES>
733.64
20.29
4.92
2.39
29.23
2.94
-0.69
-23.6
-8.85
-3.91
1.54
-2.69
0.58
3.36

> <PUBCHEM_SHAPE_SELFOVERLAP>
1546.006

> <PUBCHEM_SHAPE_VOLUME>
404.4

> <PUBCHEM_COORDINATE_TYPE>
2
5
10

$$$$
