11883979
  -OEChem-12032416373D

 51 54  0     1  0  0  0  0  0999 V2000
    8.2182   -2.7885   -1.0969 Cl  0  0  0  0  0  0  0  0  0  0  0  0
    4.8072    2.2897    0.2159 S   0  0  0  0  0  0  0  0  0  0  0  0
   -9.2419    0.6724   -0.2000 F   0  0  0  0  0  0  0  0  0  0  0  0
   -8.6000   -1.1980    0.6909 F   0  0  0  0  0  0  0  0  0  0  0  0
   -8.1697    0.6840    1.6917 F   0  0  0  0  0  0  0  0  0  0  0  0
    0.4353    0.6674    1.1184 O   0  0  0  0  0  0  0  0  0  0  0  0
    2.2939   -1.7808    1.0033 O   0  0  0  0  0  0  0  0  0  0  0  0
   -1.2442   -1.4628    0.5397 O   0  0  0  0  0  0  0  0  0  0  0  0
    5.0999    2.6846    1.5805 O   0  0  0  0  0  0  0  0  0  0  0  0
    5.0065    3.2261   -0.8735 O   0  0  0  0  0  0  0  0  0  0  0  0
   -1.7145   -0.3264   -1.3884 O   0  0  0  0  0  0  0  0  0  0  0  0
    3.2247    1.6807    0.1304 N   0  0  0  0  0  0  0  0  0  0  0  0
   -3.3753   -0.8130    0.1881 N   0  0  0  0  0  0  0  0  0  0  0  0
    2.2543   -0.5667    0.2246 C   0  0  1  0  0  0  0  0  0  0  0  0
    0.7926   -0.2110    0.0384 C   0  0  1  0  0  0  0  0  0  0  0  0
    2.8086    0.5804    1.0324 C   0  0  2  0  0  0  0  0  0  0  0  0
    0.1102   -1.5523    0.1594 C   0  0  1  0  0  0  0  0  0  0  0  0
    1.6146    1.0185    1.8582 C   0  0  0  0  0  0  0  0  0  0  0  0
    0.9513   -2.2439    1.2083 C   0  0  0  0  0  0  0  0  0  0  0  0
    5.7710    0.8550   -0.1550 C   0  0  0  0  0  0  0  0  0  0  0  0
   -2.0947   -0.8118   -0.3299 C   0  0  0  0  0  0  0  0  0  0  0  0
    6.0970    0.5818   -1.4722 C   0  0  0  0  0  0  0  0  0  0  0  0
    6.1821    0.0312    0.8786 C   0  0  0  0  0  0  0  0  0  0  0  0
   -4.5441   -0.2558   -0.3789 C   0  0  0  0  0  0  0  0  0  0  0  0
    6.8575   -0.5502   -1.7648 C   0  0  0  0  0  0  0  0  0  0  0  0
    6.9427   -1.1008    0.5859 C   0  0  0  0  0  0  0  0  0  0  0  0
    7.2803   -1.3916   -0.7357 C   0  0  0  0  0  0  0  0  0  0  0  0
   -5.7463   -0.3599    0.3026 C   0  0  0  0  0  0  0  0  0  0  0  0
   -4.4647    0.3854   -1.6050 C   0  0  0  0  0  0  0  0  0  0  0  0
   -6.8992    0.1913   -0.2568 C   0  0  0  0  0  0  0  0  0  0  0  0
   -5.6175    0.9366   -2.1642 C   0  0  0  0  0  0  0  0  0  0  0  0
   -6.8348    0.8396   -1.4901 C   0  0  0  0  0  0  0  0  0  0  0  0
   -8.2010    0.0884    0.4642 C   0  0  0  0  0  0  0  0  0  0  0  0
    2.7786   -0.7592   -0.7168 H   0  0  0  0  0  0  0  0  0  0  0  0
    0.6041    0.3193   -0.8987 H   0  0  0  0  0  0  0  0  0  0  0  0
    3.6153    0.2893    1.7065 H   0  0  0  0  0  0  0  0  0  0  0  0
    0.2010   -2.1082   -0.7837 H   0  0  0  0  0  0  0  0  0  0  0  0
    1.5979    2.0906    2.0770 H   0  0  0  0  0  0  0  0  0  0  0  0
    1.5731    0.4729    2.8073 H   0  0  0  0  0  0  0  0  0  0  0  0
    0.9204   -3.3335    1.1143 H   0  0  0  0  0  0  0  0  0  0  0  0
    0.6396   -1.9883    2.2273 H   0  0  0  0  0  0  0  0  0  0  0  0
    2.6309    1.8815   -0.6830 H   0  0  0  0  0  0  0  0  0  0  0  0
    5.7707    1.2193   -2.2881 H   0  0  0  0  0  0  0  0  0  0  0  0
    5.9384    0.2422    1.9150 H   0  0  0  0  0  0  0  0  0  0  0  0
   -3.4944   -1.2704    1.0887 H   0  0  0  0  0  0  0  0  0  0  0  0
    7.1116   -0.7656   -2.7996 H   0  0  0  0  0  0  0  0  0  0  0  0
    7.2666   -1.7466    1.3981 H   0  0  0  0  0  0  0  0  0  0  0  0
   -5.7978   -0.8646    1.2641 H   0  0  0  0  0  0  0  0  0  0  0  0
   -3.5607    0.5004   -2.1852 H   0  0  0  0  0  0  0  0  0  0  0  0
   -5.5685    1.4418   -3.1246 H   0  0  0  0  0  0  0  0  0  0  0  0
   -7.7217    1.2754   -1.9419 H   0  0  0  0  0  0  0  0  0  0  0  0
  1 27  1  0  0  0  0
  2  9  2  0  0  0  0
  2 10  2  0  0  0  0
  2 12  1  0  0  0  0
  2 20  1  0  0  0  0
  3 33  1  0  0  0  0
  4 33  1  0  0  0  0
  5 33  1  0  0  0  0
  6 15  1  0  0  0  0
  6 18  1  0  0  0  0
  7 14  1  0  0  0  0
  7 19  1  0  0  0  0
  8 17  1  0  0  0  0
  8 21  1  0  0  0  0
 11 21  2  0  0  0  0
 12 16  1  0  0  0  0
 12 42  1  0  0  0  0
 13 21  1  0  0  0  0
 13 24  1  0  0  0  0
 13 45  1  0  0  0  0
 14 15  1  0  0  0  0
 14 16  1  0  0  0  0
 14 34  1  0  0  0  0
 15 17  1  0  0  0  0
 15 35  1  0  0  0  0
 16 18  1  0  0  0  0
 16 36  1  0  0  0  0
 17 19  1  0  0  0  0
 17 37  1  0  0  0  0
 18 38  1  0  0  0  0
 18 39  1  0  0  0  0
 19 40  1  0  0  0  0
 19 41  1  0  0  0  0
 20 22  2  0  0  0  0
 20 23  1  0  0  0  0
 22 25  1  0  0  0  0
 22 43  1  0  0  0  0
 23 26  2  0  0  0  0
 23 44  1  0  0  0  0
 24 28  1  0  0  0  0
 24 29  2  0  0  0  0
 25 27  2  0  0  0  0
 25 46  1  0  0  0  0
 26 27  1  0  0  0  0
 26 47  1  0  0  0  0
 28 30  2  0  0  0  0
 28 48  1  0  0  0  0
 29 31  1  0  0  0  0
 29 49  1  0  0  0  0
 30 32  1  0  0  0  0
 30 33  1  0  0  0  0
 31 32  2  0  0  0  0
 31 50  1  0  0  0  0
 32 51  1  0  0  0  0
M  END
> <PUBCHEM_COMPOUND_CID>
11883979

> <PUBCHEM_CONFORMER_RMSD>
1

> <PUBCHEM_CONFORMER_DIVERSEORDER>
1
248
117
68
173
216
113
85
109
48
230
72
102
266
4
60
201
42
143
239
140
251
133
247
232
132
260
186
237
55
50
171
215
250
255
15
264
235
177
163
76
242
11
151
10
227
249
99
197
157
253
79
256
165
121
61
28
233
58
23
108
192
229
66
262
214
81
221
141
111
164
71
80
130
12
162
47
168
240
8
217
78
107
123
188
25
135
49
31
244
208
118
245
51
3
20
63
64
207
22
69
104
200
57
268
91
101
73
136
213
89
160
21
223
222
231
90
159
241
93
97
209
33
95
27
120
105
9
228
181
38
153
74
112
86
144
180
220
238
43
110
176
94
167
128
226
193
53
154
149
119
194
198
18
82
125
100
246
218
54
16
106
14
19
199
56
59
37
147
131
67
234
129
7
32
179
184
24
6
146
263
40
265
195
13
5
202
52
36
254
134
211
87
124
205
187
44
158
92
224
148
170
62
190
156
115
35
137
45
17
34
259
114
257
142
126
83
174
225
2
267
258
243
39
139
152
189
203
145
70
191
183
185
178
30
75
166
172
219
212
175
206
103
138
88
155
161
261
84
150
122
96
196
65
77
182
169
204
26
98
116
41
210
127
252
236
29
46

> <PUBCHEM_MMFF94_PARTIAL_CHARGES>
43
1 -0.18
10 -0.65
11 -0.57
12 -0.91
13 -0.55
14 0.28
15 0.28
16 0.36
17 0.28
18 0.28
19 0.28
2 1.45
20 -0.01
21 0.78
22 -0.15
23 -0.15
24 0.12
25 -0.15
26 -0.15
27 0.18
28 -0.15
29 -0.15
3 -0.34
30 -0.14
31 -0.15
32 -0.15
33 1.16
4 -0.34
42 0.42
43 0.15
44 0.15
45 0.37
46 0.15
47 0.15
48 0.15
49 0.15
5 -0.34
50 0.15
51 0.15
6 -0.56
7 -0.56
8 -0.43
9 -0.65

> <PUBCHEM_EFFECTIVE_ROTOR_COUNT>
9.2

> <PUBCHEM_PHARMACOPHORE_FEATURES>
11
1 10 acceptor
1 11 acceptor
1 12 donor
1 13 donor
1 6 acceptor
1 7 acceptor
1 9 acceptor
5 6 14 15 16 18 rings
5 7 14 15 17 19 rings
6 20 22 23 25 26 27 rings
6 24 28 29 30 31 32 rings

> <PUBCHEM_HEAVY_ATOM_COUNT>
33

> <PUBCHEM_ATOM_DEF_STEREO_COUNT>
4

> <PUBCHEM_ATOM_UDEF_STEREO_COUNT>
0

> <PUBCHEM_BOND_DEF_STEREO_COUNT>
0

> <PUBCHEM_BOND_UDEF_STEREO_COUNT>
0

> <PUBCHEM_ISOTOPIC_ATOM_COUNT>
0

> <PUBCHEM_COMPONENT_COUNT>
1

> <PUBCHEM_CACTVS_TAUTO_COUNT>
2

> <PUBCHEM_CONFORMER_ID>
00B555CB00000001

> <PUBCHEM_MMFF94_ENERGY>
72.7935

> <PUBCHEM_FEATURE_SELFOVERLAP>
56.553

> <PUBCHEM_SHAPE_FINGERPRINT>
10 15 17385720301652230395
11135609 127 17059483167035057464
11146346 171 17603874364311025507
11211813 128 18261116314313821531
11315181 36 14056721237058741189
11374522 175 18198347247803711454
12144600 37 18337396053448675395
12202916 173 11240000057761130421
13782708 43 18197219354725775938
13835254 42 8069767203738035054
13914758 101 16271929307243768467
14150023 79 18186517679103529906
14251764 18 14418132920394358061
15119646 104 16558755602815062406
15183329 4 16630532868342715132
15301273 46 17458065975693723427
15357212 105 17025175165663724772
15840311 113 18334015029196289180
18335252 114 18340759412114769693
18608769 82 18186801409617890003
19611394 137 17095818710755334689
20609170 85 11455606509645594435
21033648 29 18042116730189734904
21585482 111 18263079908784393701
21781051 124 17603870001045635090
22224240 67 12251903693777377616
23559900 14 12247388026215246515
3418910 222 16515693213102982317
4066623 53 16558749027078143592
44317340 157 18271242841362402604
44426699 60 16805325466975999938
4625314 4 18187080707188288111
5223283 242 18411141338227696492
54076057 255 16009038302505499924
5758199 1 14201118998462431584
59682541 52 17418098728261397428
6004065 56 9799686013009434823
6438161 24 13398628351398536413
6698420 124 18342746230253791987
8988823 20 15769771386825559698
9663363 56 18342458124686326246
9689198 14 17967532389374162117
9962374 69 9367046854266939563

> <PUBCHEM_SHAPE_MULTIPOLES>
617.84
28.92
2.31
1.66
35.04
0.62
0.31
-1.44
5.78
-5.78
-0.16
0.07
0.29
1.88

> <PUBCHEM_SHAPE_SELFOVERLAP>
1319.319

> <PUBCHEM_SHAPE_VOLUME>
347.3

> <PUBCHEM_COORDINATE_TYPE>
2
5
10

$$$$
