45783543
  -OEChem-12032416263D

 55 58  0     1  0  0  0  0  0999 V2000
   -2.2159   -1.6476    2.0386 O   0  0  0  0  0  0  0  0  0  0  0  0
    0.9000    3.7199   -0.9084 O   0  0  0  0  0  0  0  0  0  0  0  0
    4.8375   -0.3776   -0.4433 O   0  0  0  0  0  0  0  0  0  0  0  0
    0.3380    4.3901    1.1897 O   0  0  0  0  0  0  0  0  0  0  0  0
    7.4825   -1.2130   -0.8180 O   0  0  0  0  0  0  0  0  0  0  0  0
   -4.3063   -0.8568   -0.8786 N   0  0  1  0  0  0  0  0  0  0  0  0
   -1.4698   -1.2508   -0.0357 N   0  0  0  0  0  0  0  0  0  0  0  0
   -0.8291   -1.4843    2.1481 N   0  0  0  0  0  0  0  0  0  0  0  0
    3.2208   -0.8176    1.1620 N   0  0  0  0  0  0  0  0  0  0  0  0
   -3.9683   -1.6269    0.3351 C   0  0  1  0  0  0  0  0  0  0  0  0
   -4.3665   -3.0766    0.0021 C   0  0  0  0  0  0  0  0  0  0  0  0
   -4.9734   -3.0121   -1.3923 C   0  0  0  0  0  0  0  0  0  0  0  0
   -5.4102   -1.5671   -1.5247 C   0  0  0  0  0  0  0  0  0  0  0  0
   -4.6371    0.5352   -0.6022 C   0  0  0  0  0  0  0  0  0  0  0  0
   -2.5098   -1.4952    0.7208 C   0  0  0  0  0  0  0  0  0  0  0  0
   -3.4039    1.3750   -0.3997 C   0  0  0  0  0  0  0  0  0  0  0  0
   -3.2185    2.0632    0.7994 C   0  0  0  0  0  0  0  0  0  0  0  0
   -2.4471    1.4649   -1.4107 C   0  0  0  0  0  0  0  0  0  0  0  0
   -0.4619   -1.2536    0.8840 C   0  0  0  0  0  0  0  0  0  0  0  0
   -2.0762    2.8413    0.9873 C   0  0  0  0  0  0  0  0  0  0  0  0
   -1.3049    2.2430   -1.2227 C   0  0  0  0  0  0  0  0  0  0  0  0
   -1.1193    2.9311   -0.0237 C   0  0  0  0  0  0  0  0  0  0  0  0
    0.9029   -1.0239    0.5066 C   0  0  0  0  0  0  0  0  0  0  0  0
    1.2491   -0.7885   -0.8193 C   0  0  0  0  0  0  0  0  0  0  0  0
    1.9169   -1.0281    1.4508 C   0  0  0  0  0  0  0  0  0  0  0  0
    0.0722    3.7416    0.1722 C   0  0  0  0  0  0  0  0  0  0  0  0
    2.5802   -0.5677   -1.1557 C   0  0  0  0  0  0  0  0  0  0  0  0
    3.5192   -0.5924   -0.1372 C   0  0  0  0  0  0  0  0  0  0  0  0
    5.7599   -0.4136    0.6395 C   0  0  0  0  0  0  0  0  0  0  0  0
    7.1598   -0.1800    0.1052 C   0  0  0  0  0  0  0  0  0  0  0  0
    8.7795   -1.0319   -1.3692 C   0  0  0  0  0  0  0  0  0  0  0  0
   -4.5827   -1.3012    1.1863 H   0  0  0  0  0  0  0  0  0  0  0  0
   -3.5296   -3.7829    0.0297 H   0  0  0  0  0  0  0  0  0  0  0  0
   -5.1236   -3.4240    0.7156 H   0  0  0  0  0  0  0  0  0  0  0  0
   -5.8031   -3.7144   -1.5153 H   0  0  0  0  0  0  0  0  0  0  0  0
   -4.2096   -3.2513   -2.1426 H   0  0  0  0  0  0  0  0  0  0  0  0
   -5.5296   -1.2776   -2.5733 H   0  0  0  0  0  0  0  0  0  0  0  0
   -6.3603   -1.4071   -0.9992 H   0  0  0  0  0  0  0  0  0  0  0  0
   -5.1627    0.9716   -1.4633 H   0  0  0  0  0  0  0  0  0  0  0  0
   -5.3315    0.6280    0.2432 H   0  0  0  0  0  0  0  0  0  0  0  0
   -3.9546    2.0006    1.5963 H   0  0  0  0  0  0  0  0  0  0  0  0
   -2.5800    0.9378   -2.3519 H   0  0  0  0  0  0  0  0  0  0  0  0
   -1.9497    3.3688    1.9291 H   0  0  0  0  0  0  0  0  0  0  0  0
   -0.5854    2.2844   -2.0355 H   0  0  0  0  0  0  0  0  0  0  0  0
    0.5039   -0.7708   -1.6103 H   0  0  0  0  0  0  0  0  0  0  0  0
    1.7308   -1.2034    2.5062 H   0  0  0  0  0  0  0  0  0  0  0  0
    2.8668   -0.3822   -2.1850 H   0  0  0  0  0  0  0  0  0  0  0  0
    1.7007    4.2684   -0.7658 H   0  0  0  0  0  0  0  0  0  0  0  0
    5.7208   -1.4002    1.1181 H   0  0  0  0  0  0  0  0  0  0  0  0
    5.5172    0.3664    1.3709 H   0  0  0  0  0  0  0  0  0  0  0  0
    7.2016    0.7851   -0.4132 H   0  0  0  0  0  0  0  0  0  0  0  0
    7.8805   -0.1806    0.9302 H   0  0  0  0  0  0  0  0  0  0  0  0
    8.8344   -0.0876   -1.9195 H   0  0  0  0  0  0  0  0  0  0  0  0
    9.5381   -1.0538   -0.5808 H   0  0  0  0  0  0  0  0  0  0  0  0
    8.9755   -1.8524   -2.0646 H   0  0  0  0  0  0  0  0  0  0  0  0
  1  8  1  0  0  0  0
  1 15  1  0  0  0  0
  2 26  1  0  0  0  0
  2 48  1  0  0  0  0
  3 28  1  0  0  0  0
  3 29  1  0  0  0  0
  4 26  2  0  0  0  0
  5 30  1  0  0  0  0
  5 31  1  0  0  0  0
  6 10  1  0  0  0  0
  6 13  1  0  0  0  0
  6 14  1  0  0  0  0
  7 15  2  0  0  0  0
  7 19  1  0  0  0  0
  8 19  2  0  0  0  0
  9 25  1  0  0  0  0
  9 28  2  0  0  0  0
 10 11  1  0  0  0  0
 10 15  1  0  0  0  0
 10 32  1  0  0  0  0
 11 12  1  0  0  0  0
 11 33  1  0  0  0  0
 11 34  1  0  0  0  0
 12 13  1  0  0  0  0
 12 35  1  0  0  0  0
 12 36  1  0  0  0  0
 13 37  1  0  0  0  0
 13 38  1  0  0  0  0
 14 16  1  0  0  0  0
 14 39  1  0  0  0  0
 14 40  1  0  0  0  0
 16 17  2  0  0  0  0
 16 18  1  0  0  0  0
 17 20  1  0  0  0  0
 17 41  1  0  0  0  0
 18 21  2  0  0  0  0
 18 42  1  0  0  0  0
 19 23  1  0  0  0  0
 20 22  2  0  0  0  0
 20 43  1  0  0  0  0
 21 22  1  0  0  0  0
 21 44  1  0  0  0  0
 22 26  1  0  0  0  0
 23 24  1  0  0  0  0
 23 25  2  0  0  0  0
 24 27  2  0  0  0  0
 24 45  1  0  0  0  0
 25 46  1  0  0  0  0
 27 28  1  0  0  0  0
 27 47  1  0  0  0  0
 29 30  1  0  0  0  0
 29 49  1  0  0  0  0
 29 50  1  0  0  0  0
 30 51  1  0  0  0  0
 30 52  1  0  0  0  0
 31 53  1  0  0  0  0
 31 54  1  0  0  0  0
 31 55  1  0  0  0  0
M  END
> <PUBCHEM_COMPOUND_CID>
45783543

> <PUBCHEM_CONFORMER_RMSD>
1

> <PUBCHEM_CONFORMER_DIVERSEORDER>
1
24
32
17
31
36
20
38
6
16
37
18
23
29
26
25
10
21
13
19
35
12
28
22
30
5
7
11
34
2
14
39
4
15
27
3
9
8
33

> <PUBCHEM_MMFF94_PARTIAL_CHARGES>
37
1 -0.02
10 0.45
13 0.27
14 0.41
15 0.3
16 -0.14
17 -0.15
18 -0.15
19 0.46
2 -0.65
20 -0.15
21 -0.15
22 0.09
23 0.05
24 -0.15
25 0.16
26 0.63
27 -0.15
28 0.39
29 0.28
3 -0.36
30 0.28
31 0.28
4 -0.57
41 0.15
42 0.15
43 0.15
44 0.15
45 0.15
46 0.15
47 0.15
48 0.5
5 -0.56
6 -0.81
7 -0.57
8 -0.41
9 -0.62

> <PUBCHEM_EFFECTIVE_ROTOR_COUNT>
10

> <PUBCHEM_PHARMACOPHORE_FEATURES>
10
1 2 acceptor
1 4 acceptor
1 5 acceptor
1 6 cation
3 2 4 26 anion
3 7 8 19 cation
5 1 7 8 15 19 rings
5 6 10 11 12 13 rings
6 16 17 18 20 21 22 rings
6 9 23 24 25 27 28 rings

> <PUBCHEM_HEAVY_ATOM_COUNT>
31

> <PUBCHEM_ATOM_DEF_STEREO_COUNT>
1

> <PUBCHEM_ATOM_UDEF_STEREO_COUNT>
0

> <PUBCHEM_BOND_DEF_STEREO_COUNT>
0

> <PUBCHEM_BOND_UDEF_STEREO_COUNT>
0

> <PUBCHEM_ISOTOPIC_ATOM_COUNT>
0

> <PUBCHEM_COMPONENT_COUNT>
1

> <PUBCHEM_CACTVS_TAUTO_COUNT>
1

> <PUBCHEM_CONFORMER_ID>
02BA99F700000001

> <PUBCHEM_MMFF94_ENERGY>
72.7785

> <PUBCHEM_FEATURE_SELFOVERLAP>
50.805

> <PUBCHEM_SHAPE_FINGERPRINT>
10454371 7 18409455761242924676
10670039 82 18334013866087975762
1100329 8 18410854348750237609
12156800 1 15434481864932635949
12166972 35 17749389320766633046
12645989 146 18342177812764960382
12788726 201 18260822648963734971
13782708 43 17846500310290250414
14068700 675 18271805774077906397
14931854 50 18041266712679433727
15183329 4 17968096383695927738
15419008 47 17988636398868449664
15876981 60 18408329881945658300
16067689 302 17975978983580146583
17492 54 18042385969015472813
18336668 15 18040158413501363781
20642791 35 18263060229248472165
20691752 17 17314771075538651669
20721686 56 18337106895339604408
20775438 99 17330812026312071143
20905425 154 18049439542223797157
21057603 43 17985266533221198539
21236236 1 18334579019032552714
21344244 246 17763451113004278111
21927370 108 18337686286089880731
22899556 105 17979648049776816847
23559900 14 17970340645356315781
392239 28 18409732837682890656
4280585 95 18336814368947511909
5171179 24 18269265932098464033
531348 171 18270964518892421246
57527585 103 17388007281053057363
5969126 39 18342457049789045718
68570916 9 10303511907372294242
7471813 234 18339076124347592615

> <PUBCHEM_SHAPE_MULTIPOLES>
588.69
15.39
4.33
1.58
38.46
5.01
0.24
-11.61
-6.77
-4.82
0.24
-0.33
-0.4
-0.23

> <PUBCHEM_SHAPE_SELFOVERLAP>
1266.597

> <PUBCHEM_SHAPE_VOLUME>
325.5

> <PUBCHEM_COORDINATE_TYPE>
2
5
10

$$$$
