45783684
  -OEChem-12032416283D

 52 55  0     1  0  0  0  0  0999 V2000
   -0.3114    2.2988    1.8123 O   0  0  0  0  0  0  0  0  0  0  0  0
    3.9486   -4.2777   -0.7737 O   0  0  0  0  0  0  0  0  0  0  0  0
   -6.1265   -1.6392   -1.0509 O   0  0  0  0  0  0  0  0  0  0  0  0
    2.4082    1.6717   -0.5786 N   0  0  1  0  0  0  0  0  0  0  0  0
    3.4478   -2.3148    0.3638 N   0  0  0  0  0  0  0  0  0  0  0  0
   -0.5239    1.2852   -0.1737 N   0  0  0  0  0  0  0  0  0  0  0  0
   -1.5874    1.7213    1.8044 N   0  0  0  0  0  0  0  0  0  0  0  0
   -5.0235   -0.3961    0.5683 N   0  0  0  0  0  0  0  0  0  0  0  0
    3.0742    0.5402    0.0619 C   0  0  0  0  0  0  0  0  0  0  0  0
    1.6490    2.5125    0.3685 C   0  0  1  0  0  0  0  0  0  0  0  0
    3.3565    2.5598   -1.2513 C   0  0  0  0  0  0  0  0  0  0  0  0
    1.6634    3.9187   -0.2587 C   0  0  0  0  0  0  0  0  0  0  0  0
    3.8305   -0.2872   -0.9854 C   0  0  0  0  0  0  0  0  0  0  0  0
    2.0450   -0.3317    0.7929 C   0  0  0  0  0  0  0  0  0  0  0  0
    2.5037    3.7830   -1.5204 C   0  0  0  0  0  0  0  0  0  0  0  0
    4.4552   -1.5290   -0.3517 C   0  0  0  0  0  0  0  0  0  0  0  0
    2.7051   -1.5739    1.3911 C   0  0  0  0  0  0  0  0  0  0  0  0
    0.2467    1.9950    0.6112 C   0  0  0  0  0  0  0  0  0  0  0  0
    3.2865   -3.6685    0.0704 C   0  0  0  0  0  0  0  0  0  0  0  0
    2.2267   -4.4069    0.8484 C   0  0  0  0  0  0  0  0  0  0  0  0
   -1.6379    1.1421    0.6012 C   0  0  0  0  0  0  0  0  0  0  0  0
   -2.7863    0.4150    0.1425 C   0  0  0  0  0  0  0  0  0  0  0  0
   -2.8046   -0.1738   -1.1171 C   0  0  0  0  0  0  0  0  0  0  0  0
   -3.9108    0.2761    0.9397 C   0  0  0  0  0  0  0  0  0  0  0  0
   -3.9312   -0.8736   -1.5348 C   0  0  0  0  0  0  0  0  0  0  0  0
   -5.0047   -0.9550   -0.6625 C   0  0  0  0  0  0  0  0  0  0  0  0
   -7.1990   -1.6920   -0.1177 C   0  0  0  0  0  0  0  0  0  0  0  0
    3.8016    0.9038    0.8024 H   0  0  0  0  0  0  0  0  0  0  0  0
    2.1714    2.5773    1.3337 H   0  0  0  0  0  0  0  0  0  0  0  0
    3.7314    2.1531   -2.1952 H   0  0  0  0  0  0  0  0  0  0  0  0
    4.2050    2.8237   -0.6073 H   0  0  0  0  0  0  0  0  0  0  0  0
    0.6671    4.3082   -0.4949 H   0  0  0  0  0  0  0  0  0  0  0  0
    2.1457    4.6242    0.4290 H   0  0  0  0  0  0  0  0  0  0  0  0
    3.1450   -0.5984   -1.7850 H   0  0  0  0  0  0  0  0  0  0  0  0
    4.6386    0.2876   -1.4505 H   0  0  0  0  0  0  0  0  0  0  0  0
    1.5864    0.1905    1.6364 H   0  0  0  0  0  0  0  0  0  0  0  0
    1.2585   -0.6598    0.1019 H   0  0  0  0  0  0  0  0  0  0  0  0
    3.1023    4.6775   -1.7166 H   0  0  0  0  0  0  0  0  0  0  0  0
    1.8511    3.6128   -2.3858 H   0  0  0  0  0  0  0  0  0  0  0  0
    5.2250   -1.2439    0.3753 H   0  0  0  0  0  0  0  0  0  0  0  0
    4.9427   -2.1315   -1.1247 H   0  0  0  0  0  0  0  0  0  0  0  0
    1.9449   -2.1920    1.8722 H   0  0  0  0  0  0  0  0  0  0  0  0
    3.4263   -1.2877    2.1662 H   0  0  0  0  0  0  0  0  0  0  0  0
    2.1949   -5.4504    0.5200 H   0  0  0  0  0  0  0  0  0  0  0  0
    2.4623   -4.3929    1.9158 H   0  0  0  0  0  0  0  0  0  0  0  0
    1.2448   -3.9625    0.6653 H   0  0  0  0  0  0  0  0  0  0  0  0
   -1.9564   -0.1041   -1.7931 H   0  0  0  0  0  0  0  0  0  0  0  0
   -3.9769    0.7049    1.9353 H   0  0  0  0  0  0  0  0  0  0  0  0
   -3.9615   -1.3388   -2.5141 H   0  0  0  0  0  0  0  0  0  0  0  0
   -6.8954   -2.2046    0.8012 H   0  0  0  0  0  0  0  0  0  0  0  0
   -7.5782   -0.6883    0.1023 H   0  0  0  0  0  0  0  0  0  0  0  0
   -8.0118   -2.2670   -0.5713 H   0  0  0  0  0  0  0  0  0  0  0  0
  1  7  1  0  0  0  0
  1 18  1  0  0  0  0
  2 19  2  0  0  0  0
  3 26  1  0  0  0  0
  3 27  1  0  0  0  0
  4  9  1  0  0  0  0
  4 10  1  0  0  0  0
  4 11  1  0  0  0  0
  5 16  1  0  0  0  0
  5 17  1  0  0  0  0
  5 19  1  0  0  0  0
  6 18  2  0  0  0  0
  6 21  1  0  0  0  0
  7 21  2  0  0  0  0
  8 24  1  0  0  0  0
  8 26  2  0  0  0  0
  9 13  1  0  0  0  0
  9 14  1  0  0  0  0
  9 28  1  0  0  0  0
 10 12  1  0  0  0  0
 10 18  1  0  0  0  0
 10 29  1  0  0  0  0
 11 15  1  0  0  0  0
 11 30  1  0  0  0  0
 11 31  1  0  0  0  0
 12 15  1  0  0  0  0
 12 32  1  0  0  0  0
 12 33  1  0  0  0  0
 13 16  1  0  0  0  0
 13 34  1  0  0  0  0
 13 35  1  0  0  0  0
 14 17  1  0  0  0  0
 14 36  1  0  0  0  0
 14 37  1  0  0  0  0
 15 38  1  0  0  0  0
 15 39  1  0  0  0  0
 16 40  1  0  0  0  0
 16 41  1  0  0  0  0
 17 42  1  0  0  0  0
 17 43  1  0  0  0  0
 19 20  1  0  0  0  0
 20 44  1  0  0  0  0
 20 45  1  0  0  0  0
 20 46  1  0  0  0  0
 21 22  1  0  0  0  0
 22 23  1  0  0  0  0
 22 24  2  0  0  0  0
 23 25  2  0  0  0  0
 23 47  1  0  0  0  0
 24 48  1  0  0  0  0
 25 26  1  0  0  0  0
 25 49  1  0  0  0  0
 27 50  1  0  0  0  0
 27 51  1  0  0  0  0
 27 52  1  0  0  0  0
M  END
> <PUBCHEM_COMPOUND_CID>
45783684

> <PUBCHEM_CONFORMER_RMSD>
0.8

> <PUBCHEM_CONFORMER_DIVERSEORDER>
1
22
78
102
53
98
72
90
87
29
13
97
54
38
32
68
11
64
101
20
93
80
21
17
35
75
55
52
37
58
9
23
88
103
47
34
36
99
86
26
46
62
96
67
18
63
69
100
4
65
28
27
73
92
39
56
85
24
81
94
33
48
44
8
40
70
79
57
50
71
6
89
14
60
15
76
16
25
59
74
61
45
77
43
95
82
83
91
84
49
19
41
30
42
10
2
3
31
66
7
5
51
12

> <PUBCHEM_MMFF94_PARTIAL_CHARGES>
26
1 -0.02
10 0.45
11 0.27
16 0.3
17 0.3
18 0.3
19 0.57
2 -0.57
20 0.06
21 0.46
22 0.05
23 -0.15
24 0.16
25 -0.15
26 0.39
27 0.28
3 -0.36
4 -0.81
47 0.15
48 0.15
49 0.15
5 -0.66
6 -0.57
7 -0.41
8 -0.62
9 0.27

> <PUBCHEM_EFFECTIVE_ROTOR_COUNT>
7.2

> <PUBCHEM_PHARMACOPHORE_FEATURES>
7
1 2 acceptor
1 4 cation
3 6 7 21 cation
5 1 6 7 18 21 rings
5 4 10 11 12 15 rings
6 5 9 13 14 16 17 rings
6 8 22 23 24 25 26 rings

> <PUBCHEM_HEAVY_ATOM_COUNT>
27

> <PUBCHEM_ATOM_DEF_STEREO_COUNT>
1

> <PUBCHEM_ATOM_UDEF_STEREO_COUNT>
0

> <PUBCHEM_BOND_DEF_STEREO_COUNT>
0

> <PUBCHEM_BOND_UDEF_STEREO_COUNT>
0

> <PUBCHEM_ISOTOPIC_ATOM_COUNT>
0

> <PUBCHEM_COMPONENT_COUNT>
1

> <PUBCHEM_CACTVS_TAUTO_COUNT>
1

> <PUBCHEM_CONFORMER_ID>
02BA9A8400000001

> <PUBCHEM_MMFF94_ENERGY>
54.6786

> <PUBCHEM_FEATURE_SELFOVERLAP>
35.523

> <PUBCHEM_SHAPE_FINGERPRINT>
10042902 136 17984148059080780110
10622 236 18269830930977982595
11014199 57 18123753050111202430
11069576 57 18341043094720222286
11552529 35 17694782918393843016
11991303 11 17465109632514288308
12107183 9 18198352745635474777
12553582 1 18117571626078527576
12788726 201 17703246099705502593
13009979 54 17987241032269973474
13533116 47 18340205301910502775
13692114 37 17836637896835676312
13911987 19 17827098478082646476
14114206 34 17027145207000838450
14429380 30 18192151486843355506
14767858 380 18262257547063292702
14863182 85 18268698571672318936
15183329 4 17774730865919161333
15250474 111 18342456002043982663
17134984 74 18122619715906017103
17138139 8 17627222699721092623
17492 89 18340767027070601799
17818456 19 17986683571343727537
17974551 9 14543689202449290582
1813 80 18338511941606545416
19026451 147 18188199927941340682
19319366 153 18125719230003725124
20388580 30 18411697690361985505
20645477 70 18188205506734495025
20775438 99 18194385908934466019
20775530 9 18195520398706873890
21133410 171 17101675615137687619
21285901 2 17458614653334125453
21304303 94 18263358243400753427
21315764 268 10447391803922165347
235170 7 17604140549520088517
238 59 18114752632725684736
3004659 81 18342176695698644013
3411729 13 16055182717098943448
345986 75 17846780702581144745
3472631 163 11458431223788801827
34797466 226 16951121919730316773
397830 11 10879712148412475173
44062 13 18192426364680941709
44802255 64 15434873429439122814
46194498 28 17894905273866559749
463206 1 18271519917897378927
5223283 242 17678439889101292549
5309563 4 18265614286499909782
56633871 153 17838065801304383891
59682541 52 18265030553979861479
6025842 7 18262518233343684020
70251023 43 18407760326549228713
7970288 3 18342174419176729239
88748 71 18340485582522509719

> <PUBCHEM_SHAPE_MULTIPOLES>
513.13
12.34
5.38
1.42
23.44
2.53
0.1
9.73
-3.53
-9.21
-0.4
0.25
-0.45
-1.88

> <PUBCHEM_SHAPE_SELFOVERLAP>
1094.824

> <PUBCHEM_SHAPE_VOLUME>
285.3

> <PUBCHEM_COORDINATE_TYPE>
2
5
10

$$$$
