56775296
  -OEChem-12032416393D

 39 40  0     1  0  0  0  0  0999 V2000
    0.7687    1.9828   -0.7732 O   0  0  0  0  0  0  0  0  0  0  0  0
    3.6592    0.0264   -1.4628 O   0  0  0  0  0  0  0  0  0  0  0  0
   -3.6745    1.1121    0.5659 O   0  0  0  0  0  0  0  0  0  0  0  0
    2.1053   -0.2291    0.2502 N   0  0  0  0  0  0  0  0  0  0  0  0
   -1.4586    0.4741    0.5288 N   0  0  0  0  0  0  0  0  0  0  0  0
   -3.1480   -1.0661    0.0242 N   0  0  0  0  0  0  0  0  0  0  0  0
    0.8712    0.2319    0.8741 C   0  0  1  0  0  0  0  0  0  0  0  0
    0.5540    1.7008    0.6074 C   0  0  2  0  0  0  0  0  0  0  0  0
   -0.3725   -0.4856    0.3415 C   0  0  0  0  0  0  0  0  0  0  0  0
   -0.9398    1.7892    0.8919 C   0  0  0  0  0  0  0  0  0  0  0  0
    2.6206   -1.5208    0.6824 C   0  0  0  0  0  0  0  0  0  0  0  0
    2.6959    0.4423   -0.8170 C   0  0  0  0  0  0  0  0  0  0  0  0
    2.1274    1.8197   -1.1106 C   0  0  0  0  0  0  0  0  0  0  0  0
   -2.8237    0.2362    0.3868 C   0  0  0  0  0  0  0  0  0  0  0  0
    4.0630   -1.3848    1.1528 C   0  0  0  0  0  0  0  0  0  0  0  0
    2.4994   -2.5467   -0.4374 C   0  0  0  0  0  0  0  0  0  0  0  0
   -4.5129   -1.4975   -0.1720 C   0  0  0  0  0  0  0  0  0  0  0  0
   -5.0346   -1.0849   -1.5328 C   0  0  0  0  0  0  0  0  0  0  0  0
    0.9484    0.0845    1.9597 H   0  0  0  0  0  0  0  0  0  0  0  0
    1.1332    2.3999    1.2205 H   0  0  0  0  0  0  0  0  0  0  0  0
   -0.3054   -0.7129   -0.7286 H   0  0  0  0  0  0  0  0  0  0  0  0
   -0.5751   -1.4120    0.8876 H   0  0  0  0  0  0  0  0  0  0  0  0
   -1.1391    1.9313    1.9595 H   0  0  0  0  0  0  0  0  0  0  0  0
   -1.4533    2.5654    0.3162 H   0  0  0  0  0  0  0  0  0  0  0  0
    2.0205   -1.8661    1.5333 H   0  0  0  0  0  0  0  0  0  0  0  0
    2.7346    2.5673   -0.5874 H   0  0  0  0  0  0  0  0  0  0  0  0
    2.2223    2.0026   -2.1859 H   0  0  0  0  0  0  0  0  0  0  0  0
    4.7625   -1.1574    0.3435 H   0  0  0  0  0  0  0  0  0  0  0  0
    4.1548   -0.5939    1.9054 H   0  0  0  0  0  0  0  0  0  0  0  0
    4.3995   -2.3210    1.6121 H   0  0  0  0  0  0  0  0  0  0  0  0
    3.1574   -2.3399   -1.2860 H   0  0  0  0  0  0  0  0  0  0  0  0
    1.4734   -2.5978   -0.8171 H   0  0  0  0  0  0  0  0  0  0  0  0
    2.7632   -3.5428   -0.0646 H   0  0  0  0  0  0  0  0  0  0  0  0
   -2.4142   -1.7429   -0.1507 H   0  0  0  0  0  0  0  0  0  0  0  0
   -4.5299   -2.5872   -0.0725 H   0  0  0  0  0  0  0  0  0  0  0  0
   -5.1389   -1.0693    0.6180 H   0  0  0  0  0  0  0  0  0  0  0  0
   -6.0587   -1.4441   -1.6734 H   0  0  0  0  0  0  0  0  0  0  0  0
   -4.4128   -1.5009   -2.3326 H   0  0  0  0  0  0  0  0  0  0  0  0
   -5.0373    0.0039   -1.6469 H   0  0  0  0  0  0  0  0  0  0  0  0
  1  8  1  0  0  0  0
  1 13  1  0  0  0  0
  2 12  2  0  0  0  0
  3 14  2  0  0  0  0
  4  7  1  0  0  0  0
  4 11  1  0  0  0  0
  4 12  1  0  0  0  0
  5  9  1  0  0  0  0
  5 10  1  0  0  0  0
  5 14  1  0  0  0  0
  6 14  1  0  0  0  0
  6 17  1  0  0  0  0
  6 34  1  0  0  0  0
  7  8  1  0  0  0  0
  7  9  1  0  0  0  0
  7 19  1  0  0  0  0
  8 10  1  0  0  0  0
  8 20  1  0  0  0  0
  9 21  1  0  0  0  0
  9 22  1  0  0  0  0
 10 23  1  0  0  0  0
 10 24  1  0  0  0  0
 11 15  1  0  0  0  0
 11 16  1  0  0  0  0
 11 25  1  0  0  0  0
 12 13  1  0  0  0  0
 13 26  1  0  0  0  0
 13 27  1  0  0  0  0
 15 28  1  0  0  0  0
 15 29  1  0  0  0  0
 15 30  1  0  0  0  0
 16 31  1  0  0  0  0
 16 32  1  0  0  0  0
 16 33  1  0  0  0  0
 17 18  1  0  0  0  0
 17 35  1  0  0  0  0
 17 36  1  0  0  0  0
 18 37  1  0  0  0  0
 18 38  1  0  0  0  0
 18 39  1  0  0  0  0
M  END
> <PUBCHEM_COMPOUND_CID>
56775296

> <PUBCHEM_CONFORMER_RMSD>
0.6

> <PUBCHEM_CONFORMER_DIVERSEORDER>
1
22
14
12
21
16
9
6
24
15
20
8
10
7
13
2
19
11
18
17
4
5
3
23

> <PUBCHEM_MMFF94_PARTIAL_CHARGES>
16
1 -0.56
10 0.3
11 0.3
12 0.57
13 0.34
14 0.69
17 0.3
2 -0.57
3 -0.57
34 0.37
4 -0.66
5 -0.66
6 -0.73
7 0.3
8 0.28
9 0.3

> <PUBCHEM_EFFECTIVE_ROTOR_COUNT>
5.2

> <PUBCHEM_PHARMACOPHORE_FEATURES>
7
1 1 acceptor
1 2 acceptor
1 3 acceptor
1 6 donor
3 11 15 16 hydrophobe
5 5 7 8 9 10 rings
6 1 4 7 8 12 13 rings

> <PUBCHEM_HEAVY_ATOM_COUNT>
18

> <PUBCHEM_ATOM_DEF_STEREO_COUNT>
2

> <PUBCHEM_ATOM_UDEF_STEREO_COUNT>
0

> <PUBCHEM_BOND_DEF_STEREO_COUNT>
0

> <PUBCHEM_BOND_UDEF_STEREO_COUNT>
0

> <PUBCHEM_ISOTOPIC_ATOM_COUNT>
0

> <PUBCHEM_COMPONENT_COUNT>
1

> <PUBCHEM_CACTVS_TAUTO_COUNT>
4

> <PUBCHEM_CONFORMER_ID>
0362528000000001

> <PUBCHEM_MMFF94_ENERGY>
36.4232

> <PUBCHEM_FEATURE_SELFOVERLAP>
35.722

> <PUBCHEM_SHAPE_FINGERPRINT>
10042902 136 18058454205715786094
10062212 137 18413110533281965731
11578080 2 18267000817897132984
116883 192 18118686504651109972
11769659 78 18412262813742750049
11806522 49 18410852153451776178
12553582 1 18343311387503833315
13083527 12 17968925423852219352
13257819 101 15720238460518266894
14181834 199 18113345219203009668
14252887 29 16415760834025322298
14289901 80 14692563291313578939
14576447 43 18411140276605435071
15342816 4 18272371983526416254
16945 1 18115328751054259640
18186145 218 16081093662332355641
18915474 69 18341617052896420879
20281475 54 18272093747176495409
20369508 70 18130498755937249521
20626108 58 18262504931945811730
20645477 70 18261393390404848075
21452121 199 18409438181277221984
21501925 9 18342729732651106091
21503847 285 9367077682714079912
22112679 90 18191882119262836152
2255824 54 18266181818951106332
23402539 116 18262228907578141538
23419403 2 17973687425644572904
23557571 272 17630606717755425960
23596394 208 17822001043317330951
23598291 2 18335989662169810545
251288 83 16916776431261938450
2748010 2 15881246085571216160
2838139 119 14636581811947915758
3060560 45 18116154552947849372
5281201 14 17531241786321764407
633830 44 16950570939360398585
7164475 11 18338517421974583845
7364860 26 18340484590137248784
960060 61 18337946900631935303

> <PUBCHEM_SHAPE_MULTIPOLES>
337.88
8.46
2.34
1.25
8.69
0.13
-0.3
5.1
-2
-0.92
-0.15
-0.35
-0.09
-1.42

> <PUBCHEM_SHAPE_SELFOVERLAP>
689.346

> <PUBCHEM_SHAPE_VOLUME>
195.5

> <PUBCHEM_COORDINATE_TYPE>
2
5
10

$$$$
