40777818
  -OEChem-12032416193D

 48 49  0     1  0  0  0  0  0999 V2000
    5.1064    1.1463   -0.4970 F   0  0  0  0  0  0  0  0  0  0  0  0
   -2.3312   -0.3139   -0.9809 O   0  0  0  0  0  0  0  0  0  0  0  0
   -4.9467   -0.6987    0.5243 O   0  0  0  0  0  0  0  0  0  0  0  0
   -4.3901    1.9729    0.8716 O   0  0  0  0  0  0  0  0  0  0  0  0
   -0.9052   -3.3712   -0.3543 O   0  0  0  0  0  0  0  0  0  0  0  0
    0.3037    0.6254   -2.0578 O   0  0  0  0  0  0  0  0  0  0  0  0
   -0.8278    2.0688   -0.6366 N   0  0  0  0  0  0  0  0  0  0  0  0
    0.9036   -2.1557    0.4531 N   0  0  0  0  0  0  0  0  0  0  0  0
   -3.6466   -0.3533    1.0006 C   0  0  2  0  0  0  0  0  0  0  0  0
   -3.3197    1.0817    0.6425 C   0  0  1  0  0  0  0  0  0  0  0  0
   -2.6209   -1.1269    0.1794 C   0  0  2  0  0  0  0  0  0  0  0  0
   -2.9862    0.9585   -0.8349 C   0  0  1  0  0  0  0  0  0  0  0  0
   -1.3133   -1.3588    0.9240 C   0  0  0  0  0  0  0  0  0  0  0  0
   -2.0759    2.0632   -1.3407 C   0  0  0  0  0  0  0  0  0  0  0  0
   -0.4460   -2.4146    0.2638 C   0  0  0  0  0  0  0  0  0  0  0  0
    1.9506   -3.0038   -0.0689 C   0  0  0  0  0  0  0  0  0  0  0  0
    0.2801    1.3381   -1.0578 C   0  0  0  0  0  0  0  0  0  0  0  0
    3.1602   -2.9822    0.8566 C   0  0  0  0  0  0  0  0  0  0  0  0
    2.3290   -2.5778   -1.4820 C   0  0  0  0  0  0  0  0  0  0  0  0
    1.4917    1.4297   -0.2031 C   0  0  0  0  0  0  0  0  0  0  0  0
    2.7555    1.2409   -0.7622 C   0  0  0  0  0  0  0  0  0  0  0  0
    1.3654    1.7059    1.1584 C   0  0  0  0  0  0  0  0  0  0  0  0
    3.8932    1.3281    0.0400 C   0  0  0  0  0  0  0  0  0  0  0  0
    2.5032    1.7932    1.9606 C   0  0  0  0  0  0  0  0  0  0  0  0
    3.7671    1.6043    1.4014 C   0  0  0  0  0  0  0  0  0  0  0  0
   -3.6214   -0.5500    2.0762 H   0  0  0  0  0  0  0  0  0  0  0  0
   -2.4585    1.4133    1.2327 H   0  0  0  0  0  0  0  0  0  0  0  0
   -3.0400   -2.0714   -0.1848 H   0  0  0  0  0  0  0  0  0  0  0  0
   -3.8984    0.9444   -1.4444 H   0  0  0  0  0  0  0  0  0  0  0  0
   -1.5182   -1.7313    1.9352 H   0  0  0  0  0  0  0  0  0  0  0  0
   -0.7561   -0.4240    1.0224 H   0  0  0  0  0  0  0  0  0  0  0  0
   -2.5413    3.0450   -1.2082 H   0  0  0  0  0  0  0  0  0  0  0  0
   -1.8725    1.9186   -2.4076 H   0  0  0  0  0  0  0  0  0  0  0  0
   -5.0996   -1.6327    0.7483 H   0  0  0  0  0  0  0  0  0  0  0  0
   -4.6302    1.9051    1.8114 H   0  0  0  0  0  0  0  0  0  0  0  0
   -0.7608    2.6807    0.1697 H   0  0  0  0  0  0  0  0  0  0  0  0
    1.1831   -1.3132    0.9467 H   0  0  0  0  0  0  0  0  0  0  0  0
    1.5653   -4.0297   -0.1119 H   0  0  0  0  0  0  0  0  0  0  0  0
    3.5798   -1.9736    0.9410 H   0  0  0  0  0  0  0  0  0  0  0  0
    2.8830   -3.3086    1.8649 H   0  0  0  0  0  0  0  0  0  0  0  0
    3.9468   -3.6490    0.4886 H   0  0  0  0  0  0  0  0  0  0  0  0
    2.7362   -1.5631   -1.4981 H   0  0  0  0  0  0  0  0  0  0  0  0
    1.4568   -2.5939   -2.1445 H   0  0  0  0  0  0  0  0  0  0  0  0
    3.0838   -3.2508   -1.9020 H   0  0  0  0  0  0  0  0  0  0  0  0
    2.8745    1.0312   -1.8218 H   0  0  0  0  0  0  0  0  0  0  0  0
    0.3996    1.8310    1.6386 H   0  0  0  0  0  0  0  0  0  0  0  0
    2.4051    2.0011    3.0221 H   0  0  0  0  0  0  0  0  0  0  0  0
    4.6529    1.6702    2.0262 H   0  0  0  0  0  0  0  0  0  0  0  0
  1 23  1  0  0  0  0
  2 11  1  0  0  0  0
  2 12  1  0  0  0  0
  3  9  1  0  0  0  0
  3 34  1  0  0  0  0
  4 10  1  0  0  0  0
  4 35  1  0  0  0  0
  5 15  2  0  0  0  0
  6 17  2  0  0  0  0
  7 14  1  0  0  0  0
  7 17  1  0  0  0  0
  7 36  1  0  0  0  0
  8 15  1  0  0  0  0
  8 16  1  0  0  0  0
  8 37  1  0  0  0  0
  9 10  1  0  0  0  0
  9 11  1  0  0  0  0
  9 26  1  0  0  0  0
 10 12  1  0  0  0  0
 10 27  1  0  0  0  0
 11 13  1  0  0  0  0
 11 28  1  0  0  0  0
 12 14  1  0  0  0  0
 12 29  1  0  0  0  0
 13 15  1  0  0  0  0
 13 30  1  0  0  0  0
 13 31  1  0  0  0  0
 14 32  1  0  0  0  0
 14 33  1  0  0  0  0
 16 18  1  0  0  0  0
 16 19  1  0  0  0  0
 16 38  1  0  0  0  0
 17 20  1  0  0  0  0
 18 39  1  0  0  0  0
 18 40  1  0  0  0  0
 18 41  1  0  0  0  0
 19 42  1  0  0  0  0
 19 43  1  0  0  0  0
 19 44  1  0  0  0  0
 20 21  2  0  0  0  0
 20 22  1  0  0  0  0
 21 23  1  0  0  0  0
 21 45  1  0  0  0  0
 22 24  2  0  0  0  0
 22 46  1  0  0  0  0
 23 25  2  0  0  0  0
 24 25  1  0  0  0  0
 24 47  1  0  0  0  0
 25 48  1  0  0  0  0
M  END
> <PUBCHEM_COMPOUND_CID>
40777818

> <PUBCHEM_CONFORMER_RMSD>
1.2

> <PUBCHEM_CONFORMER_DIVERSEORDER>
3
69
79
46
90
106
98
37
93
96
22
68
57
5
97
109
113
70
6
40
110
105
111
10
36
66
102
55
100
78
53
41
71
49
114
52
94
25
75
60
84
74
15
54
101
8
7
42
82
62
17
67
72
12
43
27
107
86
104
18
108
44
85
45
58
83
95
99
112
29
63
81
30
9
73
87
35
31
32
61
34
50
16
20
14
77
38
28
1
48
76
33
39
47
13
65
23
88
2
92
59
21
103
51
56
24
80
11
89
91
64
19
26
4

> <PUBCHEM_MMFF94_PARTIAL_CHARGES>
31
1 -0.19
10 0.28
11 0.28
12 0.28
13 0.06
14 0.3
15 0.57
16 0.3
17 0.54
2 -0.56
20 0.09
21 -0.15
22 -0.15
23 0.19
24 -0.15
25 -0.15
3 -0.68
34 0.4
35 0.4
36 0.37
37 0.37
4 -0.68
45 0.15
46 0.15
47 0.15
48 0.15
5 -0.57
6 -0.57
7 -0.73
8 -0.73
9 0.28

> <PUBCHEM_EFFECTIVE_ROTOR_COUNT>
9

> <PUBCHEM_PHARMACOPHORE_FEATURES>
12
1 2 acceptor
1 3 acceptor
1 3 donor
1 4 acceptor
1 4 donor
1 5 acceptor
1 6 acceptor
1 7 donor
1 8 donor
3 16 18 19 hydrophobe
5 2 9 10 11 12 rings
6 20 21 22 23 24 25 rings

> <PUBCHEM_HEAVY_ATOM_COUNT>
25

> <PUBCHEM_ATOM_DEF_STEREO_COUNT>
4

> <PUBCHEM_ATOM_UDEF_STEREO_COUNT>
0

> <PUBCHEM_BOND_DEF_STEREO_COUNT>
0

> <PUBCHEM_BOND_UDEF_STEREO_COUNT>
0

> <PUBCHEM_ISOTOPIC_ATOM_COUNT>
0

> <PUBCHEM_COMPONENT_COUNT>
1

> <PUBCHEM_CACTVS_TAUTO_COUNT>
4

> <PUBCHEM_CONFORMER_ID>
026E385A00000003

> <PUBCHEM_MMFF94_ENERGY>
52.8457

> <PUBCHEM_FEATURE_SELFOVERLAP>
60.91

> <PUBCHEM_SHAPE_FINGERPRINT>
10165383 225 18339933708941611400
10366900 7 18271798055726822156
10675989 125 15089707626186323740
1100329 8 17477494105633419984
11370993 70 18199747106066007352
11578080 2 17169537515784486350
12422481 6 18045470120595600810
12633257 1 18338785711691853058
12788726 201 17329433255429927006
13140716 1 17760374687885485587
13402501 40 18410017624168673782
13533116 47 18271240518191400681
14178342 30 18267306628089132687
17093844 170 18334862697237913084
20691752 17 17385730149405773619
20905425 154 18410009953220225542
21330990 113 18335702771350395260
22182313 1 18114174195325604173
23419403 2 18044924693191030782
23559900 14 18261952929943350564
2748010 2 18188199889059391701
35225 105 17264921498092484394
3524813 1 18336553737552714006
465052 167 17169558617654844601
5265222 85 18121234323139858268
59755656 215 18409729607967509143
602551 16 18265891539892942680
6287921 2 18342736278445548111
81228 2 17331381581729098626

> <PUBCHEM_SHAPE_MULTIPOLES>
467.91
7.91
3.89
1.54
1.75
3.3
-0.09
-2.57
1.84
-2.37
0.04
-0.45
-0.53
0.87

> <PUBCHEM_SHAPE_SELFOVERLAP>
971.376

> <PUBCHEM_SHAPE_VOLUME>
267.7

> <PUBCHEM_COORDINATE_TYPE>
2
5
10

$$$$
