44716358
  -OEChem-12032416333D

 71 75  0     1  0  0  0  0  0999 V2000
    5.2024   -2.2365   -1.0611 O   0  0  0  0  0  0  0  0  0  0  0  0
    5.8055   -0.1925    0.7227 O   0  0  0  0  0  0  0  0  0  0  0  0
    2.8302    2.8957   -0.0762 O   0  0  0  0  0  0  0  0  0  0  0  0
   -4.7909   -0.2835    1.0537 N   0  0  2  0  0  0  0  0  0  0  0  0
   -1.0312   -3.3950   -0.0674 N   0  0  0  0  0  0  0  0  0  0  0  0
   -3.4864    2.8109   -0.6778 N   0  0  0  0  0  0  0  0  0  0  0  0
    0.3114   -3.3328   -0.0654 N   0  0  0  0  0  0  0  0  0  0  0  0
   -3.8951   -1.6335   -0.9854 C   0  0  2  0  0  0  0  0  0  0  0  0
   -3.1497   -2.0504    0.3126 C   0  0  2  0  0  0  0  0  0  0  0  0
   -4.4597    0.6413   -0.0623 C   0  0  2  0  0  0  0  0  0  0  0  0
   -3.7368   -0.1133   -1.1987 C   0  0  0  0  0  0  0  0  0  0  0  0
   -5.3957   -1.9037   -0.7434 C   0  0  0  0  0  0  0  0  0  0  0  0
   -3.5911   -1.0692    1.4360 C   0  0  0  0  0  0  0  0  0  0  0  0
   -5.8270   -1.2270    0.5695 C   0  0  0  0  0  0  0  0  0  0  0  0
   -3.6648    1.8612    0.4081 C   0  0  0  0  0  0  0  0  0  0  0  0
   -1.6380   -2.2157    0.2516 C   0  0  0  0  0  0  0  0  0  0  0  0
   -0.6217   -1.3199    0.4784 C   0  0  0  0  0  0  0  0  0  0  0  0
    0.5555   -2.0628    0.2686 C   0  0  0  0  0  0  0  0  0  0  0  0
   -2.7208    3.9710   -0.2385 C   0  0  0  0  0  0  0  0  0  0  0  0
   -1.6792   -4.6453   -0.3894 C   0  0  0  0  0  0  0  0  0  0  0  0
    1.9082   -1.5831    0.3829 C   0  0  0  0  0  0  0  0  0  0  0  0
   -1.2434    3.6842   -0.1951 C   0  0  0  0  0  0  0  0  0  0  0  0
    2.9158   -2.1446   -0.4012 C   0  0  0  0  0  0  0  0  0  0  0  0
    2.2111   -0.5575    1.2783 C   0  0  0  0  0  0  0  0  0  0  0  0
   -0.5402    3.8261    1.0010 C   0  0  0  0  0  0  0  0  0  0  0  0
   -0.5778    3.2771   -1.3514 C   0  0  0  0  0  0  0  0  0  0  0  0
    4.2266   -1.6804   -0.2901 C   0  0  0  0  0  0  0  0  0  0  0  0
    3.5218   -0.0934    1.3897 C   0  0  0  0  0  0  0  0  0  0  0  0
    0.8287    3.5609    1.0409 C   0  0  0  0  0  0  0  0  0  0  0  0
    0.7912    3.0121   -1.3115 C   0  0  0  0  0  0  0  0  0  0  0  0
    4.5295   -0.6548    0.6054 C   0  0  0  0  0  0  0  0  0  0  0  0
    1.4944    3.1540   -0.1152 C   0  0  0  0  0  0  0  0  0  0  0  0
    5.4391   -1.6411   -2.3355 C   0  0  0  0  0  0  0  0  0  0  0  0
    6.0305    0.8578    1.6612 C   0  0  0  0  0  0  0  0  0  0  0  0
    3.4476    2.4837   -1.2949 C   0  0  0  0  0  0  0  0  0  0  0  0
   -3.5310   -2.1885   -1.8561 H   0  0  0  0  0  0  0  0  0  0  0  0
   -3.5486   -3.0344    0.6019 H   0  0  0  0  0  0  0  0  0  0  0  0
   -5.4114    1.0275   -0.4577 H   0  0  0  0  0  0  0  0  0  0  0  0
   -2.6712    0.1392   -1.2467 H   0  0  0  0  0  0  0  0  0  0  0  0
   -4.1771    0.1702   -2.1628 H   0  0  0  0  0  0  0  0  0  0  0  0
   -5.5859   -2.9819   -0.6867 H   0  0  0  0  0  0  0  0  0  0  0  0
   -5.9847   -1.5136   -1.5823 H   0  0  0  0  0  0  0  0  0  0  0  0
   -3.8274   -1.6516    2.3373 H   0  0  0  0  0  0  0  0  0  0  0  0
   -2.7938   -0.3935    1.7582 H   0  0  0  0  0  0  0  0  0  0  0  0
   -6.0298   -1.9834    1.3385 H   0  0  0  0  0  0  0  0  0  0  0  0
   -6.7764   -0.6978    0.4215 H   0  0  0  0  0  0  0  0  0  0  0  0
   -2.6893    1.5462    0.7933 H   0  0  0  0  0  0  0  0  0  0  0  0
   -4.2039    2.3396    1.2363 H   0  0  0  0  0  0  0  0  0  0  0  0
   -0.7226   -0.2764    0.7413 H   0  0  0  0  0  0  0  0  0  0  0  0
   -4.4036    3.1204   -0.9996 H   0  0  0  0  0  0  0  0  0  0  0  0
   -2.8724    4.7830   -0.9614 H   0  0  0  0  0  0  0  0  0  0  0  0
   -3.0912    4.3572    0.7195 H   0  0  0  0  0  0  0  0  0  0  0  0
   -2.4386   -4.4640   -1.1535 H   0  0  0  0  0  0  0  0  0  0  0  0
   -0.9375   -5.3500   -0.7753 H   0  0  0  0  0  0  0  0  0  0  0  0
   -2.1297   -5.0432    0.5230 H   0  0  0  0  0  0  0  0  0  0  0  0
    2.7020   -2.9403   -1.1117 H   0  0  0  0  0  0  0  0  0  0  0  0
    1.4488   -0.1062    1.9087 H   0  0  0  0  0  0  0  0  0  0  0  0
   -1.0461    4.1408    1.9098 H   0  0  0  0  0  0  0  0  0  0  0  0
   -1.1120    3.1669   -2.2916 H   0  0  0  0  0  0  0  0  0  0  0  0
    3.6836    0.7044    2.1063 H   0  0  0  0  0  0  0  0  0  0  0  0
    1.3712    3.6717    1.9758 H   0  0  0  0  0  0  0  0  0  0  0  0
    1.2454    2.7003   -2.2458 H   0  0  0  0  0  0  0  0  0  0  0  0
    4.5453   -1.7127   -2.9634 H   0  0  0  0  0  0  0  0  0  0  0  0
    5.7358   -0.5935   -2.2228 H   0  0  0  0  0  0  0  0  0  0  0  0
    6.2532   -2.1851   -2.8221 H   0  0  0  0  0  0  0  0  0  0  0  0
    5.4863    1.7681    1.3876 H   0  0  0  0  0  0  0  0  0  0  0  0
    5.8155    0.5359    2.6859 H   0  0  0  0  0  0  0  0  0  0  0  0
    7.0972    1.1018    1.6219 H   0  0  0  0  0  0  0  0  0  0  0  0
    3.3908    3.2664   -2.0589 H   0  0  0  0  0  0  0  0  0  0  0  0
    4.5094    2.3225   -1.0824 H   0  0  0  0  0  0  0  0  0  0  0  0
    3.0435    1.5291   -1.6487 H   0  0  0  0  0  0  0  0  0  0  0  0
  1 27  1  0  0  0  0
  1 33  1  0  0  0  0
  2 31  1  0  0  0  0
  2 34  1  0  0  0  0
  3 32  1  0  0  0  0
  3 35  1  0  0  0  0
  4 10  1  0  0  0  0
  4 13  1  0  0  0  0
  4 14  1  0  0  0  0
  5  7  1  0  0  0  0
  5 16  1  0  0  0  0
  5 20  1  0  0  0  0
  6 15  1  0  0  0  0
  6 19  1  0  0  0  0
  6 50  1  0  0  0  0
  7 18  2  0  0  0  0
  8  9  1  0  0  0  0
  8 11  1  0  0  0  0
  8 12  1  0  0  0  0
  8 36  1  0  0  0  0
  9 13  1  0  0  0  0
  9 16  1  0  0  0  0
  9 37  1  0  0  0  0
 10 11  1  0  0  0  0
 10 15  1  0  0  0  0
 10 38  1  0  0  0  0
 11 39  1  0  0  0  0
 11 40  1  0  0  0  0
 12 14  1  0  0  0  0
 12 41  1  0  0  0  0
 12 42  1  0  0  0  0
 13 43  1  0  0  0  0
 13 44  1  0  0  0  0
 14 45  1  0  0  0  0
 14 46  1  0  0  0  0
 15 47  1  0  0  0  0
 15 48  1  0  0  0  0
 16 17  2  0  0  0  0
 17 18  1  0  0  0  0
 17 49  1  0  0  0  0
 18 21  1  0  0  0  0
 19 22  1  0  0  0  0
 19 51  1  0  0  0  0
 19 52  1  0  0  0  0
 20 53  1  0  0  0  0
 20 54  1  0  0  0  0
 20 55  1  0  0  0  0
 21 23  2  0  0  0  0
 21 24  1  0  0  0  0
 22 25  2  0  0  0  0
 22 26  1  0  0  0  0
 23 27  1  0  0  0  0
 23 56  1  0  0  0  0
 24 28  2  0  0  0  0
 24 57  1  0  0  0  0
 25 29  1  0  0  0  0
 25 58  1  0  0  0  0
 26 30  2  0  0  0  0
 26 59  1  0  0  0  0
 27 31  2  0  0  0  0
 28 31  1  0  0  0  0
 28 60  1  0  0  0  0
 29 32  2  0  0  0  0
 29 61  1  0  0  0  0
 30 32  1  0  0  0  0
 30 62  1  0  0  0  0
 33 63  1  0  0  0  0
 33 64  1  0  0  0  0
 33 65  1  0  0  0  0
 34 66  1  0  0  0  0
 34 67  1  0  0  0  0
 34 68  1  0  0  0  0
 35 69  1  0  0  0  0
 35 70  1  0  0  0  0
 35 71  1  0  0  0  0
M  END
> <PUBCHEM_COMPOUND_CID>
44716358

> <PUBCHEM_CONFORMER_RMSD>
1

> <PUBCHEM_CONFORMER_DIVERSEORDER>
1
60
53
72
9
52
73
50
65
88
58
74
38
82
10
75
86
44
90
37
33
59
2
36
64
7
70
85
89
43
8
3
35
56
79
39
54
24
66
17
68
69
22
5
57
21
84
81
23
31
61
28
77
19
51
76
25
18
55
71
14
67
80
26
46
45
62
34
4
29
47
41
15
48
49
11
42
87
12
20
83
13
32
78
30
40
16
6
63
27

> <PUBCHEM_MMFF94_PARTIAL_CHARGES>
41
1 -0.36
10 0.27
13 0.27
14 0.27
15 0.27
16 -0.33
17 -0.15
18 0.23
19 0.41
2 -0.36
20 0.26
21 0.05
22 -0.14
23 -0.15
24 -0.15
25 -0.15
26 -0.15
27 0.08
28 -0.15
29 -0.15
3 -0.36
30 -0.15
31 0.08
32 0.08
33 0.28
34 0.28
35 0.28
4 -0.81
49 0.15
5 0.31
50 0.36
56 0.15
57 0.15
58 0.15
59 0.15
6 -0.9
60 0.15
61 0.15
62 0.15
7 -0.71
9 0.18

> <PUBCHEM_EFFECTIVE_ROTOR_COUNT>
10.2

> <PUBCHEM_PHARMACOPHORE_FEATURES>
11
1 1 acceptor
1 2 acceptor
1 3 acceptor
1 4 cation
1 6 cation
1 6 donor
1 7 acceptor
5 5 7 16 17 18 rings
6 21 23 24 27 28 31 rings
6 22 25 26 29 30 32 rings
8 4 8 9 10 11 12 13 14 rings

> <PUBCHEM_HEAVY_ATOM_COUNT>
35

> <PUBCHEM_ATOM_DEF_STEREO_COUNT>
3

> <PUBCHEM_ATOM_UDEF_STEREO_COUNT>
0

> <PUBCHEM_BOND_DEF_STEREO_COUNT>
0

> <PUBCHEM_BOND_UDEF_STEREO_COUNT>
0

> <PUBCHEM_ISOTOPIC_ATOM_COUNT>
0

> <PUBCHEM_COMPONENT_COUNT>
1

> <PUBCHEM_CACTVS_TAUTO_COUNT>
1

> <PUBCHEM_CONFORMER_ID>
02AA514600000001

> <PUBCHEM_MMFF94_ENERGY>
114.9984

> <PUBCHEM_FEATURE_SELFOVERLAP>
55.827

> <PUBCHEM_SHAPE_FINGERPRINT>
10074138 170 15881195554812300138
10439779 11 17546715410980797232
10670039 82 18263089825235450774
10864689 126 17834393424162897220
11513181 2 18343588425520689630
12156800 1 17339888150784623213
13122387 1 18409164381654969193
13561361 72 18337382735150118952
14117953 113 18412260628448434855
14394314 77 18339928224833662929
15001296 14 18188213220385157805
150020 26 17829621904190434609
15264996 44 18271254927405727068
15274700 232 17187569339605340502
15274700 256 18410016512874879526
15297060 5 18055636118589778712
15320467 1 18338514252320361449
15721738 15 16171413831213297676
15968369 153 18341611533621118549
16067689 302 18049445044320509655
16067689 391 16981530798712755526
17627616 140 17757274056257426397
18336668 15 18186797002100593140
20567600 299 17981324800650695944
20721686 56 18262234559454137033
20764821 26 18337113349952607669
20775530 9 18334293158810317673
21033648 29 18201987820701406139
21344244 246 17907000027281279999
21860390 5 18269276944636931566
3052486 1 18262518062124779384
437795 70 18269011803573893398
463206 1 18265617774076540985
469060 322 17023468521484602956
50150288 127 16125843630996016585
513532 50 17844537797776851460
653340 110 18339073770864101152
9961470 85 18053370287534564777

> <PUBCHEM_SHAPE_MULTIPOLES>
682.75
12.35
6.29
1.46
4.85
3.58
-0.25
-5.35
0.06
-1.75
-1.08
1.36
0.17
0.83

> <PUBCHEM_SHAPE_SELFOVERLAP>
1470.903

> <PUBCHEM_SHAPE_VOLUME>
375.6

> <PUBCHEM_COORDINATE_TYPE>
2
5
10

$$$$
