11884100
  -OEChem-12032416283D

 54 56  0     1  0  0  0  0  0999 V2000
   -1.9121   -0.9264   -1.3561 O   0  0  0  0  0  0  0  0  0  0  0  0
   -3.1136   -2.3266    1.0933 O   0  0  0  0  0  0  0  0  0  0  0  0
    0.2853   -1.6860    0.1607 O   0  0  0  0  0  0  0  0  0  0  0  0
   -6.6862    0.0938    0.3597 O   0  0  0  0  0  0  0  0  0  0  0  0
    1.2077    0.0875    1.2716 O   0  0  0  0  0  0  0  0  0  0  0  0
   -4.6943    0.3888   -0.7971 N   0  0  0  0  0  0  0  0  0  0  0  0
   -6.1965    2.1258   -0.6477 N   0  0  0  0  0  0  0  0  0  0  0  0
    2.4448   -1.1850   -0.2550 N   0  0  0  0  0  0  0  0  0  0  0  0
   -3.2401   -0.9737    0.6079 C   0  0  1  0  0  0  0  0  0  0  0  0
   -1.8907   -0.5830    0.0395 C   0  0  1  0  0  0  0  0  0  0  0  0
   -4.1621   -0.9357   -0.5885 C   0  0  2  0  0  0  0  0  0  0  0  0
   -0.9417   -1.4625    0.8177 C   0  0  1  0  0  0  0  0  0  0  0  0
   -3.2365   -1.3442   -1.7215 C   0  0  0  0  0  0  0  0  0  0  0  0
   -1.7429   -2.7351    0.9756 C   0  0  0  0  0  0  0  0  0  0  0  0
   -5.9291    0.8038   -0.3009 C   0  0  0  0  0  0  0  0  0  0  0  0
    1.3228   -0.8304    0.4687 C   0  0  0  0  0  0  0  0  0  0  0  0
   -7.4099    2.8062   -0.2607 C   0  0  0  0  0  0  0  0  0  0  0  0
    3.7193   -0.5739   -0.2399 C   0  0  0  0  0  0  0  0  0  0  0  0
    7.5799    1.2757   -0.1961 C   0  0  0  0  0  0  0  0  0  0  0  0
    6.2349    0.6315   -0.2106 C   0  0  0  0  0  0  0  0  0  0  0  0
    4.7418   -1.0745   -1.0459 C   0  0  0  0  0  0  0  0  0  0  0  0
    3.9545    0.5293    0.5807 C   0  0  0  0  0  0  0  0  0  0  0  0
   -7.3388    3.2962    1.1708 C   0  0  0  0  0  0  0  0  0  0  0  0
    5.9997   -0.4718   -1.0313 C   0  0  0  0  0  0  0  0  0  0  0  0
    5.2124    1.1318    0.5953 C   0  0  0  0  0  0  0  0  0  0  0  0
    8.2543    1.1998    1.1867 C   0  0  0  0  0  0  0  0  0  0  0  0
    7.5374    2.7386   -0.6770 C   0  0  0  0  0  0  0  0  0  0  0  0
   -3.5544   -0.3472    1.4487 H   0  0  0  0  0  0  0  0  0  0  0  0
   -1.6644    0.4844    0.1158 H   0  0  0  0  0  0  0  0  0  0  0  0
   -4.9970   -1.6395   -0.5022 H   0  0  0  0  0  0  0  0  0  0  0  0
   -0.7966   -1.0427    1.8228 H   0  0  0  0  0  0  0  0  0  0  0  0
   -3.5010   -0.9063   -2.6888 H   0  0  0  0  0  0  0  0  0  0  0  0
   -3.2114   -2.4339   -1.8321 H   0  0  0  0  0  0  0  0  0  0  0  0
   -1.4513   -3.3031    1.8642 H   0  0  0  0  0  0  0  0  0  0  0  0
   -1.6446   -3.3990    0.1094 H   0  0  0  0  0  0  0  0  0  0  0  0
   -4.1154    1.0734   -1.2745 H   0  0  0  0  0  0  0  0  0  0  0  0
   -5.5067    2.6381   -1.1886 H   0  0  0  0  0  0  0  0  0  0  0  0
    2.3450   -1.9839   -0.8765 H   0  0  0  0  0  0  0  0  0  0  0  0
   -7.5472    3.6487   -0.9455 H   0  0  0  0  0  0  0  0  0  0  0  0
   -8.2547    2.1201   -0.3823 H   0  0  0  0  0  0  0  0  0  0  0  0
    8.2380    0.7386   -0.8928 H   0  0  0  0  0  0  0  0  0  0  0  0
    4.5716   -1.9336   -1.6898 H   0  0  0  0  0  0  0  0  0  0  0  0
    3.2122    0.9714    1.2307 H   0  0  0  0  0  0  0  0  0  0  0  0
   -8.2561    3.8304    1.4371 H   0  0  0  0  0  0  0  0  0  0  0  0
   -6.4928    3.9776    1.3095 H   0  0  0  0  0  0  0  0  0  0  0  0
   -7.2135    2.4645    1.8717 H   0  0  0  0  0  0  0  0  0  0  0  0
    6.7850   -0.8743   -1.6655 H   0  0  0  0  0  0  0  0  0  0  0  0
    5.3746    1.9902    1.2416 H   0  0  0  0  0  0  0  0  0  0  0  0
    7.7083    1.7767    1.9410 H   0  0  0  0  0  0  0  0  0  0  0  0
    9.2745    1.5957    1.1383 H   0  0  0  0  0  0  0  0  0  0  0  0
    8.3123    0.1625    1.5348 H   0  0  0  0  0  0  0  0  0  0  0  0
    6.9630    3.3769    0.0030 H   0  0  0  0  0  0  0  0  0  0  0  0
    7.0794    2.8085   -1.6699 H   0  0  0  0  0  0  0  0  0  0  0  0
    8.5504    3.1499   -0.7442 H   0  0  0  0  0  0  0  0  0  0  0  0
  1 10  1  0  0  0  0
  1 13  1  0  0  0  0
  2  9  1  0  0  0  0
  2 14  1  0  0  0  0
  3 12  1  0  0  0  0
  3 16  1  0  0  0  0
  4 15  2  0  0  0  0
  5 16  2  0  0  0  0
  6 11  1  0  0  0  0
  6 15  1  0  0  0  0
  6 36  1  0  0  0  0
  7 15  1  0  0  0  0
  7 17  1  0  0  0  0
  7 37  1  0  0  0  0
  8 16  1  0  0  0  0
  8 18  1  0  0  0  0
  8 38  1  0  0  0  0
  9 10  1  0  0  0  0
  9 11  1  0  0  0  0
  9 28  1  0  0  0  0
 10 12  1  0  0  0  0
 10 29  1  0  0  0  0
 11 13  1  0  0  0  0
 11 30  1  0  0  0  0
 12 14  1  0  0  0  0
 12 31  1  0  0  0  0
 13 32  1  0  0  0  0
 13 33  1  0  0  0  0
 14 34  1  0  0  0  0
 14 35  1  0  0  0  0
 17 23  1  0  0  0  0
 17 39  1  0  0  0  0
 17 40  1  0  0  0  0
 18 21  2  0  0  0  0
 18 22  1  0  0  0  0
 19 20  1  0  0  0  0
 19 26  1  0  0  0  0
 19 27  1  0  0  0  0
 19 41  1  0  0  0  0
 20 24  2  0  0  0  0
 20 25  1  0  0  0  0
 21 24  1  0  0  0  0
 21 42  1  0  0  0  0
 22 25  2  0  0  0  0
 22 43  1  0  0  0  0
 23 44  1  0  0  0  0
 23 45  1  0  0  0  0
 23 46  1  0  0  0  0
 24 47  1  0  0  0  0
 25 48  1  0  0  0  0
 26 49  1  0  0  0  0
 26 50  1  0  0  0  0
 26 51  1  0  0  0  0
 27 52  1  0  0  0  0
 27 53  1  0  0  0  0
 27 54  1  0  0  0  0
M  END
> <PUBCHEM_COMPOUND_CID>
11884100

> <PUBCHEM_CONFORMER_RMSD>
1

> <PUBCHEM_CONFORMER_DIVERSEORDER>
1
36
2
62
68
63
51
29
65
40
20
22
42
57
24
55
38
31
72
33
46
19
4
14
15
49
13
30
53
27
54
23
66
45
8
52
41
37
21
43
60
71
16
17
34
10
69
9
58
48
18
44
67
70
3
28
25
59
6
39
56
5
26
7
12
61
50
35
64
11
73
32
47

> <PUBCHEM_MMFF94_PARTIAL_CHARGES>
31
1 -0.56
10 0.28
11 0.3
12 0.28
13 0.28
14 0.28
15 0.69
16 0.78
17 0.3
18 0.12
19 0.14
2 -0.56
20 -0.14
21 -0.15
22 -0.15
24 -0.15
25 -0.15
3 -0.43
36 0.37
37 0.37
38 0.37
4 -0.57
42 0.15
43 0.15
47 0.15
48 0.15
5 -0.57
6 -0.73
7 -0.73
8 -0.55
9 0.28

> <PUBCHEM_EFFECTIVE_ROTOR_COUNT>
10.2

> <PUBCHEM_PHARMACOPHORE_FEATURES>
11
1 1 acceptor
1 2 acceptor
1 4 acceptor
1 5 acceptor
1 6 donor
1 7 donor
1 8 donor
3 19 26 27 hydrophobe
5 1 9 10 11 13 rings
5 2 9 10 12 14 rings
6 18 20 21 22 24 25 rings

> <PUBCHEM_HEAVY_ATOM_COUNT>
27

> <PUBCHEM_ATOM_DEF_STEREO_COUNT>
4

> <PUBCHEM_ATOM_UDEF_STEREO_COUNT>
0

> <PUBCHEM_BOND_DEF_STEREO_COUNT>
0

> <PUBCHEM_BOND_UDEF_STEREO_COUNT>
0

> <PUBCHEM_ISOTOPIC_ATOM_COUNT>
0

> <PUBCHEM_COMPONENT_COUNT>
1

> <PUBCHEM_CACTVS_TAUTO_COUNT>
6

> <PUBCHEM_CONFORMER_ID>
00B5564400000001

> <PUBCHEM_MMFF94_ENERGY>
64.9641

> <PUBCHEM_FEATURE_SELFOVERLAP>
56.588

> <PUBCHEM_SHAPE_FINGERPRINT>
10369192 42 18410857642910799031
106641 1 17240205448248983379
10835480 77 18412546531156489230
10883706 163 17967247594156319069
11181472 205 18259706697551908196
11315181 36 15410618141857075922
11475781 23 18412268324665741454
12236239 1 15410628012446023210
125118 31 18334296513754678356
12596602 18 11169909481144910310
12616971 3 14779545729782280646
12895837 130 18341331175725717397
13668630 136 11095880462657944733
13690498 29 17202186599503279743
14251757 52 18335419045647297928
14428016 167 9511464403129171428
14556957 393 15697730297255369760
14931854 50 14620797076367870829
15183329 4 17203609255352359255
16126227 98 18408045087692690441
16994733 274 18409727352729669729
1818759 1 11815891293248354069
18222031 100 13830132797852893186
2026 5 10879452594559576948
20621476 66 18334577940489391884
21033648 29 18340477985015286378
21150785 3 14261635049715182778
21298829 104 18410013229974421220
21307412 95 12679165125793726365
21424621 283 18334577910709412091
21623969 137 11746925487315992024
21756936 100 18335416877306095623
21781051 124 11386368089828586008
23389318 12 12103555416869702664
23559900 14 14835836348626570682
3014063 24 9727342529153342737
406291 66 9078818689839665169
4073 2 18260269694017045810
445580 204 18413106143493443625
44802255 64 17561082523330867559
4516262 110 18264200324085603421
504579 68 15410900677938115426
5104073 3 16154284947410916286
5385378 56 17749103345023464074
5718773 13 9943802283570023485
5937810 71 17989213629245628433
59682541 35 12540700340509441548
59682541 52 16558744568701141637
6328613 192 18343866593626165953
636775 72 18408601491362098397
6475588 51 18201155455892638169
6698420 124 18262807263526545347
9689198 14 18339648845937128985
9980921 221 15840997650861815785

> <PUBCHEM_SHAPE_MULTIPOLES>
511.36
25.53
2.96
1.24
9.6
1.73
-0.09
26.19
-0.84
-4.69
0.5
-0.19
-0.2
-0.01

> <PUBCHEM_SHAPE_SELFOVERLAP>
1070.953

> <PUBCHEM_SHAPE_VOLUME>
289.6

> <PUBCHEM_COORDINATE_TYPE>
2
5
10

$$$$
