25317565
  -OEChem-12032416193D

 57 61  0     1  0  0  0  0  0999 V2000
    3.3735    1.5962   -1.3601 O   0  0  0  0  0  0  0  0  0  0  0  0
    5.1248    0.9115   -0.0031 O   0  0  0  0  0  0  0  0  0  0  0  0
    3.4158    0.2868    2.2196 O   0  0  0  0  0  0  0  0  0  0  0  0
   -4.5203    0.5590   -0.2072 O   0  0  0  0  0  0  0  0  0  0  0  0
   -5.2068    2.7826   -0.8330 O   0  0  0  0  0  0  0  0  0  0  0  0
    2.0475   -0.9339   -0.9277 N   0  0  2  0  0  0  0  0  0  0  0  0
    0.9762    2.1201    0.2099 N   0  0  0  0  0  0  0  0  0  0  0  0
   -0.4863   -4.7004   -0.8464 N   0  0  0  0  0  0  0  0  0  0  0  0
    3.1083   -0.4206   -0.0598 C   0  0  2  0  0  0  0  0  0  0  0  0
    2.3054    1.8953    0.7881 C   0  0  1  0  0  0  0  0  0  0  0  0
    2.5114    0.3949    1.1105 C   0  0  2  0  0  0  0  0  0  0  0  0
    3.3601    2.4389   -0.2028 C   0  0  1  0  0  0  0  0  0  0  0  0
    4.0831    0.4472   -0.8775 C   0  0  1  0  0  0  0  0  0  0  0  0
    4.7949    2.2821    0.2677 C   0  0  0  0  0  0  0  0  0  0  0  0
    1.4062   -2.0970   -0.3163 C   0  0  0  0  0  0  0  0  0  0  0  0
    2.5862   -1.2784   -2.2426 C   0  0  0  0  0  0  0  0  0  0  0  0
   -0.0426    2.0872    1.2450 C   0  0  0  0  0  0  0  0  0  0  0  0
    0.0067   -2.3163   -0.8915 C   0  0  0  0  0  0  0  0  0  0  0  0
   -1.4212    2.3101    0.6822 C   0  0  0  0  0  0  0  0  0  0  0  0
   -0.6749   -3.5004   -0.2533 C   0  0  0  0  0  0  0  0  0  0  0  0
   -2.2913    1.2281    0.5301 C   0  0  0  0  0  0  0  0  0  0  0  0
   -1.8217    3.6075    0.3170 C   0  0  0  0  0  0  0  0  0  0  0  0
   -3.5449    1.4822    0.0125 C   0  0  0  0  0  0  0  0  0  0  0  0
   -1.4432   -3.3092    0.8839 C   0  0  0  0  0  0  0  0  0  0  0  0
   -3.0969    3.8376   -0.2047 C   0  0  0  0  0  0  0  0  0  0  0  0
   -3.9369    2.7520   -0.3450 C   0  0  0  0  0  0  0  0  0  0  0  0
   -2.0572   -4.4216    1.4488 C   0  0  0  0  0  0  0  0  0  0  0  0
   -1.0987   -5.7584   -0.2692 C   0  0  0  0  0  0  0  0  0  0  0  0
   -5.5705    1.3901   -0.7425 C   0  0  0  0  0  0  0  0  0  0  0  0
   -1.8867   -5.6731    0.8674 C   0  0  0  0  0  0  0  0  0  0  0  0
    3.6984   -1.2531    0.3519 H   0  0  0  0  0  0  0  0  0  0  0  0
    2.4071    2.4931    1.7041 H   0  0  0  0  0  0  0  0  0  0  0  0
    1.5949   -0.0649    1.4833 H   0  0  0  0  0  0  0  0  0  0  0  0
    3.1407    3.4739   -0.4865 H   0  0  0  0  0  0  0  0  0  0  0  0
    4.5898   -0.0637   -1.6997 H   0  0  0  0  0  0  0  0  0  0  0  0
    5.4725    2.8987   -0.3327 H   0  0  0  0  0  0  0  0  0  0  0  0
    4.9470    2.5147    1.3251 H   0  0  0  0  0  0  0  0  0  0  0  0
    0.7855    1.4086   -0.4956 H   0  0  0  0  0  0  0  0  0  0  0  0
    2.0217   -2.9987   -0.4448 H   0  0  0  0  0  0  0  0  0  0  0  0
    1.2966   -1.9788    0.7679 H   0  0  0  0  0  0  0  0  0  0  0  0
    3.0106    0.7473    2.9742 H   0  0  0  0  0  0  0  0  0  0  0  0
    1.8432   -1.8067   -2.8501 H   0  0  0  0  0  0  0  0  0  0  0  0
    3.4599   -1.9392   -2.1844 H   0  0  0  0  0  0  0  0  0  0  0  0
    2.8178   -0.3956   -2.8474 H   0  0  0  0  0  0  0  0  0  0  0  0
    0.1453    2.8732    1.9887 H   0  0  0  0  0  0  0  0  0  0  0  0
   -0.0455    1.1440    1.8014 H   0  0  0  0  0  0  0  0  0  0  0  0
    0.0385   -2.4958   -1.9719 H   0  0  0  0  0  0  0  0  0  0  0  0
   -0.6089   -1.4182   -0.7521 H   0  0  0  0  0  0  0  0  0  0  0  0
   -1.9991    0.2209    0.8060 H   0  0  0  0  0  0  0  0  0  0  0  0
   -1.1406    4.4464    0.4384 H   0  0  0  0  0  0  0  0  0  0  0  0
   -1.5679   -2.3294    1.3319 H   0  0  0  0  0  0  0  0  0  0  0  0
   -3.4096    4.8363   -0.4875 H   0  0  0  0  0  0  0  0  0  0  0  0
   -2.6669   -4.3134    2.3408 H   0  0  0  0  0  0  0  0  0  0  0  0
   -6.4528    1.2989   -0.0986 H   0  0  0  0  0  0  0  0  0  0  0  0
   -5.8276    1.0285   -1.7448 H   0  0  0  0  0  0  0  0  0  0  0  0
   -0.9343   -6.7115   -0.7608 H   0  0  0  0  0  0  0  0  0  0  0  0
   -2.3556   -6.5540    1.2906 H   0  0  0  0  0  0  0  0  0  0  0  0
  1 12  1  0  0  0  0
  1 13  1  0  0  0  0
  2 13  1  0  0  0  0
  2 14  1  0  0  0  0
  3 11  1  0  0  0  0
  3 41  1  0  0  0  0
  4 23  1  0  0  0  0
  4 29  1  0  0  0  0
  5 26  1  0  0  0  0
  5 29  1  0  0  0  0
  6  9  1  0  0  0  0
  6 15  1  0  0  0  0
  6 16  1  0  0  0  0
  7 10  1  0  0  0  0
  7 17  1  0  0  0  0
  7 38  1  0  0  0  0
  8 20  1  0  0  0  0
  8 28  2  0  0  0  0
  9 11  1  0  0  0  0
  9 13  1  0  0  0  0
  9 31  1  0  0  0  0
 10 11  1  0  0  0  0
 10 12  1  0  0  0  0
 10 32  1  0  0  0  0
 11 33  1  0  0  0  0
 12 14  1  0  0  0  0
 12 34  1  0  0  0  0
 13 35  1  0  0  0  0
 14 36  1  0  0  0  0
 14 37  1  0  0  0  0
 15 18  1  0  0  0  0
 15 39  1  0  0  0  0
 15 40  1  0  0  0  0
 16 42  1  0  0  0  0
 16 43  1  0  0  0  0
 16 44  1  0  0  0  0
 17 19  1  0  0  0  0
 17 45  1  0  0  0  0
 17 46  1  0  0  0  0
 18 20  1  0  0  0  0
 18 47  1  0  0  0  0
 18 48  1  0  0  0  0
 19 21  2  0  0  0  0
 19 22  1  0  0  0  0
 20 24  2  0  0  0  0
 21 23  1  0  0  0  0
 21 49  1  0  0  0  0
 22 25  2  0  0  0  0
 22 50  1  0  0  0  0
 23 26  2  0  0  0  0
 24 27  1  0  0  0  0
 24 51  1  0  0  0  0
 25 26  1  0  0  0  0
 25 52  1  0  0  0  0
 27 30  2  0  0  0  0
 27 53  1  0  0  0  0
 28 30  1  0  0  0  0
 28 56  1  0  0  0  0
 29 54  1  0  0  0  0
 29 55  1  0  0  0  0
 30 57  1  0  0  0  0
M  END
> <PUBCHEM_COMPOUND_CID>
25317565

> <PUBCHEM_CONFORMER_RMSD>
1.2

> <PUBCHEM_CONFORMER_DIVERSEORDER>
1
43
4
85
15
20
33
57
102
90
104
115
66
101
93
69
98
84
122
52
105
59
42
108
10
41
118
50
19
60
86
5
103
58
54
75
28
32
17
76
91
46
49
34
77
36
26
124
83
95
97
9
129
68
79
55
111
128
7
21
11
119
89
71
116
82
107
125
88
56
70
112
22
117
38
40
30
100
44
45
109
62
92
61
2
35
121
47
110
81
65
120
18
80
64
106
51
72
39
3
73
48
14
37
27
126
12
23
16
99
96
114
127
74
53
123
29
78
87
24
25
8
63
113
31
13
67
94
6

> <PUBCHEM_MMFF94_PARTIAL_CHARGES>
39
1 -0.56
10 0.27
11 0.28
12 0.28
13 0.56
14 0.28
15 0.27
16 0.27
17 0.41
18 0.14
19 -0.14
2 -0.56
20 0.17
21 -0.15
22 -0.15
23 0.08
24 -0.15
25 -0.15
26 0.08
27 -0.15
28 0.16
29 0.56
3 -0.68
30 -0.15
38 0.36
4 -0.36
41 0.4
49 0.15
5 -0.36
50 0.15
51 0.15
52 0.15
53 0.15
56 0.15
57 0.15
6 -0.81
7 -0.9
8 -0.62
9 0.27

> <PUBCHEM_EFFECTIVE_ROTOR_COUNT>
8.8

> <PUBCHEM_PHARMACOPHORE_FEATURES>
14
1 1 acceptor
1 2 acceptor
1 3 acceptor
1 3 donor
1 4 acceptor
1 5 acceptor
1 6 cation
1 7 cation
1 7 donor
1 8 acceptor
5 4 5 23 26 29 rings
6 19 21 22 23 25 26 rings
6 8 20 24 27 28 30 rings
8 1 2 9 10 11 12 13 14 rings

> <PUBCHEM_HEAVY_ATOM_COUNT>
30

> <PUBCHEM_ATOM_DEF_STEREO_COUNT>
5

> <PUBCHEM_ATOM_UDEF_STEREO_COUNT>
0

> <PUBCHEM_BOND_DEF_STEREO_COUNT>
0

> <PUBCHEM_BOND_UDEF_STEREO_COUNT>
0

> <PUBCHEM_ISOTOPIC_ATOM_COUNT>
0

> <PUBCHEM_COMPONENT_COUNT>
1

> <PUBCHEM_CACTVS_TAUTO_COUNT>
2

> <PUBCHEM_CONFORMER_ID>
018250BD00000001

> <PUBCHEM_MMFF94_ENERGY>
87.9279

> <PUBCHEM_FEATURE_SELFOVERLAP>
71.253

> <PUBCHEM_SHAPE_FINGERPRINT>
10074138 170 18052219008475800168
10675989 125 18123467172851490481
10688039 33 17761216917871168370
108634 29 18343029912342389678
11370993 70 18338238167469864508
11421498 54 17756706704516317282
12788726 201 18045212992992470939
13590594 115 17545599419315170656
138480 1 17402051093581050763
14251757 5 18266179607295812281
14675020 138 18125980720730054201
15276724 80 17406281409626816844
15968369 26 17973992969749346875
16993438 75 18265053715910761339
17138139 8 17772723131231269549
19319366 153 18268416963567160767
20028762 73 17983006761478843486
20567600 347 18191581961130505931
20764821 26 18410849933217772451
20775530 9 16826439108572566063
21304304 249 18267012874454946746
21360442 67 18408319965894858381
21583282 1 17532112527012762006
23516275 137 16772697484389133093
23559900 14 17907572528403125617
238 59 18194696860043927499
4058900 60 18265625281473691237
4280585 95 17186720516042069494
4409770 3 18338240478241222067
463206 1 18130495388857476173
86090 222 18272085007445653241
9981440 41 18335704884526819163

> <PUBCHEM_SHAPE_MULTIPOLES>
573.1
9.39
8.29
1.39
0.01
13.72
0
-9.87
1.64
-9.83
-0.85
0.84
0.53
1.92

> <PUBCHEM_SHAPE_SELFOVERLAP>
1245.365

> <PUBCHEM_SHAPE_VOLUME>
310.3

> <PUBCHEM_COORDINATE_TYPE>
2
5
10

$$$$
