40779509
  -OEChem-12032416163D

 69 73  0     1  0  0  0  0  0999 V2000
    7.1241    1.9430    1.9612 F   0  0  0  0  0  0  0  0  0  0  0  0
    7.2799    2.9073    0.0186 F   0  0  0  0  0  0  0  0  0  0  0  0
    8.1959    0.9634    0.3502 F   0  0  0  0  0  0  0  0  0  0  0  0
    1.2602   -0.1344   -1.5030 O   0  0  0  0  0  0  0  0  0  0  0  0
   -1.3989    4.3042   -0.4480 O   0  0  0  0  0  0  0  0  0  0  0  0
   -3.7425    5.6726    0.1508 O   0  0  0  0  0  0  0  0  0  0  0  0
   -0.6261   -4.7328   -0.7012 N   0  0  2  0  0  0  0  0  0  0  0  0
   -4.3891   -1.8848   -0.0880 N   0  0  0  0  0  0  0  0  0  0  0  0
    2.1534   -2.2235   -1.0308 N   0  0  0  0  0  0  0  0  0  0  0  0
   -4.7872   -0.6053   -0.1912 N   0  0  0  0  0  0  0  0  0  0  0  0
   -1.2728   -3.5068    1.5037 C   0  0  2  0  0  0  0  0  0  0  0  0
   -2.4152   -3.3836    0.4578 C   0  0  2  0  0  0  0  0  0  0  0  0
    0.4760   -3.8278   -0.2809 C   0  0  2  0  0  0  0  0  0  0  0  0
    0.0318   -2.9420    0.9030 C   0  0  0  0  0  0  0  0  0  0  0  0
   -1.0470   -5.0155    1.7408 C   0  0  0  0  0  0  0  0  0  0  0  0
   -1.8785   -3.9577   -0.8845 C   0  0  0  0  0  0  0  0  0  0  0  0
   -0.8457   -5.7166    0.3860 C   0  0  0  0  0  0  0  0  0  0  0  0
   -3.0834   -2.0278    0.2798 C   0  0  0  0  0  0  0  0  0  0  0  0
    1.0216   -2.9950   -1.4429 C   0  0  0  0  0  0  0  0  0  0  0  0
   -2.5932   -0.7532    0.4271 C   0  0  0  0  0  0  0  0  0  0  0  0
   -3.6859    0.0812    0.1248 C   0  0  0  0  0  0  0  0  0  0  0  0
   -5.3336   -2.9422   -0.3649 C   0  0  0  0  0  0  0  0  0  0  0  0
    2.1850   -0.8315   -1.0939 C   0  0  0  0  0  0  0  0  0  0  0  0
   -3.6973    1.5209    0.1303 C   0  0  0  0  0  0  0  0  0  0  0  0
    3.4449   -0.1798   -0.6528 C   0  0  0  0  0  0  0  0  0  0  0  0
   -2.5321    2.2287   -0.1644 C   0  0  0  0  0  0  0  0  0  0  0  0
   -4.8735    2.2078    0.4310 C   0  0  0  0  0  0  0  0  0  0  0  0
    3.8053    1.0640   -1.1713 C   0  0  0  0  0  0  0  0  0  0  0  0
    4.2679   -0.8117    0.2794 C   0  0  0  0  0  0  0  0  0  0  0  0
   -2.5430    3.6236   -0.1586 C   0  0  0  0  0  0  0  0  0  0  0  0
   -4.8843    3.6027    0.4371 C   0  0  0  0  0  0  0  0  0  0  0  0
   -3.7191    4.3106    0.1423 C   0  0  0  0  0  0  0  0  0  0  0  0
    4.9886    1.6758   -0.7574 C   0  0  0  0  0  0  0  0  0  0  0  0
    5.4513   -0.2001    0.6931 C   0  0  0  0  0  0  0  0  0  0  0  0
    5.8117    1.0437    0.1746 C   0  0  0  0  0  0  0  0  0  0  0  0
    7.0763    1.6984    0.6183 C   0  0  0  0  0  0  0  0  0  0  0  0
   -0.2403    3.5270   -0.7445 C   0  0  0  0  0  0  0  0  0  0  0  0
   -4.9849    6.2973    0.4684 C   0  0  0  0  0  0  0  0  0  0  0  0
   -1.5252   -2.9965    2.4392 H   0  0  0  0  0  0  0  0  0  0  0  0
   -3.2060   -4.0623    0.8112 H   0  0  0  0  0  0  0  0  0  0  0  0
    1.3122   -4.4557    0.0620 H   0  0  0  0  0  0  0  0  0  0  0  0
   -0.0937   -1.9025    0.5986 H   0  0  0  0  0  0  0  0  0  0  0  0
    0.8160   -2.9491    1.6709 H   0  0  0  0  0  0  0  0  0  0  0  0
   -1.9051   -5.4541    2.2632 H   0  0  0  0  0  0  0  0  0  0  0  0
   -0.1677   -5.1650    2.3791 H   0  0  0  0  0  0  0  0  0  0  0  0
   -2.6392   -4.6183   -1.3212 H   0  0  0  0  0  0  0  0  0  0  0  0
   -1.7354   -3.1691   -1.6319 H   0  0  0  0  0  0  0  0  0  0  0  0
    0.0060   -6.4054    0.4459 H   0  0  0  0  0  0  0  0  0  0  0  0
   -1.7145   -6.3441    0.1496 H   0  0  0  0  0  0  0  0  0  0  0  0
    0.2584   -2.3350   -1.8659 H   0  0  0  0  0  0  0  0  0  0  0  0
    1.3651   -3.6551   -2.2477 H   0  0  0  0  0  0  0  0  0  0  0  0
   -1.6001   -0.4587    0.7280 H   0  0  0  0  0  0  0  0  0  0  0  0
    2.9842   -2.7409   -0.7640 H   0  0  0  0  0  0  0  0  0  0  0  0
   -6.2662   -2.5085   -0.7366 H   0  0  0  0  0  0  0  0  0  0  0  0
   -4.9116   -3.6016   -1.1263 H   0  0  0  0  0  0  0  0  0  0  0  0
   -5.5251   -3.4861    0.5631 H   0  0  0  0  0  0  0  0  0  0  0  0
   -1.6430    1.6575   -0.4076 H   0  0  0  0  0  0  0  0  0  0  0  0
   -5.7948    1.6831    0.6731 H   0  0  0  0  0  0  0  0  0  0  0  0
    3.1793    1.5706   -1.9012 H   0  0  0  0  0  0  0  0  0  0  0  0
    4.0085   -1.7654    0.7296 H   0  0  0  0  0  0  0  0  0  0  0  0
   -5.8325    4.0690    0.6814 H   0  0  0  0  0  0  0  0  0  0  0  0
    5.2513    2.6443   -1.1736 H   0  0  0  0  0  0  0  0  0  0  0  0
    6.0830   -0.6966    1.4250 H   0  0  0  0  0  0  0  0  0  0  0  0
    0.5753    4.2296   -0.9458 H   0  0  0  0  0  0  0  0  0  0  0  0
   -0.3749    2.9305   -1.6533 H   0  0  0  0  0  0  0  0  0  0  0  0
    0.0707    2.9196    0.1125 H   0  0  0  0  0  0  0  0  0  0  0  0
   -4.8209    7.3792    0.4285 H   0  0  0  0  0  0  0  0  0  0  0  0
   -5.3057    6.0621    1.4890 H   0  0  0  0  0  0  0  0  0  0  0  0
   -5.7551    6.0651   -0.2749 H   0  0  0  0  0  0  0  0  0  0  0  0
  1 36  1  0  0  0  0
  2 36  1  0  0  0  0
  3 36  1  0  0  0  0
  4 23  2  0  0  0  0
  5 30  1  0  0  0  0
  5 37  1  0  0  0  0
  6 32  1  0  0  0  0
  6 38  1  0  0  0  0
  7 13  1  0  0  0  0
  7 16  1  0  0  0  0
  7 17  1  0  0  0  0
  8 10  1  0  0  0  0
  8 18  1  0  0  0  0
  8 22  1  0  0  0  0
  9 19  1  0  0  0  0
  9 23  1  0  0  0  0
  9 53  1  0  0  0  0
 10 21  2  0  0  0  0
 11 12  1  0  0  0  0
 11 14  1  0  0  0  0
 11 15  1  0  0  0  0
 11 39  1  0  0  0  0
 12 16  1  0  0  0  0
 12 18  1  0  0  0  0
 12 40  1  0  0  0  0
 13 14  1  0  0  0  0
 13 19  1  0  0  0  0
 13 41  1  0  0  0  0
 14 42  1  0  0  0  0
 14 43  1  0  0  0  0
 15 17  1  0  0  0  0
 15 44  1  0  0  0  0
 15 45  1  0  0  0  0
 16 46  1  0  0  0  0
 16 47  1  0  0  0  0
 17 48  1  0  0  0  0
 17 49  1  0  0  0  0
 18 20  2  0  0  0  0
 19 50  1  0  0  0  0
 19 51  1  0  0  0  0
 20 21  1  0  0  0  0
 20 52  1  0  0  0  0
 21 24  1  0  0  0  0
 22 54  1  0  0  0  0
 22 55  1  0  0  0  0
 22 56  1  0  0  0  0
 23 25  1  0  0  0  0
 24 26  2  0  0  0  0
 24 27  1  0  0  0  0
 25 28  2  0  0  0  0
 25 29  1  0  0  0  0
 26 30  1  0  0  0  0
 26 57  1  0  0  0  0
 27 31  2  0  0  0  0
 27 58  1  0  0  0  0
 28 33  1  0  0  0  0
 28 59  1  0  0  0  0
 29 34  2  0  0  0  0
 29 60  1  0  0  0  0
 30 32  2  0  0  0  0
 31 32  1  0  0  0  0
 31 61  1  0  0  0  0
 33 35  2  0  0  0  0
 33 62  1  0  0  0  0
 34 35  1  0  0  0  0
 34 63  1  0  0  0  0
 35 36  1  0  0  0  0
 37 64  1  0  0  0  0
 37 65  1  0  0  0  0
 37 66  1  0  0  0  0
 38 67  1  0  0  0  0
 38 68  1  0  0  0  0
 38 69  1  0  0  0  0
M  END
> <PUBCHEM_COMPOUND_CID>
40779509

> <PUBCHEM_CONFORMER_RMSD>
1.2

> <PUBCHEM_CONFORMER_DIVERSEORDER>
1
40
69
59
53
54
57
8
38
48
6
3
70
37
49
68
44
63
33
47
17
21
67
46
39
35
19
29
61
55
13
42
12
20
60
64
56
2
36
52
58
5
11
51
50
28
62
43
65
71
32
24
22
4
27
73
26
41
34
10
16
66
25
23
72
9
15
45
14
30
31
7
18

> <PUBCHEM_MMFF94_PARTIAL_CHARGES>
44
1 -0.34
10 -0.71
12 0.18
13 0.27
16 0.27
17 0.27
18 -0.33
19 0.3
2 -0.34
20 -0.15
21 0.23
22 0.26
23 0.54
24 0.05
25 0.09
26 -0.15
27 -0.15
28 -0.15
29 -0.15
3 -0.34
30 0.08
31 -0.15
32 0.08
33 -0.15
34 -0.15
35 -0.14
36 1.16
37 0.28
38 0.28
4 -0.57
5 -0.36
52 0.15
53 0.37
57 0.15
58 0.15
59 0.15
6 -0.36
60 0.15
61 0.15
62 0.15
63 0.15
7 -0.81
8 0.31
9 -0.73

> <PUBCHEM_EFFECTIVE_ROTOR_COUNT>
10.2

> <PUBCHEM_PHARMACOPHORE_FEATURES>
10
1 10 acceptor
1 4 acceptor
1 5 acceptor
1 6 acceptor
1 7 cation
1 9 donor
5 8 10 18 20 21 rings
6 24 26 27 30 31 32 rings
6 25 28 29 33 34 35 rings
8 7 11 12 13 14 15 16 17 rings

> <PUBCHEM_HEAVY_ATOM_COUNT>
38

> <PUBCHEM_ATOM_DEF_STEREO_COUNT>
3

> <PUBCHEM_ATOM_UDEF_STEREO_COUNT>
0

> <PUBCHEM_BOND_DEF_STEREO_COUNT>
0

> <PUBCHEM_BOND_UDEF_STEREO_COUNT>
0

> <PUBCHEM_ISOTOPIC_ATOM_COUNT>
0

> <PUBCHEM_COMPONENT_COUNT>
1

> <PUBCHEM_CACTVS_TAUTO_COUNT>
2

> <PUBCHEM_CONFORMER_ID>
026E3EF500000001

> <PUBCHEM_MMFF94_ENERGY>
111.6223

> <PUBCHEM_FEATURE_SELFOVERLAP>
50.752

> <PUBCHEM_SHAPE_FINGERPRINT>
100830 39 18339079410677938804
10290309 65 18047190743701773788
10675989 125 17835807399978674384
10842077 115 16666823091389206052
10951579 204 18338817692661508788
11093857 5 18339658771432957916
11135609 187 18263353691432232653
11136257 40 16122141932249332532
11146851 88 18190175870373829903
11479125 193 18123205519401650145
12107183 9 18261945242659142890
12218070 45 18334010597396902516
14068700 686 18341900632845027935
14659021 117 18267295607292793513
14725015 67 18340482374318998955
14747282 125 18198596922714903672
15320467 1 18338521953217880805
15326921 28 18341883135074404666
15400415 2 18266462001370215844
15444296 121 18334583486146927892
155225 5 18411701014830157320
15927050 60 18195811765615298485
16067690 210 17975958071515810394
16728433 281 18269012972238085948
16990350 14 18265336093004514954
20771845 165 18201173142994964726
21133410 221 17557401457138485472
21772524 286 18340203111863466912
21792964 463 17534636103693728532
21859007 373 18271815657425818390
23522609 53 17677065654765702372
24771293 8 18129394833990718003
3388396 114 18269536356551519119
354706 109 18197473281734777816
373842 8 17978225298889432392
376196 1 18199191693638616654
3882209 13 17694200567429898791
5047190 92 18267588996973448577
5776283 40 17978532840238986566
5951187 136 17480868524209462975
6036956 94 18261962958866365533
6176135 31 17977379443355487112
6201320 215 18341043129976759512
6371009 1 18335980969076908687
653340 110 18410856542544427166
6700243 42 17550149108427058190
9961470 85 18120939395724000973
9981440 41 18334865987251862747

> <PUBCHEM_SHAPE_MULTIPOLES>
722.67
15.73
9.96
1.19
29.47
0.36
0.12
21.71
3.71
-13.66
1.47
0.98
-0.73
0.39

> <PUBCHEM_SHAPE_SELFOVERLAP>
1571.625

> <PUBCHEM_SHAPE_VOLUME>
397.4

> <PUBCHEM_COORDINATE_TYPE>
2
5
10

$$$$
