25339708
  -OEChem-12032416193D

 69 72  0     1  0  0  0  0  0999 V2000
   -0.9784   -3.7536   -1.8989 O   0  0  0  0  0  0  0  0  0  0  0  0
    4.7582   -0.0997    0.0084 O   0  0  0  0  0  0  0  0  0  0  0  0
   -2.4706    1.4911    1.2760 O   0  0  0  0  0  0  0  0  0  0  0  0
   -5.9026    2.7771    0.3633 O   0  0  0  0  0  0  0  0  0  0  0  0
    2.5024    0.4227    0.1473 N   0  0  0  0  0  0  0  0  0  0  0  0
   -4.1051   -0.1182    0.9209 N   0  0  0  0  0  0  0  0  0  0  0  0
    0.5774   -1.2101   -0.1394 C   0  0  1  0  0  0  0  0  0  0  0  0
    0.3155   -2.6032    0.5256 C   0  0  2  0  0  0  0  0  0  0  0  0
    1.0124   -2.5218    1.9415 C   0  0  0  0  0  0  0  0  0  0  0  0
    2.0213   -0.9376    0.3447 C   0  0  2  0  0  0  0  0  0  0  0  0
    1.9933   -1.3218    1.8322 C   0  0  0  0  0  0  0  0  0  0  0  0
    0.4172   -1.2032   -1.6778 C   0  0  0  0  0  0  0  0  0  0  0  0
    0.8368   -3.7884   -0.3252 C   0  0  0  0  0  0  0  0  0  0  0  0
    0.4456   -3.7196   -1.8020 C   0  0  2  0  0  0  0  0  0  0  0  0
   -0.4078   -0.1319    0.3856 C   0  0  0  0  0  0  0  0  0  0  0  0
    0.9820   -2.4186   -2.4004 C   0  0  0  0  0  0  0  0  0  0  0  0
   -0.0386   -2.2728    3.0438 C   0  0  0  0  0  0  0  0  0  0  0  0
    1.7895   -3.7817    2.3733 C   0  0  0  0  0  0  0  0  0  0  0  0
   -1.8240   -0.6686    0.3922 C   0  0  0  0  0  0  0  0  0  0  0  0
    0.9974   -4.9290   -2.5600 C   0  0  0  0  0  0  0  0  0  0  0  0
    3.8496    0.7266   -0.0059 C   0  0  0  0  0  0  0  0  0  0  0  0
   -2.8048    0.3669    0.9121 C   0  0  0  0  0  0  0  0  0  0  0  0
    4.1797    2.1655   -0.1718 C   0  0  0  0  0  0  0  0  0  0  0  0
    5.4301    2.6443    0.2191 C   0  0  0  0  0  0  0  0  0  0  0  0
    3.2393    3.0375   -0.7202 C   0  0  0  0  0  0  0  0  0  0  0  0
   -5.2187    0.6681    1.3688 C   0  0  0  0  0  0  0  0  0  0  0  0
    5.7402    3.9952    0.0618 C   0  0  0  0  0  0  0  0  0  0  0  0
    3.5492    4.3884   -0.8776 C   0  0  0  0  0  0  0  0  0  0  0  0
   -5.8621    1.4245    0.2372 C   0  0  0  0  0  0  0  0  0  0  0  0
    4.7997    4.8672   -0.4866 C   0  0  0  0  0  0  0  0  0  0  0  0
   -6.4425    1.0320   -0.9467 C   0  0  0  0  0  0  0  0  0  0  0  0
   -6.8665    2.2196   -1.5892 C   0  0  0  0  0  0  0  0  0  0  0  0
   -6.5152    3.2532   -0.7522 C   0  0  0  0  0  0  0  0  0  0  0  0
   -0.7403   -2.8417    0.6455 H   0  0  0  0  0  0  0  0  0  0  0  0
    2.7207   -1.6079   -0.1705 H   0  0  0  0  0  0  0  0  0  0  0  0
    3.0042   -1.5717    2.1761 H   0  0  0  0  0  0  0  0  0  0  0  0
    1.6652   -0.4786    2.4523 H   0  0  0  0  0  0  0  0  0  0  0  0
    0.8937   -0.3040   -2.0902 H   0  0  0  0  0  0  0  0  0  0  0  0
   -0.6354   -1.1252   -1.9683 H   0  0  0  0  0  0  0  0  0  0  0  0
    1.9306   -3.8396   -0.2759 H   0  0  0  0  0  0  0  0  0  0  0  0
    0.4513   -4.7196    0.1105 H   0  0  0  0  0  0  0  0  0  0  0  0
   -0.1465    0.2119    1.3911 H   0  0  0  0  0  0  0  0  0  0  0  0
   -0.3552    0.7684   -0.2420 H   0  0  0  0  0  0  0  0  0  0  0  0
    0.6980   -2.3482   -3.4580 H   0  0  0  0  0  0  0  0  0  0  0  0
    2.0779   -2.3997   -2.3619 H   0  0  0  0  0  0  0  0  0  0  0  0
   -0.7723   -3.0860    3.0753 H   0  0  0  0  0  0  0  0  0  0  0  0
   -0.5832   -1.3368    2.9072 H   0  0  0  0  0  0  0  0  0  0  0  0
    0.4356   -2.2146    4.0306 H   0  0  0  0  0  0  0  0  0  0  0  0
    1.1431   -4.6658    2.3801 H   0  0  0  0  0  0  0  0  0  0  0  0
    2.1914   -3.6640    3.3871 H   0  0  0  0  0  0  0  0  0  0  0  0
    2.6482   -3.9832    1.7256 H   0  0  0  0  0  0  0  0  0  0  0  0
    1.8254    1.1716    0.2398 H   0  0  0  0  0  0  0  0  0  0  0  0
   -1.9631   -1.5017    1.0831 H   0  0  0  0  0  0  0  0  0  0  0  0
   -2.1672   -0.9801   -0.5982 H   0  0  0  0  0  0  0  0  0  0  0  0
    0.6102   -5.8647   -2.1409 H   0  0  0  0  0  0  0  0  0  0  0  0
    2.0913   -4.9628   -2.5281 H   0  0  0  0  0  0  0  0  0  0  0  0
    0.6815   -4.9054   -3.6091 H   0  0  0  0  0  0  0  0  0  0  0  0
   -1.2892   -4.5787   -1.4887 H   0  0  0  0  0  0  0  0  0  0  0  0
   -4.2890   -1.0586    0.5828 H   0  0  0  0  0  0  0  0  0  0  0  0
    6.1747    1.9816    0.6522 H   0  0  0  0  0  0  0  0  0  0  0  0
    2.2665    2.6999   -1.0653 H   0  0  0  0  0  0  0  0  0  0  0  0
   -4.8892    1.3604    2.1513 H   0  0  0  0  0  0  0  0  0  0  0  0
   -5.9511   -0.0169    1.8083 H   0  0  0  0  0  0  0  0  0  0  0  0
    6.7135    4.3682    0.3667 H   0  0  0  0  0  0  0  0  0  0  0  0
    2.8199    5.0666   -1.3110 H   0  0  0  0  0  0  0  0  0  0  0  0
    5.0416    5.9188   -0.6105 H   0  0  0  0  0  0  0  0  0  0  0  0
   -6.5477    0.0176   -1.3040 H   0  0  0  0  0  0  0  0  0  0  0  0
   -7.3657    2.3110   -2.5429 H   0  0  0  0  0  0  0  0  0  0  0  0
   -6.6250    4.3266   -0.8030 H   0  0  0  0  0  0  0  0  0  0  0  0
  1 14  1  0  0  0  0
  1 58  1  0  0  0  0
  2 21  2  0  0  0  0
  3 22  2  0  0  0  0
  4 29  1  0  0  0  0
  4 33  1  0  0  0  0
  5 10  1  0  0  0  0
  5 21  1  0  0  0  0
  5 52  1  0  0  0  0
  6 22  1  0  0  0  0
  6 26  1  0  0  0  0
  6 59  1  0  0  0  0
  7  8  1  0  0  0  0
  7 10  1  0  0  0  0
  7 12  1  0  0  0  0
  7 15  1  0  0  0  0
  8  9  1  0  0  0  0
  8 13  1  0  0  0  0
  8 34  1  0  0  0  0
  9 11  1  0  0  0  0
  9 17  1  0  0  0  0
  9 18  1  0  0  0  0
 10 11  1  0  0  0  0
 10 35  1  0  0  0  0
 11 36  1  0  0  0  0
 11 37  1  0  0  0  0
 12 16  1  0  0  0  0
 12 38  1  0  0  0  0
 12 39  1  0  0  0  0
 13 14  1  0  0  0  0
 13 40  1  0  0  0  0
 13 41  1  0  0  0  0
 14 16  1  0  0  0  0
 14 20  1  0  0  0  0
 15 19  1  0  0  0  0
 15 42  1  0  0  0  0
 15 43  1  0  0  0  0
 16 44  1  0  0  0  0
 16 45  1  0  0  0  0
 17 46  1  0  0  0  0
 17 47  1  0  0  0  0
 17 48  1  0  0  0  0
 18 49  1  0  0  0  0
 18 50  1  0  0  0  0
 18 51  1  0  0  0  0
 19 22  1  0  0  0  0
 19 53  1  0  0  0  0
 19 54  1  0  0  0  0
 20 55  1  0  0  0  0
 20 56  1  0  0  0  0
 20 57  1  0  0  0  0
 21 23  1  0  0  0  0
 23 24  2  0  0  0  0
 23 25  1  0  0  0  0
 24 27  1  0  0  0  0
 24 60  1  0  0  0  0
 25 28  2  0  0  0  0
 25 61  1  0  0  0  0
 26 29  1  0  0  0  0
 26 62  1  0  0  0  0
 26 63  1  0  0  0  0
 27 30  2  0  0  0  0
 27 64  1  0  0  0  0
 28 30  1  0  0  0  0
 28 65  1  0  0  0  0
 29 31  2  0  0  0  0
 30 66  1  0  0  0  0
 31 32  1  0  0  0  0
 31 67  1  0  0  0  0
 32 33  2  0  0  0  0
 32 68  1  0  0  0  0
 33 69  1  0  0  0  0
M  END
> <PUBCHEM_COMPOUND_CID>
25339708

> <PUBCHEM_CONFORMER_RMSD>
1

> <PUBCHEM_CONFORMER_DIVERSEORDER>
1
56
37
49
81
7
17
73
60
20
32
34
26
64
47
52
23
65
15
59
2
16
71
45
31
48
44
35
22
43
21
72
40
9
10
14
30
4
12
80
68
58
29
69
66
41
53
24
11
77
42
61
46
5
67
78
36
70
63
6
39
62
50
74
57
25
33
55
19
18
13
79
76
51
75
54
38
8
28
3
27

> <PUBCHEM_MMFF94_PARTIAL_CHARGES>
33
1 -0.68
10 0.3
14 0.28
19 0.06
2 -0.57
21 0.54
22 0.57
23 0.09
24 -0.15
25 -0.15
26 0.48
27 -0.15
28 -0.15
29 -0.04
3 -0.57
30 -0.15
31 -0.15
32 -0.15
33 -0.01
4 -0.28
5 -0.73
52 0.37
58 0.4
59 0.37
6 -0.73
60 0.15
61 0.15
64 0.15
65 0.15
66 0.15
67 0.15
68 0.15
69 0.15

> <PUBCHEM_EFFECTIVE_ROTOR_COUNT>
10.4

> <PUBCHEM_PHARMACOPHORE_FEATURES>
12
1 1 acceptor
1 1 donor
1 2 acceptor
1 3 acceptor
1 4 acceptor
1 5 donor
1 6 donor
3 9 17 18 hydrophobe
5 4 29 31 32 33 rings
5 7 8 9 10 11 rings
6 23 24 25 27 28 30 rings
6 7 8 12 13 14 16 rings

> <PUBCHEM_HEAVY_ATOM_COUNT>
33

> <PUBCHEM_ATOM_DEF_STEREO_COUNT>
4

> <PUBCHEM_ATOM_UDEF_STEREO_COUNT>
0

> <PUBCHEM_BOND_DEF_STEREO_COUNT>
0

> <PUBCHEM_BOND_UDEF_STEREO_COUNT>
0

> <PUBCHEM_ISOTOPIC_ATOM_COUNT>
0

> <PUBCHEM_COMPONENT_COUNT>
1

> <PUBCHEM_CACTVS_TAUTO_COUNT>
4

> <PUBCHEM_CONFORMER_ID>
0182A73C00000001

> <PUBCHEM_MMFF94_ENERGY>
101.1921

> <PUBCHEM_FEATURE_SELFOVERLAP>
61.017

> <PUBCHEM_SHAPE_FINGERPRINT>
10673678 19 18410575080959507505
11505856 67 17905602555478623632
12522641 68 18198625617544349564
12788726 201 17765426935320659970
13150687 139 18271816730813941300
15082195 135 18056196865589161965
15684973 49 17981309403989765546
15705408 1 17554631507715592902
16114785 44 17903922497891532610
21716022 299 15265672637871066214
23559900 14 18125731076278245343
2838139 119 18336547217364889232
3388396 114 16320908504250023092
376196 1 18335145318617438211
38695281 34 18341053003304901117
394071 54 18264781965336374161
469060 322 14709720268802413722
5109719 28 18334870437091241041
5219985 13 18337113478738550556
57527306 92 18193824960999768706
5951187 136 18191587450357075465
6677587 24 18195505057468432133

> <PUBCHEM_SHAPE_MULTIPOLES>
645.69
14.12
7.41
2.32
21.7
0.08
0.1
-27.93
-1.82
-7.44
-3.15
0.35
3.63
-0.19

> <PUBCHEM_SHAPE_SELFOVERLAP>
1371.471

> <PUBCHEM_SHAPE_VOLUME>
359.7

> <PUBCHEM_COORDINATE_TYPE>
2
5
10

$$$$
