45783329
  -OEChem-12032416363D

 57 61  0     1  0  0  0  0  0999 V2000
   -3.5206    0.7332    2.9109 S   0  0  0  0  0  0  0  0  0  0  0  0
   -3.6577   -2.0212   -0.1206 O   0  0  0  0  0  0  0  0  0  0  0  0
    5.8463    1.8872    1.1647 O   0  0  0  0  0  0  0  0  0  0  0  0
   -4.0007    1.5793   -0.7717 N   0  0  1  0  0  0  0  0  0  0  0  0
    3.0859   -0.4349   -0.3985 N   0  0  0  0  0  0  0  0  0  0  0  0
   -1.9780   -0.6058   -0.5586 N   0  0  0  0  0  0  0  0  0  0  0  0
   -2.4775   -2.7121    0.1816 N   0  0  0  0  0  0  0  0  0  0  0  0
    2.5946   -2.6191    0.3721 N   0  0  0  0  0  0  0  0  0  0  0  0
    7.3874    1.3322   -0.4511 N   0  0  0  0  0  0  0  0  0  0  0  0
   -4.3826    0.1633   -0.9427 C   0  0  1  0  0  0  0  0  0  0  0  0
   -4.7740    0.0402   -2.4269 C   0  0  0  0  0  0  0  0  0  0  0  0
   -4.6394    1.4472   -2.9917 C   0  0  0  0  0  0  0  0  0  0  0  0
   -4.7580    2.3351   -1.7695 C   0  0  0  0  0  0  0  0  0  0  0  0
    5.0725    1.5710   -1.0763 C   0  0  0  0  0  0  0  0  0  0  0  0
    5.0453    0.1995   -1.7480 C   0  0  0  0  0  0  0  0  0  0  0  0
    3.6967    1.9494   -0.5319 C   0  0  0  0  0  0  0  0  0  0  0  0
   -4.2262    2.0760    0.5795 C   0  0  0  0  0  0  0  0  0  0  0  0
    4.4027   -0.8770   -0.8737 C   0  0  0  0  0  0  0  0  0  0  0  0
    3.0503    0.8474    0.3100 C   0  0  0  0  0  0  0  0  0  0  0  0
   -3.2740   -0.7903   -0.5495 C   0  0  0  0  0  0  0  0  0  0  0  0
    2.1492   -1.4253   -0.0801 C   0  0  0  0  0  0  0  0  0  0  0  0
    6.1186    1.6112   -0.0011 C   0  0  0  0  0  0  0  0  0  0  0  0
   -3.1299    1.6553    1.5218 C   0  0  0  0  0  0  0  0  0  0  0  0
   -1.5316   -1.8118   -0.1022 C   0  0  0  0  0  0  0  0  0  0  0  0
    0.8107   -1.1117   -0.2531 C   0  0  0  0  0  0  0  0  0  0  0  0
   -0.1314   -2.0861    0.0577 C   0  0  0  0  0  0  0  0  0  0  0  0
   -1.7794    1.9131    1.4354 C   0  0  0  0  0  0  0  0  0  0  0  0
    0.2878   -3.3266    0.5253 C   0  0  0  0  0  0  0  0  0  0  0  0
    1.6496   -3.5411    0.6638 C   0  0  0  0  0  0  0  0  0  0  0  0
   -1.0559    1.3458    2.5239 C   0  0  0  0  0  0  0  0  0  0  0  0
   -1.8809    0.6764    3.4007 C   0  0  0  0  0  0  0  0  0  0  0  0
   -5.2731   -0.0744   -0.3439 H   0  0  0  0  0  0  0  0  0  0  0  0
   -4.1552   -0.6662   -2.9907 H   0  0  0  0  0  0  0  0  0  0  0  0
   -5.8174   -0.2886   -2.5068 H   0  0  0  0  0  0  0  0  0  0  0  0
   -5.4022    1.6654   -3.7448 H   0  0  0  0  0  0  0  0  0  0  0  0
   -3.6541    1.5685   -3.4588 H   0  0  0  0  0  0  0  0  0  0  0  0
   -4.3295    3.3259   -1.9495 H   0  0  0  0  0  0  0  0  0  0  0  0
   -5.8111    2.4479   -1.4820 H   0  0  0  0  0  0  0  0  0  0  0  0
    5.3654    2.3229   -1.8216 H   0  0  0  0  0  0  0  0  0  0  0  0
    4.4531    0.2878   -2.6694 H   0  0  0  0  0  0  0  0  0  0  0  0
    6.0378   -0.1393   -2.0623 H   0  0  0  0  0  0  0  0  0  0  0  0
    3.7429    2.8768    0.0516 H   0  0  0  0  0  0  0  0  0  0  0  0
    3.0378    2.1559   -1.3863 H   0  0  0  0  0  0  0  0  0  0  0  0
   -4.2052    3.1752    0.5691 H   0  0  0  0  0  0  0  0  0  0  0  0
   -5.2215    1.8016    0.9526 H   0  0  0  0  0  0  0  0  0  0  0  0
    5.0469   -1.1122   -0.0175 H   0  0  0  0  0  0  0  0  0  0  0  0
    4.3116   -1.7884   -1.4784 H   0  0  0  0  0  0  0  0  0  0  0  0
    2.0240    1.1578    0.5380 H   0  0  0  0  0  0  0  0  0  0  0  0
    3.5617    0.7394    1.2734 H   0  0  0  0  0  0  0  0  0  0  0  0
    0.5124   -0.1402   -0.6363 H   0  0  0  0  0  0  0  0  0  0  0  0
   -1.3264    2.4801    0.6320 H   0  0  0  0  0  0  0  0  0  0  0  0
    8.1744    1.3286    0.1894 H   0  0  0  0  0  0  0  0  0  0  0  0
    7.6032    1.1675   -1.4287 H   0  0  0  0  0  0  0  0  0  0  0  0
   -0.4007   -4.1243    0.7839 H   0  0  0  0  0  0  0  0  0  0  0  0
    2.0288   -4.4914    1.0248 H   0  0  0  0  0  0  0  0  0  0  0  0
    0.0155    1.4230    2.6556 H   0  0  0  0  0  0  0  0  0  0  0  0
   -1.5988    0.1556    4.3048 H   0  0  0  0  0  0  0  0  0  0  0  0
  1 23  1  0  0  0  0
  1 31  1  0  0  0  0
  2  7  1  0  0  0  0
  2 20  1  0  0  0  0
  3 22  2  0  0  0  0
  4 10  1  0  0  0  0
  4 13  1  0  0  0  0
  4 17  1  0  0  0  0
  5 18  1  0  0  0  0
  5 19  1  0  0  0  0
  5 21  1  0  0  0  0
  6 20  2  0  0  0  0
  6 24  1  0  0  0  0
  7 24  2  0  0  0  0
  8 21  2  0  0  0  0
  8 29  1  0  0  0  0
  9 22  1  0  0  0  0
  9 52  1  0  0  0  0
  9 53  1  0  0  0  0
 10 11  1  0  0  0  0
 10 20  1  0  0  0  0
 10 32  1  0  0  0  0
 11 12  1  0  0  0  0
 11 33  1  0  0  0  0
 11 34  1  0  0  0  0
 12 13  1  0  0  0  0
 12 35  1  0  0  0  0
 12 36  1  0  0  0  0
 13 37  1  0  0  0  0
 13 38  1  0  0  0  0
 14 15  1  0  0  0  0
 14 16  1  0  0  0  0
 14 22  1  0  0  0  0
 14 39  1  0  0  0  0
 15 18  1  0  0  0  0
 15 40  1  0  0  0  0
 15 41  1  0  0  0  0
 16 19  1  0  0  0  0
 16 42  1  0  0  0  0
 16 43  1  0  0  0  0
 17 23  1  0  0  0  0
 17 44  1  0  0  0  0
 17 45  1  0  0  0  0
 18 46  1  0  0  0  0
 18 47  1  0  0  0  0
 19 48  1  0  0  0  0
 19 49  1  0  0  0  0
 21 25  1  0  0  0  0
 23 27  2  0  0  0  0
 24 26  1  0  0  0  0
 25 26  2  0  0  0  0
 25 50  1  0  0  0  0
 26 28  1  0  0  0  0
 27 30  1  0  0  0  0
 27 51  1  0  0  0  0
 28 29  2  0  0  0  0
 28 54  1  0  0  0  0
 29 55  1  0  0  0  0
 30 31  2  0  0  0  0
 30 56  1  0  0  0  0
 31 57  1  0  0  0  0
M  END
> <PUBCHEM_COMPOUND_CID>
45783329

> <PUBCHEM_CONFORMER_RMSD>
1.2

> <PUBCHEM_CONFORMER_DIVERSEORDER>
1
100
73
60
81
47
46
78
75
45
55
30
70
12
42
28
86
14
101
72
82
102
4
88
77
89
22
54
7
5
59
97
49
43
17
98
93
90
69
53
66
68
11
32
31
38
99
80
94
25
67
9
29
79
21
58
41
71
23
96
18
87
13
27
26
64
84
37
34
105
56
95
83
3
16
44
39
52
74
76
106
85
63
57
51
92
36
6
61
65
104
15
62
8
107
48
10
19
2
33
35
20
103
24
50
40
91

> <PUBCHEM_MMFF94_PARTIAL_CHARGES>
35
1 -0.08
10 0.45
13 0.27
14 0.06
17 0.45
18 0.37
19 0.37
2 -0.02
20 0.3
21 0.41
22 0.57
23 -0.14
24 0.46
25 -0.15
26 0.05
27 -0.15
28 -0.15
29 0.16
3 -0.57
30 -0.15
31 -0.11
4 -0.81
5 -0.84
50 0.15
51 0.15
52 0.37
53 0.37
54 0.15
55 0.15
56 0.15
57 0.15
6 -0.57
7 -0.41
8 -0.62
9 -0.8

> <PUBCHEM_EFFECTIVE_ROTOR_COUNT>
8.2

> <PUBCHEM_PHARMACOPHORE_FEATURES>
10
1 3 acceptor
1 4 cation
1 9 donor
3 5 8 21 cation
3 6 7 24 cation
5 1 23 27 30 31 rings
5 2 6 7 20 24 rings
5 4 10 11 12 13 rings
6 5 14 15 16 18 19 rings
6 8 21 25 26 28 29 rings

> <PUBCHEM_HEAVY_ATOM_COUNT>
31

> <PUBCHEM_ATOM_DEF_STEREO_COUNT>
1

> <PUBCHEM_ATOM_UDEF_STEREO_COUNT>
0

> <PUBCHEM_BOND_DEF_STEREO_COUNT>
0

> <PUBCHEM_BOND_UDEF_STEREO_COUNT>
0

> <PUBCHEM_ISOTOPIC_ATOM_COUNT>
0

> <PUBCHEM_COMPONENT_COUNT>
1

> <PUBCHEM_CACTVS_TAUTO_COUNT>
2

> <PUBCHEM_CONFORMER_ID>
02BA992100000001

> <PUBCHEM_MMFF94_ENERGY>
67.456

> <PUBCHEM_FEATURE_SELFOVERLAP>
50.748

> <PUBCHEM_SHAPE_FINGERPRINT>
11477941 20 16487254387283367584
11479125 193 17975129838967065093
11582403 64 17023728023783049667
12422481 6 17167853141744296902
12788726 201 17345476977495417497
14114206 34 17775283824950627145
14468879 13 17748827376262800437
14848178 96 18335134272045890446
14931854 50 18202273702340903269
14950920 106 14779553425930567748
15274700 147 15661153136562673420
15513586 35 16517683448738603589
16067690 210 17131568136793863360
16994733 274 17677322798626548349
20775438 99 15978293878254243663
21033648 144 18408603634566032287
21033650 10 16200156452120715675
21049683 271 18050285066824721847
22440779 20 13470693667703896915
22907989 373 17704073954546369579
23559900 14 18194951959738197794
3459 83 17986128318308914310
3610482 184 17130731425434778712
394222 165 18041827424902666275
4112364 45 16083875311462109365
469060 322 18042987534719321707
5104073 3 17822007584167778059
6034566 193 17970089909144181108
6299153 45 18337106775312466546
6523845 18 17974044771028579246
9981440 41 17894628171240591027

> <PUBCHEM_SHAPE_MULTIPOLES>
600.19
14.17
3.56
2.66
17.89
2.67
-0.96
-10.96
6.66
0.79
-0.54
-4.65
-1.72
-0.14

> <PUBCHEM_SHAPE_SELFOVERLAP>
1288.533

> <PUBCHEM_SHAPE_VOLUME>
334.6

> <PUBCHEM_COORDINATE_TYPE>
2
5
10

$$$$
