56775508
  -OEChem-12032416323D

 50 52  0     0  0  0  0  0  0999 V2000
    0.5926   -3.5801    0.3618 O   0  0  0  0  0  0  0  0  0  0  0  0
   -2.6493    1.5516   -0.1602 O   0  0  0  0  0  0  0  0  0  0  0  0
   -5.6763   -0.4123    0.5112 O   0  0  0  0  0  0  0  0  0  0  0  0
    1.1924   -0.5258    0.3807 N   0  0  0  0  0  0  0  0  0  0  0  0
   -1.4267    1.1166   -0.6573 N   0  0  0  0  0  0  0  0  0  0  0  0
    0.4083   -1.5605   -0.3040 C   0  0  0  0  0  0  0  0  0  0  0  0
    3.2340    0.8079    0.0869 C   0  0  0  0  0  0  0  0  0  0  0  0
    2.0165    0.1795   -0.5885 C   0  0  0  0  0  0  0  0  0  0  0  0
   -0.2385   -2.4601    0.7429 C   0  0  0  0  0  0  0  0  0  0  0  0
    1.3119   -2.7562   -0.5839 C   0  0  0  0  0  0  0  0  0  0  0  0
    4.0420    1.6399   -0.9180 C   0  0  0  0  0  0  0  0  0  0  0  0
    4.1124   -0.2715    0.7338 C   0  0  0  0  0  0  0  0  0  0  0  0
   -0.4358   -1.0139   -1.4143 C   0  0  0  0  0  0  0  0  0  0  0  0
    5.2943    2.2355   -0.2789 C   0  0  0  0  0  0  0  0  0  0  0  0
    5.3645    0.3274    1.3703 C   0  0  0  0  0  0  0  0  0  0  0  0
    6.1604    1.1607    0.3707 C   0  0  0  0  0  0  0  0  0  0  0  0
   -1.5842   -0.1939   -0.8638 C   0  0  0  0  0  0  0  0  0  0  0  0
   -2.8724   -0.6377   -0.5186 C   0  0  0  0  0  0  0  0  0  0  0  0
   -3.5018    0.4980   -0.0821 C   0  0  0  0  0  0  0  0  0  0  0  0
   -4.8491    0.7815    0.4267 C   0  0  0  0  0  0  0  0  0  0  0  0
   -5.6519    1.7532   -0.4868 C   0  0  0  0  0  0  0  0  0  0  0  0
   -4.8434    1.3604    1.8716 C   0  0  0  0  0  0  0  0  0  0  0  0
    2.8840    1.4861    0.8784 H   0  0  0  0  0  0  0  0  0  0  0  0
    1.4344    0.9777   -1.0644 H   0  0  0  0  0  0  0  0  0  0  0  0
    2.3766   -0.4779   -1.3908 H   0  0  0  0  0  0  0  0  0  0  0  0
   -1.2919   -2.7131    0.5949 H   0  0  0  0  0  0  0  0  0  0  0  0
   -0.0880   -2.1994    1.7964 H   0  0  0  0  0  0  0  0  0  0  0  0
    2.3689   -2.6858   -0.3068 H   0  0  0  0  0  0  0  0  0  0  0  0
    1.2428   -3.1734   -1.5941 H   0  0  0  0  0  0  0  0  0  0  0  0
    0.6455    0.1428    0.9217 H   0  0  0  0  0  0  0  0  0  0  0  0
    3.4214    2.4506   -1.3181 H   0  0  0  0  0  0  0  0  0  0  0  0
    4.3361    1.0145   -1.7707 H   0  0  0  0  0  0  0  0  0  0  0  0
    4.4127   -1.0108   -0.0199 H   0  0  0  0  0  0  0  0  0  0  0  0
    3.5584   -0.8138    1.5087 H   0  0  0  0  0  0  0  0  0  0  0  0
   -0.8807   -1.8449   -1.9803 H   0  0  0  0  0  0  0  0  0  0  0  0
    0.1188   -0.4396   -2.1643 H   0  0  0  0  0  0  0  0  0  0  0  0
    5.0017    2.9747    0.4769 H   0  0  0  0  0  0  0  0  0  0  0  0
    5.8771    2.7690   -1.0382 H   0  0  0  0  0  0  0  0  0  0  0  0
    5.9967   -0.4756    1.7658 H   0  0  0  0  0  0  0  0  0  0  0  0
    5.0760    0.9558    2.2219 H   0  0  0  0  0  0  0  0  0  0  0  0
    7.0124    1.6290    0.8762 H   0  0  0  0  0  0  0  0  0  0  0  0
    6.5710    0.5042   -0.4064 H   0  0  0  0  0  0  0  0  0  0  0  0
   -3.2842   -1.6341   -0.5813 H   0  0  0  0  0  0  0  0  0  0  0  0
   -6.6648    1.9169   -0.1019 H   0  0  0  0  0  0  0  0  0  0  0  0
   -5.7594    1.3298   -1.4925 H   0  0  0  0  0  0  0  0  0  0  0  0
   -5.1508    2.7230   -0.5762 H   0  0  0  0  0  0  0  0  0  0  0  0
   -5.8627    1.5233    2.2397 H   0  0  0  0  0  0  0  0  0  0  0  0
   -4.2985    2.3092    1.9205 H   0  0  0  0  0  0  0  0  0  0  0  0
   -4.3658    0.6557    2.5627 H   0  0  0  0  0  0  0  0  0  0  0  0
   -6.5493   -0.1540    0.8530 H   0  0  0  0  0  0  0  0  0  0  0  0
  1  9  1  0  0  0  0
  1 10  1  0  0  0  0
  2  5  1  0  0  0  0
  2 19  1  0  0  0  0
  3 20  1  0  0  0  0
  3 50  1  0  0  0  0
  4  6  1  0  0  0  0
  4  8  1  0  0  0  0
  4 30  1  0  0  0  0
  5 17  2  0  0  0  0
  6  9  1  0  0  0  0
  6 10  1  0  0  0  0
  6 13  1  0  0  0  0
  7  8  1  0  0  0  0
  7 11  1  0  0  0  0
  7 12  1  0  0  0  0
  7 23  1  0  0  0  0
  8 24  1  0  0  0  0
  8 25  1  0  0  0  0
  9 26  1  0  0  0  0
  9 27  1  0  0  0  0
 10 28  1  0  0  0  0
 10 29  1  0  0  0  0
 11 14  1  0  0  0  0
 11 31  1  0  0  0  0
 11 32  1  0  0  0  0
 12 15  1  0  0  0  0
 12 33  1  0  0  0  0
 12 34  1  0  0  0  0
 13 17  1  0  0  0  0
 13 35  1  0  0  0  0
 13 36  1  0  0  0  0
 14 16  1  0  0  0  0
 14 37  1  0  0  0  0
 14 38  1  0  0  0  0
 15 16  1  0  0  0  0
 15 39  1  0  0  0  0
 15 40  1  0  0  0  0
 16 41  1  0  0  0  0
 16 42  1  0  0  0  0
 17 18  1  0  0  0  0
 18 19  2  0  0  0  0
 18 43  1  0  0  0  0
 19 20  1  0  0  0  0
 20 21  1  0  0  0  0
 20 22  1  0  0  0  0
 21 44  1  0  0  0  0
 21 45  1  0  0  0  0
 21 46  1  0  0  0  0
 22 47  1  0  0  0  0
 22 48  1  0  0  0  0
 22 49  1  0  0  0  0
M  END
> <PUBCHEM_COMPOUND_CID>
56775508

> <PUBCHEM_CONFORMER_RMSD>
1

> <PUBCHEM_CONFORMER_DIVERSEORDER>
1
89
27
76
97
36
44
107
104
22
88
116
101
16
117
69
74
78
42
105
112
85
58
120
32
38
47
110
56
39
93
50
108
114
100
90
6
23
72
99
52
34
25
11
92
63
113
13
40
33
4
31
115
19
119
57
77
60
71
103
24
83
15
106
30
87
17
46
123
73
54
28
98
26
68
81
9
43
118
84
62
3
21
67
55
95
121
14
29
79
61
7
94
111
102
12
96
59
53
75
48
65
82
8
109
66
45
20
10
51
122
5
37
80
70
2
64
18
86
49
41
35
91

> <PUBCHEM_MMFF94_PARTIAL_CHARGES>
17
1 -0.52
10 0.26
13 0.18
17 0.11
18 -0.15
19 -0.04
2 -0.02
20 0.46
3 -0.68
30 0.36
4 -0.84
43 0.15
5 -0.41
50 0.4
6 0.21
8 0.27
9 0.26

> <PUBCHEM_EFFECTIVE_ROTOR_COUNT>
8

> <PUBCHEM_PHARMACOPHORE_FEATURES>
10
1 1 acceptor
1 3 acceptor
1 3 donor
1 4 cation
1 4 donor
1 5 acceptor
3 20 21 22 hydrophobe
4 1 6 9 10 rings
5 2 5 17 18 19 rings
6 7 11 12 14 15 16 rings

> <PUBCHEM_HEAVY_ATOM_COUNT>
22

> <PUBCHEM_ATOM_DEF_STEREO_COUNT>
0

> <PUBCHEM_ATOM_UDEF_STEREO_COUNT>
0

> <PUBCHEM_BOND_DEF_STEREO_COUNT>
0

> <PUBCHEM_BOND_UDEF_STEREO_COUNT>
0

> <PUBCHEM_ISOTOPIC_ATOM_COUNT>
0

> <PUBCHEM_COMPONENT_COUNT>
1

> <PUBCHEM_CACTVS_TAUTO_COUNT>
1

> <PUBCHEM_CONFORMER_ID>
0362535400000001

> <PUBCHEM_MMFF94_ENERGY>
36.7667

> <PUBCHEM_FEATURE_SELFOVERLAP>
50.746

> <PUBCHEM_SHAPE_FINGERPRINT>
10493431 412 18410013268670811725
10692045 39 18341887447448670090
10753850 27 9151175346069673732
11265709 11 8502376645685191975
11823591 26 18341038679541151892
12390115 104 18341625861668596958
12516196 113 8935000373859912564
12596602 18 17530682125823272656
12788726 201 17760660560682367742
12892183 10 16660913397126045220
12895836 83 16415473869932629949
13004483 165 9007065630093018846
13583140 156 16226308383473848766
13631057 29 18200304559348071743
13785724 45 17904475200370068314
14251752 14 11455905641237067771
14251764 30 13479402839509829624
14341114 328 18412545418285257869
14347332 77 9366534511834786104
14787075 74 18412261766182134315
14790565 3 18411142467097401828
15183329 4 12103572961267852321
15188451 53 15068911909977014457
15238133 3 18270956951681973496
15295992 7 18200025291393246384
17349148 13 12252191744739382329
1813 80 10737283515809017242
18222031 100 11314026872786576794
18785283 64 18262797355301061930
19784866 170 18335143076971446581
19784866 240 11169918251779039677
19784866 9 18341608175045935402
200 152 11383843696755860990
20374829 77 8862949367948369293
204376 136 18408323297839998607
20567600 254 18410569582820671925
21236236 1 18338515373570836075
21452121 103 18263642875041074751
21524375 3 18412536630903775678
21637258 2 12468635057894452040
21756936 100 18340762762616112694
221357 26 10952047828086233883
22224240 67 18409166640918264051
23198884 109 15985109612937059745
23559900 14 17974849476296310375
25147074 1 18129358471958787807
2838139 119 17346593071596264408
2916195 48 17917422176976596984
312425 54 16008745775803125729
314194 84 8790879705163440788
3411729 13 18340770330021583471
351380 3 10737286839881874705
3680242 22 18410858737673934504
392239 28 18267317589415287427
4340502 62 18335426742518829611
474 4 18411419488208233594
474229 33 18335138730359210191
5104073 3 18189907418323107577
5385378 56 18341896243293622866
59682541 35 18339367478519269795
59682541 52 16199879358253266460
59755656 520 18412541037498114454
633830 44 18342738507469992574
7164475 11 10519169035295093784
77188 2 17474106497350045742
7970288 3 8718830881486239096
960060 61 11024103261565545258

> <PUBCHEM_SHAPE_MULTIPOLES>
425.18
14.02
2.79
1.2
0.44
2.3
-0.24
-11.7
-3.77
0.82
-0.04
-0.27
-0.13
-0.64

> <PUBCHEM_SHAPE_SELFOVERLAP>
877.89

> <PUBCHEM_SHAPE_VOLUME>
246.3

> <PUBCHEM_COORDINATE_TYPE>
2
5
10

$$$$
