11866256
  -OEChem-12032416133D

 56 60  0     1  0  0  0  0  0999 V2000
   -5.4278   -1.7481    0.3319 Cl  0  0  0  0  0  0  0  0  0  0  0  0
   -2.6869    2.7027   -1.2967 Cl  0  0  0  0  0  0  0  0  0  0  0  0
   -1.6459   -1.9259    1.8622 S   0  0  0  0  0  0  0  0  0  0  0  0
   -4.3390    1.1866    0.9834 S   0  0  0  0  0  0  0  0  0  0  0  0
    3.9875    1.6308    0.0404 O   0  0  0  0  0  0  0  0  0  0  0  0
    5.9772    2.7414   -0.2715 O   0  0  0  0  0  0  0  0  0  0  0  0
   -3.6137    2.4422    1.0102 O   0  0  0  0  0  0  0  0  0  0  0  0
   -5.7746    1.1619    1.1922 O   0  0  0  0  0  0  0  0  0  0  0  0
   -1.3457    0.5643    1.2308 N   0  0  0  0  0  0  0  0  0  0  0  0
   -3.5740    0.0633    2.0438 N   0  0  0  0  0  0  0  0  0  0  0  0
    2.3357   -0.2144    0.5082 C   0  0  1  0  0  0  0  0  0  0  0  0
    2.0581   -1.7221    0.0849 C   0  0  1  0  0  0  0  0  0  0  0  0
    3.5176    0.3296   -0.3129 C   0  0  2  0  0  0  0  0  0  0  0  0
    4.7528   -0.5195   -0.0822 C   0  0  1  0  0  0  0  0  0  0  0  0
    3.3693   -2.5639    0.1555 C   0  0  0  0  0  0  0  0  0  0  0  0
    4.5567   -1.9347   -0.5868 C   0  0  0  0  0  0  0  0  0  0  0  0
    1.0460    0.6805    0.4430 C   0  0  1  0  0  0  0  0  0  0  0  0
    1.0247   -2.3467    1.0726 C   0  0  0  0  0  0  0  0  0  0  0  0
    5.8124    0.3452   -0.7382 C   0  0  1  0  0  0  0  0  0  0  0  0
    1.4960   -1.8320   -1.3578 C   0  0  0  0  0  0  0  0  0  0  0  0
   -0.1382   -0.0703    1.0011 C   0  0  0  0  0  0  0  0  0  0  0  0
   -0.1310   -1.4256    1.2668 C   0  0  0  0  0  0  0  0  0  0  0  0
    5.3187    1.7138   -0.3066 C   0  0  0  0  0  0  0  0  0  0  0  0
    1.2221    2.0171    1.1762 C   0  0  0  0  0  0  0  0  0  0  0  0
    7.2166    0.0491   -0.2473 C   0  0  0  0  0  0  0  0  0  0  0  0
   -2.2093   -0.3127    1.6944 C   0  0  0  0  0  0  0  0  0  0  0  0
   -4.0371    0.4269   -0.5859 C   0  0  0  0  0  0  0  0  0  0  0  0
   -4.5241   -0.8509   -0.8367 C   0  0  0  0  0  0  0  0  0  0  0  0
   -3.3157    1.1138   -1.5558 C   0  0  0  0  0  0  0  0  0  0  0  0
   -4.2866   -1.4499   -2.0739 C   0  0  0  0  0  0  0  0  0  0  0  0
   -3.0781    0.5146   -2.7929 C   0  0  0  0  0  0  0  0  0  0  0  0
   -3.5637   -0.7671   -3.0519 C   0  0  0  0  0  0  0  0  0  0  0  0
    2.6486   -0.2259    1.5645 H   0  0  0  0  0  0  0  0  0  0  0  0
    3.2384    0.3744   -1.3735 H   0  0  0  0  0  0  0  0  0  0  0  0
    4.9653   -0.5621    0.9981 H   0  0  0  0  0  0  0  0  0  0  0  0
    3.1940   -3.5737   -0.2363 H   0  0  0  0  0  0  0  0  0  0  0  0
    3.6579   -2.6913    1.2077 H   0  0  0  0  0  0  0  0  0  0  0  0
    5.4574   -2.5315   -0.4045 H   0  0  0  0  0  0  0  0  0  0  0  0
    4.3842   -1.9447   -1.6687 H   0  0  0  0  0  0  0  0  0  0  0  0
    0.8220    0.9029   -0.6086 H   0  0  0  0  0  0  0  0  0  0  0  0
    1.4949   -2.5126    2.0507 H   0  0  0  0  0  0  0  0  0  0  0  0
    0.6898   -3.3246    0.7050 H   0  0  0  0  0  0  0  0  0  0  0  0
    5.7619    0.2882   -1.8317 H   0  0  0  0  0  0  0  0  0  0  0  0
    1.3178   -2.8810   -1.6228 H   0  0  0  0  0  0  0  0  0  0  0  0
    0.5429   -1.3086   -1.4793 H   0  0  0  0  0  0  0  0  0  0  0  0
    2.1828   -1.4264   -2.1055 H   0  0  0  0  0  0  0  0  0  0  0  0
    1.9497    2.6616    0.6789 H   0  0  0  0  0  0  0  0  0  0  0  0
    0.2831    2.5818    1.2053 H   0  0  0  0  0  0  0  0  0  0  0  0
    1.5445    1.8632    2.2118 H   0  0  0  0  0  0  0  0  0  0  0  0
    7.5101   -0.9765   -0.4920 H   0  0  0  0  0  0  0  0  0  0  0  0
    7.9380    0.7287   -0.7136 H   0  0  0  0  0  0  0  0  0  0  0  0
    7.3011    0.1818    0.8370 H   0  0  0  0  0  0  0  0  0  0  0  0
   -4.1471   -0.6970    2.4300 H   0  0  0  0  0  0  0  0  0  0  0  0
   -4.6571   -2.4482   -2.2928 H   0  0  0  0  0  0  0  0  0  0  0  0
   -2.5158    1.0316   -3.5664 H   0  0  0  0  0  0  0  0  0  0  0  0
   -3.3783   -1.2337   -4.0150 H   0  0  0  0  0  0  0  0  0  0  0  0
  1 28  1  0  0  0  0
  2 29  1  0  0  0  0
  3 22  1  0  0  0  0
  3 26  1  0  0  0  0
  4  7  2  0  0  0  0
  4  8  2  0  0  0  0
  4 10  1  0  0  0  0
  4 27  1  0  0  0  0
  5 13  1  0  0  0  0
  5 23  1  0  0  0  0
  6 23  2  0  0  0  0
  9 21  1  0  0  0  0
  9 26  2  0  0  0  0
 10 26  1  0  0  0  0
 10 53  1  0  0  0  0
 11 12  1  0  0  0  0
 11 13  1  0  0  0  0
 11 17  1  0  0  0  0
 11 33  1  0  0  0  0
 12 15  1  0  0  0  0
 12 18  1  0  0  0  0
 12 20  1  0  0  0  0
 13 14  1  0  0  0  0
 13 34  1  0  0  0  0
 14 16  1  0  0  0  0
 14 19  1  0  0  0  0
 14 35  1  0  0  0  0
 15 16  1  0  0  0  0
 15 36  1  0  0  0  0
 15 37  1  0  0  0  0
 16 38  1  0  0  0  0
 16 39  1  0  0  0  0
 17 21  1  0  0  0  0
 17 24  1  0  0  0  0
 17 40  1  0  0  0  0
 18 22  1  0  0  0  0
 18 41  1  0  0  0  0
 18 42  1  0  0  0  0
 19 23  1  0  0  0  0
 19 25  1  0  0  0  0
 19 43  1  0  0  0  0
 20 44  1  0  0  0  0
 20 45  1  0  0  0  0
 20 46  1  0  0  0  0
 21 22  2  0  0  0  0
 24 47  1  0  0  0  0
 24 48  1  0  0  0  0
 24 49  1  0  0  0  0
 25 50  1  0  0  0  0
 25 51  1  0  0  0  0
 25 52  1  0  0  0  0
 27 28  2  0  0  0  0
 27 29  1  0  0  0  0
 28 30  1  0  0  0  0
 29 31  2  0  0  0  0
 30 32  2  0  0  0  0
 30 54  1  0  0  0  0
 31 32  1  0  0  0  0
 31 55  1  0  0  0  0
 32 56  1  0  0  0  0
M  END
> <PUBCHEM_COMPOUND_CID>
11866256

> <PUBCHEM_CONFORMER_RMSD>
0.8

> <PUBCHEM_CONFORMER_DIVERSEORDER>
1
23
14
33
27
13
20
2
24
19
9
32
6
15
26
34
10
18
11
7
5
17
22
25
31
12
3
16
4
29
28
21
8
30

> <PUBCHEM_MMFF94_PARTIAL_CHARGES>
28
1 -0.18
10 -0.7
13 0.28
17 0.18
18 0.18
19 0.06
2 -0.18
21 0.05
22 -0.14
23 0.66
26 0.52
27 -0.01
28 0.18
29 0.18
3 -0.08
30 -0.15
31 -0.15
32 -0.15
4 1.45
5 -0.43
53 0.42
54 0.15
55 0.15
56 0.15
6 -0.57
7 -0.65
8 -0.65
9 -0.57

> <PUBCHEM_EFFECTIVE_ROTOR_COUNT>
4.2

> <PUBCHEM_PHARMACOPHORE_FEATURES>
10
1 10 donor
1 6 acceptor
1 7 acceptor
1 8 acceptor
1 9 acceptor
5 3 9 21 22 26 rings
5 5 13 14 19 23 rings
6 11 12 13 14 15 16 rings
6 11 12 17 18 21 22 rings
6 27 28 29 30 31 32 rings

> <PUBCHEM_HEAVY_ATOM_COUNT>
32

> <PUBCHEM_ATOM_DEF_STEREO_COUNT>
6

> <PUBCHEM_ATOM_UDEF_STEREO_COUNT>
0

> <PUBCHEM_BOND_DEF_STEREO_COUNT>
0

> <PUBCHEM_BOND_UDEF_STEREO_COUNT>
0

> <PUBCHEM_ISOTOPIC_ATOM_COUNT>
0

> <PUBCHEM_COMPONENT_COUNT>
1

> <PUBCHEM_CACTVS_TAUTO_COUNT>
4

> <PUBCHEM_CONFORMER_ID>
00B5109000000001

> <PUBCHEM_MMFF94_ENERGY>
78.9922

> <PUBCHEM_FEATURE_SELFOVERLAP>
50.928

> <PUBCHEM_SHAPE_FINGERPRINT>
10554248 39 18408895036425253110
10928967 22 15840969170458961255
11135609 12 15410343263849418085
11796584 16 15410891855727129942
12128747 34 16371276728670576258
12403259 415 17676491588144350495
12616971 3 18270396084064828562
12633257 1 9078838540634370277
12788726 201 17203055067016139163
12969540 114 18334010610144108226
13103583 49 11241967057965921646
13224815 77 18041553646902189171
13402501 40 18040720276849066713
13583140 156 15285358431198541921
13782708 43 17314226662348394082
14114206 34 16486679282793790641
14251757 5 17059767939781819143
14466204 15 13406788917735681846
14856354 85 17418093260630873543
14932701 244 18334576850168987951
15183329 4 18113333111885368066
15537594 2 16415482644783301263
17349148 13 18410007706967615090
20511986 3 17917422069343828314
20775530 9 17199358706925250935
21033648 144 18260268564208167854
21033648 29 16950563246604206871
22393880 68 17489862748009345096
23559900 14 18263935358736935962
2838139 119 18408886235525670416
341906 21 15357977837102503702
4015057 19 18411701032374186320
44317340 157 17703793643437055928
460360 51 15720226180578915913
469060 322 16515692169515566555
484985 159 14405187287895893399
497634 4 18411983559833914943
508706 21 17095242492988280253
5326457 24 16773244994046245350
574716 61 18201715137332410325
6086070 43 17459172114788242464
633830 44 18264210222909145179
9849439 229 14854386007355566461
9981440 41 14635140193437660753

> <PUBCHEM_SHAPE_MULTIPOLES>
636.54
14.73
2.79
2.21
12.83
0.36
-1.1
3.76
-3.19
0.85
0.21
-3.83
-0.14
0.13

> <PUBCHEM_SHAPE_SELFOVERLAP>
1345.834

> <PUBCHEM_SHAPE_VOLUME>
360.9

> <PUBCHEM_COORDINATE_TYPE>
2
5
10

$$$$
