45360769
  -OEChem-12032416333D

 72 75  0     1  0  0  0  0  0999 V2000
    0.9054    5.3587    0.0354 O   0  0  0  0  0  0  0  0  0  0  0  0
   -4.7647   -0.4285   -1.5907 O   0  0  0  0  0  0  0  0  0  0  0  0
   -5.3016   -3.1653   -1.7436 O   0  0  0  0  0  0  0  0  0  0  0  0
   -1.0380    2.2746    0.2217 N   0  0  1  0  0  0  0  0  0  0  0  0
   -0.7745    4.6143   -1.3047 N   0  0  0  0  0  0  0  0  0  0  0  0
    2.1584    0.5668    0.1808 N   0  0  0  0  0  0  0  0  0  0  0  0
   -5.0836   -1.1329    0.5903 N   0  0  0  0  0  0  0  0  0  0  0  0
    7.8365   -2.2857   -0.5227 N   0  0  0  0  0  0  0  0  0  0  0  0
   -0.1858    3.3452    0.7544 C   0  0  1  0  0  0  0  0  0  0  0  0
   -2.1774    2.7457   -0.5578 C   0  0  1  0  0  0  0  0  0  0  0  0
    0.9389    1.1950    0.6626 C   0  0  1  0  0  0  0  0  0  0  0  0
    1.1419    2.6485    1.0916 C   0  0  0  0  0  0  0  0  0  0  0  0
   -0.1550    1.2858   -0.3926 C   0  0  0  0  0  0  0  0  0  0  0  0
   -1.7161    3.6031   -1.7260 C   0  0  0  0  0  0  0  0  0  0  0  0
   -3.0809    1.6079   -1.0349 C   0  0  0  0  0  0  0  0  0  0  0  0
    0.0451    4.5071   -0.2074 C   0  0  0  0  0  0  0  0  0  0  0  0
   -3.6181    0.7705    0.1164 C   0  0  0  0  0  0  0  0  0  0  0  0
   -6.0715   -2.1708    0.2875 C   0  0  2  0  0  0  0  0  0  0  0  0
   -4.5400   -0.3125   -0.3849 C   0  0  0  0  0  0  0  0  0  0  0  0
   -6.6907   -2.4922    1.6500 C   0  0  0  0  0  0  0  0  0  0  0  0
    3.0029    0.1435    1.2907 C   0  0  0  0  0  0  0  0  0  0  0  0
   -4.8456   -1.0322    2.0280 C   0  0  0  0  0  0  0  0  0  0  0  0
   -5.5462   -2.2429    2.6253 C   0  0  0  0  0  0  0  0  0  0  0  0
   -5.4176   -3.3942   -0.3518 C   0  0  0  0  0  0  0  0  0  0  0  0
    4.2784   -0.4975    0.8122 C   0  0  0  0  0  0  0  0  0  0  0  0
    4.2613   -1.8029    0.3209 C   0  0  0  0  0  0  0  0  0  0  0  0
    5.4772    0.2141    0.8599 C   0  0  0  0  0  0  0  0  0  0  0  0
    5.4429   -2.3968   -0.1225 C   0  0  0  0  0  0  0  0  0  0  0  0
    6.6589   -0.3797    0.4167 C   0  0  0  0  0  0  0  0  0  0  0  0
   -4.6978   -4.2680   -2.4112 C   0  0  0  0  0  0  0  0  0  0  0  0
    6.6417   -1.6852   -0.0745 C   0  0  0  0  0  0  0  0  0  0  0  0
    7.8294   -3.6415   -1.0348 C   0  0  0  0  0  0  0  0  0  0  0  0
    9.0861   -1.5521   -0.4843 C   0  0  0  0  0  0  0  0  0  0  0  0
   -0.6433    3.7617    1.6595 H   0  0  0  0  0  0  0  0  0  0  0  0
   -2.7812    3.3804    0.1067 H   0  0  0  0  0  0  0  0  0  0  0  0
    0.5296    0.6232    1.5094 H   0  0  0  0  0  0  0  0  0  0  0  0
    1.3589    2.7019    2.1647 H   0  0  0  0  0  0  0  0  0  0  0  0
    1.9877    3.1003    0.5589 H   0  0  0  0  0  0  0  0  0  0  0  0
    0.2487    1.6279   -1.3532 H   0  0  0  0  0  0  0  0  0  0  0  0
   -0.6352    0.3132   -0.5385 H   0  0  0  0  0  0  0  0  0  0  0  0
   -1.2265    3.0109   -2.5068 H   0  0  0  0  0  0  0  0  0  0  0  0
   -2.5633    4.1218   -2.1877 H   0  0  0  0  0  0  0  0  0  0  0  0
   -3.9255    2.0418   -1.5877 H   0  0  0  0  0  0  0  0  0  0  0  0
   -2.5525    0.9685   -1.7542 H   0  0  0  0  0  0  0  0  0  0  0  0
   -0.6249    5.4036   -1.9258 H   0  0  0  0  0  0  0  0  0  0  0  0
    1.9126   -0.2500   -0.3792 H   0  0  0  0  0  0  0  0  0  0  0  0
   -4.1725    1.4091    0.8131 H   0  0  0  0  0  0  0  0  0  0  0  0
   -2.7964    0.2935    0.6596 H   0  0  0  0  0  0  0  0  0  0  0  0
   -6.8230   -1.7520   -0.3928 H   0  0  0  0  0  0  0  0  0  0  0  0
   -7.1011   -3.5032    1.7254 H   0  0  0  0  0  0  0  0  0  0  0  0
   -7.5023   -1.7842    1.8609 H   0  0  0  0  0  0  0  0  0  0  0  0
   -5.2959   -0.0978    2.3799 H   0  0  0  0  0  0  0  0  0  0  0  0
   -3.7749   -1.0190    2.2487 H   0  0  0  0  0  0  0  0  0  0  0  0
    2.4747   -0.5770    1.9294 H   0  0  0  0  0  0  0  0  0  0  0  0
    3.2511    0.9987    1.9318 H   0  0  0  0  0  0  0  0  0  0  0  0
   -4.8687   -3.1051    2.6329 H   0  0  0  0  0  0  0  0  0  0  0  0
   -5.8874   -2.0681    3.6493 H   0  0  0  0  0  0  0  0  0  0  0  0
   -6.0505   -4.2771   -0.2036 H   0  0  0  0  0  0  0  0  0  0  0  0
   -4.4296   -3.5928    0.0809 H   0  0  0  0  0  0  0  0  0  0  0  0
    3.3333   -2.3673    0.2799 H   0  0  0  0  0  0  0  0  0  0  0  0
    5.5044    1.2326    1.2382 H   0  0  0  0  0  0  0  0  0  0  0  0
    5.3772   -3.4141   -0.4955 H   0  0  0  0  0  0  0  0  0  0  0  0
    7.5650    0.2153    0.4740 H   0  0  0  0  0  0  0  0  0  0  0  0
   -4.6367   -4.0321   -3.4770 H   0  0  0  0  0  0  0  0  0  0  0  0
   -5.3040   -5.1703   -2.2865 H   0  0  0  0  0  0  0  0  0  0  0  0
   -3.6854   -4.4369   -2.0318 H   0  0  0  0  0  0  0  0  0  0  0  0
    8.8312   -3.9646   -1.3394 H   0  0  0  0  0  0  0  0  0  0  0  0
    7.1919   -3.7263   -1.9220 H   0  0  0  0  0  0  0  0  0  0  0  0
    7.4929   -4.3515   -0.2711 H   0  0  0  0  0  0  0  0  0  0  0  0
    9.9196   -2.1518   -0.8669 H   0  0  0  0  0  0  0  0  0  0  0  0
    9.3496   -1.2724    0.5418 H   0  0  0  0  0  0  0  0  0  0  0  0
    9.0370   -0.6533   -1.1092 H   0  0  0  0  0  0  0  0  0  0  0  0
  1 16  2  0  0  0  0
  2 19  2  0  0  0  0
  3 24  1  0  0  0  0
  3 30  1  0  0  0  0
  4  9  1  0  0  0  0
  4 10  1  0  0  0  0
  4 13  1  0  0  0  0
  5 14  1  0  0  0  0
  5 16  1  0  0  0  0
  5 45  1  0  0  0  0
  6 11  1  0  0  0  0
  6 21  1  0  0  0  0
  6 46  1  0  0  0  0
  7 18  1  0  0  0  0
  7 19  1  0  0  0  0
  7 22  1  0  0  0  0
  8 31  1  0  0  0  0
  8 32  1  0  0  0  0
  8 33  1  0  0  0  0
  9 12  1  0  0  0  0
  9 16  1  0  0  0  0
  9 34  1  0  0  0  0
 10 14  1  0  0  0  0
 10 15  1  0  0  0  0
 10 35  1  0  0  0  0
 11 12  1  0  0  0  0
 11 13  1  0  0  0  0
 11 36  1  0  0  0  0
 12 37  1  0  0  0  0
 12 38  1  0  0  0  0
 13 39  1  0  0  0  0
 13 40  1  0  0  0  0
 14 41  1  0  0  0  0
 14 42  1  0  0  0  0
 15 17  1  0  0  0  0
 15 43  1  0  0  0  0
 15 44  1  0  0  0  0
 17 19  1  0  0  0  0
 17 47  1  0  0  0  0
 17 48  1  0  0  0  0
 18 20  1  0  0  0  0
 18 24  1  0  0  0  0
 18 49  1  0  0  0  0
 20 23  1  0  0  0  0
 20 50  1  0  0  0  0
 20 51  1  0  0  0  0
 21 25  1  0  0  0  0
 21 54  1  0  0  0  0
 21 55  1  0  0  0  0
 22 23  1  0  0  0  0
 22 52  1  0  0  0  0
 22 53  1  0  0  0  0
 23 56  1  0  0  0  0
 23 57  1  0  0  0  0
 24 58  1  0  0  0  0
 24 59  1  0  0  0  0
 25 26  2  0  0  0  0
 25 27  1  0  0  0  0
 26 28  1  0  0  0  0
 26 60  1  0  0  0  0
 27 29  2  0  0  0  0
 27 61  1  0  0  0  0
 28 31  2  0  0  0  0
 28 62  1  0  0  0  0
 29 31  1  0  0  0  0
 29 63  1  0  0  0  0
 30 64  1  0  0  0  0
 30 65  1  0  0  0  0
 30 66  1  0  0  0  0
 32 67  1  0  0  0  0
 32 68  1  0  0  0  0
 32 69  1  0  0  0  0
 33 70  1  0  0  0  0
 33 71  1  0  0  0  0
 33 72  1  0  0  0  0
M  END
> <PUBCHEM_COMPOUND_CID>
45360769

> <PUBCHEM_CONFORMER_RMSD>
1.2

> <PUBCHEM_CONFORMER_DIVERSEORDER>
1
13
50
68
69
21
32
63
70
15
42
10
58
57
9
14
3
67
48
60
34
37
17
51
22
56
53
62
66
47
4
20
65
46
11
61
31
35
26
52
71
55
28
2
54
38
33
8
59
18
64
19
12
36
40
27
29
45
25
5
24
30
23
44
6
16
49
43
7
41
39

> <PUBCHEM_MMFF94_PARTIAL_CHARGES>
35
1 -0.57
10 0.27
11 0.27
13 0.27
14 0.3
16 0.57
17 0.06
18 0.3
19 0.57
2 -0.57
21 0.41
22 0.3
24 0.28
25 -0.14
26 -0.15
27 -0.15
28 -0.15
29 -0.15
3 -0.56
30 0.28
31 0.1
32 0.37
33 0.37
4 -0.81
45 0.37
46 0.36
5 -0.73
6 -0.9
60 0.15
61 0.15
62 0.15
63 0.15
7 -0.66
8 -0.84
9 0.33

> <PUBCHEM_EFFECTIVE_ROTOR_COUNT>
12.2

> <PUBCHEM_PHARMACOPHORE_FEATURES>
12
1 1 acceptor
1 2 acceptor
1 3 acceptor
1 4 cation
1 5 donor
1 6 cation
1 6 donor
1 8 cation
5 4 9 11 12 13 rings
5 7 18 20 22 23 rings
6 25 26 27 28 29 31 rings
6 4 5 9 10 14 16 rings

> <PUBCHEM_HEAVY_ATOM_COUNT>
33

> <PUBCHEM_ATOM_DEF_STEREO_COUNT>
4

> <PUBCHEM_ATOM_UDEF_STEREO_COUNT>
0

> <PUBCHEM_BOND_DEF_STEREO_COUNT>
0

> <PUBCHEM_BOND_UDEF_STEREO_COUNT>
0

> <PUBCHEM_ISOTOPIC_ATOM_COUNT>
0

> <PUBCHEM_COMPONENT_COUNT>
1

> <PUBCHEM_CACTVS_TAUTO_COUNT>
3

> <PUBCHEM_CONFORMER_ID>
02B4268100000001

> <PUBCHEM_MMFF94_ENERGY>
90.8995

> <PUBCHEM_FEATURE_SELFOVERLAP>
61.089

> <PUBCHEM_SHAPE_FINGERPRINT>
10622 236 17482818362475383967
11059845 2 17844830135105844537
11135609 201 8935007001453289389
11227688 84 18336532842283728067
11315621 246 18264206916111537100
11497681 19 18411704296928995904
11607047 191 16983795840332906593
11621639 307 10809879918117263215
117089 54 18335145318807491595
12106331 60 18334571300881857114
12107183 9 18412555306297434881
1361 4 18265333898809600482
1361 87 17677046975494171339
13673619 4 18202845435860900792
13690498 29 18259980453475167669
13782708 43 18272365322902714890
14950920 106 16916781955038443443
15064981 194 18192442861962536452
15392192 29 18341052913516919277
15448158 91 18191016996842833819
16989713 51 18410294670960145630
17686467 74 18408319978933150304
18608769 82 18342172225244467050
19438510 23 10087648121488264485
20505436 4 17027973104459953144
20775530 9 18188198884332456609
21133410 32 14925096888085353817
21307412 95 18337938018761263501
21344244 246 18114190791417775140
21716022 299 17823435944335756965
21796203 349 18194149471115826411
21859007 373 10735883859382374970
255183 451 18335419123014958773
2747138 104 18412259520188591064
2748736 6 8646496206106599458
2838139 119 11242241940083261779
393628 194 8286199474332090051
397638 26 10807933760912614802
4017518 198 17471297722521147708
4330586 98 16734128892550976666
437795 150 18266182730180876078
6201460 15 17554594472398436959
636775 8 18341339890890022702
6673363 416 18337684045051200572
999808 66 18272652316416612654

> <PUBCHEM_SHAPE_MULTIPOLES>
636.61
22.76
6.84
1.79
34.17
5.75
0.04
-36.54
-0.08
-4.35
-2.97
-3.57
-1.25
1.96

> <PUBCHEM_SHAPE_SELFOVERLAP>
1326.479

> <PUBCHEM_SHAPE_VOLUME>
363.7

> <PUBCHEM_COORDINATE_TYPE>
2
5
10

$$$$
