51136662
  -OEChem-12032416143D

 62 65  0     1  0  0  0  0  0999 V2000
    0.1102    3.4524   -0.7030 O   0  0  0  0  0  0  0  0  0  0  0  0
   -6.7587   -1.1114   -1.4964 O   0  0  0  0  0  0  0  0  0  0  0  0
   -6.5221    0.9337   -0.5254 O   0  0  0  0  0  0  0  0  0  0  0  0
    4.3745   -3.3163   -1.1526 O   0  0  0  0  0  0  0  0  0  0  0  0
   -1.4048    2.0797    0.4005 N   0  0  0  0  0  0  0  0  0  0  0  0
   -1.2246   -2.2648    1.7721 N   0  0  0  0  0  0  0  0  0  0  0  0
   -2.5318   -0.1105    0.7264 C   0  0  2  0  0  0  0  0  0  0  0  0
   -3.7853    0.4721    0.0252 C   0  0  1  0  0  0  0  0  0  0  0  0
   -3.4144    1.6057   -0.9460 C   0  0  0  0  0  0  0  0  0  0  0  0
   -1.7194    1.0258    1.3736 C   0  0  0  0  0  0  0  0  0  0  0  0
   -2.5695    2.6733   -0.2557 C   0  0  0  0  0  0  0  0  0  0  0  0
   -1.6358   -0.9485   -0.1941 C   0  0  0  0  0  0  0  0  0  0  0  0
   -4.6261   -0.5902   -0.6824 C   0  0  0  0  0  0  0  0  0  0  0  0
   -0.7657   -1.8645    0.6324 C   0  0  0  0  0  0  0  0  0  0  0  0
   -0.1254    2.5464    0.1005 C   0  0  0  0  0  0  0  0  0  0  0  0
    0.5672   -2.2533    0.1049 C   0  0  0  0  0  0  0  0  0  0  0  0
   -6.0479   -0.1381   -0.8706 C   0  0  0  0  0  0  0  0  0  0  0  0
    1.0222    1.8808    0.8172 C   0  0  0  0  0  0  0  0  0  0  0  0
    1.4870   -2.7643    1.0294 C   0  0  0  0  0  0  0  0  0  0  0  0
    1.0788   -2.8701    2.4688 C   0  0  0  0  0  0  0  0  0  0  0  0
   -0.4055   -3.2027    2.5473 C   0  0  0  0  0  0  0  0  0  0  0  0
    0.9176   -2.1129   -1.2392 C   0  0  0  0  0  0  0  0  0  0  0  0
    2.3234    2.5104    0.4283 C   0  0  0  0  0  0  0  0  0  0  0  0
    2.7725   -3.1109    0.6042 C   0  0  0  0  0  0  0  0  0  0  0  0
    2.1984   -2.4764   -1.6573 C   0  0  0  0  0  0  0  0  0  0  0  0
    3.1243   -2.9712   -0.7384 C   0  0  0  0  0  0  0  0  0  0  0  0
    3.0399    2.0153   -0.6613 C   0  0  0  0  0  0  0  0  0  0  0  0
    2.8194    3.5922    1.1557 C   0  0  0  0  0  0  0  0  0  0  0  0
    4.2525    2.6019   -1.0235 C   0  0  0  0  0  0  0  0  0  0  0  0
    4.0319    4.1790    0.7936 C   0  0  0  0  0  0  0  0  0  0  0  0
    4.7485    3.6837   -0.2960 C   0  0  0  0  0  0  0  0  0  0  0  0
    4.6688   -3.1462   -2.5383 C   0  0  0  0  0  0  0  0  0  0  0  0
   -2.9268   -0.7305    1.5409 H   0  0  0  0  0  0  0  0  0  0  0  0
   -4.3960    0.9213    0.8227 H   0  0  0  0  0  0  0  0  0  0  0  0
   -2.8508    1.1962   -1.7940 H   0  0  0  0  0  0  0  0  0  0  0  0
   -4.3115    2.0777   -1.3609 H   0  0  0  0  0  0  0  0  0  0  0  0
   -0.8250    0.6313    1.8582 H   0  0  0  0  0  0  0  0  0  0  0  0
   -2.3134    1.5002    2.1651 H   0  0  0  0  0  0  0  0  0  0  0  0
   -2.2632    3.4290   -0.9859 H   0  0  0  0  0  0  0  0  0  0  0  0
   -3.1554    3.1850    0.5171 H   0  0  0  0  0  0  0  0  0  0  0  0
   -1.0342   -0.3011   -0.8379 H   0  0  0  0  0  0  0  0  0  0  0  0
   -2.2276   -1.6042   -0.8408 H   0  0  0  0  0  0  0  0  0  0  0  0
   -4.6594   -1.5016   -0.0736 H   0  0  0  0  0  0  0  0  0  0  0  0
   -4.2097   -0.8331   -1.6662 H   0  0  0  0  0  0  0  0  0  0  0  0
    0.8836    1.9749    1.9005 H   0  0  0  0  0  0  0  0  0  0  0  0
    1.0382    0.8136    0.5725 H   0  0  0  0  0  0  0  0  0  0  0  0
    1.6534   -3.6492    2.9821 H   0  0  0  0  0  0  0  0  0  0  0  0
    1.2839   -1.9133    2.9639 H   0  0  0  0  0  0  0  0  0  0  0  0
   -0.5984   -4.2225    2.1912 H   0  0  0  0  0  0  0  0  0  0  0  0
   -0.7267   -3.1641    3.5940 H   0  0  0  0  0  0  0  0  0  0  0  0
    0.2166   -1.7406   -1.9794 H   0  0  0  0  0  0  0  0  0  0  0  0
    3.5001   -3.4909    1.3170 H   0  0  0  0  0  0  0  0  0  0  0  0
   -7.6935   -0.8490   -1.6359 H   0  0  0  0  0  0  0  0  0  0  0  0
    2.4081   -2.3469   -2.7138 H   0  0  0  0  0  0  0  0  0  0  0  0
    2.6635    1.1734   -1.2366 H   0  0  0  0  0  0  0  0  0  0  0  0
    2.2699    3.9886    2.0054 H   0  0  0  0  0  0  0  0  0  0  0  0
    4.8103    2.2164   -1.8719 H   0  0  0  0  0  0  0  0  0  0  0  0
    4.4180    5.0217    1.3596 H   0  0  0  0  0  0  0  0  0  0  0  0
    5.6926    4.1406   -0.5779 H   0  0  0  0  0  0  0  0  0  0  0  0
    4.0398   -3.7874   -3.1652 H   0  0  0  0  0  0  0  0  0  0  0  0
    4.6149   -2.0931   -2.8350 H   0  0  0  0  0  0  0  0  0  0  0  0
    5.7043   -3.4679   -2.6904 H   0  0  0  0  0  0  0  0  0  0  0  0
  1 15  2  0  0  0  0
  2 17  1  0  0  0  0
  2 53  1  0  0  0  0
  3 17  2  0  0  0  0
  4 26  1  0  0  0  0
  4 32  1  0  0  0  0
  5 10  1  0  0  0  0
  5 11  1  0  0  0  0
  5 15  1  0  0  0  0
  6 14  2  0  0  0  0
  6 21  1  0  0  0  0
  7  8  1  0  0  0  0
  7 10  1  0  0  0  0
  7 12  1  0  0  0  0
  7 33  1  0  0  0  0
  8  9  1  0  0  0  0
  8 13  1  0  0  0  0
  8 34  1  0  0  0  0
  9 11  1  0  0  0  0
  9 35  1  0  0  0  0
  9 36  1  0  0  0  0
 10 37  1  0  0  0  0
 10 38  1  0  0  0  0
 11 39  1  0  0  0  0
 11 40  1  0  0  0  0
 12 14  1  0  0  0  0
 12 41  1  0  0  0  0
 12 42  1  0  0  0  0
 13 17  1  0  0  0  0
 13 43  1  0  0  0  0
 13 44  1  0  0  0  0
 14 16  1  0  0  0  0
 15 18  1  0  0  0  0
 16 19  2  0  0  0  0
 16 22  1  0  0  0  0
 18 23  1  0  0  0  0
 18 45  1  0  0  0  0
 18 46  1  0  0  0  0
 19 20  1  0  0  0  0
 19 24  1  0  0  0  0
 20 21  1  0  0  0  0
 20 47  1  0  0  0  0
 20 48  1  0  0  0  0
 21 49  1  0  0  0  0
 21 50  1  0  0  0  0
 22 25  2  0  0  0  0
 22 51  1  0  0  0  0
 23 27  2  0  0  0  0
 23 28  1  0  0  0  0
 24 26  2  0  0  0  0
 24 52  1  0  0  0  0
 25 26  1  0  0  0  0
 25 54  1  0  0  0  0
 27 29  1  0  0  0  0
 27 55  1  0  0  0  0
 28 30  2  0  0  0  0
 28 56  1  0  0  0  0
 29 31  2  0  0  0  0
 29 57  1  0  0  0  0
 30 31  1  0  0  0  0
 30 58  1  0  0  0  0
 31 59  1  0  0  0  0
 32 60  1  0  0  0  0
 32 61  1  0  0  0  0
 32 62  1  0  0  0  0
M  END
> <PUBCHEM_COMPOUND_CID>
51136662

> <PUBCHEM_CONFORMER_RMSD>
1

> <PUBCHEM_CONFORMER_DIVERSEORDER>
1
32
74
184
42
187
228
59
144
67
29
116
110
122
45
46
163
75
36
8
155
133
219
179
188
193
177
186
192
209
38
7
166
44
178
104
154
210
113
141
71
120
222
197
145
150
49
159
82
220
9
162
99
183
230
3
18
21
189
97
226
98
50
107
142
13
157
214
101
165
173
127
103
31
213
158
79
37
175
52
66
56
86
200
28
73
16
171
229
164
169
88
6
128
54
24
217
34
216
115
90
68
139
168
156
108
40
63
190
89
191
100
70
134
64
83
39
10
106
201
112
35
205
85
195
109
151
174
84
58
199
17
167
33
182
203
176
5
81
47
126
94
132
202
23
15
87
207
119
26
221
185
72
4
125
146
2
212
196
137
30
55
124
76
194
111
117
224
12
51
62
215
147
11
170
27
19
138
22
140
25
208
102
198
48
129
136
181
161
57
206
211
160
95
131
96
77
20
123
65
153
60
149
78
143
53
41
105
223
93
227
61
114
121
69
148
91
152
118
80
180
135
92
204
172
14
130
225
43
218

> <PUBCHEM_MMFF94_PARTIAL_CHARGES>
38
1 -0.57
10 0.3
11 0.3
12 0.06
13 0.06
14 0.3
15 0.57
16 0.09
17 0.66
18 0.2
19 -0.14
2 -0.65
20 0.14
21 0.25
22 -0.15
23 -0.14
24 -0.15
25 -0.15
26 0.08
27 -0.15
28 -0.15
29 -0.15
3 -0.57
30 -0.15
31 -0.15
32 0.28
4 -0.36
5 -0.66
51 0.15
52 0.15
53 0.5
54 0.15
55 0.15
56 0.15
57 0.15
58 0.15
59 0.15
6 -0.7

> <PUBCHEM_EFFECTIVE_ROTOR_COUNT>
9.6

> <PUBCHEM_PHARMACOPHORE_FEATURES>
10
1 1 acceptor
1 2 acceptor
1 3 acceptor
1 4 acceptor
1 6 acceptor
3 2 3 17 anion
6 16 19 22 24 25 26 rings
6 23 27 28 29 30 31 rings
6 5 7 8 9 10 11 rings
6 6 14 16 19 20 21 rings

> <PUBCHEM_HEAVY_ATOM_COUNT>
32

> <PUBCHEM_ATOM_DEF_STEREO_COUNT>
2

> <PUBCHEM_ATOM_UDEF_STEREO_COUNT>
0

> <PUBCHEM_BOND_DEF_STEREO_COUNT>
0

> <PUBCHEM_BOND_UDEF_STEREO_COUNT>
0

> <PUBCHEM_ISOTOPIC_ATOM_COUNT>
0

> <PUBCHEM_COMPONENT_COUNT>
1

> <PUBCHEM_CACTVS_TAUTO_COUNT>
1

> <PUBCHEM_CONFORMER_ID>
030C489600000001

> <PUBCHEM_MMFF94_ENERGY>
91.611

> <PUBCHEM_FEATURE_SELFOVERLAP>
50.831

> <PUBCHEM_SHAPE_FINGERPRINT>
10032420 55 17752208283880800062
107951 10 17898563434882717114
11135609 187 18339921640490347521
11763715 3 17467333544308820563
12156800 1 16482999401832313302
12597179 24 18190459548663208915
12788726 201 17184757888071267680
14784336 7 17971753268395395882
14844126 61 17402878420927282456
14931854 50 18263945254003521510
15351339 4 18336559205720977286
15664445 248 18197213655567619367
15927050 60 18267580394100947375
20028762 73 17619343651833427167
20642791 239 17904764371468957969
20642791 35 18336544894636810569
20775438 99 18269257114821067783
21133410 230 17609808609065509314
21344244 246 18341610477475609727
22182313 1 18041857219776029099
238918 7 18123762108539607976
3298306 158 18338796843888329240
3411729 13 18337662097071348505
4017518 198 18055917843244564588
5085150 59 18125710426054270704
5265222 85 17905049501262780285
57527358 35 15404208010447136698
6669772 16 18334572490286663155
6700243 42 17412475632281486230

> <PUBCHEM_SHAPE_MULTIPOLES>
625.11
10.86
6.59
1.93
13.76
0.73
-0.38
3.77
6.6
-10.69
-0.67
-0.85
-2.22
2.27

> <PUBCHEM_SHAPE_SELFOVERLAP>
1337.489

> <PUBCHEM_SHAPE_VOLUME>
342.3

> <PUBCHEM_COORDINATE_TYPE>
2
5
10

$$$$
