7134442
  -OEChem-12032416153D

 72 74  0     1  0  0  0  0  0999 V2000
    1.6241   -1.3550   -2.1845 O   0  0  0  0  0  0  0  0  0  0  0  0
    3.2069    0.0217    3.0687 O   0  0  0  0  0  0  0  0  0  0  0  0
    2.3877   -1.9158    2.1993 O   0  0  0  0  0  0  0  0  0  0  0  0
   -0.6588   -4.4515    1.0044 O   0  0  0  0  0  0  0  0  0  0  0  0
   -3.0194   -3.9953   -1.7527 O   0  0  0  0  0  0  0  0  0  0  0  0
   -3.2733   -0.3936    2.1040 O   0  0  0  0  0  0  0  0  0  0  0  0
   -5.7349    0.9790   -0.7127 O   0  0  0  0  0  0  0  0  0  0  0  0
    2.4892    3.4633   -0.3810 O   0  0  0  0  0  0  0  0  0  0  0  0
    0.9607   -2.7253   -0.4280 N   0  0  0  0  0  0  0  0  0  0  0  0
   -3.1105    0.5204   -0.0343 N   0  0  0  0  0  0  0  0  0  0  0  0
   -5.8703    2.4341    1.0596 N   0  0  0  0  0  0  0  0  0  0  0  0
    3.8606   -0.7349   -0.2198 C   0  0  0  0  0  0  0  0  0  0  0  0
    4.1235    0.1196   -1.4674 C   0  0  0  0  0  0  0  0  0  0  0  0
    5.2710   -0.8617    0.3724 C   0  0  0  0  0  0  0  0  0  0  0  0
    5.1848    1.1306   -1.0397 C   0  0  0  0  0  0  0  0  0  0  0  0
    5.9225    0.4999    0.1412 C   0  0  0  0  0  0  0  0  0  0  0  0
    3.2782   -2.1016   -0.5856 C   0  0  0  0  0  0  0  0  0  0  0  0
    2.9082   -0.0225    0.7543 C   0  0  0  0  0  0  0  0  0  0  0  0
    1.8828   -2.0027   -1.1737 C   0  0  0  0  0  0  0  0  0  0  0  0
    2.7901   -0.7720    2.0488 C   0  0  0  0  0  0  0  0  0  0  0  0
   -0.4405   -2.8006   -0.7623 C   0  0  1  0  0  0  0  0  0  0  0  0
   -1.0554   -4.1469   -0.3344 C   0  0  2  0  0  0  0  0  0  0  0  0
   -2.5873   -4.1113   -0.3986 C   0  0  1  0  0  0  0  0  0  0  0  0
   -1.1460   -1.6101   -0.1712 C   0  0  0  0  0  0  0  0  0  0  0  0
   -3.1755   -2.9656    0.4429 C   0  0  0  0  0  0  0  0  0  0  0  0
   -2.3688   -1.7001    0.3734 C   0  0  0  0  0  0  0  0  0  0  0  0
   -2.9601   -0.4738    0.9167 C   0  0  0  0  0  0  0  0  0  0  0  0
   -3.6733    1.8182    0.2624 C   0  0  1  0  0  0  0  0  0  0  0  0
   -3.1363    2.9097   -0.6705 C   0  0  0  0  0  0  0  0  0  0  0  0
   -5.1833    1.6949    0.1198 C   0  0  0  0  0  0  0  0  0  0  0  0
   -1.6362    3.0578   -0.5931 C   0  0  0  0  0  0  0  0  0  0  0  0
   -0.8175    2.3102   -1.4396 C   0  0  0  0  0  0  0  0  0  0  0  0
   -1.0684    3.9416    0.3245 C   0  0  0  0  0  0  0  0  0  0  0  0
    0.5687    2.4465   -1.3686 C   0  0  0  0  0  0  0  0  0  0  0  0
    0.3179    4.0780    0.3957 C   0  0  0  0  0  0  0  0  0  0  0  0
    1.1365    3.3304   -0.4509 C   0  0  0  0  0  0  0  0  0  0  0  0
    3.0024    4.3843    0.5802 C   0  0  0  0  0  0  0  0  0  0  0  0
    3.2330    0.6282   -1.8460 H   0  0  0  0  0  0  0  0  0  0  0  0
    4.5268   -0.4934   -2.2833 H   0  0  0  0  0  0  0  0  0  0  0  0
    5.8432   -1.6200   -0.1786 H   0  0  0  0  0  0  0  0  0  0  0  0
    5.2998   -1.1517    1.4266 H   0  0  0  0  0  0  0  0  0  0  0  0
    4.7261    2.0745   -0.7315 H   0  0  0  0  0  0  0  0  0  0  0  0
    5.8666    1.3585   -1.8656 H   0  0  0  0  0  0  0  0  0  0  0  0
    6.9945    0.3988   -0.0570 H   0  0  0  0  0  0  0  0  0  0  0  0
    5.8130    1.1327    1.0295 H   0  0  0  0  0  0  0  0  0  0  0  0
    3.3209   -2.8078    0.2484 H   0  0  0  0  0  0  0  0  0  0  0  0
    3.8953   -2.5717   -1.3645 H   0  0  0  0  0  0  0  0  0  0  0  0
    3.2623    0.9937    0.9669 H   0  0  0  0  0  0  0  0  0  0  0  0
    1.9004    0.1071    0.3461 H   0  0  0  0  0  0  0  0  0  0  0  0
   -0.5291   -2.7072   -1.8527 H   0  0  0  0  0  0  0  0  0  0  0  0
    1.2590   -3.1687    0.4359 H   0  0  0  0  0  0  0  0  0  0  0  0
   -0.6605   -4.9371   -0.9843 H   0  0  0  0  0  0  0  0  0  0  0  0
   -2.9905   -5.0575   -0.0176 H   0  0  0  0  0  0  0  0  0  0  0  0
   -0.6294   -0.6536   -0.2052 H   0  0  0  0  0  0  0  0  0  0  0  0
   -4.2030   -2.7584    0.1204 H   0  0  0  0  0  0  0  0  0  0  0  0
   -3.2156   -3.2800    1.4934 H   0  0  0  0  0  0  0  0  0  0  0  0
    3.1463   -0.4344    3.9350 H   0  0  0  0  0  0  0  0  0  0  0  0
   -1.0374   -5.3179    1.2316 H   0  0  0  0  0  0  0  0  0  0  0  0
   -3.9915   -4.0201   -1.7546 H   0  0  0  0  0  0  0  0  0  0  0  0
   -2.8978    0.3113   -1.0060 H   0  0  0  0  0  0  0  0  0  0  0  0
   -3.4250    2.0606    1.3035 H   0  0  0  0  0  0  0  0  0  0  0  0
   -3.4226    2.6971   -1.7099 H   0  0  0  0  0  0  0  0  0  0  0  0
   -3.6112    3.8713   -0.4347 H   0  0  0  0  0  0  0  0  0  0  0  0
   -1.2449    1.6218   -2.1636 H   0  0  0  0  0  0  0  0  0  0  0  0
   -1.6972    4.5270    0.9903 H   0  0  0  0  0  0  0  0  0  0  0  0
   -6.8845    2.4285    1.0858 H   0  0  0  0  0  0  0  0  0  0  0  0
   -5.4014    3.0181    1.7446 H   0  0  0  0  0  0  0  0  0  0  0  0
    1.1984    1.8645   -2.0345 H   0  0  0  0  0  0  0  0  0  0  0  0
    0.6921    4.7812    1.1318 H   0  0  0  0  0  0  0  0  0  0  0  0
    2.6848    5.4100    0.3649 H   0  0  0  0  0  0  0  0  0  0  0  0
    2.7543    4.0779    1.6021 H   0  0  0  0  0  0  0  0  0  0  0  0
    4.0940    4.3637    0.4972 H   0  0  0  0  0  0  0  0  0  0  0  0
  1 19  2  0  0  0  0
  2 20  1  0  0  0  0
  2 57  1  0  0  0  0
  3 20  2  0  0  0  0
  4 22  1  0  0  0  0
  4 58  1  0  0  0  0
  5 23  1  0  0  0  0
  5 59  1  0  0  0  0
  6 27  2  0  0  0  0
  7 30  2  0  0  0  0
  8 36  1  0  0  0  0
  8 37  1  0  0  0  0
  9 19  1  0  0  0  0
  9 21  1  0  0  0  0
  9 51  1  0  0  0  0
 10 27  1  0  0  0  0
 10 28  1  0  0  0  0
 10 60  1  0  0  0  0
 11 30  1  0  0  0  0
 11 66  1  0  0  0  0
 11 67  1  0  0  0  0
 12 13  1  0  0  0  0
 12 14  1  0  0  0  0
 12 17  1  0  0  0  0
 12 18  1  0  0  0  0
 13 15  1  0  0  0  0
 13 38  1  0  0  0  0
 13 39  1  0  0  0  0
 14 16  1  0  0  0  0
 14 40  1  0  0  0  0
 14 41  1  0  0  0  0
 15 16  1  0  0  0  0
 15 42  1  0  0  0  0
 15 43  1  0  0  0  0
 16 44  1  0  0  0  0
 16 45  1  0  0  0  0
 17 19  1  0  0  0  0
 17 46  1  0  0  0  0
 17 47  1  0  0  0  0
 18 20  1  0  0  0  0
 18 48  1  0  0  0  0
 18 49  1  0  0  0  0
 21 22  1  0  0  0  0
 21 24  1  0  0  0  0
 21 50  1  0  0  0  0
 22 23  1  0  0  0  0
 22 52  1  0  0  0  0
 23 25  1  0  0  0  0
 23 53  1  0  0  0  0
 24 26  2  0  0  0  0
 24 54  1  0  0  0  0
 25 26  1  0  0  0  0
 25 55  1  0  0  0  0
 25 56  1  0  0  0  0
 26 27  1  0  0  0  0
 28 29  1  0  0  0  0
 28 30  1  0  0  0  0
 28 61  1  0  0  0  0
 29 31  1  0  0  0  0
 29 62  1  0  0  0  0
 29 63  1  0  0  0  0
 31 32  2  0  0  0  0
 31 33  1  0  0  0  0
 32 34  1  0  0  0  0
 32 64  1  0  0  0  0
 33 35  2  0  0  0  0
 33 65  1  0  0  0  0
 34 36  2  0  0  0  0
 34 68  1  0  0  0  0
 35 36  1  0  0  0  0
 35 69  1  0  0  0  0
 37 70  1  0  0  0  0
 37 71  1  0  0  0  0
 37 72  1  0  0  0  0
M  END
> <PUBCHEM_COMPOUND_CID>
7134442

> <PUBCHEM_CONFORMER_RMSD>
1.2

> <PUBCHEM_CONFORMER_DIVERSEORDER>
1
126
66
55
71
103
92
85
153
124
31
72
154
93
65
47
18
114
138
106
117
17
35
58
135
116
110
134
123
131
125
4
62
136
148
24
132
128
51
12
152
100
108
87
25
64
34
9
82
50
129
104
118
95
15
44
84
70
53
101
56
63
149
61
60
144
68
151
139
46
88
111
120
133
59
137
43
102
145
40
36
20
54
105
78
33
74
27
146
30
112
73
113
83
26
90
38
7
19
76
150
21
91
11
48
13
98
127
107
122
67
77
96
10
45
52
8
49
109
23
81
130
39
79
141
142
69
99
143
89
147
94
86
28
16
3
119
29
121
57
75
41
140
2
97
80
37
22
42
14
32
5
115
6

> <PUBCHEM_MMFF94_PARTIAL_CHARGES>
44
1 -0.57
10 -0.73
11 -0.8
17 0.06
18 0.06
19 0.57
2 -0.65
20 0.66
21 0.44
22 0.28
23 0.28
24 -0.29
25 0.14
26 -0.12
27 0.62
28 0.36
29 0.14
3 -0.57
30 0.57
31 -0.14
32 -0.15
33 -0.15
34 -0.15
35 -0.15
36 0.08
37 0.28
4 -0.68
5 -0.68
51 0.37
54 0.15
57 0.5
58 0.4
59 0.4
6 -0.57
60 0.37
64 0.15
65 0.15
66 0.37
67 0.37
68 0.15
69 0.15
7 -0.57
8 -0.36
9 -0.73

> <PUBCHEM_EFFECTIVE_ROTOR_COUNT>
14.8

> <PUBCHEM_PHARMACOPHORE_FEATURES>
17
1 1 acceptor
1 10 donor
1 11 donor
1 2 acceptor
1 3 acceptor
1 4 acceptor
1 4 donor
1 5 acceptor
1 5 donor
1 6 acceptor
1 7 acceptor
1 8 acceptor
1 9 donor
3 2 3 20 anion
5 12 13 14 15 16 rings
6 21 22 23 24 25 26 rings
6 31 32 33 34 35 36 rings

> <PUBCHEM_HEAVY_ATOM_COUNT>
37

> <PUBCHEM_ATOM_DEF_STEREO_COUNT>
4

> <PUBCHEM_ATOM_UDEF_STEREO_COUNT>
0

> <PUBCHEM_BOND_DEF_STEREO_COUNT>
0

> <PUBCHEM_BOND_UDEF_STEREO_COUNT>
0

> <PUBCHEM_ISOTOPIC_ATOM_COUNT>
0

> <PUBCHEM_COMPONENT_COUNT>
1

> <PUBCHEM_CACTVS_TAUTO_COUNT>
8

> <PUBCHEM_CONFORMER_ID>
006CDCEA00000001

> <PUBCHEM_MMFF94_ENERGY>
95.2694

> <PUBCHEM_FEATURE_SELFOVERLAP>
86.342

> <PUBCHEM_SHAPE_FINGERPRINT>
10290309 65 18118964685509074700
10675989 125 17109303906684066196
10864689 126 18338804395121649340
1100329 8 18410857685021877013
11513181 2 17913777381908766502
13402501 40 18267023860163924092
1361 2 18339360752263003385
14114211 80 18200046031721655857
15001296 14 18334298703592056484
15297060 5 18272099257635444962
15320467 1 18411140195149015860
15403338 16 16806440293744373529
19319366 153 17603866659181180074
19930381 70 17905612099439579613
20764821 26 18410290349885591733
21033648 29 18202559566658126755
35225 105 17825645786771298822
392239 28 17979359659660035877
463206 1 18120104028415938985
6004065 56 18413384320589392381
7808743 9 18410856559914596450

> <PUBCHEM_SHAPE_MULTIPOLES>
699.55
10.62
6.92
1.73
0.97
0.03
0.75
2.93
1.07
-3.95
-0.8
1.05
-0.55
-0.47

> <PUBCHEM_SHAPE_SELFOVERLAP>
1469.792

> <PUBCHEM_SHAPE_VOLUME>
391.7

> <PUBCHEM_COORDINATE_TYPE>
2
5
10

$$$$
