11941402
  -OEChem-12032416153D

 64 68  0     1  0  0  0  0  0999 V2000
   -1.5553    4.2357   -0.8125 O   0  0  0  0  0  0  0  0  0  0  0  0
    0.9568    1.1202    2.6142 O   0  0  0  0  0  0  0  0  0  0  0  0
   -5.4950    1.1527   -0.6888 O   0  0  0  0  0  0  0  0  0  0  0  0
    7.8783   -3.0962    0.0714 O   0  0  0  0  0  0  0  0  0  0  0  0
   -0.7482    1.7637    1.2114 N   0  0  0  0  0  0  0  0  0  0  0  0
   -3.3400    0.5544   -0.0717 N   0  0  0  0  0  0  0  0  0  0  0  0
   -4.8795   -1.0819   -0.5529 N   0  0  0  0  0  0  0  0  0  0  0  0
    0.5423    3.3528   -0.9018 N   0  0  0  0  0  0  0  0  0  0  0  0
   -2.8329    1.8962    0.1025 C   0  0  2  0  0  0  0  0  0  0  0  0
   -1.3138    1.9409   -0.1131 C   0  0  1  0  0  0  0  0  0  0  0  0
   -3.0016    2.3684    1.5480 C   0  0  0  0  0  0  0  0  0  0  0  0
   -1.7713    1.8104    2.2459 C   0  0  0  0  0  0  0  0  0  0  0  0
   -6.1544   -1.6464   -0.9362 C   0  0  0  0  0  0  0  0  0  0  0  0
   -7.0615   -1.8378    0.2840 C   0  0  0  0  0  0  0  0  0  0  0  0
   -5.9670   -2.9612   -1.7006 C   0  0  0  0  0  0  0  0  0  0  0  0
   -0.8016    3.2840   -0.5992 C   0  0  0  0  0  0  0  0  0  0  0  0
   -6.5957   -2.9812    1.1855 C   0  0  0  0  0  0  0  0  0  0  0  0
   -5.5032   -4.1027   -0.7959 C   0  0  0  0  0  0  0  0  0  0  0  0
   -6.4274   -4.2810    0.4047 C   0  0  0  0  0  0  0  0  0  0  0  0
    0.5575    1.4203    1.4892 C   0  0  0  0  0  0  0  0  0  0  0  0
   -4.6502    0.2882   -0.4594 C   0  0  0  0  0  0  0  0  0  0  0  0
    1.5384    1.4376    0.3729 C   0  0  0  0  0  0  0  0  0  0  0  0
    1.5493    2.3939   -0.6568 C   0  0  0  0  0  0  0  0  0  0  0  0
    2.6046    0.5262    0.4811 C   0  0  0  0  0  0  0  0  0  0  0  0
    2.6627    2.4553   -1.5130 C   0  0  0  0  0  0  0  0  0  0  0  0
    3.6781    0.5722   -0.4072 C   0  0  0  0  0  0  0  0  0  0  0  0
    3.7134    1.5456   -1.3971 C   0  0  0  0  0  0  0  0  0  0  0  0
    4.7637   -0.3761   -0.2836 C   0  0  0  0  0  0  0  0  0  0  0  0
    6.0564   -0.0079   -0.6554 C   0  0  0  0  0  0  0  0  0  0  0  0
    4.5171   -1.6581    0.2075 C   0  0  0  0  0  0  0  0  0  0  0  0
    7.1032   -0.9221   -0.5361 C   0  0  0  0  0  0  0  0  0  0  0  0
    5.5638   -2.5723    0.3268 C   0  0  0  0  0  0  0  0  0  0  0  0
    6.8570   -2.2043   -0.0450 C   0  0  0  0  0  0  0  0  0  0  0  0
    7.5563   -4.3895    0.5808 C   0  0  0  0  0  0  0  0  0  0  0  0
   -3.3784    2.5513   -0.5851 H   0  0  0  0  0  0  0  0  0  0  0  0
   -0.9682    1.1549   -0.7951 H   0  0  0  0  0  0  0  0  0  0  0  0
   -3.9315    2.0382    2.0208 H   0  0  0  0  0  0  0  0  0  0  0  0
   -2.9730    3.4644    1.5826 H   0  0  0  0  0  0  0  0  0  0  0  0
   -1.4381    2.4239    3.0882 H   0  0  0  0  0  0  0  0  0  0  0  0
   -1.9376    0.7873    2.6013 H   0  0  0  0  0  0  0  0  0  0  0  0
   -6.6375   -0.9269   -1.6089 H   0  0  0  0  0  0  0  0  0  0  0  0
   -2.7373   -0.2285    0.1635 H   0  0  0  0  0  0  0  0  0  0  0  0
   -7.1177   -0.9134    0.8712 H   0  0  0  0  0  0  0  0  0  0  0  0
   -8.0804   -2.0554   -0.0612 H   0  0  0  0  0  0  0  0  0  0  0  0
   -5.2459   -2.8281   -2.5160 H   0  0  0  0  0  0  0  0  0  0  0  0
   -6.9215   -3.2439   -2.1630 H   0  0  0  0  0  0  0  0  0  0  0  0
   -5.6441   -2.7136    1.6607 H   0  0  0  0  0  0  0  0  0  0  0  0
   -7.3216   -3.1298    1.9931 H   0  0  0  0  0  0  0  0  0  0  0  0
   -5.4713   -5.0341   -1.3728 H   0  0  0  0  0  0  0  0  0  0  0  0
   -4.4807   -3.9156   -0.4476 H   0  0  0  0  0  0  0  0  0  0  0  0
   -7.4093   -4.6279    0.0597 H   0  0  0  0  0  0  0  0  0  0  0  0
   -6.0286   -5.0593    1.0651 H   0  0  0  0  0  0  0  0  0  0  0  0
   -4.1328   -1.7090   -0.2707 H   0  0  0  0  0  0  0  0  0  0  0  0
    0.8261    4.1657   -1.4436 H   0  0  0  0  0  0  0  0  0  0  0  0
    2.5955   -0.1887    1.3015 H   0  0  0  0  0  0  0  0  0  0  0  0
    2.7061    3.1986   -2.3071 H   0  0  0  0  0  0  0  0  0  0  0  0
    4.5184    1.6168   -2.1231 H   0  0  0  0  0  0  0  0  0  0  0  0
    6.3015    0.9881   -1.0138 H   0  0  0  0  0  0  0  0  0  0  0  0
    3.5212   -1.9975    0.4795 H   0  0  0  0  0  0  0  0  0  0  0  0
    8.1098   -0.6282   -0.8209 H   0  0  0  0  0  0  0  0  0  0  0  0
    5.3018   -3.5531    0.7088 H   0  0  0  0  0  0  0  0  0  0  0  0
    7.1839   -4.3357    1.6095 H   0  0  0  0  0  0  0  0  0  0  0  0
    6.8674   -4.9232   -0.0827 H   0  0  0  0  0  0  0  0  0  0  0  0
    8.4861   -4.9671    0.6074 H   0  0  0  0  0  0  0  0  0  0  0  0
  1 16  2  0  0  0  0
  2 20  2  0  0  0  0
  3 21  2  0  0  0  0
  4 33  1  0  0  0  0
  4 34  1  0  0  0  0
  5 10  1  0  0  0  0
  5 12  1  0  0  0  0
  5 20  1  0  0  0  0
  6  9  1  0  0  0  0
  6 21  1  0  0  0  0
  6 42  1  0  0  0  0
  7 13  1  0  0  0  0
  7 21  1  0  0  0  0
  7 53  1  0  0  0  0
  8 16  1  0  0  0  0
  8 23  1  0  0  0  0
  8 54  1  0  0  0  0
  9 10  1  0  0  0  0
  9 11  1  0  0  0  0
  9 35  1  0  0  0  0
 10 16  1  0  0  0  0
 10 36  1  0  0  0  0
 11 12  1  0  0  0  0
 11 37  1  0  0  0  0
 11 38  1  0  0  0  0
 12 39  1  0  0  0  0
 12 40  1  0  0  0  0
 13 14  1  0  0  0  0
 13 15  1  0  0  0  0
 13 41  1  0  0  0  0
 14 17  1  0  0  0  0
 14 43  1  0  0  0  0
 14 44  1  0  0  0  0
 15 18  1  0  0  0  0
 15 45  1  0  0  0  0
 15 46  1  0  0  0  0
 17 19  1  0  0  0  0
 17 47  1  0  0  0  0
 17 48  1  0  0  0  0
 18 19  1  0  0  0  0
 18 49  1  0  0  0  0
 18 50  1  0  0  0  0
 19 51  1  0  0  0  0
 19 52  1  0  0  0  0
 20 22  1  0  0  0  0
 22 23  2  0  0  0  0
 22 24  1  0  0  0  0
 23 25  1  0  0  0  0
 24 26  2  0  0  0  0
 24 55  1  0  0  0  0
 25 27  2  0  0  0  0
 25 56  1  0  0  0  0
 26 27  1  0  0  0  0
 26 28  1  0  0  0  0
 27 57  1  0  0  0  0
 28 29  2  0  0  0  0
 28 30  1  0  0  0  0
 29 31  1  0  0  0  0
 29 58  1  0  0  0  0
 30 32  2  0  0  0  0
 30 59  1  0  0  0  0
 31 33  2  0  0  0  0
 31 60  1  0  0  0  0
 32 33  1  0  0  0  0
 32 61  1  0  0  0  0
 34 62  1  0  0  0  0
 34 63  1  0  0  0  0
 34 64  1  0  0  0  0
M  END
> <PUBCHEM_COMPOUND_CID>
11941402

> <PUBCHEM_CONFORMER_RMSD>
1

> <PUBCHEM_CONFORMER_DIVERSEORDER>
1
4
3
19
8
15
16
5
9
2
7
6
11
10
18
13
17
12
14

> <PUBCHEM_MMFF94_PARTIAL_CHARGES>
36
1 -0.57
10 0.36
12 0.3
13 0.3
16 0.57
2 -0.57
20 0.54
21 0.69
22 0.09
23 0.12
24 -0.15
25 -0.15
27 -0.15
29 -0.15
3 -0.57
30 -0.15
31 -0.15
32 -0.15
33 0.08
34 0.28
4 -0.36
42 0.37
5 -0.66
53 0.37
54 0.37
55 0.15
56 0.15
57 0.15
58 0.15
59 0.15
6 -0.73
60 0.15
61 0.15
7 -0.73
8 -0.55
9 0.3

> <PUBCHEM_EFFECTIVE_ROTOR_COUNT>
8

> <PUBCHEM_PHARMACOPHORE_FEATURES>
12
1 1 acceptor
1 2 acceptor
1 3 acceptor
1 4 acceptor
1 6 donor
1 7 donor
1 8 donor
5 5 9 10 11 12 rings
6 13 14 15 17 18 19 rings
6 22 23 24 25 26 27 rings
6 28 29 30 31 32 33 rings
7 5 8 10 16 20 22 23 rings

> <PUBCHEM_HEAVY_ATOM_COUNT>
34

> <PUBCHEM_ATOM_DEF_STEREO_COUNT>
2

> <PUBCHEM_ATOM_UDEF_STEREO_COUNT>
0

> <PUBCHEM_BOND_DEF_STEREO_COUNT>
0

> <PUBCHEM_BOND_UDEF_STEREO_COUNT>
0

> <PUBCHEM_ISOTOPIC_ATOM_COUNT>
0

> <PUBCHEM_COMPONENT_COUNT>
1

> <PUBCHEM_CACTVS_TAUTO_COUNT>
9

> <PUBCHEM_CONFORMER_ID>
00B6361A00000001

> <PUBCHEM_MMFF94_ENERGY>
108.6112

> <PUBCHEM_FEATURE_SELFOVERLAP>
61.008

> <PUBCHEM_SHAPE_FINGERPRINT>
10169797 241 17702109259894224124
10622 236 18410853287085778399
10693767 8 18261674869507551880
11409948 35 18193277623875505147
11497681 19 18410576180855815804
11607047 403 18053089907886070584
117089 54 18264211481931415179
12013929 27 18186523232390378447
12061779 8 12830585374519442247
12166972 35 18113901614946615047
12522641 68 17250605474358276557
12633257 1 15338839841358725701
12975358 362 8645670568123907751
1361 4 18337674233958019191
13690498 29 18040710373461467781
13782708 43 18272926112044493928
13947930 73 17775283901864016695
13947947 140 18201441341689238031
14951699 99 10303820903560012475
15064981 113 13767917993288670154
15230672 131 18335976472963976723
15950262 2 8430312450656965724
16067689 391 18259993660415954595
18603816 31 18342185427889241227
19303781 99 18338222834552825094
19315092 285 18130232643995961696
19841028 212 18335137588087865738
20028762 73 18339923698201506614
20775438 99 17901097843475816203
208703 8 18408879625107155182
21585483 132 18041835100774336210
21756936 100 8718242642997175664
21796203 349 15625932184346799674
23569914 2 12686803570162836854
25025965 108 17680699330016063658
2748736 6 8430052931817180287
2838139 119 11674886618728890852
3504750 166 18122347878825693752
393628 194 10665216043727032471
406291 66 18412543214777832863
4173938 188 18343015611303989602
439807 62 18410577323085124663
44280117 145 18265052436885843108
44802255 64 13407661913247138424
45266715 3 17531242907588160944
45377200 153 17846786179292968158
5718773 13 18410009914718039342
5874358 3 17096630021725141506
6058803 2 18266766673360141501
6201460 15 17840578529246601839
6691757 9 17773886290454652497
7970288 3 18338514244173363335
96874 4 18412822490825986686

> <PUBCHEM_SHAPE_MULTIPOLES>
656.3
22.22
6.01
1.55
4
3.68
-0.62
37.01
2.64
-2.27
0.34
-0.93
-0.71
-2.36

> <PUBCHEM_SHAPE_SELFOVERLAP>
1427.267

> <PUBCHEM_SHAPE_VOLUME>
354

> <PUBCHEM_COORDINATE_TYPE>
2
5
10

$$$$
