45783578
  -OEChem-12032416403D

 61 65  0     1  0  0  0  0  0999 V2000
   -4.4167   -1.0294   -1.0067 O   0  0  0  0  0  0  0  0  0  0  0  0
    3.1200   -1.5065   -1.9078 O   0  0  0  0  0  0  0  0  0  0  0  0
   -1.1965    3.4327    0.1358 O   0  0  0  0  0  0  0  0  0  0  0  0
   -0.2068    4.2038   -1.7596 O   0  0  0  0  0  0  0  0  0  0  0  0
    4.3201   -0.5592    1.4340 N   0  0  1  0  0  0  0  0  0  0  0  0
    1.8427   -1.2362   -0.0878 N   0  0  0  0  0  0  0  0  0  0  0  0
    1.7947   -1.4902   -2.3609 N   0  0  0  0  0  0  0  0  0  0  0  0
   -2.3648   -1.0097    0.0752 N   0  0  0  0  0  0  0  0  0  0  0  0
    4.3806   -1.3348    0.1790 C   0  0  1  0  0  0  0  0  0  0  0  0
    4.8388   -2.7404    0.6097 C   0  0  0  0  0  0  0  0  0  0  0  0
    5.0692   -2.6410    2.1109 C   0  0  0  0  0  0  0  0  0  0  0  0
    5.2992   -1.1608    2.3394 C   0  0  0  0  0  0  0  0  0  0  0  0
   -4.9743   -0.8571    0.2918 C   0  0  0  0  0  0  0  0  0  0  0  0
    4.5556    0.8659    1.2404 C   0  0  0  0  0  0  0  0  0  0  0  0
   -6.3418   -1.5354    0.3569 C   0  0  0  0  0  0  0  0  0  0  0  0
   -5.0693    0.6334    0.6155 C   0  0  0  0  0  0  0  0  0  0  0  0
   -7.0240   -1.2953    1.6998 C   0  0  0  0  0  0  0  0  0  0  0  0
   -5.7514    0.8737    1.9583 C   0  0  0  0  0  0  0  0  0  0  0  0
   -7.1170    0.1939    2.0244 C   0  0  0  0  0  0  0  0  0  0  0  0
    3.0585   -1.3516   -0.5593 C   0  0  0  0  0  0  0  0  0  0  0  0
    3.3276    1.5730    0.7315 C   0  0  0  0  0  0  0  0  0  0  0  0
    1.1017   -1.3272   -1.2299 C   0  0  0  0  0  0  0  0  0  0  0  0
    3.3724    2.2630   -0.4799 C   0  0  0  0  0  0  0  0  0  0  0  0
    2.1456    1.5384    1.4712 C   0  0  0  0  0  0  0  0  0  0  0  0
   -3.0514   -1.1053   -1.0854 C   0  0  0  0  0  0  0  0  0  0  0  0
   -0.3294   -1.2529   -1.2066 C   0  0  0  0  0  0  0  0  0  0  0  0
    2.2351    2.9182   -0.9517 C   0  0  0  0  0  0  0  0  0  0  0  0
    1.0082    2.1938    0.9994 C   0  0  0  0  0  0  0  0  0  0  0  0
   -2.4580   -1.2730   -2.3261 C   0  0  0  0  0  0  0  0  0  0  0  0
   -1.0705   -1.3473   -2.3794 C   0  0  0  0  0  0  0  0  0  0  0  0
    1.0530    2.8836   -0.2122 C   0  0  0  0  0  0  0  0  0  0  0  0
   -1.0180   -1.0861   -0.0159 C   0  0  0  0  0  0  0  0  0  0  0  0
   -0.1333    3.5659   -0.7041 C   0  0  0  0  0  0  0  0  0  0  0  0
    5.1482   -0.9271   -0.4939 H   0  0  0  0  0  0  0  0  0  0  0  0
    5.7827   -2.9896    0.1097 H   0  0  0  0  0  0  0  0  0  0  0  0
    4.1171   -3.5314    0.3784 H   0  0  0  0  0  0  0  0  0  0  0  0
    4.1736   -2.9766    2.6485 H   0  0  0  0  0  0  0  0  0  0  0  0
    5.9136   -3.2530    2.4413 H   0  0  0  0  0  0  0  0  0  0  0  0
    5.1217   -0.8827    3.3829 H   0  0  0  0  0  0  0  0  0  0  0  0
    6.3269   -0.8889    2.0668 H   0  0  0  0  0  0  0  0  0  0  0  0
   -4.3707   -1.3594    1.0604 H   0  0  0  0  0  0  0  0  0  0  0  0
    5.4241    1.0505    0.5945 H   0  0  0  0  0  0  0  0  0  0  0  0
    4.7998    1.3375    2.2028 H   0  0  0  0  0  0  0  0  0  0  0  0
   -6.9773   -1.1622   -0.4568 H   0  0  0  0  0  0  0  0  0  0  0  0
   -6.2317   -2.6117    0.1773 H   0  0  0  0  0  0  0  0  0  0  0  0
   -4.0734    1.0914    0.6228 H   0  0  0  0  0  0  0  0  0  0  0  0
   -5.6242    1.1471   -0.1806 H   0  0  0  0  0  0  0  0  0  0  0  0
   -6.4629   -1.8068    2.4915 H   0  0  0  0  0  0  0  0  0  0  0  0
   -8.0284   -1.7331    1.6867 H   0  0  0  0  0  0  0  0  0  0  0  0
   -5.8674    1.9503    2.1260 H   0  0  0  0  0  0  0  0  0  0  0  0
   -5.1138    0.4912    2.7649 H   0  0  0  0  0  0  0  0  0  0  0  0
   -7.5470    0.3271    3.0235 H   0  0  0  0  0  0  0  0  0  0  0  0
   -7.7993    0.6787    1.3154 H   0  0  0  0  0  0  0  0  0  0  0  0
    4.2859    2.2964   -1.0675 H   0  0  0  0  0  0  0  0  0  0  0  0
    2.0968    1.0086    2.4190 H   0  0  0  0  0  0  0  0  0  0  0  0
    2.2902    3.4491   -1.8984 H   0  0  0  0  0  0  0  0  0  0  0  0
    0.1090    2.1406    1.6067 H   0  0  0  0  0  0  0  0  0  0  0  0
   -3.0509   -1.3447   -3.2314 H   0  0  0  0  0  0  0  0  0  0  0  0
   -0.5998   -1.4787   -3.3502 H   0  0  0  0  0  0  0  0  0  0  0  0
   -0.5099   -1.0041    0.9405 H   0  0  0  0  0  0  0  0  0  0  0  0
   -1.9918    3.8946   -0.2057 H   0  0  0  0  0  0  0  0  0  0  0  0
  1 13  1  0  0  0  0
  1 25  1  0  0  0  0
  2  7  1  0  0  0  0
  2 20  1  0  0  0  0
  3 33  1  0  0  0  0
  3 61  1  0  0  0  0
  4 33  2  0  0  0  0
  5  9  1  0  0  0  0
  5 12  1  0  0  0  0
  5 14  1  0  0  0  0
  6 20  2  0  0  0  0
  6 22  1  0  0  0  0
  7 22  2  0  0  0  0
  8 25  2  0  0  0  0
  8 32  1  0  0  0  0
  9 10  1  0  0  0  0
  9 20  1  0  0  0  0
  9 34  1  0  0  0  0
 10 11  1  0  0  0  0
 10 35  1  0  0  0  0
 10 36  1  0  0  0  0
 11 12  1  0  0  0  0
 11 37  1  0  0  0  0
 11 38  1  0  0  0  0
 12 39  1  0  0  0  0
 12 40  1  0  0  0  0
 13 15  1  0  0  0  0
 13 16  1  0  0  0  0
 13 41  1  0  0  0  0
 14 21  1  0  0  0  0
 14 42  1  0  0  0  0
 14 43  1  0  0  0  0
 15 17  1  0  0  0  0
 15 44  1  0  0  0  0
 15 45  1  0  0  0  0
 16 18  1  0  0  0  0
 16 46  1  0  0  0  0
 16 47  1  0  0  0  0
 17 19  1  0  0  0  0
 17 48  1  0  0  0  0
 17 49  1  0  0  0  0
 18 19  1  0  0  0  0
 18 50  1  0  0  0  0
 18 51  1  0  0  0  0
 19 52  1  0  0  0  0
 19 53  1  0  0  0  0
 21 23  2  0  0  0  0
 21 24  1  0  0  0  0
 22 26  1  0  0  0  0
 23 27  1  0  0  0  0
 23 54  1  0  0  0  0
 24 28  2  0  0  0  0
 24 55  1  0  0  0  0
 25 29  1  0  0  0  0
 26 30  1  0  0  0  0
 26 32  2  0  0  0  0
 27 31  2  0  0  0  0
 27 56  1  0  0  0  0
 28 31  1  0  0  0  0
 28 57  1  0  0  0  0
 29 30  2  0  0  0  0
 29 58  1  0  0  0  0
 30 59  1  0  0  0  0
 31 33  1  0  0  0  0
 32 60  1  0  0  0  0
M  END
> <PUBCHEM_COMPOUND_CID>
45783578

> <PUBCHEM_CONFORMER_RMSD>
1

> <PUBCHEM_CONFORMER_DIVERSEORDER>
1
23
29
39
16
58
7
2
54
38
41
59
44
26
8
31
42
60
10
6
15
20
50
4
57
40
53
3
22
11
34
28
14
21
56
48
45
13
36
51
9
27
47
32
30
43
49
61
12
37
35
25
18
24
55
52
5
46
17
33
19

> <PUBCHEM_MMFF94_PARTIAL_CHARGES>
34
1 -0.36
12 0.27
13 0.28
14 0.41
2 -0.02
20 0.3
21 -0.14
22 0.46
23 -0.15
24 -0.15
25 0.39
26 0.05
27 -0.15
28 -0.15
29 -0.15
3 -0.65
30 -0.15
31 0.09
32 0.16
33 0.63
4 -0.57
5 -0.81
54 0.15
55 0.15
56 0.15
57 0.15
58 0.15
59 0.15
6 -0.57
60 0.15
61 0.5
7 -0.41
8 -0.62
9 0.45

> <PUBCHEM_EFFECTIVE_ROTOR_COUNT>
9.2

> <PUBCHEM_PHARMACOPHORE_FEATURES>
10
1 3 acceptor
1 4 acceptor
1 5 cation
3 3 4 33 anion
3 6 7 22 cation
5 2 6 7 20 22 rings
5 5 9 10 11 12 rings
6 13 15 16 17 18 19 rings
6 21 23 24 27 28 31 rings
6 8 25 26 29 30 32 rings

> <PUBCHEM_HEAVY_ATOM_COUNT>
33

> <PUBCHEM_ATOM_DEF_STEREO_COUNT>
1

> <PUBCHEM_ATOM_UDEF_STEREO_COUNT>
0

> <PUBCHEM_BOND_DEF_STEREO_COUNT>
0

> <PUBCHEM_BOND_UDEF_STEREO_COUNT>
0

> <PUBCHEM_ISOTOPIC_ATOM_COUNT>
0

> <PUBCHEM_COMPONENT_COUNT>
1

> <PUBCHEM_CACTVS_TAUTO_COUNT>
1

> <PUBCHEM_CONFORMER_ID>
02BA9A1A00000001

> <PUBCHEM_MMFF94_ENERGY>
69.8223

> <PUBCHEM_FEATURE_SELFOVERLAP>
50.805

> <PUBCHEM_SHAPE_FINGERPRINT>
10190108 129 18409441480808929706
10439779 11 17846504772634534345
10674148 151 17844543291468044668
10688039 33 18260819380757723884
11135926 11 18117266176674284324
11399939 17 17245276558262734147
11545043 162 17240470391327015551
11578080 2 17606139504577474458
12166972 35 17385448691329506638
12422481 6 18130499739094526097
12633257 1 18115857680196857971
13692114 37 17838340675439632985
13782708 43 17385720309942180099
13965767 371 17845353601086893066
14294032 229 16414633925334337999
14950920 106 18335421301027614715
15420108 30 17557972116673467084
15840311 113 16916516857130747403
15968369 153 17916860215203945877
1979834 28 17775011175809579087
21304253 335 17203610380475775759
21304303 94 7853579023886231304
21421861 104 18412542128820480532
22033318 11 18267885925263362961
3680242 22 18410294713683010587
4112364 45 16845004727674904955
4144715 1 18271544043493759911
513202 73 18186795843161082217
513532 50 15913061910177257436
5283268 108 18411696569918619308
5951187 136 15338845316834834698
59520757 100 17680986297839018829
6086070 43 18116689912548501327
7064713 232 17346306129099636614

> <PUBCHEM_SHAPE_MULTIPOLES>
635.72
15.12
4.06
2.39
23.11
4.44
0.2
-8.23
-12.62
-3.58
0.96
0.16
-0.9
-1.58

> <PUBCHEM_SHAPE_SELFOVERLAP>
1378.486

> <PUBCHEM_SHAPE_VOLUME>
345.6

> <PUBCHEM_COORDINATE_TYPE>
2
5
10

$$$$
