45784195
  -OEChem-12032416203D

 45 49  0     1  0  0  0  0  0999 V2000
    3.5162   -1.4489    0.5292 O   0  0  0  0  0  0  0  0  0  0  0  0
   -6.2544    1.8106    0.4839 O   0  0  0  0  0  0  0  0  0  0  0  0
   -7.3260   -0.3443    0.3579 O   0  0  0  0  0  0  0  0  0  0  0  0
   -1.0464   -0.4773   -0.2116 N   0  0  1  0  0  0  0  0  0  0  0  0
    3.0453    0.6964   -0.0300 N   0  0  0  0  0  0  0  0  0  0  0  0
    1.1412   -0.9027    0.5184 C   0  0  2  0  0  0  0  0  0  0  0  0
    0.2901   -0.7421   -0.7485 C   0  0  0  0  0  0  0  0  0  0  0  0
    0.3814   -0.1158    1.6004 C   0  0  0  0  0  0  0  0  0  0  0  0
   -0.8318    0.4656    0.8861 C   0  0  0  0  0  0  0  0  0  0  0  0
   -1.9567    0.0445   -1.2203 C   0  0  0  0  0  0  0  0  0  0  0  0
    2.5791   -0.4824    0.3194 C   0  0  0  0  0  0  0  0  0  0  0  0
   -3.3964   -0.0967   -0.8031 C   0  0  0  0  0  0  0  0  0  0  0  0
    4.4054    0.5035   -0.0564 C   0  0  0  0  0  0  0  0  0  0  0  0
    4.6975   -0.8087    0.2855 C   0  0  0  0  0  0  0  0  0  0  0  0
   -4.0997    1.0218   -0.3494 C   0  0  0  0  0  0  0  0  0  0  0  0
   -4.0217   -1.3540   -0.8765 C   0  0  0  0  0  0  0  0  0  0  0  0
   -5.4172    0.8433    0.0195 C   0  0  0  0  0  0  0  0  0  0  0  0
    5.4609    1.3765   -0.3566 C   0  0  0  0  0  0  0  0  0  0  0  0
   -5.3573   -1.5072   -0.4970 C   0  0  0  0  0  0  0  0  0  0  0  0
   -6.0292   -0.3872   -0.0523 C   0  0  0  0  0  0  0  0  0  0  0  0
    5.9784   -1.3419    0.3567 C   0  0  0  0  0  0  0  0  0  0  0  0
    6.7689    0.8744   -0.2955 C   0  0  0  0  0  0  0  0  0  0  0  0
    7.0199   -0.4580    0.0543 C   0  0  0  0  0  0  0  0  0  0  0  0
   -7.4620    1.0510    0.6959 C   0  0  0  0  0  0  0  0  0  0  0  0
    7.9147    1.7796   -0.6097 C   0  0  0  0  0  0  0  0  0  0  0  0
    1.1331   -1.9620    0.8125 H   0  0  0  0  0  0  0  0  0  0  0  0
    0.3099   -1.6520   -1.3582 H   0  0  0  0  0  0  0  0  0  0  0  0
    0.6466    0.0933   -1.3659 H   0  0  0  0  0  0  0  0  0  0  0  0
    0.0586   -0.8041    2.3915 H   0  0  0  0  0  0  0  0  0  0  0  0
    0.9828    0.6705    2.0689 H   0  0  0  0  0  0  0  0  0  0  0  0
   -1.6908    0.5296    1.5613 H   0  0  0  0  0  0  0  0  0  0  0  0
   -0.5957    1.4736    0.5212 H   0  0  0  0  0  0  0  0  0  0  0  0
   -1.7251    1.0844   -1.4881 H   0  0  0  0  0  0  0  0  0  0  0  0
   -1.8416   -0.5233   -2.1546 H   0  0  0  0  0  0  0  0  0  0  0  0
   -3.6323    1.9985   -0.2855 H   0  0  0  0  0  0  0  0  0  0  0  0
   -3.4699   -2.2214   -1.2308 H   0  0  0  0  0  0  0  0  0  0  0  0
    5.2640    2.4085   -0.6293 H   0  0  0  0  0  0  0  0  0  0  0  0
   -5.8429   -2.4748   -0.5520 H   0  0  0  0  0  0  0  0  0  0  0  0
    6.1617   -2.3741    0.6278 H   0  0  0  0  0  0  0  0  0  0  0  0
    8.0428   -0.8270    0.0935 H   0  0  0  0  0  0  0  0  0  0  0  0
   -8.2611    1.4843    0.0833 H   0  0  0  0  0  0  0  0  0  0  0  0
   -7.7457    1.1304    1.7516 H   0  0  0  0  0  0  0  0  0  0  0  0
    8.7919    1.5283   -0.0039 H   0  0  0  0  0  0  0  0  0  0  0  0
    7.6662    2.8245   -0.3947 H   0  0  0  0  0  0  0  0  0  0  0  0
    8.1808    1.6942   -1.6679 H   0  0  0  0  0  0  0  0  0  0  0  0
  1 11  1  0  0  0  0
  1 14  1  0  0  0  0
  2 17  1  0  0  0  0
  2 24  1  0  0  0  0
  3 20  1  0  0  0  0
  3 24  1  0  0  0  0
  4  7  1  0  0  0  0
  4  9  1  0  0  0  0
  4 10  1  0  0  0  0
  5 11  2  0  0  0  0
  5 13  1  0  0  0  0
  6  7  1  0  0  0  0
  6  8  1  0  0  0  0
  6 11  1  0  0  0  0
  6 26  1  0  0  0  0
  7 27  1  0  0  0  0
  7 28  1  0  0  0  0
  8  9  1  0  0  0  0
  8 29  1  0  0  0  0
  8 30  1  0  0  0  0
  9 31  1  0  0  0  0
  9 32  1  0  0  0  0
 10 12  1  0  0  0  0
 10 33  1  0  0  0  0
 10 34  1  0  0  0  0
 12 15  2  0  0  0  0
 12 16  1  0  0  0  0
 13 14  2  0  0  0  0
 13 18  1  0  0  0  0
 14 21  1  0  0  0  0
 15 17  1  0  0  0  0
 15 35  1  0  0  0  0
 16 19  2  0  0  0  0
 16 36  1  0  0  0  0
 17 20  2  0  0  0  0
 18 22  2  0  0  0  0
 18 37  1  0  0  0  0
 19 20  1  0  0  0  0
 19 38  1  0  0  0  0
 21 23  2  0  0  0  0
 21 39  1  0  0  0  0
 22 23  1  0  0  0  0
 22 25  1  0  0  0  0
 23 40  1  0  0  0  0
 24 41  1  0  0  0  0
 24 42  1  0  0  0  0
 25 43  1  0  0  0  0
 25 44  1  0  0  0  0
 25 45  1  0  0  0  0
M  END
> <PUBCHEM_COMPOUND_CID>
45784195

> <PUBCHEM_CONFORMER_RMSD>
0.8

> <PUBCHEM_CONFORMER_DIVERSEORDER>
1
82
62
26
67
47
45
32
60
69
51
30
39
5
64
61
19
72
84
3
83
52
63
65
17
56
31
21
11
55
79
15
71
12
38
76
87
4
74
37
58
57
35
18
53
14
50
27
48
66
41
8
81
49
59
16
43
36
7
33
25
34
2
77
73
23
10
44
54
78
75
42
22
80
13
29
28
70
68
46
20
24
86
6
88
40
9
85

> <PUBCHEM_MMFF94_PARTIAL_CHARGES>
30
1 -0.28
10 0.41
11 0.3
12 -0.14
13 0.23
14 0.14
15 -0.15
16 -0.15
17 0.08
18 -0.15
19 -0.15
2 -0.36
20 0.08
21 -0.15
22 -0.14
23 -0.15
24 0.56
25 0.14
3 -0.36
35 0.15
36 0.15
37 0.15
38 0.15
39 0.15
4 -0.81
40 0.15
5 -0.57
6 0.18
7 0.27
9 0.27

> <PUBCHEM_EFFECTIVE_ROTOR_COUNT>
4.6

> <PUBCHEM_PHARMACOPHORE_FEATURES>
8
1 2 acceptor
1 3 acceptor
1 4 cation
5 1 5 11 13 14 rings
5 2 3 17 20 24 rings
5 4 6 7 8 9 rings
6 12 15 16 17 19 20 rings
6 13 14 18 21 22 23 rings

> <PUBCHEM_HEAVY_ATOM_COUNT>
25

> <PUBCHEM_ATOM_DEF_STEREO_COUNT>
1

> <PUBCHEM_ATOM_UDEF_STEREO_COUNT>
0

> <PUBCHEM_BOND_DEF_STEREO_COUNT>
0

> <PUBCHEM_BOND_UDEF_STEREO_COUNT>
0

> <PUBCHEM_ISOTOPIC_ATOM_COUNT>
0

> <PUBCHEM_COMPONENT_COUNT>
1

> <PUBCHEM_CACTVS_TAUTO_COUNT>
1

> <PUBCHEM_CONFORMER_ID>
02BA9C8300000001

> <PUBCHEM_MMFF94_ENERGY>
54.3201

> <PUBCHEM_FEATURE_SELFOVERLAP>
40.871

> <PUBCHEM_SHAPE_FINGERPRINT>
10 15 18411985754651705067
10066227 112 17203602713938014833
10299344 5 18412543215035814743
10595046 47 18408600344678994818
106641 1 13623533480814628244
10670039 82 15626232282190968147
11315181 36 18408039629163478911
11524674 6 15285363920878630761
11646440 116 16515406261594393748
11719270 70 17489587827596496486
12166972 35 18113337509853349284
12236239 1 18413386536275214318
12516196 113 9295287244427505414
12643181 29 14405182885348732428
12730499 353 17458060435618766426
13073987 5 16009017337746708356
13533116 47 17023455349358009114
14170010 4 17676489458605463148
14251752 14 17846497023758657600
14251764 18 18411980273503269773
14251764 46 16081088177817217995
14849402 71 18187652461018435020
14856354 85 18202283637080040551
14933364 13 18411699889390314324
15183329 4 16200435766575369177
15419008 47 14996278136863960423
15690457 1 7997969055177256360
15716309 27 18260546710532392043
1577012 14 18413102875160189214
16989713 51 16987987445151195591
16994733 274 18261108556442316240
17093844 174 16630516350325814631
18006028 8 12463572880801533330
19489759 90 8574713516404438783
20157964 124 18187364329659222106
20735858 18 14706926245887730496
21150785 3 18343585161894098544
21521721 280 18113337522584789602
21792961 116 17275110500501049502
21795232 338 18267871760593270811
220451 1 18342450443760417094
22224240 67 16732702757096689299
23035841 295 18412823577779454603
23081809 10 18271231781399940766
23198884 109 18334575741782543635
23516275 137 18198361588356803227
23536379 177 18411697677561330106
23569943 247 16952800654336477378
23576562 1 16987699359861274781
2747138 104 16588314868873590685
29717793 49 18060142025379250518
3004659 81 17275384335327052752
3009799 131 15195283122999462283
314173 85 14908180862947227074
335352 9 17846493734884931585
34797466 226 18409732850952518254
397830 11 15647916957260907220
4073 2 18186524336392184642
4098825 35 18410573946834342610
4258327 124 16371308721997917678
4325135 7 18334012800445385125
4340502 62 16370441147067628634
445580 37 17632585928584427793
5265222 85 17987514982216646454
5283156 175 17560803204733764998
5758199 1 18113337522405473778
59682541 35 16588311613451917049
59755656 215 15051740772318939852
59755656 520 18113333128554268419

> <PUBCHEM_SHAPE_MULTIPOLES>
486.92
24.05
1.53
0.99
1.72
0.16
0.08
6.75
-0.43
0.39
-0.06
-0.36
-0.02
-1.57

> <PUBCHEM_SHAPE_SELFOVERLAP>
1085.434

> <PUBCHEM_SHAPE_VOLUME>
262.3

> <PUBCHEM_COORDINATE_TYPE>
2
5
10

$$$$
