26743108
  -OEChem-12032416193D

 62 65  0     1  0  0  0  0  0999 V2000
   -6.3468   -1.5984    0.2275 S   0  0  0  0  0  0  0  0  0  0  0  0
    3.3289    1.3010   -1.8047 O   0  0  0  0  0  0  0  0  0  0  0  0
   -3.4159   -2.5386    0.9349 O   0  0  0  0  0  0  0  0  0  0  0  0
   -0.0446    1.7705    2.2688 N   0  0  0  0  0  0  0  0  0  0  0  0
    4.8366   -0.1206   -0.7552 N   0  0  0  0  0  0  0  0  0  0  0  0
    7.5505   -0.6873   -0.0333 N   0  0  0  0  0  0  0  0  0  0  0  0
   -2.0845   -2.2317    1.1882 N   0  0  0  0  0  0  0  0  0  0  0  0
    1.2261    0.8626   -0.2347 C   0  0  1  0  0  0  0  0  0  0  0  0
   -0.0500    0.2044    0.3418 C   0  0  2  0  0  0  0  0  0  0  0  0
    1.3235    2.3073    0.2834 C   0  0  0  0  0  0  0  0  0  0  0  0
   -0.1319    0.3655    1.8692 C   0  0  0  0  0  0  0  0  0  0  0  0
    2.5160    0.0884    0.0624 C   0  0  0  0  0  0  0  0  0  0  0  0
    1.1935    2.3919    1.8036 C   0  0  0  0  0  0  0  0  0  0  0  0
   -0.1960   -1.2661   -0.0518 C   0  0  0  0  0  0  0  0  0  0  0  0
    3.5900    0.4814   -0.9205 C   0  0  0  0  0  0  0  0  0  0  0  0
   -1.6242   -1.7188    0.0435 C   0  0  0  0  0  0  0  0  0  0  0  0
    5.9321    0.2114   -1.6648 C   0  0  0  0  0  0  0  0  0  0  0  0
    5.1410   -1.1919    0.1977 C   0  0  0  0  0  0  0  0  0  0  0  0
    7.2327    0.4564   -0.9006 C   0  0  0  0  0  0  0  0  0  0  0  0
    6.4605   -0.9248    0.9244 C   0  0  0  0  0  0  0  0  0  0  0  0
   -2.6102   -1.6776   -0.9573 C   0  0  0  0  0  0  0  0  0  0  0  0
    8.8126   -0.4629    0.6704 C   0  0  0  0  0  0  0  0  0  0  0  0
   -3.7171   -2.2042   -0.3459 C   0  0  0  0  0  0  0  0  0  0  0  0
   -5.0937   -2.4630   -0.7843 C   0  0  0  0  0  0  0  0  0  0  0  0
   -5.9494    0.1086   -0.1215 C   0  0  0  0  0  0  0  0  0  0  0  0
   -6.0081    0.5850   -1.4311 C   0  0  0  0  0  0  0  0  0  0  0  0
   -5.5794    0.9645    0.9160 C   0  0  0  0  0  0  0  0  0  0  0  0
   -5.6970    1.9173   -1.7035 C   0  0  0  0  0  0  0  0  0  0  0  0
   -5.2684    2.2968    0.6436 C   0  0  0  0  0  0  0  0  0  0  0  0
   -5.3272    2.7730   -0.6661 C   0  0  0  0  0  0  0  0  0  0  0  0
    1.0744    0.9061   -1.3221 H   0  0  0  0  0  0  0  0  0  0  0  0
   -0.8998    0.7592   -0.0865 H   0  0  0  0  0  0  0  0  0  0  0  0
    0.5177    2.8983   -0.1728 H   0  0  0  0  0  0  0  0  0  0  0  0
    2.2601    2.7842   -0.0250 H   0  0  0  0  0  0  0  0  0  0  0  0
   -1.0874   -0.0138    2.2435 H   0  0  0  0  0  0  0  0  0  0  0  0
    0.6567   -0.2133    2.3658 H   0  0  0  0  0  0  0  0  0  0  0  0
    2.3608   -0.9865   -0.0672 H   0  0  0  0  0  0  0  0  0  0  0  0
    2.8663    0.2662    1.0826 H   0  0  0  0  0  0  0  0  0  0  0  0
    2.0575    1.9394    2.3025 H   0  0  0  0  0  0  0  0  0  0  0  0
    1.1832    3.4475    2.0974 H   0  0  0  0  0  0  0  0  0  0  0  0
    0.4324   -1.9128    0.5731 H   0  0  0  0  0  0  0  0  0  0  0  0
    0.1327   -1.4110   -1.0891 H   0  0  0  0  0  0  0  0  0  0  0  0
   -0.0936    1.8360    3.2851 H   0  0  0  0  0  0  0  0  0  0  0  0
    5.6836    1.0940   -2.2632 H   0  0  0  0  0  0  0  0  0  0  0  0
    6.0448   -0.6319   -2.3573 H   0  0  0  0  0  0  0  0  0  0  0  0
    5.2050   -2.1226   -0.3797 H   0  0  0  0  0  0  0  0  0  0  0  0
    4.3466   -1.3263    0.9338 H   0  0  0  0  0  0  0  0  0  0  0  0
    8.0381    0.6107   -1.6286 H   0  0  0  0  0  0  0  0  0  0  0  0
    7.1419    1.3765   -0.3079 H   0  0  0  0  0  0  0  0  0  0  0  0
    6.3404   -0.0620    1.5932 H   0  0  0  0  0  0  0  0  0  0  0  0
    6.6937   -1.7959    1.5483 H   0  0  0  0  0  0  0  0  0  0  0  0
   -2.5305   -1.3171   -1.9722 H   0  0  0  0  0  0  0  0  0  0  0  0
    9.0706   -1.3334    1.2838 H   0  0  0  0  0  0  0  0  0  0  0  0
    8.7742    0.4184    1.3210 H   0  0  0  0  0  0  0  0  0  0  0  0
    9.6323   -0.3287   -0.0441 H   0  0  0  0  0  0  0  0  0  0  0  0
   -5.2274   -2.1967   -1.8376 H   0  0  0  0  0  0  0  0  0  0  0  0
   -5.3004   -3.5360   -0.7061 H   0  0  0  0  0  0  0  0  0  0  0  0
   -6.3024   -0.0605   -2.2548 H   0  0  0  0  0  0  0  0  0  0  0  0
   -5.5262    0.6107    1.9426 H   0  0  0  0  0  0  0  0  0  0  0  0
   -5.7444    2.2888   -2.7230 H   0  0  0  0  0  0  0  0  0  0  0  0
   -4.9795    2.9631    1.4511 H   0  0  0  0  0  0  0  0  0  0  0  0
   -5.0850    3.8103   -0.8780 H   0  0  0  0  0  0  0  0  0  0  0  0
  1 24  1  0  0  0  0
  1 25  1  0  0  0  0
  2 15  2  0  0  0  0
  3  7  1  0  0  0  0
  3 23  1  0  0  0  0
  4 11  1  0  0  0  0
  4 13  1  0  0  0  0
  4 43  1  0  0  0  0
  5 15  1  0  0  0  0
  5 17  1  0  0  0  0
  5 18  1  0  0  0  0
  6 19  1  0  0  0  0
  6 20  1  0  0  0  0
  6 22  1  0  0  0  0
  7 16  2  0  0  0  0
  8  9  1  0  0  0  0
  8 10  1  0  0  0  0
  8 12  1  0  0  0  0
  8 31  1  0  0  0  0
  9 11  1  0  0  0  0
  9 14  1  0  0  0  0
  9 32  1  0  0  0  0
 10 13  1  0  0  0  0
 10 33  1  0  0  0  0
 10 34  1  0  0  0  0
 11 35  1  0  0  0  0
 11 36  1  0  0  0  0
 12 15  1  0  0  0  0
 12 37  1  0  0  0  0
 12 38  1  0  0  0  0
 13 39  1  0  0  0  0
 13 40  1  0  0  0  0
 14 16  1  0  0  0  0
 14 41  1  0  0  0  0
 14 42  1  0  0  0  0
 16 21  1  0  0  0  0
 17 19  1  0  0  0  0
 17 44  1  0  0  0  0
 17 45  1  0  0  0  0
 18 20  1  0  0  0  0
 18 46  1  0  0  0  0
 18 47  1  0  0  0  0
 19 48  1  0  0  0  0
 19 49  1  0  0  0  0
 20 50  1  0  0  0  0
 20 51  1  0  0  0  0
 21 23  2  0  0  0  0
 21 52  1  0  0  0  0
 22 53  1  0  0  0  0
 22 54  1  0  0  0  0
 22 55  1  0  0  0  0
 23 24  1  0  0  0  0
 24 56  1  0  0  0  0
 24 57  1  0  0  0  0
 25 26  2  0  0  0  0
 25 27  1  0  0  0  0
 26 28  1  0  0  0  0
 26 58  1  0  0  0  0
 27 29  2  0  0  0  0
 27 59  1  0  0  0  0
 28 30  2  0  0  0  0
 28 60  1  0  0  0  0
 29 30  1  0  0  0  0
 29 61  1  0  0  0  0
 30 62  1  0  0  0  0
M  END
> <PUBCHEM_COMPOUND_CID>
26743108

> <PUBCHEM_CONFORMER_RMSD>
1.6

> <PUBCHEM_CONFORMER_DIVERSEORDER>
1
18
70
27
69
94
21
3
45
8
7
49
90
17
50
67
66
81
64
34
59
22
75
95
55
93
25
36
41
33
78
15
29
88
76
60
79
32
52
71
63
89
61
86
14
37
57
68
56
16
51
40
47
2
91
12
48
46
80
10
77
39
30
9
83
42
92
58
74
5
26
6
13
31
84
72
44
38
24
54
20
53
65
85
11
43
82
19
87
4
35
62
73
23
28

> <PUBCHEM_MMFF94_PARTIAL_CHARGES>
34
1 -0.33
11 0.27
12 0.06
13 0.27
14 0.18
15 0.57
16 0.11
17 0.3
18 0.3
19 0.27
2 -0.57
20 0.27
21 -0.15
22 0.27
23 -0.04
24 0.41
25 0.1
26 -0.15
27 -0.15
28 -0.15
29 -0.15
3 -0.02
30 -0.15
4 -0.9
43 0.36
5 -0.66
52 0.15
58 0.15
59 0.15
6 -0.81
60 0.15
61 0.15
62 0.15
7 -0.41

> <PUBCHEM_EFFECTIVE_ROTOR_COUNT>
10.4

> <PUBCHEM_PHARMACOPHORE_FEATURES>
9
1 2 acceptor
1 4 cation
1 4 donor
1 6 cation
1 7 acceptor
5 3 7 16 21 23 rings
6 25 26 27 28 29 30 rings
6 4 8 9 10 11 13 rings
6 5 6 17 18 19 20 rings

> <PUBCHEM_HEAVY_ATOM_COUNT>
30

> <PUBCHEM_ATOM_DEF_STEREO_COUNT>
2

> <PUBCHEM_ATOM_UDEF_STEREO_COUNT>
0

> <PUBCHEM_BOND_DEF_STEREO_COUNT>
0

> <PUBCHEM_BOND_UDEF_STEREO_COUNT>
0

> <PUBCHEM_ISOTOPIC_ATOM_COUNT>
0

> <PUBCHEM_COMPONENT_COUNT>
1

> <PUBCHEM_CACTVS_TAUTO_COUNT>
1

> <PUBCHEM_CONFORMER_ID>
0198114400000001

> <PUBCHEM_MMFF94_ENERGY>
52.0418

> <PUBCHEM_FEATURE_SELFOVERLAP>
45.672

> <PUBCHEM_SHAPE_FINGERPRINT>
100830 39 18334294258442829725
10165383 225 18339646643030629273
10577160 183 18188202113868424882
10613725 11 18186802499822008886
10670039 82 18260542338825143965
11273773 118 17023177202606458255
12498461 61 18115015296595062738
12645989 146 18057600061717482487
13885169 127 18408321090459040550
13914758 101 18260269642534953510
14251752 14 18334858320407528726
14279260 333 17988645129998599325
1454969 45 9295286127461455195
15021287 119 17312829277157260437
15119646 104 18040431071617103778
15183329 4 18259981586966855615
15328829 1 18041278773374849576
15975801 100 17750223730398124389
16992727 255 18263082132622346061
17913733 40 13839978924152527617
17980427 23 12103566424253664739
195137 175 18186810197041635868
21365058 27 14562530673962527793
21458453 9 10231747890489603166
21756936 100 16370443354427584573
23198884 109 17968097564284160039
23559900 14 18059571442277375584
3004659 81 18410862100917910446
3009799 131 17988923366606813814
4098825 35 17967813877404404564
42626532 9 17970639703865781393
4394409 98 18343585148598279622
444769 64 17676488328348445454
44555599 121 17894639183905750244
44575985 287 16444774825176277692
4625314 4 10880004544647474234
57527293 21 10015047325661537695
59755656 520 15285362824928948080
6009941 240 18409729551795129398
6086070 43 18201145633585956051
6328613 192 18187364315872285685
6523845 18 13767925741130194236
7226269 152 18271808986581731193
9862886 166 18272936007264229577

> <PUBCHEM_SHAPE_MULTIPOLES>
589.57
22.44
2.93
1.63
27.5
0.22
0.14
-1.58
-4.74
-5.43
0.39
0.12
0.74
0.18

> <PUBCHEM_SHAPE_SELFOVERLAP>
1218.876

> <PUBCHEM_SHAPE_VOLUME>
339.1

> <PUBCHEM_COORDINATE_TYPE>
2
5
10

$$$$
