28960610
  -OEChem-12032416293D

 64 68  0     1  0  0  0  0  0999 V2000
    3.1925    2.6922   -1.4634 O   0  0  0  0  0  0  0  0  0  0  0  0
    5.2028    2.7288   -0.3081 O   0  0  0  0  0  0  0  0  0  0  0  0
    4.1084    1.4629    2.0268 O   0  0  0  0  0  0  0  0  0  0  0  0
    2.9998   -0.1592   -1.0404 N   0  0  2  0  0  0  0  0  0  0  0  0
    0.9558    2.2233    0.3431 N   0  0  0  0  0  0  0  0  0  0  0  0
    2.1416   -4.6159   -0.9192 N   0  0  0  0  0  0  0  0  0  0  0  0
    3.8636    0.7171   -0.2481 C   0  0  2  0  0  0  0  0  0  0  0  0
    2.3207    2.5276    0.7856 C   0  0  1  0  0  0  0  0  0  0  0  0
    3.1228    1.2225    1.0116 C   0  0  2  0  0  0  0  0  0  0  0  0
    2.9745    3.4502   -0.2685 C   0  0  1  0  0  0  0  0  0  0  0  0
    4.3368    1.9051   -1.1062 C   0  0  1  0  0  0  0  0  0  0  0  0
    4.3988    3.8595    0.0607 C   0  0  0  0  0  0  0  0  0  0  0  0
    2.9249   -1.4870   -0.4328 C   0  0  0  0  0  0  0  0  0  0  0  0
    3.4903   -0.2520   -2.4147 C   0  0  0  0  0  0  0  0  0  0  0  0
    0.1420    1.7845    1.4639 C   0  0  0  0  0  0  0  0  0  0  0  0
    1.6674   -2.2278   -0.8883 C   0  0  0  0  0  0  0  0  0  0  0  0
   -1.2658    1.4590    1.0411 C   0  0  0  0  0  0  0  0  0  0  0  0
    1.5665   -3.5909   -0.2514 C   0  0  0  0  0  0  0  0  0  0  0  0
   -2.1711    2.4878    0.7800 C   0  0  0  0  0  0  0  0  0  0  0  0
   -1.6647    0.1290    0.9100 C   0  0  0  0  0  0  0  0  0  0  0  0
    0.9064   -3.7268    0.9593 C   0  0  0  0  0  0  0  0  0  0  0  0
   -3.4753    2.1860    0.3878 C   0  0  0  0  0  0  0  0  0  0  0  0
   -2.9688   -0.1727    0.5177 C   0  0  0  0  0  0  0  0  0  0  0  0
   -3.8741    0.8558    0.2567 C   0  0  0  0  0  0  0  0  0  0  0  0
    0.8321   -4.9967    1.5208 C   0  0  0  0  0  0  0  0  0  0  0  0
    2.0490   -5.8353   -0.3428 C   0  0  0  0  0  0  0  0  0  0  0  0
   -5.2271    0.5430   -0.1495 C   0  0  0  0  0  0  0  0  0  0  0  0
    1.4118   -6.0764    0.8637 C   0  0  0  0  0  0  0  0  0  0  0  0
   -6.2241    0.3816    0.8125 C   0  0  0  0  0  0  0  0  0  0  0  0
   -5.5343    0.4030   -1.5028 C   0  0  0  0  0  0  0  0  0  0  0  0
   -7.5287    0.0801    0.4212 C   0  0  0  0  0  0  0  0  0  0  0  0
   -6.8388    0.1015   -1.8942 C   0  0  0  0  0  0  0  0  0  0  0  0
   -7.8360   -0.0600   -0.9322 C   0  0  0  0  0  0  0  0  0  0  0  0
    4.7688    0.1757    0.0655 H   0  0  0  0  0  0  0  0  0  0  0  0
    2.2779    3.1075    1.7176 H   0  0  0  0  0  0  0  0  0  0  0  0
    2.4991    0.4378    1.4427 H   0  0  0  0  0  0  0  0  0  0  0  0
    2.3441    4.3210   -0.4783 H   0  0  0  0  0  0  0  0  0  0  0  0
    4.9134    1.6412   -1.9959 H   0  0  0  0  0  0  0  0  0  0  0  0
    4.7194    4.6980   -0.5670 H   0  0  0  0  0  0  0  0  0  0  0  0
    4.5580    4.1212    1.1102 H   0  0  0  0  0  0  0  0  0  0  0  0
    0.9828    1.5015   -0.3771 H   0  0  0  0  0  0  0  0  0  0  0  0
    3.8242   -2.0762   -0.6623 H   0  0  0  0  0  0  0  0  0  0  0  0
    2.8912   -1.4329    0.6615 H   0  0  0  0  0  0  0  0  0  0  0  0
    3.6373    1.7207    2.8375 H   0  0  0  0  0  0  0  0  0  0  0  0
    2.9505   -1.0212   -2.9779 H   0  0  0  0  0  0  0  0  0  0  0  0
    4.5524   -0.5208   -2.4699 H   0  0  0  0  0  0  0  0  0  0  0  0
    3.2988    0.6580   -2.9927 H   0  0  0  0  0  0  0  0  0  0  0  0
    0.0876    2.5735    2.2260 H   0  0  0  0  0  0  0  0  0  0  0  0
    0.5614    0.9087    1.9700 H   0  0  0  0  0  0  0  0  0  0  0  0
    1.6540   -2.3687   -1.9749 H   0  0  0  0  0  0  0  0  0  0  0  0
    0.7707   -1.6421   -0.6482 H   0  0  0  0  0  0  0  0  0  0  0  0
   -1.8721    3.5280    0.8791 H   0  0  0  0  0  0  0  0  0  0  0  0
   -0.9698   -0.6820    1.1090 H   0  0  0  0  0  0  0  0  0  0  0  0
    0.4600   -2.8780    1.4658 H   0  0  0  0  0  0  0  0  0  0  0  0
   -4.1685    2.9999    0.1883 H   0  0  0  0  0  0  0  0  0  0  0  0
   -3.2630   -1.2151    0.4200 H   0  0  0  0  0  0  0  0  0  0  0  0
    0.3241   -5.1445    2.4690 H   0  0  0  0  0  0  0  0  0  0  0  0
    2.5171   -6.6435   -0.8949 H   0  0  0  0  0  0  0  0  0  0  0  0
    1.3663   -7.0750    1.2828 H   0  0  0  0  0  0  0  0  0  0  0  0
   -6.0016    0.4874    1.8717 H   0  0  0  0  0  0  0  0  0  0  0  0
   -4.7691    0.5256   -2.2657 H   0  0  0  0  0  0  0  0  0  0  0  0
   -8.3051   -0.0457    1.1701 H   0  0  0  0  0  0  0  0  0  0  0  0
   -7.0783   -0.0075   -2.9479 H   0  0  0  0  0  0  0  0  0  0  0  0
   -8.8516   -0.2947   -1.2370 H   0  0  0  0  0  0  0  0  0  0  0  0
  1 10  1  0  0  0  0
  1 11  1  0  0  0  0
  2 11  1  0  0  0  0
  2 12  1  0  0  0  0
  3  9  1  0  0  0  0
  3 44  1  0  0  0  0
  4  7  1  0  0  0  0
  4 13  1  0  0  0  0
  4 14  1  0  0  0  0
  5  8  1  0  0  0  0
  5 15  1  0  0  0  0
  5 41  1  0  0  0  0
  6 18  1  0  0  0  0
  6 26  2  0  0  0  0
  7  9  1  0  0  0  0
  7 11  1  0  0  0  0
  7 34  1  0  0  0  0
  8  9  1  0  0  0  0
  8 10  1  0  0  0  0
  8 35  1  0  0  0  0
  9 36  1  0  0  0  0
 10 12  1  0  0  0  0
 10 37  1  0  0  0  0
 11 38  1  0  0  0  0
 12 39  1  0  0  0  0
 12 40  1  0  0  0  0
 13 16  1  0  0  0  0
 13 42  1  0  0  0  0
 13 43  1  0  0  0  0
 14 45  1  0  0  0  0
 14 46  1  0  0  0  0
 14 47  1  0  0  0  0
 15 17  1  0  0  0  0
 15 48  1  0  0  0  0
 15 49  1  0  0  0  0
 16 18  1  0  0  0  0
 16 50  1  0  0  0  0
 16 51  1  0  0  0  0
 17 19  2  0  0  0  0
 17 20  1  0  0  0  0
 18 21  2  0  0  0  0
 19 22  1  0  0  0  0
 19 52  1  0  0  0  0
 20 23  2  0  0  0  0
 20 53  1  0  0  0  0
 21 25  1  0  0  0  0
 21 54  1  0  0  0  0
 22 24  2  0  0  0  0
 22 55  1  0  0  0  0
 23 24  1  0  0  0  0
 23 56  1  0  0  0  0
 24 27  1  0  0  0  0
 25 28  2  0  0  0  0
 25 57  1  0  0  0  0
 26 28  1  0  0  0  0
 26 58  1  0  0  0  0
 27 29  2  0  0  0  0
 27 30  1  0  0  0  0
 28 59  1  0  0  0  0
 29 31  1  0  0  0  0
 29 60  1  0  0  0  0
 30 32  2  0  0  0  0
 30 61  1  0  0  0  0
 31 33  2  0  0  0  0
 31 62  1  0  0  0  0
 32 33  1  0  0  0  0
 32 63  1  0  0  0  0
 33 64  1  0  0  0  0
M  END
> <PUBCHEM_COMPOUND_CID>
28960610

> <PUBCHEM_CONFORMER_RMSD>
1

> <PUBCHEM_CONFORMER_DIVERSEORDER>
1
121
157
133
130
184
46
189
170
3
49
75
181
33
95
103
171
165
186
176
146
182
74
44
123
120
32
125
82
53
18
96
116
98
154
194
22
192
88
134
69
148
8
80
139
160
94
172
63
73
175
43
65
166
180
84
34
141
77
86
111
136
183
29
19
110
93
113
83
109
152
7
23
178
16
190
56
31
13
117
167
163
185
122
151
55
158
118
187
191
115
36
149
91
54
27
174
101
155
156
81
30
106
42
39
9
112
128
168
102
144
15
131
87
179
60
57
193
21
90
126
169
47
177
132
68
99
70
124
71
14
137
92
89
26
25
164
6
20
28
59
188
153
129
72
147
17
58
52
10
114
142
2
35
127
150
159
76
119
107
145
24
108
48
5
143
85
100
40
67
66
162
138
140
135
105
64
41
78
104
45
37
50
161
38
97
79
61
12
62
173
51
4
11

> <PUBCHEM_MMFF94_PARTIAL_CHARGES>
46
1 -0.56
10 0.28
11 0.56
12 0.28
13 0.27
14 0.27
15 0.41
16 0.14
17 -0.14
18 0.17
19 -0.15
2 -0.56
20 -0.15
21 -0.15
22 -0.15
23 -0.15
25 -0.15
26 0.16
28 -0.15
29 -0.15
3 -0.68
30 -0.15
31 -0.15
32 -0.15
33 -0.15
4 -0.81
41 0.36
44 0.4
5 -0.9
52 0.15
53 0.15
54 0.15
55 0.15
56 0.15
57 0.15
58 0.15
59 0.15
6 -0.62
60 0.15
61 0.15
62 0.15
63 0.15
64 0.15
7 0.27
8 0.27
9 0.28

> <PUBCHEM_EFFECTIVE_ROTOR_COUNT>
9.2

> <PUBCHEM_PHARMACOPHORE_FEATURES>
12
1 1 acceptor
1 2 acceptor
1 3 acceptor
1 3 donor
1 4 cation
1 5 cation
1 5 donor
1 6 acceptor
6 17 19 20 22 23 24 rings
6 27 29 30 31 32 33 rings
6 6 18 21 25 26 28 rings
8 1 2 7 8 9 10 11 12 rings

> <PUBCHEM_HEAVY_ATOM_COUNT>
33

> <PUBCHEM_ATOM_DEF_STEREO_COUNT>
5

> <PUBCHEM_ATOM_UDEF_STEREO_COUNT>
0

> <PUBCHEM_BOND_DEF_STEREO_COUNT>
0

> <PUBCHEM_BOND_UDEF_STEREO_COUNT>
0

> <PUBCHEM_ISOTOPIC_ATOM_COUNT>
0

> <PUBCHEM_COMPONENT_COUNT>
1

> <PUBCHEM_CACTVS_TAUTO_COUNT>
2

> <PUBCHEM_CONFORMER_ID>
01B9E76200000001

> <PUBCHEM_MMFF94_ENERGY>
105.3477

> <PUBCHEM_FEATURE_SELFOVERLAP>
60.946

> <PUBCHEM_SHAPE_FINGERPRINT>
10319688 140 18338797819426297315
10622 236 17982728576657837479
10675989 125 18413110567246487513
10688039 33 16969432297141674218
11014199 57 17546170696994745362
11093857 51 17969812772131841342
11181472 205 18339357458814962649
11204353 107 18411144666796358327
11991303 11 18044946911769015932
12717326 68 17757534271753203650
13150687 139 18269568302946060468
13540713 5 18058453098220573393
1361 2 18410857698160135581
13617811 41 18341324583363290153
14675020 138 18271229612662853504
15183329 4 17632297913269655085
15264996 163 17179696853117564619
15419008 42 17896861202627370597
15484559 13 18342181102451037172
15927050 60 18341894156277503655
15968369 26 18262222332078111739
16993438 75 17832709350116316906
19026451 147 18197216949238018115
19315092 285 17916861292780924858
19319366 153 18341887515497928607
20721686 124 18333723624460983138
20775530 9 17759821242436376826
21133410 52 18197204859596605446
21360442 67 18336829809719028939
22956985 138 18050278181659427954
23516275 137 16771302246893351599
23569914 152 17401735573532988909
23845131 108 18264208178631780310
24941158 1 17972853926483112183
25223398 141 17825978054226840006
3103668 31 17617107240354534310
3534868 343 18410300185704487189
3882209 13 17758655772795564706
44317340 157 18263365781680053397
463206 1 17988075711914373733
4756261 7 18122313841447562786
6058803 2 17985277278839269249
6669772 16 18409447016541933683
6898599 12 17686065289380917268

> <PUBCHEM_SHAPE_MULTIPOLES>
646.57
15.44
7.55
1.64
36.35
15.19
-0.41
-7.77
-5.37
-13.95
1.64
-0.23
0.07
-0.46

> <PUBCHEM_SHAPE_SELFOVERLAP>
1401.491

> <PUBCHEM_SHAPE_VOLUME>
350.9

> <PUBCHEM_COORDINATE_TYPE>
2
5
10

$$$$
