45361055
  -OEChem-12032416293D

 55 58  0     1  0  0  0  0  0999 V2000
    7.1064   -3.0227   -0.1450 S   0  0  0  0  0  0  0  0  0  0  0  0
    1.5911   -0.9430    1.2654 O   0  0  0  0  0  0  0  0  0  0  0  0
   -4.3732    1.7627    0.2758 O   0  0  0  0  0  0  0  0  0  0  0  0
    0.4529    2.1199   -0.8114 N   0  0  1  0  0  0  0  0  0  0  0  0
    3.5363    0.2549   -0.1748 N   0  0  1  0  0  0  0  0  0  0  0  0
    0.5428    1.0057    1.8483 N   0  0  0  0  0  0  0  0  0  0  0  0
    4.7131   -2.2853   -0.2198 N   0  0  0  0  0  0  0  0  0  0  0  0
   -3.7845   -0.4886   -0.0363 N   0  0  0  0  0  0  0  0  0  0  0  0
    5.4958   -3.3150   -0.5004 N   0  0  0  0  0  0  0  0  0  0  0  0
    1.9240    1.9816   -0.7322 C   0  0  1  0  0  0  0  0  0  0  0  0
    2.5281    1.1436    0.4329 C   0  0  1  0  0  0  0  0  0  0  0  0
    2.5565    1.3151   -1.9680 C   0  0  0  0  0  0  0  0  0  0  0  0
    3.9009    0.8373   -1.4614 C   0  0  0  0  0  0  0  0  0  0  0  0
   -0.1614    2.8394    0.3393 C   0  0  2  0  0  0  0  0  0  0  0  0
    1.5251    0.2836    1.1975 C   0  0  0  0  0  0  0  0  0  0  0  0
    0.3901    2.4416    1.7225 C   0  0  0  0  0  0  0  0  0  0  0  0
   -1.6875    2.6121    0.3653 C   0  0  0  0  0  0  0  0  0  0  0  0
    4.6985    0.0332    0.6760 C   0  0  0  0  0  0  0  0  0  0  0  0
    0.0539    2.7524   -2.0802 C   0  0  0  0  0  0  0  0  0  0  0  0
   -2.0443    1.1490    0.1633 C   0  0  0  0  0  0  0  0  0  0  0  0
    5.4368   -1.2239    0.3004 C   0  0  0  0  0  0  0  0  0  0  0  0
   -3.5421    0.8691    0.1528 C   0  0  0  0  0  0  0  0  0  0  0  0
    6.7957   -1.4342    0.4235 C   0  0  0  0  0  0  0  0  0  0  0  0
   -5.0392   -1.1397   -0.1047 C   0  0  0  0  0  0  0  0  0  0  0  0
   -5.0992   -2.5194   -0.3005 C   0  0  0  0  0  0  0  0  0  0  0  0
   -6.2158   -0.4017    0.0237 C   0  0  0  0  0  0  0  0  0  0  0  0
   -6.3359   -3.1612   -0.3682 C   0  0  0  0  0  0  0  0  0  0  0  0
   -7.4524   -1.0434   -0.0438 C   0  0  0  0  0  0  0  0  0  0  0  0
   -7.5125   -2.4232   -0.2398 C   0  0  0  0  0  0  0  0  0  0  0  0
    2.3609    2.9901   -0.6643 H   0  0  0  0  0  0  0  0  0  0  0  0
    3.0118    1.8270    1.1435 H   0  0  0  0  0  0  0  0  0  0  0  0
    2.6725    2.0104   -2.8058 H   0  0  0  0  0  0  0  0  0  0  0  0
    1.9561    0.4597   -2.3057 H   0  0  0  0  0  0  0  0  0  0  0  0
    4.5871    1.6873   -1.3563 H   0  0  0  0  0  0  0  0  0  0  0  0
    4.3451    0.1037   -2.1412 H   0  0  0  0  0  0  0  0  0  0  0  0
    0.0143    3.9192    0.2359 H   0  0  0  0  0  0  0  0  0  0  0  0
   -0.2720    2.7698    2.5315 H   0  0  0  0  0  0  0  0  0  0  0  0
    1.3552    2.9246    1.9051 H   0  0  0  0  0  0  0  0  0  0  0  0
   -2.1182    2.9766    1.3068 H   0  0  0  0  0  0  0  0  0  0  0  0
   -2.1711    3.2154   -0.4129 H   0  0  0  0  0  0  0  0  0  0  0  0
    5.3750    0.8974    0.6787 H   0  0  0  0  0  0  0  0  0  0  0  0
    4.3767   -0.1128    1.7161 H   0  0  0  0  0  0  0  0  0  0  0  0
   -0.1169    0.4981    2.4297 H   0  0  0  0  0  0  0  0  0  0  0  0
   -1.0319    2.8368   -2.1789 H   0  0  0  0  0  0  0  0  0  0  0  0
    0.3588    2.1506   -2.9421 H   0  0  0  0  0  0  0  0  0  0  0  0
    0.4840    3.7550   -2.1845 H   0  0  0  0  0  0  0  0  0  0  0  0
   -1.6567    0.7679   -0.7882 H   0  0  0  0  0  0  0  0  0  0  0  0
   -1.6436    0.5245    0.9631 H   0  0  0  0  0  0  0  0  0  0  0  0
    7.5684   -0.7762    0.7946 H   0  0  0  0  0  0  0  0  0  0  0  0
   -2.9769   -1.1002   -0.1358 H   0  0  0  0  0  0  0  0  0  0  0  0
   -4.1899   -3.1064   -0.4021 H   0  0  0  0  0  0  0  0  0  0  0  0
   -6.2511    0.6673    0.1788 H   0  0  0  0  0  0  0  0  0  0  0  0
   -6.3827   -4.2355   -0.5208 H   0  0  0  0  0  0  0  0  0  0  0  0
   -8.3695   -0.4700    0.0564 H   0  0  0  0  0  0  0  0  0  0  0  0
   -8.4754   -2.9228   -0.2924 H   0  0  0  0  0  0  0  0  0  0  0  0
  1  9  1  0  0  0  0
  1 23  1  0  0  0  0
  2 15  2  0  0  0  0
  3 22  2  0  0  0  0
  4 10  1  0  0  0  0
  4 14  1  0  0  0  0
  4 19  1  0  0  0  0
  5 11  1  0  0  0  0
  5 13  1  0  0  0  0
  5 18  1  0  0  0  0
  6 15  1  0  0  0  0
  6 16  1  0  0  0  0
  6 43  1  0  0  0  0
  7  9  2  0  0  0  0
  7 21  1  0  0  0  0
  8 22  1  0  0  0  0
  8 24  1  0  0  0  0
  8 50  1  0  0  0  0
 10 11  1  0  0  0  0
 10 12  1  0  0  0  0
 10 30  1  0  0  0  0
 11 15  1  0  0  0  0
 11 31  1  0  0  0  0
 12 13  1  0  0  0  0
 12 32  1  0  0  0  0
 12 33  1  0  0  0  0
 13 34  1  0  0  0  0
 13 35  1  0  0  0  0
 14 16  1  0  0  0  0
 14 17  1  0  0  0  0
 14 36  1  0  0  0  0
 16 37  1  0  0  0  0
 16 38  1  0  0  0  0
 17 20  1  0  0  0  0
 17 39  1  0  0  0  0
 17 40  1  0  0  0  0
 18 21  1  0  0  0  0
 18 41  1  0  0  0  0
 18 42  1  0  0  0  0
 19 44  1  0  0  0  0
 19 45  1  0  0  0  0
 19 46  1  0  0  0  0
 20 22  1  0  0  0  0
 20 47  1  0  0  0  0
 20 48  1  0  0  0  0
 21 23  2  0  0  0  0
 23 49  1  0  0  0  0
 24 25  2  0  0  0  0
 24 26  1  0  0  0  0
 25 27  1  0  0  0  0
 25 51  1  0  0  0  0
 26 28  2  0  0  0  0
 26 52  1  0  0  0  0
 27 29  2  0  0  0  0
 27 53  1  0  0  0  0
 28 29  1  0  0  0  0
 28 54  1  0  0  0  0
 29 55  1  0  0  0  0
M  END
> <PUBCHEM_COMPOUND_CID>
45361055

> <PUBCHEM_CONFORMER_RMSD>
1

> <PUBCHEM_CONFORMER_DIVERSEORDER>
1
97
69
136
58
98
80
92
159
100
131
63
33
96
110
26
126
154
2
77
94
172
179
75
22
148
192
132
36
12
29
49
161
171
156
41
113
55
46
158
87
51
19
39
68
102
114
140
40
35
93
147
105
150
61
52
14
101
155
128
72
173
135
157
187
27
151
190
79
124
127
152
28
25
20
125
67
122
144
21
111
123
169
112
121
9
188
197
153
168
8
7
145
191
6
160
195
65
18
95
82
174
42
162
176
180
170
137
64
163
57
143
103
185
177
56
86
32
138
119
50
120
108
167
15
175
116
37
47
88
184
104
89
45
178
134
183
62
139
76
129
71
38
34
194
13
90
146
66
99
106
85
11
181
83
17
91
130
30
166
23
78
182
5
81
196
43
48
186
10
118
31
107
193
44
54
70
141
24
142
4
109
117
189
53
84
165
3
59
16
133
74
60
73
115
149
164

> <PUBCHEM_MMFF94_PARTIAL_CHARGES>
35
1 0.18
10 0.27
11 0.33
13 0.27
14 0.27
15 0.57
16 0.3
18 0.45
19 0.27
2 -0.57
20 0.06
21 0.05
22 0.57
23 -0.11
24 0.12
25 -0.15
26 -0.15
27 -0.15
28 -0.15
29 -0.15
3 -0.57
4 -0.81
43 0.37
49 0.15
5 -0.81
50 0.37
51 0.15
52 0.15
53 0.15
54 0.15
55 0.15
6 -0.73
7 -0.23
8 -0.55
9 -0.22

> <PUBCHEM_EFFECTIVE_ROTOR_COUNT>
8.4

> <PUBCHEM_PHARMACOPHORE_FEATURES>
10
1 2 acceptor
1 3 acceptor
1 4 cation
1 5 cation
1 6 donor
1 8 donor
5 1 7 9 21 23 rings
5 5 10 11 12 13 rings
6 24 25 26 27 28 29 rings
7 4 6 10 11 14 15 16 rings

> <PUBCHEM_HEAVY_ATOM_COUNT>
29

> <PUBCHEM_ATOM_DEF_STEREO_COUNT>
3

> <PUBCHEM_ATOM_UDEF_STEREO_COUNT>
0

> <PUBCHEM_BOND_DEF_STEREO_COUNT>
0

> <PUBCHEM_BOND_UDEF_STEREO_COUNT>
0

> <PUBCHEM_ISOTOPIC_ATOM_COUNT>
0

> <PUBCHEM_COMPONENT_COUNT>
1

> <PUBCHEM_CACTVS_TAUTO_COUNT>
6

> <PUBCHEM_CONFORMER_ID>
02B4279F00000001

> <PUBCHEM_MMFF94_ENERGY>
76.1803

> <PUBCHEM_FEATURE_SELFOVERLAP>
50.783

> <PUBCHEM_SHAPE_FINGERPRINT>
10042902 136 18409166576087579040
10280341 67 8069741832917909518
10693767 8 18187081754527532938
11135609 99 18343580729609584438
11497681 19 18410015412829975580
11607047 403 18195519523224986632
117089 54 18410864265186723835
11796584 16 18268427928112563372
12166972 35 17967814967967284959
12633257 1 15841262744374186085
13690498 29 18113613453038477805
13782708 43 18202559570762766955
14068700 675 18335984169292079264
14251751 18 18343302548070507458
14251764 30 18413666907155244523
14420673 8 18412544323891874627
14931854 50 17822003199417547563
15475509 35 18201715184840866368
15510800 12 17988932119497339630
19438510 23 10735871772748376492
20028762 73 18409448064350793818
20775438 99 17897448526113643770
208703 8 18408598180395656095
20982279 24 17678183905648060323
21033648 29 15051460358341926849
21344244 78 15482398646401351457
21424621 283 10087633814825762956
21521239 73 17894632556670829208
23522609 53 18123223266455046825
23559900 14 18192706964054048977
23569914 2 13553180258475414326
270888 7 9007057963360111123
2748736 6 8790890649014423947
2838139 119 7853557012083653698
3004659 81 18113892784493873515
3472631 163 8502660307174731073
406291 66 18408601440070417290
439807 62 18410858776497334455
46194498 28 17168699885978088589
5104073 3 17704078421328429281
5718773 13 18412261740080144591
5874358 3 17024009481923303618
7808743 9 8502370018957017733
7970288 3 18411698816049735319
96874 4 18408882931984131102

> <PUBCHEM_SHAPE_MULTIPOLES>
559.03
20.1
4.16
1.38
14.56
1.33
-0.23
27.29
-1.41
-0.78
-0.63
-1.11
-1.06
-0.95

> <PUBCHEM_SHAPE_SELFOVERLAP>
1170.118

> <PUBCHEM_SHAPE_VOLUME>
316.3

> <PUBCHEM_COORDINATE_TYPE>
2
5
10

$$$$
