7142693
  -OEChem-12032416213D

 60 64  0     1  0  0  0  0  0999 V2000
    9.1231   -1.2077    0.1874 Cl  0  0  0  0  0  0  0  0  0  0  0  0
   -0.4179    3.1266    1.3644 O   0  0  0  0  0  0  0  0  0  0  0  0
   -3.7826   -0.6027    2.6038 O   0  0  0  0  0  0  0  0  0  0  0  0
    2.4931    0.0071   -0.8951 O   0  0  0  0  0  0  0  0  0  0  0  0
   -0.9258   -5.1195   -0.6452 O   0  0  0  0  0  0  0  0  0  0  0  0
   -4.3329    0.1677    0.4641 N   0  0  0  0  0  0  0  0  0  0  0  0
   -2.0356    2.2822   -0.0948 N   0  0  0  0  0  0  0  0  0  0  0  0
    1.6555    1.9921   -0.0375 N   0  0  0  0  0  0  0  0  0  0  0  0
    3.8745    1.4983    0.2782 N   0  0  0  0  0  0  0  0  0  0  0  0
   -4.5465    2.6393    0.2657 C   0  0  1  0  0  0  0  0  0  0  0  0
   -3.7606    1.3212   -1.6594 C   0  0  2  0  0  0  0  0  0  0  0  0
   -4.6395    2.5021   -1.2501 C   0  0  0  0  0  0  0  0  0  0  0  0
   -5.0383    1.3522    0.9525 C   0  0  0  0  0  0  0  0  0  0  0  0
   -3.0991    2.9783    0.6433 C   0  0  0  0  0  0  0  0  0  0  0  0
   -4.2894    0.0312   -1.0009 C   0  0  0  0  0  0  0  0  0  0  0  0
   -2.3172    1.5484   -1.2518 C   0  0  0  0  0  0  0  0  0  0  0  0
   -1.3178    1.0170   -1.9758 C   0  0  0  0  0  0  0  0  0  0  0  0
   -0.7163    2.4754    0.3623 C   0  0  0  0  0  0  0  0  0  0  0  0
   -3.7496   -0.7116    1.3793 C   0  0  0  0  0  0  0  0  0  0  0  0
    0.3664    1.8438   -0.4570 C   0  0  0  0  0  0  0  0  0  0  0  0
    0.0500    1.1685   -1.5669 C   0  0  0  0  0  0  0  0  0  0  0  0
   -3.0116   -1.8634    0.8507 C   0  0  0  0  0  0  0  0  0  0  0  0
   -3.6770   -3.0642    0.6162 C   0  0  0  0  0  0  0  0  0  0  0  0
   -1.6491   -1.7511    0.5858 C   0  0  0  0  0  0  0  0  0  0  0  0
    2.6697    1.0557   -0.2789 C   0  0  0  0  0  0  0  0  0  0  0  0
   -2.9752   -4.1598    0.1133 C   0  0  0  0  0  0  0  0  0  0  0  0
   -0.9474   -2.8467    0.0828 C   0  0  0  0  0  0  0  0  0  0  0  0
   -1.6104   -4.0511   -0.1533 C   0  0  0  0  0  0  0  0  0  0  0  0
    5.1314    0.8500    0.2569 C   0  0  0  0  0  0  0  0  0  0  0  0
    0.4671   -4.9387   -0.8967 C   0  0  0  0  0  0  0  0  0  0  0  0
    6.2165    1.4542    0.8702 C   0  0  0  0  0  0  0  0  0  0  0  0
    5.2515   -0.3757   -0.3774 C   0  0  0  0  0  0  0  0  0  0  0  0
    7.4562    0.8152    0.8487 C   0  0  0  0  0  0  0  0  0  0  0  0
    6.4912   -1.0149   -0.3990 C   0  0  0  0  0  0  0  0  0  0  0  0
    7.5936   -0.4194    0.2143 C   0  0  0  0  0  0  0  0  0  0  0  0
   -5.1918    3.4608    0.6008 H   0  0  0  0  0  0  0  0  0  0  0  0
   -3.8257    1.2067   -2.7492 H   0  0  0  0  0  0  0  0  0  0  0  0
   -4.3071    3.4244   -1.7429 H   0  0  0  0  0  0  0  0  0  0  0  0
   -5.6788    2.3308   -1.5560 H   0  0  0  0  0  0  0  0  0  0  0  0
   -4.9393    1.4417    2.0395 H   0  0  0  0  0  0  0  0  0  0  0  0
   -6.1028    1.1985    0.7374 H   0  0  0  0  0  0  0  0  0  0  0  0
   -2.9310    4.0488    0.4619 H   0  0  0  0  0  0  0  0  0  0  0  0
   -2.9368    2.8261    1.7177 H   0  0  0  0  0  0  0  0  0  0  0  0
   -5.3172   -0.1646   -1.3307 H   0  0  0  0  0  0  0  0  0  0  0  0
   -3.6895   -0.8275   -1.3119 H   0  0  0  0  0  0  0  0  0  0  0  0
   -1.5120    0.4349   -2.8707 H   0  0  0  0  0  0  0  0  0  0  0  0
    0.7780    0.7341   -2.2413 H   0  0  0  0  0  0  0  0  0  0  0  0
    1.8274    2.6854    0.6856 H   0  0  0  0  0  0  0  0  0  0  0  0
   -4.7403   -3.1586    0.8201 H   0  0  0  0  0  0  0  0  0  0  0  0
   -1.1223   -0.8206    0.7767 H   0  0  0  0  0  0  0  0  0  0  0  0
   -3.4972   -5.0951   -0.0692 H   0  0  0  0  0  0  0  0  0  0  0  0
    0.1106   -2.6929   -0.1004 H   0  0  0  0  0  0  0  0  0  0  0  0
    3.8520    2.3960    0.7556 H   0  0  0  0  0  0  0  0  0  0  0  0
    1.0178   -4.7238    0.0254 H   0  0  0  0  0  0  0  0  0  0  0  0
    0.8514   -5.8876   -1.2849 H   0  0  0  0  0  0  0  0  0  0  0  0
    0.6415   -4.1827   -1.6699 H   0  0  0  0  0  0  0  0  0  0  0  0
    6.1204    2.4156    1.3671 H   0  0  0  0  0  0  0  0  0  0  0  0
    4.4484   -0.9001   -0.8733 H   0  0  0  0  0  0  0  0  0  0  0  0
    8.3064    1.2910    1.3305 H   0  0  0  0  0  0  0  0  0  0  0  0
    6.5848   -1.9767   -0.8969 H   0  0  0  0  0  0  0  0  0  0  0  0
  1 35  1  0  0  0  0
  2 18  2  0  0  0  0
  3 19  2  0  0  0  0
  4 25  2  0  0  0  0
  5 28  1  0  0  0  0
  5 30  1  0  0  0  0
  6 13  1  0  0  0  0
  6 15  1  0  0  0  0
  6 19  1  0  0  0  0
  7 14  1  0  0  0  0
  7 16  1  0  0  0  0
  7 18  1  0  0  0  0
  8 20  1  0  0  0  0
  8 25  1  0  0  0  0
  8 48  1  0  0  0  0
  9 25  1  0  0  0  0
  9 29  1  0  0  0  0
  9 53  1  0  0  0  0
 10 12  1  0  0  0  0
 10 13  1  0  0  0  0
 10 14  1  0  0  0  0
 10 36  1  0  0  0  0
 11 12  1  0  0  0  0
 11 15  1  0  0  0  0
 11 16  1  0  0  0  0
 11 37  1  0  0  0  0
 12 38  1  0  0  0  0
 12 39  1  0  0  0  0
 13 40  1  0  0  0  0
 13 41  1  0  0  0  0
 14 42  1  0  0  0  0
 14 43  1  0  0  0  0
 15 44  1  0  0  0  0
 15 45  1  0  0  0  0
 16 17  2  0  0  0  0
 17 21  1  0  0  0  0
 17 46  1  0  0  0  0
 18 20  1  0  0  0  0
 19 22  1  0  0  0  0
 20 21  2  0  0  0  0
 21 47  1  0  0  0  0
 22 23  2  0  0  0  0
 22 24  1  0  0  0  0
 23 26  1  0  0  0  0
 23 49  1  0  0  0  0
 24 27  2  0  0  0  0
 24 50  1  0  0  0  0
 26 28  2  0  0  0  0
 26 51  1  0  0  0  0
 27 28  1  0  0  0  0
 27 52  1  0  0  0  0
 29 31  2  0  0  0  0
 29 32  1  0  0  0  0
 30 54  1  0  0  0  0
 30 55  1  0  0  0  0
 30 56  1  0  0  0  0
 31 33  1  0  0  0  0
 31 57  1  0  0  0  0
 32 34  2  0  0  0  0
 32 58  1  0  0  0  0
 33 35  2  0  0  0  0
 33 59  1  0  0  0  0
 34 35  1  0  0  0  0
 34 60  1  0  0  0  0
M  END
> <PUBCHEM_COMPOUND_CID>
7142693

> <PUBCHEM_CONFORMER_RMSD>
1

> <PUBCHEM_CONFORMER_DIVERSEORDER>
1
15
14
13
5
16
4
18
19
7
17
9
8
2
6
11
3
10
12
20

> <PUBCHEM_MMFF94_PARTIAL_CHARGES>
45
1 -0.18
11 0.14
13 0.3
14 0.3
15 0.3
16 -0.03
17 -0.15
18 0.62
19 0.54
2 -0.57
20 0.12
21 -0.15
22 0.09
23 -0.15
24 -0.15
25 0.69
26 -0.15
27 -0.15
28 0.08
29 0.12
3 -0.57
30 0.28
31 -0.15
32 -0.15
33 -0.15
34 -0.15
35 0.18
4 -0.57
46 0.15
47 0.15
48 0.37
49 0.15
5 -0.36
50 0.15
51 0.15
52 0.15
53 0.37
57 0.15
58 0.15
59 0.15
6 -0.66
60 0.15
7 -0.47
8 -0.54
9 -0.55

> <PUBCHEM_EFFECTIVE_ROTOR_COUNT>
8

> <PUBCHEM_PHARMACOPHORE_FEATURES>
11
1 2 acceptor
1 3 acceptor
1 4 acceptor
1 5 acceptor
1 8 donor
1 9 donor
6 22 23 24 26 27 28 rings
6 29 31 32 33 34 35 rings
6 6 10 11 12 13 15 rings
6 7 10 11 12 14 16 rings
6 7 16 17 18 20 21 rings

> <PUBCHEM_HEAVY_ATOM_COUNT>
35

> <PUBCHEM_ATOM_DEF_STEREO_COUNT>
2

> <PUBCHEM_ATOM_UDEF_STEREO_COUNT>
0

> <PUBCHEM_BOND_DEF_STEREO_COUNT>
0

> <PUBCHEM_BOND_UDEF_STEREO_COUNT>
0

> <PUBCHEM_ISOTOPIC_ATOM_COUNT>
0

> <PUBCHEM_COMPONENT_COUNT>
1

> <PUBCHEM_CACTVS_TAUTO_COUNT>
3

> <PUBCHEM_CONFORMER_ID>
006CFD2500000001

> <PUBCHEM_MMFF94_ENERGY>
114.9056

> <PUBCHEM_FEATURE_SELFOVERLAP>
57.456

> <PUBCHEM_SHAPE_FINGERPRINT>
10483366 6 18266159812715406815
10675989 125 17253136541962665309
10864689 126 18194126205657973942
11524674 6 18411132520026231063
11763389 116 18412546471006738294
12643181 29 18335696118925802890
14844126 61 18336547239182669379
14866123 147 18409730702931130979
14904385 31 18340197480685912506
14950920 106 17844820358953092032
15021287 119 16950287316878928540
15183329 4 15140679194422352936
15230672 131 18189327984306971898
15297060 5 18272370823964316283
15320294 125 18113622295679950774
15352257 5 18260266305603639250
15361156 5 17822019735463532588
15439362 3 17977379444099122933
19611394 137 18201438117128836216
20721686 146 13263498295805926735
20771845 165 17536304844068544445
20775530 9 17403474351770882903
21133410 52 15822403148125769788
21987440 362 17753889411395621876
229767 44 18339933730385253962
23516275 137 17972617489129781106
23559900 14 18410847794145289136
244849 19 17774182123158283134
249057 3 17822006493573516061
3383291 50 18411415146423929059
397830 11 18267857454189102624
4017518 198 18410286974162960855
4073 2 18412257347188378820
44802255 64 16878492454864871743
484985 159 18334848468043000943
5080951 261 17970320759805402100
5265222 85 18262248784296572989

> <PUBCHEM_SHAPE_MULTIPOLES>
678.75
17.62
5.59
1.46
51.31
8.44
-0.03
-2.31
-3.47
-6.55
0.48
-1.64
-0.36
1.45

> <PUBCHEM_SHAPE_SELFOVERLAP>
1479.59

> <PUBCHEM_SHAPE_VOLUME>
366.3

> <PUBCHEM_COORDINATE_TYPE>
2
5
10

$$$$
