71692987
  -OEChem-12032416343D

 58 60  0     1  0  0  0  0  0999 V2000
    1.8321   -2.8564   -0.2709 N   0  0  0  0  0  0  0  0  0  0  0  0
   -2.0030    1.3431   -1.5501 N   0  0  0  0  0  0  0  0  0  0  0  0
   -1.6793    1.0715    0.6319 N   0  0  0  0  0  0  0  0  0  0  0  0
    2.6619   -0.0637   -0.5487 C   0  0  1  0  0  0  0  0  0  0  0  0
    2.2300   -0.6832    0.8008 C   0  0  1  0  0  0  0  0  0  0  0  0
    1.5725    0.8773   -1.0819 C   0  0  0  0  0  0  0  0  0  0  0  0
    1.2014    2.0047   -0.0947 C   0  0  2  0  0  0  0  0  0  0  0  0
    4.0094    0.6606   -0.4260 C   0  0  0  0  0  0  0  0  0  0  0  0
    1.1558    1.5379    1.3524 C   0  0  0  0  0  0  0  0  0  0  0  0
    1.6096    0.3286    1.7302 C   0  0  0  0  0  0  0  0  0  0  0  0
    1.2556   -1.8489    0.6024 C   0  0  0  0  0  0  0  0  0  0  0  0
   -0.1131    2.6463   -0.5561 C   0  0  0  0  0  0  0  0  0  0  0  0
    5.1507   -0.3485   -0.3474 C   0  0  0  0  0  0  0  0  0  0  0  0
    4.2099    1.6136   -1.5999 C   0  0  0  0  0  0  0  0  0  0  0  0
    0.6335    2.5058    2.3784 C   0  0  0  0  0  0  0  0  0  0  0  0
   -1.2601    1.6820   -0.4537 C   0  0  0  0  0  0  0  0  0  0  0  0
    0.7865   -3.7104   -0.8422 C   0  0  0  0  0  0  0  0  0  0  0  0
    2.8104   -3.6745    0.4520 C   0  0  0  0  0  0  0  0  0  0  0  0
   -2.9660    0.4547   -1.1451 C   0  0  0  0  0  0  0  0  0  0  0  0
   -2.7429    0.3017    0.2205 C   0  0  0  0  0  0  0  0  0  0  0  0
   -3.5733   -0.5595    0.9576 C   0  0  0  0  0  0  0  0  0  0  0  0
   -3.9818   -0.2077   -1.8349 C   0  0  0  0  0  0  0  0  0  0  0  0
   -4.5999   -1.2351    0.2859 C   0  0  0  0  0  0  0  0  0  0  0  0
   -4.7987   -1.0610   -1.0857 C   0  0  0  0  0  0  0  0  0  0  0  0
   -3.4013   -0.7791    2.4251 C   0  0  0  0  0  0  0  0  0  0  0  0
    2.7930   -0.8449   -1.3080 H   0  0  0  0  0  0  0  0  0  0  0  0
    3.1111   -1.0587    1.3303 H   0  0  0  0  0  0  0  0  0  0  0  0
    0.6968    0.2482   -1.2844 H   0  0  0  0  0  0  0  0  0  0  0  0
    1.8115    1.2938   -2.0666 H   0  0  0  0  0  0  0  0  0  0  0  0
    1.9703    2.7852   -0.1412 H   0  0  0  0  0  0  0  0  0  0  0  0
    4.0406    1.2643    0.4896 H   0  0  0  0  0  0  0  0  0  0  0  0
    1.5546    0.0411    2.7781 H   0  0  0  0  0  0  0  0  0  0  0  0
    0.3285   -1.4570    0.1625 H   0  0  0  0  0  0  0  0  0  0  0  0
    0.9598   -2.2803    1.5692 H   0  0  0  0  0  0  0  0  0  0  0  0
   -0.0066    2.9981   -1.5905 H   0  0  0  0  0  0  0  0  0  0  0  0
   -0.3471    3.5355    0.0412 H   0  0  0  0  0  0  0  0  0  0  0  0
    5.1669   -1.0037   -1.2252 H   0  0  0  0  0  0  0  0  0  0  0  0
    5.0895   -0.9776    0.5442 H   0  0  0  0  0  0  0  0  0  0  0  0
    6.1166    0.1673   -0.3040 H   0  0  0  0  0  0  0  0  0  0  0  0
    4.0683    1.1077   -2.5616 H   0  0  0  0  0  0  0  0  0  0  0  0
    5.2372    1.9982   -1.5956 H   0  0  0  0  0  0  0  0  0  0  0  0
    3.5710    2.4983   -1.5627 H   0  0  0  0  0  0  0  0  0  0  0  0
    1.1575    3.4636    2.2911 H   0  0  0  0  0  0  0  0  0  0  0  0
    0.7931    2.1444    3.4004 H   0  0  0  0  0  0  0  0  0  0  0  0
   -0.4381    2.6860    2.2648 H   0  0  0  0  0  0  0  0  0  0  0  0
    0.0862   -3.1150   -1.4389 H   0  0  0  0  0  0  0  0  0  0  0  0
    0.2194   -4.2408   -0.0686 H   0  0  0  0  0  0  0  0  0  0  0  0
    1.2225   -4.4511   -1.5217 H   0  0  0  0  0  0  0  0  0  0  0  0
    3.6595   -3.0812    0.8026 H   0  0  0  0  0  0  0  0  0  0  0  0
    3.2333   -4.4353   -0.2145 H   0  0  0  0  0  0  0  0  0  0  0  0
    2.3662   -4.1885    1.3123 H   0  0  0  0  0  0  0  0  0  0  0  0
   -1.8685    1.6834   -2.4930 H   0  0  0  0  0  0  0  0  0  0  0  0
   -4.1341   -0.0709   -2.8994 H   0  0  0  0  0  0  0  0  0  0  0  0
   -5.2577   -1.9080    0.8316 H   0  0  0  0  0  0  0  0  0  0  0  0
   -5.6034   -1.5983   -1.5814 H   0  0  0  0  0  0  0  0  0  0  0  0
   -2.5628   -0.1998    2.8247 H   0  0  0  0  0  0  0  0  0  0  0  0
   -4.3055   -0.4750    2.9624 H   0  0  0  0  0  0  0  0  0  0  0  0
   -3.2046   -1.8366    2.6294 H   0  0  0  0  0  0  0  0  0  0  0  0
  1 11  1  0  0  0  0
  1 17  1  0  0  0  0
  1 18  1  0  0  0  0
  2 16  1  0  0  0  0
  2 19  1  0  0  0  0
  2 52  1  0  0  0  0
  3 16  2  0  0  0  0
  3 20  1  0  0  0  0
  4  5  1  0  0  0  0
  4  6  1  0  0  0  0
  4  8  1  0  0  0  0
  4 26  1  0  0  0  0
  5 10  1  0  0  0  0
  5 11  1  0  0  0  0
  5 27  1  0  0  0  0
  6  7  1  0  0  0  0
  6 28  1  0  0  0  0
  6 29  1  0  0  0  0
  7  9  1  0  0  0  0
  7 12  1  0  0  0  0
  7 30  1  0  0  0  0
  8 13  1  0  0  0  0
  8 14  1  0  0  0  0
  8 31  1  0  0  0  0
  9 10  2  0  0  0  0
  9 15  1  0  0  0  0
 10 32  1  0  0  0  0
 11 33  1  0  0  0  0
 11 34  1  0  0  0  0
 12 16  1  0  0  0  0
 12 35  1  0  0  0  0
 12 36  1  0  0  0  0
 13 37  1  0  0  0  0
 13 38  1  0  0  0  0
 13 39  1  0  0  0  0
 14 40  1  0  0  0  0
 14 41  1  0  0  0  0
 14 42  1  0  0  0  0
 15 43  1  0  0  0  0
 15 44  1  0  0  0  0
 15 45  1  0  0  0  0
 17 46  1  0  0  0  0
 17 47  1  0  0  0  0
 17 48  1  0  0  0  0
 18 49  1  0  0  0  0
 18 50  1  0  0  0  0
 18 51  1  0  0  0  0
 19 20  1  0  0  0  0
 19 22  2  0  0  0  0
 20 21  2  0  0  0  0
 21 23  1  0  0  0  0
 21 25  1  0  0  0  0
 22 24  1  0  0  0  0
 22 53  1  0  0  0  0
 23 24  2  0  0  0  0
 23 54  1  0  0  0  0
 24 55  1  0  0  0  0
 25 56  1  0  0  0  0
 25 57  1  0  0  0  0
 25 58  1  0  0  0  0
M  END
> <PUBCHEM_COMPOUND_CID>
71692987

> <PUBCHEM_CONFORMER_RMSD>
0.8

> <PUBCHEM_CONFORMER_DIVERSEORDER>
3
55
58
42
45
44
32
23
28
16
47
6
36
25
40
22
53
54
8
33
7
14
18
21
50
24
38
13
49
48
57
52
15
5
27
51
26
17
19
41
31
11
30
37
56
34
9
4
35
10
1
2
43
20
39
46
12
29

> <PUBCHEM_MMFF94_PARTIAL_CHARGES>
25
1 -0.81
10 -0.29
11 0.27
12 0.18
15 0.14
16 0.01
17 0.27
18 0.27
19 -0.15
2 0.03
20 0.23
21 -0.14
22 -0.15
23 -0.15
24 -0.15
25 0.14
3 -0.57
32 0.15
5 0.14
52 0.27
53 0.15
54 0.15
55 0.15
7 0.14
9 -0.28

> <PUBCHEM_EFFECTIVE_ROTOR_COUNT>
5.8

> <PUBCHEM_PHARMACOPHORE_FEATURES>
7
1 1 cation
1 2 donor
3 2 3 16 cation
3 8 13 14 hydrophobe
5 2 3 16 19 20 rings
6 19 20 21 22 23 24 rings
6 4 5 6 7 9 10 rings

> <PUBCHEM_HEAVY_ATOM_COUNT>
25

> <PUBCHEM_ATOM_DEF_STEREO_COUNT>
3

> <PUBCHEM_ATOM_UDEF_STEREO_COUNT>
0

> <PUBCHEM_BOND_DEF_STEREO_COUNT>
0

> <PUBCHEM_BOND_UDEF_STEREO_COUNT>
0

> <PUBCHEM_ISOTOPIC_ATOM_COUNT>
0

> <PUBCHEM_COMPONENT_COUNT>
1

> <PUBCHEM_CACTVS_TAUTO_COUNT>
3

> <PUBCHEM_CONFORMER_ID>
0445F2BB00000003

> <PUBCHEM_MMFF94_ENERGY>
54.0242

> <PUBCHEM_FEATURE_SELFOVERLAP>
35.629

> <PUBCHEM_SHAPE_FINGERPRINT>
10366900 7 18410287043172028643
11135609 12 18117843187891002138
11578080 2 13122721339894081196
12553582 1 18410288125424756953
12596599 1 17274531126772004071
12596602 18 17131548448705313315
12597179 24 17697867422088072216
12633257 1 9727633916692987551
12670546 177 17385719205623576693
13402501 40 17968387852518120187
13464513 79 18341050829855939213
13583140 156 18059591225872388497
13911987 19 18117295833206867452
14787075 74 18131350856211738392
15209289 33 17918001602076191549
15635459 17 18260263075361185539
17492 54 17968672638898687892
1813 80 17346610689737105424
20645477 70 18116144657575476629
20775530 9 18123745366325305523
21285901 2 17896017928785013887
21452121 199 18118951513013137314
21521721 280 18268155425676007712
22393880 68 16298378093482747100
23559900 14 18117261576151627007
238 59 18336251427552474115
3052486 1 18122329448967779466
3493558 16 12978984585696850710
3737641 26 18129393613259656630
392239 28 17988909077646331130
4280585 95 17539116265278161274
463206 1 18342449348770824295
5262128 65 17603589595178385117
6669772 16 18127116693010334896
9709674 26 18042402435086519015

> <PUBCHEM_SHAPE_MULTIPOLES>
499.55
8.88
3.49
1.93
3.35
3.06
0.73
2.41
-2.43
-2.73
0.08
0.96
-0.67
-0.06

> <PUBCHEM_SHAPE_SELFOVERLAP>
1050.338

> <PUBCHEM_SHAPE_VOLUME>
280.4

> <PUBCHEM_COORDINATE_TYPE>
2
5
10

$$$$
