51136820
  -OEChem-12032416223D

 65 69  0     1  0  0  0  0  0999 V2000
   -3.1381    2.7363    0.0041 O   0  0  0  0  0  0  0  0  0  0  0  0
    6.3018   -2.7417    2.1361 O   0  0  0  0  0  0  0  0  0  0  0  0
   -3.5829   -0.6649    1.3231 N   0  0  1  0  0  0  0  0  0  0  0  0
   -3.3304   -2.9961   -2.2217 N   0  0  0  0  0  0  0  0  0  0  0  0
   -1.4926    1.2959    0.4881 N   0  0  0  0  0  0  0  0  0  0  0  0
   -1.9717    3.2762   -0.5524 N   0  0  0  0  0  0  0  0  0  0  0  0
    3.4873    0.7302   -0.2317 N   0  0  0  0  0  0  0  0  0  0  0  0
    5.3267   -1.3693    0.5343 N   0  0  0  0  0  0  0  0  0  0  0  0
    3.0210    2.7764   -1.3147 N   0  0  0  0  0  0  0  0  0  0  0  0
   -4.0062   -1.3690    0.1148 C   0  0  0  0  0  0  0  0  0  0  0  0
   -3.8652    0.7838    1.2817 C   0  0  1  0  0  0  0  0  0  0  0  0
   -4.2448   -1.1810    2.5213 C   0  0  0  0  0  0  0  0  0  0  0  0
   -3.3369   -0.7756   -1.1283 C   0  0  0  0  0  0  0  0  0  0  0  0
   -3.6734   -2.8591    0.2258 C   0  0  0  0  0  0  0  0  0  0  0  0
   -4.0566    1.1872    2.7554 C   0  0  0  0  0  0  0  0  0  0  0  0
   -3.9247   -0.1086    3.5429 C   0  0  0  0  0  0  0  0  0  0  0  0
   -3.6933   -1.5810   -2.3805 C   0  0  0  0  0  0  0  0  0  0  0  0
   -4.0190   -3.5964   -1.0707 C   0  0  0  0  0  0  0  0  0  0  0  0
   -2.7676    1.5716    0.5977 C   0  0  0  0  0  0  0  0  0  0  0  0
   -3.6306   -3.7417   -3.4437 C   0  0  0  0  0  0  0  0  0  0  0  0
   -1.0457    2.3699   -0.2251 C   0  0  0  0  0  0  0  0  0  0  0  0
    3.3093   -0.0166    1.0167 C   0  0  0  0  0  0  0  0  0  0  0  0
    4.6678    0.4406   -1.0493 C   0  0  0  0  0  0  0  0  0  0  0  0
    0.3336    2.5083   -0.5936 C   0  0  0  0  0  0  0  0  0  0  0  0
    4.6497   -0.5401    1.5279 C   0  0  0  0  0  0  0  0  0  0  0  0
    5.1093   -1.0119   -0.8693 C   0  0  0  0  0  0  0  0  0  0  0  0
    2.5753    1.7135   -0.6081 C   0  0  0  0  0  0  0  0  0  0  0  0
    1.2554    1.5341   -0.2264 C   0  0  0  0  0  0  0  0  0  0  0  0
    0.7540    3.6164   -1.3209 C   0  0  0  0  0  0  0  0  0  0  0  0
    6.1175   -2.4392    0.9548 C   0  0  0  0  0  0  0  0  0  0  0  0
    2.0962    3.7025   -1.6536 C   0  0  0  0  0  0  0  0  0  0  0  0
    6.7749   -3.2507   -0.1344 C   0  0  0  0  0  0  0  0  0  0  0  0
   -5.0949   -1.2716   -0.0086 H   0  0  0  0  0  0  0  0  0  0  0  0
   -4.8136    0.9788    0.7610 H   0  0  0  0  0  0  0  0  0  0  0  0
   -5.3309   -1.2668    2.3901 H   0  0  0  0  0  0  0  0  0  0  0  0
   -3.8433   -2.1431    2.8533 H   0  0  0  0  0  0  0  0  0  0  0  0
   -2.2452   -0.7691   -1.0174 H   0  0  0  0  0  0  0  0  0  0  0  0
   -3.6746    0.2462   -1.3241 H   0  0  0  0  0  0  0  0  0  0  0  0
   -4.2368   -3.3376    1.0347 H   0  0  0  0  0  0  0  0  0  0  0  0
   -2.6066   -2.9971    0.4485 H   0  0  0  0  0  0  0  0  0  0  0  0
   -3.3346    1.9318    3.1078 H   0  0  0  0  0  0  0  0  0  0  0  0
   -5.0625    1.6013    2.8966 H   0  0  0  0  0  0  0  0  0  0  0  0
   -2.8955   -0.2202    3.9064 H   0  0  0  0  0  0  0  0  0  0  0  0
   -4.5956   -0.1376    4.4065 H   0  0  0  0  0  0  0  0  0  0  0  0
   -3.1471   -1.1518   -3.2295 H   0  0  0  0  0  0  0  0  0  0  0  0
   -4.7650   -1.4744   -2.5955 H   0  0  0  0  0  0  0  0  0  0  0  0
   -5.1070   -3.5911   -1.2193 H   0  0  0  0  0  0  0  0  0  0  0  0
   -3.7109   -4.6433   -0.9599 H   0  0  0  0  0  0  0  0  0  0  0  0
   -3.3139   -4.7860   -3.3450 H   0  0  0  0  0  0  0  0  0  0  0  0
   -4.6994   -3.7266   -3.6863 H   0  0  0  0  0  0  0  0  0  0  0  0
   -3.0780   -3.3261   -4.2937 H   0  0  0  0  0  0  0  0  0  0  0  0
    2.8779    0.6210    1.7982 H   0  0  0  0  0  0  0  0  0  0  0  0
    2.6294   -0.8599    0.8438 H   0  0  0  0  0  0  0  0  0  0  0  0
    4.4546    0.6082   -2.1120 H   0  0  0  0  0  0  0  0  0  0  0  0
    5.4782    1.1208   -0.7602 H   0  0  0  0  0  0  0  0  0  0  0  0
    4.5033   -1.1060    2.4542 H   0  0  0  0  0  0  0  0  0  0  0  0
    5.3243    0.2939    1.7578 H   0  0  0  0  0  0  0  0  0  0  0  0
    6.0206   -1.1894   -1.4476 H   0  0  0  0  0  0  0  0  0  0  0  0
    4.3371   -1.6914   -1.2501 H   0  0  0  0  0  0  0  0  0  0  0  0
    0.9339    0.6553    0.3231 H   0  0  0  0  0  0  0  0  0  0  0  0
    0.0810    4.4073   -1.6352 H   0  0  0  0  0  0  0  0  0  0  0  0
    2.4752    4.5467   -2.2202 H   0  0  0  0  0  0  0  0  0  0  0  0
    7.2283   -4.1453    0.3033 H   0  0  0  0  0  0  0  0  0  0  0  0
    6.0384   -3.5732   -0.8748 H   0  0  0  0  0  0  0  0  0  0  0  0
    7.5624   -2.6628   -0.6130 H   0  0  0  0  0  0  0  0  0  0  0  0
  1  6  1  0  0  0  0
  1 19  1  0  0  0  0
  2 30  2  0  0  0  0
  3 10  1  0  0  0  0
  3 11  1  0  0  0  0
  3 12  1  0  0  0  0
  4 17  1  0  0  0  0
  4 18  1  0  0  0  0
  4 20  1  0  0  0  0
  5 19  2  0  0  0  0
  5 21  1  0  0  0  0
  6 21  2  0  0  0  0
  7 22  1  0  0  0  0
  7 23  1  0  0  0  0
  7 27  1  0  0  0  0
  8 25  1  0  0  0  0
  8 26  1  0  0  0  0
  8 30  1  0  0  0  0
  9 27  2  0  0  0  0
  9 31  1  0  0  0  0
 10 13  1  0  0  0  0
 10 14  1  0  0  0  0
 10 33  1  0  0  0  0
 11 15  1  0  0  0  0
 11 19  1  0  0  0  0
 11 34  1  0  0  0  0
 12 16  1  0  0  0  0
 12 35  1  0  0  0  0
 12 36  1  0  0  0  0
 13 17  1  0  0  0  0
 13 37  1  0  0  0  0
 13 38  1  0  0  0  0
 14 18  1  0  0  0  0
 14 39  1  0  0  0  0
 14 40  1  0  0  0  0
 15 16  1  0  0  0  0
 15 41  1  0  0  0  0
 15 42  1  0  0  0  0
 16 43  1  0  0  0  0
 16 44  1  0  0  0  0
 17 45  1  0  0  0  0
 17 46  1  0  0  0  0
 18 47  1  0  0  0  0
 18 48  1  0  0  0  0
 20 49  1  0  0  0  0
 20 50  1  0  0  0  0
 20 51  1  0  0  0  0
 21 24  1  0  0  0  0
 22 25  1  0  0  0  0
 22 52  1  0  0  0  0
 22 53  1  0  0  0  0
 23 26  1  0  0  0  0
 23 54  1  0  0  0  0
 23 55  1  0  0  0  0
 24 28  2  0  0  0  0
 24 29  1  0  0  0  0
 25 56  1  0  0  0  0
 25 57  1  0  0  0  0
 26 58  1  0  0  0  0
 26 59  1  0  0  0  0
 27 28  1  0  0  0  0
 28 60  1  0  0  0  0
 29 31  2  0  0  0  0
 29 61  1  0  0  0  0
 30 32  1  0  0  0  0
 31 62  1  0  0  0  0
 32 63  1  0  0  0  0
 32 64  1  0  0  0  0
 32 65  1  0  0  0  0
M  END
> <PUBCHEM_COMPOUND_CID>
51136820

> <PUBCHEM_CONFORMER_RMSD>
1

> <PUBCHEM_CONFORMER_DIVERSEORDER>
1
191
224
236
164
146
156
207
174
218
160
245
99
187
132
108
26
116
239
199
76
14
130
84
215
152
103
176
31
211
128
74
69
234
161
220
114
205
190
189
197
35
214
219
51
142
101
221
213
235
240
44
62
131
29
55
111
75
129
41
15
109
228
112
118
230
123
198
158
185
140
47
178
201
200
183
184
196
167
223
147
102
34
100
166
231
71
153
49
127
168
238
33
203
22
24
134
180
57
135
126
36
177
138
137
149
96
86
52
68
227
206
70
95
145
60
98
97
91
155
248
110
37
216
78
113
210
150
94
72
154
194
67
59
243
208
225
148
92
141
143
226
163
19
237
139
10
63
66
28
165
171
242
82
53
56
195
173
204
241
11
61
119
39
169
159
88
170
151
107
246
120
217
48
249
212
233
179
80
46
18
77
121
79
40
193
105
117
20
222
175
58
181
162
17
115
188
54
89
38
124
136
244
73
192
7
247
106
229
144
23
32
50
104
16
93
3
25
64
125
8
209
182
232
133
157
30
2
202
45
172
5
186
81
122
85
13
65
4
9
87
6
27
83
90
43
42
12
21

> <PUBCHEM_MMFF94_PARTIAL_CHARGES>
31
1 -0.02
10 0.27
11 0.45
12 0.27
17 0.27
18 0.27
19 0.3
2 -0.57
20 0.27
21 0.46
22 0.37
23 0.37
24 0.05
25 0.3
26 0.3
27 0.41
28 -0.15
29 -0.15
3 -0.81
30 0.57
31 0.16
32 0.06
4 -0.81
5 -0.57
6 -0.41
60 0.15
61 0.15
62 0.15
7 -0.84
8 -0.66
9 -0.62

> <PUBCHEM_EFFECTIVE_ROTOR_COUNT>
8.4

> <PUBCHEM_PHARMACOPHORE_FEATURES>
10
1 2 acceptor
1 3 cation
1 4 cation
3 5 6 21 cation
3 7 9 27 cation
5 1 5 6 19 21 rings
5 3 11 12 15 16 rings
6 4 10 13 14 17 18 rings
6 7 8 22 23 25 26 rings
6 9 24 27 28 29 31 rings

> <PUBCHEM_HEAVY_ATOM_COUNT>
32

> <PUBCHEM_ATOM_DEF_STEREO_COUNT>
1

> <PUBCHEM_ATOM_UDEF_STEREO_COUNT>
0

> <PUBCHEM_BOND_DEF_STEREO_COUNT>
0

> <PUBCHEM_BOND_UDEF_STEREO_COUNT>
0

> <PUBCHEM_ISOTOPIC_ATOM_COUNT>
0

> <PUBCHEM_COMPONENT_COUNT>
1

> <PUBCHEM_CACTVS_TAUTO_COUNT>
1

> <PUBCHEM_CONFORMER_ID>
030C493400000001

> <PUBCHEM_MMFF94_ENERGY>
71.5058

> <PUBCHEM_FEATURE_SELFOVERLAP>
50.75

> <PUBCHEM_SHAPE_FINGERPRINT>
10305334 12 18116454569773202867
10462674 125 16337747336113913814
10622 236 18126561447811660719
10842051 180 16909439561911082792
10928967 22 18409176514821516542
11069576 57 17975123550664426196
11135926 11 17752497709544173876
11227150 75 16482148379764448263
11524674 6 18126847101833702405
11621639 183 15553894286865484674
12120059 20 18412825773103543452
12174731 88 18337670823896793930
12218070 45 18129647708616719638
12390115 104 10663523951155104912
12422481 6 18059303045877079126
12559416 138 18338237197271875558
12559416 39 18042942403093206762
12977781 61 17696991003630222513
13383661 66 16314445553543040667
14114206 34 17096078083229056832
14178184 131 18124587588544220334
14279260 333 17460316547685417858
14480069 147 17749682860433058946
14844126 61 18338510820773530001
15264996 74 17914303854489022223
15320291 9 18051123989385055662
15320294 125 18199768980566508985
15684393 108 17096956623443175502
16728300 4 18266480857135800515
18603816 31 18194099850957754828
19303781 99 17895194330357723106
19315092 285 17629752641622161025
19319366 153 17402604646330905636
20554085 129 16914848876648399257
208703 8 18259990378960362506
21133410 221 16971672517339518526
21133665 82 17539119563511883508
21585480 29 18270944835505196746
21599406 157 15864363419771918706
22907989 373 10737284693015541689
23559900 14 18041002842600394737
312425 83 12901816186793161520
345986 75 17413595296417449735
4017518 198 17911512100034470365
44426695 248 17489574650969356470
44880168 125 18128543656923506342
46194498 28 15503517021743591236
484985 159 18339912750044493831
6058803 2 18268165316870132837
613672 6 17895180122104468904
6201460 15 18126561447585509286
6431902 208 18041000609860082962
6523845 18 11599176515915480040
6636798 310 17273959389073440990

> <PUBCHEM_SHAPE_MULTIPOLES>
611.94
15.06
5.4
2.95
20.73
0.51
-0.74
16.4
-5.14
0.25
3.69
-4.37
1.78
-5.98

> <PUBCHEM_SHAPE_SELFOVERLAP>
1303.514

> <PUBCHEM_SHAPE_VOLUME>
340.7

> <PUBCHEM_COORDINATE_TYPE>
2
5
10

$$$$
