11942317
  -OEChem-12032416153D

 59 62  0     1  0  0  0  0  0999 V2000
    3.2341   -4.7631   -1.0768 F   0  0  0  0  0  0  0  0  0  0  0  0
    1.8110    1.2238    2.0159 O   0  0  0  0  0  0  0  0  0  0  0  0
   -0.0381    2.7502   -1.6185 N   0  0  2  0  0  0  0  0  0  0  0  0
   -2.1673   -0.1939   -0.5437 N   0  0  0  0  0  0  0  0  0  0  0  0
    3.5241    1.3484    0.4446 N   0  0  0  0  0  0  0  0  0  0  0  0
   -1.9215   -0.8078    0.6176 N   0  0  0  0  0  0  0  0  0  0  0  0
   -3.0637   -1.3633    1.0073 N   0  0  0  0  0  0  0  0  0  0  0  0
    0.3180    3.2300    0.9142 C   0  0  2  0  0  0  0  0  0  0  0  0
   -1.0232    1.9804   -0.8128 C   0  0  2  0  0  0  0  0  0  0  0  0
    1.6349    2.8053    0.2365 C   0  0  2  0  0  0  0  0  0  0  0  0
   -0.7371    2.1269    0.6978 C   0  0  0  0  0  0  0  0  0  0  0  0
   -0.1758    4.4874    0.1762 C   0  0  0  0  0  0  0  0  0  0  0  0
    1.3454    2.3934   -1.2179 C   0  0  0  0  0  0  0  0  0  0  0  0
   -0.2445    4.1923   -1.3339 C   0  0  0  0  0  0  0  0  0  0  0  0
   -1.1023    0.5121   -1.2367 C   0  0  0  0  0  0  0  0  0  0  0  0
    2.3088    1.7069    1.0024 C   0  0  0  0  0  0  0  0  0  0  0  0
   -3.4543   -0.3281   -0.9393 C   0  0  0  0  0  0  0  0  0  0  0  0
    4.3816    0.3296    1.0059 C   0  0  0  0  0  0  0  0  0  0  0  0
   -4.0124   -1.0788    0.0648 C   0  0  0  0  0  0  0  0  0  0  0  0
   -5.3942   -1.5556    0.2050 C   0  0  0  0  0  0  0  0  0  0  0  0
    4.0754   -1.0312    0.4501 C   0  0  0  0  0  0  0  0  0  0  0  0
   -5.8382   -2.4834   -0.9838 C   0  0  0  0  0  0  0  0  0  0  0  0
   -6.4372   -0.3807    0.2628 C   0  0  0  0  0  0  0  0  0  0  0  0
   -5.7028   -2.4079    1.4946 C   0  0  0  0  0  0  0  0  0  0  0  0
    3.1364   -1.8370    1.0830 C   0  0  0  0  0  0  0  0  0  0  0  0
    4.7339   -1.4708   -0.6922 C   0  0  0  0  0  0  0  0  0  0  0  0
    2.8518   -3.1009    0.5660 C   0  0  0  0  0  0  0  0  0  0  0  0
    4.4490   -2.7346   -1.2091 C   0  0  0  0  0  0  0  0  0  0  0  0
    3.5081   -3.5497   -0.5800 C   0  0  0  0  0  0  0  0  0  0  0  0
    0.4491    3.4373    1.9819 H   0  0  0  0  0  0  0  0  0  0  0  0
   -2.0163    2.4113   -1.0093 H   0  0  0  0  0  0  0  0  0  0  0  0
    2.3214    3.6641    0.2405 H   0  0  0  0  0  0  0  0  0  0  0  0
   -1.6636    2.4039    1.2168 H   0  0  0  0  0  0  0  0  0  0  0  0
   -0.3957    1.1912    1.1447 H   0  0  0  0  0  0  0  0  0  0  0  0
   -1.1655    4.7770    0.5495 H   0  0  0  0  0  0  0  0  0  0  0  0
    0.5015    5.3295    0.3604 H   0  0  0  0  0  0  0  0  0  0  0  0
    1.5254    1.3275   -1.3972 H   0  0  0  0  0  0  0  0  0  0  0  0
    2.0471    2.9110   -1.8854 H   0  0  0  0  0  0  0  0  0  0  0  0
    0.5067    4.7868   -1.8695 H   0  0  0  0  0  0  0  0  0  0  0  0
   -1.2133    4.5171   -1.7334 H   0  0  0  0  0  0  0  0  0  0  0  0
   -1.3091    0.4278   -2.3105 H   0  0  0  0  0  0  0  0  0  0  0  0
   -0.1750   -0.0365   -1.0358 H   0  0  0  0  0  0  0  0  0  0  0  0
    3.8430    1.8158   -0.3991 H   0  0  0  0  0  0  0  0  0  0  0  0
   -3.8475    0.0980   -1.8515 H   0  0  0  0  0  0  0  0  0  0  0  0
    4.2784    0.3286    2.0976 H   0  0  0  0  0  0  0  0  0  0  0  0
    5.4173    0.6125    0.7856 H   0  0  0  0  0  0  0  0  0  0  0  0
   -6.8709   -2.8296   -0.8641 H   0  0  0  0  0  0  0  0  0  0  0  0
   -5.7728   -1.9509   -1.9396 H   0  0  0  0  0  0  0  0  0  0  0  0
   -5.1875   -3.3630   -1.0500 H   0  0  0  0  0  0  0  0  0  0  0  0
   -7.4624   -0.7532    0.3666 H   0  0  0  0  0  0  0  0  0  0  0  0
   -6.3924    0.2257   -0.6492 H   0  0  0  0  0  0  0  0  0  0  0  0
   -6.2255    0.2811    1.1106 H   0  0  0  0  0  0  0  0  0  0  0  0
   -5.4923   -1.8260    2.3994 H   0  0  0  0  0  0  0  0  0  0  0  0
   -5.0713   -3.3033    1.5237 H   0  0  0  0  0  0  0  0  0  0  0  0
   -6.7498   -2.7287    1.5323 H   0  0  0  0  0  0  0  0  0  0  0  0
    2.6197   -1.5004    1.9772 H   0  0  0  0  0  0  0  0  0  0  0  0
    5.4670   -0.8434   -1.1915 H   0  0  0  0  0  0  0  0  0  0  0  0
    2.1191   -3.7357    1.0554 H   0  0  0  0  0  0  0  0  0  0  0  0
    4.9592   -3.0842   -2.1018 H   0  0  0  0  0  0  0  0  0  0  0  0
  1 29  1  0  0  0  0
  2 16  2  0  0  0  0
  3  9  1  0  0  0  0
  3 13  1  0  0  0  0
  3 14  1  0  0  0  0
  4  6  1  0  0  0  0
  4 15  1  0  0  0  0
  4 17  1  0  0  0  0
  5 16  1  0  0  0  0
  5 18  1  0  0  0  0
  5 43  1  0  0  0  0
  6  7  2  0  0  0  0
  7 19  1  0  0  0  0
  8 10  1  0  0  0  0
  8 11  1  0  0  0  0
  8 12  1  0  0  0  0
  8 30  1  0  0  0  0
  9 11  1  0  0  0  0
  9 15  1  0  0  0  0
  9 31  1  0  0  0  0
 10 13  1  0  0  0  0
 10 16  1  0  0  0  0
 10 32  1  0  0  0  0
 11 33  1  0  0  0  0
 11 34  1  0  0  0  0
 12 14  1  0  0  0  0
 12 35  1  0  0  0  0
 12 36  1  0  0  0  0
 13 37  1  0  0  0  0
 13 38  1  0  0  0  0
 14 39  1  0  0  0  0
 14 40  1  0  0  0  0
 15 41  1  0  0  0  0
 15 42  1  0  0  0  0
 17 19  2  0  0  0  0
 17 44  1  0  0  0  0
 18 21  1  0  0  0  0
 18 45  1  0  0  0  0
 18 46  1  0  0  0  0
 19 20  1  0  0  0  0
 20 22  1  0  0  0  0
 20 23  1  0  0  0  0
 20 24  1  0  0  0  0
 21 25  2  0  0  0  0
 21 26  1  0  0  0  0
 22 47  1  0  0  0  0
 22 48  1  0  0  0  0
 22 49  1  0  0  0  0
 23 50  1  0  0  0  0
 23 51  1  0  0  0  0
 23 52  1  0  0  0  0
 24 53  1  0  0  0  0
 24 54  1  0  0  0  0
 24 55  1  0  0  0  0
 25 27  1  0  0  0  0
 25 56  1  0  0  0  0
 26 28  2  0  0  0  0
 26 57  1  0  0  0  0
 27 29  2  0  0  0  0
 27 58  1  0  0  0  0
 28 29  1  0  0  0  0
 28 59  1  0  0  0  0
M  END
> <PUBCHEM_COMPOUND_CID>
11942317

> <PUBCHEM_CONFORMER_RMSD>
1

> <PUBCHEM_CONFORMER_DIVERSEORDER>
1
7
44
19
31
9
18
46
27
37
28
35
26
47
12
23
20
41
40
49
48
8
43
15
39
5
36
6
30
50
22
11
16
34
45
42
21
13
4
33
38
25
14
3
32
2
17
51
29
10
24
52

> <PUBCHEM_MMFF94_PARTIAL_CHARGES>
29
1 -0.19
10 0.06
13 0.27
14 0.27
15 0.26
16 0.57
17 -0.3
18 0.44
19 0.05
2 -0.57
20 0.18
21 -0.14
25 -0.15
26 -0.15
27 -0.15
28 -0.15
29 0.19
3 -0.81
4 0.31
43 0.37
44 0.15
5 -0.73
56 0.15
57 0.15
58 0.15
59 0.15
6 -0.42
7 -0.23
9 0.27

> <PUBCHEM_EFFECTIVE_ROTOR_COUNT>
8.2

> <PUBCHEM_PHARMACOPHORE_FEATURES>
7
1 2 acceptor
1 3 cation
1 5 donor
4 20 22 23 24 hydrophobe
5 4 6 7 17 19 rings
6 21 25 26 27 28 29 rings
8 3 8 9 10 11 12 13 14 rings

> <PUBCHEM_HEAVY_ATOM_COUNT>
29

> <PUBCHEM_ATOM_DEF_STEREO_COUNT>
3

> <PUBCHEM_ATOM_UDEF_STEREO_COUNT>
0

> <PUBCHEM_BOND_DEF_STEREO_COUNT>
0

> <PUBCHEM_BOND_UDEF_STEREO_COUNT>
0

> <PUBCHEM_ISOTOPIC_ATOM_COUNT>
0

> <PUBCHEM_COMPONENT_COUNT>
1

> <PUBCHEM_CACTVS_TAUTO_COUNT>
2

> <PUBCHEM_CONFORMER_ID>
00B639AD00000001

> <PUBCHEM_MMFF94_ENERGY>
65.2503

> <PUBCHEM_FEATURE_SELFOVERLAP>
35.52

> <PUBCHEM_SHAPE_FINGERPRINT>
10764073 3 17628084390926786097
114674 6 18261385719350580250
11954058 11 18340206413932707239
11991303 11 17682120980890671917
12107183 9 18270974457989569985
12147406 95 18044345310709221699
12422481 6 18058457517340792609
12623949 98 17825961600418158123
13402501 40 18261106417806838250
13533116 47 18267304429714424987
1361 2 18340483473499083667
13631057 29 18338244748293023134
13785724 45 18341343205871103839
13911852 28 18412821378687672919
14725015 67 18263631897289815778
14863182 85 18265892648068409868
14866123 147 17907578030467040201
15664445 248 17968094265617726300
15927050 60 17329150681622388964
17909252 39 18341333280544990058
1813 80 18334294283801390865
1979834 28 18268423701880205202
20775530 9 18339916026819755478
21285901 2 17968364736592500748
21315759 227 18120077408904879582
22889206 1 17770768319764109513
23466295 7 17908146477899316514
23559900 14 18115306825456937135
3383291 50 17330831323150608896
345986 75 17775288257092697313
3737641 26 18343301436233211990
38695281 34 17613439260948491428
404807 14 18054517898475487579
4144715 1 18188497982055757603
46194498 28 17604706823440885781
463206 1 18266173014458215970
5309563 4 18411696582455666918
6443956 14 18336263556339703633
7399639 24 18271229557308410434
9831232 110 18261672701261957931

> <PUBCHEM_SHAPE_MULTIPOLES>
558.76
12.32
6.13
1.48
15.5
1.66
-0.02
-16.05
-1.02
-4.47
1.43
-0.19
0.17
1.76

> <PUBCHEM_SHAPE_SELFOVERLAP>
1190.733

> <PUBCHEM_SHAPE_VOLUME>
313.4

> <PUBCHEM_COORDINATE_TYPE>
2
5
10

$$$$
