75536712
  -OEChem-12032416333D

 53 55  0     1  0  0  0  0  0999 V2000
    5.3247   -1.5472   -0.0520 S   0  0  0  0  0  0  0  0  0  0  0  0
    0.9877   -1.6797    1.3765 O   0  0  0  0  0  0  0  0  0  0  0  0
    0.0961   -1.4746   -2.0975 O   0  0  0  0  0  0  0  0  0  0  0  0
    5.3545   -2.0141   -1.4250 O   0  0  0  0  0  0  0  0  0  0  0  0
    6.2072   -2.1352    0.9376 O   0  0  0  0  0  0  0  0  0  0  0  0
   -8.9958    1.1125   -1.1416 O   0  0  0  0  0  0  0  0  0  0  0  0
   -8.5330    2.5423    0.5637 O   0  0  0  0  0  0  0  0  0  0  0  0
   -2.2162   -0.7734   -0.0881 N   0  0  0  0  0  0  0  0  0  0  0  0
    3.7265   -1.6044    0.5281 N   0  0  0  0  0  0  0  0  0  0  0  0
   -1.0000   -1.5516    0.0826 C   0  0  1  0  0  0  0  0  0  0  0  0
    0.1655   -1.0504   -0.7500 C   0  0  1  0  0  0  0  0  0  0  0  0
    1.3420   -1.6801   -0.0165 C   0  0  1  0  0  0  0  0  0  0  0  0
   -0.4288   -1.4561    1.4878 C   0  0  0  0  0  0  0  0  0  0  0  0
    2.6456   -0.9274   -0.2148 C   0  0  0  0  0  0  0  0  0  0  0  0
   -3.3714   -1.4786    0.4543 C   0  0  0  0  0  0  0  0  0  0  0  0
   -4.6384   -0.6799    0.3012 C   0  0  0  0  0  0  0  0  0  0  0  0
    5.6446    0.1913   -0.0606 C   0  0  0  0  0  0  0  0  0  0  0  0
   -4.8903    0.3973    1.1510 C   0  0  0  0  0  0  0  0  0  0  0  0
   -5.5602   -1.0169   -0.6900 C   0  0  0  0  0  0  0  0  0  0  0  0
    6.1843    0.8063    1.0690 C   0  0  0  0  0  0  0  0  0  0  0  0
    5.3545    0.9484   -1.1957 C   0  0  0  0  0  0  0  0  0  0  0  0
   -6.0639    1.1373    1.0095 C   0  0  0  0  0  0  0  0  0  0  0  0
   -6.7340   -0.2767   -0.8313 C   0  0  0  0  0  0  0  0  0  0  0  0
   -6.9859    0.8006    0.0183 C   0  0  0  0  0  0  0  0  0  0  0  0
    6.4342    2.1785    1.0635 C   0  0  0  0  0  0  0  0  0  0  0  0
    5.6042    2.3207   -1.2011 C   0  0  0  0  0  0  0  0  0  0  0  0
    6.1443    2.9358   -0.0715 C   0  0  0  0  0  0  0  0  0  0  0  0
    6.4114    4.4030   -0.0772 C   0  0  0  0  0  0  0  0  0  0  0  0
   -8.2094    1.5725   -0.1302 C   0  0  0  0  0  0  0  0  0  0  0  0
   -1.1810   -2.6024   -0.1847 H   0  0  0  0  0  0  0  0  0  0  0  0
    0.2251    0.0449   -0.7268 H   0  0  0  0  0  0  0  0  0  0  0  0
    1.4766   -2.7269   -0.3197 H   0  0  0  0  0  0  0  0  0  0  0  0
   -0.5648   -0.4606    1.9262 H   0  0  0  0  0  0  0  0  0  0  0  0
   -0.8595   -2.1950    2.1703 H   0  0  0  0  0  0  0  0  0  0  0  0
    2.5592    0.0917    0.1785 H   0  0  0  0  0  0  0  0  0  0  0  0
    2.8823   -0.8809   -1.2820 H   0  0  0  0  0  0  0  0  0  0  0  0
   -2.3683   -0.6075   -1.0834 H   0  0  0  0  0  0  0  0  0  0  0  0
   -3.2330   -1.6910    1.5221 H   0  0  0  0  0  0  0  0  0  0  0  0
   -3.4928   -2.4512   -0.0402 H   0  0  0  0  0  0  0  0  0  0  0  0
    0.0426   -2.4452   -2.1102 H   0  0  0  0  0  0  0  0  0  0  0  0
    3.5767   -1.7060    1.5398 H   0  0  0  0  0  0  0  0  0  0  0  0
   -4.1796    0.6688    1.9272 H   0  0  0  0  0  0  0  0  0  0  0  0
   -5.3754   -1.8523   -1.3602 H   0  0  0  0  0  0  0  0  0  0  0  0
    6.4108    0.2374    1.9662 H   0  0  0  0  0  0  0  0  0  0  0  0
    4.9316    0.4906   -2.0853 H   0  0  0  0  0  0  0  0  0  0  0  0
   -6.2416    1.9729    1.6815 H   0  0  0  0  0  0  0  0  0  0  0  0
   -7.4239   -0.5732   -1.6164 H   0  0  0  0  0  0  0  0  0  0  0  0
    6.8550    2.6463    1.9496 H   0  0  0  0  0  0  0  0  0  0  0  0
    5.3750    2.8998   -2.0917 H   0  0  0  0  0  0  0  0  0  0  0  0
    6.3067    4.8277    0.9270 H   0  0  0  0  0  0  0  0  0  0  0  0
    5.7022    4.9313   -0.7236 H   0  0  0  0  0  0  0  0  0  0  0  0
    7.4265    4.5986   -0.4367 H   0  0  0  0  0  0  0  0  0  0  0  0
   -9.8180    1.6398   -1.2334 H   0  0  0  0  0  0  0  0  0  0  0  0
  1  4  2  0  0  0  0
  1  5  2  0  0  0  0
  1  9  1  0  0  0  0
  1 17  1  0  0  0  0
  2 12  1  0  0  0  0
  2 13  1  0  0  0  0
  3 11  1  0  0  0  0
  3 40  1  0  0  0  0
  6 29  1  0  0  0  0
  6 53  1  0  0  0  0
  7 29  2  0  0  0  0
  8 10  1  0  0  0  0
  8 15  1  0  0  0  0
  8 37  1  0  0  0  0
  9 14  1  0  0  0  0
  9 41  1  0  0  0  0
 10 11  1  0  0  0  0
 10 13  1  0  0  0  0
 10 30  1  0  0  0  0
 11 12  1  0  0  0  0
 11 31  1  0  0  0  0
 12 14  1  0  0  0  0
 12 32  1  0  0  0  0
 13 33  1  0  0  0  0
 13 34  1  0  0  0  0
 14 35  1  0  0  0  0
 14 36  1  0  0  0  0
 15 16  1  0  0  0  0
 15 38  1  0  0  0  0
 15 39  1  0  0  0  0
 16 18  2  0  0  0  0
 16 19  1  0  0  0  0
 17 20  2  0  0  0  0
 17 21  1  0  0  0  0
 18 22  1  0  0  0  0
 18 42  1  0  0  0  0
 19 23  2  0  0  0  0
 19 43  1  0  0  0  0
 20 25  1  0  0  0  0
 20 44  1  0  0  0  0
 21 26  2  0  0  0  0
 21 45  1  0  0  0  0
 22 24  2  0  0  0  0
 22 46  1  0  0  0  0
 23 24  1  0  0  0  0
 23 47  1  0  0  0  0
 24 29  1  0  0  0  0
 25 27  2  0  0  0  0
 25 48  1  0  0  0  0
 26 27  1  0  0  0  0
 26 49  1  0  0  0  0
 27 28  1  0  0  0  0
 28 50  1  0  0  0  0
 28 51  1  0  0  0  0
 28 52  1  0  0  0  0
M  END
> <PUBCHEM_COMPOUND_CID>
75536712

> <PUBCHEM_CONFORMER_RMSD>
1

> <PUBCHEM_CONFORMER_DIVERSEORDER>
1
6
92
35
80
101
107
120
23
75
119
22
124
126
54
93
68
87
25
72
71
49
148
30
38
150
78
109
70
74
34
40
47
135
114
29
121
123
141
4
100
9
128
134
98
149
81
111
58
36
26
94
138
31
102
85
97
18
57
122
48
99
59
151
125
15
113
33
13
24
89
63
79
39
65
45
127
84
140
43
11
110
105
142
73
46
103
5
7
144
131
86
83
50
61
3
77
117
130
145
96
20
146
32
95
115
14
104
147
64
37
2
137
44
108
28
139
88
136
42
56
51
76
118
132
27
60
55
129
69
112
53
12
143
41
19
10
8
90
82
91
16
116
133
106
21
66
52
62
67
17

> <PUBCHEM_MMFF94_PARTIAL_CHARGES>
41
1 1.45
10 0.27
11 0.28
12 0.28
13 0.28
14 0.36
15 0.41
16 -0.14
17 -0.01
18 -0.15
19 -0.15
2 -0.56
20 -0.15
21 -0.15
22 -0.15
23 -0.15
24 0.09
25 -0.15
26 -0.15
27 -0.14
28 0.14
29 0.63
3 -0.68
37 0.36
4 -0.65
40 0.4
41 0.42
42 0.15
43 0.15
44 0.15
45 0.15
46 0.15
47 0.15
48 0.15
49 0.15
5 -0.65
53 0.5
6 -0.65
7 -0.57
8 -0.9
9 -0.91

> <PUBCHEM_EFFECTIVE_ROTOR_COUNT>
9

> <PUBCHEM_PHARMACOPHORE_FEATURES>
14
1 2 acceptor
1 3 acceptor
1 3 donor
1 4 acceptor
1 5 acceptor
1 6 acceptor
1 7 acceptor
1 8 cation
1 8 donor
1 9 donor
3 6 7 29 anion
5 2 10 11 12 13 rings
6 16 18 19 22 23 24 rings
6 17 20 21 25 26 27 rings

> <PUBCHEM_HEAVY_ATOM_COUNT>
29

> <PUBCHEM_ATOM_DEF_STEREO_COUNT>
3

> <PUBCHEM_ATOM_UDEF_STEREO_COUNT>
0

> <PUBCHEM_BOND_DEF_STEREO_COUNT>
0

> <PUBCHEM_BOND_UDEF_STEREO_COUNT>
0

> <PUBCHEM_ISOTOPIC_ATOM_COUNT>
0

> <PUBCHEM_COMPONENT_COUNT>
1

> <PUBCHEM_CACTVS_TAUTO_COUNT>
1

> <PUBCHEM_CONFORMER_ID>
0480994800000001

> <PUBCHEM_MMFF94_ENERGY>
59.2128

> <PUBCHEM_FEATURE_SELFOVERLAP>
71.124

> <PUBCHEM_SHAPE_FINGERPRINT>
10 15 16081091488952387751
10280341 67 17699843219130678872
10299344 5 8358252657769972483
10554248 39 17917992733201243814
10673678 19 18272656774761490622
11135609 127 18343295994741639658
11211813 74 18408882915452945997
11386260 185 18202014205397395324
11408170 253 18059300834317881041
11578821 258 18411698756474802133
117089 54 7851928666046088720
11991303 11 16200144443639563693
125118 31 18409168809365207912
12522641 24 17968371239748416282
12539765 74 18201726124302658175
12664476 115 18261110751924302892
13668630 136 12391504283727110839
13782708 43 9439413405949519890
13944108 23 18337394954823426796
13974486 7 10590670233796633692
14251757 52 18410853265531865977
14347424 109 18334573534564959626
14565420 104 18040712567593923682
15131766 46 18127121103773001084
15183329 4 17418098723475780922
15475509 35 11097851934836607220
15840311 113 18335423447861981087
16994733 274 18411414055179937225
17134984 74 11671784862763782412
1754908 1 16805328795211254825
17686467 74 18113619019964588783
2026 5 9727643795234592497
20771845 171 17489311841113249550
21033648 29 17530970219164874530
21130935 74 18113619001514453467
21298829 104 18337392763872771004
21344244 181 11383833774843974508
21521239 73 12175623975257569078
21585482 111 18335987583865569292
21792934 111 17676198040151643174
22002106 203 10807674251011261924
23576562 1 17059480984991080401
24771293 8 17895192272376681558
249057 25 17703238308455616274
27425 322 18413108390152256174
2748736 6 18337107968543013784
328310 630 18201729457148936465
33532 11 9295288339744067841
3711267 37 18272095938338616161
3918712 181 18340201990001082080
397638 26 16660363684309232049
397830 11 18042416879019929027
4073 2 18407761456621896227
444735 82 18335423495117618940
44555599 121 18343306929069252625
4760202 170 18409719652444892293
5104073 3 15503237724341724955
6328613 192 18413671327024582995
6898599 12 18129100211311960494
9831232 110 9727373311337116216

> <PUBCHEM_SHAPE_MULTIPOLES>
555.48
28.5
3.46
1.33
33.98
3.16
0.14
23.87
1.22
-6.63
-0.05
-0.41
-0.22
-0.43

> <PUBCHEM_SHAPE_SELFOVERLAP>
1162.709

> <PUBCHEM_SHAPE_VOLUME>
314.5

> <PUBCHEM_COORDINATE_TYPE>
2
5
10

$$$$
