75536516
  -OEChem-12032416343D

 53 54  0     1  0  0  0  0  0999 V2000
    0.6551    0.0340   -0.3444 O   0  0  0  0  0  0  0  0  0  0  0  0
   -1.0780   -2.6744    1.2577 O   0  0  0  0  0  0  0  0  0  0  0  0
    3.2422   -0.3613   -1.8864 O   0  0  0  0  0  0  0  0  0  0  0  0
   -2.8783   -0.8114   -0.5211 N   0  0  0  0  0  0  0  0  0  0  0  0
   -6.5052    1.2399    0.3391 N   0  0  0  0  0  0  0  0  0  0  0  0
    3.0783   -1.4466    0.1620 N   0  0  0  0  0  0  0  0  0  0  0  0
   -1.5930   -0.5782    0.1170 C   0  0  1  0  0  0  0  0  0  0  0  0
   -0.7176   -1.8154    0.1933 C   0  0  1  0  0  0  0  0  0  0  0  0
   -3.7986    0.2952   -0.2697 C   0  0  0  0  0  0  0  0  0  0  0  0
    0.6546   -1.1910    0.4075 C   0  0  1  0  0  0  0  0  0  0  0  0
   -0.7047    0.3706   -0.6709 C   0  0  0  0  0  0  0  0  0  0  0  0
   -4.3988    0.2015    1.1378 C   0  0  0  0  0  0  0  0  0  0  0  0
   -4.9147    0.3058   -1.3194 C   0  0  0  0  0  0  0  0  0  0  0  0
    1.7967   -2.0779   -0.0555 C   0  0  0  0  0  0  0  0  0  0  0  0
   -5.4503    1.2907    1.3545 C   0  0  0  0  0  0  0  0  0  0  0  0
   -5.9461    1.3908   -1.0066 C   0  0  0  0  0  0  0  0  0  0  0  0
    4.9779    1.2780    0.3860 C   0  0  0  0  0  0  0  0  0  0  0  0
    5.0388   -0.1022   -0.3107 C   0  0  0  0  0  0  0  0  0  0  0  0
    3.6950   -0.6378   -0.7774 C   0  0  0  0  0  0  0  0  0  0  0  0
    4.0585    1.2471    1.6178 C   0  0  0  0  0  0  0  0  0  0  0  0
    6.3799    1.7463    0.8106 C   0  0  0  0  0  0  0  0  0  0  0  0
    4.4086    2.2963   -0.6212 C   0  0  0  0  0  0  0  0  0  0  0  0
   -1.7164   -0.2042    1.1407 H   0  0  0  0  0  0  0  0  0  0  0  0
   -0.7525   -2.3819   -0.7456 H   0  0  0  0  0  0  0  0  0  0  0  0
   -3.2720    1.2544   -0.3644 H   0  0  0  0  0  0  0  0  0  0  0  0
    0.8049   -0.9267    1.4626 H   0  0  0  0  0  0  0  0  0  0  0  0
   -3.2854   -1.6822   -0.1814 H   0  0  0  0  0  0  0  0  0  0  0  0
   -0.8168    0.2438   -1.7539 H   0  0  0  0  0  0  0  0  0  0  0  0
   -0.8834    1.4220   -0.4266 H   0  0  0  0  0  0  0  0  0  0  0  0
   -3.6317    0.3069    1.9121 H   0  0  0  0  0  0  0  0  0  0  0  0
   -4.8664   -0.7814    1.2863 H   0  0  0  0  0  0  0  0  0  0  0  0
   -5.4164   -0.6709   -1.3495 H   0  0  0  0  0  0  0  0  0  0  0  0
   -4.4945    0.4789   -2.3178 H   0  0  0  0  0  0  0  0  0  0  0  0
    1.7035   -2.2972   -1.1252 H   0  0  0  0  0  0  0  0  0  0  0  0
    1.8014   -3.0244    0.4945 H   0  0  0  0  0  0  0  0  0  0  0  0
   -5.9069    1.1551    2.3412 H   0  0  0  0  0  0  0  0  0  0  0  0
   -4.9764    2.2801    1.3554 H   0  0  0  0  0  0  0  0  0  0  0  0
   -5.4957    2.3850   -1.1172 H   0  0  0  0  0  0  0  0  0  0  0  0
   -6.7621    1.3280   -1.7350 H   0  0  0  0  0  0  0  0  0  0  0  0
   -7.1741    1.9899    0.5113 H   0  0  0  0  0  0  0  0  0  0  0  0
   -1.0470   -2.1655    2.0854 H   0  0  0  0  0  0  0  0  0  0  0  0
    3.5327   -1.6057    1.0563 H   0  0  0  0  0  0  0  0  0  0  0  0
    5.4987   -0.8358    0.3643 H   0  0  0  0  0  0  0  0  0  0  0  0
    5.6936   -0.0560   -1.1908 H   0  0  0  0  0  0  0  0  0  0  0  0
    3.0157    1.0486    1.3502 H   0  0  0  0  0  0  0  0  0  0  0  0
    4.0748    2.2093    2.1430 H   0  0  0  0  0  0  0  0  0  0  0  0
    4.3805    0.4779    2.3283 H   0  0  0  0  0  0  0  0  0  0  0  0
    6.8218    1.0499    1.5319 H   0  0  0  0  0  0  0  0  0  0  0  0
    7.0536    1.8053   -0.0515 H   0  0  0  0  0  0  0  0  0  0  0  0
    6.3475    2.7367    1.2783 H   0  0  0  0  0  0  0  0  0  0  0  0
    3.3661    2.0836   -0.8802 H   0  0  0  0  0  0  0  0  0  0  0  0
    4.9935    2.3094   -1.5478 H   0  0  0  0  0  0  0  0  0  0  0  0
    4.4310    3.3103   -0.2047 H   0  0  0  0  0  0  0  0  0  0  0  0
  1 10  1  0  0  0  0
  1 11  1  0  0  0  0
  2  8  1  0  0  0  0
  2 41  1  0  0  0  0
  3 19  2  0  0  0  0
  4  7  1  0  0  0  0
  4  9  1  0  0  0  0
  4 27  1  0  0  0  0
  5 15  1  0  0  0  0
  5 16  1  0  0  0  0
  5 40  1  0  0  0  0
  6 14  1  0  0  0  0
  6 19  1  0  0  0  0
  6 42  1  0  0  0  0
  7  8  1  0  0  0  0
  7 11  1  0  0  0  0
  7 23  1  0  0  0  0
  8 10  1  0  0  0  0
  8 24  1  0  0  0  0
  9 12  1  0  0  0  0
  9 13  1  0  0  0  0
  9 25  1  0  0  0  0
 10 14  1  0  0  0  0
 10 26  1  0  0  0  0
 11 28  1  0  0  0  0
 11 29  1  0  0  0  0
 12 15  1  0  0  0  0
 12 30  1  0  0  0  0
 12 31  1  0  0  0  0
 13 16  1  0  0  0  0
 13 32  1  0  0  0  0
 13 33  1  0  0  0  0
 14 34  1  0  0  0  0
 14 35  1  0  0  0  0
 15 36  1  0  0  0  0
 15 37  1  0  0  0  0
 16 38  1  0  0  0  0
 16 39  1  0  0  0  0
 17 18  1  0  0  0  0
 17 20  1  0  0  0  0
 17 21  1  0  0  0  0
 17 22  1  0  0  0  0
 18 19  1  0  0  0  0
 18 43  1  0  0  0  0
 18 44  1  0  0  0  0
 20 45  1  0  0  0  0
 20 46  1  0  0  0  0
 20 47  1  0  0  0  0
 21 48  1  0  0  0  0
 21 49  1  0  0  0  0
 21 50  1  0  0  0  0
 22 51  1  0  0  0  0
 22 52  1  0  0  0  0
 22 53  1  0  0  0  0
M  END
> <PUBCHEM_COMPOUND_CID>
75536516

> <PUBCHEM_CONFORMER_RMSD>
1

> <PUBCHEM_CONFORMER_DIVERSEORDER>
1
101
114
39
77
58
120
78
104
67
23
21
93
113
31
91
132
55
116
62
106
94
130
73
29
87
100
38
108
121
36
79
20
109
33
49
112
96
90
70
84
107
66
83
34
11
50
28
2
127
86
98
80
92
51
115
8
85
105
35
22
110
59
89
117
32
129
72
128
14
69
56
52
99
122
65
74
118
12
76
27
19
4
71
48
126
60
53
63
124
68
13
97
123
41
102
30
7
111
9
57
54
42
6
16
10
119
95
45
47
82
15
24
44
25
43
125
46
18
131
3
133
37
75
17
88
103
61
40
64
26
81
5

> <PUBCHEM_MMFF94_PARTIAL_CHARGES>
20
1 -0.56
10 0.28
11 0.28
14 0.3
15 0.27
16 0.27
18 0.06
19 0.57
2 -0.68
27 0.36
3 -0.57
4 -0.9
40 0.36
41 0.4
42 0.37
5 -0.9
6 -0.73
7 0.27
8 0.28
9 0.27

> <PUBCHEM_EFFECTIVE_ROTOR_COUNT>
9.2

> <PUBCHEM_PHARMACOPHORE_FEATURES>
12
1 1 acceptor
1 2 acceptor
1 2 donor
1 3 acceptor
1 4 cation
1 4 donor
1 5 cation
1 5 donor
1 6 donor
4 17 20 21 22 hydrophobe
5 1 7 8 10 11 rings
6 5 9 12 13 15 16 rings

> <PUBCHEM_HEAVY_ATOM_COUNT>
22

> <PUBCHEM_ATOM_DEF_STEREO_COUNT>
3

> <PUBCHEM_ATOM_UDEF_STEREO_COUNT>
0

> <PUBCHEM_BOND_DEF_STEREO_COUNT>
0

> <PUBCHEM_BOND_UDEF_STEREO_COUNT>
0

> <PUBCHEM_ISOTOPIC_ATOM_COUNT>
0

> <PUBCHEM_COMPONENT_COUNT>
1

> <PUBCHEM_CACTVS_TAUTO_COUNT>
2

> <PUBCHEM_CONFORMER_ID>
0480988400000001

> <PUBCHEM_MMFF94_ENERGY>
30.793

> <PUBCHEM_FEATURE_SELFOVERLAP>
60.897

> <PUBCHEM_SHAPE_FINGERPRINT>
10 15 17530690930753810929
10319926 262 15213574538531186559
10692045 39 17822561708427506746
11089746 13 18131350791322615570
11595378 159 16805874109285374260
12236239 1 18130787816195483039
12403259 118 16877664565316320671
12403259 415 18114740434891736438
12633257 1 18041829740517324420
12969540 114 18411688881674095135
13533116 47 18263361404729044762
13551218 46 11025796496540316113
13668630 136 10591753290928794581
13685833 64 9727631726043434428
13955234 65 18189896405257847074
14123256 34 8430322367789466368
1420 369 8574713502823145963
14211702 104 7853268957455364465
14251740 57 12973877079640370304
14251764 30 10015865388029912709
14251764 75 17899708044222028516
14366163 111 17703791414116764322
14528608 73 17703784829747257213
15183329 4 16343705430468220833
15348495 7 17313391166032291072
16079462 125 17749665195776006645
17349148 13 7925627838815580709
17834072 33 17131828776746355917
17870717 6 13902185981243835349
17959699 21 18131918152128348384
1813 80 10807933777602101370
18222031 100 10375867455057680599
20645477 56 18040150725435790846
20715895 44 18409727378911170008
21033648 29 17749105540073018389
21150785 3 16487248898404586805
21315763 76 18342172288888488688
21774942 28 17203333278377296264
22061861 79 11743833656075857081
22224240 67 18113623374724025051
23559900 14 18410300211927289510
25122255 55 9655282766294535349
2767999 5 18410007745390536549
2838139 119 17846497032412357193
2916195 48 18408886239525134659
293599 30 18334859402876703639
300161 21 18409726245002627447
3004659 81 15984829164742461374
3014063 24 10881690134864827281
3089732 80 10663817494515371589
3472631 163 18272089417786229158
34797466 226 17561086891127860653
3680242 22 18187077356707745344
4340502 62 16298387933321206179
465052 167 8142084282202911944
474 4 18411701019262105768
5104073 3 18187365436774893794
53917941 68 18335131025525887775
543368 44 18202561783399119545
5718773 13 9655035342140566900
59682541 52 16558746772209612941
960060 61 15195288612141577478

> <PUBCHEM_SHAPE_MULTIPOLES>
420.2
16.5
2.24
1.33
6.1
0.48
0.02
-12.46
0.66
-1.46
0.47
0.31
-0.21
0.65

> <PUBCHEM_SHAPE_SELFOVERLAP>
838.913

> <PUBCHEM_SHAPE_VOLUME>
248.7

> <PUBCHEM_COORDINATE_TYPE>
2
5
10

$$$$
