45783990
  -OEChem-12032416353D

 63 66  0     1  0  0  0  0  0999 V2000
   -1.1995    1.8590   -0.3921 O   0  0  0  0  0  0  0  0  0  0  0  0
   -7.5169   -1.5965    0.2603 O   0  5  0  0  0  0  0  0  0  0  0  0
   -7.2634   -0.9799   -1.8313 O   0  0  0  0  0  0  0  0  0  0  0  0
    2.6478   -2.4712    0.4177 N   0  0  0  0  0  0  0  0  0  0  0  0
   -0.0519    2.0151    1.5219 N   0  0  0  0  0  0  0  0  0  0  0  0
   -1.2286    1.3383    1.7834 N   0  0  0  0  0  0  0  0  0  0  0  0
   -6.8525   -1.0400   -0.6472 N   0  3  0  0  0  0  0  0  0  0  0  0
    3.3510    0.0123   -0.9647 C   0  0  1  0  0  0  0  0  0  0  0  0
    3.5386   -0.1848    0.5577 C   0  0  2  0  0  0  0  0  0  0  0  0
    2.1657    0.9471   -1.2440 C   0  0  0  0  0  0  0  0  0  0  0  0
    2.2991    2.3248   -0.5604 C   0  0  2  0  0  0  0  0  0  0  0  0
    4.6355    0.5327   -1.6239 C   0  0  0  0  0  0  0  0  0  0  0  0
    2.5430   -1.2028    1.1235 C   0  0  0  0  0  0  0  0  0  0  0  0
    3.4196    1.1056    1.3276 C   0  0  0  0  0  0  0  0  0  0  0  0
    2.8809    2.2396    0.8427 C   0  0  0  0  0  0  0  0  0  0  0  0
    0.9347    3.0244   -0.5987 C   0  0  0  0  0  0  0  0  0  0  0  0
    3.7830   -3.2724    0.8746 C   0  0  0  0  0  0  0  0  0  0  0  0
    1.4758   -3.3221    0.6217 C   0  0  0  0  0  0  0  0  0  0  0  0
    4.4440    0.6646   -3.1314 C   0  0  0  0  0  0  0  0  0  0  0  0
    5.8080   -0.3898   -1.3063 C   0  0  0  0  0  0  0  0  0  0  0  0
    3.4733   -4.6532    0.3151 C   0  0  0  0  0  0  0  0  0  0  0  0
    1.9575   -4.6846    0.1455 C   0  0  0  0  0  0  0  0  0  0  0  0
    2.8911    3.4969    1.6680 C   0  0  0  0  0  0  0  0  0  0  0  0
   -0.0777    2.2991    0.2407 C   0  0  0  0  0  0  0  0  0  0  0  0
   -1.8665    1.2705    0.6382 C   0  0  0  0  0  0  0  0  0  0  0  0
   -3.1332    0.6829    0.3114 C   0  0  0  0  0  0  0  0  0  0  0  0
   -3.8882    0.0566    1.3032 C   0  0  0  0  0  0  0  0  0  0  0  0
   -3.6105    0.7376   -0.9981 C   0  0  0  0  0  0  0  0  0  0  0  0
   -5.1201   -0.5151    0.9855 C   0  0  0  0  0  0  0  0  0  0  0  0
   -4.8424    0.1658   -1.3160 C   0  0  0  0  0  0  0  0  0  0  0  0
   -5.5972   -0.4605   -0.3243 C   0  0  0  0  0  0  0  0  0  0  0  0
    3.1220   -0.9476   -1.4445 H   0  0  0  0  0  0  0  0  0  0  0  0
    4.5312   -0.5779    0.7861 H   0  0  0  0  0  0  0  0  0  0  0  0
    1.9929    1.0809   -2.3172 H   0  0  0  0  0  0  0  0  0  0  0  0
    1.2637    0.4294   -0.8949 H   0  0  0  0  0  0  0  0  0  0  0  0
    2.9922    2.9333   -1.1570 H   0  0  0  0  0  0  0  0  0  0  0  0
    4.8990    1.5257   -1.2404 H   0  0  0  0  0  0  0  0  0  0  0  0
    1.5258   -0.8051    1.0062 H   0  0  0  0  0  0  0  0  0  0  0  0
    2.6854   -1.3320    2.2055 H   0  0  0  0  0  0  0  0  0  0  0  0
    3.8227    1.0958    2.3381 H   0  0  0  0  0  0  0  0  0  0  0  0
    0.5779    3.0835   -1.6348 H   0  0  0  0  0  0  0  0  0  0  0  0
    1.0110    4.0585   -0.2436 H   0  0  0  0  0  0  0  0  0  0  0  0
    4.7416   -2.9032    0.4987 H   0  0  0  0  0  0  0  0  0  0  0  0
    3.8344   -3.3243    1.9697 H   0  0  0  0  0  0  0  0  0  0  0  0
    1.1948   -3.3765    1.6814 H   0  0  0  0  0  0  0  0  0  0  0  0
    0.6098   -2.9781    0.0474 H   0  0  0  0  0  0  0  0  0  0  0  0
    3.7742    1.4895   -3.3910 H   0  0  0  0  0  0  0  0  0  0  0  0
    5.3982    0.8831   -3.6243 H   0  0  0  0  0  0  0  0  0  0  0  0
    4.0504   -0.2578   -3.5718 H   0  0  0  0  0  0  0  0  0  0  0  0
    6.6533   -0.1799   -1.9724 H   0  0  0  0  0  0  0  0  0  0  0  0
    6.1935   -0.2426   -0.2935 H   0  0  0  0  0  0  0  0  0  0  0  0
    5.5454   -1.4444   -1.4401 H   0  0  0  0  0  0  0  0  0  0  0  0
    3.9579   -4.7970   -0.6578 H   0  0  0  0  0  0  0  0  0  0  0  0
    3.8227   -5.4455    0.9849 H   0  0  0  0  0  0  0  0  0  0  0  0
    1.5014   -5.4958    0.7218 H   0  0  0  0  0  0  0  0  0  0  0  0
    1.7059   -4.8392   -0.9103 H   0  0  0  0  0  0  0  0  0  0  0  0
    1.8831    3.7960    1.9661 H   0  0  0  0  0  0  0  0  0  0  0  0
    3.4784    3.3800    2.5855 H   0  0  0  0  0  0  0  0  0  0  0  0
    3.3433    4.3161    1.0990 H   0  0  0  0  0  0  0  0  0  0  0  0
   -3.5355    0.0024    2.3304 H   0  0  0  0  0  0  0  0  0  0  0  0
   -3.0511    1.2167   -1.7977 H   0  0  0  0  0  0  0  0  0  0  0  0
   -5.6811   -0.9944    1.7837 H   0  0  0  0  0  0  0  0  0  0  0  0
   -5.1829    0.2275   -2.3465 H   0  0  0  0  0  0  0  0  0  0  0  0
  1 24  1  0  0  0  0
  1 25  1  0  0  0  0
  2  7  1  0  0  0  0
  3  7  2  0  0  0  0
  4 13  1  0  0  0  0
  4 17  1  0  0  0  0
  4 18  1  0  0  0  0
  5  6  1  0  0  0  0
  5 24  2  0  0  0  0
  6 25  2  0  0  0  0
  7 31  1  0  0  0  0
  8  9  1  0  0  0  0
  8 10  1  0  0  0  0
  8 12  1  0  0  0  0
  8 32  1  0  0  0  0
  9 13  1  0  0  0  0
  9 14  1  0  0  0  0
  9 33  1  0  0  0  0
 10 11  1  0  0  0  0
 10 34  1  0  0  0  0
 10 35  1  0  0  0  0
 11 15  1  0  0  0  0
 11 16  1  0  0  0  0
 11 36  1  0  0  0  0
 12 19  1  0  0  0  0
 12 20  1  0  0  0  0
 12 37  1  0  0  0  0
 13 38  1  0  0  0  0
 13 39  1  0  0  0  0
 14 15  2  0  0  0  0
 14 40  1  0  0  0  0
 15 23  1  0  0  0  0
 16 24  1  0  0  0  0
 16 41  1  0  0  0  0
 16 42  1  0  0  0  0
 17 21  1  0  0  0  0
 17 43  1  0  0  0  0
 17 44  1  0  0  0  0
 18 22  1  0  0  0  0
 18 45  1  0  0  0  0
 18 46  1  0  0  0  0
 19 47  1  0  0  0  0
 19 48  1  0  0  0  0
 19 49  1  0  0  0  0
 20 50  1  0  0  0  0
 20 51  1  0  0  0  0
 20 52  1  0  0  0  0
 21 22  1  0  0  0  0
 21 53  1  0  0  0  0
 21 54  1  0  0  0  0
 22 55  1  0  0  0  0
 22 56  1  0  0  0  0
 23 57  1  0  0  0  0
 23 58  1  0  0  0  0
 23 59  1  0  0  0  0
 25 26  1  0  0  0  0
 26 27  2  0  0  0  0
 26 28  1  0  0  0  0
 27 29  1  0  0  0  0
 27 60  1  0  0  0  0
 28 30  2  0  0  0  0
 28 61  1  0  0  0  0
 29 31  2  0  0  0  0
 29 62  1  0  0  0  0
 30 31  1  0  0  0  0
 30 63  1  0  0  0  0
M  CHG  2   2  -1   7   1
M  END
> <PUBCHEM_COMPOUND_CID>
45783990

> <PUBCHEM_CONFORMER_RMSD>
1

> <PUBCHEM_CONFORMER_DIVERSEORDER>
16
34
130
49
136
125
89
51
187
111
117
104
96
31
11
107
115
79
82
48
122
154
178
61
55
128
36
172
159
177
183
54
145
78
59
45
100
58
157
144
83
116
60
22
163
90
75
10
12
53
20
188
42
40
137
168
19
93
134
181
17
28
24
85
21
155
153
149
66
9
161
33
52
98
72
23
81
56
150
124
50
160
38
76
119
109
112
7
179
94
91
106
165
132
139
47
35
44
118
156
8
113
120
97
18
70
169
166
87
121
25
114
127
148
176
167
32
39
103
65
142
80
101
185
37
147
126
133
174
2
29
129
43
99
162
146
164
141
95
151
175
68
105
86
108
135
64
180
30
88
71
77
182
84
4
13
102
138
170
14
46
74
143
184
62
1
110
158
186
41
15
171
26
3
152
131
73
92
173
6
63
27
5
69
123
140
67
57

> <PUBCHEM_MMFF94_PARTIAL_CHARGES>
29
1 -0.28
11 0.14
13 0.27
14 -0.29
15 -0.28
16 0.18
17 0.27
18 0.27
2 -0.52
23 0.14
24 0.3
25 0.43
26 0.05
27 -0.15
28 -0.15
29 -0.15
3 -0.52
30 -0.15
31 0.13
4 -0.81
40 0.15
5 -0.34
6 -0.34
60 0.15
61 0.15
62 0.15
63 0.15
7 0.91
9 0.14

> <PUBCHEM_EFFECTIVE_ROTOR_COUNT>
8.8

> <PUBCHEM_PHARMACOPHORE_FEATURES>
9
1 2 acceptor
1 2 anion
1 3 acceptor
1 4 cation
3 12 19 20 hydrophobe
5 1 5 6 24 25 rings
5 4 17 18 21 22 rings
6 26 27 28 29 30 31 rings
6 8 9 10 11 14 15 rings

> <PUBCHEM_HEAVY_ATOM_COUNT>
31

> <PUBCHEM_ATOM_DEF_STEREO_COUNT>
3

> <PUBCHEM_ATOM_UDEF_STEREO_COUNT>
0

> <PUBCHEM_BOND_DEF_STEREO_COUNT>
0

> <PUBCHEM_BOND_UDEF_STEREO_COUNT>
0

> <PUBCHEM_ISOTOPIC_ATOM_COUNT>
0

> <PUBCHEM_COMPONENT_COUNT>
1

> <PUBCHEM_CACTVS_TAUTO_COUNT>
1

> <PUBCHEM_CONFORMER_ID>
02BA9BB600000010

> <PUBCHEM_MMFF94_ENERGY>
65.666

> <PUBCHEM_FEATURE_SELFOVERLAP>
45.753

> <PUBCHEM_SHAPE_FINGERPRINT>
10622 236 18193835942619155563
10928967 22 18343584010331394639
11069576 57 18262524676179756654
11093857 51 18187943823446970262
11135926 11 18188510024400366946
11552529 35 17186996494077839666
12147406 95 18199469857411463166
13150687 139 17751101257152435844
13533116 47 18409445865358777559
1361 2 18337668715331297315
13911987 19 17898038886854875612
14863182 85 18335138670783302946
15001296 14 18059286690704802559
15183329 4 16153417364618719037
15419008 42 17898820549543422837
16114785 44 16263456729056252312
17134984 74 18338791346984396207
17909252 39 18336259068230826297
19315092 285 18060411383298346754
19319366 153 18127680728862215081
20775530 9 17975701588922419186
21285901 2 17530955878664744645
21703447 108 18201993348103263473
239999 70 17988645233152057028
24893989 43 17701534241284058743
25222932 49 18273213076036654460
345986 75 17846215514844436177
404807 78 17824274919004975019
4435113 14 17677918845223341659
46194498 28 17531243985007585477
463206 1 18409730638290175163
5309563 4 18267297634322275858
57359948 33 17749656442316653437
59682541 52 18261942008574298141
6669772 16 18270114742923070824
86090 222 18339646740844017802
9831232 110 18261951947250277863

> <PUBCHEM_SHAPE_MULTIPOLES>
600.43
14.97
4.88
1.92
31.17
5.64
-0.85
7.39
-6.25
-7.09
1.71
-1.33
-0.86
-0.98

> <PUBCHEM_SHAPE_SELFOVERLAP>
1276.973

> <PUBCHEM_SHAPE_VOLUME>
335.6

> <PUBCHEM_COORDINATE_TYPE>
2
5
10

$$$$
