26762363
  -OEChem-12032416353D

 66 69  0     1  0  0  0  0  0999 V2000
   -0.7887   -1.5455   -4.0121 O   0  0  0  0  0  0  0  0  0  0  0  0
    2.8318    2.5334   -1.0342 O   0  0  0  0  0  0  0  0  0  0  0  0
   -5.5508   -2.1133    0.8270 O   0  0  0  0  0  0  0  0  0  0  0  0
   -0.9104   -0.9667   -0.5254 N   0  0  2  0  0  0  0  0  0  0  0  0
   -1.9732   -2.6596   -2.3914 N   0  0  0  0  0  0  0  0  0  0  0  0
    1.8666    0.5622   -0.2850 N   0  0  0  0  0  0  0  0  0  0  0  0
   -4.5119   -0.6792    2.3279 N   0  0  0  0  0  0  0  0  0  0  0  0
    8.0523   -0.4614    1.0722 N   0  0  0  0  0  0  0  0  0  0  0  0
   -5.8265    2.2860   -0.9208 N   0  0  0  0  0  0  0  0  0  0  0  0
   -1.0653   -0.4533   -1.8894 C   0  0  1  0  0  0  0  0  0  0  0  0
   -2.1383   -1.6403   -0.0994 C   0  0  1  0  0  0  0  0  0  0  0  0
    0.5109    0.8864   -0.6541 C   0  0  1  0  0  0  0  0  0  0  0  0
    0.1882    0.3894   -2.0684 C   0  0  0  0  0  0  0  0  0  0  0  0
   -0.5086    0.1999    0.2599 C   0  0  0  0  0  0  0  0  0  0  0  0
   -2.2953   -2.8812   -0.9896 C   0  0  0  0  0  0  0  0  0  0  0  0
   -1.2161   -1.6022   -2.8598 C   0  0  0  0  0  0  0  0  0  0  0  0
   -2.1104   -2.0650    1.3706 C   0  0  0  0  0  0  0  0  0  0  0  0
   -3.4125   -2.7439    1.7712 C   0  0  0  0  0  0  0  0  0  0  0  0
    2.9283    1.4269   -0.5101 C   0  0  0  0  0  0  0  0  0  0  0  0
   -4.6139   -1.8377    1.5717 C   0  0  0  0  0  0  0  0  0  0  0  0
    4.2673    0.9342   -0.0961 C   0  0  0  0  0  0  0  0  0  0  0  0
    5.4124    1.4028   -0.7401 C   0  0  0  0  0  0  0  0  0  0  0  0
    4.3794    0.0022    0.9356 C   0  0  0  0  0  0  0  0  0  0  0  0
   -5.5296    0.3447    2.3107 C   0  0  0  0  0  0  0  0  0  0  0  0
    6.6696    0.9396   -0.3524 C   0  0  0  0  0  0  0  0  0  0  0  0
    5.6365   -0.4612    1.3233 C   0  0  0  0  0  0  0  0  0  0  0  0
    6.7816    0.0074    0.6793 C   0  0  0  0  0  0  0  0  0  0  0  0
   -5.2727    1.3745    1.2489 C   0  0  0  0  0  0  0  0  0  0  0  0
   -4.2881    2.3427    1.4124 C   0  0  0  0  0  0  0  0  0  0  0  0
   -6.0078    1.3891    0.0745 C   0  0  0  0  0  0  0  0  0  0  0  0
    9.2489    0.0191    0.4104 C   0  0  0  0  0  0  0  0  0  0  0  0
    8.1791   -1.4241    2.1485 C   0  0  0  0  0  0  0  0  0  0  0  0
   -4.0719    3.2825    0.4106 C   0  0  0  0  0  0  0  0  0  0  0  0
   -4.8607    3.2117   -0.7263 C   0  0  0  0  0  0  0  0  0  0  0  0
   -1.9543    0.1871   -1.9825 H   0  0  0  0  0  0  0  0  0  0  0  0
   -2.9868   -0.9647   -0.2710 H   0  0  0  0  0  0  0  0  0  0  0  0
    0.3853    1.9742   -0.5987 H   0  0  0  0  0  0  0  0  0  0  0  0
   -0.0020    1.2306   -2.7446 H   0  0  0  0  0  0  0  0  0  0  0  0
    1.0148   -0.1925   -2.4951 H   0  0  0  0  0  0  0  0  0  0  0  0
   -1.3620    0.8688    0.4305 H   0  0  0  0  0  0  0  0  0  0  0  0
   -0.0777   -0.0751    1.2281 H   0  0  0  0  0  0  0  0  0  0  0  0
   -1.6351   -3.6921   -0.6588 H   0  0  0  0  0  0  0  0  0  0  0  0
   -3.3235   -3.2559   -0.9725 H   0  0  0  0  0  0  0  0  0  0  0  0
   -1.9302   -1.2003    2.0178 H   0  0  0  0  0  0  0  0  0  0  0  0
   -1.2784   -2.7578    1.5515 H   0  0  0  0  0  0  0  0  0  0  0  0
   -2.1620   -3.4203   -3.0370 H   0  0  0  0  0  0  0  0  0  0  0  0
    2.0373   -0.3799    0.0512 H   0  0  0  0  0  0  0  0  0  0  0  0
   -3.5763   -3.6787    1.2259 H   0  0  0  0  0  0  0  0  0  0  0  0
   -3.3689   -3.0131    2.8339 H   0  0  0  0  0  0  0  0  0  0  0  0
   -3.7169   -0.5414    2.9439 H   0  0  0  0  0  0  0  0  0  0  0  0
    5.3448    2.1254   -1.5491 H   0  0  0  0  0  0  0  0  0  0  0  0
    3.5155   -0.3645    1.4823 H   0  0  0  0  0  0  0  0  0  0  0  0
   -5.5381    0.8213    3.2975 H   0  0  0  0  0  0  0  0  0  0  0  0
   -6.5120   -0.1214    2.1713 H   0  0  0  0  0  0  0  0  0  0  0  0
    7.5296    1.3336   -0.8846 H   0  0  0  0  0  0  0  0  0  0  0  0
    5.6715   -1.1807    2.1353 H   0  0  0  0  0  0  0  0  0  0  0  0
   -3.6832    2.3726    2.3145 H   0  0  0  0  0  0  0  0  0  0  0  0
   -6.7886    0.6587   -0.1133 H   0  0  0  0  0  0  0  0  0  0  0  0
    9.2375   -0.2286   -0.6569 H   0  0  0  0  0  0  0  0  0  0  0  0
    9.3627    1.1016    0.5352 H   0  0  0  0  0  0  0  0  0  0  0  0
   10.1533   -0.4391    0.8260 H   0  0  0  0  0  0  0  0  0  0  0  0
    7.7884   -1.0202    3.0891 H   0  0  0  0  0  0  0  0  0  0  0  0
    7.6613   -2.3590    1.9065 H   0  0  0  0  0  0  0  0  0  0  0  0
    9.2262   -1.6880    2.3343 H   0  0  0  0  0  0  0  0  0  0  0  0
   -3.3090    4.0453    0.5158 H   0  0  0  0  0  0  0  0  0  0  0  0
   -4.7312    3.9211   -1.5370 H   0  0  0  0  0  0  0  0  0  0  0  0
  1 16  2  0  0  0  0
  2 19  2  0  0  0  0
  3 20  2  0  0  0  0
  4 10  1  0  0  0  0
  4 11  1  0  0  0  0
  4 14  1  0  0  0  0
  5 15  1  0  0  0  0
  5 16  1  0  0  0  0
  5 46  1  0  0  0  0
  6 12  1  0  0  0  0
  6 19  1  0  0  0  0
  6 47  1  0  0  0  0
  7 20  1  0  0  0  0
  7 24  1  0  0  0  0
  7 50  1  0  0  0  0
  8 27  1  0  0  0  0
  8 31  1  0  0  0  0
  8 32  1  0  0  0  0
  9 30  1  0  0  0  0
  9 34  2  0  0  0  0
 10 13  1  0  0  0  0
 10 16  1  0  0  0  0
 10 35  1  0  0  0  0
 11 15  1  0  0  0  0
 11 17  1  0  0  0  0
 11 36  1  0  0  0  0
 12 13  1  0  0  0  0
 12 14  1  0  0  0  0
 12 37  1  0  0  0  0
 13 38  1  0  0  0  0
 13 39  1  0  0  0  0
 14 40  1  0  0  0  0
 14 41  1  0  0  0  0
 15 42  1  0  0  0  0
 15 43  1  0  0  0  0
 17 18  1  0  0  0  0
 17 44  1  0  0  0  0
 17 45  1  0  0  0  0
 18 20  1  0  0  0  0
 18 48  1  0  0  0  0
 18 49  1  0  0  0  0
 19 21  1  0  0  0  0
 21 22  2  0  0  0  0
 21 23  1  0  0  0  0
 22 25  1  0  0  0  0
 22 51  1  0  0  0  0
 23 26  2  0  0  0  0
 23 52  1  0  0  0  0
 24 28  1  0  0  0  0
 24 53  1  0  0  0  0
 24 54  1  0  0  0  0
 25 27  2  0  0  0  0
 25 55  1  0  0  0  0
 26 27  1  0  0  0  0
 26 56  1  0  0  0  0
 28 29  1  0  0  0  0
 28 30  2  0  0  0  0
 29 33  2  0  0  0  0
 29 57  1  0  0  0  0
 30 58  1  0  0  0  0
 31 59  1  0  0  0  0
 31 60  1  0  0  0  0
 31 61  1  0  0  0  0
 32 62  1  0  0  0  0
 32 63  1  0  0  0  0
 32 64  1  0  0  0  0
 33 34  1  0  0  0  0
 33 65  1  0  0  0  0
 34 66  1  0  0  0  0
M  END
> <PUBCHEM_COMPOUND_CID>
26762363

> <PUBCHEM_CONFORMER_RMSD>
1.2

> <PUBCHEM_CONFORMER_DIVERSEORDER>
2
80
9
31
52
44
45
13
35
38
36
55
77
39
30
42
76
73
71
46
10
17
41
5
54
23
50
12
59
65
67
24
75
68
70
62
79
26
66
29
64
16
56
85
78
69
22
63
37
49
3
82
28
27
11
14
40
34
51
32
58
72
74
7
21
60
53
81
48
57
61
43
8
47
20
1
83
25
6
15
19
4
18
84
33

> <PUBCHEM_MMFF94_PARTIAL_CHARGES>
43
1 -0.57
10 0.33
11 0.27
12 0.3
14 0.27
15 0.3
16 0.57
18 0.06
19 0.54
2 -0.57
20 0.57
21 0.09
22 -0.15
23 -0.15
24 0.44
25 -0.15
26 -0.15
27 0.1
28 -0.14
29 -0.15
3 -0.57
30 0.16
31 0.37
32 0.37
33 -0.15
34 0.16
4 -0.81
46 0.37
47 0.37
5 -0.73
50 0.37
51 0.15
52 0.15
55 0.15
56 0.15
57 0.15
58 0.15
6 -0.73
65 0.15
66 0.15
7 -0.73
8 -0.84
9 -0.62

> <PUBCHEM_EFFECTIVE_ROTOR_COUNT>
11.2

> <PUBCHEM_PHARMACOPHORE_FEATURES>
13
1 1 acceptor
1 2 acceptor
1 3 acceptor
1 4 cation
1 5 donor
1 6 donor
1 7 donor
1 8 cation
1 9 acceptor
5 4 10 12 13 14 rings
6 21 22 23 25 26 27 rings
6 4 5 10 11 15 16 rings
6 9 28 29 30 33 34 rings

> <PUBCHEM_HEAVY_ATOM_COUNT>
34

> <PUBCHEM_ATOM_DEF_STEREO_COUNT>
3

> <PUBCHEM_ATOM_UDEF_STEREO_COUNT>
0

> <PUBCHEM_BOND_DEF_STEREO_COUNT>
0

> <PUBCHEM_BOND_UDEF_STEREO_COUNT>
0

> <PUBCHEM_ISOTOPIC_ATOM_COUNT>
0

> <PUBCHEM_COMPONENT_COUNT>
1

> <PUBCHEM_CACTVS_TAUTO_COUNT>
12

> <PUBCHEM_CONFORMER_ID>
01985C7B00000002

> <PUBCHEM_MMFF94_ENERGY>
96.0873

> <PUBCHEM_FEATURE_SELFOVERLAP>
66.064

> <PUBCHEM_SHAPE_FINGERPRINT>
100830 39 18260550000319579177
105312 117 17418384596989774951
10554248 39 15410625791890363572
10577160 103 11239696592493744066
10577160 183 17774713182800507446
10764073 3 17825387384480650511
10838868 229 17972879160128814586
11103572 155 17313662634331113290
11146851 88 18409728435605526377
12128747 34 18334865995582912051
12422481 6 16732988583213166415
12717326 150 15432535639452760440
12838863 1 18336547231442131971
12988421 55 17988381299138379259
13673619 4 16877940581542494102
13782708 43 15864338161248046984
14950920 106 18116157864125060579
15021287 119 16660372488602344109
19246450 95 18411980226459089490
21033648 29 17417267475531952761
22440779 20 14490186094737002741
22889206 1 17970063344677224875
23522609 53 17387439937611908092
3504750 166 18337670939982412179
3552219 110 7997390802128441094
5104073 3 18261947544782419976
57366028 249 11026669479346861534
6086070 43 17060043866013795010
6691757 9 17346877858129533582
999808 66 16660362580418455138

> <PUBCHEM_SHAPE_MULTIPOLES>
652.21
21.99
3.39
2.68
45.92
0.34
-1.97
4.13
14.09
-6.69
-0.18
-2.18
-1.82
-1.37

> <PUBCHEM_SHAPE_SELFOVERLAP>
1384.514

> <PUBCHEM_SHAPE_VOLUME>
361.6

> <PUBCHEM_COORDINATE_TYPE>
2
5
10

$$$$
