45784262
  -OEChem-12032416283D

 46 49  0     1  0  0  0  0  0999 V2000
    6.7620   -0.8882   -0.8713 F   0  0  0  0  0  0  0  0  0  0  0  0
    6.6376    0.6580    0.6522 F   0  0  0  0  0  0  0  0  0  0  0  0
    6.2357   -1.4085    1.1732 F   0  0  0  0  0  0  0  0  0  0  0  0
   -3.4723    0.6643    0.3872 N   0  0  1  0  0  0  0  0  0  0  0  0
    1.2522    0.7003    1.1852 N   0  0  0  0  0  0  0  0  0  0  0  0
    0.5448    0.3152   -0.8862 N   0  0  0  0  0  0  0  0  0  0  0  0
   -4.5280   -0.1978   -0.1408 C   0  0  0  0  0  0  0  0  0  0  0  0
   -1.1968    1.0728    0.7809 C   0  0  2  0  0  0  0  0  0  0  0  0
   -2.2184   -0.0594    0.6081 C   0  0  0  0  0  0  0  0  0  0  0  0
   -3.1255    1.7474   -0.5328 C   0  0  0  0  0  0  0  0  0  0  0  0
   -1.8139    2.2708    0.0384 C   0  0  0  0  0  0  0  0  0  0  0  0
   -5.7747    0.6371   -0.4534 C   0  0  0  0  0  0  0  0  0  0  0  0
   -4.8450   -1.3091    0.8658 C   0  0  0  0  0  0  0  0  0  0  0  0
   -6.9266   -0.2427   -0.9365 C   0  0  0  0  0  0  0  0  0  0  0  0
   -5.9984   -2.1863    0.3817 C   0  0  0  0  0  0  0  0  0  0  0  0
   -7.2382   -1.3576    0.0578 C   0  0  0  0  0  0  0  0  0  0  0  0
    0.1913    0.6887    0.3232 C   0  0  0  0  0  0  0  0  0  0  0  0
    2.3645    0.3080    0.4857 C   0  0  0  0  0  0  0  0  0  0  0  0
    1.8969    0.0734   -0.8044 C   0  0  0  0  0  0  0  0  0  0  0  0
    3.6987    0.1431    0.8591 C   0  0  0  0  0  0  0  0  0  0  0  0
    2.8000   -0.3512   -1.7935 C   0  0  0  0  0  0  0  0  0  0  0  0
    4.5838   -0.2800   -0.1379 C   0  0  0  0  0  0  0  0  0  0  0  0
    4.1446   -0.5233   -1.4414 C   0  0  0  0  0  0  0  0  0  0  0  0
    6.0257   -0.4750    0.1998 C   0  0  0  0  0  0  0  0  0  0  0  0
   -4.1934   -0.6687   -1.0769 H   0  0  0  0  0  0  0  0  0  0  0  0
   -1.1506    1.3379    1.8473 H   0  0  0  0  0  0  0  0  0  0  0  0
   -2.2421   -0.6776    1.5119 H   0  0  0  0  0  0  0  0  0  0  0  0
   -1.9625   -0.7006   -0.2458 H   0  0  0  0  0  0  0  0  0  0  0  0
   -3.8661    2.5528   -0.5514 H   0  0  0  0  0  0  0  0  0  0  0  0
   -2.9656    1.3831   -1.5558 H   0  0  0  0  0  0  0  0  0  0  0  0
   -1.1687    2.6731   -0.7498 H   0  0  0  0  0  0  0  0  0  0  0  0
   -2.0093    3.0800    0.7534 H   0  0  0  0  0  0  0  0  0  0  0  0
   -5.5813    1.3736   -1.2411 H   0  0  0  0  0  0  0  0  0  0  0  0
   -6.0957    1.1919    0.4381 H   0  0  0  0  0  0  0  0  0  0  0  0
   -5.1077   -0.8761    1.8401 H   0  0  0  0  0  0  0  0  0  0  0  0
   -3.9811   -1.9635    1.0269 H   0  0  0  0  0  0  0  0  0  0  0  0
   -7.8203    0.3723   -1.0914 H   0  0  0  0  0  0  0  0  0  0  0  0
   -6.6685   -0.6819   -1.9081 H   0  0  0  0  0  0  0  0  0  0  0  0
   -5.6858   -2.7400   -0.5123 H   0  0  0  0  0  0  0  0  0  0  0  0
   -6.2430   -2.9300    1.1485 H   0  0  0  0  0  0  0  0  0  0  0  0
   -8.0201   -2.0078   -0.3504 H   0  0  0  0  0  0  0  0  0  0  0  0
   -7.6359   -0.9207    0.9821 H   0  0  0  0  0  0  0  0  0  0  0  0
    1.2258    0.9522    2.1645 H   0  0  0  0  0  0  0  0  0  0  0  0
    4.0293    0.3349    1.8742 H   0  0  0  0  0  0  0  0  0  0  0  0
    2.4682   -0.5428   -2.8090 H   0  0  0  0  0  0  0  0  0  0  0  0
    4.8388   -0.8520   -2.2110 H   0  0  0  0  0  0  0  0  0  0  0  0
  1 24  1  0  0  0  0
  2 24  1  0  0  0  0
  3 24  1  0  0  0  0
  4  7  1  0  0  0  0
  4  9  1  0  0  0  0
  4 10  1  0  0  0  0
  5 17  1  0  0  0  0
  5 18  1  0  0  0  0
  5 43  1  0  0  0  0
  6 17  2  0  0  0  0
  6 19  1  0  0  0  0
  7 12  1  0  0  0  0
  7 13  1  0  0  0  0
  7 25  1  0  0  0  0
  8  9  1  0  0  0  0
  8 11  1  0  0  0  0
  8 17  1  0  0  0  0
  8 26  1  0  0  0  0
  9 27  1  0  0  0  0
  9 28  1  0  0  0  0
 10 11  1  0  0  0  0
 10 29  1  0  0  0  0
 10 30  1  0  0  0  0
 11 31  1  0  0  0  0
 11 32  1  0  0  0  0
 12 14  1  0  0  0  0
 12 33  1  0  0  0  0
 12 34  1  0  0  0  0
 13 15  1  0  0  0  0
 13 35  1  0  0  0  0
 13 36  1  0  0  0  0
 14 16  1  0  0  0  0
 14 37  1  0  0  0  0
 14 38  1  0  0  0  0
 15 16  1  0  0  0  0
 15 39  1  0  0  0  0
 15 40  1  0  0  0  0
 16 41  1  0  0  0  0
 16 42  1  0  0  0  0
 18 19  2  0  0  0  0
 18 20  1  0  0  0  0
 19 21  1  0  0  0  0
 20 22  2  0  0  0  0
 20 44  1  0  0  0  0
 21 23  2  0  0  0  0
 21 45  1  0  0  0  0
 22 23  1  0  0  0  0
 22 24  1  0  0  0  0
 23 46  1  0  0  0  0
M  END
> <PUBCHEM_COMPOUND_CID>
45784262

> <PUBCHEM_CONFORMER_RMSD>
0.8

> <PUBCHEM_CONFORMER_DIVERSEORDER>
1
7
21
16
4
19
17
15
5
9
12
18
2
8
20
14
10
13
11
6
3

> <PUBCHEM_MMFF94_PARTIAL_CHARGES>
22
1 -0.34
10 0.27
17 0.01
18 -0.15
19 0.23
2 -0.34
20 -0.15
21 -0.15
22 -0.14
23 -0.15
24 1.16
3 -0.34
4 -0.81
43 0.27
44 0.15
45 0.15
46 0.15
5 0.03
6 -0.57
7 0.27
8 0.18
9 0.27

> <PUBCHEM_EFFECTIVE_ROTOR_COUNT>
5.2

> <PUBCHEM_PHARMACOPHORE_FEATURES>
7
1 4 cation
1 5 donor
3 5 6 17 cation
5 4 8 9 10 11 rings
5 5 6 17 18 19 rings
6 18 19 20 21 22 23 rings
6 7 12 13 14 15 16 rings

> <PUBCHEM_HEAVY_ATOM_COUNT>
24

> <PUBCHEM_ATOM_DEF_STEREO_COUNT>
1

> <PUBCHEM_ATOM_UDEF_STEREO_COUNT>
0

> <PUBCHEM_BOND_DEF_STEREO_COUNT>
0

> <PUBCHEM_BOND_UDEF_STEREO_COUNT>
0

> <PUBCHEM_ISOTOPIC_ATOM_COUNT>
0

> <PUBCHEM_COMPONENT_COUNT>
1

> <PUBCHEM_CACTVS_TAUTO_COUNT>
2

> <PUBCHEM_CONFORMER_ID>
02BA9CC600000001

> <PUBCHEM_MMFF94_ENERGY>
30.1432

> <PUBCHEM_FEATURE_SELFOVERLAP>
35.63

> <PUBCHEM_SHAPE_FINGERPRINT>
10 15 17988633121918749962
10066227 112 10881692316508026254
10354089 29 14333408947972359290
10554248 39 13984664724788517986
106641 1 16271920541052064802
10670039 82 12180112173370035047
10693767 8 16588573211662958762
10763959 59 11746943104834451614
11089746 13 15791733005243583628
11315181 36 18413390947718486377
11524674 6 17203607108164598455
11719270 70 18272088288416156246
11963148 33 18411975871173594726
12166972 35 17676209086665617244
12236239 1 17603587425998068476
12516196 113 17203611488740693177
13073987 5 16988007089571496082
13177829 20 14476957909151044935
13288520 33 18408885144783305841
13402501 40 18131355219713953679
13533116 47 17749381525770236746
13668630 136 17676489444987656275
13673619 4 18273496788818355513
13685833 64 18059857276724765665
13782708 43 18201438051870519150
13885169 127 18060422379353932585
13914758 101 16443339845582798277
1420 363 17989209243550508525
14251752 14 17676483943630025935
14251764 18 14117796925463123805
14294032 229 17532926100977159085
14341114 328 13758362172239015583
14848160 23 18342738524707565011
14849402 71 14332828461583645146
15183329 4 15502370136758272307
15188451 53 18260544511656660754
15461852 350 18114184116758151620
15510800 12 18200885075501689743
15716309 27 17346598577796643495
17093844 174 17917712380091692249
17834072 8 13840266987450411870
18222031 100 17530964687764052460
18335252 98 18202567281220885662
18681886 176 17968093161409860393
190975 80 17489304221830287415
19377110 9 15410898448380824291
19489759 90 18187366497684218273
200 152 16732986414001474309
20281389 69 9223229641699188814
20374829 77 18409450302275999265
20621476 66 10303810990548412266
21054139 6 17967250905448885987
21150785 3 17821733849264875422
21267235 1 16558757780901557804
21521721 280 15985095354173021610
21623969 137 17346884437634387319
21756936 100 9943803370756100409
21781051 124 17703802418635692094
221357 26 14851598882164297574
22224240 67 15626219126310520815
23035841 295 18333733516281725585
23198884 109 16008748022592539551
23402539 116 18113056030412417693
23522609 53 18121533273574332377
23559900 14 18115023125460794713
23576562 1 14129928970992607786
2838139 119 14490188311177555655
29717793 49 17168147823529151230
3004659 81 17749104521838643297
3009799 131 14996284725802597484
3178227 256 16773794806010958994
34797466 226 17632303406464144628
3663271 9 14117806808246552631
4325135 7 18341895225481260740
465052 167 18131632271195615202
5104073 3 16557634015039943674
5283156 175 17967251983975858627
5758199 1 14692566637446673134
59682541 35 17560794455632169346
59755656 215 18408885122628584939
59755656 520 8502372209559417025
6328613 192 9727343645644912458
7495541 125 18343865541295816560

> <PUBCHEM_SHAPE_MULTIPOLES>
457.14
19.96
1.6
1.21
0.59
0.13
0.26
-9.82
0.65
2.18
-0.17
-0.99
-0.13
0.71

> <PUBCHEM_SHAPE_SELFOVERLAP>
990.787

> <PUBCHEM_SHAPE_VOLUME>
254.9

> <PUBCHEM_COORDINATE_TYPE>
2
5
10

$$$$
