28959943
  -OEChem-12032416373D

 73 76  0     1  0  0  0  0  0999 V2000
    9.0907   -1.2087   -0.7262 F   0  0  0  0  0  0  0  0  0  0  0  0
   -4.1078    1.6176   -2.4965 O   0  0  0  0  0  0  0  0  0  0  0  0
   -3.7514   -6.0741    0.5528 O   0  0  0  0  0  0  0  0  0  0  0  0
   -5.5404   -4.6679    0.4986 O   0  0  0  0  0  0  0  0  0  0  0  0
   -4.0652    0.3402   -0.5368 N   0  0  0  0  0  0  0  0  0  0  0  0
    0.8138   -0.6710    0.4495 N   0  0  0  0  0  0  0  0  0  0  0  0
    3.6492   -0.9190    0.2072 N   0  0  0  0  0  0  0  0  0  0  0  0
   -0.0520    5.2216    0.7189 N   0  0  0  0  0  0  0  0  0  0  0  0
   -2.9076   -1.2841    0.9455 C   0  0  2  0  0  0  0  0  0  0  0  0
   -3.8745   -2.3817    0.4326 C   0  0  1  0  0  0  0  0  0  0  0  0
   -3.5740    0.0989    0.8273 C   0  0  0  0  0  0  0  0  0  0  0  0
   -4.3974   -2.0608   -0.9779 C   0  0  0  0  0  0  0  0  0  0  0  0
   -1.5431   -1.2794    0.2449 C   0  0  0  0  0  0  0  0  0  0  0  0
   -5.0044   -0.6618   -1.0373 C   0  0  0  0  0  0  0  0  0  0  0  0
   -3.2687   -3.7843    0.4764 C   0  0  0  0  0  0  0  0  0  0  0  0
   -0.4724   -0.6803    1.1454 C   0  0  0  0  0  0  0  0  0  0  0  0
    1.6998    0.3521    1.0185 C   0  0  0  0  0  0  0  0  0  0  0  0
    1.4545   -1.9890    0.5337 C   0  0  0  0  0  0  0  0  0  0  0  0
   -3.7036    1.4149   -1.3527 C   0  0  0  0  0  0  0  0  0  0  0  0
    3.0285    0.4106    0.2615 C   0  0  0  0  0  0  0  0  0  0  0  0
    2.7759   -2.0091   -0.2388 C   0  0  0  0  0  0  0  0  0  0  0  0
   -4.3319   -4.8473    0.5091 C   0  0  0  0  0  0  0  0  0  0  0  0
   -2.7584    2.4005   -0.8165 C   0  0  0  0  0  0  0  0  0  0  0  0
    5.0265   -0.9925   -0.0286 C   0  0  0  0  0  0  0  0  0  0  0  0
   -1.3871    2.2243   -1.0020 C   0  0  0  0  0  0  0  0  0  0  0  0
   -3.2308    3.5134   -0.1207 C   0  0  0  0  0  0  0  0  0  0  0  0
    5.5073   -1.6782   -1.1442 C   0  0  0  0  0  0  0  0  0  0  0  0
    5.9189   -0.3802    0.8516 C   0  0  0  0  0  0  0  0  0  0  0  0
   -0.4882    3.1612   -0.4923 C   0  0  0  0  0  0  0  0  0  0  0  0
   -2.3317    4.4502    0.3894 C   0  0  0  0  0  0  0  0  0  0  0  0
   -0.9605    4.2741    0.2035 C   0  0  0  0  0  0  0  0  0  0  0  0
    6.8801   -1.7513   -1.3799 C   0  0  0  0  0  0  0  0  0  0  0  0
    7.2918   -0.4535    0.6160 C   0  0  0  0  0  0  0  0  0  0  0  0
    7.7724   -1.1390   -0.4997 C   0  0  0  0  0  0  0  0  0  0  0  0
   -0.5332    6.3853    1.4367 C   0  0  0  0  0  0  0  0  0  0  0  0
    1.3748    5.0483    0.5312 C   0  0  0  0  0  0  0  0  0  0  0  0
   -2.7443   -1.4827    2.0139 H   0  0  0  0  0  0  0  0  0  0  0  0
   -4.7415   -2.3589    1.1095 H   0  0  0  0  0  0  0  0  0  0  0  0
   -4.4518    0.1404    1.4848 H   0  0  0  0  0  0  0  0  0  0  0  0
   -2.9041    0.8904    1.1658 H   0  0  0  0  0  0  0  0  0  0  0  0
   -5.1528   -2.7886   -1.2929 H   0  0  0  0  0  0  0  0  0  0  0  0
   -3.5738   -2.1248   -1.7005 H   0  0  0  0  0  0  0  0  0  0  0  0
   -1.2544   -2.3043    0.0019 H   0  0  0  0  0  0  0  0  0  0  0  0
   -1.5907   -0.7534   -0.7141 H   0  0  0  0  0  0  0  0  0  0  0  0
   -5.3054   -0.4334   -2.0648 H   0  0  0  0  0  0  0  0  0  0  0  0
   -5.9044   -0.6080   -0.4136 H   0  0  0  0  0  0  0  0  0  0  0  0
   -0.7656    0.3473    1.3880 H   0  0  0  0  0  0  0  0  0  0  0  0
   -0.4087   -1.2148    2.1022 H   0  0  0  0  0  0  0  0  0  0  0  0
   -2.6706   -3.9017    1.3878 H   0  0  0  0  0  0  0  0  0  0  0  0
   -2.6330   -3.9699   -0.3964 H   0  0  0  0  0  0  0  0  0  0  0  0
    1.8926    0.1452    2.0802 H   0  0  0  0  0  0  0  0  0  0  0  0
    1.2333    1.3404    0.9646 H   0  0  0  0  0  0  0  0  0  0  0  0
    0.8174   -2.7711    0.1081 H   0  0  0  0  0  0  0  0  0  0  0  0
    1.6442   -2.2613    1.5811 H   0  0  0  0  0  0  0  0  0  0  0  0
    2.8638    0.7740   -0.7613 H   0  0  0  0  0  0  0  0  0  0  0  0
    3.6736    1.1410    0.7630 H   0  0  0  0  0  0  0  0  0  0  0  0
    3.2533   -2.9824   -0.0693 H   0  0  0  0  0  0  0  0  0  0  0  0
    2.5744   -1.9110   -1.3132 H   0  0  0  0  0  0  0  0  0  0  0  0
   -4.4180   -6.7934    0.5748 H   0  0  0  0  0  0  0  0  0  0  0  0
   -1.0069    1.3704   -1.5557 H   0  0  0  0  0  0  0  0  0  0  0  0
   -4.2974    3.6592    0.0299 H   0  0  0  0  0  0  0  0  0  0  0  0
    4.8416   -2.1545   -1.8583 H   0  0  0  0  0  0  0  0  0  0  0  0
    5.5652    0.1466    1.7341 H   0  0  0  0  0  0  0  0  0  0  0  0
    0.5673    2.9870   -0.6750 H   0  0  0  0  0  0  0  0  0  0  0  0
   -2.7489    5.2982    0.9234 H   0  0  0  0  0  0  0  0  0  0  0  0
    7.2550   -2.2820   -2.2502 H   0  0  0  0  0  0  0  0  0  0  0  0
    7.9870    0.0204    1.3026 H   0  0  0  0  0  0  0  0  0  0  0  0
   -1.1714    7.0076    0.7995 H   0  0  0  0  0  0  0  0  0  0  0  0
   -1.0850    6.0945    2.3376 H   0  0  0  0  0  0  0  0  0  0  0  0
    0.2916    7.0249    1.7702 H   0  0  0  0  0  0  0  0  0  0  0  0
    1.7255    4.1196    0.9952 H   0  0  0  0  0  0  0  0  0  0  0  0
    1.6368    5.0488   -0.5327 H   0  0  0  0  0  0  0  0  0  0  0  0
    1.9458    5.8614    0.9932 H   0  0  0  0  0  0  0  0  0  0  0  0
  1 34  1  0  0  0  0
  2 19  2  0  0  0  0
  3 22  1  0  0  0  0
  3 59  1  0  0  0  0
  4 22  2  0  0  0  0
  5 11  1  0  0  0  0
  5 14  1  0  0  0  0
  5 19  1  0  0  0  0
  6 16  1  0  0  0  0
  6 17  1  0  0  0  0
  6 18  1  0  0  0  0
  7 20  1  0  0  0  0
  7 21  1  0  0  0  0
  7 24  1  0  0  0  0
  8 31  1  0  0  0  0
  8 35  1  0  0  0  0
  8 36  1  0  0  0  0
  9 10  1  0  0  0  0
  9 11  1  0  0  0  0
  9 13  1  0  0  0  0
  9 37  1  0  0  0  0
 10 12  1  0  0  0  0
 10 15  1  0  0  0  0
 10 38  1  0  0  0  0
 11 39  1  0  0  0  0
 11 40  1  0  0  0  0
 12 14  1  0  0  0  0
 12 41  1  0  0  0  0
 12 42  1  0  0  0  0
 13 16  1  0  0  0  0
 13 43  1  0  0  0  0
 13 44  1  0  0  0  0
 14 45  1  0  0  0  0
 14 46  1  0  0  0  0
 15 22  1  0  0  0  0
 15 49  1  0  0  0  0
 15 50  1  0  0  0  0
 16 47  1  0  0  0  0
 16 48  1  0  0  0  0
 17 20  1  0  0  0  0
 17 51  1  0  0  0  0
 17 52  1  0  0  0  0
 18 21  1  0  0  0  0
 18 53  1  0  0  0  0
 18 54  1  0  0  0  0
 19 23  1  0  0  0  0
 20 55  1  0  0  0  0
 20 56  1  0  0  0  0
 21 57  1  0  0  0  0
 21 58  1  0  0  0  0
 23 25  2  0  0  0  0
 23 26  1  0  0  0  0
 24 27  2  0  0  0  0
 24 28  1  0  0  0  0
 25 29  1  0  0  0  0
 25 60  1  0  0  0  0
 26 30  2  0  0  0  0
 26 61  1  0  0  0  0
 27 32  1  0  0  0  0
 27 62  1  0  0  0  0
 28 33  2  0  0  0  0
 28 63  1  0  0  0  0
 29 31  2  0  0  0  0
 29 64  1  0  0  0  0
 30 31  1  0  0  0  0
 30 65  1  0  0  0  0
 32 34  2  0  0  0  0
 32 66  1  0  0  0  0
 33 34  1  0  0  0  0
 33 67  1  0  0  0  0
 35 68  1  0  0  0  0
 35 69  1  0  0  0  0
 35 70  1  0  0  0  0
 36 71  1  0  0  0  0
 36 72  1  0  0  0  0
 36 73  1  0  0  0  0
M  END
> <PUBCHEM_COMPOUND_CID>
28959943

> <PUBCHEM_CONFORMER_RMSD>
1.2

> <PUBCHEM_CONFORMER_DIVERSEORDER>
1
37
30
75
29
70
46
74
83
98
62
97
53
68
18
41
44
76
91
90
71
95
42
45
49
87
77
80
34
51
60
93
64
27
26
22
48
52
82
24
85
17
57
9
11
19
15
50
92
67
5
72
10
31
47
99
54
84
89
12
63
59
65
96
94
35
39
43
56
66
40
33
20
8
38
25
13
55
32
14
79
7
73
4
6
88
23
61
78
2
58
16
69
86
28
81
36
21
3

> <PUBCHEM_MMFF94_PARTIAL_CHARGES>
41
1 -0.19
11 0.3
14 0.3
15 0.06
16 0.27
17 0.27
18 0.27
19 0.54
2 -0.57
20 0.37
21 0.37
22 0.66
23 0.09
24 0.1
25 -0.15
26 -0.15
27 -0.15
28 -0.15
29 -0.15
3 -0.65
30 -0.15
31 0.1
32 -0.15
33 -0.15
34 0.19
35 0.37
36 0.37
4 -0.57
5 -0.66
59 0.5
6 -0.81
60 0.15
61 0.15
62 0.15
63 0.15
64 0.15
65 0.15
66 0.15
67 0.15
7 -0.84
8 -0.84

> <PUBCHEM_EFFECTIVE_ROTOR_COUNT>
11.4

> <PUBCHEM_PHARMACOPHORE_FEATURES>
11
1 2 acceptor
1 3 acceptor
1 4 acceptor
1 6 cation
1 7 cation
1 8 cation
3 3 4 22 anion
6 23 25 26 29 30 31 rings
6 24 27 28 32 33 34 rings
6 5 9 10 11 12 14 rings
6 6 7 17 18 20 21 rings

> <PUBCHEM_HEAVY_ATOM_COUNT>
36

> <PUBCHEM_ATOM_DEF_STEREO_COUNT>
2

> <PUBCHEM_ATOM_UDEF_STEREO_COUNT>
0

> <PUBCHEM_BOND_DEF_STEREO_COUNT>
0

> <PUBCHEM_BOND_UDEF_STEREO_COUNT>
0

> <PUBCHEM_ISOTOPIC_ATOM_COUNT>
0

> <PUBCHEM_COMPONENT_COUNT>
1

> <PUBCHEM_CACTVS_TAUTO_COUNT>
1

> <PUBCHEM_CONFORMER_ID>
01B9E4C700000001

> <PUBCHEM_MMFF94_ENERGY>
115.5

> <PUBCHEM_FEATURE_SELFOVERLAP>
55.881

> <PUBCHEM_SHAPE_FINGERPRINT>
10290309 65 17901379001331763631
10411042 1 18265055919503589587
10454371 7 18337395933806308604
10816530 145 18341907268210473673
11049842 53 17544736950859001779
11434127 23 18269550555201521558
11445158 3 16773512282877748376
117089 54 18341611568371162684
12788726 201 18261669260037515043
13911987 19 18044922490885722877
14068700 675 18114183077144204574
14856354 85 18341050727161755604
15324884 4 17984109781967884121
15400415 2 17689716359970837560
15419008 47 18131344203328405832
15876981 60 18261119590191752759
15968369 26 16961536678204051647
16114785 44 18055084159858802489
20101258 96 18262807392723951067
20775438 99 17545271662467763535
21033650 10 18045810934698612566
21057603 43 18053106413687813179
22956985 138 17975696404770428509
23559900 14 18122334938257906315
354706 132 18123474870176670564
5171179 24 18120652689482255771
57527452 28 16199851948420473149
6673363 416 18339657737079036876
6700243 42 17912965822095140790
9980921 221 18194424208048407676

> <PUBCHEM_SHAPE_MULTIPOLES>
696.06
16.84
8.71
1.3
42.79
6.81
-0.41
-17.37
-4.63
-14.02
3.2
-0.49
0.38
2.48

> <PUBCHEM_SHAPE_SELFOVERLAP>
1466.441

> <PUBCHEM_SHAPE_VOLUME>
392.5

> <PUBCHEM_COORDINATE_TYPE>
2
5
10

$$$$
