51138073
  -OEChem-12032416323D

 63 65  0     1  0  0  0  0  0999 V2000
   -2.4587   -2.0130    1.3110 O   0  0  0  0  0  0  0  0  0  0  0  0
   -1.0227    0.6005    0.5409 N   0  0  0  0  0  0  0  0  0  0  0  0
    3.8140   -0.8015    0.9218 N   0  0  0  0  0  0  0  0  0  0  0  0
   -2.9346   -1.3434   -0.8672 N   0  0  0  0  0  0  0  0  0  0  0  0
   -6.6476   -1.5380   -0.6514 N   0  0  0  0  0  0  0  0  0  0  0  0
   -0.2566    1.6058   -0.2080 C   0  0  2  0  0  0  0  0  0  0  0  0
    1.2679    1.5083   -0.0923 C   0  0  0  0  0  0  0  0  0  0  0  0
   -0.8200   -0.7717    0.0990 C   0  0  1  0  0  0  0  0  0  0  0  0
    1.9838    0.3692    0.3769 C   0  0  0  0  0  0  0  0  0  0  0  0
   -0.8006    2.9580    0.2871 C   0  0  0  0  0  0  0  0  0  0  0  0
    0.2155   -1.4915    0.9607 C   0  0  0  0  0  0  0  0  0  0  0  0
    1.5948   -0.9357    0.8392 C   0  0  0  0  0  0  0  0  0  0  0  0
   -2.1660    3.3092   -0.3120 C   0  0  0  0  0  0  0  0  0  0  0  0
    3.3825    0.4039    0.4207 C   0  0  0  0  0  0  0  0  0  0  0  0
    2.7491   -1.6159    1.1711 C   0  0  0  0  0  0  0  0  0  0  0  0
    2.0543    2.5946   -0.5537 C   0  0  0  0  0  0  0  0  0  0  0  0
   -2.1502   -1.4398    0.2695 C   0  0  0  0  0  0  0  0  0  0  0  0
    4.1376    1.5017    0.0050 C   0  0  0  0  0  0  0  0  0  0  0  0
    3.4467    2.5968   -0.4975 C   0  0  0  0  0  0  0  0  0  0  0  0
   -2.5983    4.6884    0.1913 C   0  0  0  0  0  0  0  0  0  0  0  0
   -3.2412    2.2754    0.0259 C   0  0  0  0  0  0  0  0  0  0  0  0
    5.1944   -1.1775    1.1406 C   0  0  0  0  0  0  0  0  0  0  0  0
   -4.2538   -1.9243   -0.9689 C   0  0  0  0  0  0  0  0  0  0  0  0
   -5.3245   -0.9434   -0.5140 C   0  0  0  0  0  0  0  0  0  0  0  0
    5.8771   -1.5211   -0.1134 C   0  0  0  0  0  0  0  0  0  0  0  0
    6.4374   -1.8021   -1.1378 C   0  0  0  0  0  0  0  0  0  0  0  0
   -6.9217   -2.4508    0.4604 C   0  0  0  0  0  0  0  0  0  0  0  0
   -7.6765   -0.4983   -0.7189 C   0  0  0  0  0  0  0  0  0  0  0  0
    7.1180   -2.1437   -2.3859 C   0  0  0  0  0  0  0  0  0  0  0  0
   -0.4887    1.5077   -1.2774 H   0  0  0  0  0  0  0  0  0  0  0  0
   -0.5289   -0.8240   -0.9588 H   0  0  0  0  0  0  0  0  0  0  0  0
   -0.8488    2.9739    1.3861 H   0  0  0  0  0  0  0  0  0  0  0  0
   -0.1319    3.7858    0.0344 H   0  0  0  0  0  0  0  0  0  0  0  0
    0.2360   -2.5540    0.6810 H   0  0  0  0  0  0  0  0  0  0  0  0
   -0.0682   -1.4646    2.0223 H   0  0  0  0  0  0  0  0  0  0  0  0
   -0.8616    0.6925    1.5432 H   0  0  0  0  0  0  0  0  0  0  0  0
   -2.0754    3.3681   -1.4042 H   0  0  0  0  0  0  0  0  0  0  0  0
    2.8865   -2.6168    1.5591 H   0  0  0  0  0  0  0  0  0  0  0  0
    1.5843    3.4649   -1.0059 H   0  0  0  0  0  0  0  0  0  0  0  0
    5.2214    1.5064    0.0459 H   0  0  0  0  0  0  0  0  0  0  0  0
    3.9982    3.4600   -0.8604 H   0  0  0  0  0  0  0  0  0  0  0  0
   -1.8571    5.4511   -0.0703 H   0  0  0  0  0  0  0  0  0  0  0  0
   -3.5511    4.9864   -0.2593 H   0  0  0  0  0  0  0  0  0  0  0  0
   -2.7227    4.6941    1.2796 H   0  0  0  0  0  0  0  0  0  0  0  0
   -4.2355    2.6679   -0.2187 H   0  0  0  0  0  0  0  0  0  0  0  0
   -3.1275    1.3737   -0.5773 H   0  0  0  0  0  0  0  0  0  0  0  0
   -3.2504    2.0197    1.0903 H   0  0  0  0  0  0  0  0  0  0  0  0
    5.2100   -2.0292    1.8300 H   0  0  0  0  0  0  0  0  0  0  0  0
    5.6916   -0.3445    1.6494 H   0  0  0  0  0  0  0  0  0  0  0  0
   -2.5865   -0.8304   -1.6718 H   0  0  0  0  0  0  0  0  0  0  0  0
   -4.2621   -2.8433   -0.3747 H   0  0  0  0  0  0  0  0  0  0  0  0
   -4.4010   -2.1995   -2.0193 H   0  0  0  0  0  0  0  0  0  0  0  0
   -5.2423   -0.0566   -1.1575 H   0  0  0  0  0  0  0  0  0  0  0  0
   -5.1352   -0.5917    0.5090 H   0  0  0  0  0  0  0  0  0  0  0  0
   -6.8830   -1.9446    1.4320 H   0  0  0  0  0  0  0  0  0  0  0  0
   -7.9181   -2.8944    0.3500 H   0  0  0  0  0  0  0  0  0  0  0  0
   -6.2202   -3.2903    0.4793 H   0  0  0  0  0  0  0  0  0  0  0  0
   -8.6688   -0.9457   -0.8459 H   0  0  0  0  0  0  0  0  0  0  0  0
   -7.6915    0.1261    0.1818 H   0  0  0  0  0  0  0  0  0  0  0  0
   -7.5146    0.1499   -1.5874 H   0  0  0  0  0  0  0  0  0  0  0  0
    8.1311   -2.5075   -2.1899 H   0  0  0  0  0  0  0  0  0  0  0  0
    6.5745   -2.9260   -2.9241 H   0  0  0  0  0  0  0  0  0  0  0  0
    7.1918   -1.2700   -3.0405 H   0  0  0  0  0  0  0  0  0  0  0  0
  1 17  2  0  0  0  0
  2  6  1  0  0  0  0
  2  8  1  0  0  0  0
  2 36  1  0  0  0  0
  3 14  1  0  0  0  0
  3 15  1  0  0  0  0
  3 22  1  0  0  0  0
  4 17  1  0  0  0  0
  4 23  1  0  0  0  0
  4 50  1  0  0  0  0
  5 24  1  0  0  0  0
  5 27  1  0  0  0  0
  5 28  1  0  0  0  0
  6  7  1  0  0  0  0
  6 10  1  0  0  0  0
  6 30  1  0  0  0  0
  7  9  2  0  0  0  0
  7 16  1  0  0  0  0
  8 11  1  0  0  0  0
  8 17  1  0  0  0  0
  8 31  1  0  0  0  0
  9 12  1  0  0  0  0
  9 14  1  0  0  0  0
 10 13  1  0  0  0  0
 10 32  1  0  0  0  0
 10 33  1  0  0  0  0
 11 12  1  0  0  0  0
 11 34  1  0  0  0  0
 11 35  1  0  0  0  0
 12 15  2  0  0  0  0
 13 20  1  0  0  0  0
 13 21  1  0  0  0  0
 13 37  1  0  0  0  0
 14 18  2  0  0  0  0
 15 38  1  0  0  0  0
 16 19  2  0  0  0  0
 16 39  1  0  0  0  0
 18 19  1  0  0  0  0
 18 40  1  0  0  0  0
 19 41  1  0  0  0  0
 20 42  1  0  0  0  0
 20 43  1  0  0  0  0
 20 44  1  0  0  0  0
 21 45  1  0  0  0  0
 21 46  1  0  0  0  0
 21 47  1  0  0  0  0
 22 25  1  0  0  0  0
 22 48  1  0  0  0  0
 22 49  1  0  0  0  0
 23 24  1  0  0  0  0
 23 51  1  0  0  0  0
 23 52  1  0  0  0  0
 24 53  1  0  0  0  0
 24 54  1  0  0  0  0
 25 26  3  0  0  0  0
 26 29  1  0  0  0  0
 27 55  1  0  0  0  0
 27 56  1  0  0  0  0
 27 57  1  0  0  0  0
 28 58  1  0  0  0  0
 28 59  1  0  0  0  0
 28 60  1  0  0  0  0
 29 61  1  0  0  0  0
 29 62  1  0  0  0  0
 29 63  1  0  0  0  0
M  END
> <PUBCHEM_COMPOUND_CID>
51138073

> <PUBCHEM_CONFORMER_RMSD>
1

> <PUBCHEM_CONFORMER_DIVERSEORDER>
1
181
143
126
101
84
105
182
76
100
132
149
15
139
29
141
176
16
137
196
199
124
205
13
37
18
3
60
116
52
193
74
178
68
83
194
183
169
133
200
23
93
204
45
152
122
57
192
54
142
14
86
163
30
5
112
65
43
135
48
125
145
82
7
11
34
89
179
78
32
109
41
72
111
27
172
66
167
39
77
31
50
24
49
26
79
61
184
162
147
102
44
91
165
108
161
118
151
10
99
115
98
189
4
130
106
157
51
75
134
110
2
180
107
20
67
69
114
185
160
171
58
144
9
22
95
206
42
85
201
19
154
33
190
47
38
148
173
6
120
55
28
153
164
73
187
12
70
175
63
146
56
198
53
81
97
17
96
191
104
170
35
94
129
197
136
46
168
188
8
25
123
174
156
186
90
127
177
87
21
80
119
155
159
64
166
103
88
59
150
121
140
117
138
203
202
128
62
92
36
131
158
71
113
195
40

> <PUBCHEM_MMFF94_PARTIAL_CHARGES>
30
1 -0.57
11 0.18
12 -0.18
14 -0.15
15 -0.3
16 -0.15
17 0.57
18 -0.15
19 -0.15
2 -0.9
22 0.46
23 0.3
24 0.27
25 -0.2
26 -0.2
27 0.27
28 0.27
29 0.2
3 0.05
36 0.36
38 0.15
39 0.15
4 -0.73
40 0.15
41 0.15
5 -0.81
50 0.37
6 0.41
7 -0.14
8 0.33

> <PUBCHEM_EFFECTIVE_ROTOR_COUNT>
8.8

> <PUBCHEM_PHARMACOPHORE_FEATURES>
11
1 1 acceptor
1 2 cation
1 2 donor
1 29 hydrophobe
1 3 cation
1 4 donor
1 5 cation
3 13 20 21 hydrophobe
5 3 9 12 14 15 rings
6 7 9 14 16 18 19 rings
7 2 6 7 8 9 11 12 rings

> <PUBCHEM_HEAVY_ATOM_COUNT>
29

> <PUBCHEM_ATOM_DEF_STEREO_COUNT>
2

> <PUBCHEM_ATOM_UDEF_STEREO_COUNT>
0

> <PUBCHEM_BOND_DEF_STEREO_COUNT>
0

> <PUBCHEM_BOND_UDEF_STEREO_COUNT>
0

> <PUBCHEM_ISOTOPIC_ATOM_COUNT>
0

> <PUBCHEM_COMPONENT_COUNT>
1

> <PUBCHEM_CACTVS_TAUTO_COUNT>
2

> <PUBCHEM_CONFORMER_ID>
030C4E1900000001

> <PUBCHEM_MMFF94_ENERGY>
57.5075

> <PUBCHEM_FEATURE_SELFOVERLAP>
55.951

> <PUBCHEM_SHAPE_FINGERPRINT>
10675989 125 17972595760331775037
1100329 8 18263924341876796160
12107698 1 18410291402458560054
12166972 35 17821725065914330557
12236239 1 18200872989363075955
12788726 201 18410855473488259297
13140716 1 18262508201233783440
13540713 5 17825661154475982074
13690498 29 18411986827982066534
13757389 114 18050297964147307884
14117953 113 18272084990176594399
14294032 229 18195532485246265025
14347332 77 18412826863281606742
14464042 87 18340768238900154497
15927050 60 17906172845715952099
16087824 20 18266170640533824245
20028762 73 18412540998674824203
21267235 1 18409729564590529395
21279426 13 18261380166442935677
21307412 95 17697894570771172054
21792965 96 18126308362057008205
221357 26 18409446999076941986
23559900 14 18261667198822685626
23576562 1 18187091611562471828
23622692 118 18410572877387960116
3004659 81 18113891684644797787
350125 39 18335698317063296456
484989 97 18334856121706338273
59521120 56 18129947767705656937
70251023 43 18411419518615967922
7164475 11 18410566297308132576

> <PUBCHEM_SHAPE_MULTIPOLES>
571.01
16.86
4.39
1.23
8.14
5.06
0.33
-16.15
6.78
2.95
0.35
-1.64
-0.89
0.59

> <PUBCHEM_SHAPE_SELFOVERLAP>
1187.724

> <PUBCHEM_SHAPE_VOLUME>
326.2

> <PUBCHEM_COORDINATE_TYPE>
2
5
10

$$$$
