26763402
  -OEChem-12032416383D

 48 50  0     1  0  0  0  0  0999 V2000
    1.7075    0.1150    0.9512 O   0  0  0  0  0  0  0  0  0  0  0  0
    2.0363    2.7011   -0.6637 O   0  0  0  0  0  0  0  0  0  0  0  0
    4.3048    0.0038   -0.0225 O   0  0  0  0  0  0  0  0  0  0  0  0
   -2.6844    2.0328    1.0353 O   0  0  0  0  0  0  0  0  0  0  0  0
    6.1222   -1.5552    1.1951 O   0  0  0  0  0  0  0  0  0  0  0  0
   -1.1032    0.8647   -0.1978 N   0  0  0  0  0  0  0  0  0  0  0  0
   -3.3137    0.2332   -0.2898 N   0  0  0  0  0  0  0  0  0  0  0  0
    6.0177   -3.1659   -0.4452 N   0  0  0  0  0  0  0  0  0  0  0  0
    1.1416    1.5806   -0.8250 C   0  0  1  0  0  0  0  0  0  0  0  0
    1.9235    0.3370   -0.4524 C   0  0  1  0  0  0  0  0  0  0  0  0
    0.0423    1.6411    0.2098 C   0  0  2  0  0  0  0  0  0  0  0  0
    3.3473    0.7479   -0.7413 C   0  0  1  0  0  0  0  0  0  0  0  0
    0.7147    1.0355    1.4298 C   0  0  0  0  0  0  0  0  0  0  0  0
    3.3452    2.2069   -0.3443 C   0  0  0  0  0  0  0  0  0  0  0  0
   -4.7284    0.2730    0.0072 C   0  0  0  0  0  0  0  0  0  0  0  0
   -5.5570   -0.1904   -1.1957 C   0  0  0  0  0  0  0  0  0  0  0  0
   -5.0526   -0.5533    1.2564 C   0  0  0  0  0  0  0  0  0  0  0  0
   -5.4429   -1.6951   -1.4397 C   0  0  0  0  0  0  0  0  0  0  0  0
   -4.9393   -2.0574    1.0084 C   0  0  0  0  0  0  0  0  0  0  0  0
   -5.7810   -2.4961   -0.1860 C   0  0  0  0  0  0  0  0  0  0  0  0
   -2.3953    1.1270    0.2545 C   0  0  0  0  0  0  0  0  0  0  0  0
    4.6340   -1.2178   -0.6794 C   0  0  0  0  0  0  0  0  0  0  0  0
    5.6606   -1.9685    0.1353 C   0  0  0  0  0  0  0  0  0  0  0  0
    0.7929    1.5804   -1.8626 H   0  0  0  0  0  0  0  0  0  0  0  0
    1.6052   -0.5638   -0.9849 H   0  0  0  0  0  0  0  0  0  0  0  0
   -0.2846    2.6641    0.4251 H   0  0  0  0  0  0  0  0  0  0  0  0
    3.5354    0.6948   -1.8229 H   0  0  0  0  0  0  0  0  0  0  0  0
    1.2398    1.8035    2.0083 H   0  0  0  0  0  0  0  0  0  0  0  0
    0.0280    0.5098    2.1003 H   0  0  0  0  0  0  0  0  0  0  0  0
    3.5248    2.3471    0.7276 H   0  0  0  0  0  0  0  0  0  0  0  0
    4.0987    2.7866   -0.8860 H   0  0  0  0  0  0  0  0  0  0  0  0
   -0.9570    0.0526   -0.7899 H   0  0  0  0  0  0  0  0  0  0  0  0
   -4.9857    1.3190    0.2157 H   0  0  0  0  0  0  0  0  0  0  0  0
   -5.2496    0.3486   -2.1000 H   0  0  0  0  0  0  0  0  0  0  0  0
   -6.6112    0.0590   -1.0197 H   0  0  0  0  0  0  0  0  0  0  0  0
   -6.0776   -0.3263    1.5764 H   0  0  0  0  0  0  0  0  0  0  0  0
   -4.3930   -0.2722    2.0862 H   0  0  0  0  0  0  0  0  0  0  0  0
   -4.4297   -1.9468   -1.7741 H   0  0  0  0  0  0  0  0  0  0  0  0
   -6.1208   -1.9844   -2.2511 H   0  0  0  0  0  0  0  0  0  0  0  0
   -5.2615   -2.6014    1.9037 H   0  0  0  0  0  0  0  0  0  0  0  0
   -3.8901   -2.3259    0.8353 H   0  0  0  0  0  0  0  0  0  0  0  0
   -6.8443   -2.3684    0.0516 H   0  0  0  0  0  0  0  0  0  0  0  0
   -5.6233   -3.5636   -0.3765 H   0  0  0  0  0  0  0  0  0  0  0  0
   -2.9570   -0.5218   -0.8671 H   0  0  0  0  0  0  0  0  0  0  0  0
    3.7408   -1.8436   -0.7826 H   0  0  0  0  0  0  0  0  0  0  0  0
    5.0590   -1.0078   -1.6676 H   0  0  0  0  0  0  0  0  0  0  0  0
    5.6195   -3.4835   -1.3233 H   0  0  0  0  0  0  0  0  0  0  0  0
    6.6996   -3.7758   -0.0064 H   0  0  0  0  0  0  0  0  0  0  0  0
  1 10  1  0  0  0  0
  1 13  1  0  0  0  0
  2  9  1  0  0  0  0
  2 14  1  0  0  0  0
  3 12  1  0  0  0  0
  3 22  1  0  0  0  0
  4 21  2  0  0  0  0
  5 23  2  0  0  0  0
  6 11  1  0  0  0  0
  6 21  1  0  0  0  0
  6 32  1  0  0  0  0
  7 15  1  0  0  0  0
  7 21  1  0  0  0  0
  7 44  1  0  0  0  0
  8 23  1  0  0  0  0
  8 47  1  0  0  0  0
  8 48  1  0  0  0  0
  9 10  1  0  0  0  0
  9 11  1  0  0  0  0
  9 24  1  0  0  0  0
 10 12  1  0  0  0  0
 10 25  1  0  0  0  0
 11 13  1  0  0  0  0
 11 26  1  0  0  0  0
 12 14  1  0  0  0  0
 12 27  1  0  0  0  0
 13 28  1  0  0  0  0
 13 29  1  0  0  0  0
 14 30  1  0  0  0  0
 14 31  1  0  0  0  0
 15 16  1  0  0  0  0
 15 17  1  0  0  0  0
 15 33  1  0  0  0  0
 16 18  1  0  0  0  0
 16 34  1  0  0  0  0
 16 35  1  0  0  0  0
 17 19  1  0  0  0  0
 17 36  1  0  0  0  0
 17 37  1  0  0  0  0
 18 20  1  0  0  0  0
 18 38  1  0  0  0  0
 18 39  1  0  0  0  0
 19 20  1  0  0  0  0
 19 40  1  0  0  0  0
 19 41  1  0  0  0  0
 20 42  1  0  0  0  0
 20 43  1  0  0  0  0
 22 23  1  0  0  0  0
 22 45  1  0  0  0  0
 22 46  1  0  0  0  0
M  END
> <PUBCHEM_COMPOUND_CID>
26763402

> <PUBCHEM_CONFORMER_RMSD>
1

> <PUBCHEM_CONFORMER_DIVERSEORDER>
1
44
17
79
76
24
54
95
72
55
2
51
93
39
81
73
78
90
13
23
20
53
97
15
80
12
96
64
85
74
30
94
38
5
46
37
71
21
66
43
92
33
57
8
50
89
4
16
87
52
56
14
77
88
22
7
58
69
47
68
28
35
29
86
31
70
45
84
9
48
32
26
98
91
49
63
19
41
75
40
83
27
82
61
60
3
34
67
62
18
65
36
6
42
59
11
10
25

> <PUBCHEM_MMFF94_PARTIAL_CHARGES>
22
1 -0.56
10 0.28
11 0.3
12 0.28
13 0.28
14 0.28
15 0.3
2 -0.56
21 0.69
22 0.34
23 0.57
3 -0.56
32 0.37
4 -0.57
44 0.37
47 0.37
48 0.37
5 -0.57
6 -0.73
7 -0.73
8 -0.8
9 0.28

> <PUBCHEM_EFFECTIVE_ROTOR_COUNT>
9.4

> <PUBCHEM_PHARMACOPHORE_FEATURES>
11
1 1 acceptor
1 2 acceptor
1 3 acceptor
1 4 acceptor
1 5 acceptor
1 6 donor
1 7 donor
1 8 donor
5 1 9 10 11 13 rings
5 2 9 10 12 14 rings
6 15 16 17 18 19 20 rings

> <PUBCHEM_HEAVY_ATOM_COUNT>
23

> <PUBCHEM_ATOM_DEF_STEREO_COUNT>
4

> <PUBCHEM_ATOM_UDEF_STEREO_COUNT>
0

> <PUBCHEM_BOND_DEF_STEREO_COUNT>
0

> <PUBCHEM_BOND_UDEF_STEREO_COUNT>
0

> <PUBCHEM_ISOTOPIC_ATOM_COUNT>
0

> <PUBCHEM_COMPONENT_COUNT>
1

> <PUBCHEM_CACTVS_TAUTO_COUNT>
6

> <PUBCHEM_CONFORMER_ID>
0198608A00000001

> <PUBCHEM_MMFF94_ENERGY>
43.5166

> <PUBCHEM_FEATURE_SELFOVERLAP>
56.601

> <PUBCHEM_SHAPE_FINGERPRINT>
10 15 12607400001104611191
10883706 89 12966023190947919398
11796584 16 18270399365155819340
12596602 18 13902191469537261567
12633257 1 16199875076344574853
13533116 47 18412263973558175168
13955234 65 18055915639304161280
14211702 104 18341899571408071486
14251751 18 18272651242321367283
14790565 3 10015277149615313122
14848178 5 18412824681174580003
14951699 99 10879996886436027003
15183329 4 17385719184038015770
15188451 53 17988917860448249413
17857418 61 18342739615428915183
18222031 100 18334008368208155104
19377110 9 17489306433933773344
193927 3 18342748394294491628
19784866 240 18409172073614225356
20028762 73 18342737399553650358
20281389 69 9727630600878066830
20398071 356 18411427189148412071
20567600 247 18411417323566172794
20645477 70 18187930628711441452
21033648 29 13901642809614825507
21585482 111 10591769778987179442
21585483 132 18337935857818518535
21637258 2 18410848837631508804
22393880 68 17749097894783285221
23559900 14 18262513805823251833
25122255 55 18410297994932847791
270888 7 8862944970107800887
2748736 6 9006769848533435214
2838139 119 7925624480225462818
2916195 48 11095884861015594829
3004659 81 18186795894373076875
314194 84 18199472228449297637
316301 35 18058161903020558807
34797466 226 16588873519965409245
439807 62 18337955701252481215
465052 167 18341900671441549198
5104073 3 17989213654830556089
531348 171 18410852149742384413
543368 44 8358251541152302607
559249 180 18341894057497822581
5718773 13 18190174582606834058
59682541 35 18271512149556763314
7495541 125 17703789262095926433
76465 3 18410013196089202580
7808743 9 8286195037708929405
7970288 3 18411416198195219958

> <PUBCHEM_SHAPE_MULTIPOLES>
429.04
16.89
2.99
1.22
1.34
1.14
0.12
16.21
-1.04
-2.71
-0.13
0.86
0.11
-0.75

> <PUBCHEM_SHAPE_SELFOVERLAP>
887.883

> <PUBCHEM_SHAPE_VOLUME>
244.2

> <PUBCHEM_COORDINATE_TYPE>
2
5
10

$$$$
