75536633
  -OEChem-12032416313D

 39 40  0     1  0  0  0  0  0999 V2000
    6.6090    1.2269    0.4136 F   0  0  0  0  0  0  0  0  0  0  0  0
   -1.6943    1.2210   -0.1511 O   0  0  0  0  0  0  0  0  0  0  0  0
   -3.3797   -1.9326    0.1948 O   0  0  0  0  0  0  0  0  0  0  0  0
    1.2568   -2.1066    0.3227 O   0  0  0  0  0  0  0  0  0  0  0  0
   -5.2694    0.5721    0.0181 N   0  0  0  0  0  0  0  0  0  0  0  0
    0.6013   -0.3012   -0.9787 N   0  0  0  0  0  0  0  0  0  0  0  0
   -3.8721    0.4497    0.4004 C   0  0  1  0  0  0  0  0  0  0  0  0
   -3.1316   -0.6476   -0.3415 C   0  0  1  0  0  0  0  0  0  0  0  0
   -1.6858   -0.2162   -0.1364 C   0  0  1  0  0  0  0  0  0  0  0  0
   -3.0481    1.6720    0.0300 C   0  0  0  0  0  0  0  0  0  0  0  0
   -0.7463   -0.7350   -1.2104 C   0  0  0  0  0  0  0  0  0  0  0  0
   -6.0072   -0.6525    0.3423 C   0  0  0  0  0  0  0  0  0  0  0  0
   -5.8912    1.7237    0.6783 C   0  0  0  0  0  0  0  0  0  0  0  0
    1.5085   -1.0335   -0.2189 C   0  0  0  0  0  0  0  0  0  0  0  0
    2.8579   -0.4349   -0.0513 C   0  0  0  0  0  0  0  0  0  0  0  0
    3.6215   -0.7412    1.0751 C   0  0  0  0  0  0  0  0  0  0  0  0
    3.3615    0.4328   -1.0204 C   0  0  0  0  0  0  0  0  0  0  0  0
    4.8885   -0.1797    1.2326 C   0  0  0  0  0  0  0  0  0  0  0  0
    4.6285    0.9944   -0.8629 C   0  0  0  0  0  0  0  0  0  0  0  0
    5.3920    0.6882    0.2635 C   0  0  0  0  0  0  0  0  0  0  0  0
   -3.7876    0.2739    1.4834 H   0  0  0  0  0  0  0  0  0  0  0  0
   -3.3930   -0.6517   -1.4073 H   0  0  0  0  0  0  0  0  0  0  0  0
   -1.3235   -0.5306    0.8513 H   0  0  0  0  0  0  0  0  0  0  0  0
   -3.3628    2.1188   -0.9203 H   0  0  0  0  0  0  0  0  0  0  0  0
   -3.0650    2.4475    0.8020 H   0  0  0  0  0  0  0  0  0  0  0  0
   -1.0303   -0.3419   -2.1928 H   0  0  0  0  0  0  0  0  0  0  0  0
   -0.7742   -1.8290   -1.2526 H   0  0  0  0  0  0  0  0  0  0  0  0
   -3.1526   -1.9179    1.1400 H   0  0  0  0  0  0  0  0  0  0  0  0
   -5.7178   -1.4801   -0.3118 H   0  0  0  0  0  0  0  0  0  0  0  0
   -5.8816   -0.9534    1.3887 H   0  0  0  0  0  0  0  0  0  0  0  0
   -7.0799   -0.5112    0.1624 H   0  0  0  0  0  0  0  0  0  0  0  0
   -5.8290    1.6565    1.7707 H   0  0  0  0  0  0  0  0  0  0  0  0
   -5.4375    2.6676    0.3591 H   0  0  0  0  0  0  0  0  0  0  0  0
   -6.9497    1.7969    0.4026 H   0  0  0  0  0  0  0  0  0  0  0  0
    0.8529    0.6127   -1.3397 H   0  0  0  0  0  0  0  0  0  0  0  0
    3.2452   -1.4116    1.8433 H   0  0  0  0  0  0  0  0  0  0  0  0
    2.8133    0.6732   -1.9263 H   0  0  0  0  0  0  0  0  0  0  0  0
    5.4831   -0.4171    2.1098 H   0  0  0  0  0  0  0  0  0  0  0  0
    5.0243    1.6647   -1.6203 H   0  0  0  0  0  0  0  0  0  0  0  0
  1 20  1  0  0  0  0
  2  9  1  0  0  0  0
  2 10  1  0  0  0  0
  3  8  1  0  0  0  0
  3 28  1  0  0  0  0
  4 14  2  0  0  0  0
  5  7  1  0  0  0  0
  5 12  1  0  0  0  0
  5 13  1  0  0  0  0
  6 11  1  0  0  0  0
  6 14  1  0  0  0  0
  6 35  1  0  0  0  0
  7  8  1  0  0  0  0
  7 10  1  0  0  0  0
  7 21  1  0  0  0  0
  8  9  1  0  0  0  0
  8 22  1  0  0  0  0
  9 11  1  0  0  0  0
  9 23  1  0  0  0  0
 10 24  1  0  0  0  0
 10 25  1  0  0  0  0
 11 26  1  0  0  0  0
 11 27  1  0  0  0  0
 12 29  1  0  0  0  0
 12 30  1  0  0  0  0
 12 31  1  0  0  0  0
 13 32  1  0  0  0  0
 13 33  1  0  0  0  0
 13 34  1  0  0  0  0
 14 15  1  0  0  0  0
 15 16  2  0  0  0  0
 15 17  1  0  0  0  0
 16 18  1  0  0  0  0
 16 36  1  0  0  0  0
 17 19  2  0  0  0  0
 17 37  1  0  0  0  0
 18 20  2  0  0  0  0
 18 38  1  0  0  0  0
 19 20  1  0  0  0  0
 19 39  1  0  0  0  0
M  END
> <PUBCHEM_COMPOUND_CID>
75536633

> <PUBCHEM_CONFORMER_RMSD>
0.8

> <PUBCHEM_CONFORMER_DIVERSEORDER>
1
19
18
24
5
32
27
16
29
6
21
9
13
12
14
7
11
31
30
15
26
22
25
10
23
2
17
20
8
4
28
3

> <PUBCHEM_MMFF94_PARTIAL_CHARGES>
26
1 -0.19
10 0.28
11 0.3
12 0.27
13 0.27
14 0.54
15 0.09
16 -0.15
17 -0.15
18 -0.15
19 -0.15
2 -0.56
20 0.19
28 0.4
3 -0.68
35 0.37
36 0.15
37 0.15
38 0.15
39 0.15
4 -0.57
5 -0.81
6 -0.73
7 0.27
8 0.28
9 0.28

> <PUBCHEM_EFFECTIVE_ROTOR_COUNT>
6

> <PUBCHEM_PHARMACOPHORE_FEATURES>
8
1 2 acceptor
1 3 acceptor
1 3 donor
1 4 acceptor
1 5 cation
1 6 donor
5 2 7 8 9 10 rings
6 15 16 17 18 19 20 rings

> <PUBCHEM_HEAVY_ATOM_COUNT>
20

> <PUBCHEM_ATOM_DEF_STEREO_COUNT>
3

> <PUBCHEM_ATOM_UDEF_STEREO_COUNT>
0

> <PUBCHEM_BOND_DEF_STEREO_COUNT>
0

> <PUBCHEM_BOND_UDEF_STEREO_COUNT>
0

> <PUBCHEM_ISOTOPIC_ATOM_COUNT>
0

> <PUBCHEM_COMPONENT_COUNT>
1

> <PUBCHEM_CACTVS_TAUTO_COUNT>
2

> <PUBCHEM_CONFORMER_ID>
048098F900000001

> <PUBCHEM_MMFF94_ENERGY>
49.8494

> <PUBCHEM_FEATURE_SELFOVERLAP>
40.596

> <PUBCHEM_SHAPE_FINGERPRINT>
10354089 29 18040715870892745756
106641 1 17531249503745018280
10670039 82 17774455884379400296
10688039 33 16732698333613230092
11724838 91 18261109716230542190
117890 112 18341052922085455793
11796584 16 10809347732444084576
12107183 9 17539680305519688872
12236239 1 18261110768249531762
12516196 113 12324246070360023878
12555020 224 8862653578489655265
12596602 18 18040714753578835161
12616971 3 17023187157960842054
12633257 1 16660365913407930984
12730499 353 16558756715006065222
12916748 109 17203613670399346128
12954195 1 8574443010901192151
13288520 33 8142088663058965079
13533116 47 17385720249638097090
13668630 136 8358261458057884968
13685833 64 12251904793552814276
14251751 18 12540991715069459697
14251752 14 11023837149597396043
14341114 176 18261111842360679426
14341114 328 18333448742211105394
14844126 61 18116438231618167635
14848160 23 14056717954559099184
17834072 8 13039190316434382536
17980427 23 18409168839989012621
18222031 100 11746935352914113842
19050596 39 18259703406266893118
193927 3 11963676564990102580
19784866 240 10737287926571404071
20645477 56 17561079219804599471
20645477 70 9151168766733319714
21065198 48 18260545580660431866
21150785 3 15267051550391677621
221357 26 13830131667701286914
22224240 67 16660642995023520752
23198884 109 12967130518962122259
23402539 116 18113896095760950471
23559900 14 18198361567023488927
26918003 58 16587746442915760649
2916195 48 17988353888709447168
29717793 49 9943811110218154592
300161 21 18335698334543462735
3472631 163 18060416962962445748
34797466 226 17489033750470157445
351380 3 8142083156573443952
3545911 37 18342741797477997510
465052 167 11386372525954594400
5104073 3 18263652766799170491
542803 24 18040719160130747757
559249 180 8646500608616506189
5758199 1 17822573906661919824
59682541 35 18341054120676757235
59682541 52 15697730203246214540
59755656 520 18341606032168998046
67856867 119 18042410295030164925
960060 61 11815893479349368314

> <PUBCHEM_SHAPE_MULTIPOLES>
376.75
15.8
1.63
1.02
0.58
0.09
-0.02
-5.73
3.88
1.02
0.13
-0.84
0.03
-0.64

> <PUBCHEM_SHAPE_SELFOVERLAP>
784.747

> <PUBCHEM_SHAPE_VOLUME>
216.7

> <PUBCHEM_COORDINATE_TYPE>
2
5
10

$$$$
