45783998
  -OEChem-12032416273D

 64 66  0     1  0  0  0  0  0999 V2000
    5.8607   -2.2699   -0.4884 O   0  0  0  0  0  0  0  0  0  0  0  0
   -3.3691   -1.0916   -0.8733 O   0  0  0  0  0  0  0  0  0  0  0  0
    2.2660   -0.3880    0.5393 N   0  0  0  0  0  0  0  0  0  0  0  0
   -3.0495   -0.3337    1.2070 N   0  0  0  0  0  0  0  0  0  0  0  0
   -3.1353   -1.7123    1.2632 N   0  0  0  0  0  0  0  0  0  0  0  0
    0.6738    1.7458   -0.6879 C   0  0  1  0  0  0  0  0  0  0  0  0
    0.8089    1.5754    0.8432 C   0  0  2  0  0  0  0  0  0  0  0  0
   -0.7236    1.3151   -1.1557 C   0  0  0  0  0  0  0  0  0  0  0  0
   -1.8663    2.0773   -0.4513 C   0  0  2  0  0  0  0  0  0  0  0  0
    0.9843    3.1852   -1.1203 C   0  0  0  0  0  0  0  0  0  0  0  0
    1.0790    0.1173    1.2287 C   0  0  0  0  0  0  0  0  0  0  0  0
   -0.4038    2.0692    1.5901 C   0  0  0  0  0  0  0  0  0  0  0  0
   -1.6028    2.3106    1.0287 C   0  0  0  0  0  0  0  0  0  0  0  0
   -3.1834    1.3359   -0.7128 C   0  0  0  0  0  0  0  0  0  0  0  0
    3.4872    0.1436    1.1613 C   0  0  0  0  0  0  0  0  0  0  0  0
    2.2688   -1.8580    0.5308 C   0  0  0  0  0  0  0  0  0  0  0  0
    0.4376    3.4502   -2.5193 C   0  0  0  0  0  0  0  0  0  0  0  0
    2.4867    3.4438   -1.0685 C   0  0  0  0  0  0  0  0  0  0  0  0
    4.7347   -0.3355    0.4201 C   0  0  0  0  0  0  0  0  0  0  0  0
    3.4781   -2.4007   -0.2299 C   0  0  0  0  0  0  0  0  0  0  0  0
    4.7835   -1.8589    0.3437 C   0  0  0  0  0  0  0  0  0  0  0  0
   -2.7231    2.8853    1.8517 C   0  0  0  0  0  0  0  0  0  0  0  0
   -3.1913   -0.0160   -0.0586 C   0  0  0  0  0  0  0  0  0  0  0  0
   -3.3220   -2.1116    0.0268 C   0  0  0  0  0  0  0  0  0  0  0  0
   -3.4795   -3.4717   -0.5033 C   0  0  0  0  0  0  0  0  0  0  0  0
   -2.1428   -4.2371   -0.6099 C   0  0  0  0  0  0  0  0  0  0  0  0
   -1.1567   -3.5698   -1.5555 C   0  0  0  0  0  0  0  0  0  0  0  0
    1.3876    1.0986   -1.2128 H   0  0  0  0  0  0  0  0  0  0  0  0
    1.6361    2.1909    1.2085 H   0  0  0  0  0  0  0  0  0  0  0  0
   -0.8441    1.3638   -2.2435 H   0  0  0  0  0  0  0  0  0  0  0  0
   -0.8021    0.2407   -0.9455 H   0  0  0  0  0  0  0  0  0  0  0  0
   -1.9642    3.0703   -0.9060 H   0  0  0  0  0  0  0  0  0  0  0  0
    0.5036    3.9032   -0.4440 H   0  0  0  0  0  0  0  0  0  0  0  0
    0.2030   -0.4857    0.9541 H   0  0  0  0  0  0  0  0  0  0  0  0
    1.1803    0.0119    2.3180 H   0  0  0  0  0  0  0  0  0  0  0  0
   -0.2656    2.2523    2.6537 H   0  0  0  0  0  0  0  0  0  0  0  0
   -3.3362    1.2225   -1.7936 H   0  0  0  0  0  0  0  0  0  0  0  0
   -4.0403    1.9106   -0.3430 H   0  0  0  0  0  0  0  0  0  0  0  0
    3.5520   -0.1575    2.2153 H   0  0  0  0  0  0  0  0  0  0  0  0
    3.5048    1.2370    1.1367 H   0  0  0  0  0  0  0  0  0  0  0  0
    1.3647   -2.2305    0.0351 H   0  0  0  0  0  0  0  0  0  0  0  0
    2.2671   -2.2542    1.5547 H   0  0  0  0  0  0  0  0  0  0  0  0
    0.7745    2.6930   -3.2363 H   0  0  0  0  0  0  0  0  0  0  0  0
    0.8061    4.4161   -2.8861 H   0  0  0  0  0  0  0  0  0  0  0  0
   -0.6512    3.5230   -2.5600 H   0  0  0  0  0  0  0  0  0  0  0  0
    2.7147    4.4553   -1.4233 H   0  0  0  0  0  0  0  0  0  0  0  0
    2.8871    3.3685   -0.0545 H   0  0  0  0  0  0  0  0  0  0  0  0
    3.0363    2.7406   -1.7039 H   0  0  0  0  0  0  0  0  0  0  0  0
    5.6365    0.0394    0.9193 H   0  0  0  0  0  0  0  0  0  0  0  0
    4.7576    0.0889   -0.5927 H   0  0  0  0  0  0  0  0  0  0  0  0
    3.4016   -2.1381   -1.2937 H   0  0  0  0  0  0  0  0  0  0  0  0
    3.4846   -3.4968   -0.1953 H   0  0  0  0  0  0  0  0  0  0  0  0
    4.9484   -2.2800    1.3426 H   0  0  0  0  0  0  0  0  0  0  0  0
   -3.5415    2.1722    1.9789 H   0  0  0  0  0  0  0  0  0  0  0  0
   -3.1182    3.7867    1.3714 H   0  0  0  0  0  0  0  0  0  0  0  0
   -2.3881    3.1753    2.8538 H   0  0  0  0  0  0  0  0  0  0  0  0
    6.6786   -1.9046   -0.1100 H   0  0  0  0  0  0  0  0  0  0  0  0
   -3.9604   -3.4427   -1.4884 H   0  0  0  0  0  0  0  0  0  0  0  0
   -4.1520   -4.0343    0.1551 H   0  0  0  0  0  0  0  0  0  0  0  0
   -2.3474   -5.2542   -0.9638 H   0  0  0  0  0  0  0  0  0  0  0  0
   -1.6846   -4.3260    0.3825 H   0  0  0  0  0  0  0  0  0  0  0  0
   -1.5891   -3.4527   -2.5543 H   0  0  0  0  0  0  0  0  0  0  0  0
   -0.8531   -2.5829   -1.1935 H   0  0  0  0  0  0  0  0  0  0  0  0
   -0.2530   -4.1808   -1.6478 H   0  0  0  0  0  0  0  0  0  0  0  0
  1 21  1  0  0  0  0
  1 57  1  0  0  0  0
  2 23  1  0  0  0  0
  2 24  1  0  0  0  0
  3 11  1  0  0  0  0
  3 15  1  0  0  0  0
  3 16  1  0  0  0  0
  4  5  1  0  0  0  0
  4 23  2  0  0  0  0
  5 24  2  0  0  0  0
  6  7  1  0  0  0  0
  6  8  1  0  0  0  0
  6 10  1  0  0  0  0
  6 28  1  0  0  0  0
  7 11  1  0  0  0  0
  7 12  1  0  0  0  0
  7 29  1  0  0  0  0
  8  9  1  0  0  0  0
  8 30  1  0  0  0  0
  8 31  1  0  0  0  0
  9 13  1  0  0  0  0
  9 14  1  0  0  0  0
  9 32  1  0  0  0  0
 10 17  1  0  0  0  0
 10 18  1  0  0  0  0
 10 33  1  0  0  0  0
 11 34  1  0  0  0  0
 11 35  1  0  0  0  0
 12 13  2  0  0  0  0
 12 36  1  0  0  0  0
 13 22  1  0  0  0  0
 14 23  1  0  0  0  0
 14 37  1  0  0  0  0
 14 38  1  0  0  0  0
 15 19  1  0  0  0  0
 15 39  1  0  0  0  0
 15 40  1  0  0  0  0
 16 20  1  0  0  0  0
 16 41  1  0  0  0  0
 16 42  1  0  0  0  0
 17 43  1  0  0  0  0
 17 44  1  0  0  0  0
 17 45  1  0  0  0  0
 18 46  1  0  0  0  0
 18 47  1  0  0  0  0
 18 48  1  0  0  0  0
 19 21  1  0  0  0  0
 19 49  1  0  0  0  0
 19 50  1  0  0  0  0
 20 21  1  0  0  0  0
 20 51  1  0  0  0  0
 20 52  1  0  0  0  0
 21 53  1  0  0  0  0
 22 54  1  0  0  0  0
 22 55  1  0  0  0  0
 22 56  1  0  0  0  0
 24 25  1  0  0  0  0
 25 26  1  0  0  0  0
 25 58  1  0  0  0  0
 25 59  1  0  0  0  0
 26 27  1  0  0  0  0
 26 60  1  0  0  0  0
 26 61  1  0  0  0  0
 27 62  1  0  0  0  0
 27 63  1  0  0  0  0
 27 64  1  0  0  0  0
M  END
> <PUBCHEM_COMPOUND_CID>
45783998

> <PUBCHEM_CONFORMER_RMSD>
1

> <PUBCHEM_CONFORMER_DIVERSEORDER>
6
12
31
115
63
157
40
101
144
106
141
166
152
62
46
34
23
30
88
37
83
149
66
2
49
154
112
114
160
47
86
148
168
7
56
84
125
42
139
91
97
89
68
118
111
99
29
158
72
10
100
21
145
107
132
95
138
146
61
81
74
131
85
137
78
64
20
65
45
94
130
82
113
161
156
102
44
9
50
126
18
140
24
151
169
80
32
75
13
5
70
108
153
109
155
116
122
43
121
51
25
165
162
104
67
96
124
15
1
103
117
35
90
53
129
92
120
71
36
33
54
164
8
119
38
133
57
79
3
76
163
22
136
147
93
39
167
77
55
41
11
28
59
159
4
150
73
19
69
134
27
26
105
87
60
17
16
14
98
58
142
135
127
170
128
143
52
123
48
110

> <PUBCHEM_MMFF94_PARTIAL_CHARGES>
20
1 -0.68
11 0.27
12 -0.29
13 -0.28
14 0.18
15 0.27
16 0.27
2 -0.28
21 0.28
22 0.14
23 0.3
24 0.3
25 0.18
3 -0.81
36 0.15
4 -0.34
5 -0.34
57 0.4
7 0.14
9 0.14

> <PUBCHEM_EFFECTIVE_ROTOR_COUNT>
9

> <PUBCHEM_PHARMACOPHORE_FEATURES>
8
1 1 acceptor
1 1 donor
1 27 hydrophobe
1 3 cation
3 10 17 18 hydrophobe
5 2 4 5 23 24 rings
6 3 15 16 19 20 21 rings
6 6 7 8 9 12 13 rings

> <PUBCHEM_HEAVY_ATOM_COUNT>
27

> <PUBCHEM_ATOM_DEF_STEREO_COUNT>
3

> <PUBCHEM_ATOM_UDEF_STEREO_COUNT>
0

> <PUBCHEM_BOND_DEF_STEREO_COUNT>
0

> <PUBCHEM_BOND_UDEF_STEREO_COUNT>
0

> <PUBCHEM_ISOTOPIC_ATOM_COUNT>
0

> <PUBCHEM_COMPONENT_COUNT>
1

> <PUBCHEM_CACTVS_TAUTO_COUNT>
1

> <PUBCHEM_CONFORMER_ID>
02BA9BBE00000006

> <PUBCHEM_MMFF94_ENERGY>
35.1463

> <PUBCHEM_FEATURE_SELFOVERLAP>
40.596

> <PUBCHEM_SHAPE_FINGERPRINT>
11014199 57 18124028194185423198
11069576 57 17834382802371145175
11315621 246 18193850249851596702
11477941 20 17606424081174597550
11552529 35 18271801294237255818
12553582 1 17968931981455208921
12969540 37 18196076953696240656
13122387 1 18412821404252306767
14863182 85 17617650398734503081
15849732 13 18045794390353083449
19319366 153 17401778908845357735
20600515 1 18200041629095555372
20775530 9 18195798785723613147
21421861 104 18194430946129603041
23559900 14 18339909485289548088
238 59 17036124252629033035
2818148 4 18051700141845749183
3027735 51 17546701791449441597
340366 18 18187639202896977749
3737641 26 17977399548403003755
4280585 95 18115290233860999424
46194498 28 17679847482769851159
463206 1 17907295812186901755
5080951 261 18120910856014797378
57091435 65 18049167966297936622
6287921 2 18266735969033347024

> <PUBCHEM_SHAPE_MULTIPOLES>
528.97
8.34
5.74
1.72
8.08
1.93
0.23
7.8
-0.8
-1.83
2.42
-0.41
-1.44
-1.67

> <PUBCHEM_SHAPE_SELFOVERLAP>
1081.981

> <PUBCHEM_SHAPE_VOLUME>
305.5

> <PUBCHEM_COORDINATE_TYPE>
2
5
10

$$$$
