7127944
  -OEChem-12032416343D

 66 68  0     1  0  0  0  0  0999 V2000
   -5.2275   -0.9322   -1.6085 S   0  0  0  0  0  0  0  0  0  0  0  0
   -1.5785    1.1557   -1.0635 O   0  0  0  0  0  0  0  0  0  0  0  0
   -4.4486    1.9820   -0.1673 O   0  0  0  0  0  0  0  0  0  0  0  0
   -0.7624   -3.8613    1.3216 O   0  0  0  0  0  0  0  0  0  0  0  0
   -0.4421    4.9250   -0.4603 O   0  0  0  0  0  0  0  0  0  0  0  0
   -3.2043    0.3037    0.8290 N   0  0  0  0  0  0  0  0  0  0  0  0
   -0.6801   -1.5999    0.7996 N   0  0  0  0  0  0  0  0  0  0  0  0
   -0.2036    2.3271    0.4050 N   0  0  0  0  0  0  0  0  0  0  0  0
    0.5710   -3.1007   -0.4182 N   0  0  0  0  0  0  0  0  0  0  0  0
    3.2560    0.1953    2.1008 N   0  0  0  0  0  0  0  0  0  0  0  0
    0.5469    4.3182   -2.4426 N   0  0  0  0  0  0  0  0  0  0  0  0
   -1.5974   -1.1426    1.8132 C   0  0  1  0  0  0  0  0  0  0  0  0
   -2.1067    1.1546    1.2645 C   0  0  1  0  0  0  0  0  0  0  0  0
   -1.3027    0.2979    2.2401 C   0  0  0  0  0  0  0  0  0  0  0  0
   -3.0295   -1.0728    1.2924 C   0  0  0  0  0  0  0  0  0  0  0  0
   -1.2899    1.5382    0.0673 C   0  0  0  0  0  0  0  0  0  0  0  0
   -4.3356    0.8147    0.2110 C   0  0  0  0  0  0  0  0  0  0  0  0
    0.7531    2.8116   -0.5637 C   0  0  2  0  0  0  0  0  0  0  0  0
   -0.3300   -2.9393    0.6313 C   0  0  0  0  0  0  0  0  0  0  0  0
   -5.4619   -0.1658    0.0016 C   0  0  0  0  0  0  0  0  0  0  0  0
    2.1401    3.0358    0.0516 C   0  0  0  0  0  0  0  0  0  0  0  0
    2.7280    1.7893    0.6491 C   0  0  0  0  0  0  0  0  0  0  0  0
    0.2022    4.1153   -1.1229 C   0  0  0  0  0  0  0  0  0  0  0  0
    1.0969   -4.3880   -0.8070 C   0  0  0  0  0  0  0  0  0  0  0  0
    3.5459    0.8341   -0.0170 C   0  0  0  0  0  0  0  0  0  0  0  0
    2.5675    1.3690    1.9493 C   0  0  0  0  0  0  0  0  0  0  0  0
    3.8632   -0.1553    0.9160 C   0  0  0  0  0  0  0  0  0  0  0  0
    4.0483    0.7161   -1.3281 C   0  0  0  0  0  0  0  0  0  0  0  0
    0.1808   -5.0543   -1.8260 C   0  0  0  0  0  0  0  0  0  0  0  0
    2.5118   -4.2395   -1.3510 C   0  0  0  0  0  0  0  0  0  0  0  0
   -6.6675   -2.0287   -1.6085 C   0  0  0  0  0  0  0  0  0  0  0  0
    4.6611   -1.2613    0.6021 C   0  0  0  0  0  0  0  0  0  0  0  0
    4.8476   -0.3848   -1.6564 C   0  0  0  0  0  0  0  0  0  0  0  0
    5.1481   -1.3572   -0.7045 C   0  0  0  0  0  0  0  0  0  0  0  0
   -1.5279   -1.8285    2.6646 H   0  0  0  0  0  0  0  0  0  0  0  0
   -2.4986    2.0650    1.7321 H   0  0  0  0  0  0  0  0  0  0  0  0
   -1.7065    0.4502    3.2496 H   0  0  0  0  0  0  0  0  0  0  0  0
   -0.2328    0.5152    2.2783 H   0  0  0  0  0  0  0  0  0  0  0  0
   -3.7372   -1.2309    2.1142 H   0  0  0  0  0  0  0  0  0  0  0  0
   -3.2410   -1.7886    0.4940 H   0  0  0  0  0  0  0  0  0  0  0  0
   -0.3059   -0.9255    0.1395 H   0  0  0  0  0  0  0  0  0  0  0  0
   -0.1178    2.6603    1.3612 H   0  0  0  0  0  0  0  0  0  0  0  0
    0.8176    2.0714   -1.3715 H   0  0  0  0  0  0  0  0  0  0  0  0
   -5.5190   -0.9130    0.7952 H   0  0  0  0  0  0  0  0  0  0  0  0
   -6.4037    0.3934    0.0098 H   0  0  0  0  0  0  0  0  0  0  0  0
    2.8235    3.4359   -0.7082 H   0  0  0  0  0  0  0  0  0  0  0  0
    2.0808    3.8075    0.8316 H   0  0  0  0  0  0  0  0  0  0  0  0
    0.8146   -2.2869   -0.9751 H   0  0  0  0  0  0  0  0  0  0  0  0
    1.1359   -5.0245    0.0852 H   0  0  0  0  0  0  0  0  0  0  0  0
    2.0279    1.7990    2.7817 H   0  0  0  0  0  0  0  0  0  0  0  0
    3.3107   -0.3374    2.9578 H   0  0  0  0  0  0  0  0  0  0  0  0
    3.8222    1.4641   -2.0826 H   0  0  0  0  0  0  0  0  0  0  0  0
    0.5623   -6.0405   -2.1100 H   0  0  0  0  0  0  0  0  0  0  0  0
   -0.8275   -5.1870   -1.4190 H   0  0  0  0  0  0  0  0  0  0  0  0
    0.0911   -4.4479   -2.7344 H   0  0  0  0  0  0  0  0  0  0  0  0
    2.9251   -5.2113   -1.6402 H   0  0  0  0  0  0  0  0  0  0  0  0
    3.1712   -3.8058   -0.5925 H   0  0  0  0  0  0  0  0  0  0  0  0
    2.5369   -3.5823   -2.2273 H   0  0  0  0  0  0  0  0  0  0  0  0
    0.2549    5.1565   -2.9340 H   0  0  0  0  0  0  0  0  0  0  0  0
    1.0994    3.6504   -2.9709 H   0  0  0  0  0  0  0  0  0  0  0  0
    4.8943   -2.0196    1.3420 H   0  0  0  0  0  0  0  0  0  0  0  0
   -6.6913   -2.5917   -2.5453 H   0  0  0  0  0  0  0  0  0  0  0  0
   -7.5890   -1.4461   -1.5289 H   0  0  0  0  0  0  0  0  0  0  0  0
   -6.6057   -2.7369   -0.7782 H   0  0  0  0  0  0  0  0  0  0  0  0
    5.2369   -0.4819   -2.6665 H   0  0  0  0  0  0  0  0  0  0  0  0
    5.7695   -2.2049   -0.9815 H   0  0  0  0  0  0  0  0  0  0  0  0
  1 20  1  0  0  0  0
  1 31  1  0  0  0  0
  2 16  2  0  0  0  0
  3 17  2  0  0  0  0
  4 19  2  0  0  0  0
  5 23  2  0  0  0  0
  6 13  1  0  0  0  0
  6 15  1  0  0  0  0
  6 17  1  0  0  0  0
  7 12  1  0  0  0  0
  7 19  1  0  0  0  0
  7 41  1  0  0  0  0
  8 16  1  0  0  0  0
  8 18  1  0  0  0  0
  8 42  1  0  0  0  0
  9 19  1  0  0  0  0
  9 24  1  0  0  0  0
  9 48  1  0  0  0  0
 10 26  1  0  0  0  0
 10 27  1  0  0  0  0
 10 51  1  0  0  0  0
 11 23  1  0  0  0  0
 11 59  1  0  0  0  0
 11 60  1  0  0  0  0
 12 14  1  0  0  0  0
 12 15  1  0  0  0  0
 12 35  1  0  0  0  0
 13 14  1  0  0  0  0
 13 16  1  0  0  0  0
 13 36  1  0  0  0  0
 14 37  1  0  0  0  0
 14 38  1  0  0  0  0
 15 39  1  0  0  0  0
 15 40  1  0  0  0  0
 17 20  1  0  0  0  0
 18 21  1  0  0  0  0
 18 23  1  0  0  0  0
 18 43  1  0  0  0  0
 20 44  1  0  0  0  0
 20 45  1  0  0  0  0
 21 22  1  0  0  0  0
 21 46  1  0  0  0  0
 21 47  1  0  0  0  0
 22 25  1  0  0  0  0
 22 26  2  0  0  0  0
 24 29  1  0  0  0  0
 24 30  1  0  0  0  0
 24 49  1  0  0  0  0
 25 27  1  0  0  0  0
 25 28  2  0  0  0  0
 26 50  1  0  0  0  0
 27 32  2  0  0  0  0
 28 33  1  0  0  0  0
 28 52  1  0  0  0  0
 29 53  1  0  0  0  0
 29 54  1  0  0  0  0
 29 55  1  0  0  0  0
 30 56  1  0  0  0  0
 30 57  1  0  0  0  0
 30 58  1  0  0  0  0
 31 62  1  0  0  0  0
 31 63  1  0  0  0  0
 31 64  1  0  0  0  0
 32 34  1  0  0  0  0
 32 61  1  0  0  0  0
 33 34  2  0  0  0  0
 33 65  1  0  0  0  0
 34 66  1  0  0  0  0
M  END
> <PUBCHEM_COMPOUND_CID>
7127944

> <PUBCHEM_CONFORMER_RMSD>
1.2

> <PUBCHEM_CONFORMER_DIVERSEORDER>
1
10
52
61
42
17
21
14
65
45
13
47
46
35
44
60
41
16
34
51
19
3
24
18
36
31
26
8
66
33
56
12
59
62
48
63
29
23
4
38
43
50
6
9
53
20
25
11
39
15
57
49
2
54
27
7
37
40
22
32
30
5
55
64
28
58

> <PUBCHEM_MMFF94_PARTIAL_CHARGES>
41
1 -0.46
10 0.03
11 -0.8
12 0.3
13 0.36
15 0.3
16 0.57
17 0.57
18 0.36
19 0.69
2 -0.57
20 0.29
21 0.18
22 -0.18
23 0.57
24 0.3
26 -0.3
27 -0.15
28 -0.15
3 -0.57
31 0.23
32 -0.15
33 -0.15
34 -0.15
4 -0.57
41 0.37
42 0.37
48 0.37
5 -0.57
50 0.15
51 0.27
52 0.15
59 0.37
6 -0.66
60 0.37
61 0.15
65 0.15
66 0.15
7 -0.73
8 -0.73
9 -0.73

> <PUBCHEM_EFFECTIVE_ROTOR_COUNT>
14

> <PUBCHEM_PHARMACOPHORE_FEATURES>
15
1 10 cation
1 10 donor
1 11 donor
1 2 acceptor
1 3 acceptor
1 31 hydrophobe
1 4 acceptor
1 5 acceptor
1 7 donor
1 8 donor
1 9 donor
3 24 29 30 hydrophobe
5 10 22 25 26 27 rings
5 6 12 13 14 15 rings
6 25 27 28 32 33 34 rings

> <PUBCHEM_HEAVY_ATOM_COUNT>
34

> <PUBCHEM_ATOM_DEF_STEREO_COUNT>
3

> <PUBCHEM_ATOM_UDEF_STEREO_COUNT>
0

> <PUBCHEM_BOND_DEF_STEREO_COUNT>
0

> <PUBCHEM_BOND_UDEF_STEREO_COUNT>
0

> <PUBCHEM_ISOTOPIC_ATOM_COUNT>
0

> <PUBCHEM_COMPONENT_COUNT>
1

> <PUBCHEM_CACTVS_TAUTO_COUNT>
12

> <PUBCHEM_CONFORMER_ID>
006CC38800000001

> <PUBCHEM_MMFF94_ENERGY>
65.8947

> <PUBCHEM_FEATURE_SELFOVERLAP>
76.265

> <PUBCHEM_SHAPE_FINGERPRINT>
10675989 125 17330542658489062271
13383661 66 18272086080443899783
13402501 40 18338242557395673018
1361 2 18341045315281675775
14289585 56 18263064574953523127
14415361 349 18199196260074322716
14725015 67 18190734233434015450
15484559 13 18261937618680423587
17349148 13 18271252706997558489
20028762 73 18201431515057207527
20642791 35 17615129889204193137
20764821 26 17687479961845721354
20775438 99 17693351740458793279
21857420 4 16690155179218183935
23559900 14 18190745430335134737
238918 7 18123455104277738450
3027735 51 18123472683056771360
3298306 158 18337389331702810179
340366 18 18263932205518140872
66674814 147 18054195951330272711

> <PUBCHEM_SHAPE_MULTIPOLES>
650.19
10.75
6.5
2.07
8.73
2.75
0.09
3.26
-3.48
-2.01
-3.98
0.02
0
0.03

> <PUBCHEM_SHAPE_SELFOVERLAP>
1348.821

> <PUBCHEM_SHAPE_VOLUME>
374.8

> <PUBCHEM_COORDINATE_TYPE>
2
5
10

$$$$
