45783539
  -OEChem-12032416203D

 59 62  0     1  0  0  0  0  0999 V2000
    1.0912    2.4963    1.7978 O   0  0  0  0  0  0  0  0  0  0  0  0
    4.1867   -4.7091   -0.7685 O   0  0  0  0  0  0  0  0  0  0  0  0
   -5.4257   -0.7083   -0.3893 O   0  0  0  0  0  0  0  0  0  0  0  0
   -8.1458   -0.5250   -1.0232 O   0  0  0  0  0  0  0  0  0  0  0  0
    3.4874    1.3997   -0.7638 N   0  0  1  0  0  0  0  0  0  0  0  0
    4.0546   -2.6508    0.3008 N   0  0  0  0  0  0  0  0  0  0  0  0
    0.5752    1.4417   -0.1097 N   0  0  0  0  0  0  0  0  0  0  0  0
   -0.2472    2.1021    1.9205 N   0  0  0  0  0  0  0  0  0  0  0  0
   -4.0308    0.4344    1.0710 N   0  0  0  0  0  0  0  0  0  0  0  0
    4.0464    0.2137   -0.1194 C   0  0  0  0  0  0  0  0  0  0  0  0
    2.9323    2.3759    0.1949 C   0  0  1  0  0  0  0  0  0  0  0  0
    4.4864    2.1190   -1.5544 C   0  0  0  0  0  0  0  0  0  0  0  0
    3.0833    3.7397   -0.5040 C   0  0  0  0  0  0  0  0  0  0  0  0
    4.5918   -0.7531   -1.1784 C   0  0  0  0  0  0  0  0  0  0  0  0
    2.9747   -0.4759    0.7348 C   0  0  0  0  0  0  0  0  0  0  0  0
    3.7871    3.4369   -1.8192 C   0  0  0  0  0  0  0  0  0  0  0  0
    5.0944   -2.0427   -0.5318 C   0  0  0  0  0  0  0  0  0  0  0  0
    3.5091   -1.7724    1.3433 C   0  0  0  0  0  0  0  0  0  0  0  0
    1.4987    2.0689    0.5740 C   0  0  0  0  0  0  0  0  0  0  0  0
    3.6873   -3.9798    0.0921 C   0  0  0  0  0  0  0  0  0  0  0  0
    2.6075   -4.5311    0.9887 C   0  0  0  0  0  0  0  0  0  0  0  0
   -0.4779    1.4868    0.7569 C   0  0  0  0  0  0  0  0  0  0  0  0
   -1.7489    0.9084    0.4286 C   0  0  0  0  0  0  0  0  0  0  0  0
   -1.9539    0.2768   -0.7932 C   0  0  0  0  0  0  0  0  0  0  0  0
   -2.8099    0.9600    1.3180 C   0  0  0  0  0  0  0  0  0  0  0  0
   -3.1962   -0.2760   -1.0838 C   0  0  0  0  0  0  0  0  0  0  0  0
   -4.1926   -0.1715   -0.1267 C   0  0  0  0  0  0  0  0  0  0  0  0
   -6.4121   -0.5731    0.6270 C   0  0  0  0  0  0  0  0  0  0  0  0
   -7.7060   -1.2025    0.1477 C   0  0  0  0  0  0  0  0  0  0  0  0
   -9.3470   -1.0890   -1.5307 C   0  0  0  0  0  0  0  0  0  0  0  0
    4.8766    0.5025    0.5416 H   0  0  0  0  0  0  0  0  0  0  0  0
    3.5389    2.4069    1.1114 H   0  0  0  0  0  0  0  0  0  0  0  0
    4.7210    1.6258   -2.5024 H   0  0  0  0  0  0  0  0  0  0  0  0
    5.4145    2.2884   -0.9939 H   0  0  0  0  0  0  0  0  0  0  0  0
    3.7134    4.3987    0.1058 H   0  0  0  0  0  0  0  0  0  0  0  0
    2.1324    4.2539   -0.6810 H   0  0  0  0  0  0  0  0  0  0  0  0
    3.8050   -0.9982   -1.9042 H   0  0  0  0  0  0  0  0  0  0  0  0
    5.4277   -0.3158   -1.7350 H   0  0  0  0  0  0  0  0  0  0  0  0
    2.6644    0.1391    1.5834 H   0  0  0  0  0  0  0  0  0  0  0  0
    2.0951   -0.7194    0.1260 H   0  0  0  0  0  0  0  0  0  0  0  0
    3.0462    3.3238   -2.6204 H   0  0  0  0  0  0  0  0  0  0  0  0
    4.4823    4.2306   -2.1082 H   0  0  0  0  0  0  0  0  0  0  0  0
    5.4284   -2.7383   -1.3082 H   0  0  0  0  0  0  0  0  0  0  0  0
    5.9548   -1.8379    0.1164 H   0  0  0  0  0  0  0  0  0  0  0  0
    4.3258   -1.5578    2.0432 H   0  0  0  0  0  0  0  0  0  0  0  0
    2.7161   -2.2585    1.9143 H   0  0  0  0  0  0  0  0  0  0  0  0
    2.4070   -5.5725    0.7187 H   0  0  0  0  0  0  0  0  0  0  0  0
    2.9329   -4.5063    2.0320 H   0  0  0  0  0  0  0  0  0  0  0  0
    1.6827   -3.9622    0.8604 H   0  0  0  0  0  0  0  0  0  0  0  0
   -1.1647    0.2001   -1.5366 H   0  0  0  0  0  0  0  0  0  0  0  0
   -2.7324    1.4341    2.2920 H   0  0  0  0  0  0  0  0  0  0  0  0
   -3.3726   -0.7721   -2.0320 H   0  0  0  0  0  0  0  0  0  0  0  0
   -6.5858    0.4917    0.8261 H   0  0  0  0  0  0  0  0  0  0  0  0
   -6.0835   -1.0761    1.5442 H   0  0  0  0  0  0  0  0  0  0  0  0
   -7.5361   -2.2578   -0.0956 H   0  0  0  0  0  0  0  0  0  0  0  0
   -8.4703   -1.1284    0.9290 H   0  0  0  0  0  0  0  0  0  0  0  0
   -9.1916   -2.1354   -1.8106 H   0  0  0  0  0  0  0  0  0  0  0  0
  -10.1499   -1.0115   -0.7911 H   0  0  0  0  0  0  0  0  0  0  0  0
   -9.6398   -0.5294   -2.4231 H   0  0  0  0  0  0  0  0  0  0  0  0
  1  8  1  0  0  0  0
  1 19  1  0  0  0  0
  2 20  2  0  0  0  0
  3 27  1  0  0  0  0
  3 28  1  0  0  0  0
  4 29  1  0  0  0  0
  4 30  1  0  0  0  0
  5 10  1  0  0  0  0
  5 11  1  0  0  0  0
  5 12  1  0  0  0  0
  6 17  1  0  0  0  0
  6 18  1  0  0  0  0
  6 20  1  0  0  0  0
  7 19  2  0  0  0  0
  7 22  1  0  0  0  0
  8 22  2  0  0  0  0
  9 25  1  0  0  0  0
  9 27  2  0  0  0  0
 10 14  1  0  0  0  0
 10 15  1  0  0  0  0
 10 31  1  0  0  0  0
 11 13  1  0  0  0  0
 11 19  1  0  0  0  0
 11 32  1  0  0  0  0
 12 16  1  0  0  0  0
 12 33  1  0  0  0  0
 12 34  1  0  0  0  0
 13 16  1  0  0  0  0
 13 35  1  0  0  0  0
 13 36  1  0  0  0  0
 14 17  1  0  0  0  0
 14 37  1  0  0  0  0
 14 38  1  0  0  0  0
 15 18  1  0  0  0  0
 15 39  1  0  0  0  0
 15 40  1  0  0  0  0
 16 41  1  0  0  0  0
 16 42  1  0  0  0  0
 17 43  1  0  0  0  0
 17 44  1  0  0  0  0
 18 45  1  0  0  0  0
 18 46  1  0  0  0  0
 20 21  1  0  0  0  0
 21 47  1  0  0  0  0
 21 48  1  0  0  0  0
 21 49  1  0  0  0  0
 22 23  1  0  0  0  0
 23 24  1  0  0  0  0
 23 25  2  0  0  0  0
 24 26  2  0  0  0  0
 24 50  1  0  0  0  0
 25 51  1  0  0  0  0
 26 27  1  0  0  0  0
 26 52  1  0  0  0  0
 28 29  1  0  0  0  0
 28 53  1  0  0  0  0
 28 54  1  0  0  0  0
 29 55  1  0  0  0  0
 29 56  1  0  0  0  0
 30 57  1  0  0  0  0
 30 58  1  0  0  0  0
 30 59  1  0  0  0  0
M  END
> <PUBCHEM_COMPOUND_CID>
45783539

> <PUBCHEM_CONFORMER_RMSD>
1

> <PUBCHEM_CONFORMER_DIVERSEORDER>
1
83
31
56
14
67
51
73
35
44
79
75
52
12
87
41
74
88
76
47
11
93
82
78
62
61
81
38
86
48
71
85
91
9
70
27
40
92
6
45
68
18
29
3
16
89
58
24
30
23
37
60
33
59
69
66
5
21
64
42
72
55
46
17
50
7
36
94
26
28
63
19
53
39
57
49
54
32
90
84
8
43
13
22
77
4
2
80
20
34
15
65
10
25

> <PUBCHEM_MMFF94_PARTIAL_CHARGES>
29
1 -0.02
10 0.27
11 0.45
12 0.27
17 0.3
18 0.3
19 0.3
2 -0.57
20 0.57
21 0.06
22 0.46
23 0.05
24 -0.15
25 0.16
26 -0.15
27 0.39
28 0.28
29 0.28
3 -0.36
30 0.28
4 -0.56
5 -0.81
50 0.15
51 0.15
52 0.15
6 -0.66
7 -0.57
8 -0.41
9 -0.62

> <PUBCHEM_EFFECTIVE_ROTOR_COUNT>
10.2

> <PUBCHEM_PHARMACOPHORE_FEATURES>
8
1 2 acceptor
1 4 acceptor
1 5 cation
3 7 8 22 cation
5 1 7 8 19 22 rings
5 5 11 12 13 16 rings
6 6 10 14 15 17 18 rings
6 9 23 24 25 26 27 rings

> <PUBCHEM_HEAVY_ATOM_COUNT>
30

> <PUBCHEM_ATOM_DEF_STEREO_COUNT>
1

> <PUBCHEM_ATOM_UDEF_STEREO_COUNT>
0

> <PUBCHEM_BOND_DEF_STEREO_COUNT>
0

> <PUBCHEM_BOND_UDEF_STEREO_COUNT>
0

> <PUBCHEM_ISOTOPIC_ATOM_COUNT>
0

> <PUBCHEM_COMPONENT_COUNT>
1

> <PUBCHEM_CACTVS_TAUTO_COUNT>
1

> <PUBCHEM_CONFORMER_ID>
02BA99F300000001

> <PUBCHEM_MMFF94_ENERGY>
61.0883

> <PUBCHEM_FEATURE_SELFOVERLAP>
40.598

> <PUBCHEM_SHAPE_FINGERPRINT>
10448021 39 18412826854459719286
10622 236 18197215854105286227
11069576 57 18412262822733566102
11181472 205 18408890621162650589
11227150 75 16736340878419203754
117089 54 18055644910225290646
12107183 9 17981338798007747017
12838863 1 18188482455618127402
13533116 47 18412545431518222169
13782708 43 18341887507720045917
14675020 138 18197768002870424104
14863182 85 18411974798375119952
15152005 1 17983013353948656095
15183329 4 17775012332073874229
15467298 65 18200020898028026623
15475509 35 18202557389056563779
17134984 74 18337394958041474107
17492 89 18195811773841339994
19319366 153 18269557298737798060
20587220 46 17775284967095949174
20775530 9 18123462783626626190
21133410 171 16954478487864369098
21304303 94 18334857250945101658
23522609 53 17985298315953335345
255183 451 18198069075609021334
3004659 81 18412830183196601624
3014965 18 18412259550237492021
345986 75 17846780667657202897
34797466 226 17168142399254722261
3534868 343 18335995236875019869
397830 11 10735869617598187237
46194498 28 17967529082127999308
5223283 242 17532923901283340677
59682541 52 18334572456491297013
6025842 7 18261959647541155012
70251023 43 18335703806353384104
7970288 3 18269557139534539506
9831232 110 18261947467272515727

> <PUBCHEM_SHAPE_MULTIPOLES>
569
18.91
5.1
1.53
55.87
4.56
0.06
10.59
-8.43
-12.52
-0.2
0.09
-0.64
-2.02

> <PUBCHEM_SHAPE_SELFOVERLAP>
1200.148

> <PUBCHEM_SHAPE_VOLUME>
319.7

> <PUBCHEM_COORDINATE_TYPE>
2
5
10

$$$$
