26762299
  -OEChem-12032416183D

 67 70  0     1  0  0  0  0  0999 V2000
    1.4548   -5.1873    0.8857 O   0  0  0  0  0  0  0  0  0  0  0  0
    4.3827   -0.9962   -2.6465 O   0  0  0  0  0  0  0  0  0  0  0  0
   -3.6618    1.3450    1.0061 O   0  0  0  0  0  0  0  0  0  0  0  0
    0.0475   -2.0944   -0.0943 N   0  0  2  0  0  0  0  0  0  0  0  0
   -0.5211   -4.2153    1.5354 N   0  0  0  0  0  0  0  0  0  0  0  0
    2.7545   -0.7081   -1.0203 N   0  0  0  0  0  0  0  0  0  0  0  0
   -5.5677    0.0766    1.3908 N   0  0  0  0  0  0  0  0  0  0  0  0
    7.3879    3.1752    1.1254 N   0  0  0  0  0  0  0  0  0  0  0  0
    0.5966   -3.3997   -0.4720 C   0  0  1  0  0  0  0  0  0  0  0  0
   -1.3686   -2.2262    0.2529 C   0  0  1  0  0  0  0  0  0  0  0  0
    1.7924   -1.6252   -1.5794 C   0  0  1  0  0  0  0  0  0  0  0  0
    1.9736   -3.0356   -1.0058 C   0  0  0  0  0  0  0  0  0  0  0  0
    0.3551   -1.2266   -1.2307 C   0  0  0  0  0  0  0  0  0  0  0  0
   -1.4355   -3.0832    1.5249 C   0  0  0  0  0  0  0  0  0  0  0  0
    0.5901   -4.3277    0.7210 C   0  0  0  0  0  0  0  0  0  0  0  0
   -2.0519   -0.8804    0.5058 C   0  0  0  0  0  0  0  0  0  0  0  0
   -3.5239   -1.0668    0.8454 C   0  0  0  0  0  0  0  0  0  0  0  0
    3.9871   -0.4681   -1.6107 C   0  0  0  0  0  0  0  0  0  0  0  0
   -4.2273    0.2575    1.0822 C   0  0  0  0  0  0  0  0  0  0  0  0
    4.8757    0.4844   -0.8964 C   0  0  0  0  0  0  0  0  0  0  0  0
    6.2600    0.3863   -1.0376 C   0  0  0  0  0  0  0  0  0  0  0  0
    4.3261    1.4761   -0.0839 C   0  0  0  0  0  0  0  0  0  0  0  0
   -6.4530    1.1848    1.6606 C   0  0  0  0  0  0  0  0  0  0  0  0
    7.0946    1.2796   -0.3662 C   0  0  0  0  0  0  0  0  0  0  0  0
    5.1607    2.3695    0.5875 C   0  0  0  0  0  0  0  0  0  0  0  0
    6.5449    2.2712    0.4465 C   0  0  0  0  0  0  0  0  0  0  0  0
   -7.1188    1.6886    0.4127 C   0  0  0  0  0  0  0  0  0  0  0  0
   -6.5160    2.6944   -0.3425 C   0  0  0  0  0  0  0  0  0  0  0  0
   -8.3406    1.1506    0.0089 C   0  0  0  0  0  0  0  0  0  0  0  0
    6.8255    4.2137    1.9660 C   0  0  0  0  0  0  0  0  0  0  0  0
    8.8276    3.0827    0.9858 C   0  0  0  0  0  0  0  0  0  0  0  0
   -7.1350    3.1624   -1.5017 C   0  0  0  0  0  0  0  0  0  0  0  0
   -8.9597    1.6182   -1.1503 C   0  0  0  0  0  0  0  0  0  0  0  0
   -8.3568    2.6243   -1.9055 C   0  0  0  0  0  0  0  0  0  0  0  0
    0.0059   -3.8714   -1.2704 H   0  0  0  0  0  0  0  0  0  0  0  0
   -1.9007   -2.7428   -0.5584 H   0  0  0  0  0  0  0  0  0  0  0  0
    1.9191   -1.6416   -2.6684 H   0  0  0  0  0  0  0  0  0  0  0  0
    2.2863   -3.7383   -1.7865 H   0  0  0  0  0  0  0  0  0  0  0  0
    2.7374   -3.0610   -0.2183 H   0  0  0  0  0  0  0  0  0  0  0  0
   -0.3055   -1.4453   -2.0796 H   0  0  0  0  0  0  0  0  0  0  0  0
    0.2681   -0.1641   -0.9812 H   0  0  0  0  0  0  0  0  0  0  0  0
   -1.1870   -2.4923    2.4147 H   0  0  0  0  0  0  0  0  0  0  0  0
   -2.4358   -3.5044    1.6673 H   0  0  0  0  0  0  0  0  0  0  0  0
   -1.9837   -0.2461   -0.3866 H   0  0  0  0  0  0  0  0  0  0  0  0
   -1.5448   -0.3362    1.3135 H   0  0  0  0  0  0  0  0  0  0  0  0
   -0.6023   -4.8706    2.3068 H   0  0  0  0  0  0  0  0  0  0  0  0
    2.5410   -0.3201   -0.1073 H   0  0  0  0  0  0  0  0  0  0  0  0
   -4.0392   -1.5887    0.0304 H   0  0  0  0  0  0  0  0  0  0  0  0
   -3.6485   -1.6553    1.7607 H   0  0  0  0  0  0  0  0  0  0  0  0
   -5.9547   -0.8625    1.4130 H   0  0  0  0  0  0  0  0  0  0  0  0
    6.7069   -0.3826   -1.6624 H   0  0  0  0  0  0  0  0  0  0  0  0
    3.2536    1.6053    0.0285 H   0  0  0  0  0  0  0  0  0  0  0  0
   -5.8936    1.9925    2.1475 H   0  0  0  0  0  0  0  0  0  0  0  0
   -7.2018    0.8390    2.3823 H   0  0  0  0  0  0  0  0  0  0  0  0
    8.1643    1.1615   -0.5076 H   0  0  0  0  0  0  0  0  0  0  0  0
    4.6846    3.1269    1.2023 H   0  0  0  0  0  0  0  0  0  0  0  0
   -5.5664    3.1259   -0.0385 H   0  0  0  0  0  0  0  0  0  0  0  0
   -8.8196    0.3653    0.5877 H   0  0  0  0  0  0  0  0  0  0  0  0
    6.2470    3.7848    2.7918 H   0  0  0  0  0  0  0  0  0  0  0  0
    7.6064    4.8325    2.4220 H   0  0  0  0  0  0  0  0  0  0  0  0
    6.1903    4.8922    1.3855 H   0  0  0  0  0  0  0  0  0  0  0  0
    9.1988    2.1160    1.3439 H   0  0  0  0  0  0  0  0  0  0  0  0
    9.1346    3.2313   -0.0555 H   0  0  0  0  0  0  0  0  0  0  0  0
    9.3417    3.8505    1.5746 H   0  0  0  0  0  0  0  0  0  0  0  0
   -6.6661    3.9462   -2.0893 H   0  0  0  0  0  0  0  0  0  0  0  0
   -9.9108    1.1991   -1.4652 H   0  0  0  0  0  0  0  0  0  0  0  0
   -8.8388    2.9886   -2.8080 H   0  0  0  0  0  0  0  0  0  0  0  0
  1 15  2  0  0  0  0
  2 18  2  0  0  0  0
  3 19  2  0  0  0  0
  4  9  1  0  0  0  0
  4 10  1  0  0  0  0
  4 13  1  0  0  0  0
  5 14  1  0  0  0  0
  5 15  1  0  0  0  0
  5 46  1  0  0  0  0
  6 11  1  0  0  0  0
  6 18  1  0  0  0  0
  6 47  1  0  0  0  0
  7 19  1  0  0  0  0
  7 23  1  0  0  0  0
  7 50  1  0  0  0  0
  8 26  1  0  0  0  0
  8 30  1  0  0  0  0
  8 31  1  0  0  0  0
  9 12  1  0  0  0  0
  9 15  1  0  0  0  0
  9 35  1  0  0  0  0
 10 14  1  0  0  0  0
 10 16  1  0  0  0  0
 10 36  1  0  0  0  0
 11 12  1  0  0  0  0
 11 13  1  0  0  0  0
 11 37  1  0  0  0  0
 12 38  1  0  0  0  0
 12 39  1  0  0  0  0
 13 40  1  0  0  0  0
 13 41  1  0  0  0  0
 14 42  1  0  0  0  0
 14 43  1  0  0  0  0
 16 17  1  0  0  0  0
 16 44  1  0  0  0  0
 16 45  1  0  0  0  0
 17 19  1  0  0  0  0
 17 48  1  0  0  0  0
 17 49  1  0  0  0  0
 18 20  1  0  0  0  0
 20 21  2  0  0  0  0
 20 22  1  0  0  0  0
 21 24  1  0  0  0  0
 21 51  1  0  0  0  0
 22 25  2  0  0  0  0
 22 52  1  0  0  0  0
 23 27  1  0  0  0  0
 23 53  1  0  0  0  0
 23 54  1  0  0  0  0
 24 26  2  0  0  0  0
 24 55  1  0  0  0  0
 25 26  1  0  0  0  0
 25 56  1  0  0  0  0
 27 28  2  0  0  0  0
 27 29  1  0  0  0  0
 28 32  1  0  0  0  0
 28 57  1  0  0  0  0
 29 33  2  0  0  0  0
 29 58  1  0  0  0  0
 30 59  1  0  0  0  0
 30 60  1  0  0  0  0
 30 61  1  0  0  0  0
 31 62  1  0  0  0  0
 31 63  1  0  0  0  0
 31 64  1  0  0  0  0
 32 34  2  0  0  0  0
 32 65  1  0  0  0  0
 33 34  1  0  0  0  0
 33 66  1  0  0  0  0
 34 67  1  0  0  0  0
M  END
> <PUBCHEM_COMPOUND_CID>
26762299

> <PUBCHEM_CONFORMER_RMSD>
1.2

> <PUBCHEM_CONFORMER_DIVERSEORDER>
1
45
15
20
24
11
22
41
26
23
37
60
44
65
71
13
59
8
14
27
31
10
70
34
46
74
58
48
28
36
51
68
57
30
52
3
2
12
73
43
33
77
47
32
72
35
61
55
50
5
75
78
21
7
63
76
79
53
6
66
67
56
54
18
25
69
42
16
64
39
29
19
4
38
9
62
40
17
49

> <PUBCHEM_MMFF94_PARTIAL_CHARGES>
44
1 -0.57
10 0.27
11 0.3
13 0.27
14 0.3
15 0.57
17 0.06
18 0.54
19 0.57
2 -0.57
20 0.09
21 -0.15
22 -0.15
23 0.44
24 -0.15
25 -0.15
26 0.1
27 -0.14
28 -0.15
29 -0.15
3 -0.57
30 0.37
31 0.37
32 -0.15
33 -0.15
34 -0.15
4 -0.81
46 0.37
47 0.37
5 -0.73
50 0.37
51 0.15
52 0.15
55 0.15
56 0.15
57 0.15
58 0.15
6 -0.73
65 0.15
66 0.15
67 0.15
7 -0.73
8 -0.84
9 0.33

> <PUBCHEM_EFFECTIVE_ROTOR_COUNT>
11.2

> <PUBCHEM_PHARMACOPHORE_FEATURES>
12
1 1 acceptor
1 2 acceptor
1 3 acceptor
1 4 cation
1 5 donor
1 6 donor
1 7 donor
1 8 cation
5 4 9 11 12 13 rings
6 20 21 22 24 25 26 rings
6 27 28 29 32 33 34 rings
6 4 5 9 10 14 15 rings

> <PUBCHEM_HEAVY_ATOM_COUNT>
34

> <PUBCHEM_ATOM_DEF_STEREO_COUNT>
3

> <PUBCHEM_ATOM_UDEF_STEREO_COUNT>
0

> <PUBCHEM_BOND_DEF_STEREO_COUNT>
0

> <PUBCHEM_BOND_UDEF_STEREO_COUNT>
0

> <PUBCHEM_ISOTOPIC_ATOM_COUNT>
0

> <PUBCHEM_COMPONENT_COUNT>
1

> <PUBCHEM_CACTVS_TAUTO_COUNT>
12

> <PUBCHEM_CONFORMER_ID>
01985C3B00000001

> <PUBCHEM_MMFF94_ENERGY>
96.2031

> <PUBCHEM_FEATURE_SELFOVERLAP>
60.988

> <PUBCHEM_SHAPE_FINGERPRINT>
10533779 1 18201713007704859096
10904742 38 18342181123978530264
11135609 127 18191580849351290815
11297010 23 17988089894218483846
11476731 99 17827910729734810045
11607047 74 18266737991742371955
11621639 179 18337685135698301654
11621639 183 17977947110211569576
11693224 71 18341887506860410440
12013929 29 17838905833206516049
12925494 130 18409456907820292938
13008946 170 18195800774114402523
13008946 282 18264201405425643842
13785724 45 9943515311467950611
14415360 78 18268980041837506429
15289351 153 18268714922549322490
15350500 185 18411135844405219081
16120349 189 18335708268481052407
19053607 189 17822591429458380343
20501277 180 18194116314771330053
20737093 207 12462474409849152188
21033648 29 18334296500426106670
23522609 53 17098349889954975604
354706 109 18341882031215536680
3862424 121 9943526336284658640
3918712 181 18413387626986457097
393628 179 18410853270112514165
3991529 202 11746930967778950421
4112364 45 18114733855065454482
4408954 64 13190336820866077318
44249763 50 18260554420684426023
5372103 7 18272087209983673749
57307002 19 18260265253004998509
57634706 306 18342455975952256488
6677587 24 17916296139614873615
6695519 79 18046100136532616451
9555976 147 14852475215192773753

> <PUBCHEM_SHAPE_MULTIPOLES>
657.19
28.44
6.26
1.9
20.03
4.83
-0.35
-47.8
-1.42
-4.95
2.38
0.05
-0.18
6.48

> <PUBCHEM_SHAPE_SELFOVERLAP>
1393.863

> <PUBCHEM_SHAPE_VOLUME>
365.6

> <PUBCHEM_COORDINATE_TYPE>
2
5
10

$$$$
