26742973
  -OEChem-12032416193D

 58 60  0     1  0  0  0  0  0999 V2000
   -5.7405   -0.1392    1.2807 F   0  0  0  0  0  0  0  0  0  0  0  0
    1.1918    3.6883    0.7573 O   0  0  0  0  0  0  0  0  0  0  0  0
    0.3649   -1.3017   -1.6899 O   0  0  0  0  0  0  0  0  0  0  0  0
    5.6269   -1.3198   -0.3221 N   0  0  0  0  0  0  0  0  0  0  0  0
   -0.1532   -2.7952    0.0136 N   0  0  0  0  0  0  0  0  0  0  0  0
    2.3813    3.0622    1.1096 N   0  0  0  0  0  0  0  0  0  0  0  0
    2.7913   -0.5292   -0.5246 C   0  0  1  0  0  0  0  0  0  0  0  0
    3.7901    0.1750    0.4245 C   0  0  2  0  0  0  0  0  0  0  0  0
    3.5701   -1.1757   -1.6825 C   0  0  0  0  0  0  0  0  0  0  0  0
    4.9355   -0.7629    0.8411 C   0  0  0  0  0  0  0  0  0  0  0  0
    3.1187    0.7832    1.6566 C   0  0  0  0  0  0  0  0  0  0  0  0
    4.7160   -2.0600   -1.1927 C   0  0  0  0  0  0  0  0  0  0  0  0
    1.8912   -1.5585    0.1693 C   0  0  0  0  0  0  0  0  0  0  0  0
    2.0604    1.7751    1.2692 C   0  0  0  0  0  0  0  0  0  0  0  0
    0.6345   -1.8476   -0.6236 C   0  0  0  0  0  0  0  0  0  0  0  0
    0.6962    1.5320    1.0334 C   0  0  0  0  0  0  0  0  0  0  0  0
    0.1957    2.7668    0.7152 C   0  0  0  0  0  0  0  0  0  0  0  0
   -1.1390    3.2607    0.3562 C   0  0  0  0  0  0  0  0  0  0  0  0
   -1.4136   -3.2604   -0.5185 C   0  0  0  0  0  0  0  0  0  0  0  0
   -1.5311    2.9388   -1.1036 C   0  0  0  0  0  0  0  0  0  0  0  0
   -2.5674   -2.4281   -0.0388 C   0  0  0  0  0  0  0  0  0  0  0  0
   -2.9034    3.4970   -1.4799 C   0  0  0  0  0  0  0  0  0  0  0  0
   -3.2465    3.2013   -2.9313 C   0  0  0  0  0  0  0  0  0  0  0  0
   -3.2351   -2.7731    1.1363 C   0  0  0  0  0  0  0  0  0  0  0  0
   -2.9718   -1.3097   -0.7680 C   0  0  0  0  0  0  0  0  0  0  0  0
   -4.3071   -2.0003    1.5820 C   0  0  0  0  0  0  0  0  0  0  0  0
   -4.0439   -0.5369   -0.3223 C   0  0  0  0  0  0  0  0  0  0  0  0
   -4.7116   -0.8821    0.8527 C   0  0  0  0  0  0  0  0  0  0  0  0
    2.1596    0.2443   -0.9795 H   0  0  0  0  0  0  0  0  0  0  0  0
    4.2437    1.0000   -0.1470 H   0  0  0  0  0  0  0  0  0  0  0  0
    3.9842   -0.3796   -2.3162 H   0  0  0  0  0  0  0  0  0  0  0  0
    2.9069   -1.7637   -2.3266 H   0  0  0  0  0  0  0  0  0  0  0  0
    5.6657   -0.2034    1.4373 H   0  0  0  0  0  0  0  0  0  0  0  0
    4.5619   -1.5740    1.4783 H   0  0  0  0  0  0  0  0  0  0  0  0
    2.7031    0.0229    2.3262 H   0  0  0  0  0  0  0  0  0  0  0  0
    3.8786    1.3040    2.2559 H   0  0  0  0  0  0  0  0  0  0  0  0
    4.3396   -2.9517   -0.6796 H   0  0  0  0  0  0  0  0  0  0  0  0
    5.2804   -2.4171   -2.0615 H   0  0  0  0  0  0  0  0  0  0  0  0
    2.4180   -2.5042    0.3354 H   0  0  0  0  0  0  0  0  0  0  0  0
    1.5521   -1.2250    1.1519 H   0  0  0  0  0  0  0  0  0  0  0  0
    6.3715   -1.9407   -0.0065 H   0  0  0  0  0  0  0  0  0  0  0  0
    0.1401    0.6096    1.0951 H   0  0  0  0  0  0  0  0  0  0  0  0
    0.1505   -3.1750    0.9058 H   0  0  0  0  0  0  0  0  0  0  0  0
   -1.8819    2.8181    1.0313 H   0  0  0  0  0  0  0  0  0  0  0  0
   -1.1890    4.3458    0.5103 H   0  0  0  0  0  0  0  0  0  0  0  0
   -1.5369   -4.3043   -0.2086 H   0  0  0  0  0  0  0  0  0  0  0  0
   -1.3703   -3.2567   -1.6141 H   0  0  0  0  0  0  0  0  0  0  0  0
   -1.5234    1.8513   -1.2521 H   0  0  0  0  0  0  0  0  0  0  0  0
   -0.7710    3.3520   -1.7793 H   0  0  0  0  0  0  0  0  0  0  0  0
   -3.6712    3.0623   -0.8297 H   0  0  0  0  0  0  0  0  0  0  0  0
   -2.9194    4.5814   -1.3210 H   0  0  0  0  0  0  0  0  0  0  0  0
   -2.5136    3.6522   -3.6079 H   0  0  0  0  0  0  0  0  0  0  0  0
   -4.2322    3.6079   -3.1782 H   0  0  0  0  0  0  0  0  0  0  0  0
   -3.2678    2.1225   -3.1166 H   0  0  0  0  0  0  0  0  0  0  0  0
   -2.9283   -3.6409    1.7143 H   0  0  0  0  0  0  0  0  0  0  0  0
   -2.4625   -1.0292   -1.6859 H   0  0  0  0  0  0  0  0  0  0  0  0
   -4.8269   -2.2683    2.4971 H   0  0  0  0  0  0  0  0  0  0  0  0
   -4.3585    0.3340   -0.8897 H   0  0  0  0  0  0  0  0  0  0  0  0
  1 28  1  0  0  0  0
  2  6  1  0  0  0  0
  2 17  1  0  0  0  0
  3 15  2  0  0  0  0
  4 10  1  0  0  0  0
  4 12  1  0  0  0  0
  4 41  1  0  0  0  0
  5 15  1  0  0  0  0
  5 19  1  0  0  0  0
  5 43  1  0  0  0  0
  6 14  2  0  0  0  0
  7  8  1  0  0  0  0
  7  9  1  0  0  0  0
  7 13  1  0  0  0  0
  7 29  1  0  0  0  0
  8 10  1  0  0  0  0
  8 11  1  0  0  0  0
  8 30  1  0  0  0  0
  9 12  1  0  0  0  0
  9 31  1  0  0  0  0
  9 32  1  0  0  0  0
 10 33  1  0  0  0  0
 10 34  1  0  0  0  0
 11 14  1  0  0  0  0
 11 35  1  0  0  0  0
 11 36  1  0  0  0  0
 12 37  1  0  0  0  0
 12 38  1  0  0  0  0
 13 15  1  0  0  0  0
 13 39  1  0  0  0  0
 13 40  1  0  0  0  0
 14 16  1  0  0  0  0
 16 17  2  0  0  0  0
 16 42  1  0  0  0  0
 17 18  1  0  0  0  0
 18 20  1  0  0  0  0
 18 44  1  0  0  0  0
 18 45  1  0  0  0  0
 19 21  1  0  0  0  0
 19 46  1  0  0  0  0
 19 47  1  0  0  0  0
 20 22  1  0  0  0  0
 20 48  1  0  0  0  0
 20 49  1  0  0  0  0
 21 24  2  0  0  0  0
 21 25  1  0  0  0  0
 22 23  1  0  0  0  0
 22 50  1  0  0  0  0
 22 51  1  0  0  0  0
 23 52  1  0  0  0  0
 23 53  1  0  0  0  0
 23 54  1  0  0  0  0
 24 26  1  0  0  0  0
 24 55  1  0  0  0  0
 25 27  2  0  0  0  0
 25 56  1  0  0  0  0
 26 28  2  0  0  0  0
 26 57  1  0  0  0  0
 27 28  1  0  0  0  0
 27 58  1  0  0  0  0
M  END
> <PUBCHEM_COMPOUND_CID>
26742973

> <PUBCHEM_CONFORMER_RMSD>
1.2

> <PUBCHEM_CONFORMER_DIVERSEORDER>
1
159
70
25
114
107
117
36
39
89
43
103
86
91
7
122
55
138
62
134
76
99
44
119
150
24
120
5
141
127
87
64
32
160
81
90
47
149
2
77
13
66
116
37
22
72
130
95
17
29
106
30
4
158
69
156
38
57
111
8
54
92
33
80
118
20
145
144
113
46
53
71
84
147
79
74
133
98
10
73
56
9
88
140
154
136
58
59
26
112
129
61
153
68
110
83
34
151
75
157
102
146
126
42
11
48
18
78
161
21
142
50
97
143
132
52
27
19
104
131
65
96
12
82
124
60
93
15
67
16
108
51
45
137
121
94
148
139
3
135
85
123
41
155
49
35
23
105
115
40
101
28
31
109
14
6
128
63
125
152
100

> <PUBCHEM_MMFF94_PARTIAL_CHARGES>
29
1 -0.19
10 0.27
11 0.18
12 0.27
13 0.06
14 0.11
15 0.57
16 -0.15
17 -0.04
18 0.18
19 0.44
2 -0.02
21 -0.14
24 -0.15
25 -0.15
26 -0.15
27 -0.15
28 0.19
3 -0.57
4 -0.9
41 0.36
42 0.15
43 0.37
5 -0.73
55 0.15
56 0.15
57 0.15
58 0.15
6 -0.41

> <PUBCHEM_EFFECTIVE_ROTOR_COUNT>
11.2

> <PUBCHEM_PHARMACOPHORE_FEATURES>
9
1 23 hydrophobe
1 3 acceptor
1 4 cation
1 4 donor
1 5 donor
1 6 acceptor
5 2 6 14 16 17 rings
6 21 24 25 26 27 28 rings
6 4 7 8 9 10 12 rings

> <PUBCHEM_HEAVY_ATOM_COUNT>
28

> <PUBCHEM_ATOM_DEF_STEREO_COUNT>
2

> <PUBCHEM_ATOM_UDEF_STEREO_COUNT>
0

> <PUBCHEM_BOND_DEF_STEREO_COUNT>
0

> <PUBCHEM_BOND_UDEF_STEREO_COUNT>
0

> <PUBCHEM_ISOTOPIC_ATOM_COUNT>
0

> <PUBCHEM_COMPONENT_COUNT>
1

> <PUBCHEM_CACTVS_TAUTO_COUNT>
2

> <PUBCHEM_CONFORMER_ID>
019810BD00000001

> <PUBCHEM_MMFF94_ENERGY>
32.1029

> <PUBCHEM_FEATURE_SELFOVERLAP>
45.671

> <PUBCHEM_SHAPE_FINGERPRINT>
10688039 33 18334017223903003654
108634 29 18128246784467271662
11421498 54 17748830708809756882
11513181 2 17630337560428370527
12293681 25 16841089135341911950
12422481 6 17983269789829247544
12633257 1 18341891952178111011
12645989 146 18202001023130732711
12788726 201 18337684031654575802
13402501 40 18341049623508218589
150020 26 17980492483391621059
1601671 61 18057047028679438760
16067689 391 17125647103527581254
20764821 26 18268140968773800201
22182313 1 18200579346564570368
25223398 141 18187365372613855156
3052486 1 18336259025644675728
4409770 3 18338234838843576527
469060 322 17970088680983857557
508706 21 18336253579531238021
6287921 2 17689444106119456715

> <PUBCHEM_SHAPE_MULTIPOLES>
542.27
10.4
5.31
1.88
1.42
3.99
-0.73
-5.15
0.76
-3.9
-0.83
-0.75
1.03
4.14

> <PUBCHEM_SHAPE_SELFOVERLAP>
1123.763

> <PUBCHEM_SHAPE_VOLUME>
309.7

> <PUBCHEM_COORDINATE_TYPE>
2
5
10

$$$$
