7144182
  -OEChem-12032416113D

 54 58  0     1  0  0  0  0  0999 V2000
    0.2243   -4.9956   -1.4635 F   0  0  0  0  0  0  0  0  0  0  0  0
   -4.9777    0.4917    1.7615 F   0  0  0  0  0  0  0  0  0  0  0  0
   -6.7054   -0.7414    1.2418 F   0  0  0  0  0  0  0  0  0  0  0  0
   -6.5277    1.2621    0.3875 F   0  0  0  0  0  0  0  0  0  0  0  0
    3.9641    2.4182   -2.1415 O   0  0  0  0  0  0  0  0  0  0  0  0
    4.3113   -1.2349    1.3634 O   0  0  0  0  0  0  0  0  0  0  0  0
   -5.1320   -0.3975   -0.3400 O   0  0  0  0  0  0  0  0  0  0  0  0
    2.3840   -0.0140    1.8753 N   0  0  0  0  0  0  0  0  0  0  0  0
    2.3069    2.0263   -0.5334 N   0  0  0  0  0  0  0  0  0  0  0  0
    2.7346    2.4414    1.9622 C   0  0  1  0  0  0  0  0  0  0  0  0
    0.5667    1.5488    1.2160 C   0  0  2  0  0  0  0  0  0  0  0  0
    1.2300    2.6558    2.0346 C   0  0  0  0  0  0  0  0  0  0  0  0
    3.1139    1.0659    2.5365 C   0  0  0  0  0  0  0  0  0  0  0  0
    3.1770    2.5963    0.5059 C   0  0  0  0  0  0  0  0  0  0  0  0
    0.9269    0.1739    1.8197 C   0  0  0  0  0  0  0  0  0  0  0  0
    0.9924    1.6023   -0.2533 C   0  0  0  0  0  0  0  0  0  0  0  0
    0.1701    1.2293   -1.2685 C   0  0  0  0  0  0  0  0  0  0  0  0
    2.8301    2.0461   -1.8384 C   0  0  0  0  0  0  0  0  0  0  0  0
    3.0918   -1.0804    1.3153 C   0  0  0  0  0  0  0  0  0  0  0  0
    0.6769    1.2326   -2.6274 C   0  0  0  0  0  0  0  0  0  0  0  0
    1.9252    1.5963   -2.9206 C   0  0  0  0  0  0  0  0  0  0  0  0
   -1.2248    0.8011   -1.0236 C   0  0  0  0  0  0  0  0  0  0  0  0
    2.3384   -2.1075    0.5862 C   0  0  0  0  0  0  0  0  0  0  0  0
   -1.5021   -0.5390   -0.7724 C   0  0  0  0  0  0  0  0  0  0  0  0
   -2.2499    1.7419   -1.0468 C   0  0  0  0  0  0  0  0  0  0  0  0
    2.1181   -1.9650   -0.7814 C   0  0  0  0  0  0  0  0  0  0  0  0
    1.8485   -3.2204    1.2651 C   0  0  0  0  0  0  0  0  0  0  0  0
   -2.8175   -0.9425   -0.5423 C   0  0  0  0  0  0  0  0  0  0  0  0
   -3.5651    1.3385   -0.8165 C   0  0  0  0  0  0  0  0  0  0  0  0
   -3.8490   -0.0037   -0.5643 C   0  0  0  0  0  0  0  0  0  0  0  0
    1.4034   -2.9418   -1.4747 C   0  0  0  0  0  0  0  0  0  0  0  0
    1.1338   -4.1972    0.5718 C   0  0  0  0  0  0  0  0  0  0  0  0
    0.9112   -4.0579   -0.7981 C   0  0  0  0  0  0  0  0  0  0  0  0
   -5.8284    0.1705    0.7638 C   0  0  0  0  0  0  0  0  0  0  0  0
    3.2448    3.2039    2.5635 H   0  0  0  0  0  0  0  0  0  0  0  0
   -0.5154    1.6911    1.3117 H   0  0  0  0  0  0  0  0  0  0  0  0
    0.9588    3.6444    1.6434 H   0  0  0  0  0  0  0  0  0  0  0  0
    0.8887    2.6182    3.0764 H   0  0  0  0  0  0  0  0  0  0  0  0
    4.1949    0.9085    2.4597 H   0  0  0  0  0  0  0  0  0  0  0  0
    2.8560    1.0206    3.6017 H   0  0  0  0  0  0  0  0  0  0  0  0
    3.2448    3.6686    0.2749 H   0  0  0  0  0  0  0  0  0  0  0  0
    4.1907    2.1974    0.3719 H   0  0  0  0  0  0  0  0  0  0  0  0
    0.5636    0.1165    2.8535 H   0  0  0  0  0  0  0  0  0  0  0  0
    0.4410   -0.6358    1.2758 H   0  0  0  0  0  0  0  0  0  0  0  0
    0.0125    0.9121   -3.4246 H   0  0  0  0  0  0  0  0  0  0  0  0
    2.2975    1.5892   -3.9381 H   0  0  0  0  0  0  0  0  0  0  0  0
   -0.7178   -1.2844   -0.7544 H   0  0  0  0  0  0  0  0  0  0  0  0
   -2.0435    2.7910   -1.2431 H   0  0  0  0  0  0  0  0  0  0  0  0
    2.5091   -1.1074   -1.3199 H   0  0  0  0  0  0  0  0  0  0  0  0
    2.0161   -3.3377    2.3324 H   0  0  0  0  0  0  0  0  0  0  0  0
   -3.0323   -1.9896   -0.3467 H   0  0  0  0  0  0  0  0  0  0  0  0
   -4.3595    2.0791   -0.8433 H   0  0  0  0  0  0  0  0  0  0  0  0
    1.2315   -2.8341   -2.5415 H   0  0  0  0  0  0  0  0  0  0  0  0
    0.7500   -5.0660    1.0983 H   0  0  0  0  0  0  0  0  0  0  0  0
  1 33  1  0  0  0  0
  2 34  1  0  0  0  0
  3 34  1  0  0  0  0
  4 34  1  0  0  0  0
  5 18  2  0  0  0  0
  6 19  2  0  0  0  0
  7 30  1  0  0  0  0
  7 34  1  0  0  0  0
  8 13  1  0  0  0  0
  8 15  1  0  0  0  0
  8 19  1  0  0  0  0
  9 14  1  0  0  0  0
  9 16  1  0  0  0  0
  9 18  1  0  0  0  0
 10 12  1  0  0  0  0
 10 13  1  0  0  0  0
 10 14  1  0  0  0  0
 10 35  1  0  0  0  0
 11 12  1  0  0  0  0
 11 15  1  0  0  0  0
 11 16  1  0  0  0  0
 11 36  1  0  0  0  0
 12 37  1  0  0  0  0
 12 38  1  0  0  0  0
 13 39  1  0  0  0  0
 13 40  1  0  0  0  0
 14 41  1  0  0  0  0
 14 42  1  0  0  0  0
 15 43  1  0  0  0  0
 15 44  1  0  0  0  0
 16 17  2  0  0  0  0
 17 20  1  0  0  0  0
 17 22  1  0  0  0  0
 18 21  1  0  0  0  0
 19 23  1  0  0  0  0
 20 21  2  0  0  0  0
 20 45  1  0  0  0  0
 21 46  1  0  0  0  0
 22 24  2  0  0  0  0
 22 25  1  0  0  0  0
 23 26  2  0  0  0  0
 23 27  1  0  0  0  0
 24 28  1  0  0  0  0
 24 47  1  0  0  0  0
 25 29  2  0  0  0  0
 25 48  1  0  0  0  0
 26 31  1  0  0  0  0
 26 49  1  0  0  0  0
 27 32  2  0  0  0  0
 27 50  1  0  0  0  0
 28 30  2  0  0  0  0
 28 51  1  0  0  0  0
 29 30  1  0  0  0  0
 29 52  1  0  0  0  0
 31 33  2  0  0  0  0
 31 53  1  0  0  0  0
 32 33  1  0  0  0  0
 32 54  1  0  0  0  0
M  END
> <PUBCHEM_COMPOUND_CID>
7144182

> <PUBCHEM_CONFORMER_RMSD>
0.8

> <PUBCHEM_CONFORMER_DIVERSEORDER>
1
4
11
8
12
9
10
7
5
6
2
3

> <PUBCHEM_MMFF94_PARTIAL_CHARGES>
42
1 -0.19
11 0.14
13 0.3
14 0.3
15 0.3
16 -0.03
17 -0.03
18 0.62
19 0.54
2 -0.34
20 -0.15
21 -0.14
22 0.03
23 0.09
24 -0.15
25 -0.15
26 -0.15
27 -0.15
28 -0.15
29 -0.15
3 -0.34
30 0.08
31 -0.15
32 -0.15
33 0.19
34 1.3
4 -0.34
45 0.15
46 0.15
47 0.15
48 0.15
49 0.15
5 -0.57
50 0.15
51 0.15
52 0.15
53 0.15
54 0.15
6 -0.57
7 -0.36
8 -0.66
9 -0.47

> <PUBCHEM_EFFECTIVE_ROTOR_COUNT>
6

> <PUBCHEM_PHARMACOPHORE_FEATURES>
8
1 5 acceptor
1 6 acceptor
1 7 acceptor
6 22 24 25 28 29 30 rings
6 23 26 27 31 32 33 rings
6 8 10 11 12 13 15 rings
6 9 10 11 12 14 16 rings
6 9 16 17 18 20 21 rings

> <PUBCHEM_HEAVY_ATOM_COUNT>
34

> <PUBCHEM_ATOM_DEF_STEREO_COUNT>
2

> <PUBCHEM_ATOM_UDEF_STEREO_COUNT>
0

> <PUBCHEM_BOND_DEF_STEREO_COUNT>
0

> <PUBCHEM_BOND_UDEF_STEREO_COUNT>
0

> <PUBCHEM_ISOTOPIC_ATOM_COUNT>
0

> <PUBCHEM_COMPONENT_COUNT>
1

> <PUBCHEM_CACTVS_TAUTO_COUNT>
1

> <PUBCHEM_CONFORMER_ID>
006D02F600000001

> <PUBCHEM_MMFF94_ENERGY>
104.9477

> <PUBCHEM_FEATURE_SELFOVERLAP>
42.182

> <PUBCHEM_SHAPE_FINGERPRINT>
10064457 181 18124570210815481080
11421498 54 18340785748933635744
11578080 2 16760326037352226072
12128747 34 17981027632180646333
12156800 1 15289060598734782114
12422481 6 17826758630389415120
13583140 156 18058145290219238757
14863182 85 18334289902982241272
15324884 4 17538796432132788908
15392192 104 18115887342438418939
17492 54 17604734195947782966
17974551 9 17125048994581302289
19301679 30 18113344120509111249
1979834 28 18335135410597222089
20578428 11 16516837869115739783
20600515 1 17545036005231027164
20764821 26 17968666046219282011
20775530 9 17906445533137457879
21421861 104 18342746169686353769
23559900 14 18114466652628694815
27425 322 17984699184472569289
3052486 1 17543056235998663614
3380486 145 17406224938721205686
35225 105 17411035641510647254
4066623 53 10447380740081526475
44317340 157 8862651427227471913
460360 51 18127415549508929473
513532 50 16988847184942420471
563151 248 17824531110231886944
57527452 28 18334867087258966302
57527585 103 16754078049542221478
57816373 69 17414152409664089967
6287921 2 18334846221347765542
6823239 73 17385724669048830273

> <PUBCHEM_SHAPE_MULTIPOLES>
643.04
9.31
4.78
2.63
22.03
6.54
-0.43
-2.32
4.16
-4.77
-0.96
-2.11
-1.45
-0.31

> <PUBCHEM_SHAPE_SELFOVERLAP>
1426.109

> <PUBCHEM_SHAPE_VOLUME>
342.7

> <PUBCHEM_COORDINATE_TYPE>
2
5
10

$$$$
