11866103
  -OEChem-12032416153D

 53 53  0     1  0  0  0  0  0999 V2000
   -0.7446    1.8235    1.9755 O   0  0  0  0  0  0  0  0  0  0  0  0
   -0.2094    4.0241   -0.8975 O   0  0  0  0  0  0  0  0  0  0  0  0
   -3.7566    0.7246   -0.8256 O   0  0  0  0  0  0  0  0  0  0  0  0
    3.5850    1.3988   -1.5146 O   0  0  0  0  0  0  0  0  0  0  0  0
    3.7540   -2.3227    1.7506 O   0  0  0  0  0  0  0  0  0  0  0  0
   -1.7458    0.0444    0.1082 N   0  0  0  0  0  0  0  0  0  0  0  0
   -5.0770   -1.0131    0.8319 N   0  0  0  0  0  0  0  0  0  0  0  0
    3.0760   -0.3903   -0.1094 N   0  0  0  0  0  0  0  0  0  0  0  0
    5.9644   -2.0334    1.1972 N   0  0  0  0  0  0  0  0  0  0  0  0
   -0.9538    1.1595   -0.3503 C   0  0  1  0  0  0  0  0  0  0  0  0
   -0.9760    2.3248    0.6572 C   0  0  2  0  0  0  0  0  0  0  0  0
    0.0982    3.3700    0.3319 C   0  0  1  0  0  0  0  0  0  0  0  0
    1.5053    2.7519    0.2629 C   0  0  0  0  0  0  0  0  0  0  0  0
    0.4346    0.6726   -0.6661 C   0  0  0  0  0  0  0  0  0  0  0  0
    1.5288    1.3933   -0.3779 C   0  0  0  0  0  0  0  0  0  0  0  0
   -3.7061   -1.3459    0.4378 C   0  0  1  0  0  0  0  0  0  0  0  0
   -3.6769   -2.5599   -0.5207 C   0  0  0  0  0  0  0  0  0  0  0  0
   -3.0987   -0.0826   -0.1708 C   0  0  0  0  0  0  0  0  0  0  0  0
    2.8301    0.8201   -0.7338 C   0  0  0  0  0  0  0  0  0  0  0  0
   -4.5275   -2.3185   -1.7715 C   0  0  0  0  0  0  0  0  0  0  0  0
   -2.2660   -2.9961   -0.9311 C   0  0  0  0  0  0  0  0  0  0  0  0
    4.2913   -1.1474   -0.3057 C   0  0  2  0  0  0  0  0  0  0  0  0
   -5.0871   -0.2950    2.0958 C   0  0  0  0  0  0  0  0  0  0  0  0
    4.1475   -2.1235   -1.4626 C   0  0  0  0  0  0  0  0  0  0  0  0
    4.6100   -1.8795    0.9888 C   0  0  0  0  0  0  0  0  0  0  0  0
   -1.3862    1.5115   -1.2963 H   0  0  0  0  0  0  0  0  0  0  0  0
   -1.9724    2.7830    0.6479 H   0  0  0  0  0  0  0  0  0  0  0  0
    0.1020    4.1433    1.1097 H   0  0  0  0  0  0  0  0  0  0  0  0
    1.8992    2.6462    1.2817 H   0  0  0  0  0  0  0  0  0  0  0  0
    2.1767    3.4267   -0.2814 H   0  0  0  0  0  0  0  0  0  0  0  0
    0.5225   -0.2863   -1.1729 H   0  0  0  0  0  0  0  0  0  0  0  0
   -1.2952   -0.6535    0.6936 H   0  0  0  0  0  0  0  0  0  0  0  0
   -3.1291   -1.6331    1.3277 H   0  0  0  0  0  0  0  0  0  0  0  0
   -4.1231   -3.4105    0.0138 H   0  0  0  0  0  0  0  0  0  0  0  0
   -0.7953    2.5771    2.5879 H   0  0  0  0  0  0  0  0  0  0  0  0
    0.4670    4.7068   -1.0451 H   0  0  0  0  0  0  0  0  0  0  0  0
   -5.6160   -1.8713    0.9486 H   0  0  0  0  0  0  0  0  0  0  0  0
   -4.1307   -1.5001   -2.3809 H   0  0  0  0  0  0  0  0  0  0  0  0
   -4.5399   -3.2161   -2.4003 H   0  0  0  0  0  0  0  0  0  0  0  0
   -5.5684   -2.0893   -1.5237 H   0  0  0  0  0  0  0  0  0  0  0  0
   -1.7786   -2.2482   -1.5648 H   0  0  0  0  0  0  0  0  0  0  0  0
   -1.6392   -3.1616   -0.0488 H   0  0  0  0  0  0  0  0  0  0  0  0
   -2.3023   -3.9346   -1.4948 H   0  0  0  0  0  0  0  0  0  0  0  0
    2.3757   -0.7790    0.5168 H   0  0  0  0  0  0  0  0  0  0  0  0
    5.0998   -0.4415   -0.5312 H   0  0  0  0  0  0  0  0  0  0  0  0
   -6.1206   -0.0526    2.3635 H   0  0  0  0  0  0  0  0  0  0  0  0
   -4.6694   -0.8984    2.9088 H   0  0  0  0  0  0  0  0  0  0  0  0
   -4.5405    0.6517    2.0366 H   0  0  0  0  0  0  0  0  0  0  0  0
    3.3392   -2.8403   -1.2776 H   0  0  0  0  0  0  0  0  0  0  0  0
    3.9174   -1.5972   -2.3951 H   0  0  0  0  0  0  0  0  0  0  0  0
    5.0694   -2.6956   -1.6108 H   0  0  0  0  0  0  0  0  0  0  0  0
    6.3130   -2.5154    2.0191 H   0  0  0  0  0  0  0  0  0  0  0  0
    6.6601   -1.6793    0.5484 H   0  0  0  0  0  0  0  0  0  0  0  0
  1 11  1  0  0  0  0
  1 35  1  0  0  0  0
  2 12  1  0  0  0  0
  2 36  1  0  0  0  0
  3 18  2  0  0  0  0
  4 19  2  0  0  0  0
  5 25  2  0  0  0  0
  6 10  1  0  0  0  0
  6 18  1  0  0  0  0
  6 32  1  0  0  0  0
  7 16  1  0  0  0  0
  7 23  1  0  0  0  0
  7 37  1  0  0  0  0
  8 19  1  0  0  0  0
  8 22  1  0  0  0  0
  8 44  1  0  0  0  0
  9 25  1  0  0  0  0
  9 52  1  0  0  0  0
  9 53  1  0  0  0  0
 10 11  1  0  0  0  0
 10 14  1  0  0  0  0
 10 26  1  0  0  0  0
 11 12  1  0  0  0  0
 11 27  1  0  0  0  0
 12 13  1  0  0  0  0
 12 28  1  0  0  0  0
 13 15  1  0  0  0  0
 13 29  1  0  0  0  0
 13 30  1  0  0  0  0
 14 15  2  0  0  0  0
 14 31  1  0  0  0  0
 15 19  1  0  0  0  0
 16 17  1  0  0  0  0
 16 18  1  0  0  0  0
 16 33  1  0  0  0  0
 17 20  1  0  0  0  0
 17 21  1  0  0  0  0
 17 34  1  0  0  0  0
 20 38  1  0  0  0  0
 20 39  1  0  0  0  0
 20 40  1  0  0  0  0
 21 41  1  0  0  0  0
 21 42  1  0  0  0  0
 21 43  1  0  0  0  0
 22 24  1  0  0  0  0
 22 25  1  0  0  0  0
 22 45  1  0  0  0  0
 23 46  1  0  0  0  0
 23 47  1  0  0  0  0
 23 48  1  0  0  0  0
 24 49  1  0  0  0  0
 24 50  1  0  0  0  0
 24 51  1  0  0  0  0
M  END
> <PUBCHEM_COMPOUND_CID>
11866103

> <PUBCHEM_CONFORMER_RMSD>
1

> <PUBCHEM_CONFORMER_DIVERSEORDER>
1
21
9
5
14
52
41
39
29
37
51
4
13
38
46
25
22
33
10
15
49
36
6
42
50
12
28
20
48
45
2
16
32
18
23
44
3
34
35
8
19
17
47
27
24
43
31
40
7
30
11
26

> <PUBCHEM_MMFF94_PARTIAL_CHARGES>
29
1 -0.68
10 0.44
11 0.28
12 0.28
13 0.14
14 -0.29
15 -0.12
16 0.33
18 0.57
19 0.62
2 -0.68
22 0.36
23 0.27
25 0.57
3 -0.57
31 0.15
32 0.37
35 0.4
36 0.4
37 0.36
4 -0.57
44 0.37
5 -0.57
52 0.37
53 0.37
6 -0.73
7 -0.9
8 -0.73
9 -0.8

> <PUBCHEM_EFFECTIVE_ROTOR_COUNT>
9.8

> <PUBCHEM_PHARMACOPHORE_FEATURES>
14
1 1 acceptor
1 1 donor
1 2 acceptor
1 2 donor
1 3 acceptor
1 4 acceptor
1 5 acceptor
1 6 donor
1 7 cation
1 7 donor
1 8 donor
1 9 donor
3 17 20 21 hydrophobe
6 10 11 12 13 14 15 rings

> <PUBCHEM_HEAVY_ATOM_COUNT>
25

> <PUBCHEM_ATOM_DEF_STEREO_COUNT>
5

> <PUBCHEM_ATOM_UDEF_STEREO_COUNT>
0

> <PUBCHEM_BOND_DEF_STEREO_COUNT>
0

> <PUBCHEM_BOND_UDEF_STEREO_COUNT>
0

> <PUBCHEM_ISOTOPIC_ATOM_COUNT>
0

> <PUBCHEM_COMPONENT_COUNT>
1

> <PUBCHEM_CACTVS_TAUTO_COUNT>
8

> <PUBCHEM_CONFORMER_ID>
00B50FF700000001

> <PUBCHEM_MMFF94_ENERGY>
44.6402

> <PUBCHEM_FEATURE_SELFOVERLAP>
71.055

> <PUBCHEM_SHAPE_FINGERPRINT>
10622 236 17824249411653153042
11265709 11 18410014325522858256
12107183 9 18270699614347366905
12422481 6 17843142319657120587
12523318 42 18123731090291097474
12553582 1 18342745112960752118
12633257 1 18201167628235025631
12788726 201 18337121055571913856
13004483 165 18410862040150428417
13533116 47 17841151366620205015
14251757 17 16587743157028656307
14705955 166 16844728603985229282
14844126 61 18192986028641224234
15537594 2 18336842981776980014
17818456 19 17773902898802535289
20600515 1 17989215823683350001
20621476 51 18194957449075154042
20626108 58 18130503149356704799
20775530 9 18334579035927436286
21033648 29 15267074644203799747
21033650 10 13262677002556787454
21421861 104 18411708711712128232
21703447 108 17127039485054251899
23366157 5 18048880989768871365
235170 7 16298382513004335383
23559900 14 18052812847829018165
3004659 81 18334300859654680486
339767 52 18262223418668089234
463206 1 18335142045963602530
5104073 3 17916033541467964147
56633871 153 18130236956169513351
6433294 58 18051413169063051382
7064713 232 17632865217560239935
7097593 13 18126568044748999685
7808743 9 9510877307153831422

> <PUBCHEM_SHAPE_MULTIPOLES>
465.22
11.45
4.32
1.61
1.74
1.89
0.47
-11.99
2.45
0.94
-0.51
-0.26
-0.53
-2.18

> <PUBCHEM_SHAPE_SELFOVERLAP>
933.782

> <PUBCHEM_SHAPE_VOLUME>
271.1

> <PUBCHEM_COORDINATE_TYPE>
2
5
10

$$$$
