45783989
  -OEChem-12032416353D

 64 67  0     1  0  0  0  0  0999 V2000
   -8.0157   -1.7029    0.5586 O   0  0  0  0  0  0  0  0  0  0  0  0
    2.0939    0.2503   -1.2013 O   0  0  0  0  0  0  0  0  0  0  0  0
    8.7937   -0.8829    1.2691 O   0  5  0  0  0  0  0  0  0  0  0  0
    8.3291    1.2553    1.4471 O   0  0  0  0  0  0  0  0  0  0  0  0
   -5.5879   -0.3534   -0.0630 N   0  0  0  0  0  0  0  0  0  0  0  0
    1.0697   -1.6035   -1.9217 N   0  0  0  0  0  0  0  0  0  0  0  0
    2.3310   -1.9567   -1.4796 N   0  0  0  0  0  0  0  0  0  0  0  0
    8.0097    0.0858    1.1229 N   0  3  0  0  0  0  0  0  0  0  0  0
   -2.8218    0.1677    0.7540 C   0  0  1  0  0  0  0  0  0  0  0  0
   -3.7603    1.2733    0.2168 C   0  0  2  0  0  0  0  0  0  0  0  0
   -1.7636   -0.1969   -0.2967 C   0  0  0  0  0  0  0  0  0  0  0  0
   -0.9214    1.0106   -0.7610 C   0  0  2  0  0  0  0  0  0  0  0  0
   -2.1681    0.5836    2.0788 C   0  0  0  0  0  0  0  0  0  0  0  0
   -4.8255    0.7031   -0.7252 C   0  0  0  0  0  0  0  0  0  0  0  0
   -3.0121    2.3749   -0.4898 C   0  0  0  0  0  0  0  0  0  0  0  0
   -1.7415    2.2816   -0.9230 C   0  0  0  0  0  0  0  0  0  0  0  0
   -0.1684    0.6198   -2.0389 C   0  0  0  0  0  0  0  0  0  0  0  0
   -3.1766    0.4975    3.2199 C   0  0  0  0  0  0  0  0  0  0  0  0
   -0.9494   -0.2871    2.3671 C   0  0  0  0  0  0  0  0  0  0  0  0
   -1.0615    3.4732   -1.5396 C   0  0  0  0  0  0  0  0  0  0  0  0
   -6.5672    0.2177    0.8721 C   0  0  0  0  0  0  0  0  0  0  0  0
   -6.2700   -1.2018   -1.0503 C   0  0  0  0  0  0  0  0  0  0  0  0
    0.9751   -0.3070   -1.7402 C   0  0  0  0  0  0  0  0  0  0  0  0
   -7.3579   -0.9027    1.5415 C   0  0  0  0  0  0  0  0  0  0  0  0
   -7.0688   -2.2883   -0.3359 C   0  0  0  0  0  0  0  0  0  0  0  0
    2.8925   -0.8438   -1.0684 C   0  0  0  0  0  0  0  0  0  0  0  0
    4.1926   -0.6075   -0.5111 C   0  0  0  0  0  0  0  0  0  0  0  0
    5.0802   -1.6695   -0.3368 C   0  0  0  0  0  0  0  0  0  0  0  0
    4.5698    0.6840   -0.1433 C   0  0  0  0  0  0  0  0  0  0  0  0
    6.3446   -1.4399    0.2054 C   0  0  0  0  0  0  0  0  0  0  0  0
    5.8342    0.9137    0.3990 C   0  0  0  0  0  0  0  0  0  0  0  0
    6.7215   -0.1483    0.5734 C   0  0  0  0  0  0  0  0  0  0  0  0
   -3.3853   -0.7520    0.9554 H   0  0  0  0  0  0  0  0  0  0  0  0
   -4.2674    1.7620    1.0543 H   0  0  0  0  0  0  0  0  0  0  0  0
   -1.1247   -1.0266    0.0233 H   0  0  0  0  0  0  0  0  0  0  0  0
   -2.2968   -0.6074   -1.1661 H   0  0  0  0  0  0  0  0  0  0  0  0
   -0.1815    1.2449    0.0152 H   0  0  0  0  0  0  0  0  0  0  0  0
   -1.8184    1.6223    2.0268 H   0  0  0  0  0  0  0  0  0  0  0  0
   -4.3260    0.2983   -1.6156 H   0  0  0  0  0  0  0  0  0  0  0  0
   -5.4885    1.4981   -1.0946 H   0  0  0  0  0  0  0  0  0  0  0  0
   -3.5563    3.3066   -0.6294 H   0  0  0  0  0  0  0  0  0  0  0  0
   -0.8391    0.1521   -2.7698 H   0  0  0  0  0  0  0  0  0  0  0  0
    0.2684    1.4910   -2.5388 H   0  0  0  0  0  0  0  0  0  0  0  0
   -2.6997    0.7499    4.1737 H   0  0  0  0  0  0  0  0  0  0  0  0
   -4.0107    1.1920    3.0915 H   0  0  0  0  0  0  0  0  0  0  0  0
   -3.5880   -0.5134    3.3151 H   0  0  0  0  0  0  0  0  0  0  0  0
   -1.1923   -1.3544    2.3149 H   0  0  0  0  0  0  0  0  0  0  0  0
   -0.5885   -0.0965    3.3853 H   0  0  0  0  0  0  0  0  0  0  0  0
   -0.0969   -0.0820    1.7161 H   0  0  0  0  0  0  0  0  0  0  0  0
   -0.0710    3.6206   -1.0968 H   0  0  0  0  0  0  0  0  0  0  0  0
   -1.6277    4.3968   -1.3754 H   0  0  0  0  0  0  0  0  0  0  0  0
   -0.9538    3.3453   -2.6208 H   0  0  0  0  0  0  0  0  0  0  0  0
   -7.2616    0.8807    0.3396 H   0  0  0  0  0  0  0  0  0  0  0  0
   -6.0816    0.8001    1.6602 H   0  0  0  0  0  0  0  0  0  0  0  0
   -5.5395   -1.6807   -1.7124 H   0  0  0  0  0  0  0  0  0  0  0  0
   -6.9458   -0.5964   -1.6683 H   0  0  0  0  0  0  0  0  0  0  0  0
   -6.7133   -1.5386    2.1607 H   0  0  0  0  0  0  0  0  0  0  0  0
   -8.1280   -0.4777    2.1933 H   0  0  0  0  0  0  0  0  0  0  0  0
   -7.6254   -2.8833   -1.0670 H   0  0  0  0  0  0  0  0  0  0  0  0
   -6.4149   -2.9719    0.2194 H   0  0  0  0  0  0  0  0  0  0  0  0
    4.8072   -2.6842   -0.6166 H   0  0  0  0  0  0  0  0  0  0  0  0
    3.9059    1.5364   -0.2638 H   0  0  0  0  0  0  0  0  0  0  0  0
    7.0099   -2.2910    0.3265 H   0  0  0  0  0  0  0  0  0  0  0  0
    6.0942    1.9328    0.6740 H   0  0  0  0  0  0  0  0  0  0  0  0
  1 24  1  0  0  0  0
  1 25  1  0  0  0  0
  2 23  1  0  0  0  0
  2 26  1  0  0  0  0
  3  8  1  0  0  0  0
  4  8  2  0  0  0  0
  5 14  1  0  0  0  0
  5 21  1  0  0  0  0
  5 22  1  0  0  0  0
  6  7  1  0  0  0  0
  6 23  2  0  0  0  0
  7 26  2  0  0  0  0
  8 32  1  0  0  0  0
  9 10  1  0  0  0  0
  9 11  1  0  0  0  0
  9 13  1  0  0  0  0
  9 33  1  0  0  0  0
 10 14  1  0  0  0  0
 10 15  1  0  0  0  0
 10 34  1  0  0  0  0
 11 12  1  0  0  0  0
 11 35  1  0  0  0  0
 11 36  1  0  0  0  0
 12 16  1  0  0  0  0
 12 17  1  0  0  0  0
 12 37  1  0  0  0  0
 13 18  1  0  0  0  0
 13 19  1  0  0  0  0
 13 38  1  0  0  0  0
 14 39  1  0  0  0  0
 14 40  1  0  0  0  0
 15 16  2  0  0  0  0
 15 41  1  0  0  0  0
 16 20  1  0  0  0  0
 17 23  1  0  0  0  0
 17 42  1  0  0  0  0
 17 43  1  0  0  0  0
 18 44  1  0  0  0  0
 18 45  1  0  0  0  0
 18 46  1  0  0  0  0
 19 47  1  0  0  0  0
 19 48  1  0  0  0  0
 19 49  1  0  0  0  0
 20 50  1  0  0  0  0
 20 51  1  0  0  0  0
 20 52  1  0  0  0  0
 21 24  1  0  0  0  0
 21 53  1  0  0  0  0
 21 54  1  0  0  0  0
 22 25  1  0  0  0  0
 22 55  1  0  0  0  0
 22 56  1  0  0  0  0
 24 57  1  0  0  0  0
 24 58  1  0  0  0  0
 25 59  1  0  0  0  0
 25 60  1  0  0  0  0
 26 27  1  0  0  0  0
 27 28  2  0  0  0  0
 27 29  1  0  0  0  0
 28 30  1  0  0  0  0
 28 61  1  0  0  0  0
 29 31  2  0  0  0  0
 29 62  1  0  0  0  0
 30 32  2  0  0  0  0
 30 63  1  0  0  0  0
 31 32  1  0  0  0  0
 31 64  1  0  0  0  0
M  CHG  2   3  -1   8   1
M  END
> <PUBCHEM_COMPOUND_CID>
45783989

> <PUBCHEM_CONFORMER_RMSD>
1

> <PUBCHEM_CONFORMER_DIVERSEORDER>
30
167
74
129
50
203
55
165
49
42
152
118
8
201
173
223
102
170
224
78
20
21
27
139
178
176
77
111
80
181
38
56
40
79
122
83
157
5
137
92
141
101
108
9
177
87
95
12
16
15
58
208
96
133
199
99
214
197
135
158
46
179
39
41
115
51
126
192
94
76
18
196
110
188
143
195
168
69
136
57
150
63
62
90
60
64
47
212
73
164
89
142
169
171
48
37
11
23
187
200
166
211
217
35
68
93
121
202
151
189
145
25
124
36
70
86
7
205
81
59
98
103
43
53
34
71
28
45
198
190
159
191
174
184
29
10
127
160
114
91
75
88
215
22
175
153
146
117
180
185
210
216
194
85
131
204
26
19
61
84
109
97
147
162
161
172
207
225
104
24
31
65
138
72
106
148
218
52
107
123
220
222
186
2
105
120
54
193
209
32
132
163
119
182
130
4
134
100
213
183
116
125
219
140
6
44
144
1
82
155
128
113
13
221
33
66
17
14
67
112
154
3
156
149
206

> <PUBCHEM_MMFF94_PARTIAL_CHARGES>
32
1 -0.56
10 0.14
12 0.14
14 0.27
15 -0.29
16 -0.28
17 0.18
2 -0.28
20 0.14
21 0.27
22 0.27
23 0.3
24 0.28
25 0.28
26 0.43
27 0.05
28 -0.15
29 -0.15
3 -0.52
30 -0.15
31 -0.15
32 0.13
4 -0.52
41 0.15
5 -0.81
6 -0.34
61 0.15
62 0.15
63 0.15
64 0.15
7 -0.34
8 0.91

> <PUBCHEM_EFFECTIVE_ROTOR_COUNT>
9

> <PUBCHEM_PHARMACOPHORE_FEATURES>
10
1 1 acceptor
1 3 acceptor
1 3 anion
1 4 acceptor
1 5 cation
3 13 18 19 hydrophobe
5 2 6 7 23 26 rings
6 1 5 21 22 24 25 rings
6 27 28 29 30 31 32 rings
6 9 10 11 12 15 16 rings

> <PUBCHEM_HEAVY_ATOM_COUNT>
32

> <PUBCHEM_ATOM_DEF_STEREO_COUNT>
3

> <PUBCHEM_ATOM_UDEF_STEREO_COUNT>
0

> <PUBCHEM_BOND_DEF_STEREO_COUNT>
0

> <PUBCHEM_BOND_UDEF_STEREO_COUNT>
0

> <PUBCHEM_ISOTOPIC_ATOM_COUNT>
0

> <PUBCHEM_COMPONENT_COUNT>
1

> <PUBCHEM_CACTVS_TAUTO_COUNT>
1

> <PUBCHEM_CONFORMER_ID>
02BA9BB50000001E

> <PUBCHEM_MMFF94_ENERGY>
70.3851

> <PUBCHEM_FEATURE_SELFOVERLAP>
50.828

> <PUBCHEM_SHAPE_FINGERPRINT>
10 15 16774079565867537175
10290309 65 15122961578010729957
10369192 42 12535632661209995025
10577160 183 13984930831918543281
106641 1 18342454868130171654
10674148 151 8502376611874093014
10930396 42 17895460532013867800
11828532 37 17386862762040740408
12218070 45 17774153639004241751
12596602 18 17846219899784674010
12838863 1 17458344156362258507
12977781 61 17391082795701657969
13560911 43 18202275906112865720
13726171 33 14835580033162118435
13782708 43 18194127322059697446
14068700 675 17095243618069511933
14117953 113 14779261995425795810
14294032 229 14261343648520866885
14394314 77 18334578993637477269
15183329 4 11818988587058901391
15188451 53 17240483602799158292
15320295 40 17240478126431233759
18393751 57 18343298193585800854
18603816 31 16660640803788938139
18608769 82 16558745745453979094
19377110 9 17346608439110425667
2026 5 16805324418676854707
20721686 146 11815355780020916499
21130935 74 18268713818421389814
21756936 100 15841544163748248924
21987483 16 18191022511364648643
23559900 14 16733562635657282261
23576562 1 11459008518933076147
3004659 81 13840270303639866206
3383291 50 17603874411797921347
38570 142 8646493990710206869
392239 28 16917068880397237015
4149490 64 18194129740896171347
4280585 95 18334295409937170095
4440575 13 15647042785861538192
5085150 59 16877949355696898795
5104073 3 18128262177271409431
559249 180 14996290223075880433
57035037 87 17845655838194827025
59682541 35 17632576084809606679
6004065 56 18041849518440471119
9689198 14 13901912223616519463
9953998 17 17846780711398055567

> <PUBCHEM_SHAPE_MULTIPOLES>
615.14
23.63
2.31
2.19
21.63
2
0.62
-13.84
5.39
-2.35
-0.08
-0.44
-0.83
0.23

> <PUBCHEM_SHAPE_SELFOVERLAP>
1302.522

> <PUBCHEM_SHAPE_VOLUME>
343.2

> <PUBCHEM_COORDINATE_TYPE>
2
5
10

$$$$
