71693234
  -OEChem-12032416233D

 47 48  0     1  0  0  0  0  0999 V2000
   -3.1589   -1.5835    0.1392 O   0  0  0  0  0  0  0  0  0  0  0  0
   -3.8904    3.1442    0.2514 O   0  0  0  0  0  0  0  0  0  0  0  0
   -6.6513   -0.8996    0.5908 O   0  0  0  0  0  0  0  0  0  0  0  0
    3.4186    0.0009    1.8709 O   0  0  0  0  0  0  0  0  0  0  0  0
   -4.8949    0.5514    0.3123 N   0  0  0  0  0  0  0  0  0  0  0  0
    2.9395   -0.0974   -0.4226 N   0  0  0  0  0  0  0  0  0  0  0  0
   -2.7713   -0.3718   -0.5201 C   0  0  1  0  0  0  0  0  0  0  0  0
   -3.4591    0.7947    0.2062 C   0  0  1  0  0  0  0  0  0  0  0  0
   -1.2600   -0.2986   -0.4940 C   0  0  0  0  0  0  0  0  0  0  0  0
   -3.2133    2.1375   -0.4780 C   0  0  0  0  0  0  0  0  0  0  0  0
    5.2489    0.0397    0.2920 C   0  0  0  0  0  0  0  0  0  0  0  0
   -4.5365   -1.8463   -0.0287 C   0  0  0  0  0  0  0  0  0  0  0  0
   -5.4616   -0.7038    0.3443 C   0  0  0  0  0  0  0  0  0  0  0  0
   -0.5860   -0.2183    0.7246 C   0  0  0  0  0  0  0  0  0  0  0  0
   -0.5408   -0.3118   -1.6892 C   0  0  0  0  0  0  0  0  0  0  0  0
    5.5374    1.3322   -0.4992 C   0  0  0  0  0  0  0  0  0  0  0  0
    5.6907   -1.2174   -0.4779 C   0  0  0  0  0  0  0  0  0  0  0  0
    1.5261   -0.1650   -0.4470 C   0  0  0  0  0  0  0  0  0  0  0  0
    3.7669   -0.0142    0.6937 C   0  0  0  0  0  0  0  0  0  0  0  0
    0.8070   -0.1516    0.7481 C   0  0  0  0  0  0  0  0  0  0  0  0
    0.8522   -0.2451   -1.6657 C   0  0  0  0  0  0  0  0  0  0  0  0
    5.1710    2.6200    0.2281 C   0  0  0  0  0  0  0  0  0  0  0  0
    5.4661   -2.4963    0.3208 C   0  0  0  0  0  0  0  0  0  0  0  0
   -3.1154   -0.4223   -1.5629 H   0  0  0  0  0  0  0  0  0  0  0  0
   -3.1323    0.8558    1.2517 H   0  0  0  0  0  0  0  0  0  0  0  0
   -5.4908    1.3373    0.5551 H   0  0  0  0  0  0  0  0  0  0  0  0
   -3.6018    2.1348   -1.5022 H   0  0  0  0  0  0  0  0  0  0  0  0
   -2.1485    2.3875   -0.5023 H   0  0  0  0  0  0  0  0  0  0  0  0
    5.8239    0.0846    1.2274 H   0  0  0  0  0  0  0  0  0  0  0  0
   -4.7871   -2.7059    0.6009 H   0  0  0  0  0  0  0  0  0  0  0  0
   -4.7308   -2.1232   -1.0712 H   0  0  0  0  0  0  0  0  0  0  0  0
    5.0235    1.3190   -1.4676 H   0  0  0  0  0  0  0  0  0  0  0  0
    6.6106    1.3658   -0.7264 H   0  0  0  0  0  0  0  0  0  0  0  0
    6.7601   -1.1358   -0.7084 H   0  0  0  0  0  0  0  0  0  0  0  0
    5.1712   -1.3005   -1.4390 H   0  0  0  0  0  0  0  0  0  0  0  0
   -1.1273   -0.2182    1.6666 H   0  0  0  0  0  0  0  0  0  0  0  0
   -1.0518   -0.3736   -2.6462 H   0  0  0  0  0  0  0  0  0  0  0  0
    1.2554   -0.0930    1.7296 H   0  0  0  0  0  0  0  0  0  0  0  0
    1.4006   -0.2563   -2.6042 H   0  0  0  0  0  0  0  0  0  0  0  0
    3.3754   -0.1084   -1.3409 H   0  0  0  0  0  0  0  0  0  0  0  0
    5.4848    3.4873   -0.3615 H   0  0  0  0  0  0  0  0  0  0  0  0
    4.0913    2.6984    0.3871 H   0  0  0  0  0  0  0  0  0  0  0  0
    5.6689    2.6733    1.2013 H   0  0  0  0  0  0  0  0  0  0  0  0
    5.8665   -3.3551   -0.2276 H   0  0  0  0  0  0  0  0  0  0  0  0
    5.9731   -2.4482    1.2897 H   0  0  0  0  0  0  0  0  0  0  0  0
    4.4018   -2.6810    0.4953 H   0  0  0  0  0  0  0  0  0  0  0  0
   -3.7244    3.9882   -0.2020 H   0  0  0  0  0  0  0  0  0  0  0  0
  1  7  1  0  0  0  0
  1 12  1  0  0  0  0
  2 10  1  0  0  0  0
  2 47  1  0  0  0  0
  3 13  2  0  0  0  0
  4 19  2  0  0  0  0
  5  8  1  0  0  0  0
  5 13  1  0  0  0  0
  5 26  1  0  0  0  0
  6 18  1  0  0  0  0
  6 19  1  0  0  0  0
  6 40  1  0  0  0  0
  7  8  1  0  0  0  0
  7  9  1  0  0  0  0
  7 24  1  0  0  0  0
  8 10  1  0  0  0  0
  8 25  1  0  0  0  0
  9 14  2  0  0  0  0
  9 15  1  0  0  0  0
 10 27  1  0  0  0  0
 10 28  1  0  0  0  0
 11 16  1  0  0  0  0
 11 17  1  0  0  0  0
 11 19  1  0  0  0  0
 11 29  1  0  0  0  0
 12 13  1  0  0  0  0
 12 30  1  0  0  0  0
 12 31  1  0  0  0  0
 14 20  1  0  0  0  0
 14 36  1  0  0  0  0
 15 21  2  0  0  0  0
 15 37  1  0  0  0  0
 16 22  1  0  0  0  0
 16 32  1  0  0  0  0
 16 33  1  0  0  0  0
 17 23  1  0  0  0  0
 17 34  1  0  0  0  0
 17 35  1  0  0  0  0
 18 20  2  0  0  0  0
 18 21  1  0  0  0  0
 20 38  1  0  0  0  0
 21 39  1  0  0  0  0
 22 41  1  0  0  0  0
 22 42  1  0  0  0  0
 22 43  1  0  0  0  0
 23 44  1  0  0  0  0
 23 45  1  0  0  0  0
 23 46  1  0  0  0  0
M  END
> <PUBCHEM_COMPOUND_CID>
71693234

> <PUBCHEM_CONFORMER_RMSD>
0.8

> <PUBCHEM_CONFORMER_DIVERSEORDER>
2
31
56
57
47
9
51
29
39
36
19
55
60
30
42
53
12
59
48
1
37
13
15
26
7
18
11
33
52
8
10
25
32
38
35
28
44
23
24
14
50
41
45
43
4
34
27
17
20
46
3
16
21
40
58
49
6
5
54
22

> <PUBCHEM_MMFF94_PARTIAL_CHARGES>
26
1 -0.56
10 0.28
11 0.06
12 0.34
13 0.57
14 -0.15
15 -0.15
18 0.12
19 0.57
2 -0.68
20 -0.15
21 -0.15
26 0.37
3 -0.57
36 0.15
37 0.15
38 0.15
39 0.15
4 -0.57
40 0.37
47 0.4
5 -0.73
6 -0.55
7 0.42
8 0.3
9 -0.14

> <PUBCHEM_EFFECTIVE_ROTOR_COUNT>
8

> <PUBCHEM_PHARMACOPHORE_FEATURES>
11
1 1 acceptor
1 2 acceptor
1 2 donor
1 22 hydrophobe
1 23 hydrophobe
1 3 acceptor
1 4 acceptor
1 5 donor
1 6 donor
6 1 5 7 8 12 13 rings
6 9 14 15 18 20 21 rings

> <PUBCHEM_HEAVY_ATOM_COUNT>
23

> <PUBCHEM_ATOM_DEF_STEREO_COUNT>
2

> <PUBCHEM_ATOM_UDEF_STEREO_COUNT>
0

> <PUBCHEM_BOND_DEF_STEREO_COUNT>
0

> <PUBCHEM_BOND_UDEF_STEREO_COUNT>
0

> <PUBCHEM_ISOTOPIC_ATOM_COUNT>
0

> <PUBCHEM_COMPONENT_COUNT>
1

> <PUBCHEM_CACTVS_TAUTO_COUNT>
9

> <PUBCHEM_CONFORMER_ID>
0445F3B200000002

> <PUBCHEM_MMFF94_ENERGY>
56.9081

> <PUBCHEM_FEATURE_SELFOVERLAP>
55.826

> <PUBCHEM_SHAPE_FINGERPRINT>
10595046 47 18409449223796011908
12107183 9 17758671157494500192
12166972 35 18410580586912486672
12236239 1 17821447958787510087
12403259 415 17560794442140735968
12516196 113 16515682268692484567
12596602 18 18113898268924757729
12616971 3 14692563334194810144
12670546 56 18186235126110281924
12916748 109 18335139803974232400
13073987 5 18409165502683430232
13167823 11 18409163299323386058
13533116 47 18408042910149526690
13583140 156 18059563659796634727
13862211 1 15574709214120291394
13955234 65 18409440402677283682
14341114 176 18408042930927920461
14933364 13 18411985775736378764
15788980 27 17917988365256153574
17844677 252 18410580574116794264
1813 80 16660649518398680110
18222031 100 16008750204077334046
19433438 28 18272646839979622753
200 152 16370720440216620671
21033648 29 17560505236064578625
21315764 268 18409727369899443860
22079108 93 18187359986893358960
2297311 6 18411704287953640689
23081809 10 17846777433705019087
23402539 116 18410288134399800703
23536379 177 18410857650904543162
23557571 272 18272377442820447285
23559900 14 18262795302184706049
23569914 2 17690788593913663680
23569943 247 17024581180118503938
3004659 81 18202004314082495682
314173 85 16298104280869870974
34797466 226 18130235942656958164
394071 54 16226341408105259404
4073 2 18042128807601069050
5104073 3 18336819815229735944
542803 24 18413387657266868822
633830 44 18337099108442168126
90127 26 18261118456731784320

> <PUBCHEM_SHAPE_MULTIPOLES>
439.89
16.02
2.26
1.15
1.57
1.24
-0.17
-1.23
2.61
0.47
0.15
0.48
-0.08
0.08

> <PUBCHEM_SHAPE_SELFOVERLAP>
904.433

> <PUBCHEM_SHAPE_VOLUME>
251.4

> <PUBCHEM_COORDINATE_TYPE>
2
5
10

$$$$
