7135373
  -OEChem-12032416383D

 62 64  0     1  0  0  0  0  0999 V2000
   -2.1531    0.0194    2.0519 O   0  0  0  0  0  0  0  0  0  0  0  0
   -6.7079   -1.9817   -0.6743 O   0  0  0  0  0  0  0  0  0  0  0  0
    4.3368   -1.5226   -0.7804 O   0  0  0  0  0  0  0  0  0  0  0  0
   -3.8957   -0.2249    0.5347 N   0  0  0  0  0  0  0  0  0  0  0  0
   -0.7702    1.7493    0.4580 C   0  0  2  0  0  0  0  0  0  0  0  0
   -2.2878    1.6391    0.3280 C   0  0  1  0  0  0  0  0  0  0  0  0
   -0.2496    3.0067   -0.2444 C   0  0  0  0  0  0  0  0  0  0  0  0
   -0.0848    0.5060   -0.1287 C   0  0  0  0  0  0  0  0  0  0  0  0
    1.2499    3.1739   -0.0026 C   0  0  0  0  0  0  0  0  0  0  0  0
    1.4125    0.6482   -0.2513 C   0  0  0  0  0  0  0  0  0  0  0  0
    2.0365    1.9084   -0.2320 C   0  0  0  0  0  0  0  0  0  0  0  0
   -2.7667    0.4075    1.0543 C   0  0  0  0  0  0  0  0  0  0  0  0
   -2.9833    2.8626    0.9027 C   0  0  0  0  0  0  0  0  0  0  0  0
   -4.6683    0.2341   -0.6262 C   0  0  0  0  0  0  0  0  0  0  0  0
   -4.4201   -1.4286    1.1827 C   0  0  0  0  0  0  0  0  0  0  0  0
    2.1913   -0.5028   -0.4465 C   0  0  0  0  0  0  0  0  0  0  0  0
   -4.7941   -0.8799   -1.6668 C   0  0  0  0  0  0  0  0  0  0  0  0
   -4.5419   -2.5779    0.1817 C   0  0  0  0  0  0  0  0  0  0  0  0
    3.4305    1.9891   -0.3716 C   0  0  0  0  0  0  0  0  0  0  0  0
   -5.3467   -2.1700   -1.0542 C   0  0  0  0  0  0  0  0  0  0  0  0
    3.5747   -0.4085   -0.5943 C   0  0  0  0  0  0  0  0  0  0  0  0
    4.1944    0.8368   -0.5544 C   0  0  0  0  0  0  0  0  0  0  0  0
    1.5558   -1.8582   -0.5113 C   0  0  0  0  0  0  0  0  0  0  0  0
    4.1475    3.3011   -0.3206 C   0  0  0  0  0  0  0  0  0  0  0  0
    5.3453   -1.7875    0.1925 C   0  0  0  0  0  0  0  0  0  0  0  0
    5.5701   -3.2897    0.2712 C   0  0  0  0  0  0  0  0  0  0  0  0
    6.6248   -3.6499    1.3019 C   0  0  0  0  0  0  0  0  0  0  0  0
   -0.4944    1.8258    1.5204 H   0  0  0  0  0  0  0  0  0  0  0  0
   -2.4893    1.5672   -0.7423 H   0  0  0  0  0  0  0  0  0  0  0  0
   -0.4459    2.9406   -1.3228 H   0  0  0  0  0  0  0  0  0  0  0  0
   -0.7394    3.9162    0.1159 H   0  0  0  0  0  0  0  0  0  0  0  0
   -0.3063   -0.3584    0.5041 H   0  0  0  0  0  0  0  0  0  0  0  0
   -0.4843    0.3010   -1.1308 H   0  0  0  0  0  0  0  0  0  0  0  0
    1.6014    3.9741   -0.6635 H   0  0  0  0  0  0  0  0  0  0  0  0
    1.4125    3.4965    1.0336 H   0  0  0  0  0  0  0  0  0  0  0  0
   -2.5895    3.1240    1.8913 H   0  0  0  0  0  0  0  0  0  0  0  0
   -4.0585    2.6874    1.0238 H   0  0  0  0  0  0  0  0  0  0  0  0
   -2.8822    3.7330    0.2475 H   0  0  0  0  0  0  0  0  0  0  0  0
   -5.6630    0.5031   -0.2486 H   0  0  0  0  0  0  0  0  0  0  0  0
   -4.2826    1.1345   -1.0990 H   0  0  0  0  0  0  0  0  0  0  0  0
   -5.3996   -1.1741    1.6043 H   0  0  0  0  0  0  0  0  0  0  0  0
   -3.7781   -1.7341    2.0150 H   0  0  0  0  0  0  0  0  0  0  0  0
   -3.8059   -1.0810   -2.0984 H   0  0  0  0  0  0  0  0  0  0  0  0
   -5.4489   -0.5362   -2.4757 H   0  0  0  0  0  0  0  0  0  0  0  0
   -5.0183   -3.4310    0.6781 H   0  0  0  0  0  0  0  0  0  0  0  0
   -3.5378   -2.8896   -0.1314 H   0  0  0  0  0  0  0  0  0  0  0  0
   -5.3209   -2.9783   -1.7931 H   0  0  0  0  0  0  0  0  0  0  0  0
    5.2724    0.9095   -0.6755 H   0  0  0  0  0  0  0  0  0  0  0  0
    2.2273   -2.6279   -0.9047 H   0  0  0  0  0  0  0  0  0  0  0  0
    1.2424   -2.1748    0.4890 H   0  0  0  0  0  0  0  0  0  0  0  0
    0.6878   -1.8536   -1.1790 H   0  0  0  0  0  0  0  0  0  0  0  0
    3.8836    3.8548    0.5864 H   0  0  0  0  0  0  0  0  0  0  0  0
    3.9034    3.9037   -1.2015 H   0  0  0  0  0  0  0  0  0  0  0  0
    5.2354    3.1715   -0.3046 H   0  0  0  0  0  0  0  0  0  0  0  0
   -7.2025   -1.7300   -1.4728 H   0  0  0  0  0  0  0  0  0  0  0  0
    6.2698   -1.2824   -0.1100 H   0  0  0  0  0  0  0  0  0  0  0  0
    5.0437   -1.4086    1.1776 H   0  0  0  0  0  0  0  0  0  0  0  0
    4.6254   -3.7902    0.5159 H   0  0  0  0  0  0  0  0  0  0  0  0
    5.8659   -3.6697   -0.7140 H   0  0  0  0  0  0  0  0  0  0  0  0
    6.7670   -4.7345    1.3360 H   0  0  0  0  0  0  0  0  0  0  0  0
    6.3279   -3.3150    2.3009 H   0  0  0  0  0  0  0  0  0  0  0  0
    7.5867   -3.1887    1.0564 H   0  0  0  0  0  0  0  0  0  0  0  0
  1 12  2  0  0  0  0
  2 20  1  0  0  0  0
  2 55  1  0  0  0  0
  3 21  1  0  0  0  0
  3 25  1  0  0  0  0
  4 12  1  0  0  0  0
  4 14  1  0  0  0  0
  4 15  1  0  0  0  0
  5  6  1  0  0  0  0
  5  7  1  0  0  0  0
  5  8  1  0  0  0  0
  5 28  1  0  0  0  0
  6 12  1  0  0  0  0
  6 13  1  0  0  0  0
  6 29  1  0  0  0  0
  7  9  1  0  0  0  0
  7 30  1  0  0  0  0
  7 31  1  0  0  0  0
  8 10  1  0  0  0  0
  8 32  1  0  0  0  0
  8 33  1  0  0  0  0
  9 11  1  0  0  0  0
  9 34  1  0  0  0  0
  9 35  1  0  0  0  0
 10 11  2  0  0  0  0
 10 16  1  0  0  0  0
 11 19  1  0  0  0  0
 13 36  1  0  0  0  0
 13 37  1  0  0  0  0
 13 38  1  0  0  0  0
 14 17  1  0  0  0  0
 14 39  1  0  0  0  0
 14 40  1  0  0  0  0
 15 18  1  0  0  0  0
 15 41  1  0  0  0  0
 15 42  1  0  0  0  0
 16 21  2  0  0  0  0
 16 23  1  0  0  0  0
 17 20  1  0  0  0  0
 17 43  1  0  0  0  0
 17 44  1  0  0  0  0
 18 20  1  0  0  0  0
 18 45  1  0  0  0  0
 18 46  1  0  0  0  0
 19 22  2  0  0  0  0
 19 24  1  0  0  0  0
 20 47  1  0  0  0  0
 21 22  1  0  0  0  0
 22 48  1  0  0  0  0
 23 49  1  0  0  0  0
 23 50  1  0  0  0  0
 23 51  1  0  0  0  0
 24 52  1  0  0  0  0
 24 53  1  0  0  0  0
 24 54  1  0  0  0  0
 25 26  1  0  0  0  0
 25 56  1  0  0  0  0
 25 57  1  0  0  0  0
 26 27  1  0  0  0  0
 26 58  1  0  0  0  0
 26 59  1  0  0  0  0
 27 60  1  0  0  0  0
 27 61  1  0  0  0  0
 27 62  1  0  0  0  0
M  END
> <PUBCHEM_COMPOUND_CID>
7135373

> <PUBCHEM_CONFORMER_RMSD>
1

> <PUBCHEM_CONFORMER_DIVERSEORDER>
1
3
26
23
25
8
2
20
16
7
13
11
10
21
6
9
14
15
5
19
4
17
27
24
18
22
12

> <PUBCHEM_MMFF94_PARTIAL_CHARGES>
22
1 -0.57
10 -0.14
11 -0.14
12 0.57
14 0.3
15 0.3
16 -0.14
19 -0.14
2 -0.68
20 0.28
21 0.08
22 -0.15
23 0.14
24 0.14
25 0.28
3 -0.36
4 -0.66
48 0.15
55 0.4
6 0.06
8 0.14
9 0.14

> <PUBCHEM_EFFECTIVE_ROTOR_COUNT>
8

> <PUBCHEM_PHARMACOPHORE_FEATURES>
9
1 1 acceptor
1 13 hydrophobe
1 2 acceptor
1 2 donor
1 27 hydrophobe
1 3 acceptor
6 10 11 16 19 21 22 rings
6 4 14 15 17 18 20 rings
6 5 7 8 9 10 11 rings

> <PUBCHEM_HEAVY_ATOM_COUNT>
27

> <PUBCHEM_ATOM_DEF_STEREO_COUNT>
2

> <PUBCHEM_ATOM_UDEF_STEREO_COUNT>
0

> <PUBCHEM_BOND_DEF_STEREO_COUNT>
0

> <PUBCHEM_BOND_UDEF_STEREO_COUNT>
0

> <PUBCHEM_ISOTOPIC_ATOM_COUNT>
0

> <PUBCHEM_COMPONENT_COUNT>
1

> <PUBCHEM_CACTVS_TAUTO_COUNT>
1

> <PUBCHEM_CONFORMER_ID>
006CE08D00000001

> <PUBCHEM_MMFF94_ENERGY>
73.4401

> <PUBCHEM_FEATURE_SELFOVERLAP>
45.692

> <PUBCHEM_SHAPE_FINGERPRINT>
10447042 23 18341612689109395517
10622 236 17986374784654177079
11136131 41 18263637537172322528
11607047 403 17197949162629109834
11963148 33 18123465248537278414
12107183 9 18196947564868338553
12166972 35 18113621196268478783
12236239 1 17559970977204921917
12403259 226 18335703793827308188
12403260 363 18411984637422118496
12422481 6 17274540915234912254
13140716 1 18340774719895417608
13540713 5 18340222811939125216
13911987 19 17543647769213433413
14117953 113 18198903613539502175
14429380 30 18409169887618640762
17492 89 18410296929711944977
17857418 61 18342741814315001102
18393751 57 17695324260193868696
19315092 285 18060416928417591448
19319366 153 18052819444883402756
19841028 212 18270400620115347847
200 152 18200880707393017385
20028762 73 18272651225590567126
21133410 171 17685725313134702739
22393880 68 17968366880028795925
23559900 14 18408599258105523313
23622692 118 18411415077250297514
314194 84 18270689795445310289
4280585 95 18264481798012624954
439807 62 18198338662643718831
45266715 3 17895468224194761458
46194498 28 17679294437427681101
463206 1 17983015841361051199
5104073 3 18272939284635546056
6058803 2 18267889236425333904
7970288 3 18192428576827014962
9709674 26 18262530298138842689

> <PUBCHEM_SHAPE_MULTIPOLES>
533.06
15.04
4.58
1.19
0.9
0
0.2
16.99
-0.61
-4.81
0.54
1
0.41
-2.5

> <PUBCHEM_SHAPE_SELFOVERLAP>
1109.942

> <PUBCHEM_SHAPE_VOLUME>
303.5

> <PUBCHEM_COORDINATE_TYPE>
2
5
10

$$$$
