45360996
  -OEChem-12032416293D

 62 65  0     1  0  0  0  0  0999 V2000
    9.6823   -0.2649   -1.6556 F   0  0  0  0  0  0  0  0  0  0  0  0
    2.6698   -1.7519   -0.6770 O   0  0  0  0  0  0  0  0  0  0  0  0
   -4.2983   -1.0803   -1.2242 O   0  0  0  0  0  0  0  0  0  0  0  0
    3.7507    0.4718    0.4090 N   0  0  1  0  0  0  0  0  0  0  0  0
    0.1689    1.1179    0.0295 N   0  0  1  0  0  0  0  0  0  0  0  0
    0.7424   -1.6606    0.5530 N   0  0  0  0  0  0  0  0  0  0  0  0
   -5.4415   -1.2547    0.7886 N   0  0  0  0  0  0  0  0  0  0  0  0
   -8.5841    0.8440   -1.8111 N   0  0  0  0  0  0  0  0  0  0  0  0
    1.4935    1.3301    0.6540 C   0  0  1  0  0  0  0  0  0  0  0  0
    2.4087    0.0926    0.8895 C   0  0  1  0  0  0  0  0  0  0  0  0
    2.4190    2.2656   -0.1460 C   0  0  0  0  0  0  0  0  0  0  0  0
    3.7989    1.9292    0.3786 C   0  0  0  0  0  0  0  0  0  0  0  0
   -0.7658    0.2838    0.8353 C   0  0  2  0  0  0  0  0  0  0  0  0
    1.9769   -1.1779    0.1619 C   0  0  0  0  0  0  0  0  0  0  0  0
   -0.1317   -0.9657    1.4772 C   0  0  0  0  0  0  0  0  0  0  0  0
    4.8310   -0.0961    1.2054 C   0  0  0  0  0  0  0  0  0  0  0  0
   -1.9503   -0.1908   -0.0325 C   0  0  0  0  0  0  0  0  0  0  0  0
   -0.4611    2.4046   -0.3123 C   0  0  0  0  0  0  0  0  0  0  0  0
   -3.1585   -0.5008    0.8318 C   0  0  0  0  0  0  0  0  0  0  0  0
    6.1273   -0.1410    0.4411 C   0  0  0  0  0  0  0  0  0  0  0  0
   -4.3371   -0.9714   -0.0015 C   0  0  0  0  0  0  0  0  0  0  0  0
    6.4488   -1.2644   -0.3208 C   0  0  0  0  0  0  0  0  0  0  0  0
    7.0068    0.9402    0.4946 C   0  0  0  0  0  0  0  0  0  0  0  0
    7.6497   -1.3066   -1.0290 C   0  0  0  0  0  0  0  0  0  0  0  0
    8.2079    0.8982   -0.2134 C   0  0  0  0  0  0  0  0  0  0  0  0
    8.5293   -0.2252   -0.9752 C   0  0  0  0  0  0  0  0  0  0  0  0
   -6.6896   -1.7192    0.2311 C   0  0  0  0  0  0  0  0  0  0  0  0
   -7.6075   -0.5777   -0.1169 C   0  0  0  0  0  0  0  0  0  0  0  0
   -8.3094    0.1046    0.8706 C   0  0  0  0  0  0  0  0  0  0  0  0
   -7.7781   -0.1727   -1.4310 C   0  0  0  0  0  0  0  0  0  0  0  0
   -9.1485    1.1560    0.5189 C   0  0  0  0  0  0  0  0  0  0  0  0
   -9.2501    1.4835   -0.8236 C   0  0  0  0  0  0  0  0  0  0  0  0
    1.3393    1.8080    1.6340 H   0  0  0  0  0  0  0  0  0  0  0  0
    2.4434   -0.1188    1.9666 H   0  0  0  0  0  0  0  0  0  0  0  0
    2.1818    3.3231    0.0100 H   0  0  0  0  0  0  0  0  0  0  0  0
    2.3627    2.0511   -1.2217 H   0  0  0  0  0  0  0  0  0  0  0  0
    3.9401    2.3658    1.3754 H   0  0  0  0  0  0  0  0  0  0  0  0
    4.5716    2.3126   -0.2941 H   0  0  0  0  0  0  0  0  0  0  0  0
   -1.1528    0.9015    1.6581 H   0  0  0  0  0  0  0  0  0  0  0  0
    0.4377   -0.6872    2.3697 H   0  0  0  0  0  0  0  0  0  0  0  0
   -0.8749   -1.6934    1.8137 H   0  0  0  0  0  0  0  0  0  0  0  0
    4.5876   -1.1299    1.4885 H   0  0  0  0  0  0  0  0  0  0  0  0
    4.9643    0.4317    2.1597 H   0  0  0  0  0  0  0  0  0  0  0  0
   -1.6661   -1.0723   -0.6226 H   0  0  0  0  0  0  0  0  0  0  0  0
   -2.2632    0.5482   -0.7738 H   0  0  0  0  0  0  0  0  0  0  0  0
    0.4056   -2.5170    0.1237 H   0  0  0  0  0  0  0  0  0  0  0  0
   -1.4387    2.3088   -0.7877 H   0  0  0  0  0  0  0  0  0  0  0  0
    0.1385    2.9555   -1.0442 H   0  0  0  0  0  0  0  0  0  0  0  0
   -0.5857    3.0358    0.5754 H   0  0  0  0  0  0  0  0  0  0  0  0
   -2.9445   -1.2828    1.5668 H   0  0  0  0  0  0  0  0  0  0  0  0
   -3.4717    0.3972    1.3783 H   0  0  0  0  0  0  0  0  0  0  0  0
    5.7718   -2.1130   -0.3730 H   0  0  0  0  0  0  0  0  0  0  0  0
    6.7721    1.8196    1.0884 H   0  0  0  0  0  0  0  0  0  0  0  0
    7.9001   -2.1807   -1.6228 H   0  0  0  0  0  0  0  0  0  0  0  0
    8.8934    1.7394   -0.1711 H   0  0  0  0  0  0  0  0  0  0  0  0
   -5.3871   -1.1174    1.7939 H   0  0  0  0  0  0  0  0  0  0  0  0
   -6.4877   -2.3371   -0.6516 H   0  0  0  0  0  0  0  0  0  0  0  0
   -7.1663   -2.3667    0.9756 H   0  0  0  0  0  0  0  0  0  0  0  0
   -8.2094   -0.1744    1.9159 H   0  0  0  0  0  0  0  0  0  0  0  0
   -7.2568   -0.6642   -2.2466 H   0  0  0  0  0  0  0  0  0  0  0  0
   -9.7052    1.7021    1.2718 H   0  0  0  0  0  0  0  0  0  0  0  0
   -9.8912    2.2958   -1.1500 H   0  0  0  0  0  0  0  0  0  0  0  0
  1 26  1  0  0  0  0
  2 14  2  0  0  0  0
  3 21  2  0  0  0  0
  4 10  1  0  0  0  0
  4 12  1  0  0  0  0
  4 16  1  0  0  0  0
  5  9  1  0  0  0  0
  5 13  1  0  0  0  0
  5 18  1  0  0  0  0
  6 14  1  0  0  0  0
  6 15  1  0  0  0  0
  6 46  1  0  0  0  0
  7 21  1  0  0  0  0
  7 27  1  0  0  0  0
  7 56  1  0  0  0  0
  8 30  1  0  0  0  0
  8 32  2  0  0  0  0
  9 10  1  0  0  0  0
  9 11  1  0  0  0  0
  9 33  1  0  0  0  0
 10 14  1  0  0  0  0
 10 34  1  0  0  0  0
 11 12  1  0  0  0  0
 11 35  1  0  0  0  0
 11 36  1  0  0  0  0
 12 37  1  0  0  0  0
 12 38  1  0  0  0  0
 13 15  1  0  0  0  0
 13 17  1  0  0  0  0
 13 39  1  0  0  0  0
 15 40  1  0  0  0  0
 15 41  1  0  0  0  0
 16 20  1  0  0  0  0
 16 42  1  0  0  0  0
 16 43  1  0  0  0  0
 17 19  1  0  0  0  0
 17 44  1  0  0  0  0
 17 45  1  0  0  0  0
 18 47  1  0  0  0  0
 18 48  1  0  0  0  0
 18 49  1  0  0  0  0
 19 21  1  0  0  0  0
 19 50  1  0  0  0  0
 19 51  1  0  0  0  0
 20 22  2  0  0  0  0
 20 23  1  0  0  0  0
 22 24  1  0  0  0  0
 22 52  1  0  0  0  0
 23 25  2  0  0  0  0
 23 53  1  0  0  0  0
 24 26  2  0  0  0  0
 24 54  1  0  0  0  0
 25 26  1  0  0  0  0
 25 55  1  0  0  0  0
 27 28  1  0  0  0  0
 27 57  1  0  0  0  0
 27 58  1  0  0  0  0
 28 29  1  0  0  0  0
 28 30  2  0  0  0  0
 29 31  2  0  0  0  0
 29 59  1  0  0  0  0
 30 60  1  0  0  0  0
 31 32  1  0  0  0  0
 31 61  1  0  0  0  0
 32 62  1  0  0  0  0
M  END
> <PUBCHEM_COMPOUND_CID>
45360996

> <PUBCHEM_CONFORMER_RMSD>
1.2

> <PUBCHEM_CONFORMER_DIVERSEORDER>
2
60
158
120
141
78
143
121
137
57
35
72
33
90
157
140
37
15
102
76
99
11
139
100
86
124
69
12
68
66
156
154
36
41
128
8
112
136
50
131
129
151
101
87
104
54
82
65
165
21
23
24
142
149
43
160
22
18
93
31
32
117
159
97
147
28
122
166
164
61
150
27
105
110
13
91
46
85
89
116
96
53
155
79
127
70
144
148
152
153
59
40
10
51
113
44
109
73
55
108
64
7
130
19
25
38
80
114
6
71
163
135
95
88
39
84
126
58
132
162
63
77
47
62
74
138
17
118
107
16
103
98
115
26
106
56
119
52
133
161
14
75
83
67
9
1
134
146
30
20
145
4
45
111
5
81
49
48
3
29
92
42
123
34
94
125

> <PUBCHEM_MMFF94_PARTIAL_CHARGES>
40
1 -0.19
10 0.33
12 0.27
13 0.27
14 0.57
15 0.3
16 0.41
18 0.27
19 0.06
2 -0.57
20 -0.14
21 0.57
22 -0.15
23 -0.15
24 -0.15
25 -0.15
26 0.19
27 0.44
28 -0.14
29 -0.15
3 -0.57
30 0.16
31 -0.15
32 0.16
4 -0.81
46 0.37
5 -0.81
52 0.15
53 0.15
54 0.15
55 0.15
56 0.37
59 0.15
6 -0.73
60 0.15
61 0.15
62 0.15
7 -0.73
8 -0.62
9 0.27

> <PUBCHEM_EFFECTIVE_ROTOR_COUNT>
9.4

> <PUBCHEM_PHARMACOPHORE_FEATURES>
11
1 2 acceptor
1 3 acceptor
1 4 cation
1 5 cation
1 6 donor
1 7 donor
1 8 acceptor
5 4 9 10 11 12 rings
6 20 22 23 24 25 26 rings
6 8 28 29 30 31 32 rings
7 5 6 9 10 13 14 15 rings

> <PUBCHEM_HEAVY_ATOM_COUNT>
32

> <PUBCHEM_ATOM_DEF_STEREO_COUNT>
3

> <PUBCHEM_ATOM_UDEF_STEREO_COUNT>
0

> <PUBCHEM_BOND_DEF_STEREO_COUNT>
0

> <PUBCHEM_BOND_UDEF_STEREO_COUNT>
0

> <PUBCHEM_ISOTOPIC_ATOM_COUNT>
0

> <PUBCHEM_COMPONENT_COUNT>
1

> <PUBCHEM_CACTVS_TAUTO_COUNT>
6

> <PUBCHEM_CONFORMER_ID>
02B4276400000002

> <PUBCHEM_MMFF94_ENERGY>
81.9635

> <PUBCHEM_FEATURE_SELFOVERLAP>
55.858

> <PUBCHEM_SHAPE_FINGERPRINT>
10162869 55 12175617382403810897
106641 1 7853573508863146419
10666366 153 18342176657017597028
10883706 142 11963388553421470096
11115154 58 17894633660499277044
11181472 205 17895191043683790041
11672396 167 18190740835569642490
12089408 11 16877657980662158786
12592606 108 18131348648313562479
12664476 115 17313381220153831325
13560911 43 11458419146109027719
14117953 113 18343585148428941918
14251764 18 10519989274815943819
14294032 229 17459180782075367245
14428016 248 16515407369516348039
14849402 71 11602826800030396551
15131766 46 15121227841457831872
15183329 4 18409158914857712993
15198563 99 18334578997542841228
15247644 1 13614524056276829060
15301273 46 18273212006104494274
15461852 350 16056878027475541409
15840311 113 12103840173249225114
16087824 20 18335417929705231269
16728433 281 17532919508133736317
1754911 235 18273214200838213087
17686467 74 9151177550200448639
21095123 145 16515691070256874011
21150785 3 15213017167655711426
21267235 1 18411422838250887912
21792934 111 18412255152570997592
22224240 67 10159701295730661185
249057 3 18341893021735600895
28498 318 18272652350406800073
3092352 35 15140678094203778889
335352 9 18409731780872528430
3633792 109 18410013264856165440
4017518 198 17346598578214227135
4173938 188 11097867285287866581
4625314 4 18410012182207765394
5381727 24 8790890666526829908
6081469 158 18335702715911420518
6523845 18 11167938035463694183
9663363 56 18413107265566201536

> <PUBCHEM_SHAPE_MULTIPOLES>
614.63
33.59
1.93
1.24
24.88
0.58
0.23
1.15
11.85
0.01
0.1
0.4
-0.11
1.37

> <PUBCHEM_SHAPE_SELFOVERLAP>
1302.585

> <PUBCHEM_SHAPE_VOLUME>
343.5

> <PUBCHEM_COORDINATE_TYPE>
2
5
10

$$$$
