38030912
  -OEChem-12032416363D

 77 80  0     1  0  0  0  0  0999 V2000
   -3.6074   -0.1527   -1.1077 O   0  0  0  0  0  0  0  0  0  0  0  0
    9.6357    2.5868    0.4721 O   0  0  0  0  0  0  0  0  0  0  0  0
   -9.2901    1.0408    1.3367 O   0  0  0  0  0  0  0  0  0  0  0  0
    4.1057   -0.7477   -0.1980 N   0  0  0  0  0  0  0  0  0  0  0  0
    6.7638    0.2863    0.2742 N   0  0  0  0  0  0  0  0  0  0  0  0
   -2.3253    1.4858   -1.9298 N   0  0  0  0  0  0  0  0  0  0  0  0
   -3.4992    2.0522   -1.4692 N   0  0  0  0  0  0  0  0  0  0  0  0
    1.3198   -0.7889    0.7122 C   0  0  1  0  0  0  0  0  0  0  0  0
    2.0522   -2.0493    0.1959 C   0  0  2  0  0  0  0  0  0  0  0  0
    0.2995   -0.2974   -0.3243 C   0  0  0  0  0  0  0  0  0  0  0  0
   -0.7390   -1.3702   -0.7166 C   0  0  2  0  0  0  0  0  0  0  0  0
    0.6516   -1.0468    2.0696 C   0  0  0  0  0  0  0  0  0  0  0  0
    3.1635   -1.6915   -0.7964 C   0  0  0  0  0  0  0  0  0  0  0  0
    1.1157   -3.0414   -0.4454 C   0  0  0  0  0  0  0  0  0  0  0  0
   -0.1374   -2.7612   -0.8484 C   0  0  0  0  0  0  0  0  0  0  0  0
   -1.4613   -0.9100   -1.9891 C   0  0  0  0  0  0  0  0  0  0  0  0
    5.0474   -1.4424    0.6883 C   0  0  0  0  0  0  0  0  0  0  0  0
    4.8308   -0.0058   -1.2366 C   0  0  0  0  0  0  0  0  0  0  0  0
    1.6976   -1.0826    3.1792 C   0  0  0  0  0  0  0  0  0  0  0  0
   -0.4029    0.0178    2.3542 C   0  0  0  0  0  0  0  0  0  0  0  0
    6.0387   -0.4548    1.3134 C   0  0  0  0  0  0  0  0  0  0  0  0
    5.8213    0.9820   -0.6104 C   0  0  0  0  0  0  0  0  0  0  0  0
   -1.0180   -3.8498   -1.3978 C   0  0  0  0  0  0  0  0  0  0  0  0
   -2.4324    0.1983   -1.6982 C   0  0  0  0  0  0  0  0  0  0  0  0
    7.7075    1.2290    0.8716 C   0  0  0  0  0  0  0  0  0  0  0  0
    8.7520    1.6602   -0.1455 C   0  0  0  0  0  0  0  0  0  0  0  0
   -4.2170    1.0593   -0.9985 C   0  0  0  0  0  0  0  0  0  0  0  0
   -5.5194    1.0548   -0.3979 C   0  0  0  0  0  0  0  0  0  0  0  0
   10.6525    3.0142   -0.4240 C   0  0  0  0  0  0  0  0  0  0  0  0
   -6.2205    2.2508   -0.2435 C   0  0  0  0  0  0  0  0  0  0  0  0
   -6.0852   -0.1457    0.0314 C   0  0  0  0  0  0  0  0  0  0  0  0
   -7.4871    2.2464    0.3403 C   0  0  0  0  0  0  0  0  0  0  0  0
   -7.3519   -0.1503    0.6153 C   0  0  0  0  0  0  0  0  0  0  0  0
   -8.0529    1.0457    0.7697 C   0  0  0  0  0  0  0  0  0  0  0  0
   -9.8083   -0.2218    1.7532 C   0  0  0  0  0  0  0  0  0  0  0  0
    2.0288    0.0351    0.8611 H   0  0  0  0  0  0  0  0  0  0  0  0
    2.5050   -2.5804    1.0389 H   0  0  0  0  0  0  0  0  0  0  0  0
    0.8626   -0.0092   -1.2234 H   0  0  0  0  0  0  0  0  0  0  0  0
   -0.1883    0.6350   -0.0216 H   0  0  0  0  0  0  0  0  0  0  0  0
   -1.4810   -1.4547    0.0877 H   0  0  0  0  0  0  0  0  0  0  0  0
    0.1398   -2.0173    2.0690 H   0  0  0  0  0  0  0  0  0  0  0  0
    2.7033   -1.2452   -1.6884 H   0  0  0  0  0  0  0  0  0  0  0  0
    3.6784   -2.5943   -1.1538 H   0  0  0  0  0  0  0  0  0  0  0  0
    1.4999   -4.0527   -0.5612 H   0  0  0  0  0  0  0  0  0  0  0  0
   -2.0473   -1.7173   -2.4414 H   0  0  0  0  0  0  0  0  0  0  0  0
   -0.7489   -0.5824   -2.7558 H   0  0  0  0  0  0  0  0  0  0  0  0
    5.6016   -2.2181    0.1422 H   0  0  0  0  0  0  0  0  0  0  0  0
    4.5194   -1.9385    1.5091 H   0  0  0  0  0  0  0  0  0  0  0  0
    4.1221    0.5654   -1.8488 H   0  0  0  0  0  0  0  0  0  0  0  0
    5.3648   -0.6928   -1.9072 H   0  0  0  0  0  0  0  0  0  0  0  0
    2.2628   -0.1452    3.2262 H   0  0  0  0  0  0  0  0  0  0  0  0
    2.4106   -1.9014    3.0536 H   0  0  0  0  0  0  0  0  0  0  0  0
    1.2185   -1.2272    4.1540 H   0  0  0  0  0  0  0  0  0  0  0  0
    0.0048    1.0298    2.2520 H   0  0  0  0  0  0  0  0  0  0  0  0
   -0.7560   -0.0757    3.3886 H   0  0  0  0  0  0  0  0  0  0  0  0
   -1.2980   -0.0716    1.7349 H   0  0  0  0  0  0  0  0  0  0  0  0
    5.5041    0.2325    1.9833 H   0  0  0  0  0  0  0  0  0  0  0  0
    6.7471   -1.0247    1.9270 H   0  0  0  0  0  0  0  0  0  0  0  0
    6.3433    1.4770   -1.4354 H   0  0  0  0  0  0  0  0  0  0  0  0
    5.2682    1.7573   -0.0627 H   0  0  0  0  0  0  0  0  0  0  0  0
   -2.0043   -3.8206   -0.9233 H   0  0  0  0  0  0  0  0  0  0  0  0
   -0.6009   -4.8457   -1.2112 H   0  0  0  0  0  0  0  0  0  0  0  0
   -1.1392   -3.7453   -2.4800 H   0  0  0  0  0  0  0  0  0  0  0  0
    8.2448    0.7558    1.7049 H   0  0  0  0  0  0  0  0  0  0  0  0
    7.2028    2.1017    1.3069 H   0  0  0  0  0  0  0  0  0  0  0  0
    8.2973    2.1513   -1.0112 H   0  0  0  0  0  0  0  0  0  0  0  0
    9.3209    0.7898   -0.4954 H   0  0  0  0  0  0  0  0  0  0  0  0
   11.3006    3.7199    0.1026 H   0  0  0  0  0  0  0  0  0  0  0  0
   10.2143    3.5220   -1.2887 H   0  0  0  0  0  0  0  0  0  0  0  0
   11.2575    2.1635   -0.7525 H   0  0  0  0  0  0  0  0  0  0  0  0
   -5.7991    3.1981   -0.5710 H   0  0  0  0  0  0  0  0  0  0  0  0
   -5.5691   -1.0971   -0.0723 H   0  0  0  0  0  0  0  0  0  0  0  0
   -8.0289    3.1810    0.4576 H   0  0  0  0  0  0  0  0  0  0  0  0
   -7.7321   -1.1174    0.9260 H   0  0  0  0  0  0  0  0  0  0  0  0
  -10.7989   -0.0389    2.1822 H   0  0  0  0  0  0  0  0  0  0  0  0
   -9.1951   -0.6675    2.5437 H   0  0  0  0  0  0  0  0  0  0  0  0
   -9.9479   -0.8994    0.9040 H   0  0  0  0  0  0  0  0  0  0  0  0
  1 24  1  0  0  0  0
  1 27  1  0  0  0  0
  2 26  1  0  0  0  0
  2 29  1  0  0  0  0
  3 34  1  0  0  0  0
  3 35  1  0  0  0  0
  4 13  1  0  0  0  0
  4 17  1  0  0  0  0
  4 18  1  0  0  0  0
  5 21  1  0  0  0  0
  5 22  1  0  0  0  0
  5 25  1  0  0  0  0
  6  7  1  0  0  0  0
  6 24  2  0  0  0  0
  7 27  2  0  0  0  0
  8  9  1  0  0  0  0
  8 10  1  0  0  0  0
  8 12  1  0  0  0  0
  8 36  1  0  0  0  0
  9 13  1  0  0  0  0
  9 14  1  0  0  0  0
  9 37  1  0  0  0  0
 10 11  1  0  0  0  0
 10 38  1  0  0  0  0
 10 39  1  0  0  0  0
 11 15  1  0  0  0  0
 11 16  1  0  0  0  0
 11 40  1  0  0  0  0
 12 19  1  0  0  0  0
 12 20  1  0  0  0  0
 12 41  1  0  0  0  0
 13 42  1  0  0  0  0
 13 43  1  0  0  0  0
 14 15  2  0  0  0  0
 14 44  1  0  0  0  0
 15 23  1  0  0  0  0
 16 24  1  0  0  0  0
 16 45  1  0  0  0  0
 16 46  1  0  0  0  0
 17 21  1  0  0  0  0
 17 47  1  0  0  0  0
 17 48  1  0  0  0  0
 18 22  1  0  0  0  0
 18 49  1  0  0  0  0
 18 50  1  0  0  0  0
 19 51  1  0  0  0  0
 19 52  1  0  0  0  0
 19 53  1  0  0  0  0
 20 54  1  0  0  0  0
 20 55  1  0  0  0  0
 20 56  1  0  0  0  0
 21 57  1  0  0  0  0
 21 58  1  0  0  0  0
 22 59  1  0  0  0  0
 22 60  1  0  0  0  0
 23 61  1  0  0  0  0
 23 62  1  0  0  0  0
 23 63  1  0  0  0  0
 25 26  1  0  0  0  0
 25 64  1  0  0  0  0
 25 65  1  0  0  0  0
 26 66  1  0  0  0  0
 26 67  1  0  0  0  0
 27 28  1  0  0  0  0
 28 30  2  0  0  0  0
 28 31  1  0  0  0  0
 29 68  1  0  0  0  0
 29 69  1  0  0  0  0
 29 70  1  0  0  0  0
 30 32  1  0  0  0  0
 30 71  1  0  0  0  0
 31 33  2  0  0  0  0
 31 72  1  0  0  0  0
 32 34  2  0  0  0  0
 32 73  1  0  0  0  0
 33 34  1  0  0  0  0
 33 74  1  0  0  0  0
 35 75  1  0  0  0  0
 35 76  1  0  0  0  0
 35 77  1  0  0  0  0
M  END
> <PUBCHEM_COMPOUND_CID>
38030912

> <PUBCHEM_CONFORMER_RMSD>
1.2

> <PUBCHEM_CONFORMER_DIVERSEORDER>
24
11
51
102
29
35
66
56
32
98
86
77
7
103
58
89
55
62
72
88
52
92
97
67
49
93
25
38
83
14
57
28
80
95
46
30
33
34
91
16
100
54
50
101
94
44
48
74
36
21
53
63
75
73
99
5
78
61
64
84
31
6
43
39
81
37
69
108
13
42
71
59
23
70
27
40
41
68
15
60
82
96
87
4
85
9
19
104
109
20
26
17
79
90
3
22
45
105
47
65
76
107
8
10
18
106
12
1
2

> <PUBCHEM_MMFF94_PARTIAL_CHARGES>
35
1 -0.28
11 0.14
13 0.27
14 -0.29
15 -0.28
16 0.18
17 0.27
18 0.27
2 -0.56
21 0.27
22 0.27
23 0.14
24 0.3
25 0.27
26 0.28
27 0.43
28 0.05
29 0.28
3 -0.36
30 -0.15
31 -0.15
32 -0.15
33 -0.15
34 0.08
35 0.28
4 -0.81
44 0.15
5 -0.81
6 -0.34
7 -0.34
71 0.15
72 0.15
73 0.15
74 0.15
9 0.14

> <PUBCHEM_EFFECTIVE_ROTOR_COUNT>
12

> <PUBCHEM_PHARMACOPHORE_FEATURES>
9
1 2 acceptor
1 3 acceptor
1 4 cation
1 5 cation
3 12 19 20 hydrophobe
5 1 6 7 24 27 rings
6 28 30 31 32 33 34 rings
6 4 5 17 18 21 22 rings
6 8 9 10 11 14 15 rings

> <PUBCHEM_HEAVY_ATOM_COUNT>
35

> <PUBCHEM_ATOM_DEF_STEREO_COUNT>
3

> <PUBCHEM_ATOM_UDEF_STEREO_COUNT>
0

> <PUBCHEM_BOND_DEF_STEREO_COUNT>
0

> <PUBCHEM_BOND_UDEF_STEREO_COUNT>
0

> <PUBCHEM_ISOTOPIC_ATOM_COUNT>
0

> <PUBCHEM_COMPONENT_COUNT>
1

> <PUBCHEM_CACTVS_TAUTO_COUNT>
1

> <PUBCHEM_CONFORMER_ID>
02444E4000000018

> <PUBCHEM_MMFF94_ENERGY>
82.5183

> <PUBCHEM_FEATURE_SELFOVERLAP>
45.674

> <PUBCHEM_SHAPE_FINGERPRINT>
10 15 18260266334756008023
10049733 35 11240001174816000634
10165383 225 18272932726383845815
10369192 42 18413103944480354965
10483366 6 14908183040574546326
106641 1 18334298661216616615
10674148 151 15482665767238779074
10917259 69 8790345321940131327
11115154 58 14549018775527162155
11135609 201 18409722946077399367
11273773 46 10375864200031964877
11828532 37 10735002064543115173
12013929 112 13398636039105685745
12202916 173 11025798678304854121
12838863 1 12107791822091553009
13692114 37 16515693220954626882
13726171 33 18265330599868691137
14068700 675 9223231862366508510
14849402 71 18413105082652683337
15183329 4 12247674955494182631
15188451 53 12757152359526329550
15198563 99 14692583104425010426
15320295 40 12252187381121006239
15347590 135 17531246132375545537
15350500 16 11674877796823886289
15475509 8 14836121031516135251
15706992 2 18335989740102013148
16126227 98 18412260657890642334
16994733 274 18409160000783091976
19302320 297 18041279963571946668
2026 5 10953750997669000569
212700 22 12107786306705419992
21304304 249 11530487713766719032
21307412 95 13542457713606471852
21521721 280 18271805692183812671
21792965 96 16558470915704357911
23559900 14 10159107568458692495
23576562 1 15050863422185821185
24771293 8 18412541032944437925
25269216 80 16701725160009787589
3986486 107 15554445201840694676
4339292 15 7925639895437854428
4340502 62 16950565428532378962
4403749 210 18408317771203772983
44426699 302 18272366418436587550
474113 269 8430320130100819064
57303763 176 7925369424399906663
57527295 17 17416946461445700606
5758199 1 18273213076184652607
5776283 40 18060414737768421376
59682541 35 17894634755514879369
6081469 158 9655576314128415528
6703917 75 18131637772579580319
9689198 14 17989208127233519255

> <PUBCHEM_SHAPE_MULTIPOLES>
682.75
30.51
3.17
2.07
9.95
1.08
-1.06
-33.02
-8.52
3.1
1.12
-0.96
0.48
-0.47

> <PUBCHEM_SHAPE_SELFOVERLAP>
1421.412

> <PUBCHEM_SHAPE_VOLUME>
388.9

> <PUBCHEM_COORDINATE_TYPE>
2
5
10

$$$$
