45360872
  -OEChem-12032416403D

 66 70  0     1  0  0  0  0  0999 V2000
    0.2337    0.6525    1.4458 O   0  0  0  0  0  0  0  0  0  0  0  0
    6.5201   -0.5950   -0.0878 O   0  0  0  0  0  0  0  0  0  0  0  0
   -1.4919   -0.9748    0.1547 N   0  0  1  0  0  0  0  0  0  0  0  0
    1.8742   -1.9886   -0.8614 N   0  0  1  0  0  0  0  0  0  0  0  0
    1.7915   -0.9768    1.8391 N   0  0  0  0  0  0  0  0  0  0  0  0
    5.6056    1.5225   -0.2186 N   0  0  0  0  0  0  0  0  0  0  0  0
   -3.9798    0.9565    0.6192 N   0  0  0  0  0  0  0  0  0  0  0  0
   -4.8958   -1.0161    0.1614 N   0  0  0  0  0  0  0  0  0  0  0  0
    0.4322   -2.2283   -0.6317 C   0  0  1  0  0  0  0  0  0  0  0  0
   -0.2350   -1.5894    0.6217 C   0  0  1  0  0  0  0  0  0  0  0  0
   -0.4743   -1.7234   -1.7698 C   0  0  0  0  0  0  0  0  0  0  0  0
   -1.8339   -1.6095   -1.1132 C   0  0  0  0  0  0  0  0  0  0  0  0
    2.7673   -2.5480    0.1915 C   0  0  2  0  0  0  0  0  0  0  0  0
    0.5965   -0.5162    1.3197 C   0  0  0  0  0  0  0  0  0  0  0  0
    2.2839   -2.3252    1.6380 C   0  0  0  0  0  0  0  0  0  0  0  0
    4.1820   -1.9425    0.0766 C   0  0  0  0  0  0  0  0  0  0  0  0
   -2.5756   -1.0683    1.1246 C   0  0  0  0  0  0  0  0  0  0  0  0
    2.2815   -2.4790   -2.1890 C   0  0  0  0  0  0  0  0  0  0  0  0
    4.1447   -0.4305   -0.0318 C   0  0  0  0  0  0  0  0  0  0  0  0
   -3.8315   -0.4026    0.6281 C   0  0  0  0  0  0  0  0  0  0  0  0
    5.5356    0.1451   -0.1165 C   0  0  0  0  0  0  0  0  0  0  0  0
    6.8739    2.2320   -0.3025 C   0  0  0  0  0  0  0  0  0  0  0  0
    4.4816    2.4525   -0.2616 C   0  0  0  0  0  0  0  0  0  0  0  0
    6.4933    3.6429   -0.7238 C   0  0  0  0  0  0  0  0  0  0  0  0
    5.1181    3.8250   -0.0941 C   0  0  0  0  0  0  0  0  0  0  0  0
   -5.2225    1.2387    0.1130 C   0  0  0  0  0  0  0  0  0  0  0  0
   -5.7744   -0.0088   -0.1651 C   0  0  0  0  0  0  0  0  0  0  0  0
   -3.0036    1.9260    1.0632 C   0  0  0  0  0  0  0  0  0  0  0  0
   -5.8909    2.4414   -0.1183 C   0  0  0  0  0  0  0  0  0  0  0  0
   -7.0691   -0.0796   -0.7065 C   0  0  0  0  0  0  0  0  0  0  0  0
   -7.1784    2.3523   -0.6576 C   0  0  0  0  0  0  0  0  0  0  0  0
   -7.7590    1.1152   -0.9472 C   0  0  0  0  0  0  0  0  0  0  0  0
    0.2709   -3.3154   -0.5640 H   0  0  0  0  0  0  0  0  0  0  0  0
   -0.4524   -2.3833    1.3485 H   0  0  0  0  0  0  0  0  0  0  0  0
   -0.5015   -2.4120   -2.6206 H   0  0  0  0  0  0  0  0  0  0  0  0
   -0.1458   -0.7386   -2.1285 H   0  0  0  0  0  0  0  0  0  0  0  0
   -2.2721   -2.6064   -0.9763 H   0  0  0  0  0  0  0  0  0  0  0  0
   -2.5083   -1.0019   -1.7248 H   0  0  0  0  0  0  0  0  0  0  0  0
    2.8570   -3.6352    0.0589 H   0  0  0  0  0  0  0  0  0  0  0  0
    3.0894   -2.4879    2.3628 H   0  0  0  0  0  0  0  0  0  0  0  0
    1.4954   -3.0397    1.8945 H   0  0  0  0  0  0  0  0  0  0  0  0
    4.7898   -2.2466    0.9394 H   0  0  0  0  0  0  0  0  0  0  0  0
    4.7028   -2.3648   -0.7916 H   0  0  0  0  0  0  0  0  0  0  0  0
   -2.8091   -2.1182    1.3483 H   0  0  0  0  0  0  0  0  0  0  0  0
   -2.2801   -0.6142    2.0777 H   0  0  0  0  0  0  0  0  0  0  0  0
    2.3547   -0.3311    2.3838 H   0  0  0  0  0  0  0  0  0  0  0  0
    3.3343   -2.2740   -2.4017 H   0  0  0  0  0  0  0  0  0  0  0  0
    1.7399   -1.9669   -2.9905 H   0  0  0  0  0  0  0  0  0  0  0  0
    2.1162   -3.5576   -2.2900 H   0  0  0  0  0  0  0  0  0  0  0  0
    3.6960    0.0234    0.8491 H   0  0  0  0  0  0  0  0  0  0  0  0
    3.5967   -0.1026   -0.9208 H   0  0  0  0  0  0  0  0  0  0  0  0
    7.5508    1.7400   -1.0072 H   0  0  0  0  0  0  0  0  0  0  0  0
    7.3292    2.2183    0.6939 H   0  0  0  0  0  0  0  0  0  0  0  0
    3.7512    2.2350    0.5219 H   0  0  0  0  0  0  0  0  0  0  0  0
    3.9999    2.3506   -1.2401 H   0  0  0  0  0  0  0  0  0  0  0  0
    7.2184    4.3918   -0.3940 H   0  0  0  0  0  0  0  0  0  0  0  0
    6.4108    3.7001   -1.8159 H   0  0  0  0  0  0  0  0  0  0  0  0
    4.5336    4.6208   -0.5635 H   0  0  0  0  0  0  0  0  0  0  0  0
    5.2276    4.0607    0.9714 H   0  0  0  0  0  0  0  0  0  0  0  0
   -2.6623    1.6532    2.0645 H   0  0  0  0  0  0  0  0  0  0  0  0
   -2.1725    1.9255    0.3540 H   0  0  0  0  0  0  0  0  0  0  0  0
   -3.4485    2.9218    1.1045 H   0  0  0  0  0  0  0  0  0  0  0  0
   -5.4477    3.4057    0.1016 H   0  0  0  0  0  0  0  0  0  0  0  0
   -7.5289   -1.0358   -0.9350 H   0  0  0  0  0  0  0  0  0  0  0  0
   -7.7373    3.2638   -0.8552 H   0  0  0  0  0  0  0  0  0  0  0  0
   -8.7614    1.0782   -1.3659 H   0  0  0  0  0  0  0  0  0  0  0  0
  1 14  2  0  0  0  0
  2 21  2  0  0  0  0
  3 10  1  0  0  0  0
  3 12  1  0  0  0  0
  3 17  1  0  0  0  0
  4  9  1  0  0  0  0
  4 13  1  0  0  0  0
  4 18  1  0  0  0  0
  5 14  1  0  0  0  0
  5 15  1  0  0  0  0
  5 46  1  0  0  0  0
  6 21  1  0  0  0  0
  6 22  1  0  0  0  0
  6 23  1  0  0  0  0
  7 20  1  0  0  0  0
  7 26  1  0  0  0  0
  7 28  1  0  0  0  0
  8 20  2  0  0  0  0
  8 27  1  0  0  0  0
  9 10  1  0  0  0  0
  9 11  1  0  0  0  0
  9 33  1  0  0  0  0
 10 14  1  0  0  0  0
 10 34  1  0  0  0  0
 11 12  1  0  0  0  0
 11 35  1  0  0  0  0
 11 36  1  0  0  0  0
 12 37  1  0  0  0  0
 12 38  1  0  0  0  0
 13 15  1  0  0  0  0
 13 16  1  0  0  0  0
 13 39  1  0  0  0  0
 15 40  1  0  0  0  0
 15 41  1  0  0  0  0
 16 19  1  0  0  0  0
 16 42  1  0  0  0  0
 16 43  1  0  0  0  0
 17 20  1  0  0  0  0
 17 44  1  0  0  0  0
 17 45  1  0  0  0  0
 18 47  1  0  0  0  0
 18 48  1  0  0  0  0
 18 49  1  0  0  0  0
 19 21  1  0  0  0  0
 19 50  1  0  0  0  0
 19 51  1  0  0  0  0
 22 24  1  0  0  0  0
 22 52  1  0  0  0  0
 22 53  1  0  0  0  0
 23 25  1  0  0  0  0
 23 54  1  0  0  0  0
 23 55  1  0  0  0  0
 24 25  1  0  0  0  0
 24 56  1  0  0  0  0
 24 57  1  0  0  0  0
 25 58  1  0  0  0  0
 25 59  1  0  0  0  0
 26 27  1  0  0  0  0
 26 29  2  0  0  0  0
 27 30  2  0  0  0  0
 28 60  1  0  0  0  0
 28 61  1  0  0  0  0
 28 62  1  0  0  0  0
 29 31  1  0  0  0  0
 29 63  1  0  0  0  0
 30 32  1  0  0  0  0
 30 64  1  0  0  0  0
 31 32  2  0  0  0  0
 31 65  1  0  0  0  0
 32 66  1  0  0  0  0
M  END
> <PUBCHEM_COMPOUND_CID>
45360872

> <PUBCHEM_CONFORMER_RMSD>
1

> <PUBCHEM_CONFORMER_DIVERSEORDER>
1
281
99
203
317
214
327
83
171
129
231
275
220
39
36
338
310
225
49
256
154
149
48
197
20
295
348
318
241
175
57
255
15
128
159
98
274
118
243
230
302
239
21
186
261
169
104
204
74
253
260
340
337
342
43
320
323
205
238
311
336
173
347
111
229
299
262
6
346
245
3
341
139
100
120
34
52
148
179
190
30
60
288
103
108
233
360
92
265
286
35
297
289
172
257
236
235
213
307
14
304
156
165
131
326
174
93
94
252
284
22
264
32
240
87
88
333
7
335
185
19
170
279
24
181
349
75
306
312
237
345
141
322
25
344
339
285
97
11
41
142
182
206
251
157
184
258
77
4
263
195
259
357
145
280
283
207
234
162
267
352
45
146
144
226
106
37
177
40
110
13
198
23
254
324
132
18
351
123
298
211
163
79
328
321
61
138
133
270
355
166
287
334
63
278
62
29
70
28
362
208
31
222
358
301
224
33
58
64
8
246
353
5
178
59
189
248
216
44
10
223
294
293
277
53
124
46
249
160
219
27
316
276
143
115
303
69
268
180
51
73
188
329
161
250
16
147
119
78
76
305
47
153
193
86
273
134
266
109
82
300
152
151
122
309
244
55
331
105
164
209
217
199
201
313
67
212
12
112
9
227
215
325
272
114
116
71
117
121
191
361
135
196
81
136
218
56
158
202
319
96
65
308
271
84
80
89
42
315
68
167
194
354
95
314
291
85
72
126
155
343
176
125
90
54
91
330
130
232
50
247
221
26
127
2
292
332
140
210
150
168
137
66
102
359
200
101
350
187
356
113
107
38
242
192
17
269
228
290
183
282
296

> <PUBCHEM_MMFF94_PARTIAL_CHARGES>
33
1 -0.57
10 0.33
12 0.27
13 0.27
14 0.57
15 0.3
17 0.45
18 0.27
19 0.06
2 -0.57
20 0.01
21 0.57
22 0.3
23 0.3
26 -0.15
27 0.23
28 0.26
29 -0.15
3 -0.81
30 -0.15
31 -0.15
32 -0.15
4 -0.81
46 0.37
5 -0.73
6 -0.66
63 0.15
64 0.15
65 0.15
66 0.15
7 0.05
8 -0.57
9 0.27

> <PUBCHEM_EFFECTIVE_ROTOR_COUNT>
8.4

> <PUBCHEM_PHARMACOPHORE_FEATURES>
11
1 1 acceptor
1 2 acceptor
1 3 cation
1 4 cation
1 5 donor
3 7 8 20 cation
5 3 9 10 11 12 rings
5 6 22 23 24 25 rings
5 7 8 20 26 27 rings
6 26 27 29 30 31 32 rings
7 4 5 9 10 13 14 15 rings

> <PUBCHEM_HEAVY_ATOM_COUNT>
32

> <PUBCHEM_ATOM_DEF_STEREO_COUNT>
3

> <PUBCHEM_ATOM_UDEF_STEREO_COUNT>
0

> <PUBCHEM_BOND_DEF_STEREO_COUNT>
0

> <PUBCHEM_BOND_UDEF_STEREO_COUNT>
0

> <PUBCHEM_ISOTOPIC_ATOM_COUNT>
0

> <PUBCHEM_COMPONENT_COUNT>
1

> <PUBCHEM_CACTVS_TAUTO_COUNT>
3

> <PUBCHEM_CONFORMER_ID>
02B426E800000001

> <PUBCHEM_MMFF94_ENERGY>
77.5026

> <PUBCHEM_FEATURE_SELFOVERLAP>
55.968

> <PUBCHEM_SHAPE_FINGERPRINT>
10190206 1 17988376948067879456
10280341 67 18127964425245328120
10673678 19 18342178886232061790
10906281 52 17987809510374020491
11386260 185 18271531888772710094
11991303 11 17561074843734696375
12522641 24 17531235116285319426
13782708 43 9511452321780949337
13911987 19 17704077291730586219
14117953 113 18272938203026103420
14251757 52 18335134284872841217
14556957 393 17417821603855053793
14565420 104 17894907434636159650
14739800 52 18041274370458137081
14931854 50 18130519612631449896
15082195 135 18201999893632623424
15131766 46 18266451187100604300
15183329 4 17632584876217265376
15361156 5 18273209799736190967
15475509 35 8358252627768433894
15510800 12 11671785987950262324
15840311 113 18334577927593850012
15961568 22 18409167680116318141
16994733 274 18261389005221984080
17686467 74 17967532411756009135
18335252 114 18412826859572117470
19053607 189 18121213449462429000
20058555 10 18409731772399171197
20691028 202 18044658831323021252
20715895 44 18412829092849538104
20771845 171 17917712344767155327
21033648 29 17022903501937167426
21344244 181 13038895655897706637
21585482 111 18260547810013021692
21585483 110 18412544348786296816
22122407 14 18335991899884806112
23516275 100 18334011722336203228
23522609 53 17702965629835555273
23569914 2 17318403800973636741
23569943 247 11743025506239346916
27425 322 18407759257440378414
2838139 119 18409449180487779348
3411729 13 18335138700246849596
3472631 163 18411139130092091494
34797466 226 18272094851421388591
3680242 22 10809348810717823845
4169191 19 18410577280014405077
4258327 124 18343864442242904039
44880568 143 18199751337411024005
6328613 192 18411135831778429385
99344 41 18336263530865766540

> <PUBCHEM_SHAPE_MULTIPOLES>
616.92
20.67
3.99
1.42
11.87
2.7
0.08
20.61
4.79
-6.28
0.82
-0.1
-0.86
-0.46

> <PUBCHEM_SHAPE_SELFOVERLAP>
1321.958

> <PUBCHEM_SHAPE_VOLUME>
341.5

> <PUBCHEM_COORDINATE_TYPE>
2
5
10

$$$$
