75536973
  -OEChem-12032416323D

 42 44  0     1  0  0  0  0  0999 V2000
    1.6417   -2.7447    0.2451 O   0  0  0  0  0  0  0  0  0  0  0  0
   -4.8971   -0.7475   -1.0586 O   0  0  0  0  0  0  0  0  0  0  0  0
   -5.8474    1.3475   -0.0071 O   0  0  0  0  0  0  0  0  0  0  0  0
   -0.3256   -1.4636    0.3330 N   0  0  0  0  0  0  0  0  0  0  0  0
    1.5579   -0.5842    1.1863 N   0  0  0  0  0  0  0  0  0  0  0  0
   -2.6665   -0.2873   -0.6055 N   0  0  0  0  0  0  0  0  0  0  0  0
    4.7724    2.3230   -0.3335 N   0  0  0  0  0  0  0  0  0  0  0  0
   -0.7445   -0.2042    0.9229 C   0  0  1  0  0  0  0  0  0  0  0  0
    0.5694    0.4733    1.3043 C   0  0  0  0  0  0  0  0  0  0  0  0
   -1.6078    0.5830   -0.0596 C   0  0  0  0  0  0  0  0  0  0  0  0
   -1.3087   -2.3278   -0.2948 C   0  0  0  0  0  0  0  0  0  0  0  0
   -2.1790   -1.5157   -1.2510 C   0  0  0  0  0  0  0  0  0  0  0  0
    1.0333   -1.7280    0.5523 C   0  0  0  0  0  0  0  0  0  0  0  0
    2.9397   -0.3863    1.5643 C   0  0  0  0  0  0  0  0  0  0  0  0
   -4.0326   -0.0143   -0.5722 C   0  0  0  0  0  0  0  0  0  0  0  0
    3.7235    0.3049    0.4863 C   0  0  0  0  0  0  0  0  0  0  0  0
   -4.4478    1.2640    0.1110 C   0  0  0  0  0  0  0  0  0  0  0  0
    4.1242   -0.3767   -0.6575 C   0  0  0  0  0  0  0  0  0  0  0  0
    4.0698    1.6418    0.5992 C   0  0  0  0  0  0  0  0  0  0  0  0
    4.8485    0.2899   -1.6395 C   0  0  0  0  0  0  0  0  0  0  0  0
    5.1443    1.6275   -1.4316 C   0  0  0  0  0  0  0  0  0  0  0  0
   -6.3678    2.5256    0.6063 C   0  0  0  0  0  0  0  0  0  0  0  0
   -1.3223   -0.4542    1.8219 H   0  0  0  0  0  0  0  0  0  0  0  0
    0.8405    1.2825    0.6186 H   0  0  0  0  0  0  0  0  0  0  0  0
    0.5501    0.8547    2.3296 H   0  0  0  0  0  0  0  0  0  0  0  0
   -2.0103    1.4719    0.4293 H   0  0  0  0  0  0  0  0  0  0  0  0
   -1.0151    0.9222   -0.9183 H   0  0  0  0  0  0  0  0  0  0  0  0
   -1.9196   -2.7528    0.5096 H   0  0  0  0  0  0  0  0  0  0  0  0
   -0.8050   -3.1495   -0.8130 H   0  0  0  0  0  0  0  0  0  0  0  0
   -1.5930   -1.2024   -2.1234 H   0  0  0  0  0  0  0  0  0  0  0  0
   -3.0103   -2.1282   -1.6133 H   0  0  0  0  0  0  0  0  0  0  0  0
    3.3937   -1.3657    1.7581 H   0  0  0  0  0  0  0  0  0  0  0  0
    2.9683    0.1725    2.5066 H   0  0  0  0  0  0  0  0  0  0  0  0
   -4.1599    1.2235    1.1666 H   0  0  0  0  0  0  0  0  0  0  0  0
   -3.9819    2.1170   -0.3928 H   0  0  0  0  0  0  0  0  0  0  0  0
    3.8842   -1.4270   -0.7948 H   0  0  0  0  0  0  0  0  0  0  0  0
    3.7844    2.2283    1.4670 H   0  0  0  0  0  0  0  0  0  0  0  0
    5.1722   -0.2216   -2.5387 H   0  0  0  0  0  0  0  0  0  0  0  0
    5.7071    2.1926   -2.1672 H   0  0  0  0  0  0  0  0  0  0  0  0
   -7.4535    2.5273    0.4795 H   0  0  0  0  0  0  0  0  0  0  0  0
   -5.9559    3.4185    0.1264 H   0  0  0  0  0  0  0  0  0  0  0  0
   -6.1383    2.5308    1.6762 H   0  0  0  0  0  0  0  0  0  0  0  0
  1 13  2  0  0  0  0
  2 15  2  0  0  0  0
  3 17  1  0  0  0  0
  3 22  1  0  0  0  0
  4  8  1  0  0  0  0
  4 11  1  0  0  0  0
  4 13  1  0  0  0  0
  5  9  1  0  0  0  0
  5 13  1  0  0  0  0
  5 14  1  0  0  0  0
  6 10  1  0  0  0  0
  6 12  1  0  0  0  0
  6 15  1  0  0  0  0
  7 19  1  0  0  0  0
  7 21  2  0  0  0  0
  8  9  1  0  0  0  0
  8 10  1  0  0  0  0
  8 23  1  0  0  0  0
  9 24  1  0  0  0  0
  9 25  1  0  0  0  0
 10 26  1  0  0  0  0
 10 27  1  0  0  0  0
 11 12  1  0  0  0  0
 11 28  1  0  0  0  0
 11 29  1  0  0  0  0
 12 30  1  0  0  0  0
 12 31  1  0  0  0  0
 14 16  1  0  0  0  0
 14 32  1  0  0  0  0
 14 33  1  0  0  0  0
 15 17  1  0  0  0  0
 16 18  1  0  0  0  0
 16 19  2  0  0  0  0
 17 34  1  0  0  0  0
 17 35  1  0  0  0  0
 18 20  2  0  0  0  0
 18 36  1  0  0  0  0
 19 37  1  0  0  0  0
 20 21  1  0  0  0  0
 20 38  1  0  0  0  0
 21 39  1  0  0  0  0
 22 40  1  0  0  0  0
 22 41  1  0  0  0  0
 22 42  1  0  0  0  0
M  END
> <PUBCHEM_COMPOUND_CID>
75536973

> <PUBCHEM_CONFORMER_RMSD>
0.8

> <PUBCHEM_CONFORMER_DIVERSEORDER>
1
168
67
23
167
70
125
81
107
36
52
64
62
157
154
65
85
39
61
34
173
79
109
131
94
142
127
143
136
51
172
16
163
156
97
150
114
148
5
160
56
9
128
43
103
32
138
13
4
89
10
96
72
92
99
174
152
57
149
22
146
48
130
42
106
77
6
98
27
73
121
29
93
12
100
84
153
45
159
169
33
68
155
124
129
78
59
140
90
31
134
69
164
115
123
132
14
17
82
161
166
41
3
25
112
108
91
139
137
110
66
105
15
19
111
116
20
135
144
113
120
37
2
60
55
126
165
80
24
102
63
158
21
75
46
18
141
83
35
151
50
71
28
74
101
88
133
11
170
122
26
145
47
162
118
49
30
8
86
53
119
7
54
171
147
95
76
58
104
40
44
38
87
117

> <PUBCHEM_MMFF94_PARTIAL_CHARGES>
26
1 -0.57
10 0.3
11 0.3
12 0.3
13 0.69
14 0.44
15 0.57
16 -0.14
17 0.34
18 -0.15
19 0.16
2 -0.57
20 -0.15
21 0.16
22 0.28
3 -0.56
36 0.15
37 0.15
38 0.15
39 0.15
4 -0.66
5 -0.66
6 -0.66
7 -0.62
8 0.3
9 0.3

> <PUBCHEM_EFFECTIVE_ROTOR_COUNT>
6.2

> <PUBCHEM_PHARMACOPHORE_FEATURES>
7
1 1 acceptor
1 2 acceptor
1 3 acceptor
1 7 acceptor
5 4 5 8 9 13 rings
6 4 6 8 10 11 12 rings
6 7 16 18 19 20 21 rings

> <PUBCHEM_HEAVY_ATOM_COUNT>
22

> <PUBCHEM_ATOM_DEF_STEREO_COUNT>
1

> <PUBCHEM_ATOM_UDEF_STEREO_COUNT>
0

> <PUBCHEM_BOND_DEF_STEREO_COUNT>
0

> <PUBCHEM_BOND_UDEF_STEREO_COUNT>
0

> <PUBCHEM_ISOTOPIC_ATOM_COUNT>
0

> <PUBCHEM_COMPONENT_COUNT>
1

> <PUBCHEM_CACTVS_TAUTO_COUNT>
1

> <PUBCHEM_CONFORMER_ID>
04809A4D00000001

> <PUBCHEM_MMFF94_ENERGY>
52.9355

> <PUBCHEM_FEATURE_SELFOVERLAP>
35.638

> <PUBCHEM_SHAPE_FINGERPRINT>
10378564 45 17418093178868361940
10498660 4 18336548338963140152
10554248 39 18122887765057248751
10753850 27 10447922872180166189
11796584 16 13758068602101779581
12390115 104 18131356293919410035
12555020 224 13614518567609077141
12616971 3 18114166515365111042
12633257 1 13768206164161515012
12788726 201 17489029232612864617
12839892 36 11674873390499041289
12892183 10 12324506663295165094
12954195 1 16773247179978760249
13782708 43 12391212934673984197
13955234 65 17459182984955382938
1420 369 11167950160198633804
14251740 57 7853583430581225968
14251764 75 16807600488907722084
14366163 111 18412545418475369976
14528608 73 18410570703960142781
14790565 3 18341332202313045737
14840074 17 18040721359481636293
15163728 17 18187376466799256414
15183329 4 16415485926190679265
15188451 53 9583524178756823436
15210252 30 18408885170237423744
15342168 16 18261108560889679287
15475509 8 16773530884207203241
15575132 122 18260828151471722437
15885798 251 10735886079548377890
1601671 61 18411131407814642305
17857418 61 9943517518933246145
17959699 21 18412828001421507772
1813 80 12175627286972779466
18222031 100 9007060201143619714
193927 3 12822749288017291836
20567600 234 14707220941032234597
20621476 91 13840276922269404705
20645477 70 15051449470430584266
20871999 31 18198901590177589878
21315764 119 17774734068951869524
21637258 2 12823022989161199532
22079108 93 16515687757892868849
2215653 11 16056879122117539589
23366157 5 18119519951640240651
23559900 14 17845933056763384640
2838139 119 17749382698449587884
3004659 81 18130787816085038086
312425 54 11963653496478572413
3472631 163 18410013273082096708
34797466 226 16199568295520620649
4058900 60 18127140684660512779
474 4 17458060499789691062
4990 188 17418086641775208682
5104073 3 17822003241997592090
56616090 163 18410018727553502967
59682541 52 15984822580441674925
633830 44 18412256268339289062
6438161 24 8285902555623115425
76465 3 10015864288634167075
8988823 20 10591747775874100050
960060 61 16200434697614185808

> <PUBCHEM_SHAPE_MULTIPOLES>
415.22
13.55
2.48
1.37
9.06
0.17
-0.07
-11.44
-3.79
0.77
-0.03
-1.23
0
-1.55

> <PUBCHEM_SHAPE_SELFOVERLAP>
871.631

> <PUBCHEM_SHAPE_VOLUME>
233.2

> <PUBCHEM_COORDINATE_TYPE>
2
5
10

$$$$
