51137113
  -OEChem-12032416243D

 40 43  0     1  0  0  0  0  0999 V2000
   -6.0900    2.0407    0.5471 F   0  0  0  0  0  0  0  0  0  0  0  0
   -7.3272   -0.3971    0.4951 F   0  0  0  0  0  0  0  0  0  0  0  0
   -1.0388   -0.4203   -0.1645 N   0  0  1  0  0  0  0  0  0  0  0  0
    3.6257   -1.2992    0.4909 N   0  0  0  0  0  0  0  0  0  0  0  0
    3.0209    0.7609   -0.0839 N   0  0  0  0  0  0  0  0  0  0  0  0
    1.1601   -0.8319    0.5389 C   0  0  1  0  0  0  0  0  0  0  0  0
    0.4204   -0.0156    1.6130 C   0  0  0  0  0  0  0  0  0  0  0  0
    0.2878   -0.7019   -0.7171 C   0  0  0  0  0  0  0  0  0  0  0  0
   -0.8038    0.5500    0.9047 C   0  0  0  0  0  0  0  0  0  0  0  0
    2.5952   -0.4202    0.3047 C   0  0  0  0  0  0  0  0  0  0  0  0
   -1.9652    0.0774   -1.1708 C   0  0  0  0  0  0  0  0  0  0  0  0
   -3.3979   -0.0497   -0.7256 C   0  0  0  0  0  0  0  0  0  0  0  0
    4.7940   -0.6416    0.2032 C   0  0  0  0  0  0  0  0  0  0  0  0
    4.3900    0.6421   -0.1528 C   0  0  0  0  0  0  0  0  0  0  0  0
   -4.0940    1.0765   -0.2866 C   0  0  0  0  0  0  0  0  0  0  0  0
   -4.0291   -1.2932   -0.7525 C   0  0  0  0  0  0  0  0  0  0  0  0
    6.1290   -1.0472    0.2234 C   0  0  0  0  0  0  0  0  0  0  0  0
    5.3621    1.5907   -0.5131 C   0  0  0  0  0  0  0  0  0  0  0  0
    7.0830   -0.0904   -0.1382 C   0  0  0  0  0  0  0  0  0  0  0  0
    6.7086    1.2057   -0.5002 C   0  0  0  0  0  0  0  0  0  0  0  0
   -5.4215    0.9592    0.1256 C   0  0  0  0  0  0  0  0  0  0  0  0
   -5.3565   -1.4106   -0.3401 C   0  0  0  0  0  0  0  0  0  0  0  0
   -6.0528   -0.2843    0.0987 C   0  0  0  0  0  0  0  0  0  0  0  0
    1.1477   -1.8835    0.8607 H   0  0  0  0  0  0  0  0  0  0  0  0
    0.1100   -0.6825    2.4272 H   0  0  0  0  0  0  0  0  0  0  0  0
    1.0308    0.7812    2.0511 H   0  0  0  0  0  0  0  0  0  0  0  0
    0.2954   -1.6273   -1.3033 H   0  0  0  0  0  0  0  0  0  0  0  0
    0.6345    0.1163   -1.3623 H   0  0  0  0  0  0  0  0  0  0  0  0
   -1.6510    0.6333    1.5926 H   0  0  0  0  0  0  0  0  0  0  0  0
   -0.5720    1.5477    0.5099 H   0  0  0  0  0  0  0  0  0  0  0  0
   -1.7363    1.1095   -1.4693 H   0  0  0  0  0  0  0  0  0  0  0  0
   -1.8672   -0.5148   -2.0917 H   0  0  0  0  0  0  0  0  0  0  0  0
    3.5448   -2.2628    0.7876 H   0  0  0  0  0  0  0  0  0  0  0  0
   -3.6139    2.0510   -0.2592 H   0  0  0  0  0  0  0  0  0  0  0  0
   -3.4976   -2.1782   -1.0924 H   0  0  0  0  0  0  0  0  0  0  0  0
    6.4171   -2.0537    0.5048 H   0  0  0  0  0  0  0  0  0  0  0  0
    5.0813    2.6002   -0.7958 H   0  0  0  0  0  0  0  0  0  0  0  0
    8.1359   -0.3615   -0.1370 H   0  0  0  0  0  0  0  0  0  0  0  0
    7.4731    1.9274   -0.7763 H   0  0  0  0  0  0  0  0  0  0  0  0
   -5.8483   -2.3786   -0.3606 H   0  0  0  0  0  0  0  0  0  0  0  0
  1 21  1  0  0  0  0
  2 23  1  0  0  0  0
  3  8  1  0  0  0  0
  3  9  1  0  0  0  0
  3 11  1  0  0  0  0
  4 10  1  0  0  0  0
  4 13  1  0  0  0  0
  4 33  1  0  0  0  0
  5 10  2  0  0  0  0
  5 14  1  0  0  0  0
  6  7  1  0  0  0  0
  6  8  1  0  0  0  0
  6 10  1  0  0  0  0
  6 24  1  0  0  0  0
  7  9  1  0  0  0  0
  7 25  1  0  0  0  0
  7 26  1  0  0  0  0
  8 27  1  0  0  0  0
  8 28  1  0  0  0  0
  9 29  1  0  0  0  0
  9 30  1  0  0  0  0
 11 12  1  0  0  0  0
 11 31  1  0  0  0  0
 11 32  1  0  0  0  0
 12 15  2  0  0  0  0
 12 16  1  0  0  0  0
 13 14  1  0  0  0  0
 13 17  2  0  0  0  0
 14 18  2  0  0  0  0
 15 21  1  0  0  0  0
 15 34  1  0  0  0  0
 16 22  2  0  0  0  0
 16 35  1  0  0  0  0
 17 19  1  0  0  0  0
 17 36  1  0  0  0  0
 18 20  1  0  0  0  0
 18 37  1  0  0  0  0
 19 20  2  0  0  0  0
 19 38  1  0  0  0  0
 20 39  1  0  0  0  0
 21 23  2  0  0  0  0
 22 23  1  0  0  0  0
 22 40  1  0  0  0  0
M  END
> <PUBCHEM_COMPOUND_CID>
51137113

> <PUBCHEM_CONFORMER_RMSD>
0.8

> <PUBCHEM_CONFORMER_DIVERSEORDER>
1
25
22
35
29
18
3
26
30
11
34
28
19
17
21
24
14
20
39
10
27
5
36
7
9
23
38
2
31
33
6
4
13
15
8
32
12
16
37

> <PUBCHEM_MMFF94_PARTIAL_CHARGES>
30
1 -0.19
10 0.01
11 0.41
12 -0.14
13 -0.15
14 0.23
15 -0.15
16 -0.15
17 -0.15
18 -0.15
19 -0.15
2 -0.19
20 -0.15
21 0.19
22 -0.15
23 0.19
3 -0.81
33 0.27
34 0.15
35 0.15
36 0.15
37 0.15
38 0.15
39 0.15
4 0.03
40 0.15
5 -0.57
6 0.18
8 0.27
9 0.27

> <PUBCHEM_EFFECTIVE_ROTOR_COUNT>
4

> <PUBCHEM_PHARMACOPHORE_FEATURES>
7
1 3 cation
1 4 donor
3 4 5 10 cation
5 3 6 7 8 9 rings
5 4 5 10 13 14 rings
6 12 15 16 21 22 23 rings
6 13 14 17 18 19 20 rings

> <PUBCHEM_HEAVY_ATOM_COUNT>
23

> <PUBCHEM_ATOM_DEF_STEREO_COUNT>
1

> <PUBCHEM_ATOM_UDEF_STEREO_COUNT>
0

> <PUBCHEM_BOND_DEF_STEREO_COUNT>
0

> <PUBCHEM_BOND_UDEF_STEREO_COUNT>
0

> <PUBCHEM_ISOTOPIC_ATOM_COUNT>
0

> <PUBCHEM_COMPONENT_COUNT>
1

> <PUBCHEM_CACTVS_TAUTO_COUNT>
1

> <PUBCHEM_CONFORMER_ID>
030C4A5900000001

> <PUBCHEM_MMFF94_ENERGY>
44.1756

> <PUBCHEM_FEATURE_SELFOVERLAP>
35.63

> <PUBCHEM_SHAPE_FINGERPRINT>
10299344 5 18413107277528242487
10595046 47 18408319973450779002
106641 1 12973892533101298036
10835480 77 12607104250052611162
11315181 36 18334013904953515605
11524674 6 16200431403463967735
11646440 116 16443068292117834636
11719270 70 17704071759923895310
12091667 2 18059853974443658231
12166972 35 18113901563681976404
12236239 1 18413387635807837142
12516196 113 9799691498020353286
12730499 353 17603303735535957114
12788726 201 17346321444826511666
12916748 109 16587738725260391660
13167372 99 18410011001313460872
13533116 47 16878214269965069810
14123256 10 16660361485138380299
1420 363 16660645150253103703
14251752 14 17989205936626176680
14251764 18 18409166623200285727
14251764 46 18335419071168999759
14849402 71 18115034128898359020
14856354 85 18201441411125697831
14933364 13 18411138039011824332
15048467 5 18411981347466782629
15183329 4 18342172263023200180
15537594 2 16558746815043170478
15716309 27 18333448742464494623
17834072 8 15698280018877991887
18006028 8 12967131614237123738
20157964 124 18260267460997346858
20281389 69 18343299275289909097
21033648 29 17749952306135171688
21792961 116 17560805394175289679
220451 1 18060134344965310678
22224240 67 16226047807691780617
23035841 295 18272650155968850491
23081809 10 18342447149562562790
23198884 109 18334576849894623027
23536379 177 18411417302206926058
23569943 247 16952519188018208130
23622692 88 13623533467676622482
2747138 104 16660653955189528141
29717793 49 18060424604151850870
3004659 81 18272088280337547422
314173 85 14908181962511511418
347723 3 17203608190095098266
34797466 226 18342464754981292220
3545911 37 17530682113322965890
397830 11 15286504186786842100
4073 2 18041565835835376562
4325135 7 18333449854797435175
4340502 62 16153423940034158410
445580 37 17917439704485164681
4463277 17 18060135453208849488
5265222 85 18059010725870731694
5283156 175 17560805408009783358
542803 24 18411976966589513334
559249 180 9583518711933440013
5758199 1 17967534579712290794
59682541 35 16009037219430234177
59755656 215 15123516891158565524
59755656 520 17676483969089191386
9996256 80 18260263045069340236

> <PUBCHEM_SHAPE_MULTIPOLES>
443.84
20.62
1.43
0.98
0.18
0.27
-0.11
2.65
0.92
0.27
0.03
0.25
0
-1.07

> <PUBCHEM_SHAPE_SELFOVERLAP>
978.505

> <PUBCHEM_SHAPE_VOLUME>
242.8

> <PUBCHEM_COORDINATE_TYPE>
2
5
10

$$$$
