7144178
  -OEChem-12032416403D

 51 55  0     1  0  0  0  0  0999 V2000
    1.7150   -3.9824    0.3985 S   0  0  0  0  0  0  0  0  0  0  0  0
   -4.9141   -0.0851    1.7460 F   0  0  0  0  0  0  0  0  0  0  0  0
   -6.6724   -1.1163    0.9584 F   0  0  0  0  0  0  0  0  0  0  0  0
   -6.4527    1.0312    0.6188 F   0  0  0  0  0  0  0  0  0  0  0  0
    4.0503    2.5492   -1.6602 O   0  0  0  0  0  0  0  0  0  0  0  0
    4.3304   -1.8579    0.8395 O   0  0  0  0  0  0  0  0  0  0  0  0
   -5.0995   -0.4287   -0.5075 O   0  0  0  0  0  0  0  0  0  0  0  0
    2.3925    1.8104   -0.1798 N   0  0  0  0  0  0  0  0  0  0  0  0
    2.4345   -0.7591    1.6550 N   0  0  0  0  0  0  0  0  0  0  0  0
    2.8421    1.5921    2.3369 C   0  0  2  0  0  0  0  0  0  0  0  0
    0.6505    0.9558    1.4177 C   0  0  2  0  0  0  0  0  0  0  0  0
    1.3434    1.8141    2.4754 C   0  0  0  0  0  0  0  0  0  0  0  0
    3.2808    2.0897    0.9583 C   0  0  0  0  0  0  0  0  0  0  0  0
    3.1924    0.1101    2.5529 C   0  0  0  0  0  0  0  0  0  0  0  0
    0.9818   -0.5325    1.6625 C   0  0  0  0  0  0  0  0  0  0  0  0
    1.0700    1.3587    0.0018 C   0  0  0  0  0  0  0  0  0  0  0  0
    0.2342    1.2633   -1.0650 C   0  0  0  0  0  0  0  0  0  0  0  0
    2.9095    2.1383   -1.4456 C   0  0  0  0  0  0  0  0  0  0  0  0
    3.1146   -1.6705    0.8436 C   0  0  0  0  0  0  0  0  0  0  0  0
    0.7341    1.5887   -2.3870 C   0  0  0  0  0  0  0  0  0  0  0  0
    1.9890    1.9867   -2.5953 C   0  0  0  0  0  0  0  0  0  0  0  0
   -1.1690    0.8178   -0.9178 C   0  0  0  0  0  0  0  0  0  0  0  0
    2.3339   -2.4715   -0.1068 C   0  0  0  0  0  0  0  0  0  0  0  0
   -1.4760   -0.5368   -0.9996 C   0  0  0  0  0  0  0  0  0  0  0  0
   -2.1721    1.7571   -0.6991 C   0  0  0  0  0  0  0  0  0  0  0  0
    2.0064   -2.1793   -1.4083 C   0  0  0  0  0  0  0  0  0  0  0  0
   -2.7992   -0.9564   -0.8614 C   0  0  0  0  0  0  0  0  0  0  0  0
   -3.4952    1.3376   -0.5608 C   0  0  0  0  0  0  0  0  0  0  0  0
   -3.8088   -0.0192   -0.6420 C   0  0  0  0  0  0  0  0  0  0  0  0
    1.2312   -3.2152   -2.0051 C   0  0  0  0  0  0  0  0  0  0  0  0
    0.9995   -4.2559   -1.1330 C   0  0  0  0  0  0  0  0  0  0  0  0
   -5.7770   -0.1339    0.7090 C   0  0  0  0  0  0  0  0  0  0  0  0
    3.3729    2.1730    3.1012 H   0  0  0  0  0  0  0  0  0  0  0  0
   -0.4276    1.0932    1.5567 H   0  0  0  0  0  0  0  0  0  0  0  0
    1.0931    2.8739    2.3411 H   0  0  0  0  0  0  0  0  0  0  0  0
    1.0064    1.5296    3.4798 H   0  0  0  0  0  0  0  0  0  0  0  0
    3.3720    3.1842    0.9963 H   0  0  0  0  0  0  0  0  0  0  0  0
    4.2843    1.7145    0.7200 H   0  0  0  0  0  0  0  0  0  0  0  0
    4.2692   -0.0465    2.4286 H   0  0  0  0  0  0  0  0  0  0  0  0
    2.9388   -0.1894    3.5771 H   0  0  0  0  0  0  0  0  0  0  0  0
    0.6216   -0.8349    2.6539 H   0  0  0  0  0  0  0  0  0  0  0  0
    0.4745   -1.1707    0.9399 H   0  0  0  0  0  0  0  0  0  0  0  0
    0.0585    1.4879   -3.2314 H   0  0  0  0  0  0  0  0  0  0  0  0
    2.3558    2.2215   -3.5874 H   0  0  0  0  0  0  0  0  0  0  0  0
   -0.7083   -1.2790   -1.1790 H   0  0  0  0  0  0  0  0  0  0  0  0
   -1.9425    2.8177   -0.6347 H   0  0  0  0  0  0  0  0  0  0  0  0
    2.3078   -1.2726   -1.9161 H   0  0  0  0  0  0  0  0  0  0  0  0
   -3.0373   -2.0145   -0.9272 H   0  0  0  0  0  0  0  0  0  0  0  0
   -4.2725    2.0788   -0.3969 H   0  0  0  0  0  0  0  0  0  0  0  0
    0.8624   -3.1975   -3.0223 H   0  0  0  0  0  0  0  0  0  0  0  0
    0.4439   -5.1636   -1.3217 H   0  0  0  0  0  0  0  0  0  0  0  0
  1 23  1  0  0  0  0
  1 31  1  0  0  0  0
  2 32  1  0  0  0  0
  3 32  1  0  0  0  0
  4 32  1  0  0  0  0
  5 18  2  0  0  0  0
  6 19  2  0  0  0  0
  7 29  1  0  0  0  0
  7 32  1  0  0  0  0
  8 13  1  0  0  0  0
  8 16  1  0  0  0  0
  8 18  1  0  0  0  0
  9 14  1  0  0  0  0
  9 15  1  0  0  0  0
  9 19  1  0  0  0  0
 10 12  1  0  0  0  0
 10 13  1  0  0  0  0
 10 14  1  0  0  0  0
 10 33  1  0  0  0  0
 11 12  1  0  0  0  0
 11 15  1  0  0  0  0
 11 16  1  0  0  0  0
 11 34  1  0  0  0  0
 12 35  1  0  0  0  0
 12 36  1  0  0  0  0
 13 37  1  0  0  0  0
 13 38  1  0  0  0  0
 14 39  1  0  0  0  0
 14 40  1  0  0  0  0
 15 41  1  0  0  0  0
 15 42  1  0  0  0  0
 16 17  2  0  0  0  0
 17 20  1  0  0  0  0
 17 22  1  0  0  0  0
 18 21  1  0  0  0  0
 19 23  1  0  0  0  0
 20 21  2  0  0  0  0
 20 43  1  0  0  0  0
 21 44  1  0  0  0  0
 22 24  2  0  0  0  0
 22 25  1  0  0  0  0
 23 26  2  0  0  0  0
 24 27  1  0  0  0  0
 24 45  1  0  0  0  0
 25 28  2  0  0  0  0
 25 46  1  0  0  0  0
 26 30  1  0  0  0  0
 26 47  1  0  0  0  0
 27 29  2  0  0  0  0
 27 48  1  0  0  0  0
 28 29  1  0  0  0  0
 28 49  1  0  0  0  0
 30 31  2  0  0  0  0
 30 50  1  0  0  0  0
 31 51  1  0  0  0  0
M  END
> <PUBCHEM_COMPOUND_CID>
7144178

> <PUBCHEM_CONFORMER_RMSD>
0.8

> <PUBCHEM_CONFORMER_DIVERSEORDER>
1
8
12
15
11
10
14
13
3
7
5
9
4
6
2

> <PUBCHEM_MMFF94_PARTIAL_CHARGES>
39
1 -0.08
11 0.14
13 0.3
14 0.3
15 0.3
16 -0.03
17 -0.03
18 0.62
19 0.71
2 -0.34
20 -0.15
21 -0.14
22 0.03
23 -0.05
24 -0.15
25 -0.15
26 -0.15
27 -0.15
28 -0.15
29 0.08
3 -0.34
30 -0.15
31 -0.11
32 1.3
4 -0.34
43 0.15
44 0.15
45 0.15
46 0.15
47 0.15
48 0.15
49 0.15
5 -0.57
50 0.15
51 0.15
6 -0.57
7 -0.36
8 -0.47
9 -0.66

> <PUBCHEM_EFFECTIVE_ROTOR_COUNT>
6

> <PUBCHEM_PHARMACOPHORE_FEATURES>
8
1 5 acceptor
1 6 acceptor
1 7 acceptor
5 1 23 26 30 31 rings
6 22 24 25 27 28 29 rings
6 8 10 11 12 13 16 rings
6 8 16 17 18 20 21 rings
6 9 10 11 12 14 15 rings

> <PUBCHEM_HEAVY_ATOM_COUNT>
32

> <PUBCHEM_ATOM_DEF_STEREO_COUNT>
2

> <PUBCHEM_ATOM_UDEF_STEREO_COUNT>
0

> <PUBCHEM_BOND_DEF_STEREO_COUNT>
0

> <PUBCHEM_BOND_UDEF_STEREO_COUNT>
0

> <PUBCHEM_ISOTOPIC_ATOM_COUNT>
0

> <PUBCHEM_COMPONENT_COUNT>
1

> <PUBCHEM_CACTVS_TAUTO_COUNT>
1

> <PUBCHEM_CONFORMER_ID>
006D02F200000001

> <PUBCHEM_MMFF94_ENERGY>
94.508

> <PUBCHEM_FEATURE_SELFOVERLAP>
42.182

> <PUBCHEM_SHAPE_FINGERPRINT>
10064457 181 18055607733461785114
11421498 54 18270978872388132160
11578080 2 16617893119283608120
12035758 1 18126538225282213882
12128747 34 17840292338458602409
12156800 1 15940671884249201150
12422481 6 18046873135929125336
12633257 1 17702929388490001895
12778500 126 18130229246876894449
13533116 47 18201443558910116747
13583140 156 17773291509886468557
14863182 85 18409443717558534016
15324884 4 17613669858301152504
15392192 104 18262816185033182699
15721738 202 18336840701196799144
17974551 9 16911412781508198040
1813 80 17896883157777130197
19301679 30 18260555529017843377
1979834 28 18410006654800906019
20578428 11 16879092878429088655
20600515 1 17406280927697916844
20764821 26 18115875259957780883
20775530 9 17908697337182911022
21421861 104 18059582347357406809
23559900 14 18261960622783262951
239999 70 17530684329130620865
3117164 225 17842565042204678329
35225 105 17053549214126982558
44317340 157 8214133080838686635
460360 51 17914904141068037177
563151 248 17971740319775418440
57527452 28 18410583860347174470
57527585 103 16685969897087158614
6287921 2 18410282601759444606
6669772 16 16878520050146085188
6823239 73 17821730503163676249

> <PUBCHEM_SHAPE_MULTIPOLES>
613
9.7
4.13
2.58
22.23
4.67
0.1
-0.35
4.11
-4.83
-1.48
-2.08
-1.22
-0.04

> <PUBCHEM_SHAPE_SELFOVERLAP>
1343.482

> <PUBCHEM_SHAPE_VOLUME>
333.8

> <PUBCHEM_COORDINATE_TYPE>
2
5
10

$$$$
