11943018
  -OEChem-12032416153D

 57 61  0     1  0  0  0  0  0999 V2000
    0.0139    3.0391    1.0562 O   0  0  0  0  0  0  0  0  0  0  0  0
   -0.6700    1.5284   -1.5871 O   0  0  0  0  0  0  0  0  0  0  0  0
    4.0490    1.6145    0.4612 O   0  0  0  0  0  0  0  0  0  0  0  0
   -2.2935    1.0636    1.6498 N   0  0  0  0  0  0  0  0  0  0  0  0
    2.2883    0.9100   -0.8612 N   0  0  0  0  0  0  0  0  0  0  0  0
   -3.6014   -0.4565    0.4315 N   0  0  0  0  0  0  0  0  0  0  0  0
   -3.3811   -0.6527    2.8232 N   0  0  0  0  0  0  0  0  0  0  0  0
    4.1427   -0.4336   -0.6821 N   0  0  0  0  0  0  0  0  0  0  0  0
   -0.7307    1.1597   -0.1989 C   0  0  1  0  0  0  0  0  0  0  0  0
    0.4613    1.7969    0.4883 C   0  0  1  0  0  0  0  0  0  0  0  0
   -1.9263    1.8037    0.4624 C   0  0  2  0  0  0  0  0  0  0  0  0
    1.4393    2.0545   -0.6352 C   0  0  2  0  0  0  0  0  0  0  0  0
   -1.3986    3.1754    0.8409 C   0  0  0  0  0  0  0  0  0  0  0  0
    0.5187    2.2991   -1.8176 C   0  0  0  0  0  0  0  0  0  0  0  0
   -4.9505   -2.0137   -0.8820 C   0  0  0  0  0  0  0  0  0  0  0  0
   -6.2964   -1.3569   -1.2076 C   0  0  0  0  0  0  0  0  0  0  0  0
   -4.1165   -1.6939   -2.1306 C   0  0  0  0  0  0  0  0  0  0  0  0
   -5.9205   -0.0540   -1.8999 C   0  0  0  0  0  0  0  0  0  0  0  0
   -4.6474   -0.3674   -2.6800 C   0  0  0  0  0  0  0  0  0  0  0  0
   -3.1166   -0.0484    1.6344 C   0  0  0  0  0  0  0  0  0  0  0  0
   -4.3999   -1.5437    0.4532 C   0  0  0  0  0  0  0  0  0  0  0  0
    3.5565    0.7713   -0.2846 C   0  0  0  0  0  0  0  0  0  0  0  0
   -4.7301   -2.2298    1.6041 C   0  0  0  0  0  0  0  0  0  0  0  0
   -4.1866   -1.7339    2.7715 C   0  0  0  0  0  0  0  0  0  0  0  0
    5.4118   -0.9425   -0.3203 C   0  0  0  0  0  0  0  0  0  0  0  0
    5.8198   -2.1674   -0.8231 C   0  0  0  0  0  0  0  0  0  0  0  0
    6.2216   -0.2055    0.5287 C   0  0  0  0  0  0  0  0  0  0  0  0
    7.0715   -2.6693   -0.4668 C   0  0  0  0  0  0  0  0  0  0  0  0
    7.4733   -0.7075    0.8848 C   0  0  0  0  0  0  0  0  0  0  0  0
    7.8983   -1.9393    0.3870 C   0  0  0  0  0  0  0  0  0  0  0  0
   -0.7119    0.0660   -0.1532 H   0  0  0  0  0  0  0  0  0  0  0  0
    0.8610    1.1876    1.3054 H   0  0  0  0  0  0  0  0  0  0  0  0
   -2.7889    1.9216   -0.2035 H   0  0  0  0  0  0  0  0  0  0  0  0
    2.0715    2.9303   -0.4539 H   0  0  0  0  0  0  0  0  0  0  0  0
   -1.5327    3.8861    0.0178 H   0  0  0  0  0  0  0  0  0  0  0  0
   -1.8621    3.5988    1.7373 H   0  0  0  0  0  0  0  0  0  0  0  0
    0.2182    3.3514   -1.8689 H   0  0  0  0  0  0  0  0  0  0  0  0
    0.9525    2.0174   -2.7819 H   0  0  0  0  0  0  0  0  0  0  0  0
   -1.8958    1.3275    2.5442 H   0  0  0  0  0  0  0  0  0  0  0  0
    1.9232    0.1387   -1.4120 H   0  0  0  0  0  0  0  0  0  0  0  0
   -5.0716   -3.1031   -0.8195 H   0  0  0  0  0  0  0  0  0  0  0  0
   -6.9304   -1.1873   -0.3316 H   0  0  0  0  0  0  0  0  0  0  0  0
   -6.8547   -1.9901   -1.9086 H   0  0  0  0  0  0  0  0  0  0  0  0
   -4.2808   -2.4736   -2.8854 H   0  0  0  0  0  0  0  0  0  0  0  0
   -3.0395   -1.6566   -1.9366 H   0  0  0  0  0  0  0  0  0  0  0  0
   -5.7200    0.7265   -1.1566 H   0  0  0  0  0  0  0  0  0  0  0  0
   -6.7215    0.3107   -2.5502 H   0  0  0  0  0  0  0  0  0  0  0  0
   -4.8548   -0.4565   -3.7520 H   0  0  0  0  0  0  0  0  0  0  0  0
   -3.9130    0.4358   -2.5557 H   0  0  0  0  0  0  0  0  0  0  0  0
   -5.3741   -3.0997    1.6055 H   0  0  0  0  0  0  0  0  0  0  0  0
   -4.3902   -2.2062    3.7266 H   0  0  0  0  0  0  0  0  0  0  0  0
    3.5971   -1.0207   -1.3082 H   0  0  0  0  0  0  0  0  0  0  0  0
    5.1837   -2.7439   -1.4888 H   0  0  0  0  0  0  0  0  0  0  0  0
    5.9653    0.7531    0.9548 H   0  0  0  0  0  0  0  0  0  0  0  0
    7.4025   -3.6284   -0.8543 H   0  0  0  0  0  0  0  0  0  0  0  0
    8.1184   -0.1403    1.5497 H   0  0  0  0  0  0  0  0  0  0  0  0
    8.8730   -2.3301    0.6643 H   0  0  0  0  0  0  0  0  0  0  0  0
  1 10  1  0  0  0  0
  1 13  1  0  0  0  0
  2  9  1  0  0  0  0
  2 14  1  0  0  0  0
  3 22  2  0  0  0  0
  4 11  1  0  0  0  0
  4 20  1  0  0  0  0
  4 39  1  0  0  0  0
  5 12  1  0  0  0  0
  5 22  1  0  0  0  0
  5 40  1  0  0  0  0
  6 20  1  0  0  0  0
  6 21  2  0  0  0  0
  7 20  2  0  0  0  0
  7 24  1  0  0  0  0
  8 22  1  0  0  0  0
  8 25  1  0  0  0  0
  8 52  1  0  0  0  0
  9 10  1  0  0  0  0
  9 11  1  0  0  0  0
  9 31  1  0  0  0  0
 10 12  1  0  0  0  0
 10 32  1  0  0  0  0
 11 13  1  0  0  0  0
 11 33  1  0  0  0  0
 12 14  1  0  0  0  0
 12 34  1  0  0  0  0
 13 35  1  0  0  0  0
 13 36  1  0  0  0  0
 14 37  1  0  0  0  0
 14 38  1  0  0  0  0
 15 16  1  0  0  0  0
 15 17  1  0  0  0  0
 15 21  1  0  0  0  0
 15 41  1  0  0  0  0
 16 18  1  0  0  0  0
 16 42  1  0  0  0  0
 16 43  1  0  0  0  0
 17 19  1  0  0  0  0
 17 44  1  0  0  0  0
 17 45  1  0  0  0  0
 18 19  1  0  0  0  0
 18 46  1  0  0  0  0
 18 47  1  0  0  0  0
 19 48  1  0  0  0  0
 19 49  1  0  0  0  0
 21 23  1  0  0  0  0
 23 24  2  0  0  0  0
 23 50  1  0  0  0  0
 24 51  1  0  0  0  0
 25 26  2  0  0  0  0
 25 27  1  0  0  0  0
 26 28  1  0  0  0  0
 26 53  1  0  0  0  0
 27 29  2  0  0  0  0
 27 54  1  0  0  0  0
 28 30  2  0  0  0  0
 28 55  1  0  0  0  0
 29 30  1  0  0  0  0
 29 56  1  0  0  0  0
 30 57  1  0  0  0  0
M  END
> <PUBCHEM_COMPOUND_CID>
11943018

> <PUBCHEM_CONFORMER_RMSD>
1

> <PUBCHEM_CONFORMER_DIVERSEORDER>
1
20
176
208
199
141
106
196
169
30
126
224
15
230
223
206
93
186
179
122
211
97
67
166
39
226
82
109
148
205
43
75
117
215
218
101
139
116
162
60
143
158
149
55
231
133
182
86
72
237
225
68
232
87
190
95
193
99
90
50
184
220
213
104
161
202
100
175
150
26
64
63
85
155
5
152
207
92
195
163
236
114
178
210
66
34
123
217
233
235
227
78
120
170
119
142
173
47
77
187
31
62
140
221
25
89
57
168
41
160
189
181
145
157
103
24
154
177
197
131
192
32
229
188
12
83
28
96
165
81
185
164
76
33
125
22
171
44
65
35
234
88
9
216
6
61
222
112
36
7
153
84
147
53
56
134
151
212
38
174
183
74
111
135
51
214
129
144
23
2
14
73
130
40
69
19
191
79
146
198
107
54
203
70
127
45
200
136
80
128
138
48
108
204
110
27
219
167
18
91
228
113
159
58
124
52
21
180
156
201
98
49
137
46
121
102
4
17
42
115
105
172
118
209
59
29
37
194
94
13
71
11
132
16
10
3
8

> <PUBCHEM_MMFF94_PARTIAL_CHARGES>
36
1 -0.56
10 0.28
11 0.37
12 0.3
13 0.28
14 0.28
15 0.14
2 -0.56
20 0.72
21 0.17
22 0.69
23 -0.15
24 0.16
25 0.12
26 -0.15
27 -0.15
28 -0.15
29 -0.15
3 -0.57
30 -0.15
39 0.4
4 -0.87
40 0.37
5 -0.73
50 0.15
51 0.15
52 0.37
53 0.15
54 0.15
55 0.15
56 0.15
57 0.15
6 -0.62
7 -0.62
8 -0.55
9 0.28

> <PUBCHEM_EFFECTIVE_ROTOR_COUNT>
9.2

> <PUBCHEM_PHARMACOPHORE_FEATURES>
13
1 1 acceptor
1 2 acceptor
1 3 acceptor
1 4 donor
1 5 donor
1 6 acceptor
1 8 donor
4 4 6 7 20 cation
5 1 9 10 11 13 rings
5 15 16 17 18 19 rings
5 2 9 10 12 14 rings
6 25 26 27 28 29 30 rings
6 6 7 20 21 23 24 rings

> <PUBCHEM_HEAVY_ATOM_COUNT>
30

> <PUBCHEM_ATOM_DEF_STEREO_COUNT>
4

> <PUBCHEM_ATOM_UDEF_STEREO_COUNT>
0

> <PUBCHEM_BOND_DEF_STEREO_COUNT>
0

> <PUBCHEM_BOND_UDEF_STEREO_COUNT>
0

> <PUBCHEM_ISOTOPIC_ATOM_COUNT>
0

> <PUBCHEM_COMPONENT_COUNT>
1

> <PUBCHEM_CACTVS_TAUTO_COUNT>
9

> <PUBCHEM_CONFORMER_ID>
00B63C6A00000001

> <PUBCHEM_MMFF94_ENERGY>
83.8961

> <PUBCHEM_FEATURE_SELFOVERLAP>
66.731

> <PUBCHEM_SHAPE_FINGERPRINT>
10 15 12679463088226414478
10319926 262 15410353086529509364
10369192 42 8070024506321707841
10391435 84 18187078503664298162
10577160 103 16226339222104159820
10674148 151 17676756601155345453
10930396 42 14979964658054499579
11135609 201 10735869560908946700
11200772 48 17604140416455288869
11393246 34 18337108961060351870
11443803 9 17702116781695744121
11828042 74 17894915079229781207
12342043 65 17388838645261461979
12390115 104 9655569699879182592
12760667 363 18411136926514944359
13690498 29 14346664711332964569
13761468 95 14563631225315826535
13782708 43 18341052918223122410
13828863 39 8358269154981709405
13885169 86 9655567531063181218
14150022 121 10231170681540119333
14844126 61 18200881673486236065
14848178 5 18261961841942122944
14950920 106 16988842778754387634
15163728 17 11025794297416989904
15183329 4 16153698825892629023
15350500 16 15912747493608125341
15510800 12 18333450967046674666
15519825 34 15984810575680996446
15530120 55 15286509680488435326
17913733 40 12319467583951133492
19304152 47 13398634922260883530
19377110 9 16845570950567777236
20028762 73 18273214197271805182
21033650 10 15140956262135123773
21307412 95 17822010913067885091
21401589 2 11095880454152581628
21458453 9 14189000271453836190
22393880 68 16805600438311466441
23389318 12 18259990392936663878
23536364 44 17603586344009195057
23559900 14 17968660552655371385
2838139 119 8718553783523366274
32027 91 18338800138302046329
328310 18 12973612122543286270
38570 142 12901538027583917909
392239 28 17418379099194129666
397830 11 14045751417220671588
4098825 35 12685092557854430800
4394409 98 17022896844210858146
444735 79 13542175143497256205
474113 269 18060411413653241991
5080951 261 18130788898459352105
5104073 3 15051459258824719292
5937810 71 8862355667137794154
6431902 208 18409453566082340530
6712543 237 17060069094420011550

> <PUBCHEM_SHAPE_MULTIPOLES>
574.87
20.27
3.33
2.37
32.71
1.2
0.37
-20.57
-2.22
0.6
0.28
-5.21
-0.68
0.44

> <PUBCHEM_SHAPE_SELFOVERLAP>
1244.737

> <PUBCHEM_SHAPE_VOLUME>
312.3

> <PUBCHEM_COORDINATE_TYPE>
2
5
10

$$$$
