51137446
  -OEChem-12032416203D

 51 54  0     1  0  0  0  0  0999 V2000
   -7.5978    0.7320    0.2991 S   0  0  0  0  0  0  0  0  0  0  0  0
    2.9216   -0.7604    0.1527 O   0  0  0  0  0  0  0  0  0  0  0  0
   -7.8817    2.1423    0.5268 O   0  0  0  0  0  0  0  0  0  0  0  0
   -8.3870   -0.0170   -0.6685 O   0  0  0  0  0  0  0  0  0  0  0  0
   -1.1035   -0.8707   -0.3407 N   0  0  1  0  0  0  0  0  0  0  0  0
    3.2141   -2.9777    0.1036 N   0  0  0  0  0  0  0  0  0  0  0  0
    4.4597   -2.3811    0.0433 N   0  0  0  0  0  0  0  0  0  0  0  0
    0.8389   -2.0446    0.2493 C   0  0  1  0  0  0  0  0  0  0  0  0
    0.2377   -1.3821    1.5011 C   0  0  0  0  0  0  0  0  0  0  0  0
    0.1513   -1.3432   -0.9298 C   0  0  0  0  0  0  0  0  0  0  0  0
   -0.7271   -0.3318    0.9662 C   0  0  0  0  0  0  0  0  0  0  0  0
   -1.7716    0.1167   -1.1756 C   0  0  0  0  0  0  0  0  0  0  0  0
    2.3471   -1.9943    0.1665 C   0  0  0  0  0  0  0  0  0  0  0  0
   -3.2238    0.2707   -0.8088 C   0  0  0  0  0  0  0  0  0  0  0  0
   -4.1489   -0.6961   -1.2028 C   0  0  0  0  0  0  0  0  0  0  0  0
   -3.6439    1.3798   -0.0747 C   0  0  0  0  0  0  0  0  0  0  0  0
    4.2405   -1.0873    0.0745 C   0  0  0  0  0  0  0  0  0  0  0  0
   -5.4942   -0.5536   -0.8631 C   0  0  0  0  0  0  0  0  0  0  0  0
   -4.9892    1.5224    0.2651 C   0  0  0  0  0  0  0  0  0  0  0  0
   -5.9143    0.5558   -0.1291 C   0  0  0  0  0  0  0  0  0  0  0  0
    5.1588    0.0137    0.0400 C   0  0  0  0  0  0  0  0  0  0  0  0
    6.5309   -0.2250   -0.0392 C   0  0  0  0  0  0  0  0  0  0  0  0
    4.6802    1.3231    0.0851 C   0  0  0  0  0  0  0  0  0  0  0  0
   -7.7419   -0.0855    1.8721 C   0  0  0  0  0  0  0  0  0  0  0  0
    7.4242    0.8456   -0.0731 C   0  0  0  0  0  0  0  0  0  0  0  0
    5.5735    2.3937    0.0514 C   0  0  0  0  0  0  0  0  0  0  0  0
    6.9455    2.1550   -0.0277 C   0  0  0  0  0  0  0  0  0  0  0  0
    7.9010    3.2997   -0.0635 C   0  0  0  0  0  0  0  0  0  0  0  0
    0.5452   -3.1035    0.2540 H   0  0  0  0  0  0  0  0  0  0  0  0
   -0.3106   -2.1347    2.0815 H   0  0  0  0  0  0  0  0  0  0  0  0
    0.9880   -0.9355    2.1621 H   0  0  0  0  0  0  0  0  0  0  0  0
   -0.0268   -2.0403   -1.7558 H   0  0  0  0  0  0  0  0  0  0  0  0
    0.7534   -0.5077   -1.3108 H   0  0  0  0  0  0  0  0  0  0  0  0
   -0.2096    0.6323    0.8791 H   0  0  0  0  0  0  0  0  0  0  0  0
   -1.5846   -0.2103    1.6353 H   0  0  0  0  0  0  0  0  0  0  0  0
   -1.2574    1.0873   -1.1607 H   0  0  0  0  0  0  0  0  0  0  0  0
   -1.7441   -0.2050   -2.2265 H   0  0  0  0  0  0  0  0  0  0  0  0
   -3.8335   -1.5656   -1.7735 H   0  0  0  0  0  0  0  0  0  0  0  0
   -2.9327    2.1384    0.2411 H   0  0  0  0  0  0  0  0  0  0  0  0
   -6.1956   -1.3226   -1.1740 H   0  0  0  0  0  0  0  0  0  0  0  0
   -5.2935    2.3902    0.8434 H   0  0  0  0  0  0  0  0  0  0  0  0
    6.9263   -1.2373   -0.0761 H   0  0  0  0  0  0  0  0  0  0  0  0
    3.6186    1.5490    0.1464 H   0  0  0  0  0  0  0  0  0  0  0  0
   -7.0919    0.4138    2.5931 H   0  0  0  0  0  0  0  0  0  0  0  0
   -7.4595   -1.1334    1.7548 H   0  0  0  0  0  0  0  0  0  0  0  0
   -8.7823   -0.0146    2.1968 H   0  0  0  0  0  0  0  0  0  0  0  0
    8.4908    0.6470   -0.1366 H   0  0  0  0  0  0  0  0  0  0  0  0
    5.1887    3.4096    0.0854 H   0  0  0  0  0  0  0  0  0  0  0  0
    8.8562    3.0317    0.4007 H   0  0  0  0  0  0  0  0  0  0  0  0
    7.5074    4.1604    0.4880 H   0  0  0  0  0  0  0  0  0  0  0  0
    8.0866    3.6017   -1.0990 H   0  0  0  0  0  0  0  0  0  0  0  0
  1  3  2  0  0  0  0
  1  4  2  0  0  0  0
  1 20  1  0  0  0  0
  1 24  1  0  0  0  0
  2 13  1  0  0  0  0
  2 17  1  0  0  0  0
  5 10  1  0  0  0  0
  5 11  1  0  0  0  0
  5 12  1  0  0  0  0
  6  7  1  0  0  0  0
  6 13  2  0  0  0  0
  7 17  2  0  0  0  0
  8  9  1  0  0  0  0
  8 10  1  0  0  0  0
  8 13  1  0  0  0  0
  8 29  1  0  0  0  0
  9 11  1  0  0  0  0
  9 30  1  0  0  0  0
  9 31  1  0  0  0  0
 10 32  1  0  0  0  0
 10 33  1  0  0  0  0
 11 34  1  0  0  0  0
 11 35  1  0  0  0  0
 12 14  1  0  0  0  0
 12 36  1  0  0  0  0
 12 37  1  0  0  0  0
 14 15  2  0  0  0  0
 14 16  1  0  0  0  0
 15 18  1  0  0  0  0
 15 38  1  0  0  0  0
 16 19  2  0  0  0  0
 16 39  1  0  0  0  0
 17 21  1  0  0  0  0
 18 20  2  0  0  0  0
 18 40  1  0  0  0  0
 19 20  1  0  0  0  0
 19 41  1  0  0  0  0
 21 22  2  0  0  0  0
 21 23  1  0  0  0  0
 22 25  1  0  0  0  0
 22 42  1  0  0  0  0
 23 26  2  0  0  0  0
 23 43  1  0  0  0  0
 24 44  1  0  0  0  0
 24 45  1  0  0  0  0
 24 46  1  0  0  0  0
 25 27  2  0  0  0  0
 25 47  1  0  0  0  0
 26 27  1  0  0  0  0
 26 48  1  0  0  0  0
 27 28  1  0  0  0  0
 28 49  1  0  0  0  0
 28 50  1  0  0  0  0
 28 51  1  0  0  0  0
M  END
> <PUBCHEM_COMPOUND_CID>
51137446

> <PUBCHEM_CONFORMER_RMSD>
0.8

> <PUBCHEM_CONFORMER_DIVERSEORDER>
1
84
100
70
81
76
44
97
24
77
123
141
17
32
4
2
136
99
57
85
152
63
144
90
122
121
11
82
129
139
101
15
78
135
22
143
127
13
92
151
60
150
73
137
72
115
18
107
23
95
31
103
29
28
145
110
79
54
109
87
80
126
149
94
96
88
140
124
27
35
69
134
119
26
58
39
106
120
86
108
30
59
16
117
133
33
111
125
55
130
102
41
128
10
112
131
19
7
42
67
91
105
83
56
118
6
46
21
49
47
146
8
114
142
36
68
34
38
20
75
51
12
98
45
53
64
50
3
89
25
138
40
104
71
65
5
148
52
43
62
48
9
14
116
66
147
132
93
37
61
74
113

> <PUBCHEM_MMFF94_PARTIAL_CHARGES>
35
1 1.2
10 0.27
11 0.27
12 0.41
13 0.3
14 -0.14
15 -0.15
16 -0.15
17 0.43
18 -0.15
19 -0.15
2 -0.28
20 -0.01
21 0.05
22 -0.15
23 -0.15
24 0.11
25 -0.15
26 -0.15
27 -0.14
28 0.14
3 -0.65
38 0.15
39 0.15
4 -0.65
40 0.15
41 0.15
42 0.15
43 0.15
47 0.15
48 0.15
5 -0.81
6 -0.34
7 -0.34
8 0.18

> <PUBCHEM_EFFECTIVE_ROTOR_COUNT>
6

> <PUBCHEM_PHARMACOPHORE_FEATURES>
7
1 3 acceptor
1 4 acceptor
1 5 cation
5 2 6 7 13 17 rings
5 5 8 9 10 11 rings
6 14 15 16 18 19 20 rings
6 21 22 23 25 26 27 rings

> <PUBCHEM_HEAVY_ATOM_COUNT>
28

> <PUBCHEM_ATOM_DEF_STEREO_COUNT>
1

> <PUBCHEM_ATOM_UDEF_STEREO_COUNT>
0

> <PUBCHEM_BOND_DEF_STEREO_COUNT>
0

> <PUBCHEM_BOND_UDEF_STEREO_COUNT>
0

> <PUBCHEM_ISOTOPIC_ATOM_COUNT>
0

> <PUBCHEM_COMPONENT_COUNT>
1

> <PUBCHEM_CACTVS_TAUTO_COUNT>
1

> <PUBCHEM_CONFORMER_ID>
030C4BA600000001

> <PUBCHEM_MMFF94_ENERGY>
54.4233

> <PUBCHEM_FEATURE_SELFOVERLAP>
35.54

> <PUBCHEM_SHAPE_FINGERPRINT>
10 15 17894348886512084555
10299344 5 18060698377872683775
10319688 67 16298386889533526592
10391435 84 17676492766115663003
10411042 1 17905605498809004098
10595046 47 18341888576307403591
10673678 19 18272091604214908246
10838868 160 18341883139306620600
11273773 42 18342735269017107068
11315181 36 18411980236214854637
11374522 155 18042128811532682876
11456790 92 18260822675472387560
11578821 258 18411134694003668557
11719270 70 13334739003357592945
1200032 147 18260828237760737336
12035758 1 16732983141230918990
12522641 24 17604702249633045002
12539765 74 18059862739781372287
12592606 108 8862943874759336481
12730499 353 18260268508505838714
12760667 363 10231764404823030518
13690498 29 17344333704045358487
13914758 101 9079118869514487871
14142895 15 18411416250367291271
14216079 64 10015588307115871740
14394314 77 18341336613319019857
14461889 52 17385733499406684907
14565420 104 18113051623966194866
14617042 71 18410860966625265397
14849402 71 18412545448598663553
14856354 85 17203606000410636543
14919807 6 12894807882940745609
14933364 13 18412544293014395439
15183329 4 17132399423075709929
15188451 53 12035442840033763534
15276724 80 18339921507351168525
15419008 91 17677041349086780037
15475509 8 14189578524681364067
15685185 35 18266742574862470324
15728490 51 18336264635241859455
1577012 14 18272927232592952479
15840311 113 18410577249447981069
16126227 98 18339360867778629998
16989713 51 16629667609338686495
16994733 274 18411415103205140433
1768 4 18336267932816536633
17857418 61 8502373351835510054
18393751 57 17748824146421305874
18608769 82 18335702796972363379
19302320 297 18115023121873014500
20105231 36 14548735128108668373
20157964 124 18410573964352211674
2026 5 9583530810376817109
21033648 29 18264199400620298320
21298829 104 18339642343336102676
21304304 249 8790889596921685528
21307412 95 12895072963405334140
21521721 280 18408324363382564275
21585481 104 16988579991460553632
22224240 67 17748826315326978155
23389318 12 18341601643308130935
23522609 53 17775297023711681705
23569917 315 10519690229867705653
23576562 1 15912460538053203697
24771293 8 18186800317925882204
25269216 80 16844718867789884061
2747138 104 17604159150991844149
2838139 119 18335128788031860926
28498 318 10375874069586650883
3004659 81 11024104348355990022
306946 40 17313369116672364653
34797466 226 18202286866136019327
3711267 37 17988932162479135281
397830 11 18114472231564774691
4073 2 18334296491604849235
4093350 32 18059862740065831806
4112364 45 17096095813460522508
4169191 19 18273213063616352669
4325135 7 18413386523353467215
437795 51 18409169926294004305
444735 82 18261396615704092541
445580 126 18411972573423441304
474113 269 10881671434176144385
5080951 261 16515683407845794755
5085150 59 13551197688765624249
5104073 3 17241879879297327489
5265222 85 17559948982234567559
5372103 7 15983677044877733848
54076057 255 17918268749158073992
5758199 1 18334294275158526911
5911458 16 18131638880407044185
59682541 35 17821452378488218945
59682541 52 17346612850832792542
6328613 192 18272932709462127673
6438161 24 8718827574408069204
9689198 14 18341899588603277653

> <PUBCHEM_SHAPE_MULTIPOLES>
547.53
26.91
2.78
1.08
12.25
0.31
-0.19
19.51
-2.34
-5.72
-0.21
1.78
-0.19
-0.64

> <PUBCHEM_SHAPE_SELFOVERLAP>
1171.33

> <PUBCHEM_SHAPE_VOLUME>
307.2

> <PUBCHEM_COORDINATE_TYPE>
2
5
10

$$$$
