26743084
  -OEChem-12032416193D

 57 60  0     1  0  0  0  0  0999 V2000
   -6.7113   -0.8065   -0.0480 S   0  0  0  0  0  0  0  0  0  0  0  0
    3.9282   -1.0429   -1.4679 O   0  0  0  0  0  0  0  0  0  0  0  0
   -4.0329   -2.7553   -0.4744 O   0  0  0  0  0  0  0  0  0  0  0  0
   -0.3934    2.0403   -0.6438 N   0  0  0  0  0  0  0  0  0  0  0  0
    4.4442   -0.1227    0.6309 N   0  0  0  0  0  0  0  0  0  0  0  0
   -2.6671   -2.7255   -0.7286 N   0  0  0  0  0  0  0  0  0  0  0  0
    1.1705   -0.4323   -1.0274 C   0  0  1  0  0  0  0  0  0  0  0  0
   -0.3117   -0.4407   -0.5833 C   0  0  2  0  0  0  0  0  0  0  0  0
    1.4592    0.8733   -1.7872 C   0  0  0  0  0  0  0  0  0  0  0  0
   -0.6901    0.8526    0.1579 C   0  0  0  0  0  0  0  0  0  0  0  0
    1.0202    2.1116   -1.0070 C   0  0  0  0  0  0  0  0  0  0  0  0
   -0.6795   -1.6667    0.2535 C   0  0  0  0  0  0  0  0  0  0  0  0
    2.1671   -0.6265    0.1216 C   0  0  0  0  0  0  0  0  0  0  0  0
   -2.1568   -1.9311    0.2166 C   0  0  0  0  0  0  0  0  0  0  0  0
    3.6072   -0.6334   -0.3571 C   0  0  0  0  0  0  0  0  0  0  0  0
   -3.1432   -1.4355    1.0869 C   0  0  0  0  0  0  0  0  0  0  0  0
   -4.3041   -1.9834    0.6089 C   0  0  0  0  0  0  0  0  0  0  0  0
    5.8492    0.0371    0.5734 C   0  0  0  0  0  0  0  0  0  0  0  0
   -5.7109   -1.9020    1.0199 C   0  0  0  0  0  0  0  0  0  0  0  0
    6.5357    0.5697    1.6645 C   0  0  0  0  0  0  0  0  0  0  0  0
    6.5474   -0.3379   -0.5744 C   0  0  0  0  0  0  0  0  0  0  0  0
    7.9205    0.7275    1.6079 C   0  0  0  0  0  0  0  0  0  0  0  0
    7.9321   -0.1801   -0.6311 C   0  0  0  0  0  0  0  0  0  0  0  0
    8.6187    0.3527    0.4601 C   0  0  0  0  0  0  0  0  0  0  0  0
   -5.7874    0.7188    0.0661 C   0  0  0  0  0  0  0  0  0  0  0  0
   -5.6013    1.3309    1.3055 C   0  0  0  0  0  0  0  0  0  0  0  0
   -5.2526    1.2976   -1.0848 C   0  0  0  0  0  0  0  0  0  0  0  0
   -4.8804    2.5218    1.3942 C   0  0  0  0  0  0  0  0  0  0  0  0
   -4.5316    2.4884   -0.9962 C   0  0  0  0  0  0  0  0  0  0  0  0
   -4.3457    3.1005    0.2434 C   0  0  0  0  0  0  0  0  0  0  0  0
    1.3126   -1.2619   -1.7341 H   0  0  0  0  0  0  0  0  0  0  0  0
   -0.9067   -0.4678   -1.5099 H   0  0  0  0  0  0  0  0  0  0  0  0
    0.9076    0.8479   -2.7375 H   0  0  0  0  0  0  0  0  0  0  0  0
    2.5129    0.9742   -2.0644 H   0  0  0  0  0  0  0  0  0  0  0  0
   -1.7636    0.8700    0.3666 H   0  0  0  0  0  0  0  0  0  0  0  0
   -0.1810    0.9178    1.1270 H   0  0  0  0  0  0  0  0  0  0  0  0
    1.6376    2.2480   -0.1117 H   0  0  0  0  0  0  0  0  0  0  0  0
    1.1744    2.9976   -1.6330 H   0  0  0  0  0  0  0  0  0  0  0  0
   -0.3556   -1.5471    1.2948 H   0  0  0  0  0  0  0  0  0  0  0  0
   -0.1635   -2.5545   -0.1352 H   0  0  0  0  0  0  0  0  0  0  0  0
    2.0043   -1.5940    0.6107 H   0  0  0  0  0  0  0  0  0  0  0  0
    2.0246    0.1447    0.8860 H   0  0  0  0  0  0  0  0  0  0  0  0
   -0.6499    2.8752   -0.1177 H   0  0  0  0  0  0  0  0  0  0  0  0
   -3.0289   -0.7805    1.9380 H   0  0  0  0  0  0  0  0  0  0  0  0
    4.0201    0.1702    1.5083 H   0  0  0  0  0  0  0  0  0  0  0  0
   -6.1663   -2.8976    0.9860 H   0  0  0  0  0  0  0  0  0  0  0  0
   -5.7914   -1.5581    2.0565 H   0  0  0  0  0  0  0  0  0  0  0  0
    6.0038    0.8660    2.5650 H   0  0  0  0  0  0  0  0  0  0  0  0
    6.0871   -0.7565   -1.4581 H   0  0  0  0  0  0  0  0  0  0  0  0
    8.4551    1.1422    2.4575 H   0  0  0  0  0  0  0  0  0  0  0  0
    8.4772   -0.4716   -1.5243 H   0  0  0  0  0  0  0  0  0  0  0  0
    9.6969    0.4755    0.4159 H   0  0  0  0  0  0  0  0  0  0  0  0
   -6.0148    0.9023    2.2149 H   0  0  0  0  0  0  0  0  0  0  0  0
   -5.3858    0.8341   -2.0592 H   0  0  0  0  0  0  0  0  0  0  0  0
   -4.7360    2.9989    2.3591 H   0  0  0  0  0  0  0  0  0  0  0  0
   -4.1133    2.9382   -1.8919 H   0  0  0  0  0  0  0  0  0  0  0  0
   -3.7830    4.0269    0.3124 H   0  0  0  0  0  0  0  0  0  0  0  0
  1 19  1  0  0  0  0
  1 25  1  0  0  0  0
  2 15  2  0  0  0  0
  3  6  1  0  0  0  0
  3 17  1  0  0  0  0
  4 10  1  0  0  0  0
  4 11  1  0  0  0  0
  4 43  1  0  0  0  0
  5 15  1  0  0  0  0
  5 18  1  0  0  0  0
  5 45  1  0  0  0  0
  6 14  2  0  0  0  0
  7  8  1  0  0  0  0
  7  9  1  0  0  0  0
  7 13  1  0  0  0  0
  7 31  1  0  0  0  0
  8 10  1  0  0  0  0
  8 12  1  0  0  0  0
  8 32  1  0  0  0  0
  9 11  1  0  0  0  0
  9 33  1  0  0  0  0
  9 34  1  0  0  0  0
 10 35  1  0  0  0  0
 10 36  1  0  0  0  0
 11 37  1  0  0  0  0
 11 38  1  0  0  0  0
 12 14  1  0  0  0  0
 12 39  1  0  0  0  0
 12 40  1  0  0  0  0
 13 15  1  0  0  0  0
 13 41  1  0  0  0  0
 13 42  1  0  0  0  0
 14 16  1  0  0  0  0
 16 17  2  0  0  0  0
 16 44  1  0  0  0  0
 17 19  1  0  0  0  0
 18 20  2  0  0  0  0
 18 21  1  0  0  0  0
 19 46  1  0  0  0  0
 19 47  1  0  0  0  0
 20 22  1  0  0  0  0
 20 48  1  0  0  0  0
 21 23  2  0  0  0  0
 21 49  1  0  0  0  0
 22 24  2  0  0  0  0
 22 50  1  0  0  0  0
 23 24  1  0  0  0  0
 23 51  1  0  0  0  0
 24 52  1  0  0  0  0
 25 26  2  0  0  0  0
 25 27  1  0  0  0  0
 26 28  1  0  0  0  0
 26 53  1  0  0  0  0
 27 29  2  0  0  0  0
 27 54  1  0  0  0  0
 28 30  2  0  0  0  0
 28 55  1  0  0  0  0
 29 30  1  0  0  0  0
 29 56  1  0  0  0  0
 30 57  1  0  0  0  0
M  END
> <PUBCHEM_COMPOUND_CID>
26743084

> <PUBCHEM_CONFORMER_RMSD>
1.2

> <PUBCHEM_CONFORMER_DIVERSEORDER>
1
125
117
149
145
53
20
57
24
141
179
9
136
167
129
22
175
152
25
61
132
153
99
114
13
77
92
67
180
35
116
78
45
164
120
124
100
162
23
138
26
178
133
28
36
80
2
96
159
101
154
137
63
86
177
166
135
84
169
42
91
147
148
56
72
64
32
73
151
160
134
95
126
174
172
112
82
83
170
16
48
176
88
121
47
49
156
31
59
122
19
155
150
104
41
75
173
68
168
60
109
97
105
110
58
90
18
44
40
85
30
127
146
11
52
5
79
33
94
140
37
158
87
93
165
7
139
119
14
171
118
103
76
39
98
74
4
21
128
54
113
70
62
81
157
111
163
161
65
27
12
50
102
6
115
51
3
10
123
142
66
46
38
106
131
89
144
15
108
69
17
43
107
29
55
143
8
71
130
34

> <PUBCHEM_MMFF94_PARTIAL_CHARGES>
40
1 -0.33
10 0.27
11 0.27
12 0.18
13 0.06
14 0.11
15 0.57
16 -0.15
17 -0.04
18 0.12
19 0.41
2 -0.57
20 -0.15
21 -0.15
22 -0.15
23 -0.15
24 -0.15
25 0.1
26 -0.15
27 -0.15
28 -0.15
29 -0.15
3 -0.02
30 -0.15
4 -0.9
43 0.36
44 0.15
45 0.37
48 0.15
49 0.15
5 -0.55
50 0.15
51 0.15
52 0.15
53 0.15
54 0.15
55 0.15
56 0.15
57 0.15
6 -0.41

> <PUBCHEM_EFFECTIVE_ROTOR_COUNT>
10.2

> <PUBCHEM_PHARMACOPHORE_FEATURES>
9
1 2 acceptor
1 4 cation
1 4 donor
1 5 donor
1 6 acceptor
5 3 6 14 16 17 rings
6 18 20 21 22 23 24 rings
6 25 26 27 28 29 30 rings
6 4 7 8 9 10 11 rings

> <PUBCHEM_HEAVY_ATOM_COUNT>
30

> <PUBCHEM_ATOM_DEF_STEREO_COUNT>
2

> <PUBCHEM_ATOM_UDEF_STEREO_COUNT>
0

> <PUBCHEM_BOND_DEF_STEREO_COUNT>
0

> <PUBCHEM_BOND_UDEF_STEREO_COUNT>
0

> <PUBCHEM_ISOTOPIC_ATOM_COUNT>
0

> <PUBCHEM_COMPONENT_COUNT>
1

> <PUBCHEM_CACTVS_TAUTO_COUNT>
2

> <PUBCHEM_CONFORMER_ID>
0198112C00000001

> <PUBCHEM_MMFF94_ENERGY>
60.5624

> <PUBCHEM_FEATURE_SELFOVERLAP>
45.672

> <PUBCHEM_SHAPE_FINGERPRINT>
100830 39 18410573972504290049
10554248 39 14979964688113683364
10625338 86 18059852883363840024
10951579 204 18268451052664943876
11434127 23 17986950761464868493
12104220 1 18341612581772688225
12838862 33 18262512595180707021
13111901 25 18187933915095036268
13383665 225 18263101989347523236
13885169 127 18411700980908145474
14294032 229 17969224443670731516
14466204 15 18334014973778068483
14856354 85 18114184155075591431
15021287 119 17022908947190938157
15119646 104 16805317778599067370
15119646 57 16127827228009617649
15183329 4 17821731645419404598
15301273 46 18343867719471729678
15328684 2 17822838806605644280
15461852 350 17703506692371962991
18336668 15 17967818249707869181
18603816 31 14851613206428986329
21792961 116 17560806490626229058
23522609 53 17313971670086627716
25147074 1 17968110754086574212
2838139 119 14908184161777633218
3383291 50 18334582377929782515
397830 11 18201714115679158088
444735 82 18266177409175474784
58083652 198 16443067243844887468
7226269 152 18343019943897615569

> <PUBCHEM_SHAPE_MULTIPOLES>
594.55
23.48
2.9
1.42
39.43
0.45
0.1
2.96
7.09
-6.86
-0.02
0.71
0.39
0.64

> <PUBCHEM_SHAPE_SELFOVERLAP>
1250.71

> <PUBCHEM_SHAPE_VOLUME>
334.4

> <PUBCHEM_COORDINATE_TYPE>
2
5
10

$$$$
