56774574
  -OEChem-12032416203D

 71 74  0     1  0  0  0  0  0999 V2000
    2.8526   -2.5062    1.7955 O   0  0  0  0  0  0  0  0  0  0  0  0
    2.6006   -1.3275   -2.2369 O   0  0  0  0  0  0  0  0  0  0  0  0
    6.1625   -2.7203    0.3672 O   0  0  0  0  0  0  0  0  0  0  0  0
    8.3799    3.7024    0.7682 O   0  0  0  0  0  0  0  0  0  0  0  0
   -4.3691   -2.2448    0.1026 O   0  0  0  0  0  0  0  0  0  0  0  0
    4.4581   -1.2059   -0.0999 N   0  0  0  0  0  0  0  0  0  0  0  0
   -3.3251   -0.1946   -0.3826 N   0  0  0  0  0  0  0  0  0  0  0  0
    3.0458   -0.8489    0.0840 C   0  0  1  0  0  0  0  0  0  0  0  0
    2.1636   -1.6082   -0.9113 C   0  0  1  0  0  0  0  0  0  0  0  0
    2.6198   -1.1299    1.5201 C   0  0  0  0  0  0  0  0  0  0  0  0
    5.1867   -0.5391   -1.1705 C   0  0  0  0  0  0  0  0  0  0  0  0
    5.0418   -2.2620    0.5971 C   0  0  0  0  0  0  0  0  0  0  0  0
    0.7102   -1.2335   -0.7708 C   0  0  0  0  0  0  0  0  0  0  0  0
    4.2316   -2.8000    1.7711 C   0  0  0  0  0  0  0  0  0  0  0  0
    6.0347    0.5879   -0.6559 C   0  0  0  0  0  0  0  0  0  0  0  0
   -9.5327    1.5837    0.2972 C   0  0  0  0  0  0  0  0  0  0  0  0
    0.3124    0.0933   -0.9357 C   0  0  0  0  0  0  0  0  0  0  0  0
   -0.2371   -2.2141   -0.4762 C   0  0  0  0  0  0  0  0  0  0  0  0
   -8.2074    0.9068    0.1964 C   0  0  0  0  0  0  0  0  0  0  0  0
   -1.0326    0.4394   -0.8062 C   0  0  0  0  0  0  0  0  0  0  0  0
   -1.5821   -1.8681   -0.3468 C   0  0  0  0  0  0  0  0  0  0  0  0
   -9.8523    1.9843    1.7708 C   0  0  0  0  0  0  0  0  0  0  0  0
   -9.6783    2.9017   -0.5335 C   0  0  0  0  0  0  0  0  0  0  0  0
  -10.6827    0.6525   -0.1971 C   0  0  0  0  0  0  0  0  0  0  0  0
   -1.9798   -0.5412   -0.5118 C   0  0  0  0  0  0  0  0  0  0  0  0
    5.4410    1.7935   -0.2817 C   0  0  0  0  0  0  0  0  0  0  0  0
    7.4166    0.4292   -0.5515 C   0  0  0  0  0  0  0  0  0  0  0  0
   -7.9739   -0.2763    0.8973 C   0  0  0  0  0  0  0  0  0  0  0  0
   -7.2017    1.4568   -0.5986 C   0  0  0  0  0  0  0  0  0  0  0  0
   -5.7289   -0.3598    0.0084 C   0  0  0  0  0  0  0  0  0  0  0  0
    6.2292    2.8402    0.1966 C   0  0  0  0  0  0  0  0  0  0  0  0
    8.2048    1.4759   -0.0733 C   0  0  0  0  0  0  0  0  0  0  0  0
   -6.7347   -0.9095    0.8034 C   0  0  0  0  0  0  0  0  0  0  0  0
   -5.9624    0.8235   -0.6924 C   0  0  0  0  0  0  0  0  0  0  0  0
    7.6111    2.6813    0.3007 C   0  0  0  0  0  0  0  0  0  0  0  0
   -4.4085   -1.0348   -0.0927 C   0  0  0  0  0  0  0  0  0  0  0  0
    9.7859    3.4721    0.8488 C   0  0  0  0  0  0  0  0  0  0  0  0
    2.9675    0.2297   -0.0838 H   0  0  0  0  0  0  0  0  0  0  0  0
    2.2904   -2.6893   -0.7786 H   0  0  0  0  0  0  0  0  0  0  0  0
    3.1927   -0.5170    2.2282 H   0  0  0  0  0  0  0  0  0  0  0  0
    1.5637   -0.9135    1.7030 H   0  0  0  0  0  0  0  0  0  0  0  0
    4.5143   -0.1305   -1.9279 H   0  0  0  0  0  0  0  0  0  0  0  0
    5.8135   -1.2791   -1.6833 H   0  0  0  0  0  0  0  0  0  0  0  0
    4.3336   -3.8902    1.7758 H   0  0  0  0  0  0  0  0  0  0  0  0
    4.6895   -2.4204    2.6922 H   0  0  0  0  0  0  0  0  0  0  0  0
    2.3498   -0.4185   -2.4713 H   0  0  0  0  0  0  0  0  0  0  0  0
    1.0299    0.8746   -1.1702 H   0  0  0  0  0  0  0  0  0  0  0  0
    0.0594   -3.2513   -0.3441 H   0  0  0  0  0  0  0  0  0  0  0  0
   -9.0768    2.6483    2.1705 H   0  0  0  0  0  0  0  0  0  0  0  0
   -9.9106    1.1105    2.4291 H   0  0  0  0  0  0  0  0  0  0  0  0
  -10.8130    2.5074    1.8424 H   0  0  0  0  0  0  0  0  0  0  0  0
   -9.5422    2.7180   -1.6057 H   0  0  0  0  0  0  0  0  0  0  0  0
   -8.9537    3.6600   -0.2143 H   0  0  0  0  0  0  0  0  0  0  0  0
  -10.6761    3.3395   -0.4079 H   0  0  0  0  0  0  0  0  0  0  0  0
  -10.7630   -0.2561    0.4097 H   0  0  0  0  0  0  0  0  0  0  0  0
  -10.5138    0.3429   -1.2352 H   0  0  0  0  0  0  0  0  0  0  0  0
  -11.6538    1.1589   -0.1505 H   0  0  0  0  0  0  0  0  0  0  0  0
   -1.3282    1.4771   -0.9387 H   0  0  0  0  0  0  0  0  0  0  0  0
   -2.2538   -2.6832   -0.1177 H   0  0  0  0  0  0  0  0  0  0  0  0
    4.3695    1.9434   -0.3689 H   0  0  0  0  0  0  0  0  0  0  0  0
    7.8922   -0.5050   -0.8385 H   0  0  0  0  0  0  0  0  0  0  0  0
   -8.7386   -0.7256    1.5244 H   0  0  0  0  0  0  0  0  0  0  0  0
   -7.3327    2.3688   -1.1704 H   0  0  0  0  0  0  0  0  0  0  0  0
   -3.5015    0.8016   -0.4754 H   0  0  0  0  0  0  0  0  0  0  0  0
    5.7616    3.7781    0.4836 H   0  0  0  0  0  0  0  0  0  0  0  0
    9.2710    1.2848   -0.0177 H   0  0  0  0  0  0  0  0  0  0  0  0
   -6.5716   -1.8277    1.3615 H   0  0  0  0  0  0  0  0  0  0  0  0
   -5.2238    1.2672   -1.3531 H   0  0  0  0  0  0  0  0  0  0  0  0
   10.2414    4.3878    1.2399 H   0  0  0  0  0  0  0  0  0  0  0  0
   10.2221    3.2954   -0.1403 H   0  0  0  0  0  0  0  0  0  0  0  0
   10.0224    2.6701    1.5562 H   0  0  0  0  0  0  0  0  0  0  0  0
  1 10  1  0  0  0  0
  1 14  1  0  0  0  0
  2  9  1  0  0  0  0
  2 46  1  0  0  0  0
  3 12  2  0  0  0  0
  4 35  1  0  0  0  0
  4 37  1  0  0  0  0
  5 36  2  0  0  0  0
  6  8  1  0  0  0  0
  6 11  1  0  0  0  0
  6 12  1  0  0  0  0
  7 25  1  0  0  0  0
  7 36  1  0  0  0  0
  7 64  1  0  0  0  0
  8  9  1  0  0  0  0
  8 10  1  0  0  0  0
  8 38  1  0  0  0  0
  9 13  1  0  0  0  0
  9 39  1  0  0  0  0
 10 40  1  0  0  0  0
 10 41  1  0  0  0  0
 11 15  1  0  0  0  0
 11 42  1  0  0  0  0
 11 43  1  0  0  0  0
 12 14  1  0  0  0  0
 13 17  2  0  0  0  0
 13 18  1  0  0  0  0
 14 44  1  0  0  0  0
 14 45  1  0  0  0  0
 15 26  2  0  0  0  0
 15 27  1  0  0  0  0
 16 19  1  0  0  0  0
 16 22  1  0  0  0  0
 16 23  1  0  0  0  0
 16 24  1  0  0  0  0
 17 20  1  0  0  0  0
 17 47  1  0  0  0  0
 18 21  2  0  0  0  0
 18 48  1  0  0  0  0
 19 28  2  0  0  0  0
 19 29  1  0  0  0  0
 20 25  2  0  0  0  0
 20 58  1  0  0  0  0
 21 25  1  0  0  0  0
 21 59  1  0  0  0  0
 22 49  1  0  0  0  0
 22 50  1  0  0  0  0
 22 51  1  0  0  0  0
 23 52  1  0  0  0  0
 23 53  1  0  0  0  0
 23 54  1  0  0  0  0
 24 55  1  0  0  0  0
 24 56  1  0  0  0  0
 24 57  1  0  0  0  0
 26 31  1  0  0  0  0
 26 60  1  0  0  0  0
 27 32  2  0  0  0  0
 27 61  1  0  0  0  0
 28 33  1  0  0  0  0
 28 62  1  0  0  0  0
 29 34  2  0  0  0  0
 29 63  1  0  0  0  0
 30 33  2  0  0  0  0
 30 34  1  0  0  0  0
 30 36  1  0  0  0  0
 31 35  2  0  0  0  0
 31 65  1  0  0  0  0
 32 35  1  0  0  0  0
 32 66  1  0  0  0  0
 33 67  1  0  0  0  0
 34 68  1  0  0  0  0
 37 69  1  0  0  0  0
 37 70  1  0  0  0  0
 37 71  1  0  0  0  0
M  END
> <PUBCHEM_COMPOUND_CID>
56774574

> <PUBCHEM_CONFORMER_RMSD>
1

> <PUBCHEM_CONFORMER_DIVERSEORDER>
1
86
66
88
17
71
35
57
76
25
77
50
63
23
80
15
87
85
32
83
74
41
89
38
84
33
90
65
39
43
6
82
8
59
72
40
9
61
70
78
94
46
49
96
27
47
69
54
37
93
56
28
42
31
92
14
51
44
67
81
55
79
18
58
7
64
2
30
11
60
26
4
53
36
29
48
5
95
52
20
68
13
24
21
16
3
91
34
62
12
75
22
45
10
73
19

> <PUBCHEM_MMFF94_PARTIAL_CHARGES>
48
1 -0.56
10 0.28
11 0.44
12 0.57
13 -0.14
14 0.34
15 -0.14
16 0.14
17 -0.15
18 -0.15
19 -0.14
2 -0.68
20 -0.15
21 -0.15
25 0.12
26 -0.15
27 -0.15
28 -0.15
29 -0.15
3 -0.57
30 0.09
31 -0.15
32 -0.15
33 -0.15
34 -0.15
35 0.08
36 0.54
37 0.28
4 -0.36
46 0.4
47 0.15
48 0.15
5 -0.57
58 0.15
59 0.15
6 -0.66
60 0.15
61 0.15
62 0.15
63 0.15
64 0.37
65 0.15
66 0.15
67 0.15
68 0.15
7 -0.55
8 0.3
9 0.42

> <PUBCHEM_EFFECTIVE_ROTOR_COUNT>
10

> <PUBCHEM_PHARMACOPHORE_FEATURES>
12
1 1 acceptor
1 2 acceptor
1 2 donor
1 3 acceptor
1 4 acceptor
1 5 acceptor
1 7 donor
4 16 22 23 24 hydrophobe
6 1 6 8 10 12 14 rings
6 13 17 18 20 21 25 rings
6 15 26 27 31 32 35 rings
6 19 28 29 30 33 34 rings

> <PUBCHEM_HEAVY_ATOM_COUNT>
37

> <PUBCHEM_ATOM_DEF_STEREO_COUNT>
2

> <PUBCHEM_ATOM_UDEF_STEREO_COUNT>
0

> <PUBCHEM_BOND_DEF_STEREO_COUNT>
0

> <PUBCHEM_BOND_UDEF_STEREO_COUNT>
0

> <PUBCHEM_ISOTOPIC_ATOM_COUNT>
0

> <PUBCHEM_COMPONENT_COUNT>
1

> <PUBCHEM_CACTVS_TAUTO_COUNT>
4

> <PUBCHEM_CONFORMER_ID>
03624FAE00000001

> <PUBCHEM_MMFF94_ENERGY>
134.8838

> <PUBCHEM_FEATURE_SELFOVERLAP>
60.899

> <PUBCHEM_SHAPE_FINGERPRINT>
10 15 18335423448679762231
10533779 47 16950550066520720512
11181472 205 18058176029442009867
11386260 185 13038897841772842314
11534866 41 16225767419357906512
11578821 258 18272371984213141041
11607047 141 18263078830684013186
11607047 74 9582931581446738506
11672396 43 7925644327379750304
11966995 178 18410016529495059644
12089408 11 18411418381066916599
12522641 24 18334854988447181586
12539765 74 18131355202212643494
12592606 108 9007066764022615156
13150687 139 13542460965170904525
13530399 1 18130231467792406617
13553643 46 18340205190305585881
14251757 52 18413951693857598002
14347424 109 18260827042752857947
14394314 77 18260829323828306783
14617042 71 18412266172634697828
14675020 138 15719106955573569002
15183329 4 13398639350662471678
15347590 135 16732975427538649012
15461852 350 17632572765633187951
1577012 14 18341889710316179863
15840311 113 18334297543945261102
16989713 51 17130976729294539687
17686467 74 18187650228758202653
19302320 297 17968655034477127140
19315958 150 18342463620931292471
2026 5 8214155048895610713
21130935 74 18114183017131440963
21792934 111 18040151790592688877
22149856 69 17530970150434848167
23576562 1 14907323308217733496
24771293 8 18335980973182043613
25269216 80 16701166637977802831
3525247 18 17551785254913613680
3711267 37 18200889443035036881
3918712 181 18342178834956237185
4093350 32 18412266121284838654
4403749 210 18341897450290741999
4561138 5 18338795603070017234
504579 68 13973960987934799295
636775 72 18338239242625757101
9937071 3 8862940572240768301

> <PUBCHEM_SHAPE_MULTIPOLES>
722.13
38.11
3.68
1.31
48.73
1.69
-0.22
39.03
-7.96
-7.95
-1.19
-0.39
-0.42
0.26

> <PUBCHEM_SHAPE_SELFOVERLAP>
1550.666

> <PUBCHEM_SHAPE_VOLUME>
396.1

> <PUBCHEM_COORDINATE_TYPE>
2
5
10

$$$$
