71693896
  -OEChem-12032416403D

 51 54  0     1  0  0  0  0  0999 V2000
    0.9536    3.8889   -1.3734 O   0  0  0  0  0  0  0  0  0  0  0  0
    3.5731    3.3199   -0.7784 O   0  0  0  0  0  0  0  0  0  0  0  0
    0.1582   -0.6551   -1.4469 O   0  0  0  0  0  0  0  0  0  0  0  0
    4.6159   -3.6673    0.1493 O   0  0  0  0  0  0  0  0  0  0  0  0
   -4.8008    0.3207    1.5884 O   0  0  0  0  0  0  0  0  0  0  0  0
   -6.0700   -1.2221   -0.4899 O   0  0  0  0  0  0  0  0  0  0  0  0
   -0.1960    1.2606   -0.1881 N   0  0  0  0  0  0  0  0  0  0  0  0
    1.9757    1.2713    1.0031 C   0  0  2  0  0  0  0  0  0  0  0  0
    1.1620    1.7413   -0.2239 C   0  0  2  0  0  0  0  0  0  0  0  0
    1.2304    3.2651   -0.1337 C   0  0  1  0  0  0  0  0  0  0  0  0
    2.9207    2.4480    1.3592 C   0  0  0  0  0  0  0  0  0  0  0  0
    2.6679    3.5215    0.3026 C   0  0  1  0  0  0  0  0  0  0  0  0
    2.6815   -0.0488    0.7754 C   0  0  0  0  0  0  0  0  0  0  0  0
    3.6151   -0.1716   -0.2536 C   0  0  0  0  0  0  0  0  0  0  0  0
    2.3980   -1.1420    1.5940 C   0  0  0  0  0  0  0  0  0  0  0  0
   -0.5895    0.0845   -0.8124 C   0  0  0  0  0  0  0  0  0  0  0  0
    4.2654   -1.3874   -0.4639 C   0  0  0  0  0  0  0  0  0  0  0  0
    3.0483   -2.3579    1.3838 C   0  0  0  0  0  0  0  0  0  0  0  0
   -2.0307   -0.2593   -0.7050 C   0  0  0  0  0  0  0  0  0  0  0  0
    3.9821   -2.4806    0.3548 C   0  0  0  0  0  0  0  0  0  0  0  0
   -2.7756    0.1941    0.3840 C   0  0  0  0  0  0  0  0  0  0  0  0
   -2.6362   -1.0384   -1.6913 C   0  0  0  0  0  0  0  0  0  0  0  0
   -4.1272   -0.1362    0.4858 C   0  0  0  0  0  0  0  0  0  0  0  0
   -3.9910   -1.3579   -1.5973 C   0  0  0  0  0  0  0  0  0  0  0  0
   -4.7398   -0.8934   -0.5158 C   0  0  0  0  0  0  0  0  0  0  0  0
   -6.0513   -0.3502    1.7654 C   0  0  0  0  0  0  0  0  0  0  0  0
   -6.7983   -0.4249    0.4480 C   0  0  0  0  0  0  0  0  0  0  0  0
    5.5588   -3.7228   -0.9203 C   0  0  0  0  0  0  0  0  0  0  0  0
    1.2908    1.1489    1.8553 H   0  0  0  0  0  0  0  0  0  0  0  0
    1.6037    1.4137   -1.1730 H   0  0  0  0  0  0  0  0  0  0  0  0
    0.5266    3.6462    0.6171 H   0  0  0  0  0  0  0  0  0  0  0  0
    2.6313    2.8370    2.3436 H   0  0  0  0  0  0  0  0  0  0  0  0
    3.9737    2.1526    1.4166 H   0  0  0  0  0  0  0  0  0  0  0  0
    2.8131    4.5385    0.6788 H   0  0  0  0  0  0  0  0  0  0  0  0
   -0.8738    1.8367    0.2985 H   0  0  0  0  0  0  0  0  0  0  0  0
    1.1084    4.8423   -1.2613 H   0  0  0  0  0  0  0  0  0  0  0  0
    4.4727    3.4571   -0.4356 H   0  0  0  0  0  0  0  0  0  0  0  0
    3.8544    0.6660   -0.9013 H   0  0  0  0  0  0  0  0  0  0  0  0
    1.6724   -1.0630    2.3990 H   0  0  0  0  0  0  0  0  0  0  0  0
    4.9792   -1.4131   -1.2801 H   0  0  0  0  0  0  0  0  0  0  0  0
    2.8230   -3.2062    2.0244 H   0  0  0  0  0  0  0  0  0  0  0  0
   -2.3272    0.7671    1.1905 H   0  0  0  0  0  0  0  0  0  0  0  0
   -2.0708   -1.3992   -2.5466 H   0  0  0  0  0  0  0  0  0  0  0  0
   -4.4570   -1.9570   -2.3749 H   0  0  0  0  0  0  0  0  0  0  0  0
   -6.6319    0.2164    2.5000 H   0  0  0  0  0  0  0  0  0  0  0  0
   -5.8581   -1.3483    2.1777 H   0  0  0  0  0  0  0  0  0  0  0  0
   -7.7775   -0.8920    0.5922 H   0  0  0  0  0  0  0  0  0  0  0  0
   -6.9542    0.5709    0.0147 H   0  0  0  0  0  0  0  0  0  0  0  0
    5.9665   -4.7389   -0.9393 H   0  0  0  0  0  0  0  0  0  0  0  0
    6.4010   -3.0436   -0.7500 H   0  0  0  0  0  0  0  0  0  0  0  0
    5.0780   -3.5532   -1.8897 H   0  0  0  0  0  0  0  0  0  0  0  0
  1 10  1  0  0  0  0
  1 36  1  0  0  0  0
  2 12  1  0  0  0  0
  2 37  1  0  0  0  0
  3 16  2  0  0  0  0
  4 20  1  0  0  0  0
  4 28  1  0  0  0  0
  5 23  1  0  0  0  0
  5 26  1  0  0  0  0
  6 25  1  0  0  0  0
  6 27  1  0  0  0  0
  7  9  1  0  0  0  0
  7 16  1  0  0  0  0
  7 35  1  0  0  0  0
  8  9  1  0  0  0  0
  8 11  1  0  0  0  0
  8 13  1  0  0  0  0
  8 29  1  0  0  0  0
  9 10  1  0  0  0  0
  9 30  1  0  0  0  0
 10 12  1  0  0  0  0
 10 31  1  0  0  0  0
 11 12  1  0  0  0  0
 11 32  1  0  0  0  0
 11 33  1  0  0  0  0
 12 34  1  0  0  0  0
 13 14  2  0  0  0  0
 13 15  1  0  0  0  0
 14 17  1  0  0  0  0
 14 38  1  0  0  0  0
 15 18  2  0  0  0  0
 15 39  1  0  0  0  0
 16 19  1  0  0  0  0
 17 20  2  0  0  0  0
 17 40  1  0  0  0  0
 18 20  1  0  0  0  0
 18 41  1  0  0  0  0
 19 21  2  0  0  0  0
 19 22  1  0  0  0  0
 21 23  1  0  0  0  0
 21 42  1  0  0  0  0
 22 24  2  0  0  0  0
 22 43  1  0  0  0  0
 23 25  2  0  0  0  0
 24 25  1  0  0  0  0
 24 44  1  0  0  0  0
 26 27  1  0  0  0  0
 26 45  1  0  0  0  0
 26 46  1  0  0  0  0
 27 47  1  0  0  0  0
 27 48  1  0  0  0  0
 28 49  1  0  0  0  0
 28 50  1  0  0  0  0
 28 51  1  0  0  0  0
M  END
> <PUBCHEM_COMPOUND_CID>
71693896

> <PUBCHEM_CONFORMER_RMSD>
0.8

> <PUBCHEM_CONFORMER_DIVERSEORDER>
1
33
26
31
9
13
28
22
17
10
32
30
12
29
2
15
19
25
24
8
6
5
18
16
14
11
23
21
3
27
4
20
7

> <PUBCHEM_MMFF94_PARTIAL_CHARGES>
37
1 -0.68
10 0.28
12 0.28
13 -0.14
14 -0.15
15 -0.15
16 0.54
17 -0.15
18 -0.15
19 0.09
2 -0.68
20 0.08
21 -0.15
22 -0.15
23 0.08
24 -0.15
25 0.08
26 0.28
27 0.28
28 0.28
3 -0.57
35 0.37
36 0.4
37 0.4
38 0.15
39 0.15
4 -0.36
40 0.15
41 0.15
42 0.15
43 0.15
44 0.15
5 -0.36
6 -0.36
7 -0.73
8 0.14
9 0.3

> <PUBCHEM_EFFECTIVE_ROTOR_COUNT>
6.8

> <PUBCHEM_PHARMACOPHORE_FEATURES>
13
1 1 acceptor
1 1 donor
1 2 acceptor
1 2 donor
1 3 acceptor
1 4 acceptor
1 5 acceptor
1 6 acceptor
1 7 donor
5 8 9 10 11 12 rings
6 13 14 15 17 18 20 rings
6 19 21 22 23 24 25 rings
6 5 6 23 25 26 27 rings

> <PUBCHEM_HEAVY_ATOM_COUNT>
28

> <PUBCHEM_ATOM_DEF_STEREO_COUNT>
4

> <PUBCHEM_ATOM_UDEF_STEREO_COUNT>
0

> <PUBCHEM_BOND_DEF_STEREO_COUNT>
0

> <PUBCHEM_BOND_UDEF_STEREO_COUNT>
0

> <PUBCHEM_ISOTOPIC_ATOM_COUNT>
0

> <PUBCHEM_COMPONENT_COUNT>
1

> <PUBCHEM_CACTVS_TAUTO_COUNT>
2

> <PUBCHEM_CONFORMER_ID>
0445F64800000001

> <PUBCHEM_MMFF94_ENERGY>
97.7808

> <PUBCHEM_FEATURE_SELFOVERLAP>
66.028

> <PUBCHEM_SHAPE_FINGERPRINT>
10554248 39 18271513270231971901
10928967 22 18263068951336319411
10951579 204 16300045967709487783
11059845 2 17129314052167658251
114674 6 18041270037021050946
12107183 9 18128262190552126097
12422481 6 18059859403282385089
12553582 1 18337659811832645242
13009979 54 17988083283793881064
13533116 47 18411135883497313627
13673619 4 18041564637249044991
13690498 29 18189336762533946230
13726171 33 13407370512648342303
13785724 45 18270970020428542438
13911852 28 18266739082394526287
13914758 101 18339634557102966973
13955234 65 18339641264871764424
14251764 30 18266179439782356722
14739800 52 17130976736734071265
14863182 85 18265320889321752248
14950920 106 18267044859192523467
15142526 21 17407948251251606849
15250474 111 17986659575292645671
16992787 43 18337679702548736700
17349148 13 17632289099663727037
17492 89 18341044203259828911
17818456 19 17775568637264164633
17844677 252 18335134302701628293
1813 80 18341899532932356686
20505436 4 17771632526906813869
20739085 24 18413670222806752180
20775530 9 18266449911395363166
21033648 29 17458610247303736677
21365058 113 18187657868202152549
22033318 11 18056225530443567753
22440779 20 17387708110853486517
2260408 40 18130492103017110322
22849341 161 18342745074184596922
22950370 63 18339927000519374790
23559900 14 18410006667738821843
25147074 1 17916579977176965879
3117164 225 18341050736115758017
3421961 26 18411412917229959264
345986 75 18272362027966363025
34797466 226 16443352009035604407
3680242 22 17988934396584113921
3737641 26 18409726223633188348
4144715 1 18113339743779512417
437795 51 18114759234148129006
4394409 98 14808846151305485358
4409770 3 17616529562900382324
4516262 110 18195240246917993173
46194498 28 17313388950071402678
54039377 194 18194969548415427622
56633871 153 17916299442171099023
57527585 103 14753691469669042382
5912855 24 17983856967698953231
6823239 73 16153431670405493881
70251023 43 18336550396331778362
7970288 3 18339638915451514662
8272917 22 18263358260190355436
8509985 295 17060336336143557377
86090 222 17385447639558509323

> <PUBCHEM_SHAPE_MULTIPOLES>
536.03
13.95
4.34
1.56
19.12
2.14
-0.14
-10.65
-2.44
-9.78
0.84
0.83
-0.2
-0.53

> <PUBCHEM_SHAPE_SELFOVERLAP>
1165.78

> <PUBCHEM_SHAPE_VOLUME>
291.8

> <PUBCHEM_COORDINATE_TYPE>
2
5
10

$$$$
