11911875
  -OEChem-12032416383D

 60 63  0     1  0  0  0  0  0999 V2000
   -5.8657   -2.2296   -1.1518 S   0  0  0  0  0  0  0  0  0  0  0  0
   -1.4076    0.7233    1.4702 O   0  0  0  0  0  0  0  0  0  0  0  0
   -2.3274    3.6998    1.2947 O   0  0  0  0  0  0  0  0  0  0  0  0
   -6.0909    0.3823    0.5206 O   0  0  0  0  0  0  0  0  0  0  0  0
   -3.2167   -4.6172    0.3934 O   0  0  0  0  0  0  0  0  0  0  0  0
   -5.0987   -5.0571   -0.8024 O   0  0  0  0  0  0  0  0  0  0  0  0
   -3.9629    0.8399   -0.2954 N   0  0  0  0  0  0  0  0  0  0  0  0
    0.5181    3.5028    0.0936 N   0  0  0  0  0  0  0  0  0  0  0  0
    2.1153    1.8411   -0.1900 N   0  0  0  0  0  0  0  0  0  0  0  0
    2.1477    3.8475   -1.5244 N   0  0  0  0  0  0  0  0  0  0  0  0
    5.2048   -3.6158    0.7148 N   0  0  0  0  0  0  0  0  0  0  0  0
   -2.4070    2.5897    0.3854 C   0  0  1  0  0  0  0  0  0  0  0  0
   -1.1310    1.7857    0.5421 C   0  0  1  0  0  0  0  0  0  0  0  0
   -3.4980    1.6356    0.8149 C   0  0  2  0  0  0  0  0  0  0  0  0
   -0.1493    2.7639    1.1429 C   0  0  2  0  0  0  0  0  0  0  0  0
   -2.7909    0.7776    1.8490 C   0  0  0  0  0  0  0  0  0  0  0  0
   -1.0480    3.6870    1.9451 C   0  0  0  0  0  0  0  0  0  0  0  0
   -5.2288    0.2760   -0.3501 C   0  0  0  0  0  0  0  0  0  0  0  0
    1.6425    3.0437   -0.5693 C   0  0  0  0  0  0  0  0  0  0  0  0
   -5.4655   -0.5258   -1.6083 C   0  0  0  0  0  0  0  0  0  0  0  0
    3.2119    1.4247   -0.8566 C   0  0  0  0  0  0  0  0  0  0  0  0
    3.2434    3.3694   -2.1500 C   0  0  0  0  0  0  0  0  0  0  0  0
    3.8248    2.1533   -1.8555 C   0  0  0  0  0  0  0  0  0  0  0  0
    3.7211    0.1357   -0.4538 C   0  0  0  0  0  0  0  0  0  0  0  0
   -4.1873   -2.8260   -0.8398 C   0  0  0  0  0  0  0  0  0  0  0  0
    5.0192    0.0230    0.0442 C   0  0  0  0  0  0  0  0  0  0  0  0
    2.9156   -0.9978   -0.5638 C   0  0  0  0  0  0  0  0  0  0  0  0
    4.7063   -2.3563    0.3218 C   0  0  0  0  0  0  0  0  0  0  0  0
    5.5118   -1.2229    0.4320 C   0  0  0  0  0  0  0  0  0  0  0  0
    3.4083   -2.2438   -0.1761 C   0  0  0  0  0  0  0  0  0  0  0  0
   -4.2388   -4.2695   -0.4289 C   0  0  0  0  0  0  0  0  0  0  0  0
    4.3716   -4.7979    0.6175 C   0  0  0  0  0  0  0  0  0  0  0  0
    6.5521   -3.7425    1.2340 C   0  0  0  0  0  0  0  0  0  0  0  0
   -2.5362    2.9989   -0.6217 H   0  0  0  0  0  0  0  0  0  0  0  0
   -0.8049    1.3212   -0.3940 H   0  0  0  0  0  0  0  0  0  0  0  0
   -4.3576    2.1434    1.2655 H   0  0  0  0  0  0  0  0  0  0  0  0
    0.5800    2.3003    1.8172 H   0  0  0  0  0  0  0  0  0  0  0  0
   -2.8378    1.2412    2.8405 H   0  0  0  0  0  0  0  0  0  0  0  0
   -3.1847   -0.2404    1.9261 H   0  0  0  0  0  0  0  0  0  0  0  0
   -0.6734    4.7121    2.0272 H   0  0  0  0  0  0  0  0  0  0  0  0
   -1.2041    3.2976    2.9572 H   0  0  0  0  0  0  0  0  0  0  0  0
   -3.3038    0.6399   -1.0423 H   0  0  0  0  0  0  0  0  0  0  0  0
    0.1267    4.3828   -0.2225 H   0  0  0  0  0  0  0  0  0  0  0  0
   -4.6144   -0.5000   -2.2946 H   0  0  0  0  0  0  0  0  0  0  0  0
   -6.3226   -0.0850   -2.1275 H   0  0  0  0  0  0  0  0  0  0  0  0
    3.6539    4.0120   -2.9217 H   0  0  0  0  0  0  0  0  0  0  0  0
    4.7023    1.8086   -2.3886 H   0  0  0  0  0  0  0  0  0  0  0  0
   -3.5702   -2.7410   -1.7383 H   0  0  0  0  0  0  0  0  0  0  0  0
   -3.7477   -2.2411   -0.0267 H   0  0  0  0  0  0  0  0  0  0  0  0
    5.6612    0.8953    0.1431 H   0  0  0  0  0  0  0  0  0  0  0  0
    1.9021   -0.9296   -0.9527 H   0  0  0  0  0  0  0  0  0  0  0  0
    6.5271   -1.2576    0.8145 H   0  0  0  0  0  0  0  0  0  0  0  0
    2.7432   -3.0951   -0.2819 H   0  0  0  0  0  0  0  0  0  0  0  0
    4.8984   -5.6943    0.9634 H   0  0  0  0  0  0  0  0  0  0  0  0
    4.0781   -4.9910   -0.4204 H   0  0  0  0  0  0  0  0  0  0  0  0
    3.4758   -4.7032    1.2412 H   0  0  0  0  0  0  0  0  0  0  0  0
    6.7917   -4.7809    1.4890 H   0  0  0  0  0  0  0  0  0  0  0  0
    6.6787   -3.1590    2.1527 H   0  0  0  0  0  0  0  0  0  0  0  0
    7.2939   -3.4261    0.4922 H   0  0  0  0  0  0  0  0  0  0  0  0
   -3.2579   -5.5635    0.6486 H   0  0  0  0  0  0  0  0  0  0  0  0
  1 20  1  0  0  0  0
  1 25  1  0  0  0  0
  2 13  1  0  0  0  0
  2 16  1  0  0  0  0
  3 12  1  0  0  0  0
  3 17  1  0  0  0  0
  4 18  2  0  0  0  0
  5 31  1  0  0  0  0
  5 60  1  0  0  0  0
  6 31  2  0  0  0  0
  7 14  1  0  0  0  0
  7 18  1  0  0  0  0
  7 42  1  0  0  0  0
  8 15  1  0  0  0  0
  8 19  1  0  0  0  0
  8 43  1  0  0  0  0
  9 19  1  0  0  0  0
  9 21  2  0  0  0  0
 10 19  2  0  0  0  0
 10 22  1  0  0  0  0
 11 28  1  0  0  0  0
 11 32  1  0  0  0  0
 11 33  1  0  0  0  0
 12 13  1  0  0  0  0
 12 14  1  0  0  0  0
 12 34  1  0  0  0  0
 13 15  1  0  0  0  0
 13 35  1  0  0  0  0
 14 16  1  0  0  0  0
 14 36  1  0  0  0  0
 15 17  1  0  0  0  0
 15 37  1  0  0  0  0
 16 38  1  0  0  0  0
 16 39  1  0  0  0  0
 17 40  1  0  0  0  0
 17 41  1  0  0  0  0
 18 20  1  0  0  0  0
 20 44  1  0  0  0  0
 20 45  1  0  0  0  0
 21 23  1  0  0  0  0
 21 24  1  0  0  0  0
 22 23  2  0  0  0  0
 22 46  1  0  0  0  0
 23 47  1  0  0  0  0
 24 26  2  0  0  0  0
 24 27  1  0  0  0  0
 25 31  1  0  0  0  0
 25 48  1  0  0  0  0
 25 49  1  0  0  0  0
 26 29  1  0  0  0  0
 26 50  1  0  0  0  0
 27 30  2  0  0  0  0
 27 51  1  0  0  0  0
 28 29  2  0  0  0  0
 28 30  1  0  0  0  0
 29 52  1  0  0  0  0
 30 53  1  0  0  0  0
 32 54  1  0  0  0  0
 32 55  1  0  0  0  0
 32 56  1  0  0  0  0
 33 57  1  0  0  0  0
 33 58  1  0  0  0  0
 33 59  1  0  0  0  0
M  END
> <PUBCHEM_COMPOUND_CID>
11911875

> <PUBCHEM_CONFORMER_RMSD>
1

> <PUBCHEM_CONFORMER_DIVERSEORDER>
1
80
136
48
113
33
120
94
57
129
131
119
83
43
88
106
67
128
89
23
97
73
91
127
70
92
116
90
59
121
42
130
125
124
68
115
117
72
45
65
71
95
100
122
61
108
36
103
60
25
86
107
24
101
29
62
98
110
126
114
53
18
105
16
54
40
74
49
51
38
134
26
75
41
69
66
82
99
132
118
27
79
35
32
50
55
111
11
87
56
22
9
112
96
76
21
12
133
34
28
30
123
104
14
46
135
19
39
63
84
6
2
81
20
47
77
64
17
31
78
10
13
44
109
7
93
4
58
37
8
85
3
52
5
15
102

> <PUBCHEM_MMFF94_PARTIAL_CHARGES>
41
1 -0.46
10 -0.62
11 -0.84
12 0.28
13 0.28
14 0.3
15 0.37
16 0.28
17 0.28
18 0.57
19 0.72
2 -0.56
20 0.29
21 0.31
22 0.16
23 -0.15
25 0.29
26 -0.15
27 -0.15
28 0.1
29 -0.15
3 -0.56
30 -0.15
31 0.66
32 0.37
33 0.37
4 -0.57
42 0.37
43 0.4
46 0.15
47 0.15
5 -0.65
50 0.15
51 0.15
52 0.15
53 0.15
6 -0.57
60 0.5
7 -0.73
8 -0.87
9 -0.62

> <PUBCHEM_EFFECTIVE_ROTOR_COUNT>
11.2

> <PUBCHEM_PHARMACOPHORE_FEATURES>
15
1 11 cation
1 2 acceptor
1 3 acceptor
1 4 acceptor
1 5 acceptor
1 6 acceptor
1 7 donor
1 8 donor
1 9 acceptor
3 5 6 31 anion
4 8 9 10 19 cation
5 2 12 13 14 16 rings
5 3 12 13 15 17 rings
6 24 26 27 28 29 30 rings
6 9 10 19 21 22 23 rings

> <PUBCHEM_HEAVY_ATOM_COUNT>
33

> <PUBCHEM_ATOM_DEF_STEREO_COUNT>
4

> <PUBCHEM_ATOM_UDEF_STEREO_COUNT>
0

> <PUBCHEM_BOND_DEF_STEREO_COUNT>
0

> <PUBCHEM_BOND_UDEF_STEREO_COUNT>
0

> <PUBCHEM_ISOTOPIC_ATOM_COUNT>
0

> <PUBCHEM_COMPONENT_COUNT>
1

> <PUBCHEM_CACTVS_TAUTO_COUNT>
6

> <PUBCHEM_CONFORMER_ID>
00B5C2C300000001

> <PUBCHEM_MMFF94_ENERGY>
104.7454

> <PUBCHEM_FEATURE_SELFOVERLAP>
76.887

> <PUBCHEM_SHAPE_FINGERPRINT>
10571361 74 18339356345194515218
10622 236 18337390431172337352
11069576 57 18334864930747800348
11103572 155 18190473847480392867
11135926 11 17897193345381244636
11478447 58 18266167529674995378
11497681 19 18195248816099986926
12218070 45 18197209244694241842
12559416 39 17968650511117066106
12758862 65 17060051601044114458
13165053 137 17764296255073194343
13347071 3 18270957938981684518
14415361 349 18337967692959414830
1454969 45 18261684697411103444
15250474 111 18411990177772012621
15264996 142 18193576479139406178
15264996 151 18263925604581070727
15968369 26 17833804429485029777
16628084 112 18336554850518721993
16989713 51 17757272575390820102
17909252 39 18053943137213497739
19303781 99 18187082815178921986
19319366 153 17762617691537499660
260245 28 18410567358123493334
3882209 13 18262783160428790018
4017518 198 17258216268312638756
437795 163 18267022933242175076
4394409 98 18120363269095616247
439807 62 18338236098239509807
463206 1 18342462560321854721
6058803 2 18195271969430916248
6677587 24 17030191210355208269
7970288 3 18411415090087726626

> <PUBCHEM_SHAPE_MULTIPOLES>
628.72
16
7.84
1.65
2.61
6.34
-0.11
19.75
-1.73
-0.44
0.26
0.1
-1.38
-6.21

> <PUBCHEM_SHAPE_SELFOVERLAP>
1329.009

> <PUBCHEM_SHAPE_VOLUME>
355.8

> <PUBCHEM_COORDINATE_TYPE>
2
5
10

$$$$
