75536584
  -OEChem-12032416393D

 42 43  0     1  0  0  0  0  0999 V2000
    1.2482   -1.2260   -0.0261 O   0  0  0  0  0  0  0  0  0  0  0  0
    0.2668    2.2150    0.2933 O   0  0  0  0  0  0  0  0  0  0  0  0
    4.8586    1.4398   -0.0801 O   0  0  0  0  0  0  0  0  0  0  0  0
    7.0660    0.0239   -0.6883 O   0  0  0  0  0  0  0  0  0  0  0  0
   -2.1093    0.1647    0.1308 N   0  0  0  0  0  0  0  0  0  0  0  0
    3.8308   -0.3902    0.9246 N   0  0  0  0  0  0  0  0  0  0  0  0
   -6.5872    0.9345   -0.5679 N   0  0  0  0  0  0  0  0  0  0  0  0
   -0.7255    0.0659   -0.3040 C   0  0  1  0  0  0  0  0  0  0  0  0
    0.2457    0.8295    0.5771 C   0  0  1  0  0  0  0  0  0  0  0  0
    1.5623    0.1558    0.2148 C   0  0  1  0  0  0  0  0  0  0  0  0
   -0.1738   -1.3469   -0.2057 C   0  0  0  0  0  0  0  0  0  0  0  0
    2.6111    0.2608    1.3076 C   0  0  0  0  0  0  0  0  0  0  0  0
   -3.0213   -0.2889   -0.9125 C   0  0  0  0  0  0  0  0  0  0  0  0
   -4.4592   -0.2092   -0.4735 C   0  0  0  0  0  0  0  0  0  0  0  0
    4.8644    0.2586    0.2559 C   0  0  0  0  0  0  0  0  0  0  0  0
   -4.9959   -1.1513    0.3971 C   0  0  0  0  0  0  0  0  0  0  0  0
   -5.2892    0.8049   -0.9234 C   0  0  0  0  0  0  0  0  0  0  0  0
    6.0303   -0.6662   -0.0221 C   0  0  0  0  0  0  0  0  0  0  0  0
   -6.3272   -1.0516    0.7858 C   0  0  0  0  0  0  0  0  0  0  0  0
   -7.0736    0.0003    0.2797 C   0  0  0  0  0  0  0  0  0  0  0  0
    8.1779   -0.8234   -0.9632 C   0  0  0  0  0  0  0  0  0  0  0  0
   -0.6223    0.4447   -1.3308 H   0  0  0  0  0  0  0  0  0  0  0  0
    0.0089    0.6897    1.6392 H   0  0  0  0  0  0  0  0  0  0  0  0
    1.9646    0.5670   -0.7204 H   0  0  0  0  0  0  0  0  0  0  0  0
   -0.5641   -1.8871    0.6647 H   0  0  0  0  0  0  0  0  0  0  0  0
   -0.3763   -1.9430   -1.1006 H   0  0  0  0  0  0  0  0  0  0  0  0
    2.2689   -0.2402    2.2198 H   0  0  0  0  0  0  0  0  0  0  0  0
    2.8195    1.3098    1.5435 H   0  0  0  0  0  0  0  0  0  0  0  0
   -2.3198    1.1382    0.3528 H   0  0  0  0  0  0  0  0  0  0  0  0
   -2.8109   -1.3295   -1.1901 H   0  0  0  0  0  0  0  0  0  0  0  0
   -2.8885    0.3085   -1.8239 H   0  0  0  0  0  0  0  0  0  0  0  0
    0.4758    2.3310   -0.6490 H   0  0  0  0  0  0  0  0  0  0  0  0
    3.9319   -1.3762    1.1477 H   0  0  0  0  0  0  0  0  0  0  0  0
   -4.3865   -1.9662    0.7781 H   0  0  0  0  0  0  0  0  0  0  0  0
   -4.9293    1.5715   -1.6027 H   0  0  0  0  0  0  0  0  0  0  0  0
    6.3971   -1.0587    0.9334 H   0  0  0  0  0  0  0  0  0  0  0  0
    5.6732   -1.4954   -0.6439 H   0  0  0  0  0  0  0  0  0  0  0  0
   -6.7667   -1.7745    1.4634 H   0  0  0  0  0  0  0  0  0  0  0  0
   -8.1167    0.1226    0.5522 H   0  0  0  0  0  0  0  0  0  0  0  0
    8.6022   -1.2108   -0.0319 H   0  0  0  0  0  0  0  0  0  0  0  0
    7.8766   -1.6498   -1.6141 H   0  0  0  0  0  0  0  0  0  0  0  0
    8.9410   -0.2327   -1.4769 H   0  0  0  0  0  0  0  0  0  0  0  0
  1 10  1  0  0  0  0
  1 11  1  0  0  0  0
  2  9  1  0  0  0  0
  2 32  1  0  0  0  0
  3 15  2  0  0  0  0
  4 18  1  0  0  0  0
  4 21  1  0  0  0  0
  5  8  1  0  0  0  0
  5 13  1  0  0  0  0
  5 29  1  0  0  0  0
  6 12  1  0  0  0  0
  6 15  1  0  0  0  0
  6 33  1  0  0  0  0
  7 17  1  0  0  0  0
  7 20  2  0  0  0  0
  8  9  1  0  0  0  0
  8 11  1  0  0  0  0
  8 22  1  0  0  0  0
  9 10  1  0  0  0  0
  9 23  1  0  0  0  0
 10 12  1  0  0  0  0
 10 24  1  0  0  0  0
 11 25  1  0  0  0  0
 11 26  1  0  0  0  0
 12 27  1  0  0  0  0
 12 28  1  0  0  0  0
 13 14  1  0  0  0  0
 13 30  1  0  0  0  0
 13 31  1  0  0  0  0
 14 16  1  0  0  0  0
 14 17  2  0  0  0  0
 15 18  1  0  0  0  0
 16 19  2  0  0  0  0
 16 34  1  0  0  0  0
 17 35  1  0  0  0  0
 18 36  1  0  0  0  0
 18 37  1  0  0  0  0
 19 20  1  0  0  0  0
 19 38  1  0  0  0  0
 20 39  1  0  0  0  0
 21 40  1  0  0  0  0
 21 41  1  0  0  0  0
 21 42  1  0  0  0  0
M  END
> <PUBCHEM_COMPOUND_CID>
75536584

> <PUBCHEM_CONFORMER_RMSD>
0.8

> <PUBCHEM_CONFORMER_DIVERSEORDER>
1
33
233
107
130
24
215
81
176
99
31
151
189
235
145
175
238
36
46
196
73
124
159
119
114
204
21
143
67
54
219
207
160
211
180
173
62
224
8
84
209
113
10
167
193
218
121
126
153
106
90
163
71
205
88
195
102
19
206
157
181
200
95
7
164
42
40
231
98
236
78
170
198
191
227
47
183
150
14
103
116
117
185
87
147
77
210
214
178
220
16
125
168
192
134
166
137
139
146
128
11
28
208
72
70
225
118
41
140
39
97
20
237
23
182
174
141
86
199
177
75
100
25
201
213
57
85
194
148
43
152
127
190
30
22
133
34
132
171
109
82
234
223
144
221
158
58
27
59
49
129
154
197
91
138
120
216
232
80
17
93
89
29
179
44
136
48
112
60
13
74
35
55
155
9
187
108
135
122
203
105
229
12
38
68
161
156
63
212
66
104
188
110
222
15
162
115
202
26
50
61
230
186
64
83
217
53
52
169
142
4
165
101
149
76
18
111
226
96
131
228
45
94
184
6
79
37
65
32
92
69
172
2
5
56
51
3
123

> <PUBCHEM_MMFF94_PARTIAL_CHARGES>
28
1 -0.56
10 0.28
11 0.28
12 0.3
13 0.41
14 -0.14
15 0.57
16 -0.15
17 0.16
18 0.34
19 -0.15
2 -0.68
20 0.16
21 0.28
29 0.36
3 -0.57
32 0.4
33 0.37
34 0.15
35 0.15
38 0.15
39 0.15
4 -0.56
5 -0.9
6 -0.73
7 -0.62
8 0.27
9 0.28

> <PUBCHEM_EFFECTIVE_ROTOR_COUNT>
9

> <PUBCHEM_PHARMACOPHORE_FEATURES>
11
1 1 acceptor
1 2 acceptor
1 2 donor
1 3 acceptor
1 4 acceptor
1 5 cation
1 5 donor
1 6 donor
1 7 acceptor
5 1 8 9 10 11 rings
6 7 14 16 17 19 20 rings

> <PUBCHEM_HEAVY_ATOM_COUNT>
21

> <PUBCHEM_ATOM_DEF_STEREO_COUNT>
3

> <PUBCHEM_ATOM_UDEF_STEREO_COUNT>
0

> <PUBCHEM_BOND_DEF_STEREO_COUNT>
0

> <PUBCHEM_BOND_UDEF_STEREO_COUNT>
0

> <PUBCHEM_ISOTOPIC_ATOM_COUNT>
0

> <PUBCHEM_COMPONENT_COUNT>
1

> <PUBCHEM_CACTVS_TAUTO_COUNT>
2

> <PUBCHEM_CONFORMER_ID>
048098C800000001

> <PUBCHEM_MMFF94_ENERGY>
42.9092

> <PUBCHEM_FEATURE_SELFOVERLAP>
55.83

> <PUBCHEM_SHAPE_FINGERPRINT>
10299344 5 17530682104152860834
106641 1 10953748802491377404
10968037 39 15430035466043430427
11089746 13 15410891881797795995
11315181 36 16370727033349979775
11638347 137 8718834189401763300
11796584 16 14045738257303726908
12091667 2 18341890801743755279
12236239 1 17240759566905573138
13073987 5 10953723483326805951
13533116 47 14056986214639339480
13885169 127 13470695823302335634
14123256 10 18113618980544972564
14251764 18 13190341266621269734
14251764 46 18412825784981084115
14933364 13 18186238428728993165
15048467 5 16443062794480236014
15183329 4 16487255465087764022
15716309 27 16081081568026047523
15849732 13 18335702758438808350
18006028 8 16487254370250782000
200 152 12107780797211028439
21095086 128 18131631205775175055
21150785 3 17385727997985834934
21267235 1 18341617022557271672
21365058 27 16370727028153498691
21521721 280 13479136791422720972
21792961 116 18337947892067682397
220451 1 17240477009518132435
23035841 295 18341892999944318306
23402539 116 13470687057880460257
23536379 177 17385437705098380697
23559900 14 16916208009609859770
246663 6 17988929959756354542
28498 318 17060341795184094870
328311 84 18343868826808511366
34797466 226 16226052176127558286
3545911 37 18201997738313342779
4325135 7 16298105393203363135
4340502 62 16805314496705833866
4463277 17 18409444804011186577
5207 217 14057003823297916416
5758199 1 15646772279772507232
59682541 35 12973894714417410621
59755656 215 18131070402951798470

> <PUBCHEM_SHAPE_MULTIPOLES>
393.75
21.99
1.31
0.97
11.96
0.28
0.04
-3.01
-3.76
-0.1
0.04
0.11
-0.02
1.01

> <PUBCHEM_SHAPE_SELFOVERLAP>
803.737

> <PUBCHEM_SHAPE_VOLUME>
227.8

> <PUBCHEM_COORDINATE_TYPE>
2
5
10

$$$$
