45783284
  -OEChem-12032416403D

 54 58  0     1  0  0  0  0  0999 V2000
   -1.6652   -3.5855    0.4034 O   0  0  0  0  0  0  0  0  0  0  0  0
    4.8559    3.2265   -0.4081 O   0  0  0  0  0  0  0  0  0  0  0  0
   -3.4095   -0.3489   -0.1923 N   0  0  1  0  0  0  0  0  0  0  0  0
   -0.7542   -1.5621    0.0997 N   0  0  0  0  0  0  0  0  0  0  0  0
    3.8063    0.6293   -0.1791 N   0  0  0  0  0  0  0  0  0  0  0  0
   -0.2779   -3.7717    0.4527 N   0  0  0  0  0  0  0  0  0  0  0  0
    4.3251   -1.6505    0.1872 N   0  0  0  0  0  0  0  0  0  0  0  0
   -3.2975   -1.7921    0.0992 C   0  0  1  0  0  0  0  0  0  0  0  0
   -4.0732   -2.4822   -1.0379 C   0  0  0  0  0  0  0  0  0  0  0  0
   -4.6351   -1.3471   -1.8821 C   0  0  0  0  0  0  0  0  0  0  0  0
   -4.6625   -0.1715   -0.9263 C   0  0  0  0  0  0  0  0  0  0  0  0
   -3.3507    0.4845    1.0016 C   0  0  0  0  0  0  0  0  0  0  0  0
   -1.8594   -2.2574    0.1921 C   0  0  0  0  0  0  0  0  0  0  0  0
   -2.9746    1.9055    0.6756 C   0  0  0  0  0  0  0  0  0  0  0  0
    0.1893   -2.5337    0.2657 C   0  0  0  0  0  0  0  0  0  0  0  0
   -1.6327    2.2862    0.6610 C   0  0  0  0  0  0  0  0  0  0  0  0
   -3.9682    2.8412    0.3881 C   0  0  0  0  0  0  0  0  0  0  0  0
    5.0937    0.8536   -0.8510 C   0  0  0  0  0  0  0  0  0  0  0  0
    3.4039    1.6770    0.7656 C   0  0  0  0  0  0  0  0  0  0  0  0
    1.5919   -2.2343    0.2380 C   0  0  0  0  0  0  0  0  0  0  0  0
    3.3880   -0.6900    0.0228 C   0  0  0  0  0  0  0  0  0  0  0  0
    5.1355    2.2651   -1.4255 C   0  0  0  0  0  0  0  0  0  0  0  0
    3.5366    3.0448    0.1052 C   0  0  0  0  0  0  0  0  0  0  0  0
    2.0230   -0.9272    0.0397 C   0  0  0  0  0  0  0  0  0  0  0  0
   -1.2845    3.6027    0.3590 C   0  0  0  0  0  0  0  0  0  0  0  0
   -3.6200    4.1577    0.0861 C   0  0  0  0  0  0  0  0  0  0  0  0
    2.5259   -3.2498    0.4108 C   0  0  0  0  0  0  0  0  0  0  0  0
   -2.2782    4.5385    0.0716 C   0  0  0  0  0  0  0  0  0  0  0  0
    3.8684   -2.9087    0.3774 C   0  0  0  0  0  0  0  0  0  0  0  0
   -3.7965   -2.0348    1.0479 H   0  0  0  0  0  0  0  0  0  0  0  0
   -3.4631   -3.1532   -1.6521 H   0  0  0  0  0  0  0  0  0  0  0  0
   -4.8987   -3.0690   -0.6168 H   0  0  0  0  0  0  0  0  0  0  0  0
   -5.6240   -1.5827   -2.2863 H   0  0  0  0  0  0  0  0  0  0  0  0
   -3.9627   -1.1406   -2.7241 H   0  0  0  0  0  0  0  0  0  0  0  0
   -5.5402   -0.2403   -0.2711 H   0  0  0  0  0  0  0  0  0  0  0  0
   -4.7009    0.7717   -1.4789 H   0  0  0  0  0  0  0  0  0  0  0  0
   -2.5913    0.1008    1.6969 H   0  0  0  0  0  0  0  0  0  0  0  0
   -4.2898    0.4572    1.5713 H   0  0  0  0  0  0  0  0  0  0  0  0
   -0.8481    1.5669    0.8806 H   0  0  0  0  0  0  0  0  0  0  0  0
   -5.0179    2.5605    0.4017 H   0  0  0  0  0  0  0  0  0  0  0  0
    5.9026    0.7251   -0.1213 H   0  0  0  0  0  0  0  0  0  0  0  0
    5.2450    0.1355   -1.6656 H   0  0  0  0  0  0  0  0  0  0  0  0
    2.3723    1.5507    1.1115 H   0  0  0  0  0  0  0  0  0  0  0  0
    4.0597    1.6236    1.6434 H   0  0  0  0  0  0  0  0  0  0  0  0
    4.4176    2.3840   -2.2462 H   0  0  0  0  0  0  0  0  0  0  0  0
    6.1327    2.4767   -1.8241 H   0  0  0  0  0  0  0  0  0  0  0  0
    3.3503    3.8337    0.8407 H   0  0  0  0  0  0  0  0  0  0  0  0
    2.8088    3.1688   -0.7060 H   0  0  0  0  0  0  0  0  0  0  0  0
    1.3164   -0.1168   -0.1145 H   0  0  0  0  0  0  0  0  0  0  0  0
   -0.2394    3.8986    0.3469 H   0  0  0  0  0  0  0  0  0  0  0  0
   -4.3937    4.8867   -0.1364 H   0  0  0  0  0  0  0  0  0  0  0  0
    2.2492   -4.2869    0.5692 H   0  0  0  0  0  0  0  0  0  0  0  0
   -2.0071    5.5636   -0.1634 H   0  0  0  0  0  0  0  0  0  0  0  0
    4.6370   -3.6635    0.5070 H   0  0  0  0  0  0  0  0  0  0  0  0
  1  6  1  0  0  0  0
  1 13  1  0  0  0  0
  2 22  1  0  0  0  0
  2 23  1  0  0  0  0
  3  8  1  0  0  0  0
  3 11  1  0  0  0  0
  3 12  1  0  0  0  0
  4 13  2  0  0  0  0
  4 15  1  0  0  0  0
  5 18  1  0  0  0  0
  5 19  1  0  0  0  0
  5 21  1  0  0  0  0
  6 15  2  0  0  0  0
  7 21  2  0  0  0  0
  7 29  1  0  0  0  0
  8  9  1  0  0  0  0
  8 13  1  0  0  0  0
  8 30  1  0  0  0  0
  9 10  1  0  0  0  0
  9 31  1  0  0  0  0
  9 32  1  0  0  0  0
 10 11  1  0  0  0  0
 10 33  1  0  0  0  0
 10 34  1  0  0  0  0
 11 35  1  0  0  0  0
 11 36  1  0  0  0  0
 12 14  1  0  0  0  0
 12 37  1  0  0  0  0
 12 38  1  0  0  0  0
 14 16  2  0  0  0  0
 14 17  1  0  0  0  0
 15 20  1  0  0  0  0
 16 25  1  0  0  0  0
 16 39  1  0  0  0  0
 17 26  2  0  0  0  0
 17 40  1  0  0  0  0
 18 22  1  0  0  0  0
 18 41  1  0  0  0  0
 18 42  1  0  0  0  0
 19 23  1  0  0  0  0
 19 43  1  0  0  0  0
 19 44  1  0  0  0  0
 20 24  2  0  0  0  0
 20 27  1  0  0  0  0
 21 24  1  0  0  0  0
 22 45  1  0  0  0  0
 22 46  1  0  0  0  0
 23 47  1  0  0  0  0
 23 48  1  0  0  0  0
 24 49  1  0  0  0  0
 25 28  2  0  0  0  0
 25 50  1  0  0  0  0
 26 28  1  0  0  0  0
 26 51  1  0  0  0  0
 27 29  2  0  0  0  0
 27 52  1  0  0  0  0
 28 53  1  0  0  0  0
 29 54  1  0  0  0  0
M  END
> <PUBCHEM_COMPOUND_CID>
45783284

> <PUBCHEM_CONFORMER_RMSD>
0.8

> <PUBCHEM_CONFORMER_DIVERSEORDER>
1
107
46
40
16
163
22
156
113
178
28
75
61
185
196
162
14
157
44
133
48
120
171
147
94
89
183
65
90
161
98
39
160
132
103
8
11
170
79
172
76
32
17
82
4
54
110
154
199
136
85
13
97
70
126
201
71
180
43
27
29
118
18
153
47
204
142
87
56
188
69
104
166
84
146
181
117
58
6
57
164
62
21
109
51
105
148
50
129
152
41
193
42
197
134
149
67
36
177
138
78
53
72
173
123
124
20
151
3
80
64
93
158
186
116
141
101
26
167
127
15
175
33
96
130
88
114
192
174
73
106
102
95
140
55
59
155
19
122
25
10
169
34
31
66
143
165
205
2
139
30
108
60
111
182
49
179
9
206
45
190
99
68
12
145
7
176
189
86
198
24
203
119
150
35
112
81
100
202
137
125
63
187
52
200
131
77
83
23
91
115
92
191
74
168
121
144
195
5
135
159
207
37
184
194
38
128

> <PUBCHEM_MMFF94_PARTIAL_CHARGES>
35
1 -0.02
11 0.27
12 0.41
13 0.3
14 -0.14
15 0.46
16 -0.15
17 -0.15
18 0.37
19 0.37
2 -0.56
20 0.05
21 0.41
22 0.28
23 0.28
24 -0.15
25 -0.15
26 -0.15
27 -0.15
28 -0.15
29 0.16
3 -0.81
39 0.15
4 -0.57
40 0.15
49 0.15
5 -0.84
50 0.15
51 0.15
52 0.15
53 0.15
54 0.15
6 -0.41
7 -0.62
8 0.45

> <PUBCHEM_EFFECTIVE_ROTOR_COUNT>
7.2

> <PUBCHEM_PHARMACOPHORE_FEATURES>
9
1 2 acceptor
1 3 cation
3 4 6 15 cation
3 5 7 21 cation
5 1 4 6 13 15 rings
5 3 8 9 10 11 rings
6 14 16 17 25 26 28 rings
6 2 5 18 19 22 23 rings
6 7 20 21 24 27 29 rings

> <PUBCHEM_HEAVY_ATOM_COUNT>
29

> <PUBCHEM_ATOM_DEF_STEREO_COUNT>
1

> <PUBCHEM_ATOM_UDEF_STEREO_COUNT>
0

> <PUBCHEM_BOND_DEF_STEREO_COUNT>
0

> <PUBCHEM_BOND_UDEF_STEREO_COUNT>
0

> <PUBCHEM_ISOTOPIC_ATOM_COUNT>
0

> <PUBCHEM_COMPONENT_COUNT>
1

> <PUBCHEM_CACTVS_TAUTO_COUNT>
1

> <PUBCHEM_CONFORMER_ID>
02BA98F400000001

> <PUBCHEM_MMFF94_ENERGY>
75.272

> <PUBCHEM_FEATURE_SELFOVERLAP>
45.674

> <PUBCHEM_SHAPE_FINGERPRINT>
10439779 11 17835507229293680472
10498660 4 18194120944032697202
10670039 82 18338525239453418324
10871710 139 18412827984721725429
1100329 8 18122906421915095050
11059048 146 18339092514127780524
11211813 163 18264512671287614940
11273773 38 17905335026672770796
11374522 363 17828481366977954172
11513181 2 18272938193624117302
12107183 9 17760359990291868378
12403260 363 18337941299378000090
12788726 201 18411975901136852473
12978246 48 18123472674408710745
13617811 41 18337940312131523449
14251764 38 18411418371548450302
14363568 33 16749890614967287233
14394314 77 18339934804992202337
14466204 15 18049154467664261226
14848178 96 18335416932771418422
14932702 115 18130501950987275665
15250474 111 18411413977913178188
15320467 1 18266180706750151824
15322535 138 18337942416322763208
16992787 43 18409727405397931151
17627616 140 18408888417084330736
20764821 26 18338792304160911512
21734292 116 18411421743103097832
21795232 40 17683505604847012661
22113638 7 17690555291009251600
22393880 68 18342466906960854428
23227448 37 18053941758560435797
245318 6 17896056449829752988
25265897 201 17627532440331246101
325973 47 17761778763912863260
338550 245 18336829667821558424
3388396 114 18340474685853000197
469060 322 17905069279454719139
50150288 127 17774730770707486753
5081480 168 16480241457276510967
57307002 19 17479434086637725400
6036956 94 18261964071273691453
6371009 1 18337371774082375514
6608658 132 18198901607283600142
9980921 221 18120405235527566788

> <PUBCHEM_SHAPE_MULTIPOLES>
560.16
11.69
6.67
1.04
6.11
3.15
-0.35
4.83
-3.34
-1.64
0.52
-0.43
-0.03
-2.56

> <PUBCHEM_SHAPE_SELFOVERLAP>
1215.969

> <PUBCHEM_SHAPE_VOLUME>
306.1

> <PUBCHEM_COORDINATE_TYPE>
2
5
10

$$$$
