26744906
  -OEChem-12032416353D

 49 54  0     1  0  0  0  0  0999 V2000
    4.2973   -2.4508   -2.2213 S   0  0  0  0  0  0  0  0  0  0  0  0
    0.3916   -1.2677    2.5169 O   0  0  0  0  0  0  0  0  0  0  0  0
    2.8460   -0.0172    0.3260 N   0  0  2  0  0  0  0  0  0  0  0  0
    2.1746    3.2725   -1.2847 N   0  0  0  0  0  0  0  0  0  0  0  0
    1.9542    4.0123    0.8140 N   0  0  0  0  0  0  0  0  0  0  0  0
   -0.3800    0.0230    0.8569 N   0  0  0  0  0  0  0  0  0  0  0  0
   -0.9555   -1.6128    2.3494 N   0  0  0  0  0  0  0  0  0  0  0  0
    2.0741    0.2568    1.5763 C   0  0  1  0  0  0  0  0  0  0  0  0
    2.1553    1.7703    1.9887 C   0  0  0  0  0  0  0  0  0  0  0  0
    2.4277    0.7600   -0.8598 C   0  0  0  0  0  0  0  0  0  0  0  0
    2.2581    2.1787   -0.4784 C   0  0  0  0  0  0  0  0  0  0  0  0
    2.1154    2.6559    0.8010 C   0  0  0  0  0  0  0  0  0  0  0  0
    2.9884   -1.4348    0.0127 C   0  0  0  0  0  0  0  0  0  0  0  0
    0.6487   -0.2985    1.6001 C   0  0  0  0  0  0  0  0  0  0  0  0
    4.2985   -1.7296   -0.6682 C   0  0  0  0  0  0  0  0  0  0  0  0
    1.9922    4.3544   -0.4590 C   0  0  0  0  0  0  0  0  0  0  0  0
   -1.3407   -0.8093    1.3533 C   0  0  0  0  0  0  0  0  0  0  0  0
    5.5757   -1.4959   -0.2077 C   0  0  0  0  0  0  0  0  0  0  0  0
   -2.6771   -0.8125    0.8323 C   0  0  0  0  0  0  0  0  0  0  0  0
    6.5663   -1.9142   -1.1426 C   0  0  0  0  0  0  0  0  0  0  0  0
    6.0086   -2.4518   -2.2816 C   0  0  0  0  0  0  0  0  0  0  0  0
   -3.0216    0.0503   -0.2087 C   0  0  0  0  0  0  0  0  0  0  0  0
   -3.6293   -1.6764    1.3653 C   0  0  0  0  0  0  0  0  0  0  0  0
   -4.3256    0.0591   -0.7302 C   0  0  0  0  0  0  0  0  0  0  0  0
   -5.2937   -0.8194   -0.1883 C   0  0  0  0  0  0  0  0  0  0  0  0
   -4.9295   -1.6810    0.8593 C   0  0  0  0  0  0  0  0  0  0  0  0
   -4.6899    0.9207   -1.7777 C   0  0  0  0  0  0  0  0  0  0  0  0
   -6.5977   -0.8105   -0.7097 C   0  0  0  0  0  0  0  0  0  0  0  0
   -5.9900    0.9162   -2.2836 C   0  0  0  0  0  0  0  0  0  0  0  0
   -6.9422    0.0523   -1.7506 C   0  0  0  0  0  0  0  0  0  0  0  0
    2.6010   -0.2708    2.3858 H   0  0  0  0  0  0  0  0  0  0  0  0
    3.1089    1.9457    2.5028 H   0  0  0  0  0  0  0  0  0  0  0  0
    1.3491    2.0291    2.6843 H   0  0  0  0  0  0  0  0  0  0  0  0
    1.4838    0.3793   -1.2684 H   0  0  0  0  0  0  0  0  0  0  0  0
    3.1886    0.6914   -1.6456 H   0  0  0  0  0  0  0  0  0  0  0  0
    2.1295   -1.8067   -0.5608 H   0  0  0  0  0  0  0  0  0  0  0  0
    3.0023   -2.0254    0.9397 H   0  0  0  0  0  0  0  0  0  0  0  0
    2.2306    3.2902   -2.2946 H   0  0  0  0  0  0  0  0  0  0  0  0
    1.8949    5.3575   -0.8494 H   0  0  0  0  0  0  0  0  0  0  0  0
    5.7944   -1.0477    0.7533 H   0  0  0  0  0  0  0  0  0  0  0  0
    7.6336   -1.8256   -0.9873 H   0  0  0  0  0  0  0  0  0  0  0  0
    6.5242   -2.8452   -3.1463 H   0  0  0  0  0  0  0  0  0  0  0  0
   -2.2831    0.7297   -0.6320 H   0  0  0  0  0  0  0  0  0  0  0  0
   -3.3976   -2.3624    2.1763 H   0  0  0  0  0  0  0  0  0  0  0  0
   -5.6578   -2.3646    1.2908 H   0  0  0  0  0  0  0  0  0  0  0  0
   -3.9624    1.6047   -2.2099 H   0  0  0  0  0  0  0  0  0  0  0  0
   -7.3582   -1.4772   -0.3084 H   0  0  0  0  0  0  0  0  0  0  0  0
   -6.2588    1.5877   -3.0939 H   0  0  0  0  0  0  0  0  0  0  0  0
   -7.9542    0.0493   -2.1449 H   0  0  0  0  0  0  0  0  0  0  0  0
  1 15  1  0  0  0  0
  1 21  1  0  0  0  0
  2  7  1  0  0  0  0
  2 14  1  0  0  0  0
  3  8  1  0  0  0  0
  3 10  1  0  0  0  0
  3 13  1  0  0  0  0
  4 11  1  0  0  0  0
  4 16  1  0  0  0  0
  4 38  1  0  0  0  0
  5 12  1  0  0  0  0
  5 16  2  0  0  0  0
  6 14  2  0  0  0  0
  6 17  1  0  0  0  0
  7 17  2  0  0  0  0
  8  9  1  0  0  0  0
  8 14  1  0  0  0  0
  8 31  1  0  0  0  0
  9 12  1  0  0  0  0
  9 32  1  0  0  0  0
  9 33  1  0  0  0  0
 10 11  1  0  0  0  0
 10 34  1  0  0  0  0
 10 35  1  0  0  0  0
 11 12  2  0  0  0  0
 13 15  1  0  0  0  0
 13 36  1  0  0  0  0
 13 37  1  0  0  0  0
 15 18  2  0  0  0  0
 16 39  1  0  0  0  0
 17 19  1  0  0  0  0
 18 20  1  0  0  0  0
 18 40  1  0  0  0  0
 19 22  2  0  0  0  0
 19 23  1  0  0  0  0
 20 21  2  0  0  0  0
 20 41  1  0  0  0  0
 21 42  1  0  0  0  0
 22 24  1  0  0  0  0
 22 43  1  0  0  0  0
 23 26  2  0  0  0  0
 23 44  1  0  0  0  0
 24 25  1  0  0  0  0
 24 27  2  0  0  0  0
 25 26  1  0  0  0  0
 25 28  2  0  0  0  0
 26 45  1  0  0  0  0
 27 29  1  0  0  0  0
 27 46  1  0  0  0  0
 28 30  1  0  0  0  0
 28 47  1  0  0  0  0
 29 30  2  0  0  0  0
 29 48  1  0  0  0  0
 30 49  1  0  0  0  0
M  END
> <PUBCHEM_COMPOUND_CID>
26744906

> <PUBCHEM_CONFORMER_RMSD>
0.8

> <PUBCHEM_CONFORMER_DIVERSEORDER>
3
61
69
76
83
99
33
78
9
114
72
116
23
14
53
113
109
107
104
30
24
75
55
93
12
57
11
73
115
85
42
37
84
17
70
36
38
112
19
44
59
39
51
15
68
64
111
62
97
29
101
34
4
117
77
28
98
56
66
95
48
67
47
7
71
87
79
25
50
110
103
1
8
100
5
63
52
18
54
90
58
94
43
82
108
26
88
16
10
105
45
21
41
92
35
60
96
32
80
40
65
20
27
106
86
46
89
31
74
102
2
6
22
81
13
91
49

> <PUBCHEM_MMFF94_PARTIAL_CHARGES>
40
1 -0.08
10 0.45
11 -0.33
12 0.05
13 0.45
14 0.3
15 -0.14
16 0.04
17 0.46
18 -0.15
19 0.05
2 -0.02
20 -0.15
21 -0.11
22 -0.15
23 -0.15
26 -0.15
27 -0.15
28 -0.15
29 -0.15
3 -0.81
30 -0.15
38 0.27
39 0.15
4 0.03
40 0.15
41 0.15
42 0.15
43 0.15
44 0.15
45 0.15
46 0.15
47 0.15
48 0.15
49 0.15
5 -0.57
6 -0.57
7 -0.41
8 0.45
9 0.18

> <PUBCHEM_EFFECTIVE_ROTOR_COUNT>
4.8

> <PUBCHEM_PHARMACOPHORE_FEATURES>
10
1 3 cation
1 4 donor
3 4 5 16 cation
3 6 7 17 cation
5 1 15 18 20 21 rings
5 2 6 7 14 17 rings
5 4 5 11 12 16 rings
6 19 22 23 24 25 26 rings
6 24 25 27 28 29 30 rings
6 3 8 9 10 11 12 rings

> <PUBCHEM_HEAVY_ATOM_COUNT>
30

> <PUBCHEM_ATOM_DEF_STEREO_COUNT>
1

> <PUBCHEM_ATOM_UDEF_STEREO_COUNT>
0

> <PUBCHEM_BOND_DEF_STEREO_COUNT>
0

> <PUBCHEM_BOND_UDEF_STEREO_COUNT>
0

> <PUBCHEM_ISOTOPIC_ATOM_COUNT>
0

> <PUBCHEM_COMPONENT_COUNT>
1

> <PUBCHEM_CACTVS_TAUTO_COUNT>
2

> <PUBCHEM_CONFORMER_ID>
0198184A00000003

> <PUBCHEM_MMFF94_ENERGY>
63.9992

> <PUBCHEM_FEATURE_SELFOVERLAP>
50.877

> <PUBCHEM_SHAPE_FINGERPRINT>
10670039 82 16877941612181944055
10930396 42 18338215117736031522
11115154 58 18271248201281654505
11135609 99 16558739136121952966
11386260 185 18338504318678568357
11513181 2 17972320886856000303
11720765 8 18409445878291275600
11763715 3 16772417075012730450
1200032 147 14779553326966990933
12166972 35 17561080289241108047
13540713 4 17897738788240196691
14068700 675 17274540932393434906
14347329 18 16370727023879226479
14556957 393 17902833762890447868
15021287 119 18199772287791567161
15183329 4 18187085001158909046
15297060 5 16878235181797187299
15320294 125 15769768027602154157
15419009 47 17699574636901335353
16988056 13 18334293210297405500
16992727 255 17532654516839937292
18365409 1 17835815096871935164
19438510 23 13768223708865555534
21304303 282 16692710470580540088
21365058 113 18411707568971558596
21968339 14 18128532858938056200
22393880 68 17967526909254322939
23536364 44 18262239898024866460
23559900 14 18408602591147253443
312425 83 18265891539702869823
340366 18 18271520983070458774
34797466 226 18336258063957272531
376196 1 17758386762004104944
38570 142 14273747230704086738
4066623 53 18186517679567370556
4339292 15 18057895637547067246
437795 70 18267864969669597133
437815 12 18411702045579961524
44317340 157 18198061572664294155
44802255 64 16964669174327421268
46194498 28 18263654020365280202
5081480 168 18116455732844467793
508180 173 18187364285966361521
513532 50 18262787579696630656
54076057 255 16443066075687791685
5969126 39 18198071287991126622
60123966 16 18337098068611845645
613672 6 18269851847711638678
6523845 18 17677067780288898739
6823239 73 17894628175329661117

> <PUBCHEM_SHAPE_MULTIPOLES>
590.46
16.42
3.82
2.42
12.88
5.03
-0.16
-11.45
12.17
-6.83
1
0.6
-0.64
3.5

> <PUBCHEM_SHAPE_SELFOVERLAP>
1313.094

> <PUBCHEM_SHAPE_VOLUME>
317.9

> <PUBCHEM_COORDINATE_TYPE>
2
5
10

$$$$
