26742963
  -OEChem-12032416193D

 61 63  0     1  0  0  0  0  0999 V2000
   -3.3602   -2.3257    0.9407 O   0  0  0  0  0  0  0  0  0  0  0  0
    4.8052   -1.5672    0.5015 O   0  0  0  0  0  0  0  0  0  0  0  0
    0.0799    2.1672    0.5143 N   0  0  0  0  0  0  0  0  0  0  0  0
   -4.0546   -0.6050   -0.4586 N   0  0  0  0  0  0  0  0  0  0  0  0
    3.4682   -1.8787    0.7171 N   0  0  0  0  0  0  0  0  0  0  0  0
   -0.8278   -0.6162    0.8819 C   0  0  1  0  0  0  0  0  0  0  0  0
    0.6222   -0.2558    0.4797 C   0  0  2  0  0  0  0  0  0  0  0  0
   -1.4561    0.5786    1.6185 C   0  0  0  0  0  0  0  0  0  0  0  0
    0.6877    1.0881   -0.2653 C   0  0  0  0  0  0  0  0  0  0  0  0
   -1.7093   -1.0581   -0.2923 C   0  0  0  0  0  0  0  0  0  0  0  0
   -1.3170    1.8843    0.8368 C   0  0  0  0  0  0  0  0  0  0  0  0
    1.3095   -1.3542   -0.3325 C   0  0  0  0  0  0  0  0  0  0  0  0
   -5.4758   -0.7292   -0.2219 C   0  0  0  0  0  0  0  0  0  0  0  0
   -5.9076    0.1054    0.9885 C   0  0  0  0  0  0  0  0  0  0  0  0
   -6.2776   -0.3512   -1.4719 C   0  0  0  0  0  0  0  0  0  0  0  0
   -3.1113   -1.4211    0.1484 C   0  0  0  0  0  0  0  0  0  0  0  0
   -5.8796    1.6070    0.7035 C   0  0  0  0  0  0  0  0  0  0  0  0
   -6.2491    1.1511   -1.7529 C   0  0  0  0  0  0  0  0  0  0  0  0
   -6.6935    1.9597   -0.5379 C   0  0  0  0  0  0  0  0  0  0  0  0
    2.8043   -1.2408   -0.2511 C   0  0  0  0  0  0  0  0  0  0  0  0
    3.6613   -0.5178   -1.0989 C   0  0  0  0  0  0  0  0  0  0  0  0
    4.9073   -0.7562   -0.5824 C   0  0  0  0  0  0  0  0  0  0  0  0
    6.2608   -0.3274   -0.9546 C   0  0  0  0  0  0  0  0  0  0  0  0
    6.8104    0.7969   -0.0481 C   0  0  0  0  0  0  0  0  0  0  0  0
    8.2016    1.2668   -0.4728 C   0  0  0  0  0  0  0  0  0  0  0  0
    8.7010    2.3994    0.4101 C   0  0  0  0  0  0  0  0  0  0  0  0
   -0.7841   -1.4524    1.5939 H   0  0  0  0  0  0  0  0  0  0  0  0
    1.1767   -0.1298    1.4229 H   0  0  0  0  0  0  0  0  0  0  0  0
   -0.9452    0.6960    2.5845 H   0  0  0  0  0  0  0  0  0  0  0  0
   -2.5086    0.4035    1.8643 H   0  0  0  0  0  0  0  0  0  0  0  0
    1.7287    1.3732   -0.4436 H   0  0  0  0  0  0  0  0  0  0  0  0
    0.2075    1.0201   -1.2489 H   0  0  0  0  0  0  0  0  0  0  0  0
   -1.2988   -1.9624   -0.7574 H   0  0  0  0  0  0  0  0  0  0  0  0
   -1.7283   -0.2975   -1.0795 H   0  0  0  0  0  0  0  0  0  0  0  0
   -1.9211    1.8579   -0.0773 H   0  0  0  0  0  0  0  0  0  0  0  0
   -1.7075    2.7058    1.4477 H   0  0  0  0  0  0  0  0  0  0  0  0
    0.9972   -1.3239   -1.3836 H   0  0  0  0  0  0  0  0  0  0  0  0
    1.0202   -2.3412    0.0519 H   0  0  0  0  0  0  0  0  0  0  0  0
   -5.6746   -1.7842    0.0049 H   0  0  0  0  0  0  0  0  0  0  0  0
    0.1344    3.0372   -0.0144 H   0  0  0  0  0  0  0  0  0  0  0  0
   -6.9293   -0.1796    1.2705 H   0  0  0  0  0  0  0  0  0  0  0  0
   -5.2692   -0.1111    1.8535 H   0  0  0  0  0  0  0  0  0  0  0  0
   -5.8963   -0.8916   -2.3466 H   0  0  0  0  0  0  0  0  0  0  0  0
   -7.3206   -0.6641   -1.3344 H   0  0  0  0  0  0  0  0  0  0  0  0
   -4.8428    1.9385    0.5683 H   0  0  0  0  0  0  0  0  0  0  0  0
   -6.2754    2.1514    1.5685 H   0  0  0  0  0  0  0  0  0  0  0  0
   -6.9072    1.3751   -2.6003 H   0  0  0  0  0  0  0  0  0  0  0  0
   -5.2403    1.4601   -2.0506 H   0  0  0  0  0  0  0  0  0  0  0  0
   -7.7560    1.7691   -0.3427 H   0  0  0  0  0  0  0  0  0  0  0  0
   -6.5958    3.0301   -0.7513 H   0  0  0  0  0  0  0  0  0  0  0  0
   -3.7401    0.1600   -1.0472 H   0  0  0  0  0  0  0  0  0  0  0  0
    3.4132    0.0854   -1.9598 H   0  0  0  0  0  0  0  0  0  0  0  0
    6.9411   -1.1871   -0.9157 H   0  0  0  0  0  0  0  0  0  0  0  0
    6.2599    0.0204   -1.9951 H   0  0  0  0  0  0  0  0  0  0  0  0
    6.8432    0.4442    0.9907 H   0  0  0  0  0  0  0  0  0  0  0  0
    6.1161    1.6470   -0.0679 H   0  0  0  0  0  0  0  0  0  0  0  0
    8.9069    0.4294   -0.4221 H   0  0  0  0  0  0  0  0  0  0  0  0
    8.1763    1.6076   -1.5142 H   0  0  0  0  0  0  0  0  0  0  0  0
    8.0329    3.2648    0.3539 H   0  0  0  0  0  0  0  0  0  0  0  0
    9.6976    2.7185    0.0895 H   0  0  0  0  0  0  0  0  0  0  0  0
    8.7657    2.0822    1.4558 H   0  0  0  0  0  0  0  0  0  0  0  0
  1 16  2  0  0  0  0
  2  5  1  0  0  0  0
  2 22  1  0  0  0  0
  3  9  1  0  0  0  0
  3 11  1  0  0  0  0
  3 40  1  0  0  0  0
  4 13  1  0  0  0  0
  4 16  1  0  0  0  0
  4 51  1  0  0  0  0
  5 20  2  0  0  0  0
  6  7  1  0  0  0  0
  6  8  1  0  0  0  0
  6 10  1  0  0  0  0
  6 27  1  0  0  0  0
  7  9  1  0  0  0  0
  7 12  1  0  0  0  0
  7 28  1  0  0  0  0
  8 11  1  0  0  0  0
  8 29  1  0  0  0  0
  8 30  1  0  0  0  0
  9 31  1  0  0  0  0
  9 32  1  0  0  0  0
 10 16  1  0  0  0  0
 10 33  1  0  0  0  0
 10 34  1  0  0  0  0
 11 35  1  0  0  0  0
 11 36  1  0  0  0  0
 12 20  1  0  0  0  0
 12 37  1  0  0  0  0
 12 38  1  0  0  0  0
 13 14  1  0  0  0  0
 13 15  1  0  0  0  0
 13 39  1  0  0  0  0
 14 17  1  0  0  0  0
 14 41  1  0  0  0  0
 14 42  1  0  0  0  0
 15 18  1  0  0  0  0
 15 43  1  0  0  0  0
 15 44  1  0  0  0  0
 17 19  1  0  0  0  0
 17 45  1  0  0  0  0
 17 46  1  0  0  0  0
 18 19  1  0  0  0  0
 18 47  1  0  0  0  0
 18 48  1  0  0  0  0
 19 49  1  0  0  0  0
 19 50  1  0  0  0  0
 20 21  1  0  0  0  0
 21 22  2  0  0  0  0
 21 52  1  0  0  0  0
 22 23  1  0  0  0  0
 23 24  1  0  0  0  0
 23 53  1  0  0  0  0
 23 54  1  0  0  0  0
 24 25  1  0  0  0  0
 24 55  1  0  0  0  0
 24 56  1  0  0  0  0
 25 26  1  0  0  0  0
 25 57  1  0  0  0  0
 25 58  1  0  0  0  0
 26 59  1  0  0  0  0
 26 60  1  0  0  0  0
 26 61  1  0  0  0  0
M  END
> <PUBCHEM_COMPOUND_CID>
26742963

> <PUBCHEM_CONFORMER_RMSD>
1.2

> <PUBCHEM_CONFORMER_DIVERSEORDER>
1
85
22
65
97
7
54
40
144
26
107
73
72
43
38
104
87
53
82
90
79
111
49
83
118
41
15
109
32
75
130
86
91
89
146
95
25
80
88
67
44
133
103
69
143
66
117
28
63
127
46
100
102
119
113
148
110
126
47
137
132
18
10
96
115
55
33
145
35
9
92
39
52
19
6
30
70
45
14
122
125
123
114
12
140
23
128
56
68
17
84
116
50
74
120
31
77
8
94
2
13
93
64
138
71
81
37
59
147
139
131
136
61
141
20
57
58
151
5
42
101
106
48
134
98
121
150
11
36
142
112
27
3
62
135
29
34
78
21
105
129
149
99
108
16
76
51
4
24
124
60

> <PUBCHEM_MMFF94_PARTIAL_CHARGES>
18
1 -0.57
10 0.06
11 0.27
12 0.18
13 0.3
16 0.57
2 -0.02
20 0.11
21 -0.15
22 -0.04
23 0.18
3 -0.9
4 -0.73
40 0.36
5 -0.41
51 0.37
52 0.15
9 0.27

> <PUBCHEM_EFFECTIVE_ROTOR_COUNT>
11.4

> <PUBCHEM_PHARMACOPHORE_FEATURES>
9
1 1 acceptor
1 26 hydrophobe
1 3 cation
1 3 donor
1 4 donor
1 5 acceptor
5 2 5 20 21 22 rings
6 13 14 15 17 18 19 rings
6 3 6 7 8 9 11 rings

> <PUBCHEM_HEAVY_ATOM_COUNT>
26

> <PUBCHEM_ATOM_DEF_STEREO_COUNT>
2

> <PUBCHEM_ATOM_UDEF_STEREO_COUNT>
0

> <PUBCHEM_BOND_DEF_STEREO_COUNT>
0

> <PUBCHEM_BOND_UDEF_STEREO_COUNT>
0

> <PUBCHEM_ISOTOPIC_ATOM_COUNT>
0

> <PUBCHEM_COMPONENT_COUNT>
1

> <PUBCHEM_CACTVS_TAUTO_COUNT>
2

> <PUBCHEM_CONFORMER_ID>
019810B300000001

> <PUBCHEM_MMFF94_ENERGY>
18.1109

> <PUBCHEM_FEATURE_SELFOVERLAP>
45.671

> <PUBCHEM_SHAPE_FINGERPRINT>
10066227 112 18408884035996142749
10835480 77 18335137600724763278
10906281 52 18271259226631267603
10968037 39 18201722859905375335
11135609 187 18334011674821322234
11315181 36 17917997183324983833
11646440 116 12757152376785638494
12788726 201 18269836411376897299
12838862 33 18341036507105721856
13533116 47 18041840602505817498
13690498 29 18268708497569203911
13914758 101 17022899043618630732
14028597 1 14418120795628530556
14344974 204 8862354553981979281
1454969 45 17775568645964927588
14840074 17 17418373584171486743
15183329 4 18410008806727155847
15276724 80 18338795611306828596
16994733 274 17822008683621389600
17093844 174 17894914044780458939
20511986 3 18186515493085832482
21150785 3 17775283880468294271
21756936 100 15140957362274193231
23536379 177 17095244692148945179
23559900 14 18271803561768991784
3009799 131 18409166614636744300
328311 84 8862948277759938076
3383291 50 8142086455530794708
4169191 19 18341897402317640209
4325135 7 17846502552341663380
59755656 520 12612755739476040489
6328613 192 18410576171664682537
7226269 152 18339645547365192681
9996256 80 8142080948902160225

> <PUBCHEM_SHAPE_MULTIPOLES>
508.39
23.37
2.28
1.25
24.81
0.6
-0.13
11.98
-5.79
0.7
0.37
-1.44
0.11
0.54

> <PUBCHEM_SHAPE_SELFOVERLAP>
1030.495

> <PUBCHEM_SHAPE_VOLUME>
293.9

> <PUBCHEM_COORDINATE_TYPE>
2
5
10

$$$$
