40777720
  -OEChem-12032416213D

 59 62  0     1  0  0  0  0  0999 V2000
    5.1191    2.3564   -0.7216 O   0  0  0  0  0  0  0  0  0  0  0  0
    7.0082   -0.5040    0.1837 O   0  0  0  0  0  0  0  0  0  0  0  0
   -2.0431   -0.9541   -0.1524 N   0  0  0  0  0  0  0  0  0  0  0  0
    4.5050    0.5257    0.5640 N   0  0  0  0  0  0  0  0  0  0  0  0
   -1.7681   -2.1650   -0.6667 N   0  0  0  0  0  0  0  0  0  0  0  0
    1.5663   -0.9012    0.4717 C   0  0  2  0  0  0  0  0  0  0  0  0
    2.1536    0.3616   -0.1920 C   0  0  0  0  0  0  0  0  0  0  0  0
    3.1513    0.9408    0.8185 C   0  0  1  0  0  0  0  0  0  0  0  0
    0.1159   -1.1411    0.1205 C   0  0  0  0  0  0  0  0  0  0  0  0
    1.8262   -0.6498    1.9287 C   0  0  0  0  0  0  0  0  0  0  0  0
    2.6929    0.3518    2.1119 C   0  0  0  0  0  0  0  0  0  0  0  0
   -0.9489   -0.2997    0.3322 C   0  0  0  0  0  0  0  0  0  0  0  0
   -0.4477   -2.2736   -0.4972 C   0  0  0  0  0  0  0  0  0  0  0  0
   -7.3891    0.9536   -0.1677 C   0  0  0  0  0  0  0  0  0  0  0  0
   -3.3568   -0.4840   -0.1532 C   0  0  0  0  0  0  0  0  0  0  0  0
   -1.0118    1.0443    0.9416 C   0  0  0  0  0  0  0  0  0  0  0  0
   -5.9842    0.4534   -0.1625 C   0  0  0  0  0  0  0  0  0  0  0  0
    0.2426   -3.4948   -0.9484 C   0  0  0  0  0  0  0  0  0  0  0  0
   -4.3527   -1.1931    0.5186 C   0  0  0  0  0  0  0  0  0  0  0  0
   -3.6746    0.6936   -0.8297 C   0  0  0  0  0  0  0  0  0  0  0  0
    5.3909    1.2797   -0.1969 C   0  0  0  0  0  0  0  0  0  0  0  0
   -5.6663   -0.7244    0.5139 C   0  0  0  0  0  0  0  0  0  0  0  0
   -4.9883    1.1623   -0.8344 C   0  0  0  0  0  0  0  0  0  0  0  0
   -7.8936    1.2382    1.2810 C   0  0  0  0  0  0  0  0  0  0  0  0
   -8.3586   -0.0884   -0.8071 C   0  0  0  0  0  0  0  0  0  0  0  0
   -7.6259    2.2826   -0.9595 C   0  0  0  0  0  0  0  0  0  0  0  0
    6.7452    0.7001   -0.3889 C   0  0  0  0  0  0  0  0  0  0  0  0
    7.8476    1.1628   -1.0692 C   0  0  0  0  0  0  0  0  0  0  0  0
    8.8524    0.1798   -0.9042 C   0  0  0  0  0  0  0  0  0  0  0  0
    8.2924   -0.8135   -0.1346 C   0  0  0  0  0  0  0  0  0  0  0  0
    2.1600   -1.7750    0.1735 H   0  0  0  0  0  0  0  0  0  0  0  0
    1.3828    1.1113   -0.4062 H   0  0  0  0  0  0  0  0  0  0  0  0
    2.6199    0.1183   -1.1545 H   0  0  0  0  0  0  0  0  0  0  0  0
    3.0926    2.0342    0.8319 H   0  0  0  0  0  0  0  0  0  0  0  0
    1.3945   -1.2303    2.7321 H   0  0  0  0  0  0  0  0  0  0  0  0
    3.0364    0.6848    3.0812 H   0  0  0  0  0  0  0  0  0  0  0  0
    4.8172   -0.3726    0.9245 H   0  0  0  0  0  0  0  0  0  0  0  0
   -0.1568    1.2446    1.5911 H   0  0  0  0  0  0  0  0  0  0  0  0
   -1.9025    1.1650    1.5672 H   0  0  0  0  0  0  0  0  0  0  0  0
   -1.0240    1.8188    0.1681 H   0  0  0  0  0  0  0  0  0  0  0  0
    0.7335   -3.9922   -0.1056 H   0  0  0  0  0  0  0  0  0  0  0  0
   -0.4503   -4.2120   -1.4011 H   0  0  0  0  0  0  0  0  0  0  0  0
    1.0052   -3.2513   -1.6953 H   0  0  0  0  0  0  0  0  0  0  0  0
   -4.1216   -2.1110    1.0539 H   0  0  0  0  0  0  0  0  0  0  0  0
   -2.9166    1.2528   -1.3726 H   0  0  0  0  0  0  0  0  0  0  0  0
   -6.4217   -1.2958    1.0457 H   0  0  0  0  0  0  0  0  0  0  0  0
   -5.1807    2.0804   -1.3784 H   0  0  0  0  0  0  0  0  0  0  0  0
   -8.9162    1.6332    1.2768 H   0  0  0  0  0  0  0  0  0  0  0  0
   -7.8997    0.3327    1.8975 H   0  0  0  0  0  0  0  0  0  0  0  0
   -7.2508    1.9733    1.7795 H   0  0  0  0  0  0  0  0  0  0  0  0
   -9.3869    0.2901   -0.8376 H   0  0  0  0  0  0  0  0  0  0  0  0
   -8.0555   -0.3228   -1.8343 H   0  0  0  0  0  0  0  0  0  0  0  0
   -8.3772   -1.0287   -0.2453 H   0  0  0  0  0  0  0  0  0  0  0  0
   -8.6792    2.5853   -0.9169 H   0  0  0  0  0  0  0  0  0  0  0  0
   -7.0383    3.1087   -0.5423 H   0  0  0  0  0  0  0  0  0  0  0  0
   -7.3676    2.1704   -2.0190 H   0  0  0  0  0  0  0  0  0  0  0  0
    7.9226    2.0912   -1.6172 H   0  0  0  0  0  0  0  0  0  0  0  0
    9.8588    0.1932   -1.2970 H   0  0  0  0  0  0  0  0  0  0  0  0
    8.6560   -1.7543    0.2521 H   0  0  0  0  0  0  0  0  0  0  0  0
  1 21  2  0  0  0  0
  2 27  1  0  0  0  0
  2 30  1  0  0  0  0
  3  5  1  0  0  0  0
  3 12  1  0  0  0  0
  3 15  1  0  0  0  0
  4  8  1  0  0  0  0
  4 21  1  0  0  0  0
  4 37  1  0  0  0  0
  5 13  2  0  0  0  0
  6  7  1  0  0  0  0
  6  9  1  0  0  0  0
  6 10  1  0  0  0  0
  6 31  1  0  0  0  0
  7  8  1  0  0  0  0
  7 32  1  0  0  0  0
  7 33  1  0  0  0  0
  8 11  1  0  0  0  0
  8 34  1  0  0  0  0
  9 12  2  0  0  0  0
  9 13  1  0  0  0  0
 10 11  2  0  0  0  0
 10 35  1  0  0  0  0
 11 36  1  0  0  0  0
 12 16  1  0  0  0  0
 13 18  1  0  0  0  0
 14 17  1  0  0  0  0
 14 24  1  0  0  0  0
 14 25  1  0  0  0  0
 14 26  1  0  0  0  0
 15 19  2  0  0  0  0
 15 20  1  0  0  0  0
 16 38  1  0  0  0  0
 16 39  1  0  0  0  0
 16 40  1  0  0  0  0
 17 22  2  0  0  0  0
 17 23  1  0  0  0  0
 18 41  1  0  0  0  0
 18 42  1  0  0  0  0
 18 43  1  0  0  0  0
 19 22  1  0  0  0  0
 19 44  1  0  0  0  0
 20 23  2  0  0  0  0
 20 45  1  0  0  0  0
 21 27  1  0  0  0  0
 22 46  1  0  0  0  0
 23 47  1  0  0  0  0
 24 48  1  0  0  0  0
 24 49  1  0  0  0  0
 24 50  1  0  0  0  0
 25 51  1  0  0  0  0
 25 52  1  0  0  0  0
 25 53  1  0  0  0  0
 26 54  1  0  0  0  0
 26 55  1  0  0  0  0
 26 56  1  0  0  0  0
 27 28  2  0  0  0  0
 28 29  1  0  0  0  0
 28 57  1  0  0  0  0
 29 30  2  0  0  0  0
 29 58  1  0  0  0  0
 30 59  1  0  0  0  0
M  END
> <PUBCHEM_COMPOUND_CID>
40777720

> <PUBCHEM_CONFORMER_RMSD>
0.8

> <PUBCHEM_CONFORMER_DIVERSEORDER>
1
26
122
22
25
49
47
39
99
79
30
103
93
45
109
58
35
124
46
2
5
84
37
60
82
74
102
48
6
90
118
14
114
20
87
115
71
83
64
10
23
70
61
125
44
27
72
126
12
116
33
31
38
41
81
89
13
65
8
80
95
117
52
69
111
120
56
86
110
104
98
78
73
100
42
112
9
107
108
3
94
91
34
57
18
92
77
40
51
101
106
105
66
16
17
11
28
123
88
50
96
55
7
97
19
121
21
36
76
67
119
53
113
29
15
62
68
59
4
32
43
63
75
54
24
85

> <PUBCHEM_MMFF94_PARTIAL_CHARGES>
36
1 -0.57
10 -0.29
11 -0.29
12 -0.33
13 0.11
14 0.14
15 -0.02
16 0.18
17 -0.14
18 0.18
19 -0.15
2 -0.28
20 -0.15
21 0.71
22 -0.15
23 -0.15
27 0.05
28 -0.15
29 -0.15
3 0.59
30 -0.01
35 0.15
36 0.15
37 0.37
4 -0.73
44 0.15
45 0.15
46 0.15
47 0.15
5 -0.71
57 0.15
58 0.15
59 0.15
6 0.32
8 0.44
9 -0.18

> <PUBCHEM_EFFECTIVE_ROTOR_COUNT>
6.6

> <PUBCHEM_PHARMACOPHORE_FEATURES>
9
1 1 acceptor
1 2 acceptor
1 4 donor
1 5 acceptor
4 14 24 25 26 hydrophobe
5 2 27 28 29 30 rings
5 3 5 9 12 13 rings
5 6 7 8 10 11 rings
6 15 17 19 20 22 23 rings

> <PUBCHEM_HEAVY_ATOM_COUNT>
30

> <PUBCHEM_ATOM_DEF_STEREO_COUNT>
2

> <PUBCHEM_ATOM_UDEF_STEREO_COUNT>
0

> <PUBCHEM_BOND_DEF_STEREO_COUNT>
0

> <PUBCHEM_BOND_UDEF_STEREO_COUNT>
0

> <PUBCHEM_ISOTOPIC_ATOM_COUNT>
0

> <PUBCHEM_COMPONENT_COUNT>
1

> <PUBCHEM_CACTVS_TAUTO_COUNT>
2

> <PUBCHEM_CONFORMER_ID>
026E37F800000001

> <PUBCHEM_MMFF94_ENERGY>
79.3543

> <PUBCHEM_FEATURE_SELFOVERLAP>
45.672

> <PUBCHEM_SHAPE_FINGERPRINT>
10 15 17749389252891265713
10165383 225 18342739607192421447
10369192 42 18335416859746061789
10483366 6 18131072627934599640
106641 1 13623533463075706553
10669705 176 18343298202202252079
10670039 82 17846219925839490545
10674148 151 17132113528809487640
10883706 17 13038605406382483629
10904742 90 18186518813084918434
11135609 127 18128813218167528256
11135609 99 10303803298605350872
11211813 128 11674874486211326960
11408170 108 14620530991155969356
12643181 29 11599998861067434021
14040221 8 18059862766854338480
14117953 113 18412827984168344804
14150022 121 14056988400360923631
14150023 24 18409444782500115530
14257110 125 18411981360641685517
14933364 13 18040154032961333644
15183329 4 18202849855461180914
15188451 53 11527954456730997116
15301273 46 14418126292806458098
15392192 104 14923946760441885608
15461852 350 18341326782491398047
15728490 51 8646765587019861728
1577012 14 18187074074867453946
15840311 113 17749392606770523492
15849732 13 18113620101431242972
15927050 60 18411695525984415586
15961568 22 18186518774678418885
16992610 120 16515980211777029306
18335252 114 18409442600862028876
190975 80 11458426842621199792
19309040 13 16736388454372327670
19611394 137 17896332483594557043
20505436 4 18040710381429339106
21033648 29 18270667792027296529
21223535 225 16558764386049641417
21585482 111 18188769419468220021
21781055 127 17774443772038772338
21792961 116 18272375269566911419
22224240 67 14273456989836132448
23559900 14 17702377537396498048
23576562 1 18195798790456125397
24771293 8 18260828164957705837
249057 3 18341613750625739340
2747138 104 12468637192656617978
335352 9 18272932743389394820
4073 2 17312824874905576579
4149490 64 13038605414597286695
474113 269 16271655478084201414
5104073 3 11964204352299570356
5758199 1 16298385764531572160
59682541 35 11386371461055815156
6086070 43 17346592023408206899
6126387 218 8718835288765470743
6438161 24 11959728283154214493
9663363 56 16845572012273694216
9689198 14 17894916243471333552
9953998 17 15357700803491190417
9962374 69 11170211881935438305

> <PUBCHEM_SHAPE_MULTIPOLES>
590.7
27.39
2.23
1.29
12.13
1.28
-0.5
-13.65
6.96
-0.7
0.77
0.25
-0.13
-0.17

> <PUBCHEM_SHAPE_SELFOVERLAP>
1279.803

> <PUBCHEM_SHAPE_VOLUME>
328.3

> <PUBCHEM_COORDINATE_TYPE>
2
5
10

$$$$
