11884219
  -OEChem-12032416363D

 60 64  0     1  0  0  0  0  0999 V2000
    8.7109    2.9239   -0.0559 Cl  0  0  0  0  0  0  0  0  0  0  0  0
   -1.7833   -0.4863    1.9217 O   0  0  0  0  0  0  0  0  0  0  0  0
    1.4672    1.6976   -1.6286 O   0  0  0  0  0  0  0  0  0  0  0  0
   -4.5211   -2.2802   -0.2821 O   0  0  0  0  0  0  0  0  0  0  0  0
   -6.5441   -0.7876   -0.6100 O   0  0  0  0  0  0  0  0  0  0  0  0
    5.8331   -2.1921   -0.2858 O   0  0  0  0  0  0  0  0  0  0  0  0
   -0.1868    0.2749   -0.8596 N   0  0  0  0  0  0  0  0  0  0  0  0
   -2.9274   -0.6811   -0.8364 N   0  0  0  0  0  0  0  0  0  0  0  0
    0.4621   -0.1231    1.9998 N   0  0  0  0  0  0  0  0  0  0  0  0
   -0.5455   -0.9184   -0.1056 C   0  0  2  0  0  0  0  0  0  0  0  0
   -1.8054   -1.6045   -0.6487 C   0  0  0  0  0  0  0  0  0  0  0  0
   -1.1823    0.8036   -1.7929 C   0  0  0  0  0  0  0  0  0  0  0  0
   -2.5961    0.6875   -1.2426 C   0  0  0  0  0  0  0  0  0  0  0  0
   -0.6974   -0.4671    1.3384 C   0  0  0  0  0  0  0  0  0  0  0  0
    1.0977    0.8106   -0.8574 C   0  0  0  0  0  0  0  0  0  0  0  0
    2.0818    0.3183    0.1433 C   0  0  0  0  0  0  0  0  0  0  0  0
   -4.2316   -1.1314   -0.6239 C   0  0  0  0  0  0  0  0  0  0  0  0
    1.7649   -0.0043    1.4729 C   0  0  0  0  0  0  0  0  0  0  0  0
    3.4317    0.3618   -0.2519 C   0  0  0  0  0  0  0  0  0  0  0  0
   -5.3289   -0.1183   -0.8413 C   0  0  0  0  0  0  0  0  0  0  0  0
    2.8099   -0.2061    2.3917 C   0  0  0  0  0  0  0  0  0  0  0  0
    4.4544    0.1103    0.6616 C   0  0  0  0  0  0  0  0  0  0  0  0
    4.1438   -0.1604    1.9878 C   0  0  0  0  0  0  0  0  0  0  0  0
    5.8361    0.1547    0.2350 C   0  0  0  0  0  0  0  0  0  0  0  0
    6.4823   -0.9943   -0.2248 C   0  0  0  0  0  0  0  0  0  0  0  0
    6.5272    1.3666    0.2862 C   0  0  0  0  0  0  0  0  0  0  0  0
   -7.6109   -0.0314   -0.1776 C   0  0  0  0  0  0  0  0  0  0  0  0
    7.8148   -0.9317   -0.6319 C   0  0  0  0  0  0  0  0  0  0  0  0
    7.8598    1.4293   -0.1209 C   0  0  0  0  0  0  0  0  0  0  0  0
    8.5037    0.2801   -0.5799 C   0  0  0  0  0  0  0  0  0  0  0  0
   -7.7032    1.2983   -0.5607 C   0  0  0  0  0  0  0  0  0  0  0  0
   -8.5735   -0.6127    0.6340 C   0  0  0  0  0  0  0  0  0  0  0  0
   -8.7831    2.0645   -0.1219 C   0  0  0  0  0  0  0  0  0  0  0  0
   -9.6535    0.1534    1.0728 C   0  0  0  0  0  0  0  0  0  0  0  0
    5.1507   -2.4966   -1.4998 C   0  0  0  0  0  0  0  0  0  0  0  0
   -9.7582    1.4921    0.6947 C   0  0  0  0  0  0  0  0  0  0  0  0
    0.2780   -1.6415   -0.1551 H   0  0  0  0  0  0  0  0  0  0  0  0
   -1.5960   -2.0342   -1.6364 H   0  0  0  0  0  0  0  0  0  0  0  0
   -2.1052   -2.4316    0.0044 H   0  0  0  0  0  0  0  0  0  0  0  0
   -0.9554    1.8488   -2.0288 H   0  0  0  0  0  0  0  0  0  0  0  0
   -1.0824    0.2304   -2.7228 H   0  0  0  0  0  0  0  0  0  0  0  0
   -2.7122    1.3190   -0.3539 H   0  0  0  0  0  0  0  0  0  0  0  0
   -3.3084    1.0374   -1.9946 H   0  0  0  0  0  0  0  0  0  0  0  0
    0.3804   -0.0403    3.0105 H   0  0  0  0  0  0  0  0  0  0  0  0
    3.6895    0.6137   -1.2799 H   0  0  0  0  0  0  0  0  0  0  0  0
   -5.3056    0.2300   -1.8781 H   0  0  0  0  0  0  0  0  0  0  0  0
   -5.1635    0.7049   -0.1357 H   0  0  0  0  0  0  0  0  0  0  0  0
    2.5917   -0.4328    3.4337 H   0  0  0  0  0  0  0  0  0  0  0  0
    4.9250   -0.3433    2.7215 H   0  0  0  0  0  0  0  0  0  0  0  0
    6.0285    2.2657    0.6439 H   0  0  0  0  0  0  0  0  0  0  0  0
    8.3233   -1.8229   -0.9900 H   0  0  0  0  0  0  0  0  0  0  0  0
    9.5419    0.3139   -0.9000 H   0  0  0  0  0  0  0  0  0  0  0  0
   -6.9776    1.7719   -1.2144 H   0  0  0  0  0  0  0  0  0  0  0  0
   -8.4941   -1.6546    0.9301 H   0  0  0  0  0  0  0  0  0  0  0  0
   -8.8682    3.1053   -0.4206 H   0  0  0  0  0  0  0  0  0  0  0  0
  -10.4129   -0.2923    1.7085 H   0  0  0  0  0  0  0  0  0  0  0  0
    5.8341   -3.0223   -2.1735 H   0  0  0  0  0  0  0  0  0  0  0  0
    4.3112   -3.1573   -1.2666 H   0  0  0  0  0  0  0  0  0  0  0  0
    4.7671   -1.6021   -2.0001 H   0  0  0  0  0  0  0  0  0  0  0  0
  -10.5998    2.0882    1.0352 H   0  0  0  0  0  0  0  0  0  0  0  0
  1 29  1  0  0  0  0
  2 14  2  0  0  0  0
  3 15  2  0  0  0  0
  4 17  2  0  0  0  0
  5 20  1  0  0  0  0
  5 27  1  0  0  0  0
  6 25  1  0  0  0  0
  6 35  1  0  0  0  0
  7 10  1  0  0  0  0
  7 12  1  0  0  0  0
  7 15  1  0  0  0  0
  8 11  1  0  0  0  0
  8 13  1  0  0  0  0
  8 17  1  0  0  0  0
  9 14  1  0  0  0  0
  9 18  1  0  0  0  0
  9 44  1  0  0  0  0
 10 11  1  0  0  0  0
 10 14  1  0  0  0  0
 10 37  1  0  0  0  0
 11 38  1  0  0  0  0
 11 39  1  0  0  0  0
 12 13  1  0  0  0  0
 12 40  1  0  0  0  0
 12 41  1  0  0  0  0
 13 42  1  0  0  0  0
 13 43  1  0  0  0  0
 15 16  1  0  0  0  0
 16 18  2  0  0  0  0
 16 19  1  0  0  0  0
 17 20  1  0  0  0  0
 18 21  1  0  0  0  0
 19 22  2  0  0  0  0
 19 45  1  0  0  0  0
 20 46  1  0  0  0  0
 20 47  1  0  0  0  0
 21 23  2  0  0  0  0
 21 48  1  0  0  0  0
 22 23  1  0  0  0  0
 22 24  1  0  0  0  0
 23 49  1  0  0  0  0
 24 25  2  0  0  0  0
 24 26  1  0  0  0  0
 25 28  1  0  0  0  0
 26 29  2  0  0  0  0
 26 50  1  0  0  0  0
 27 31  2  0  0  0  0
 27 32  1  0  0  0  0
 28 30  2  0  0  0  0
 28 51  1  0  0  0  0
 29 30  1  0  0  0  0
 30 52  1  0  0  0  0
 31 33  1  0  0  0  0
 31 53  1  0  0  0  0
 32 34  2  0  0  0  0
 32 54  1  0  0  0  0
 33 36  2  0  0  0  0
 33 55  1  0  0  0  0
 34 36  1  0  0  0  0
 34 56  1  0  0  0  0
 35 57  1  0  0  0  0
 35 58  1  0  0  0  0
 35 59  1  0  0  0  0
 36 60  1  0  0  0  0
M  END
> <PUBCHEM_COMPOUND_CID>
11884219

> <PUBCHEM_CONFORMER_RMSD>
1

> <PUBCHEM_CONFORMER_DIVERSEORDER>
1
18
108
42
64
82
100
45
35
12
125
126
88
133
48
127
49
79
117
119
13
130
23
67
128
122
134
132
30
144
70
94
89
33
143
53
61
21
106
103
71
28
141
96
114
87
118
62
78
115
77
69
135
140
129
98
76
93
29
68
11
109
113
44
121
47
38
99
92
57
20
8
86
27
75
56
36
10
124
138
4
60
40
90
111
73
72
142
63
105
19
131
7
17
32
123
22
58
52
84
26
46
102
116
2
120
43
5
112
104
50
24
137
3
97
107
39
55
37
80
139
85
9
16
6
51
41
81
59
15
136
66
91
101
74
83
31
34
14
54
65
110
95
25

> <PUBCHEM_MMFF94_PARTIAL_CHARGES>
46
1 -0.18
10 0.36
11 0.3
12 0.3
13 0.3
14 0.57
15 0.54
16 0.09
17 0.57
18 0.12
19 -0.15
2 -0.57
20 0.34
21 -0.15
23 -0.15
25 0.08
26 -0.15
27 0.08
28 -0.15
29 0.18
3 -0.57
30 -0.15
31 -0.15
32 -0.15
33 -0.15
34 -0.15
35 0.28
36 -0.15
4 -0.57
44 0.37
45 0.15
48 0.15
49 0.15
5 -0.36
50 0.15
51 0.15
52 0.15
53 0.15
54 0.15
55 0.15
56 0.15
6 -0.36
60 0.15
7 -0.66
8 -0.66
9 -0.55

> <PUBCHEM_EFFECTIVE_ROTOR_COUNT>
7

> <PUBCHEM_PHARMACOPHORE_FEATURES>
11
1 2 acceptor
1 3 acceptor
1 4 acceptor
1 5 acceptor
1 6 acceptor
1 9 donor
6 16 18 19 21 22 23 rings
6 24 25 26 28 29 30 rings
6 27 31 32 33 34 36 rings
6 7 8 10 11 12 13 rings
7 7 9 10 14 15 16 18 rings

> <PUBCHEM_HEAVY_ATOM_COUNT>
36

> <PUBCHEM_ATOM_DEF_STEREO_COUNT>
1

> <PUBCHEM_ATOM_UDEF_STEREO_COUNT>
0

> <PUBCHEM_BOND_DEF_STEREO_COUNT>
0

> <PUBCHEM_BOND_UDEF_STEREO_COUNT>
0

> <PUBCHEM_ISOTOPIC_ATOM_COUNT>
0

> <PUBCHEM_COMPONENT_COUNT>
1

> <PUBCHEM_CACTVS_TAUTO_COUNT>
3

> <PUBCHEM_CONFORMER_ID>
00B556BB00000001

> <PUBCHEM_MMFF94_ENERGY>
140.3966

> <PUBCHEM_FEATURE_SELFOVERLAP>
55.869

> <PUBCHEM_SHAPE_FINGERPRINT>
10076449 9 15068623786374962237
10162869 55 11602823501864037430
10580692 12 18412263956911140423
106641 1 13334739033301018043
10674148 151 18410007745432611618
11115154 58 18411420618212465928
11181472 205 17632024069426060000
11409948 35 17917152672026807182
11672396 167 17845380951951052310
12089408 11 18342172293146052215
13617811 41 15791450422740096780
14117953 113 14261354669422817744
14400156 96 9583220744689066546
15131766 46 16197306698444266968
15183329 4 17275105033065912010
15301273 46 18408886209713668791
15320295 40 10952051156559697035
15328829 1 18040999523244179141
15347591 1 15359080582919547343
15444296 9 15626225698006973361
15461852 350 17274815892389768845
18335252 98 14273453665272716121
18608769 82 15864352480099124219
19315958 150 18343588438432400206
20105231 36 17749108876550976891
21792934 111 15339111339416259866
21792938 131 15912781492822513302
21895431 317 9727094031501092580
22149856 69 16226601875774510125
23569917 315 15141510352214404240
3178227 256 16370725928863194921
335352 9 14405186196594521520
335507 130 14634870859975078603
3552219 110 17822008683880073853
3633792 109 18343586244041279914
4093350 32 18409728491502599348
4098825 35 18343018874582380604
4112364 45 13840275814358058374
4353968 344 12895085002651858291
439807 62 17917712375564862814
45270241 37 18341618131713609540
474113 269 16486977237523288350
5381727 24 12757143581262172288
5758199 1 17240197729543750273
59682541 35 14707209924678633425
6009941 240 17561362916076370559
6081469 158 17561085791468799424
6394761 36 16989123158482730041
9663363 56 11818992986302826239
9689198 14 18260546710859134577

> <PUBCHEM_SHAPE_MULTIPOLES>
698.44
32.51
1.99
1.65
38.16
0.11
-0.67
12.19
-0.02
-2.03
0.61
-0.41
-0.05
0.34

> <PUBCHEM_SHAPE_SELFOVERLAP>
1525.732

> <PUBCHEM_SHAPE_VOLUME>
376

> <PUBCHEM_COORDINATE_TYPE>
2
5
10

$$$$
