40777712
  -OEChem-12032416173D

 62 64  0     1  0  0  0  0  0999 V2000
    4.8292   -1.7530   -0.2626 O   0  0  0  0  0  0  0  0  0  0  0  0
    7.2612   -0.6873    0.1809 O   0  0  0  0  0  0  0  0  0  0  0  0
   10.7169   -0.3569    1.0780 O   0  0  0  0  0  0  0  0  0  0  0  0
    9.3295   -2.1613    1.1647 O   0  0  0  0  0  0  0  0  0  0  0  0
   -2.6064    0.9504    0.3558 N   0  0  0  0  0  0  0  0  0  0  0  0
    3.9668    0.2686   -1.0256 N   0  0  0  0  0  0  0  0  0  0  0  0
   -2.3852    2.0175    1.1423 N   0  0  0  0  0  0  0  0  0  0  0  0
    0.9458    1.3672   -0.4367 C   0  0  2  0  0  0  0  0  0  0  0  0
    1.6673    0.0365   -0.1390 C   0  0  0  0  0  0  0  0  0  0  0  0
    2.6325   -0.1880   -1.3095 C   0  0  1  0  0  0  0  0  0  0  0  0
   -0.4905    1.3862    0.0335 C   0  0  0  0  0  0  0  0  0  0  0  0
    1.1223    1.5043   -1.9211 C   0  0  0  0  0  0  0  0  0  0  0  0
    2.0446    0.6577   -2.3908 C   0  0  0  0  0  0  0  0  0  0  0  0
   -1.5036    0.5328   -0.3296 C   0  0  0  0  0  0  0  0  0  0  0  0
   -1.0909    2.2791    0.9413 C   0  0  0  0  0  0  0  0  0  0  0  0
   -7.7864   -1.3619    0.1542 C   0  0  0  0  0  0  0  0  0  0  0  0
   -3.8794    0.3816    0.3031 C   0  0  0  0  0  0  0  0  0  0  0  0
   -1.5108   -0.6211   -1.2517 C   0  0  0  0  0  0  0  0  0  0  0  0
   -6.4251   -0.7550    0.2058 C   0  0  0  0  0  0  0  0  0  0  0  0
   -0.4615    3.4079    1.6492 C   0  0  0  0  0  0  0  0  0  0  0  0
    4.9625   -0.5600   -0.5212 C   0  0  0  0  0  0  0  0  0  0  0  0
   -4.9679    1.1441   -0.1209 C   0  0  0  0  0  0  0  0  0  0  0  0
   -4.0638   -0.9490    0.6784 C   0  0  0  0  0  0  0  0  0  0  0  0
   -6.2407    0.5757   -0.1695 C   0  0  0  0  0  0  0  0  0  0  0  0
   -5.3367   -1.5173    0.6299 C   0  0  0  0  0  0  0  0  0  0  0  0
   -8.3674   -1.3256   -1.2933 C   0  0  0  0  0  0  0  0  0  0  0  0
   -8.7826   -0.5971    1.0801 C   0  0  0  0  0  0  0  0  0  0  0  0
   -7.8712   -2.8599    0.5993 C   0  0  0  0  0  0  0  0  0  0  0  0
    6.2668    0.1813   -0.3188 C   0  0  0  0  0  0  0  0  0  0  0  0
    8.5014   -0.0155    0.3815 C   0  0  0  0  0  0  0  0  0  0  0  0
    9.5237   -0.9815    0.9126 C   0  0  0  0  0  0  0  0  0  0  0  0
    1.4937    2.1897    0.0412 H   0  0  0  0  0  0  0  0  0  0  0  0
    2.1798    0.0762    0.8299 H   0  0  0  0  0  0  0  0  0  0  0  0
    0.9694   -0.8071   -0.0818 H   0  0  0  0  0  0  0  0  0  0  0  0
    2.6541   -1.2459   -1.5915 H   0  0  0  0  0  0  0  0  0  0  0  0
    0.5954    2.2240   -2.5320 H   0  0  0  0  0  0  0  0  0  0  0  0
    2.3437    0.6037   -3.4281 H   0  0  0  0  0  0  0  0  0  0  0  0
    4.1813    1.2526   -1.1657 H   0  0  0  0  0  0  0  0  0  0  0  0
   -1.4135   -1.5596   -0.6966 H   0  0  0  0  0  0  0  0  0  0  0  0
   -2.4313   -0.6620   -1.8435 H   0  0  0  0  0  0  0  0  0  0  0  0
   -0.6903   -0.5806   -1.9715 H   0  0  0  0  0  0  0  0  0  0  0  0
   -0.0669    4.1374    0.9345 H   0  0  0  0  0  0  0  0  0  0  0  0
   -1.1718    3.9292    2.2998 H   0  0  0  0  0  0  0  0  0  0  0  0
    0.3661    3.0562    2.2737 H   0  0  0  0  0  0  0  0  0  0  0  0
   -4.8414    2.1817   -0.4204 H   0  0  0  0  0  0  0  0  0  0  0  0
   -3.2317   -1.5559    1.0269 H   0  0  0  0  0  0  0  0  0  0  0  0
   -7.0703    1.1919   -0.5042 H   0  0  0  0  0  0  0  0  0  0  0  0
   -5.4241   -2.5539    0.9359 H   0  0  0  0  0  0  0  0  0  0  0  0
   -9.3560   -1.7973   -1.3382 H   0  0  0  0  0  0  0  0  0  0  0  0
   -8.4816   -0.3007   -1.6630 H   0  0  0  0  0  0  0  0  0  0  0  0
   -7.7089   -1.8571   -1.9904 H   0  0  0  0  0  0  0  0  0  0  0  0
   -8.9079    0.4469    0.7727 H   0  0  0  0  0  0  0  0  0  0  0  0
   -8.4273   -0.5961    2.1173 H   0  0  0  0  0  0  0  0  0  0  0  0
   -9.7763   -1.0597    1.0651 H   0  0  0  0  0  0  0  0  0  0  0  0
   -7.5495   -2.9887    1.6394 H   0  0  0  0  0  0  0  0  0  0  0  0
   -7.2554   -3.5040   -0.0391 H   0  0  0  0  0  0  0  0  0  0  0  0
   -8.9003   -3.2336    0.5338 H   0  0  0  0  0  0  0  0  0  0  0  0
    6.5828    0.5962   -1.2829 H   0  0  0  0  0  0  0  0  0  0  0  0
    6.0934    0.9987    0.3908 H   0  0  0  0  0  0  0  0  0  0  0  0
    8.8589    0.3824   -0.5742 H   0  0  0  0  0  0  0  0  0  0  0  0
    8.3679    0.7891    1.1122 H   0  0  0  0  0  0  0  0  0  0  0  0
   11.4038   -0.9657    1.4241 H   0  0  0  0  0  0  0  0  0  0  0  0
  1 21  2  0  0  0  0
  2 29  1  0  0  0  0
  2 30  1  0  0  0  0
  3 31  1  0  0  0  0
  3 62  1  0  0  0  0
  4 31  2  0  0  0  0
  5  7  1  0  0  0  0
  5 14  1  0  0  0  0
  5 17  1  0  0  0  0
  6 10  1  0  0  0  0
  6 21  1  0  0  0  0
  6 38  1  0  0  0  0
  7 15  2  0  0  0  0
  8  9  1  0  0  0  0
  8 11  1  0  0  0  0
  8 12  1  0  0  0  0
  8 32  1  0  0  0  0
  9 10  1  0  0  0  0
  9 33  1  0  0  0  0
  9 34  1  0  0  0  0
 10 13  1  0  0  0  0
 10 35  1  0  0  0  0
 11 14  2  0  0  0  0
 11 15  1  0  0  0  0
 12 13  2  0  0  0  0
 12 36  1  0  0  0  0
 13 37  1  0  0  0  0
 14 18  1  0  0  0  0
 15 20  1  0  0  0  0
 16 19  1  0  0  0  0
 16 26  1  0  0  0  0
 16 27  1  0  0  0  0
 16 28  1  0  0  0  0
 17 22  2  0  0  0  0
 17 23  1  0  0  0  0
 18 39  1  0  0  0  0
 18 40  1  0  0  0  0
 18 41  1  0  0  0  0
 19 24  2  0  0  0  0
 19 25  1  0  0  0  0
 20 42  1  0  0  0  0
 20 43  1  0  0  0  0
 20 44  1  0  0  0  0
 21 29  1  0  0  0  0
 22 24  1  0  0  0  0
 22 45  1  0  0  0  0
 23 25  2  0  0  0  0
 23 46  1  0  0  0  0
 24 47  1  0  0  0  0
 25 48  1  0  0  0  0
 26 49  1  0  0  0  0
 26 50  1  0  0  0  0
 26 51  1  0  0  0  0
 27 52  1  0  0  0  0
 27 53  1  0  0  0  0
 27 54  1  0  0  0  0
 28 55  1  0  0  0  0
 28 56  1  0  0  0  0
 28 57  1  0  0  0  0
 29 58  1  0  0  0  0
 29 59  1  0  0  0  0
 30 31  1  0  0  0  0
 30 60  1  0  0  0  0
 30 61  1  0  0  0  0
M  END
> <PUBCHEM_COMPOUND_CID>
40777712

> <PUBCHEM_CONFORMER_RMSD>
1

> <PUBCHEM_CONFORMER_DIVERSEORDER>
1
51
76
60
23
16
63
12
62
6
59
67
4
29
80
18
52
61
82
33
78
45
28
32
39
55
75
40
84
54
72
73
57
47
19
56
69
24
66
27
81
58
83
44
5
85
88
10
38
46
15
77
65
53
49
87
9
74
36
31
17
70
26
2
34
86
22
41
43
71
20
13
64
68
37
50
35
30
14
79
8
7
25
48
11
3
42
21

> <PUBCHEM_MMFF94_PARTIAL_CHARGES>
35
1 -0.57
10 0.44
11 -0.18
12 -0.29
13 -0.29
14 -0.33
15 0.11
16 0.14
17 -0.02
18 0.18
19 -0.14
2 -0.56
20 0.18
21 0.57
22 -0.15
23 -0.15
24 -0.15
25 -0.15
29 0.34
3 -0.65
30 0.34
31 0.66
36 0.15
37 0.15
38 0.37
4 -0.57
45 0.15
46 0.15
47 0.15
48 0.15
5 0.59
6 -0.73
62 0.5
7 -0.71
8 0.32

> <PUBCHEM_EFFECTIVE_ROTOR_COUNT>
9.6

> <PUBCHEM_PHARMACOPHORE_FEATURES>
11
1 1 acceptor
1 2 acceptor
1 3 acceptor
1 4 acceptor
1 6 donor
1 7 acceptor
3 3 4 31 anion
4 16 26 27 28 hydrophobe
5 5 7 11 14 15 rings
5 8 9 10 12 13 rings
6 17 19 22 23 24 25 rings

> <PUBCHEM_HEAVY_ATOM_COUNT>
31

> <PUBCHEM_ATOM_DEF_STEREO_COUNT>
2

> <PUBCHEM_ATOM_UDEF_STEREO_COUNT>
0

> <PUBCHEM_BOND_DEF_STEREO_COUNT>
0

> <PUBCHEM_BOND_UDEF_STEREO_COUNT>
0

> <PUBCHEM_ISOTOPIC_ATOM_COUNT>
0

> <PUBCHEM_COMPONENT_COUNT>
1

> <PUBCHEM_CACTVS_TAUTO_COUNT>
2

> <PUBCHEM_CONFORMER_ID>
026E37F000000001

> <PUBCHEM_MMFF94_ENERGY>
83.737

> <PUBCHEM_FEATURE_SELFOVERLAP>
55.891

> <PUBCHEM_SHAPE_FINGERPRINT>
10 15 15985105197758029046
10165383 225 14908179751141339716
10369192 42 13686294661037841552
106641 1 16845291652664530742
10670039 82 17022615378583386573
10674148 151 15285352925076537477
10883706 17 17749961088747537931
10930396 42 17632289073477289098
11135609 99 18337955691976543230
11211813 128 17847065467814254758
11408170 108 17749672887978460210
12539745 222 18334010558262090452
12643181 29 18261675965347192131
12741549 16 18408886235600498397
13540713 4 16843061705755893404
13782708 43 18267872860510657727
14068700 675 18260551121290284220
14117953 113 11674879979442960554
14150022 121 16630253510916848889
14849402 71 13182733749737171842
15183329 4 16225764129692414757
15188451 53 18334297561288484900
15347590 135 17275109401364299642
15350500 16 17821444664816567422
15392192 104 15482671290503223990
15690457 1 18113335311067041402
15706992 2 12823297935502900350
15728490 51 18273492386255318030
16992610 120 12823294642033403536
18603816 31 18335135444989492503
20105231 36 18269841927260383982
2026 5 17967812713068081458
20721686 146 10519722063800586059
21095123 293 11600006552953057946
21130935 74 18196936566380265506
212700 22 18407758135979270738
21360443 89 18260542321935587514
21585482 111 11239738348461721723
21792934 111 17988924479199204905
21792961 116 17894631479662796243
21895431 317 17096072591031626986
22224240 67 16128657453065432588
23522609 53 17908182998940703649
23559900 14 18118407474518411009
23576562 1 11026383704875323915
3004659 81 18113620118811669225
335352 9 11241972594131163451
3383291 50 18271814553361143175
3711267 37 11240003394566013354
3986486 107 13912317984308095926
4149490 64 17896331379118158905
4440575 13 18113329813129998074
4516262 110 11815621839394461609
45266715 3 15574992832997788554
474113 269 15719661084286487440
4760202 170 11314325953674134838
5758199 1 13830131680950003644
59521660 218 18198896088430472573
59682541 35 17632856434726042194
6126387 218 18343304752232853329
6201320 82 8718011763347823731
9663363 56 18060418011192668701
9689198 14 12679461997874297084
9953998 17 15697996353647393263

> <PUBCHEM_SHAPE_MULTIPOLES>
599.55
31.53
2.4
1.49
46.69
0.82
-0.54
-25.86
11.09
-1.78
1.1
0.78
0.4
-1.21

> <PUBCHEM_SHAPE_SELFOVERLAP>
1266.777

> <PUBCHEM_SHAPE_VOLUME>
339.8

> <PUBCHEM_COORDINATE_TYPE>
2
5
10

$$$$
