75536936
  -OEChem-12032416333D

 40 42  0     1  0  0  0  0  0999 V2000
    3.3502    1.2585    1.8909 O   0  0  0  0  0  0  0  0  0  0  0  0
    4.9427    0.5488   -1.2581 O   0  0  0  0  0  0  0  0  0  0  0  0
    1.5783   -0.4675   -0.0082 N   0  0  2  0  0  0  0  0  0  0  0  0
   -2.9074   -1.6741    0.7265 N   0  0  0  0  0  0  0  0  0  0  0  0
    2.8205   -0.4725   -0.7886 C   0  0  0  0  0  0  0  0  0  0  0  0
    4.0455    0.2379   -0.1912 C   0  0  2  0  0  0  0  0  0  0  0  0
    1.7730   -0.5891    1.4373 C   0  0  0  0  0  0  0  0  0  0  0  0
    0.6629   -1.4914   -0.5135 C   0  0  0  0  0  0  0  0  0  0  0  0
    3.7242    1.5317    0.5447 C   0  0  0  0  0  0  0  0  0  0  0  0
    2.0178    0.7911    2.0485 C   0  0  0  0  0  0  0  0  0  0  0  0
   -0.7770   -1.1262   -0.2682 C   0  0  0  0  0  0  0  0  0  0  0  0
   -1.3187    0.0453   -0.7771 C   0  0  0  0  0  0  0  0  0  0  0  0
   -1.6069   -1.9444    0.4710 C   0  0  0  0  0  0  0  0  0  0  0  0
   -2.6619    0.3639   -0.5358 C   0  0  0  0  0  0  0  0  0  0  0  0
   -3.4305   -0.5365    0.2313 C   0  0  0  0  0  0  0  0  0  0  0  0
    5.7097   -0.5844   -1.6327 C   0  0  0  0  0  0  0  0  0  0  0  0
   -3.2403    1.5424   -1.0370 C   0  0  0  0  0  0  0  0  0  0  0  0
   -4.7648   -0.2196    0.4704 C   0  0  0  0  0  0  0  0  0  0  0  0
   -4.5771    1.8343   -0.7823 C   0  0  0  0  0  0  0  0  0  0  0  0
   -5.3400    0.9519   -0.0279 C   0  0  0  0  0  0  0  0  0  0  0  0
    2.6026   -0.0353   -1.7726 H   0  0  0  0  0  0  0  0  0  0  0  0
    3.1177   -1.5116   -0.9879 H   0  0  0  0  0  0  0  0  0  0  0  0
    4.5396   -0.4360    0.5229 H   0  0  0  0  0  0  0  0  0  0  0  0
    2.5793   -1.2916    1.6802 H   0  0  0  0  0  0  0  0  0  0  0  0
    0.8644   -0.9749    1.9153 H   0  0  0  0  0  0  0  0  0  0  0  0
    0.9046   -2.4798   -0.1000 H   0  0  0  0  0  0  0  0  0  0  0  0
    0.7596   -1.5941   -1.6039 H   0  0  0  0  0  0  0  0  0  0  0  0
    4.6229    2.1576    0.5921 H   0  0  0  0  0  0  0  0  0  0  0  0
    2.9606    2.1302    0.0331 H   0  0  0  0  0  0  0  0  0  0  0  0
    1.3108    1.5395    1.6687 H   0  0  0  0  0  0  0  0  0  0  0  0
    1.8453    0.7237    3.1287 H   0  0  0  0  0  0  0  0  0  0  0  0
   -0.6993    0.7160   -1.3696 H   0  0  0  0  0  0  0  0  0  0  0  0
   -1.2494   -2.8755    0.8998 H   0  0  0  0  0  0  0  0  0  0  0  0
    6.4187   -0.2712   -2.4045 H   0  0  0  0  0  0  0  0  0  0  0  0
    5.0813   -1.3722   -2.0565 H   0  0  0  0  0  0  0  0  0  0  0  0
    6.2830   -0.9694   -0.7834 H   0  0  0  0  0  0  0  0  0  0  0  0
   -2.6519    2.2401   -1.6290 H   0  0  0  0  0  0  0  0  0  0  0  0
   -5.3839   -0.8944    1.0588 H   0  0  0  0  0  0  0  0  0  0  0  0
   -5.0206    2.7459   -1.1712 H   0  0  0  0  0  0  0  0  0  0  0  0
   -6.3841    1.1716    0.1756 H   0  0  0  0  0  0  0  0  0  0  0  0
  1  9  1  0  0  0  0
  1 10  1  0  0  0  0
  2  6  1  0  0  0  0
  2 16  1  0  0  0  0
  3  5  1  0  0  0  0
  3  7  1  0  0  0  0
  3  8  1  0  0  0  0
  4 13  2  0  0  0  0
  4 15  1  0  0  0  0
  5  6  1  0  0  0  0
  5 21  1  0  0  0  0
  5 22  1  0  0  0  0
  6  9  1  0  0  0  0
  6 23  1  0  0  0  0
  7 10  1  0  0  0  0
  7 24  1  0  0  0  0
  7 25  1  0  0  0  0
  8 11  1  0  0  0  0
  8 26  1  0  0  0  0
  8 27  1  0  0  0  0
  9 28  1  0  0  0  0
  9 29  1  0  0  0  0
 10 30  1  0  0  0  0
 10 31  1  0  0  0  0
 11 12  2  0  0  0  0
 11 13  1  0  0  0  0
 12 14  1  0  0  0  0
 12 32  1  0  0  0  0
 13 33  1  0  0  0  0
 14 15  1  0  0  0  0
 14 17  2  0  0  0  0
 15 18  2  0  0  0  0
 16 34  1  0  0  0  0
 16 35  1  0  0  0  0
 16 36  1  0  0  0  0
 17 19  1  0  0  0  0
 17 37  1  0  0  0  0
 18 20  1  0  0  0  0
 18 38  1  0  0  0  0
 19 20  2  0  0  0  0
 19 39  1  0  0  0  0
 20 40  1  0  0  0  0
M  END
> <PUBCHEM_COMPOUND_CID>
75536936

> <PUBCHEM_CONFORMER_RMSD>
0.6

> <PUBCHEM_CONFORMER_DIVERSEORDER>
2
120
45
3
77
115
124
34
76
90
109
92
53
99
97
123
46
85
94
40
24
79
117
65
122
103
8
119
72
56
125
54
78
96
106
43
67
22
50
62
59
57
110
121
33
71
81
13
28
100
61
114
112
21
105
95
113
64
88
84
38
55
25
52
41
82
83
7
19
98
6
23
37
9
11
80
70
75
14
89
60
118
29
44
107
1
47
35
58
5
102
12
10
101
4
86
48
69
32
93
49
66
36
111
108
91
31
30
20
74
26
73
42
51
27
15
18
116
63
17
16
68
104
87
39

> <PUBCHEM_MMFF94_PARTIAL_CHARGES>
25
1 -0.56
10 0.28
11 -0.14
12 -0.15
13 0.16
15 0.31
16 0.28
17 -0.15
18 -0.15
19 -0.15
2 -0.56
20 -0.15
3 -0.81
32 0.15
33 0.15
37 0.15
38 0.15
39 0.15
4 -0.62
40 0.15
5 0.27
6 0.28
7 0.27
8 0.41
9 0.28

> <PUBCHEM_EFFECTIVE_ROTOR_COUNT>
4.4

> <PUBCHEM_PHARMACOPHORE_FEATURES>
7
1 1 acceptor
1 2 acceptor
1 3 cation
1 4 acceptor
6 14 15 17 18 19 20 rings
6 4 11 12 13 14 15 rings
7 1 3 5 6 7 9 10 rings

> <PUBCHEM_HEAVY_ATOM_COUNT>
20

> <PUBCHEM_ATOM_DEF_STEREO_COUNT>
1

> <PUBCHEM_ATOM_UDEF_STEREO_COUNT>
0

> <PUBCHEM_BOND_DEF_STEREO_COUNT>
0

> <PUBCHEM_BOND_UDEF_STEREO_COUNT>
0

> <PUBCHEM_ISOTOPIC_ATOM_COUNT>
0

> <PUBCHEM_COMPONENT_COUNT>
1

> <PUBCHEM_CACTVS_TAUTO_COUNT>
1

> <PUBCHEM_CONFORMER_ID>
04809A2800000002

> <PUBCHEM_MMFF94_ENERGY>
66.1155

> <PUBCHEM_FEATURE_SELFOVERLAP>
35.554

> <PUBCHEM_SHAPE_FINGERPRINT>
10366900 7 18342451530908862665
10498660 4 18410287004211770633
10670039 82 18261111816565002668
11595378 159 16805598131972109245
12236239 1 16660647362066315751
12390115 104 18337963264563145925
12403259 415 18272090530124820667
12596602 18 16153713119855403321
12730499 353 18131355210960482039
12892183 10 14996563924478250645
12969540 114 18130494280692071277
13134695 92 16630528462233725624
13631057 29 15576141963865822115
13897977 58 17821733840485069175
14251751 18 11167932559148569261
14252887 29 12540691501208094728
14341114 328 16587742040268470160
15183329 4 18339935805676799806
15238133 3 18187352204428774456
18186145 218 17560792243175372339
192875 21 14836404744007224890
19784866 170 18113341890556083727
19784866 240 14405188348219941692
19862831 5 15051728711771197259
200 152 15051735287144691811
20374829 77 10807929362955436781
20432913 95 12973604426283638369
20612939 158 16917069984114018384
20626108 58 12823290200361576884
20645477 56 18408890624776674687
20645477 70 17060345153959446078
21033648 29 18343577468943137360
21065198 48 16805317773781587393
21365058 27 15213316209655487218
21503847 285 18040437732842166092
221357 26 17561363941908889873
22224240 67 13695879168220908564
23253445 4 13045946802095950022
23557571 272 18338247054173775415
23559900 14 18336267842722385414
2637199 183 17748831830296789290
3009799 131 17775567521105372086
341906 21 18113889443041192821
3545911 37 18335990800199137127
38570 142 16154578466029910982
5104073 3 18042126454132616161
5161694 15 17989205975502382852
5281201 14 18059858432303200116
542803 24 17095526196942123892
57724786 102 17703235121178568792
59682541 52 16916778523180381733
633830 44 17704061898356618937
7399639 24 16407292636255528594
7471813 234 14908184149029751562
7808743 9 18187648054365346044
90316 7 16660916674360295989
9971528 1 15841547462499448842

> <PUBCHEM_SHAPE_MULTIPOLES>
389.89
12.13
1.76
1.52
2.44
0.06
-0.5
-4.31
3.01
-1.11
-0.09
2
-0.32
1.52

> <PUBCHEM_SHAPE_SELFOVERLAP>
828.649

> <PUBCHEM_SHAPE_VOLUME>
215.6

> <PUBCHEM_COORDINATE_TYPE>
2
5
10

$$$$
