11867158
  -OEChem-12032416113D

 51 54  0     1  0  0  0  0  0999 V2000
    2.5853   -0.6145   -1.3927 S   0  0  0  0  0  0  0  0  0  0  0  0
   -0.1950   -1.9255   -1.9483 O   0  0  0  0  0  0  0  0  0  0  0  0
   -2.1830    2.5573    0.7475 O   0  0  0  0  0  0  0  0  0  0  0  0
   -3.0000    4.1049   -0.8339 O   0  0  0  0  0  0  0  0  0  0  0  0
   -4.7032    2.6986   -1.4731 O   0  0  0  0  0  0  0  0  0  0  0  0
    3.1260   -1.2613   -2.5734 O   0  0  0  0  0  0  0  0  0  0  0  0
    1.5719    0.4154   -1.5231 O   0  0  0  0  0  0  0  0  0  0  0  0
   -1.6689   -1.6167   -0.1533 N   0  0  0  0  0  0  0  0  0  0  0  0
   -3.6996    0.8002    0.4758 N   0  0  0  0  0  0  0  0  0  0  0  0
    2.0673   -1.7866   -0.2871 N   0  0  0  0  0  0  0  0  0  0  0  0
   -4.2067   -1.4747   -0.4385 C   0  0  2  0  0  0  0  0  0  0  0  0
   -3.2186   -1.2530    1.8009 C   0  0  2  0  0  0  0  0  0  0  0  0
   -4.2610   -2.0137    0.9851 C   0  0  0  0  0  0  0  0  0  0  0  0
   -2.8295   -1.7890   -1.0349 C   0  0  0  0  0  0  0  0  0  0  0  0
   -4.5163    0.0335   -0.4673 C   0  0  0  0  0  0  0  0  0  0  0  0
   -3.5822    0.2417    1.8252 C   0  0  0  0  0  0  0  0  0  0  0  0
   -1.8260   -1.4371    1.2274 C   0  0  0  0  0  0  0  0  0  0  0  0
   -0.7511   -1.4005    2.0363 C   0  0  0  0  0  0  0  0  0  0  0  0
   -0.3962   -1.7489   -0.7475 C   0  0  0  0  0  0  0  0  0  0  0  0
   -3.1590    2.0525    0.2053 C   0  0  0  0  0  0  0  0  0  0  0  0
    0.7505   -1.6763    0.1924 C   0  0  0  0  0  0  0  0  0  0  0  0
    0.5800   -1.5226    1.5060 C   0  0  0  0  0  0  0  0  0  0  0  0
   -3.7261    2.9797   -0.8083 C   0  0  0  0  0  0  0  0  0  0  0  0
    3.9452    0.0920   -0.5096 C   0  0  0  0  0  0  0  0  0  0  0  0
    5.2096   -0.4444   -0.6775 C   0  0  0  0  0  0  0  0  0  0  0  0
    3.7186    1.1668    0.3317 C   0  0  0  0  0  0  0  0  0  0  0  0
    6.2824    0.1121    0.0190 C   0  0  0  0  0  0  0  0  0  0  0  0
    4.7917    1.7232    1.0281 C   0  0  0  0  0  0  0  0  0  0  0  0
    6.0735    1.1959    0.8717 C   0  0  0  0  0  0  0  0  0  0  0  0
    7.2205    1.7913    1.6160 C   0  0  0  0  0  0  0  0  0  0  0  0
   -4.9651   -1.9779   -1.0513 H   0  0  0  0  0  0  0  0  0  0  0  0
   -3.2463   -1.6327    2.8306 H   0  0  0  0  0  0  0  0  0  0  0  0
   -4.0558   -3.0914    0.9989 H   0  0  0  0  0  0  0  0  0  0  0  0
   -5.2617   -1.8712    1.4108 H   0  0  0  0  0  0  0  0  0  0  0  0
   -2.8125   -2.8439   -1.3416 H   0  0  0  0  0  0  0  0  0  0  0  0
   -2.6630   -1.2079   -1.9506 H   0  0  0  0  0  0  0  0  0  0  0  0
   -4.3670    0.4033   -1.4851 H   0  0  0  0  0  0  0  0  0  0  0  0
   -5.5641    0.2072   -0.1950 H   0  0  0  0  0  0  0  0  0  0  0  0
   -4.5561    0.3829    2.3106 H   0  0  0  0  0  0  0  0  0  0  0  0
   -2.8528    0.8160    2.4082 H   0  0  0  0  0  0  0  0  0  0  0  0
   -0.8502   -1.2528    3.1066 H   0  0  0  0  0  0  0  0  0  0  0  0
    1.4077   -1.4711    2.2053 H   0  0  0  0  0  0  0  0  0  0  0  0
    2.7461   -2.0043    0.4562 H   0  0  0  0  0  0  0  0  0  0  0  0
   -3.3390    4.7513   -1.4892 H   0  0  0  0  0  0  0  0  0  0  0  0
    5.3910   -1.2926   -1.3302 H   0  0  0  0  0  0  0  0  0  0  0  0
    2.7270    1.5855    0.4731 H   0  0  0  0  0  0  0  0  0  0  0  0
    7.2759   -0.3097   -0.1085 H   0  0  0  0  0  0  0  0  0  0  0  0
    4.6157    2.5651    1.6925 H   0  0  0  0  0  0  0  0  0  0  0  0
    7.3362    1.2969    2.5856 H   0  0  0  0  0  0  0  0  0  0  0  0
    8.1546    1.6847    1.0539 H   0  0  0  0  0  0  0  0  0  0  0  0
    7.0688    2.8630    1.7842 H   0  0  0  0  0  0  0  0  0  0  0  0
  1  6  2  0  0  0  0
  1  7  2  0  0  0  0
  1 10  1  0  0  0  0
  1 24  1  0  0  0  0
  2 19  2  0  0  0  0
  3 20  2  0  0  0  0
  4 23  1  0  0  0  0
  4 44  1  0  0  0  0
  5 23  2  0  0  0  0
  8 14  1  0  0  0  0
  8 17  1  0  0  0  0
  8 19  1  0  0  0  0
  9 15  1  0  0  0  0
  9 16  1  0  0  0  0
  9 20  1  0  0  0  0
 10 21  1  0  0  0  0
 10 43  1  0  0  0  0
 11 13  1  0  0  0  0
 11 14  1  0  0  0  0
 11 15  1  0  0  0  0
 11 31  1  0  0  0  0
 12 13  1  0  0  0  0
 12 16  1  0  0  0  0
 12 17  1  0  0  0  0
 12 32  1  0  0  0  0
 13 33  1  0  0  0  0
 13 34  1  0  0  0  0
 14 35  1  0  0  0  0
 14 36  1  0  0  0  0
 15 37  1  0  0  0  0
 15 38  1  0  0  0  0
 16 39  1  0  0  0  0
 16 40  1  0  0  0  0
 17 18  2  0  0  0  0
 18 22  1  0  0  0  0
 18 41  1  0  0  0  0
 19 21  1  0  0  0  0
 20 23  1  0  0  0  0
 21 22  2  0  0  0  0
 22 42  1  0  0  0  0
 24 25  2  0  0  0  0
 24 26  1  0  0  0  0
 25 27  1  0  0  0  0
 25 45  1  0  0  0  0
 26 28  2  0  0  0  0
 26 46  1  0  0  0  0
 27 29  2  0  0  0  0
 27 47  1  0  0  0  0
 28 29  1  0  0  0  0
 28 48  1  0  0  0  0
 29 30  1  0  0  0  0
 30 49  1  0  0  0  0
 30 50  1  0  0  0  0
 30 51  1  0  0  0  0
M  END
> <PUBCHEM_COMPOUND_CID>
11867158

> <PUBCHEM_CONFORMER_RMSD>
0.8

> <PUBCHEM_CONFORMER_DIVERSEORDER>
1
12
11
10
14
2
13
15
23
17
6
19
3
20
5
8
7
4
24
22
9
21
16
18

> <PUBCHEM_MMFF94_PARTIAL_CHARGES>
36
1 1.45
10 -0.75
12 0.14
14 0.3
15 0.3
16 0.3
17 -0.03
18 -0.15
19 0.62
2 -0.57
20 0.63
21 0.21
22 -0.15
23 0.72
24 -0.01
25 -0.15
26 -0.15
27 -0.15
28 -0.15
29 -0.14
3 -0.57
30 0.14
4 -0.65
41 0.15
42 0.15
43 0.42
44 0.5
45 0.15
46 0.15
47 0.15
48 0.15
5 -0.57
6 -0.65
7 -0.65
8 -0.47
9 -0.66

> <PUBCHEM_EFFECTIVE_ROTOR_COUNT>
6

> <PUBCHEM_PHARMACOPHORE_FEATURES>
12
1 10 donor
1 2 acceptor
1 3 acceptor
1 4 acceptor
1 5 acceptor
1 6 acceptor
1 7 acceptor
3 4 5 23 anion
6 24 25 26 27 28 29 rings
6 8 11 12 13 14 17 rings
6 8 17 18 19 21 22 rings
6 9 11 12 13 15 16 rings

> <PUBCHEM_HEAVY_ATOM_COUNT>
30

> <PUBCHEM_ATOM_DEF_STEREO_COUNT>
2

> <PUBCHEM_ATOM_UDEF_STEREO_COUNT>
0

> <PUBCHEM_BOND_DEF_STEREO_COUNT>
0

> <PUBCHEM_BOND_UDEF_STEREO_COUNT>
0

> <PUBCHEM_ISOTOPIC_ATOM_COUNT>
0

> <PUBCHEM_COMPONENT_COUNT>
1

> <PUBCHEM_CACTVS_TAUTO_COUNT>
1

> <PUBCHEM_CONFORMER_ID>
00B5141600000001

> <PUBCHEM_MMFF94_ENERGY>
76.0133

> <PUBCHEM_FEATURE_SELFOVERLAP>
62.558

> <PUBCHEM_SHAPE_FINGERPRINT>
10042902 136 10807635814330051161
12128747 34 18190746336989699078
12166972 35 17096370725083560695
12596602 18 17096367409622080928
12633257 1 16660651760276428966
12655364 131 16299207060772756578
13103583 49 15140971651044779392
13402501 40 18343865536906014344
13911987 19 16702304572045735334
14251757 17 18201726102463285192
14251764 38 18410017649796514004
14466204 15 18335136501608813368
14739800 52 18261380105764702650
14950920 106 14563114510374090005
15119646 57 17202494312108186489
15463212 79 18342735255911470735
15484559 13 14894450969246153808
15799311 1 14418136206213346802
16067690 210 17967807288756592680
17349148 13 17677059043703308998
19438510 23 18263362482776262361
21033648 144 18059859514825227086
21033648 29 18410858767864896534
21315764 268 18272088335739475776
21859007 373 18339921516373197604
22907989 373 17346313735961309307
22956985 138 16962962749186428379
23559900 14 16271386114631149838
25019877 29 16915958438104424711
2838139 119 18267859497664561668
328310 1195 17988923358328408024
392239 28 17460344194383893099
469060 322 18042713704837113497
497634 4 17203336636788422547
508706 21 18334019392851257112
5951187 136 17192066358946707461
9981440 41 18113904827761942331

> <PUBCHEM_SHAPE_MULTIPOLES>
571.08
14.37
3.34
1.94
21.47
3.41
-0.07
7.47
2.76
-4.44
-0.67
0.15
-0.51
2.76

> <PUBCHEM_SHAPE_SELFOVERLAP>
1232.047

> <PUBCHEM_SHAPE_VOLUME>
312.7

> <PUBCHEM_COORDINATE_TYPE>
2
5
10

$$$$
