25317500
  -OEChem-12032416383D

 56 59  0     1  0  0  0  0  0999 V2000
    1.5110   -2.1271   -1.5836 O   0  0  0  0  0  0  0  0  0  0  0  0
    1.9835   -3.9390   -0.2144 O   0  0  0  0  0  0  0  0  0  0  0  0
    2.5765   -2.2995    2.0794 O   0  0  0  0  0  0  0  0  0  0  0  0
    3.9324    1.4576    1.1248 O   0  0  0  0  0  0  0  0  0  0  0  0
   -0.3996   -1.1543    0.3268 N   0  0  0  0  0  0  0  0  0  0  0  0
    2.5903    0.3356   -0.4013 N   0  0  0  0  0  0  0  0  0  0  0  0
   -3.0564   -0.1151    0.1837 N   0  0  0  0  0  0  0  0  0  0  0  0
    2.6977    2.6283   -0.4528 N   0  0  0  0  0  0  0  0  0  0  0  0
    0.6366   -2.1324    0.6639 C   0  0  2  0  0  0  0  0  0  0  0  0
    1.9023   -1.4104    1.1791 C   0  0  2  0  0  0  0  0  0  0  0  0
    2.8808   -1.0069    0.0543 C   0  0  1  0  0  0  0  0  0  0  0  0
    0.9679   -2.9875   -0.5729 C   0  0  1  0  0  0  0  0  0  0  0  0
    2.8644   -1.9797   -1.1428 C   0  0  1  0  0  0  0  0  0  0  0  0
    3.1947   -3.4154   -0.7804 C   0  0  0  0  0  0  0  0  0  0  0  0
   -1.0814   -0.6874    1.5399 C   0  0  0  0  0  0  0  0  0  0  0  0
   -1.3759   -1.7379   -0.6015 C   0  0  0  0  0  0  0  0  0  0  0  0
   -2.1293    0.3775    1.2071 C   0  0  0  0  0  0  0  0  0  0  0  0
   -2.4327   -0.7075   -1.0062 C   0  0  0  0  0  0  0  0  0  0  0  0
    3.1463    1.4709    0.1784 C   0  0  0  0  0  0  0  0  0  0  0  0
   -4.3119    0.4852    0.0378 C   0  0  0  0  0  0  0  0  0  0  0  0
   -4.4797    1.8354    0.3454 C   0  0  0  0  0  0  0  0  0  0  0  0
   -5.3952   -0.2658   -0.4185 C   0  0  0  0  0  0  0  0  0  0  0  0
    3.1170    3.9507   -0.0523 C   0  0  0  0  0  0  0  0  0  0  0  0
   -5.7306    2.4346    0.1969 C   0  0  0  0  0  0  0  0  0  0  0  0
   -6.6460    0.3333   -0.5673 C   0  0  0  0  0  0  0  0  0  0  0  0
   -6.8137    1.6834   -0.2595 C   0  0  0  0  0  0  0  0  0  0  0  0
    4.3422    4.3263   -0.8175 C   0  0  0  0  0  0  0  0  0  0  0  0
    5.5086    4.6473   -0.2463 C   0  0  0  0  0  0  0  0  0  0  0  0
    0.2788   -2.8244    1.4402 H   0  0  0  0  0  0  0  0  0  0  0  0
    1.6525   -0.5382    1.7913 H   0  0  0  0  0  0  0  0  0  0  0  0
    3.9027   -0.9953    0.4551 H   0  0  0  0  0  0  0  0  0  0  0  0
    0.1407   -3.5851   -0.9640 H   0  0  0  0  0  0  0  0  0  0  0  0
    3.4893   -1.6082   -1.9615 H   0  0  0  0  0  0  0  0  0  0  0  0
    3.4105   -4.0058   -1.6774 H   0  0  0  0  0  0  0  0  0  0  0  0
    4.0258   -3.5195   -0.0778 H   0  0  0  0  0  0  0  0  0  0  0  0
   -0.3798   -0.2438    2.2536 H   0  0  0  0  0  0  0  0  0  0  0  0
   -1.5725   -1.5260    2.0528 H   0  0  0  0  0  0  0  0  0  0  0  0
   -1.8691   -2.6154   -0.1620 H   0  0  0  0  0  0  0  0  0  0  0  0
   -0.9426   -2.0211   -1.5645 H   0  0  0  0  0  0  0  0  0  0  0  0
    1.8905    0.4573   -1.1270 H   0  0  0  0  0  0  0  0  0  0  0  0
   -2.6674    0.6246    2.1309 H   0  0  0  0  0  0  0  0  0  0  0  0
   -1.6278    1.2868    0.8514 H   0  0  0  0  0  0  0  0  0  0  0  0
   -1.9743    0.0903   -1.6054 H   0  0  0  0  0  0  0  0  0  0  0  0
   -3.1702   -1.2070   -1.6453 H   0  0  0  0  0  0  0  0  0  0  0  0
    3.3381   -1.8212    2.4493 H   0  0  0  0  0  0  0  0  0  0  0  0
    2.0643    2.5399   -1.2415 H   0  0  0  0  0  0  0  0  0  0  0  0
   -3.6558    2.4543    0.6890 H   0  0  0  0  0  0  0  0  0  0  0  0
   -5.2886   -1.3223   -0.6502 H   0  0  0  0  0  0  0  0  0  0  0  0
    2.3025    4.6421   -0.2893 H   0  0  0  0  0  0  0  0  0  0  0  0
    3.2832    3.9686    1.0300 H   0  0  0  0  0  0  0  0  0  0  0  0
   -5.8610    3.4866    0.4333 H   0  0  0  0  0  0  0  0  0  0  0  0
   -7.4902   -0.2521   -0.9198 H   0  0  0  0  0  0  0  0  0  0  0  0
   -7.7877    2.1498   -0.3753 H   0  0  0  0  0  0  0  0  0  0  0  0
    4.2711    4.3535   -1.9020 H   0  0  0  0  0  0  0  0  0  0  0  0
    6.3627    4.9194   -0.8569 H   0  0  0  0  0  0  0  0  0  0  0  0
    5.6329    4.6435    0.8309 H   0  0  0  0  0  0  0  0  0  0  0  0
  1 12  1  0  0  0  0
  1 13  1  0  0  0  0
  2 12  1  0  0  0  0
  2 14  1  0  0  0  0
  3 10  1  0  0  0  0
  3 45  1  0  0  0  0
  4 19  2  0  0  0  0
  5  9  1  0  0  0  0
  5 15  1  0  0  0  0
  5 16  1  0  0  0  0
  6 11  1  0  0  0  0
  6 19  1  0  0  0  0
  6 40  1  0  0  0  0
  7 17  1  0  0  0  0
  7 18  1  0  0  0  0
  7 20  1  0  0  0  0
  8 19  1  0  0  0  0
  8 23  1  0  0  0  0
  8 46  1  0  0  0  0
  9 10  1  0  0  0  0
  9 12  1  0  0  0  0
  9 29  1  0  0  0  0
 10 11  1  0  0  0  0
 10 30  1  0  0  0  0
 11 13  1  0  0  0  0
 11 31  1  0  0  0  0
 12 32  1  0  0  0  0
 13 14  1  0  0  0  0
 13 33  1  0  0  0  0
 14 34  1  0  0  0  0
 14 35  1  0  0  0  0
 15 17  1  0  0  0  0
 15 36  1  0  0  0  0
 15 37  1  0  0  0  0
 16 18  1  0  0  0  0
 16 38  1  0  0  0  0
 16 39  1  0  0  0  0
 17 41  1  0  0  0  0
 17 42  1  0  0  0  0
 18 43  1  0  0  0  0
 18 44  1  0  0  0  0
 20 21  2  0  0  0  0
 20 22  1  0  0  0  0
 21 24  1  0  0  0  0
 21 47  1  0  0  0  0
 22 25  2  0  0  0  0
 22 48  1  0  0  0  0
 23 27  1  0  0  0  0
 23 49  1  0  0  0  0
 23 50  1  0  0  0  0
 24 26  2  0  0  0  0
 24 51  1  0  0  0  0
 25 26  1  0  0  0  0
 25 52  1  0  0  0  0
 26 53  1  0  0  0  0
 27 28  2  0  0  0  0
 27 54  1  0  0  0  0
 28 55  1  0  0  0  0
 28 56  1  0  0  0  0
M  END
> <PUBCHEM_COMPOUND_CID>
25317500

> <PUBCHEM_CONFORMER_RMSD>
1

> <PUBCHEM_CONFORMER_DIVERSEORDER>
1
4
17
26
27
10
18
28
12
35
14
8
32
33
34
36
16
29
5
7
25
31
2
9
21
20
23
22
30
15
3
24
6
19
13
11

> <PUBCHEM_MMFF94_PARTIAL_CHARGES>
39
1 -0.56
10 0.28
11 0.3
12 0.56
13 0.28
14 0.28
15 0.27
16 0.27
17 0.37
18 0.37
19 0.69
2 -0.56
20 0.1
21 -0.15
22 -0.15
23 0.44
24 -0.15
25 -0.15
26 -0.15
27 -0.29
28 -0.3
3 -0.68
4 -0.57
40 0.37
45 0.4
46 0.37
47 0.15
48 0.15
5 -0.81
51 0.15
52 0.15
53 0.15
54 0.15
55 0.15
56 0.15
6 -0.73
7 -0.84
8 -0.73
9 0.27

> <PUBCHEM_EFFECTIVE_ROTOR_COUNT>
9.4

> <PUBCHEM_PHARMACOPHORE_FEATURES>
13
1 1 acceptor
1 2 acceptor
1 28 hydrophobe
1 3 acceptor
1 3 donor
1 4 acceptor
1 5 cation
1 6 donor
1 7 cation
1 8 donor
6 20 21 22 24 25 26 rings
6 5 7 15 16 17 18 rings
8 1 2 9 10 11 12 13 14 rings

> <PUBCHEM_HEAVY_ATOM_COUNT>
28

> <PUBCHEM_ATOM_DEF_STEREO_COUNT>
5

> <PUBCHEM_ATOM_UDEF_STEREO_COUNT>
0

> <PUBCHEM_BOND_DEF_STEREO_COUNT>
0

> <PUBCHEM_BOND_UDEF_STEREO_COUNT>
0

> <PUBCHEM_ISOTOPIC_ATOM_COUNT>
0

> <PUBCHEM_COMPONENT_COUNT>
1

> <PUBCHEM_CACTVS_TAUTO_COUNT>
3

> <PUBCHEM_CONFORMER_ID>
0182507C00000001

> <PUBCHEM_MMFF94_ENERGY>
86.0466

> <PUBCHEM_FEATURE_SELFOVERLAP>
66.074

> <PUBCHEM_SHAPE_FINGERPRINT>
10483366 6 18339096912928354516
10673678 19 18411701032178916209
10937287 8 18267585904158619412
12107183 9 18263629832117291640
12166972 35 18057603162098054179
12633257 1 15430595198433597596
13590594 115 17906746808039334560
13944108 23 18336270024777392068
14251764 75 18340215205583627745
14849402 71 18335981982979444386
15142526 21 18187362177205400027
15163728 17 18267590289399187668
15439362 3 18340208591976933404
15513586 35 15944290514529500092
15803439 3 16915675880732561180
16988056 13 18337678490787834420
17844677 252 18269841905104162035
17899979 129 18339936964653857388
17980427 23 18055599959444976746
18681886 176 18199181785249336667
20554085 129 17987225806822666312
21033648 144 18041548265150139605
21133410 127 18186237342129960901
21365058 113 17983311330119996446
21388113 180 18336270144962317597
21860390 5 18339645542495271116
22149856 69 17775569716045255003
23466295 7 8971598163872414688
23559900 14 18198341754534816183
23576562 1 18342464728980133918
245318 6 17897174721822755317
2838139 119 18266459987335716692
3004659 81 17773590508535468659
3411729 13 18335699463893345929
34797466 226 18342460310286258967
397830 11 18261125076004147689
474 4 18411136960901154026
484985 159 10012266665161045176
513532 50 18131356276233223564
5219985 13 18193839473304072236
53794403 172 18411141333373150789
6327066 14 18193275423839088172
7288768 16 17897160440829005680
9849439 229 18197487635552111744
9981440 41 18193561296566280960

> <PUBCHEM_SHAPE_MULTIPOLES>
532.83
13.83
5.72
1.25
21.2
4.07
-0.32
15.64
2.04
-12.12
1.21
-0.57
-0.67
-0.56

> <PUBCHEM_SHAPE_SELFOVERLAP>
1128.235

> <PUBCHEM_SHAPE_VOLUME>
293.8

> <PUBCHEM_COORDINATE_TYPE>
2
5
10

$$$$
