45783375
  -OEChem-12032416263D

 59 62  0     1  0  0  0  0  0999 V2000
    0.7033   -2.7220    1.7266 O   0  0  0  0  0  0  0  0  0  0  0  0
    0.0419    0.8653   -2.9938 O   0  0  0  0  0  0  0  0  0  0  0  0
   -2.2604   -1.3691    0.0265 N   0  0  1  0  0  0  0  0  0  0  0  0
    0.6677   -0.9206    0.3959 N   0  0  0  0  0  0  0  0  0  0  0  0
    1.9352   -2.0803    1.9068 N   0  0  0  0  0  0  0  0  0  0  0  0
    2.2559    0.3821   -1.3409 N   0  0  0  0  0  0  0  0  0  0  0  0
    4.0942    1.5422   -0.4057 N   0  0  0  0  0  0  0  0  0  0  0  0
   -3.4008    0.6881    0.7416 C   0  0  0  0  0  0  0  0  0  0  0  0
   -2.9303   -0.7095    1.1399 C   0  0  0  0  0  0  0  0  0  0  0  0
   -1.3658   -2.4641    0.4517 C   0  0  1  0  0  0  0  0  0  0  0  0
   -4.0829    1.3880    1.9249 C   0  0  0  0  0  0  0  0  0  0  0  0
   -2.2275    1.5250    0.2143 C   0  0  0  0  0  0  0  0  0  0  0  0
   -3.2111   -1.9552   -0.9186 C   0  0  0  0  0  0  0  0  0  0  0  0
   -1.3522   -3.4422   -0.7377 C   0  0  0  0  0  0  0  0  0  0  0  0
   -2.3135   -2.8444   -1.7553 C   0  0  0  0  0  0  0  0  0  0  0  0
   -4.5150    2.8082    1.5667 C   0  0  0  0  0  0  0  0  0  0  0  0
   -2.6626    2.9451   -0.1408 C   0  0  0  0  0  0  0  0  0  0  0  0
   -3.3480    3.6343    1.0348 C   0  0  0  0  0  0  0  0  0  0  0  0
    0.0185   -1.9745    0.8217 C   0  0  0  0  0  0  0  0  0  0  0  0
    1.8381   -1.0276    1.0893 C   0  0  0  0  0  0  0  0  0  0  0  0
    2.8919   -0.0658    0.9412 C   0  0  0  0  0  0  0  0  0  0  0  0
    3.1101    0.6307   -0.2366 C   0  0  0  0  0  0  0  0  0  0  0  0
    3.7382    0.1896    2.0146 C   0  0  0  0  0  0  0  0  0  0  0  0
    4.7622    1.1205    1.8792 C   0  0  0  0  0  0  0  0  0  0  0  0
    2.4028    1.0498   -2.5923 C   0  0  0  0  0  0  0  0  0  0  0  0
    4.8966    1.7639    0.6594 C   0  0  0  0  0  0  0  0  0  0  0  0
    1.3199    0.5936   -3.5552 C   0  0  0  0  0  0  0  0  0  0  0  0
   -1.0061    0.4488   -3.8582 C   0  0  0  0  0  0  0  0  0  0  0  0
   -4.1458    0.5996   -0.0609 H   0  0  0  0  0  0  0  0  0  0  0  0
   -3.7657   -1.3096    1.5235 H   0  0  0  0  0  0  0  0  0  0  0  0
   -2.2290   -0.5978    1.9782 H   0  0  0  0  0  0  0  0  0  0  0  0
   -1.7930   -2.9914    1.3165 H   0  0  0  0  0  0  0  0  0  0  0  0
   -4.9605    0.8133    2.2441 H   0  0  0  0  0  0  0  0  0  0  0  0
   -3.3988    1.4262    2.7823 H   0  0  0  0  0  0  0  0  0  0  0  0
   -1.7910    1.0705   -0.6818 H   0  0  0  0  0  0  0  0  0  0  0  0
   -1.4309    1.5713    0.9682 H   0  0  0  0  0  0  0  0  0  0  0  0
   -3.7054   -1.2013   -1.5386 H   0  0  0  0  0  0  0  0  0  0  0  0
   -3.9753   -2.5605   -0.4150 H   0  0  0  0  0  0  0  0  0  0  0  0
   -0.3603   -3.5881   -1.1791 H   0  0  0  0  0  0  0  0  0  0  0  0
   -1.7236   -4.4219   -0.4133 H   0  0  0  0  0  0  0  0  0  0  0  0
   -2.8718   -3.6129   -2.2979 H   0  0  0  0  0  0  0  0  0  0  0  0
   -1.7558   -2.2485   -2.4864 H   0  0  0  0  0  0  0  0  0  0  0  0
   -5.3087    2.7682    0.8106 H   0  0  0  0  0  0  0  0  0  0  0  0
   -4.9403    3.2975    2.4502 H   0  0  0  0  0  0  0  0  0  0  0  0
   -3.3484    2.9130   -0.9964 H   0  0  0  0  0  0  0  0  0  0  0  0
   -1.7901    3.5301   -0.4530 H   0  0  0  0  0  0  0  0  0  0  0  0
   -3.7062    4.6226    0.7253 H   0  0  0  0  0  0  0  0  0  0  0  0
   -2.6190    3.7955    1.8385 H   0  0  0  0  0  0  0  0  0  0  0  0
    3.6206   -0.3141    2.9709 H   0  0  0  0  0  0  0  0  0  0  0  0
    1.7926   -0.5207   -1.3511 H   0  0  0  0  0  0  0  0  0  0  0  0
    5.4328    1.3373    2.7028 H   0  0  0  0  0  0  0  0  0  0  0  0
    2.3093    2.1322   -2.4426 H   0  0  0  0  0  0  0  0  0  0  0  0
    3.3868    0.8463   -3.0294 H   0  0  0  0  0  0  0  0  0  0  0  0
    5.6791    2.4990    0.5026 H   0  0  0  0  0  0  0  0  0  0  0  0
    1.4249    1.1277   -4.5065 H   0  0  0  0  0  0  0  0  0  0  0  0
    1.4131   -0.4828   -3.7446 H   0  0  0  0  0  0  0  0  0  0  0  0
   -0.9826    1.0247   -4.7884 H   0  0  0  0  0  0  0  0  0  0  0  0
   -0.9259   -0.6198   -4.0776 H   0  0  0  0  0  0  0  0  0  0  0  0
   -1.9602    0.6332   -3.3573 H   0  0  0  0  0  0  0  0  0  0  0  0
  1  5  1  0  0  0  0
  1 19  1  0  0  0  0
  2 27  1  0  0  0  0
  2 28  1  0  0  0  0
  3  9  1  0  0  0  0
  3 10  1  0  0  0  0
  3 13  1  0  0  0  0
  4 19  2  0  0  0  0
  4 20  1  0  0  0  0
  5 20  2  0  0  0  0
  6 22  1  0  0  0  0
  6 25  1  0  0  0  0
  6 50  1  0  0  0  0
  7 22  1  0  0  0  0
  7 26  2  0  0  0  0
  8  9  1  0  0  0  0
  8 11  1  0  0  0  0
  8 12  1  0  0  0  0
  8 29  1  0  0  0  0
  9 30  1  0  0  0  0
  9 31  1  0  0  0  0
 10 14  1  0  0  0  0
 10 19  1  0  0  0  0
 10 32  1  0  0  0  0
 11 16  1  0  0  0  0
 11 33  1  0  0  0  0
 11 34  1  0  0  0  0
 12 17  1  0  0  0  0
 12 35  1  0  0  0  0
 12 36  1  0  0  0  0
 13 15  1  0  0  0  0
 13 37  1  0  0  0  0
 13 38  1  0  0  0  0
 14 15  1  0  0  0  0
 14 39  1  0  0  0  0
 14 40  1  0  0  0  0
 15 41  1  0  0  0  0
 15 42  1  0  0  0  0
 16 18  1  0  0  0  0
 16 43  1  0  0  0  0
 16 44  1  0  0  0  0
 17 18  1  0  0  0  0
 17 45  1  0  0  0  0
 17 46  1  0  0  0  0
 18 47  1  0  0  0  0
 18 48  1  0  0  0  0
 20 21  1  0  0  0  0
 21 22  2  0  0  0  0
 21 23  1  0  0  0  0
 23 24  2  0  0  0  0
 23 49  1  0  0  0  0
 24 26  1  0  0  0  0
 24 51  1  0  0  0  0
 25 27  1  0  0  0  0
 25 52  1  0  0  0  0
 25 53  1  0  0  0  0
 26 54  1  0  0  0  0
 27 55  1  0  0  0  0
 27 56  1  0  0  0  0
 28 57  1  0  0  0  0
 28 58  1  0  0  0  0
 28 59  1  0  0  0  0
M  END
> <PUBCHEM_COMPOUND_CID>
45783375

> <PUBCHEM_CONFORMER_RMSD>
1

> <PUBCHEM_CONFORMER_DIVERSEORDER>
1
55
35
49
67
63
114
78
47
27
94
125
77
53
91
52
40
123
99
121
43
48
92
116
15
12
120
65
58
59
74
10
118
122
68
2
18
81
26
56
79
76
20
46
8
62
3
41
37
33
14
90
16
50
100
85
95
109
45
112
117
104
44
32
54
31
13
22
75
119
80
93
39
110
29
70
23
84
28
11
30
89
103
38
98
96
19
73
6
101
72
21
82
97
66
42
17
124
69
115
106
86
36
61
9
83
113
87
108
105
64
4
102
34
51
57
71
111
60
25
7
88
107
5
24

> <PUBCHEM_MMFF94_PARTIAL_CHARGES>
24
1 -0.02
10 0.45
13 0.27
19 0.3
2 -0.56
20 0.46
21 0.05
22 0.41
23 -0.15
24 -0.15
25 0.37
26 0.16
27 0.28
28 0.28
3 -0.81
4 -0.57
49 0.15
5 -0.41
50 0.4
51 0.15
54 0.15
6 -0.87
7 -0.62
9 0.27

> <PUBCHEM_EFFECTIVE_ROTOR_COUNT>
10.2

> <PUBCHEM_PHARMACOPHORE_FEATURES>
10
1 2 acceptor
1 3 cation
1 6 cation
1 6 donor
1 7 acceptor
3 4 5 20 cation
5 1 4 5 19 20 rings
5 3 10 13 14 15 rings
6 7 21 22 23 24 26 rings
6 8 11 12 16 17 18 rings

> <PUBCHEM_HEAVY_ATOM_COUNT>
28

> <PUBCHEM_ATOM_DEF_STEREO_COUNT>
1

> <PUBCHEM_ATOM_UDEF_STEREO_COUNT>
0

> <PUBCHEM_BOND_DEF_STEREO_COUNT>
0

> <PUBCHEM_BOND_UDEF_STEREO_COUNT>
0

> <PUBCHEM_ISOTOPIC_ATOM_COUNT>
0

> <PUBCHEM_COMPONENT_COUNT>
1

> <PUBCHEM_CACTVS_TAUTO_COUNT>
8

> <PUBCHEM_CONFORMER_ID>
02BA994F00000001

> <PUBCHEM_MMFF94_ENERGY>
53.6923

> <PUBCHEM_FEATURE_SELFOVERLAP>
50.747

> <PUBCHEM_SHAPE_FINGERPRINT>
10871710 139 18340483465282870819
11578080 2 17201112337207007548
11640471 11 18408319973630419843
11720765 8 16267442007043673004
12166972 35 17389646798517999838
12422481 6 17677320598895962440
12539773 59 17973166424183233631
12788726 201 17831046841284639245
13009979 54 17897445231900504370
13583140 156 17417519324504815506
13615921 28 17763456614450981965
13947920 24 15119802861044388600
13965767 371 17970063348907965480
14468879 13 17131835360978966397
14840074 17 17023477438037364476
15961568 22 17407940542054134784
16988056 13 16830380866617544697
20600515 1 17556306395160071927
20739085 24 17313106333023793714
21033650 10 18197236912930903034
21133410 90 18049418617074904261
21796203 349 16660942027674219596
21860390 5 16903265306279057429
21987440 362 17762632685411319412
22149856 69 18049753749658812537
235170 7 16916512582915348018
469060 322 17385990802375752079
5252454 2 18271240534738398089
539174 4 16952553508895673551
550186 7 17917155021542267772
5895379 119 18266756834026844660
5951187 136 17413878626230072265
7064713 232 18261116235769819249
7808743 9 18342737437938785440

> <PUBCHEM_SHAPE_MULTIPOLES>
539.58
8.77
4.02
3.31
4.12
0.15
4.21
-8
-3.95
-5.43
-0.95
1.69
0.41
-1.27

> <PUBCHEM_SHAPE_SELFOVERLAP>
1132.281

> <PUBCHEM_SHAPE_VOLUME>
304.7

> <PUBCHEM_COORDINATE_TYPE>
2
5
10

$$$$
