26742249
  -OEChem-12032416333D

 65 68  0     1  0  0  0  0  0999 V2000
    4.3901    3.8436    0.3978 O   0  0  0  0  0  0  0  0  0  0  0  0
    2.1981    1.4390   -2.5765 O   0  0  0  0  0  0  0  0  0  0  0  0
   -3.7802    1.1688   -0.5185 O   0  0  0  0  0  0  0  0  0  0  0  0
   -1.7752   -3.3268    0.6789 O   0  0  0  0  0  0  0  0  0  0  0  0
   -1.5456   -3.5066   -1.5753 O   0  0  0  0  0  0  0  0  0  0  0  0
    4.6568   -0.5478    0.7650 N   0  0  2  0  0  0  0  0  0  0  0  0
    2.5613    1.5101   -0.2885 N   0  0  0  0  0  0  0  0  0  0  0  0
    4.0085    1.6104   -0.3559 C   0  0  1  0  0  0  0  0  0  0  0  0
    4.5153    2.4759    0.8076 C   0  0  1  0  0  0  0  0  0  0  0  0
    4.6188    0.2091   -0.4980 C   0  0  0  0  0  0  0  0  0  0  0  0
    5.9664    2.2241    1.2166 C   0  0  0  0  0  0  0  0  0  0  0  0
    6.1110    1.0085    2.1280 C   0  0  0  0  0  0  0  0  0  0  0  0
    5.9430   -0.3545    1.4565 C   0  0  0  0  0  0  0  0  0  0  0  0
    4.4730   -1.9782    0.4895 C   0  0  0  0  0  0  0  0  0  0  0  0
    3.0282   -2.3197    0.2389 C   0  0  0  0  0  0  0  0  0  0  0  0
    1.7770    1.4324   -1.4228 C   0  0  0  0  0  0  0  0  0  0  0  0
    2.5820   -2.5498   -1.0626 C   0  0  0  0  0  0  0  0  0  0  0  0
    2.1358   -2.4059    1.3076 C   0  0  0  0  0  0  0  0  0  0  0  0
    0.3122    1.3615   -1.1851 C   0  0  0  0  0  0  0  0  0  0  0  0
    1.2437   -2.8663   -1.2952 C   0  0  0  0  0  0  0  0  0  0  0  0
    0.7975   -2.7223    1.0748 C   0  0  0  0  0  0  0  0  0  0  0  0
    0.3513   -2.9527   -0.2266 C   0  0  0  0  0  0  0  0  0  0  0  0
   -0.5748    1.8348   -2.1520 C   0  0  0  0  0  0  0  0  0  0  0  0
   -0.1760    0.8234    0.0056 C   0  0  0  0  0  0  0  0  0  0  0  0
   -1.9500    1.7703   -1.9281 C   0  0  0  0  0  0  0  0  0  0  0  0
   -1.5512    0.7589    0.2295 C   0  0  0  0  0  0  0  0  0  0  0  0
   -2.4382    1.2324   -0.7372 C   0  0  0  0  0  0  0  0  0  0  0  0
   -1.0439   -3.2834   -0.4685 C   0  0  0  0  0  0  0  0  0  0  0  0
   -4.2098    0.6067    0.7207 C   0  0  0  0  0  0  0  0  0  0  0  0
   -5.7097    0.5952    0.7596 C   0  0  0  0  0  0  0  0  0  0  0  0
   -6.4029    1.6891    1.2779 C   0  0  0  0  0  0  0  0  0  0  0  0
   -6.4110   -0.5098    0.2773 C   0  0  0  0  0  0  0  0  0  0  0  0
   -7.7973    1.6779    1.3140 C   0  0  0  0  0  0  0  0  0  0  0  0
   -7.8055   -0.5211    0.3133 C   0  0  0  0  0  0  0  0  0  0  0  0
   -8.4985    0.5728    0.8318 C   0  0  0  0  0  0  0  0  0  0  0  0
    4.2361    2.1392   -1.2923 H   0  0  0  0  0  0  0  0  0  0  0  0
    3.8681    2.3596    1.6860 H   0  0  0  0  0  0  0  0  0  0  0  0
    4.0481   -0.3138   -1.2727 H   0  0  0  0  0  0  0  0  0  0  0  0
    5.6273    0.2928   -0.9261 H   0  0  0  0  0  0  0  0  0  0  0  0
    6.3365    3.0996    1.7663 H   0  0  0  0  0  0  0  0  0  0  0  0
    6.6150    2.1404    0.3364 H   0  0  0  0  0  0  0  0  0  0  0  0
    7.1122    1.0366    2.5770 H   0  0  0  0  0  0  0  0  0  0  0  0
    5.4040    1.0916    2.9636 H   0  0  0  0  0  0  0  0  0  0  0  0
    6.7872   -0.5442    0.7799 H   0  0  0  0  0  0  0  0  0  0  0  0
    6.0362   -1.0913    2.2658 H   0  0  0  0  0  0  0  0  0  0  0  0
    4.7804   -2.5847    1.3532 H   0  0  0  0  0  0  0  0  0  0  0  0
    5.1110   -2.3167   -0.3388 H   0  0  0  0  0  0  0  0  0  0  0  0
    2.1426    1.5073    0.6347 H   0  0  0  0  0  0  0  0  0  0  0  0
    4.6216    4.4013    1.1601 H   0  0  0  0  0  0  0  0  0  0  0  0
    3.2659   -2.4936   -1.9053 H   0  0  0  0  0  0  0  0  0  0  0  0
    2.4717   -2.2273    2.3257 H   0  0  0  0  0  0  0  0  0  0  0  0
    0.9160   -3.0426   -2.3164 H   0  0  0  0  0  0  0  0  0  0  0  0
    0.1368   -2.7774    1.9354 H   0  0  0  0  0  0  0  0  0  0  0  0
   -0.2140    2.2616   -3.0840 H   0  0  0  0  0  0  0  0  0  0  0  0
    0.4757    0.4179    0.7728 H   0  0  0  0  0  0  0  0  0  0  0  0
   -2.6364    2.1414   -2.6842 H   0  0  0  0  0  0  0  0  0  0  0  0
   -1.8577    0.3237    1.1744 H   0  0  0  0  0  0  0  0  0  0  0  0
   -3.8412    1.2018    1.5668 H   0  0  0  0  0  0  0  0  0  0  0  0
   -3.8560   -0.4278    0.8250 H   0  0  0  0  0  0  0  0  0  0  0  0
   -2.7151   -3.5473    0.5045 H   0  0  0  0  0  0  0  0  0  0  0  0
   -5.8683    2.5571    1.6545 H   0  0  0  0  0  0  0  0  0  0  0  0
   -5.8829   -1.3674   -0.1311 H   0  0  0  0  0  0  0  0  0  0  0  0
   -8.3371    2.5299    1.7171 H   0  0  0  0  0  0  0  0  0  0  0  0
   -8.3516   -1.3812   -0.0628 H   0  0  0  0  0  0  0  0  0  0  0  0
   -9.5842    0.5642    0.8596 H   0  0  0  0  0  0  0  0  0  0  0  0
  1  9  1  0  0  0  0
  1 49  1  0  0  0  0
  2 16  2  0  0  0  0
  3 27  1  0  0  0  0
  3 29  1  0  0  0  0
  4 28  1  0  0  0  0
  4 60  1  0  0  0  0
  5 28  2  0  0  0  0
  6 10  1  0  0  0  0
  6 13  1  0  0  0  0
  6 14  1  0  0  0  0
  7  8  1  0  0  0  0
  7 16  1  0  0  0  0
  7 48  1  0  0  0  0
  8  9  1  0  0  0  0
  8 10  1  0  0  0  0
  8 36  1  0  0  0  0
  9 11  1  0  0  0  0
  9 37  1  0  0  0  0
 10 38  1  0  0  0  0
 10 39  1  0  0  0  0
 11 12  1  0  0  0  0
 11 40  1  0  0  0  0
 11 41  1  0  0  0  0
 12 13  1  0  0  0  0
 12 42  1  0  0  0  0
 12 43  1  0  0  0  0
 13 44  1  0  0  0  0
 13 45  1  0  0  0  0
 14 15  1  0  0  0  0
 14 46  1  0  0  0  0
 14 47  1  0  0  0  0
 15 17  2  0  0  0  0
 15 18  1  0  0  0  0
 16 19  1  0  0  0  0
 17 20  1  0  0  0  0
 17 50  1  0  0  0  0
 18 21  2  0  0  0  0
 18 51  1  0  0  0  0
 19 23  2  0  0  0  0
 19 24  1  0  0  0  0
 20 22  2  0  0  0  0
 20 52  1  0  0  0  0
 21 22  1  0  0  0  0
 21 53  1  0  0  0  0
 22 28  1  0  0  0  0
 23 25  1  0  0  0  0
 23 54  1  0  0  0  0
 24 26  2  0  0  0  0
 24 55  1  0  0  0  0
 25 27  2  0  0  0  0
 25 56  1  0  0  0  0
 26 27  1  0  0  0  0
 26 57  1  0  0  0  0
 29 30  1  0  0  0  0
 29 58  1  0  0  0  0
 29 59  1  0  0  0  0
 30 31  2  0  0  0  0
 30 32  1  0  0  0  0
 31 33  1  0  0  0  0
 31 61  1  0  0  0  0
 32 34  2  0  0  0  0
 32 62  1  0  0  0  0
 33 35  2  0  0  0  0
 33 63  1  0  0  0  0
 34 35  1  0  0  0  0
 34 64  1  0  0  0  0
 35 65  1  0  0  0  0
M  END
> <PUBCHEM_COMPOUND_CID>
26742249

> <PUBCHEM_CONFORMER_RMSD>
1

> <PUBCHEM_CONFORMER_DIVERSEORDER>
1
85
18
92
64
23
66
16
60
11
33
45
83
88
56
42
95
17
71
72
50
43
38
67
65
48
87
27
28
15
77
79
63
6
44
62
24
21
35
36
32
51
89
73
91
14
25
53
76
49
57
26
52
40
86
37
39
12
46
80
81
94
69
29
22
5
58
70
59
47
9
54
13
8
74
84
3
61
30
55
7
82
97
20
93
41
75
19
96
34
4
68
10
31
78
90
2

> <PUBCHEM_MMFF94_PARTIAL_CHARGES>
49
1 -0.68
10 0.27
13 0.27
14 0.41
15 -0.14
16 0.54
17 -0.15
18 -0.15
19 0.09
2 -0.57
20 -0.15
21 -0.15
22 0.09
23 -0.15
24 -0.15
25 -0.15
26 -0.15
27 0.08
28 0.63
29 0.42
3 -0.36
30 -0.14
31 -0.15
32 -0.15
33 -0.15
34 -0.15
35 -0.15
4 -0.65
48 0.37
49 0.4
5 -0.57
50 0.15
51 0.15
52 0.15
53 0.15
54 0.15
55 0.15
56 0.15
57 0.15
6 -0.81
60 0.5
61 0.15
62 0.15
63 0.15
64 0.15
65 0.15
7 -0.73
8 0.3
9 0.28

> <PUBCHEM_EFFECTIVE_ROTOR_COUNT>
10.4

> <PUBCHEM_PHARMACOPHORE_FEATURES>
13
1 1 acceptor
1 1 donor
1 2 acceptor
1 3 acceptor
1 4 acceptor
1 5 acceptor
1 6 cation
1 7 donor
3 4 5 28 anion
6 15 17 18 20 21 22 rings
6 19 23 24 25 26 27 rings
6 30 31 32 33 34 35 rings
7 6 8 9 10 11 12 13 rings

> <PUBCHEM_HEAVY_ATOM_COUNT>
35

> <PUBCHEM_ATOM_DEF_STEREO_COUNT>
2

> <PUBCHEM_ATOM_UDEF_STEREO_COUNT>
0

> <PUBCHEM_BOND_DEF_STEREO_COUNT>
0

> <PUBCHEM_BOND_UDEF_STEREO_COUNT>
0

> <PUBCHEM_ISOTOPIC_ATOM_COUNT>
0

> <PUBCHEM_COMPONENT_COUNT>
1

> <PUBCHEM_CACTVS_TAUTO_COUNT>
2

> <PUBCHEM_CONFORMER_ID>
01980DE900000001

> <PUBCHEM_MMFF94_ENERGY>
105.3737

> <PUBCHEM_FEATURE_SELFOVERLAP>
66.031

> <PUBCHEM_SHAPE_FINGERPRINT>
10165383 225 18335989753135010876
10316853 100 18260274022842660242
10673678 19 18131072623439646315
10816530 23 17560520736981202134
11578080 2 17773294929176055874
11607047 141 17415865508803327743
12422481 6 18335145340219076562
1361 2 18261120642954579427
13692114 37 18342177803642444655
14394314 77 18341332275601822297
14725015 67 17968939660809150931
14910700 183 18261674775076989363
15183329 4 11819282131426573787
15721738 202 18341615850236818361
15840311 113 18200599099340379255
15968369 153 18340780329317689891
19301679 30 17895208658421447805
1979834 28 18335144159108156324
21133410 38 18271229595483497399
21197605 99 18336551602890969539
21585482 310 16733281079434570777
22956985 138 17461993276952760722
27425 322 15840681072721800538
4093350 32 17489591130130557878
4340502 62 18343022189832922669
437795 51 17989483026504634267
513532 50 18059591139102974718

> <PUBCHEM_SHAPE_MULTIPOLES>
680.97
18.88
4.33
1.83
34.43
2.95
-0.55
-10.01
12.42
-3.9
-0.5
-0.95
-0.62
-0.01

> <PUBCHEM_SHAPE_SELFOVERLAP>
1458.481

> <PUBCHEM_SHAPE_VOLUME>
371.6

> <PUBCHEM_COORDINATE_TYPE>
2
5
10

$$$$
