56774180
  -OEChem-12032416403D

 63 66  0     1  0  0  0  0  0999 V2000
   -4.8330   -0.3768    1.6716 O   0  0  0  0  0  0  0  0  0  0  0  0
    3.6551    2.2734    0.1920 O   0  0  0  0  0  0  0  0  0  0  0  0
   -3.2266   -1.0016    0.1162 N   0  0  0  0  0  0  0  0  0  0  0  0
    2.3305    2.6333    0.4085 N   0  0  0  0  0  0  0  0  0  0  0  0
   -2.0256    1.1638    0.7238 C   0  0  0  0  0  0  0  0  0  0  0  0
   -0.5040    1.0251    0.5088 C   0  0  1  0  0  0  0  0  0  0  0  0
   -2.0797   -0.3768    0.7873 C   0  0  2  0  0  0  0  0  0  0  0  0
   -0.7901   -0.3805   -0.0597 C   0  0  0  0  0  0  0  0  0  0  0  0
    0.1580    1.9969   -0.4771 C   0  0  0  0  0  0  0  0  0  0  0  0
   -2.4531    1.8210    2.0234 C   0  0  0  0  0  0  0  0  0  0  0  0
   -2.7450    1.8114   -0.4388 C   0  0  0  0  0  0  0  0  0  0  0  0
    1.6243    1.8774   -0.4370 C   0  0  0  0  0  0  0  0  0  0  0  0
   -4.5161   -0.9432    0.6275 C   0  0  0  0  0  0  0  0  0  0  0  0
   -5.5289   -1.6598   -0.2124 C   0  0  0  0  0  0  0  0  0  0  0  0
   -6.9236   -1.5390    0.4039 C   0  0  0  0  0  0  0  0  0  0  0  0
   -5.6172   -1.0184   -1.6018 C   0  0  0  0  0  0  0  0  0  0  0  0
   -7.5945   -0.4199   -0.3796 C   0  0  0  0  0  0  0  0  0  0  0  0
   -7.0810   -0.6358   -1.7917 C   0  0  0  0  0  0  0  0  0  0  0  0
    2.4414    1.0299   -1.2050 C   0  0  0  0  0  0  0  0  0  0  0  0
    5.2960   -0.5695   -0.5117 C   0  0  0  0  0  0  0  0  0  0  0  0
    5.0755    0.8072   -1.1356 C   0  0  0  0  0  0  0  0  0  0  0  0
    3.7082    1.3180   -0.7710 C   0  0  0  0  0  0  0  0  0  0  0  0
    5.6426   -0.4403    0.9777 C   0  0  0  0  0  0  0  0  0  0  0  0
    6.3929   -1.3358   -1.2633 C   0  0  0  0  0  0  0  0  0  0  0  0
    5.9203   -1.8013    1.6122 C   0  0  0  0  0  0  0  0  0  0  0  0
    6.6691   -2.6953   -0.6251 C   0  0  0  0  0  0  0  0  0  0  0  0
    7.0046   -2.5636    0.8571 C   0  0  0  0  0  0  0  0  0  0  0  0
    0.0366    0.9872    1.4676 H   0  0  0  0  0  0  0  0  0  0  0  0
   -1.9223   -0.8026    1.7873 H   0  0  0  0  0  0  0  0  0  0  0  0
   -0.9462   -0.4240   -1.1444 H   0  0  0  0  0  0  0  0  0  0  0  0
   -0.0580   -1.1475    0.2108 H   0  0  0  0  0  0  0  0  0  0  0  0
   -0.1990    1.8378   -1.5016 H   0  0  0  0  0  0  0  0  0  0  0  0
   -0.1178    3.0253   -0.2091 H   0  0  0  0  0  0  0  0  0  0  0  0
   -3.5367    1.7756    2.1674 H   0  0  0  0  0  0  0  0  0  0  0  0
   -2.1643    2.8782    2.0368 H   0  0  0  0  0  0  0  0  0  0  0  0
   -1.9829    1.3473    2.8923 H   0  0  0  0  0  0  0  0  0  0  0  0
   -3.8325    1.7594   -0.3111 H   0  0  0  0  0  0  0  0  0  0  0  0
   -2.5182    1.3422   -1.4022 H   0  0  0  0  0  0  0  0  0  0  0  0
   -2.4959    2.8754   -0.5230 H   0  0  0  0  0  0  0  0  0  0  0  0
   -3.0820   -1.5175   -0.7486 H   0  0  0  0  0  0  0  0  0  0  0  0
   -5.2311   -2.7130   -0.2761 H   0  0  0  0  0  0  0  0  0  0  0  0
   -6.9568   -1.3619    1.4825 H   0  0  0  0  0  0  0  0  0  0  0  0
   -7.4716   -2.4729    0.2216 H   0  0  0  0  0  0  0  0  0  0  0  0
   -5.2966   -1.7146   -2.3844 H   0  0  0  0  0  0  0  0  0  0  0  0
   -4.9942   -0.1212   -1.6923 H   0  0  0  0  0  0  0  0  0  0  0  0
   -7.2718    0.5571   -0.0012 H   0  0  0  0  0  0  0  0  0  0  0  0
   -8.6856   -0.4688   -0.3224 H   0  0  0  0  0  0  0  0  0  0  0  0
   -7.6238   -1.4616   -2.2672 H   0  0  0  0  0  0  0  0  0  0  0  0
   -7.1999    0.2520   -2.4196 H   0  0  0  0  0  0  0  0  0  0  0  0
    2.1543    0.3142   -1.9612 H   0  0  0  0  0  0  0  0  0  0  0  0
    4.3743   -1.1633   -0.5957 H   0  0  0  0  0  0  0  0  0  0  0  0
    5.1232    0.7433   -2.2299 H   0  0  0  0  0  0  0  0  0  0  0  0
    5.8484    1.5194   -0.8240 H   0  0  0  0  0  0  0  0  0  0  0  0
    6.5257    0.1994    1.1031 H   0  0  0  0  0  0  0  0  0  0  0  0
    4.8224    0.0401    1.5235 H   0  0  0  0  0  0  0  0  0  0  0  0
    6.0982   -1.4840   -2.3091 H   0  0  0  0  0  0  0  0  0  0  0  0
    7.3186   -0.7463   -1.2736 H   0  0  0  0  0  0  0  0  0  0  0  0
    6.2246   -1.6658    2.6562 H   0  0  0  0  0  0  0  0  0  0  0  0
    4.9971   -2.3938    1.6229 H   0  0  0  0  0  0  0  0  0  0  0  0
    5.7895   -3.3399   -0.7446 H   0  0  0  0  0  0  0  0  0  0  0  0
    7.4976   -3.1860   -1.1482 H   0  0  0  0  0  0  0  0  0  0  0  0
    7.1300   -3.5593    1.2970 H   0  0  0  0  0  0  0  0  0  0  0  0
    7.9628   -2.0415    0.9692 H   0  0  0  0  0  0  0  0  0  0  0  0
  1 13  2  0  0  0  0
  2  4  1  0  0  0  0
  2 22  1  0  0  0  0
  3  7  1  0  0  0  0
  3 13  1  0  0  0  0
  3 40  1  0  0  0  0
  4 12  2  0  0  0  0
  5  6  1  0  0  0  0
  5  7  1  0  0  0  0
  5 10  1  0  0  0  0
  5 11  1  0  0  0  0
  6  8  1  0  0  0  0
  6  9  1  0  0  0  0
  6 28  1  0  0  0  0
  7  8  1  0  0  0  0
  7 29  1  0  0  0  0
  8 30  1  0  0  0  0
  8 31  1  0  0  0  0
  9 12  1  0  0  0  0
  9 32  1  0  0  0  0
  9 33  1  0  0  0  0
 10 34  1  0  0  0  0
 10 35  1  0  0  0  0
 10 36  1  0  0  0  0
 11 37  1  0  0  0  0
 11 38  1  0  0  0  0
 11 39  1  0  0  0  0
 12 19  1  0  0  0  0
 13 14  1  0  0  0  0
 14 15  1  0  0  0  0
 14 16  1  0  0  0  0
 14 41  1  0  0  0  0
 15 17  1  0  0  0  0
 15 42  1  0  0  0  0
 15 43  1  0  0  0  0
 16 18  1  0  0  0  0
 16 44  1  0  0  0  0
 16 45  1  0  0  0  0
 17 18  1  0  0  0  0
 17 46  1  0  0  0  0
 17 47  1  0  0  0  0
 18 48  1  0  0  0  0
 18 49  1  0  0  0  0
 19 22  2  0  0  0  0
 19 50  1  0  0  0  0
 20 21  1  0  0  0  0
 20 23  1  0  0  0  0
 20 24  1  0  0  0  0
 20 51  1  0  0  0  0
 21 22  1  0  0  0  0
 21 52  1  0  0  0  0
 21 53  1  0  0  0  0
 23 25  1  0  0  0  0
 23 54  1  0  0  0  0
 23 55  1  0  0  0  0
 24 26  1  0  0  0  0
 24 56  1  0  0  0  0
 24 57  1  0  0  0  0
 25 27  1  0  0  0  0
 25 58  1  0  0  0  0
 25 59  1  0  0  0  0
 26 27  1  0  0  0  0
 26 60  1  0  0  0  0
 26 61  1  0  0  0  0
 27 62  1  0  0  0  0
 27 63  1  0  0  0  0
M  END
> <PUBCHEM_COMPOUND_CID>
56774180

> <PUBCHEM_CONFORMER_RMSD>
1.2

> <PUBCHEM_CONFORMER_DIVERSEORDER>
1
114
72
97
23
71
65
120
59
79
98
55
62
99
54
94
41
38
110
91
7
58
112
5
122
90
74
2
88
18
80
63
57
84
66
116
32
121
69
45
47
34
49
44
40
46
17
111
117
68
107
21
78
83
96
13
37
29
101
87
30
43
31
51
56
64
92
8
89
9
42
24
95
12
25
104
36
70
60
106
19
81
67
3
113
35
11
119
15
53
118
102
16
20
6
39
48
105
85
26
4
33
115
10
108
86
27
82
103
76
28
93
100
73
14
77
75
50
22
61
52
109

> <PUBCHEM_MMFF94_PARTIAL_CHARGES>
14
1 -0.57
12 0.11
13 0.57
14 0.06
19 -0.15
2 -0.02
21 0.18
22 -0.04
3 -0.65
4 -0.41
40 0.37
50 0.15
7 0.22
9 0.18

> <PUBCHEM_EFFECTIVE_ROTOR_COUNT>
10

> <PUBCHEM_PHARMACOPHORE_FEATURES>
8
1 1 acceptor
1 3 donor
1 4 acceptor
3 5 10 11 hydrophobe
4 5 6 7 8 rings
5 14 15 16 17 18 rings
5 2 4 12 19 22 rings
6 20 23 24 25 26 27 rings

> <PUBCHEM_HEAVY_ATOM_COUNT>
27

> <PUBCHEM_ATOM_DEF_STEREO_COUNT>
2

> <PUBCHEM_ATOM_UDEF_STEREO_COUNT>
0

> <PUBCHEM_BOND_DEF_STEREO_COUNT>
0

> <PUBCHEM_BOND_UDEF_STEREO_COUNT>
0

> <PUBCHEM_ISOTOPIC_ATOM_COUNT>
0

> <PUBCHEM_COMPONENT_COUNT>
1

> <PUBCHEM_CACTVS_TAUTO_COUNT>
2

> <PUBCHEM_CONFORMER_ID>
03624E2400000001

> <PUBCHEM_MMFF94_ENERGY>
40.2315

> <PUBCHEM_FEATURE_SELFOVERLAP>
40.597

> <PUBCHEM_SHAPE_FINGERPRINT>
10 15 13110962037074678870
10319926 262 17203059478121936760
10917259 69 18118676618296479357
10981352 41 18060700568496214606
11273773 42 8574419920534237818
117089 54 18195255408669837550
12539765 74 11747198149146587601
13533116 47 18340768242978850488
13782708 43 18409165515135893661
13885169 86 9295281751074611134
13914758 101 18334012766312636389
14118638 360 18411427232710099276
14216079 64 18409166610342023799
14347332 77 18411420591983401089
14461889 52 13254796871223566629
14537116 161 13551183403245565446
14919807 6 17531514383748865359
14931854 50 17458352897333044122
15119646 104 18411986844877377847
15183329 4 17530681000467429013
15188451 53 18059855052169063552
15475509 8 16008743598253998887
15519825 34 15984526897596923255
15685185 35 9222644727710998206
16126227 98 8574423232064708149
16760501 71 11383831584267890210
17857418 61 18413111679537073648
18393751 57 12247678262039135021
19377110 9 15769772485245787620
19841028 212 18260825999771968594
19958102 18 17821723944579777797
20028762 73 18201722847237330022
20567600 234 14333407874088091296
21315764 119 17167581604863115391
21344244 78 16558754524878985440
22061861 79 18187362172957788343
22079108 93 13254804546261844637
23522609 53 18050889659831829960
23559900 14 18188490306247897625
23569943 247 18335703810864857243
23929065 36 16917075408853087857
3014063 24 18342457028393473502
32027 91 18340485689986135777
328310 630 8935000343689607699
3472631 163 7781511517158580794
397830 11 12751235939149816205
406291 66 18413105044034901126
4258327 124 8430309143785245057
4403749 210 11312058743490657181
444769 64 18335147449828753585
445580 126 9223230716205930142
474113 269 18272082769382791311
5085150 59 17704353260649070383
5104073 3 17917718989450794896
531348 171 18411134754284944303
5718773 13 18411136918305000014
57307002 182 15338826612637590200
5874358 3 17488723675907785687
59682541 35 11599721805653632437
59682541 52 15140676948249259778
59755656 215 17822006519205357075
6438161 24 18260823809042923418
6712543 237 16056883507168353919

> <PUBCHEM_SHAPE_MULTIPOLES>
533.95
22.84
2.8
1.55
2.41
0.27
-0.15
-19.69
3.42
-3.54
-0.23
0.42
-0.11
-1.51

> <PUBCHEM_SHAPE_SELFOVERLAP>
1115.113

> <PUBCHEM_SHAPE_VOLUME>
304.7

> <PUBCHEM_COORDINATE_TYPE>
2
5
10

$$$$
