45783977
  -OEChem-12032416263D

 71 74  0     1  0  0  0  0  0999 V2000
   -0.4169    2.0868   -0.4799 O   0  0  0  0  0  0  0  0  0  0  0  0
    2.6700   -2.7432    0.6732 N   0  0  0  0  0  0  0  0  0  0  0  0
    0.7195    2.1771    1.4449 N   0  0  0  0  0  0  0  0  0  0  0  0
   -0.5540    1.7162    1.7220 N   0  0  0  0  0  0  0  0  0  0  0  0
   -0.6899   -2.6604    1.5343 N   0  0  0  0  0  0  0  0  0  0  0  0
   -6.4515    0.1247   -0.6767 N   0  0  0  0  0  0  0  0  0  0  0  0
    3.7809   -0.5000   -0.8431 C   0  0  1  0  0  0  0  0  0  0  0  0
    3.9173   -0.6280    0.6920 C   0  0  1  0  0  0  0  0  0  0  0  0
    2.7657    0.5936   -1.2035 C   0  0  0  0  0  0  0  0  0  0  0  0
    3.1126    1.9724   -0.6021 C   0  0  2  0  0  0  0  0  0  0  0  0
    5.1399   -0.2356   -1.5054 C   0  0  0  0  0  0  0  0  0  0  0  0
    3.6573    1.8836    0.8155 C   0  0  0  0  0  0  0  0  0  0  0  0
    4.0000    0.7109    1.3797 C   0  0  0  0  0  0  0  0  0  0  0  0
    2.7639   -1.4348    1.2973 C   0  0  0  0  0  0  0  0  0  0  0  0
    1.8799    2.8785   -0.7116 C   0  0  0  0  0  0  0  0  0  0  0  0
    5.9765   -1.5110   -1.5308 C   0  0  0  0  0  0  0  0  0  0  0  0
    4.9467    0.3129   -2.9154 C   0  0  0  0  0  0  0  0  0  0  0  0
    3.8616    3.1727    1.5632 C   0  0  0  0  0  0  0  0  0  0  0  0
    0.7542    2.3799    0.1486 C   0  0  0  0  0  0  0  0  0  0  0  0
    1.5683   -3.5151    1.2359 C   0  0  0  0  0  0  0  0  0  0  0  0
    0.2411   -3.1007    0.6585 C   0  0  0  0  0  0  0  0  0  0  0  0
   -1.1817    1.6796    0.5699 C   0  0  0  0  0  0  0  0  0  0  0  0
    0.0399   -3.1864   -0.7098 C   0  0  0  0  0  0  0  0  0  0  0  0
   -2.5232    1.2838    0.2526 C   0  0  0  0  0  0  0  0  0  0  0  0
   -1.1963   -2.7949   -1.2114 C   0  0  0  0  0  0  0  0  0  0  0  0
   -3.3805    0.8511    1.2642 C   0  0  0  0  0  0  0  0  0  0  0  0
   -2.9707    1.3322   -1.0677 C   0  0  0  0  0  0  0  0  0  0  0  0
   -1.8792   -2.2887    1.0100 C   0  0  0  0  0  0  0  0  0  0  0  0
   -2.1797   -2.3362   -0.3418 C   0  0  0  0  0  0  0  0  0  0  0  0
   -4.6852    0.4665    0.9556 C   0  0  0  0  0  0  0  0  0  0  0  0
   -4.2754    0.9475   -1.3764 C   0  0  0  0  0  0  0  0  0  0  0  0
   -5.1327    0.5146   -0.3648 C   0  0  0  0  0  0  0  0  0  0  0  0
   -6.9288    0.1782   -2.0444 C   0  0  0  0  0  0  0  0  0  0  0  0
   -7.3496   -0.3277    0.3672 C   0  0  0  0  0  0  0  0  0  0  0  0
    3.3957   -1.4322   -1.2753 H   0  0  0  0  0  0  0  0  0  0  0  0
    4.8443   -1.1607    0.9340 H   0  0  0  0  0  0  0  0  0  0  0  0
    2.5925    0.6781   -2.2820 H   0  0  0  0  0  0  0  0  0  0  0  0
    1.7954    0.2502   -0.8218 H   0  0  0  0  0  0  0  0  0  0  0  0
    3.9024    2.4350   -1.2062 H   0  0  0  0  0  0  0  0  0  0  0  0
    5.7040    0.5163   -0.9396 H   0  0  0  0  0  0  0  0  0  0  0  0
    4.3855    0.6999    2.3970 H   0  0  0  0  0  0  0  0  0  0  0  0
    1.8234   -0.8820    1.1827 H   0  0  0  0  0  0  0  0  0  0  0  0
    2.9340   -1.5489    2.3766 H   0  0  0  0  0  0  0  0  0  0  0  0
    1.5492    2.9292   -1.7567 H   0  0  0  0  0  0  0  0  0  0  0  0
    2.1183    3.9071   -0.4175 H   0  0  0  0  0  0  0  0  0  0  0  0
    6.9364   -1.3300   -2.0274 H   0  0  0  0  0  0  0  0  0  0  0  0
    6.2039   -1.8816   -0.5280 H   0  0  0  0  0  0  0  0  0  0  0  0
    5.4679   -2.3109   -2.0801 H   0  0  0  0  0  0  0  0  0  0  0  0
    4.2832   -0.3242   -3.5110 H   0  0  0  0  0  0  0  0  0  0  0  0
    5.9102    0.3394   -3.4393 H   0  0  0  0  0  0  0  0  0  0  0  0
    4.5761    1.3397   -2.9413 H   0  0  0  0  0  0  0  0  0  0  0  0
    4.4471    3.8708    0.9556 H   0  0  0  0  0  0  0  0  0  0  0  0
    4.4117    3.0209    2.4985 H   0  0  0  0  0  0  0  0  0  0  0  0
    2.9121    3.6483    1.8209 H   0  0  0  0  0  0  0  0  0  0  0  0
    3.5435   -3.2463    0.8298 H   0  0  0  0  0  0  0  0  0  0  0  0
    1.7183   -4.5728    0.9856 H   0  0  0  0  0  0  0  0  0  0  0  0
    1.5564   -3.4638    2.3318 H   0  0  0  0  0  0  0  0  0  0  0  0
    0.8094   -3.5501   -1.3824 H   0  0  0  0  0  0  0  0  0  0  0  0
   -1.3948   -2.8507   -2.2774 H   0  0  0  0  0  0  0  0  0  0  0  0
   -3.0525    0.8059    2.3000 H   0  0  0  0  0  0  0  0  0  0  0  0
   -2.3316    1.6627   -1.8826 H   0  0  0  0  0  0  0  0  0  0  0  0
   -2.6157   -1.9596    1.7345 H   0  0  0  0  0  0  0  0  0  0  0  0
   -3.1545   -2.0412   -0.7110 H   0  0  0  0  0  0  0  0  0  0  0  0
   -5.3127    0.1368    1.7776 H   0  0  0  0  0  0  0  0  0  0  0  0
   -4.5757    1.0018   -2.4181 H   0  0  0  0  0  0  0  0  0  0  0  0
   -6.8970    1.2014   -2.4351 H   0  0  0  0  0  0  0  0  0  0  0  0
   -6.3431   -0.4818   -2.6939 H   0  0  0  0  0  0  0  0  0  0  0  0
   -7.9705   -0.1526   -2.1229 H   0  0  0  0  0  0  0  0  0  0  0  0
   -6.9605   -1.2238    0.8633 H   0  0  0  0  0  0  0  0  0  0  0  0
   -7.5208    0.4590    1.1105 H   0  0  0  0  0  0  0  0  0  0  0  0
   -8.3333   -0.5968   -0.0335 H   0  0  0  0  0  0  0  0  0  0  0  0
  1 19  1  0  0  0  0
  1 22  1  0  0  0  0
  2 14  1  0  0  0  0
  2 20  1  0  0  0  0
  2 55  1  0  0  0  0
  3  4  1  0  0  0  0
  3 19  2  0  0  0  0
  4 22  2  0  0  0  0
  5 21  1  0  0  0  0
  5 28  2  0  0  0  0
  6 32  1  0  0  0  0
  6 33  1  0  0  0  0
  6 34  1  0  0  0  0
  7  8  1  0  0  0  0
  7  9  1  0  0  0  0
  7 11  1  0  0  0  0
  7 35  1  0  0  0  0
  8 13  1  0  0  0  0
  8 14  1  0  0  0  0
  8 36  1  0  0  0  0
  9 10  1  0  0  0  0
  9 37  1  0  0  0  0
  9 38  1  0  0  0  0
 10 12  1  0  0  0  0
 10 15  1  0  0  0  0
 10 39  1  0  0  0  0
 11 16  1  0  0  0  0
 11 17  1  0  0  0  0
 11 40  1  0  0  0  0
 12 13  2  0  0  0  0
 12 18  1  0  0  0  0
 13 41  1  0  0  0  0
 14 42  1  0  0  0  0
 14 43  1  0  0  0  0
 15 19  1  0  0  0  0
 15 44  1  0  0  0  0
 15 45  1  0  0  0  0
 16 46  1  0  0  0  0
 16 47  1  0  0  0  0
 16 48  1  0  0  0  0
 17 49  1  0  0  0  0
 17 50  1  0  0  0  0
 17 51  1  0  0  0  0
 18 52  1  0  0  0  0
 18 53  1  0  0  0  0
 18 54  1  0  0  0  0
 20 21  1  0  0  0  0
 20 56  1  0  0  0  0
 20 57  1  0  0  0  0
 21 23  2  0  0  0  0
 22 24  1  0  0  0  0
 23 25  1  0  0  0  0
 23 58  1  0  0  0  0
 24 26  2  0  0  0  0
 24 27  1  0  0  0  0
 25 29  2  0  0  0  0
 25 59  1  0  0  0  0
 26 30  1  0  0  0  0
 26 60  1  0  0  0  0
 27 31  2  0  0  0  0
 27 61  1  0  0  0  0
 28 29  1  0  0  0  0
 28 62  1  0  0  0  0
 29 63  1  0  0  0  0
 30 32  2  0  0  0  0
 30 64  1  0  0  0  0
 31 32  1  0  0  0  0
 31 65  1  0  0  0  0
 33 66  1  0  0  0  0
 33 67  1  0  0  0  0
 33 68  1  0  0  0  0
 34 69  1  0  0  0  0
 34 70  1  0  0  0  0
 34 71  1  0  0  0  0
M  END
> <PUBCHEM_COMPOUND_CID>
45783977

> <PUBCHEM_CONFORMER_RMSD>
1

> <PUBCHEM_CONFORMER_DIVERSEORDER>
32
134
194
50
79
30
122
117
156
233
87
132
113
97
195
76
114
212
58
150
119
163
225
167
207
146
94
240
16
59
126
136
109
234
204
105
166
3
153
96
101
216
189
91
37
137
172
2
152
242
245
98
81
160
57
127
210
176
70
159
124
164
238
196
83
68
66
118
100
1
104
232
161
183
75
236
174
162
192
206
34
63
102
116
157
62
147
155
181
52
201
154
74
205
129
86
6
28
175
226
241
186
171
120
93
39
56
46
243
202
107
214
235
169
53
224
227
177
110
112
90
178
140
61
213
221
182
88
40
82
239
84
36
151
45
115
220
223
35
148
193
130
26
42
4
85
143
123
217
121
111
187
199
73
188
209
15
77
191
128
69
231
22
135
108
158
27
60
99
44
38
64
14
144
41
222
145
25
190
244
125
200
49
180
184
72
208
215
106
229
218
78
165
10
48
33
149
228
13
31
54
230
211
141
89
197
173
23
19
71
237
170
65
179
20
219
12
67
103
17
139
203
198
138
142
7
185
18
92
95
21
8
55
29
47
80
51
9
43
133
11
168
5
131
24

> <PUBCHEM_MMFF94_PARTIAL_CHARGES>
39
1 -0.28
10 0.14
12 -0.28
13 -0.29
14 0.27
15 0.18
18 0.14
19 0.3
2 -0.9
20 0.41
21 0.17
22 0.43
23 -0.15
24 0.05
25 -0.15
26 -0.15
27 -0.15
28 0.16
29 -0.15
3 -0.34
30 -0.15
31 -0.15
32 0.1
33 0.37
34 0.37
4 -0.34
41 0.15
5 -0.62
55 0.36
58 0.15
59 0.15
6 -0.84
60 0.15
61 0.15
62 0.15
63 0.15
64 0.15
65 0.15
8 0.14

> <PUBCHEM_EFFECTIVE_ROTOR_COUNT>
9.8

> <PUBCHEM_PHARMACOPHORE_FEATURES>
9
1 2 cation
1 2 donor
1 5 acceptor
1 6 cation
3 11 16 17 hydrophobe
5 1 3 4 19 22 rings
6 24 26 27 30 31 32 rings
6 5 21 23 25 28 29 rings
6 7 8 9 10 12 13 rings

> <PUBCHEM_HEAVY_ATOM_COUNT>
34

> <PUBCHEM_ATOM_DEF_STEREO_COUNT>
3

> <PUBCHEM_ATOM_UDEF_STEREO_COUNT>
0

> <PUBCHEM_BOND_DEF_STEREO_COUNT>
0

> <PUBCHEM_BOND_UDEF_STEREO_COUNT>
0

> <PUBCHEM_ISOTOPIC_ATOM_COUNT>
0

> <PUBCHEM_COMPONENT_COUNT>
1

> <PUBCHEM_CACTVS_TAUTO_COUNT>
1

> <PUBCHEM_CONFORMER_ID>
02BA9BA900000020

> <PUBCHEM_MMFF94_ENERGY>
86.4661

> <PUBCHEM_FEATURE_SELFOVERLAP>
45.671

> <PUBCHEM_SHAPE_FINGERPRINT>
10675989 125 18410287042903685737
10816530 23 16915363631961323104
11093857 51 18411699872685737910
11513181 2 17771073691785360727
12156800 1 13785837709212787874
13122387 1 18338231549183204618
13533116 47 17918273181554435977
1361 2 18335698356123969849
13617811 41 18113332025301529325
14068700 675 17845939516167331232
14114211 68 18114761355656946758
14931854 50 18337400335588481718
15001296 14 18340477958886773353
15183329 4 18113336380572420829
15328829 1 17846788369720429473
15968369 153 18198622323399514979
17492 54 18334298630429412507
20028762 73 17989486290479663526
20465049 17 18408892840526222630
20764821 26 18263910197984481070
20775438 99 18058433460854623038
21857420 4 11978519684065114740
23559900 14 18270689774145060284
3052486 1 18334579083915842330
3298306 158 18261386733273831573
3383291 50 18273498970145043447
338550 245 18262794211015034361
340366 18 17968945321782113437
35225 105 18339640045306605502
354706 35 16609678710291870476
404807 78 17605011362487012691
4403749 210 17265798990615288544
463206 1 18340477963334662809
484989 97 18263657301931641923
6287921 2 17556024576353667499
6669772 16 18339347677786364697

> <PUBCHEM_SHAPE_MULTIPOLES>
668.93
14.03
4.19
1.99
16.63
2.27
-0.65
-2.04
-6.31
-2.61
1.29
-1.33
-0.07
0.74

> <PUBCHEM_SHAPE_SELFOVERLAP>
1419.055

> <PUBCHEM_SHAPE_VOLUME>
373

> <PUBCHEM_COORDINATE_TYPE>
2
5
10

$$$$
