26744132
  -OEChem-12032416213D

 54 57  0     1  0  0  0  0  0999 V2000
   -3.5445   -4.4707   -1.5963 O   0  0  0  0  0  0  0  0  0  0  0  0
    0.1703   -2.1264    2.0355 O   0  0  0  0  0  0  0  0  0  0  0  0
   -3.2818    4.7854   -0.8644 O   0  0  0  0  0  0  0  0  0  0  0  0
    6.4691    1.1397   -0.8197 O   0  0  0  0  0  0  0  0  0  0  0  0
   -2.3768   -1.2840   -0.4768 N   0  0  1  0  0  0  0  0  0  0  0  0
   -3.0332    2.8112    0.3351 N   0  0  0  0  0  0  0  0  0  0  0  0
    0.5636   -1.1971    0.0359 N   0  0  0  0  0  0  0  0  0  0  0  0
    1.4999   -1.6866    2.0651 N   0  0  0  0  0  0  0  0  0  0  0  0
   -2.9466   -0.0739    0.1106 C   0  0  0  0  0  0  0  0  0  0  0  0
   -1.7458   -2.1735    0.5193 C   0  0  1  0  0  0  0  0  0  0  0  0
   -3.3837   -2.0862   -1.1691 C   0  0  0  0  0  0  0  0  0  0  0  0
   -1.8872   -3.5889   -0.0710 C   0  0  0  0  0  0  0  0  0  0  0  0
   -2.6500   -3.3975   -1.3760 C   0  0  1  0  0  0  0  0  0  0  0  0
   -3.5706    0.7999   -0.9852 C   0  0  0  0  0  0  0  0  0  0  0  0
   -1.8623    0.7059    0.8655 C   0  0  0  0  0  0  0  0  0  0  0  0
   -4.0876    2.1152   -0.4053 C   0  0  0  0  0  0  0  0  0  0  0  0
   -2.4130    2.0246    1.4085 C   0  0  0  0  0  0  0  0  0  0  0  0
   -0.3068   -1.7996    0.8059 C   0  0  0  0  0  0  0  0  0  0  0  0
   -2.7205    4.1332    0.0198 C   0  0  0  0  0  0  0  0  0  0  0  0
    1.6567   -1.1501    0.8513 C   0  0  0  0  0  0  0  0  0  0  0  0
   -1.6217    4.7783    0.8258 C   0  0  0  0  0  0  0  0  0  0  0  0
    2.8920   -0.5609    0.4219 C   0  0  0  0  0  0  0  0  0  0  0  0
    2.9982   -0.0169   -0.8582 C   0  0  0  0  0  0  0  0  0  0  0  0
    3.9879   -0.5332    1.2845 C   0  0  0  0  0  0  0  0  0  0  0  0
    4.2001    0.5544   -1.2757 C   0  0  0  0  0  0  0  0  0  0  0  0
    5.1898    0.0381    0.8670 C   0  0  0  0  0  0  0  0  0  0  0  0
    5.2959    0.5819   -0.4131 C   0  0  0  0  0  0  0  0  0  0  0  0
    6.5084    1.6777   -2.1408 C   0  0  0  0  0  0  0  0  0  0  0  0
   -3.7366   -0.3417    0.8273 H   0  0  0  0  0  0  0  0  0  0  0  0
   -2.3083   -2.1557    1.4639 H   0  0  0  0  0  0  0  0  0  0  0  0
   -3.6747   -1.6708   -2.1393 H   0  0  0  0  0  0  0  0  0  0  0  0
   -4.2930   -2.2385   -0.5726 H   0  0  0  0  0  0  0  0  0  0  0  0
   -0.9249   -4.0777   -0.2621 H   0  0  0  0  0  0  0  0  0  0  0  0
   -2.4470   -4.2335    0.6182 H   0  0  0  0  0  0  0  0  0  0  0  0
   -1.9570   -3.3270   -2.2234 H   0  0  0  0  0  0  0  0  0  0  0  0
   -4.4146    0.2993   -1.4718 H   0  0  0  0  0  0  0  0  0  0  0  0
   -2.8251    1.0182   -1.7616 H   0  0  0  0  0  0  0  0  0  0  0  0
   -1.0189    0.9332    0.2015 H   0  0  0  0  0  0  0  0  0  0  0  0
   -1.4939    0.1607    1.7384 H   0  0  0  0  0  0  0  0  0  0  0  0
   -4.4787    2.7447   -1.2109 H   0  0  0  0  0  0  0  0  0  0  0  0
   -4.9112    1.9296    0.2944 H   0  0  0  0  0  0  0  0  0  0  0  0
   -3.1902    1.8342    2.1585 H   0  0  0  0  0  0  0  0  0  0  0  0
   -1.6124    2.5733    1.9078 H   0  0  0  0  0  0  0  0  0  0  0  0
   -3.0166   -5.2859   -1.6434 H   0  0  0  0  0  0  0  0  0  0  0  0
   -0.6847    4.2306    0.6939 H   0  0  0  0  0  0  0  0  0  0  0  0
   -1.8997    4.8162    1.8823 H   0  0  0  0  0  0  0  0  0  0  0  0
   -1.4686    5.8042    0.4766 H   0  0  0  0  0  0  0  0  0  0  0  0
    2.1614   -0.0235   -1.5525 H   0  0  0  0  0  0  0  0  0  0  0  0
    3.9429   -0.9471    2.2887 H   0  0  0  0  0  0  0  0  0  0  0  0
    4.2140    0.9586   -2.2822 H   0  0  0  0  0  0  0  0  0  0  0  0
    6.0403    0.0569    1.5430 H   0  0  0  0  0  0  0  0  0  0  0  0
    7.5151    2.0795   -2.2962 H   0  0  0  0  0  0  0  0  0  0  0  0
    5.8094    2.5130   -2.2561 H   0  0  0  0  0  0  0  0  0  0  0  0
    6.3544    0.9002   -2.8967 H   0  0  0  0  0  0  0  0  0  0  0  0
  1 13  1  0  0  0  0
  1 44  1  0  0  0  0
  2  8  1  0  0  0  0
  2 18  1  0  0  0  0
  3 19  2  0  0  0  0
  4 27  1  0  0  0  0
  4 28  1  0  0  0  0
  5  9  1  0  0  0  0
  5 10  1  0  0  0  0
  5 11  1  0  0  0  0
  6 16  1  0  0  0  0
  6 17  1  0  0  0  0
  6 19  1  0  0  0  0
  7 18  2  0  0  0  0
  7 20  1  0  0  0  0
  8 20  2  0  0  0  0
  9 14  1  0  0  0  0
  9 15  1  0  0  0  0
  9 29  1  0  0  0  0
 10 12  1  0  0  0  0
 10 18  1  0  0  0  0
 10 30  1  0  0  0  0
 11 13  1  0  0  0  0
 11 31  1  0  0  0  0
 11 32  1  0  0  0  0
 12 13  1  0  0  0  0
 12 33  1  0  0  0  0
 12 34  1  0  0  0  0
 13 35  1  0  0  0  0
 14 16  1  0  0  0  0
 14 36  1  0  0  0  0
 14 37  1  0  0  0  0
 15 17  1  0  0  0  0
 15 38  1  0  0  0  0
 15 39  1  0  0  0  0
 16 40  1  0  0  0  0
 16 41  1  0  0  0  0
 17 42  1  0  0  0  0
 17 43  1  0  0  0  0
 19 21  1  0  0  0  0
 20 22  1  0  0  0  0
 21 45  1  0  0  0  0
 21 46  1  0  0  0  0
 21 47  1  0  0  0  0
 22 23  2  0  0  0  0
 22 24  1  0  0  0  0
 23 25  1  0  0  0  0
 23 48  1  0  0  0  0
 24 26  2  0  0  0  0
 24 49  1  0  0  0  0
 25 27  2  0  0  0  0
 25 50  1  0  0  0  0
 26 27  1  0  0  0  0
 26 51  1  0  0  0  0
 28 52  1  0  0  0  0
 28 53  1  0  0  0  0
 28 54  1  0  0  0  0
M  END
> <PUBCHEM_COMPOUND_CID>
26744132

> <PUBCHEM_CONFORMER_RMSD>
0.8

> <PUBCHEM_CONFORMER_DIVERSEORDER>
1
93
38
68
46
88
45
60
40
82
55
42
66
91
43
10
44
62
64
84
3
95
69
71
56
23
49
78
94
77
74
29
58
31
80
27
15
90
89
32
2
12
33
54
85
83
87
75
21
79
24
28
34
51
52
92
86
97
76
25
19
70
9
30
17
4
53
13
14
81
41
11
73
59
8
57
5
37
20
35
61
6
47
63
16
26
36
65
72
50
39
22
18
96
67
48
7

> <PUBCHEM_MMFF94_PARTIAL_CHARGES>
30
1 -0.68
10 0.45
11 0.27
13 0.28
16 0.3
17 0.3
18 0.3
19 0.57
2 -0.02
20 0.46
21 0.06
22 0.05
23 -0.15
24 -0.15
25 -0.15
26 -0.15
27 0.08
28 0.28
3 -0.57
4 -0.36
44 0.4
48 0.15
49 0.15
5 -0.81
50 0.15
51 0.15
6 -0.66
7 -0.57
8 -0.41
9 0.27

> <PUBCHEM_EFFECTIVE_ROTOR_COUNT>
7.2

> <PUBCHEM_PHARMACOPHORE_FEATURES>
10
1 1 acceptor
1 1 donor
1 3 acceptor
1 4 acceptor
1 5 cation
3 7 8 20 cation
5 2 7 8 18 20 rings
5 5 10 11 12 13 rings
6 22 23 24 25 26 27 rings
6 6 9 14 15 16 17 rings

> <PUBCHEM_HEAVY_ATOM_COUNT>
28

> <PUBCHEM_ATOM_DEF_STEREO_COUNT>
2

> <PUBCHEM_ATOM_UDEF_STEREO_COUNT>
0

> <PUBCHEM_BOND_DEF_STEREO_COUNT>
0

> <PUBCHEM_BOND_UDEF_STEREO_COUNT>
0

> <PUBCHEM_ISOTOPIC_ATOM_COUNT>
0

> <PUBCHEM_COMPONENT_COUNT>
1

> <PUBCHEM_CACTVS_TAUTO_COUNT>
1

> <PUBCHEM_CONFORMER_ID>
0198154400000001

> <PUBCHEM_MMFF94_ENERGY>
65.7176

> <PUBCHEM_FEATURE_SELFOVERLAP>
50.747

> <PUBCHEM_SHAPE_FINGERPRINT>
10871710 139 18408042892621504321
10937287 8 18123468272235958929
11049842 53 17984687923021002738
11477941 20 18127691750038727028
11513181 2 18125161519978847204
11640471 11 18188484653928556835
12107183 9 18046333138318461178
12173636 292 18197202673319867279
12788726 201 18337376211142697659
13617811 41 18126555945832447927
13911987 19 18266159679439038749
14114211 80 17984715424034027401
14187579 7 18266465484968130812
14251764 75 18051140185189732057
14294032 229 18341339916205814633
14508225 48 18054499472991337343
14556957 393 18191593166420568022
15064981 113 18200585900837606646
15163728 17 18055077553877106901
15198563 99 18269829964968641951
15289351 153 17973730462219881548
15463212 79 18408880707359591355
15475509 35 10874573030648687837
15575132 122 18336829667916809197
15876981 60 18264213676226388604
16991981 162 18413394232534985209
16992828 155 17968374537887933916
16994733 274 15576087998145755623
17818456 19 18195229032842435490
20101258 96 18194409020363819987
20642791 239 18191005976457717167
21033650 10 18263664951732236558
21860390 5 16611377920167373637
23516275 100 17619622927455534320
235170 7 17560806575866309214
245318 6 17899147022064948485
255183 451 17480569886803121791
312425 83 18269851856338113766
3610482 184 18188789322150471038
38570 142 17823155444943660990
394222 165 17828478072932249251
437795 83 18048055244416817196
469060 322 18265354939489945771
531348 171 18342750598325540238
5364581 5 11386659589095838110
550186 7 18201725045980159980
6034566 193 18195535792228664641
633830 44 17894632522475205978
6608658 132 18408040740510469732
6700243 42 17915202301739421142
7288768 16 17458640972766770496
7808743 9 18411417267625817281
9981440 41 18122056508285901673

> <PUBCHEM_SHAPE_MULTIPOLES>
532.83
11.92
5.88
1.69
22.63
3.92
0.02
5.87
-5.7
-11.16
-1.03
1.11
-0.5
-2.92

> <PUBCHEM_SHAPE_SELFOVERLAP>
1138.489

> <PUBCHEM_SHAPE_VOLUME>
296.9

> <PUBCHEM_COORDINATE_TYPE>
2
5
10

$$$$
