26745096
  -OEChem-12032416353D

 55 60  0     1  0  0  0  0  0999 V2000
    0.3159   -1.1361   -2.3473 O   0  0  0  0  0  0  0  0  0  0  0  0
   -3.2551   -0.6490   -2.5746 O   0  0  0  0  0  0  0  0  0  0  0  0
   -6.9011   -2.0381    2.3250 O   0  0  0  0  0  0  0  0  0  0  0  0
   -2.0291    0.5186   -0.9538 N   0  0  0  0  0  0  0  0  0  0  0  0
   -1.1792    3.1253    1.5761 N   0  0  0  0  0  0  0  0  0  0  0  0
   -0.3555    4.2421   -0.1750 N   0  0  0  0  0  0  0  0  0  0  0  0
    1.3680    0.3250   -1.0152 N   0  0  0  0  0  0  0  0  0  0  0  0
    1.5419   -1.7259   -2.0140 N   0  0  0  0  0  0  0  0  0  0  0  0
   -0.9557    0.9207   -1.9239 C   0  0  1  0  0  0  0  0  0  0  0  0
   -0.7558    2.4667   -1.9375 C   0  0  0  0  0  0  0  0  0  0  0  0
   -1.8758    0.9378    0.4687 C   0  0  0  0  0  0  0  0  0  0  0  0
   -0.8003    3.0093   -0.5614 C   0  0  0  0  0  0  0  0  0  0  0  0
   -1.3150    2.3029    0.4979 C   0  0  0  0  0  0  0  0  0  0  0  0
    0.2943    0.0683   -1.7187 C   0  0  0  0  0  0  0  0  0  0  0  0
   -3.0887   -0.2796   -1.4129 C   0  0  0  0  0  0  0  0  0  0  0  0
   -0.5968    4.2814    1.1201 C   0  0  0  0  0  0  0  0  0  0  0  0
   -4.0867   -0.7403   -0.4364 C   0  0  0  0  0  0  0  0  0  0  0  0
    2.1045   -0.8041   -1.2268 C   0  0  0  0  0  0  0  0  0  0  0  0
    3.4005   -0.9796   -0.6377 C   0  0  0  0  0  0  0  0  0  0  0  0
   -5.2184    0.0332   -0.1780 C   0  0  0  0  0  0  0  0  0  0  0  0
   -3.9009   -1.9498    0.2333 C   0  0  0  0  0  0  0  0  0  0  0  0
    3.9375    0.0187    0.1756 C   0  0  0  0  0  0  0  0  0  0  0  0
    4.1211   -2.1460   -0.8773 C   0  0  0  0  0  0  0  0  0  0  0  0
    5.2048   -0.1380    0.7603 C   0  0  0  0  0  0  0  0  0  0  0  0
   -6.1642   -0.4027    0.7499 C   0  0  0  0  0  0  0  0  0  0  0  0
   -4.8466   -2.3857    1.1613 C   0  0  0  0  0  0  0  0  0  0  0  0
    5.9377   -1.3240    0.5165 C   0  0  0  0  0  0  0  0  0  0  0  0
   -5.9781   -1.6121    1.4196 C   0  0  0  0  0  0  0  0  0  0  0  0
    5.3816   -2.3184   -0.3047 C   0  0  0  0  0  0  0  0  0  0  0  0
    5.7609    0.8564    1.5813 C   0  0  0  0  0  0  0  0  0  0  0  0
    7.2050   -1.4805    1.1011 C   0  0  0  0  0  0  0  0  0  0  0  0
    7.0215    0.6840    2.1539 C   0  0  0  0  0  0  0  0  0  0  0  0
    7.7422   -0.4821    1.9142 C   0  0  0  0  0  0  0  0  0  0  0  0
   -8.0345   -1.1984    2.5401 C   0  0  0  0  0  0  0  0  0  0  0  0
   -1.3025    0.6660   -2.9348 H   0  0  0  0  0  0  0  0  0  0  0  0
   -1.5747    2.9262   -2.5051 H   0  0  0  0  0  0  0  0  0  0  0  0
    0.1847    2.7324   -2.4320 H   0  0  0  0  0  0  0  0  0  0  0  0
   -1.1911    0.2269    0.9434 H   0  0  0  0  0  0  0  0  0  0  0  0
   -2.8292    0.9065    0.9993 H   0  0  0  0  0  0  0  0  0  0  0  0
   -1.4515    2.9261    2.5297 H   0  0  0  0  0  0  0  0  0  0  0  0
   -0.3775    5.1073    1.7818 H   0  0  0  0  0  0  0  0  0  0  0  0
   -5.3712    0.9775   -0.6943 H   0  0  0  0  0  0  0  0  0  0  0  0
   -3.0219   -2.5594    0.0400 H   0  0  0  0  0  0  0  0  0  0  0  0
    3.3807    0.9346    0.3689 H   0  0  0  0  0  0  0  0  0  0  0  0
    3.7351   -2.9452   -1.5051 H   0  0  0  0  0  0  0  0  0  0  0  0
   -7.0191    0.2471    0.9025 H   0  0  0  0  0  0  0  0  0  0  0  0
   -4.6962   -3.3285    1.6801 H   0  0  0  0  0  0  0  0  0  0  0  0
    5.9275   -3.2379   -0.5054 H   0  0  0  0  0  0  0  0  0  0  0  0
    5.2159    1.7764    1.7827 H   0  0  0  0  0  0  0  0  0  0  0  0
    7.7861   -2.3839    0.9275 H   0  0  0  0  0  0  0  0  0  0  0  0
    7.4402    1.4609    2.7870 H   0  0  0  0  0  0  0  0  0  0  0  0
    8.7234   -0.6156    2.3603 H   0  0  0  0  0  0  0  0  0  0  0  0
   -8.6635   -1.6902    3.2894 H   0  0  0  0  0  0  0  0  0  0  0  0
   -8.6387   -1.0975    1.6322 H   0  0  0  0  0  0  0  0  0  0  0  0
   -7.7431   -0.2275    2.9549 H   0  0  0  0  0  0  0  0  0  0  0  0
  1  8  1  0  0  0  0
  1 14  1  0  0  0  0
  2 15  2  0  0  0  0
  3 28  1  0  0  0  0
  3 34  1  0  0  0  0
  4  9  1  0  0  0  0
  4 11  1  0  0  0  0
  4 15  1  0  0  0  0
  5 13  1  0  0  0  0
  5 16  1  0  0  0  0
  5 40  1  0  0  0  0
  6 12  1  0  0  0  0
  6 16  2  0  0  0  0
  7 14  2  0  0  0  0
  7 18  1  0  0  0  0
  8 18  2  0  0  0  0
  9 10  1  0  0  0  0
  9 14  1  0  0  0  0
  9 35  1  0  0  0  0
 10 12  1  0  0  0  0
 10 36  1  0  0  0  0
 10 37  1  0  0  0  0
 11 13  1  0  0  0  0
 11 38  1  0  0  0  0
 11 39  1  0  0  0  0
 12 13  2  0  0  0  0
 15 17  1  0  0  0  0
 16 41  1  0  0  0  0
 17 20  2  0  0  0  0
 17 21  1  0  0  0  0
 18 19  1  0  0  0  0
 19 22  2  0  0  0  0
 19 23  1  0  0  0  0
 20 25  1  0  0  0  0
 20 42  1  0  0  0  0
 21 26  2  0  0  0  0
 21 43  1  0  0  0  0
 22 24  1  0  0  0  0
 22 44  1  0  0  0  0
 23 29  2  0  0  0  0
 23 45  1  0  0  0  0
 24 27  1  0  0  0  0
 24 30  2  0  0  0  0
 25 28  2  0  0  0  0
 25 46  1  0  0  0  0
 26 28  1  0  0  0  0
 26 47  1  0  0  0  0
 27 29  1  0  0  0  0
 27 31  2  0  0  0  0
 29 48  1  0  0  0  0
 30 32  1  0  0  0  0
 30 49  1  0  0  0  0
 31 33  1  0  0  0  0
 31 50  1  0  0  0  0
 32 33  2  0  0  0  0
 32 51  1  0  0  0  0
 33 52  1  0  0  0  0
 34 53  1  0  0  0  0
 34 54  1  0  0  0  0
 34 55  1  0  0  0  0
M  END
> <PUBCHEM_COMPOUND_CID>
26745096

> <PUBCHEM_CONFORMER_RMSD>
0.8

> <PUBCHEM_CONFORMER_DIVERSEORDER>
1
122
55
104
98
123
41
94
56
34
91
80
129
70
33
102
27
67
100
125
69
96
114
30
23
118
22
51
29
28
82
64
68
101
120
90
17
26
44
89
128
75
7
54
116
113
42
49
77
115
121
111
38
130
21
76
11
81
110
66
99
19
32
103
112
105
107
109
74
20
31
79
63
25
45
59
43
71
6
62
92
16
127
65
50
3
83
95
2
72
24
58
40
97
14
88
126
35
57
119
36
78
47
4
85
117
106
73
46
39
48
108
124
13
52
93
15
18
60
9
84
53
8
10
87
12
5
37
61
86

> <PUBCHEM_MMFF94_PARTIAL_CHARGES>
45
1 -0.02
10 0.18
11 0.48
12 0.05
13 -0.33
14 0.3
15 0.54
16 0.04
17 0.09
18 0.46
19 0.05
2 -0.57
20 -0.15
21 -0.15
22 -0.15
23 -0.15
25 -0.15
26 -0.15
28 0.08
29 -0.15
3 -0.36
30 -0.15
31 -0.15
32 -0.15
33 -0.15
34 0.28
4 -0.66
40 0.27
41 0.15
42 0.15
43 0.15
44 0.15
45 0.15
46 0.15
47 0.15
48 0.15
49 0.15
5 0.03
50 0.15
51 0.15
52 0.15
6 -0.57
7 -0.57
8 -0.41
9 0.48

> <PUBCHEM_EFFECTIVE_ROTOR_COUNT>
5.8

> <PUBCHEM_PHARMACOPHORE_FEATURES>
11
1 2 acceptor
1 3 acceptor
1 5 donor
3 5 6 16 cation
3 7 8 18 cation
5 1 7 8 14 18 rings
5 5 6 12 13 16 rings
6 17 20 21 25 26 28 rings
6 19 22 23 24 27 29 rings
6 24 27 30 31 32 33 rings
6 4 9 10 11 12 13 rings

> <PUBCHEM_HEAVY_ATOM_COUNT>
34

> <PUBCHEM_ATOM_DEF_STEREO_COUNT>
1

> <PUBCHEM_ATOM_UDEF_STEREO_COUNT>
0

> <PUBCHEM_BOND_DEF_STEREO_COUNT>
0

> <PUBCHEM_BOND_UDEF_STEREO_COUNT>
0

> <PUBCHEM_ISOTOPIC_ATOM_COUNT>
0

> <PUBCHEM_COMPONENT_COUNT>
1

> <PUBCHEM_CACTVS_TAUTO_COUNT>
2

> <PUBCHEM_CONFORMER_ID>
0198190800000001

> <PUBCHEM_MMFF94_ENERGY>
96.4036

> <PUBCHEM_FEATURE_SELFOVERLAP>
55.954

> <PUBCHEM_SHAPE_FINGERPRINT>
10074138 170 18124888854503020785
10483366 6 14345793859932965385
10674148 151 15791448219627952573
11297750 10 16983813470766532583
11456790 92 18261976106657193771
11646440 116 18334586749810597395
12166972 35 16877664582380138678
12218070 45 17559666420747624271
12422481 6 17704072880250605572
12758862 65 18188502387732647019
13383668 362 18053386784715484563
13782708 43 17022617602300109886
13947930 73 17750811019725704859
14068700 675 17312822680034557460
14904525 67 13110095678564745114
14931854 50 11891326569520770619
15131766 46 16128074729436157602
15183329 4 11386361522295900038
15347590 135 18408315589043947378
15721738 202 18335703862768226916
15803439 3 7853575686507239281
15840311 113 16414657986004477379
17980427 23 16415479381193569325
18393751 57 17775567545931749255
19315092 285 17458060478515652796
19611394 137 18410568501216809856
20642791 268 17203331156241335285
20721686 146 14620526601356351937
20775438 99 13408787975951449695
21344244 181 13551763988740509089
21344244 78 17916045571745089473
21756936 100 13470394574617843958
22223350 30 17535484934679713387
22956985 138 17831289875993256327
23576562 1 10591456418214909331
2747138 104 18410856547519980066
3380486 145 18202270399853957613
3383291 50 17894354410484613283
3418910 222 18333737910429876708
3552219 110 18262250988174094916
392239 28 18201432623031870166
4058900 60 9871486321790713221
4112364 45 16343146952023849259
4144715 1 17909269084104267814
469060 322 17677338199413588820
50009960 94 18046628078039373467
5104073 3 18126554627836000594
57527293 21 17060337401079273262
6009941 240 18114738232090796565
9962374 69 18194687188912440803

> <PUBCHEM_SHAPE_MULTIPOLES>
657.19
20.05
3.72
2.46
8.03
4.65
-0.11
-16.63
18.4
-2.16
0.96
-1.11
-0.31
2.81

> <PUBCHEM_SHAPE_SELFOVERLAP>
1475.545

> <PUBCHEM_SHAPE_VOLUME>
347

> <PUBCHEM_COORDINATE_TYPE>
2
5
10

$$$$
