45783938
  -OEChem-12032416403D

 70 73  0     1  0  0  0  0  0999 V2000
   -5.5150   -2.9116    1.3483 F   0  0  0  0  0  0  0  0  0  0  0  0
   -2.0793   -0.6282    0.8205 O   0  0  0  0  0  0  0  0  0  0  0  0
    1.7884    1.4155   -3.0505 O   0  0  0  0  0  0  0  0  0  0  0  0
    6.5753   -1.9505    1.7678 O   0  0  0  0  0  0  0  0  0  0  0  0
    2.0219    2.5297   -1.0282 N   0  0  0  0  0  0  0  0  0  0  0  0
   -2.8703   -0.1847    2.8657 N   0  0  0  0  0  0  0  0  0  0  0  0
   -3.7120   -1.1073    2.2730 N   0  0  0  0  0  0  0  0  0  0  0  0
    5.2055   -2.9194    0.1115 N   0  0  0  0  0  0  0  0  0  0  0  0
   -0.9525    2.7203   -0.6274 C   0  0  1  0  0  0  0  0  0  0  0  0
    0.0693    3.8708   -0.4474 C   0  0  1  0  0  0  0  0  0  0  0  0
   -1.9129    2.6639    0.5703 C   0  0  0  0  0  0  0  0  0  0  0  0
   -1.1703    2.4531    1.9032 C   0  0  2  0  0  0  0  0  0  0  0  0
   -1.7511    2.8670   -1.9263 C   0  0  0  0  0  0  0  0  0  0  0  0
    0.0228    3.3780    2.0355 C   0  0  0  0  0  0  0  0  0  0  0  0
    0.5546    4.0132    0.9761 C   0  0  0  0  0  0  0  0  0  0  0  0
    1.2718    3.6939   -1.3816 C   0  0  0  0  0  0  0  0  0  0  0  0
   -0.7515    0.9890    2.0766 C   0  0  0  0  0  0  0  0  0  0  0  0
   -2.8982    3.8544   -1.7369 C   0  0  0  0  0  0  0  0  0  0  0  0
   -2.2757    1.5099   -2.3846 C   0  0  0  0  0  0  0  0  0  0  0  0
    0.5630    3.5920    3.4221 C   0  0  0  0  0  0  0  0  0  0  0  0
   -1.9322    0.0657    1.9823 C   0  0  0  0  0  0  0  0  0  0  0  0
    2.2255    1.4637   -1.9038 C   0  0  0  0  0  0  0  0  0  0  0  0
   -3.2120   -1.3365    1.0812 C   0  0  0  0  0  0  0  0  0  0  0  0
    3.0059    0.3152   -1.3757 C   0  0  0  0  0  0  0  0  0  0  0  0
   -3.6660   -2.2020    0.0317 C   0  0  0  0  0  0  0  0  0  0  0  0
    2.8045   -0.9634   -1.8959 C   0  0  0  0  0  0  0  0  0  0  0  0
    3.9409    0.5156   -0.3602 C   0  0  0  0  0  0  0  0  0  0  0  0
    3.5380   -2.0413   -1.4006 C   0  0  0  0  0  0  0  0  0  0  0  0
    4.6744   -0.5624    0.1351 C   0  0  0  0  0  0  0  0  0  0  0  0
   -4.8171   -2.9705    0.2045 C   0  0  0  0  0  0  0  0  0  0  0  0
   -2.9520   -2.2746   -1.1644 C   0  0  0  0  0  0  0  0  0  0  0  0
    4.4730   -1.8408   -0.3850 C   0  0  0  0  0  0  0  0  0  0  0  0
   -5.2543   -3.8115   -0.8187 C   0  0  0  0  0  0  0  0  0  0  0  0
   -3.3892   -3.1159   -2.1876 C   0  0  0  0  0  0  0  0  0  0  0  0
   -4.5403   -3.8843   -2.0149 C   0  0  0  0  0  0  0  0  0  0  0  0
    6.1788   -2.9135    1.1196 C   0  0  0  0  0  0  0  0  0  0  0  0
    6.7384   -4.2925    1.3647 C   0  0  0  0  0  0  0  0  0  0  0  0
   -0.4103    1.7676   -0.6637 H   0  0  0  0  0  0  0  0  0  0  0  0
   -0.4050    4.8261   -0.7051 H   0  0  0  0  0  0  0  0  0  0  0  0
   -2.7014    1.9204    0.4264 H   0  0  0  0  0  0  0  0  0  0  0  0
   -2.4315    3.6263    0.6809 H   0  0  0  0  0  0  0  0  0  0  0  0
   -1.8852    2.7044    2.7001 H   0  0  0  0  0  0  0  0  0  0  0  0
   -1.1087    3.2434   -2.7289 H   0  0  0  0  0  0  0  0  0  0  0  0
    1.3813    4.7023    1.1374 H   0  0  0  0  0  0  0  0  0  0  0  0
    0.9714    3.6569   -2.4321 H   0  0  0  0  0  0  0  0  0  0  0  0
    1.9542    4.5469   -1.2822 H   0  0  0  0  0  0  0  0  0  0  0  0
   -0.2928    0.8366    3.0611 H   0  0  0  0  0  0  0  0  0  0  0  0
    0.0037    0.6980    1.3364 H   0  0  0  0  0  0  0  0  0  0  0  0
   -3.7163    3.4537   -1.1293 H   0  0  0  0  0  0  0  0  0  0  0  0
   -3.3394    4.0844   -2.7147 H   0  0  0  0  0  0  0  0  0  0  0  0
   -2.5691    4.8088   -1.3152 H   0  0  0  0  0  0  0  0  0  0  0  0
   -2.9697    1.0679   -1.6632 H   0  0  0  0  0  0  0  0  0  0  0  0
   -1.4530    0.8039   -2.5414 H   0  0  0  0  0  0  0  0  0  0  0  0
   -2.8099    1.6079   -3.3360 H   0  0  0  0  0  0  0  0  0  0  0  0
    0.9707    2.6611    3.8272 H   0  0  0  0  0  0  0  0  0  0  0  0
    1.3649    4.3378    3.4414 H   0  0  0  0  0  0  0  0  0  0  0  0
   -0.2303    3.9452    4.0887 H   0  0  0  0  0  0  0  0  0  0  0  0
    2.4066    2.4969   -0.0907 H   0  0  0  0  0  0  0  0  0  0  0  0
    2.0770   -1.1405   -2.6837 H   0  0  0  0  0  0  0  0  0  0  0  0
    4.1520    1.4987    0.0497 H   0  0  0  0  0  0  0  0  0  0  0  0
    3.3697   -3.0325   -1.8142 H   0  0  0  0  0  0  0  0  0  0  0  0
    5.3851   -0.3284    0.9154 H   0  0  0  0  0  0  0  0  0  0  0  0
   -2.0503   -1.6926   -1.3370 H   0  0  0  0  0  0  0  0  0  0  0  0
   -6.1507   -4.4097   -0.6841 H   0  0  0  0  0  0  0  0  0  0  0  0
   -2.8334   -3.1727   -3.1191 H   0  0  0  0  0  0  0  0  0  0  0  0
   -4.8808   -4.5392   -2.8116 H   0  0  0  0  0  0  0  0  0  0  0  0
    5.0003   -3.8187   -0.3192 H   0  0  0  0  0  0  0  0  0  0  0  0
    7.5141   -4.2464    2.1341 H   0  0  0  0  0  0  0  0  0  0  0  0
    5.9408   -4.9598    1.7029 H   0  0  0  0  0  0  0  0  0  0  0  0
    7.1770   -4.6845    0.4427 H   0  0  0  0  0  0  0  0  0  0  0  0
  1 30  1  0  0  0  0
  2 21  1  0  0  0  0
  2 23  1  0  0  0  0
  3 22  2  0  0  0  0
  4 36  2  0  0  0  0
  5 16  1  0  0  0  0
  5 22  1  0  0  0  0
  5 58  1  0  0  0  0
  6  7  1  0  0  0  0
  6 21  2  0  0  0  0
  7 23  2  0  0  0  0
  8 32  1  0  0  0  0
  8 36  1  0  0  0  0
  8 67  1  0  0  0  0
  9 10  1  0  0  0  0
  9 11  1  0  0  0  0
  9 13  1  0  0  0  0
  9 38  1  0  0  0  0
 10 15  1  0  0  0  0
 10 16  1  0  0  0  0
 10 39  1  0  0  0  0
 11 12  1  0  0  0  0
 11 40  1  0  0  0  0
 11 41  1  0  0  0  0
 12 14  1  0  0  0  0
 12 17  1  0  0  0  0
 12 42  1  0  0  0  0
 13 18  1  0  0  0  0
 13 19  1  0  0  0  0
 13 43  1  0  0  0  0
 14 15  2  0  0  0  0
 14 20  1  0  0  0  0
 15 44  1  0  0  0  0
 16 45  1  0  0  0  0
 16 46  1  0  0  0  0
 17 21  1  0  0  0  0
 17 47  1  0  0  0  0
 17 48  1  0  0  0  0
 18 49  1  0  0  0  0
 18 50  1  0  0  0  0
 18 51  1  0  0  0  0
 19 52  1  0  0  0  0
 19 53  1  0  0  0  0
 19 54  1  0  0  0  0
 20 55  1  0  0  0  0
 20 56  1  0  0  0  0
 20 57  1  0  0  0  0
 22 24  1  0  0  0  0
 23 25  1  0  0  0  0
 24 26  2  0  0  0  0
 24 27  1  0  0  0  0
 25 30  1  0  0  0  0
 25 31  2  0  0  0  0
 26 28  1  0  0  0  0
 26 59  1  0  0  0  0
 27 29  2  0  0  0  0
 27 60  1  0  0  0  0
 28 32  2  0  0  0  0
 28 61  1  0  0  0  0
 29 32  1  0  0  0  0
 29 62  1  0  0  0  0
 30 33  2  0  0  0  0
 31 34  1  0  0  0  0
 31 63  1  0  0  0  0
 33 35  1  0  0  0  0
 33 64  1  0  0  0  0
 34 35  2  0  0  0  0
 34 65  1  0  0  0  0
 35 66  1  0  0  0  0
 36 37  1  0  0  0  0
 37 68  1  0  0  0  0
 37 69  1  0  0  0  0
 37 70  1  0  0  0  0
M  END
> <PUBCHEM_COMPOUND_CID>
45783938

> <PUBCHEM_CONFORMER_RMSD>
1.2

> <PUBCHEM_CONFORMER_DIVERSEORDER>
1
47
127
192
13
155
96
14
54
84
59
121
115
207
142
99
227
170
123
71
88
116
90
102
124
215
83
2
126
75
12
197
209
146
156
177
50
186
4
11
120
80
145
158
92
69
153
149
62
3
48
105
76
128
7
85
214
52
86
26
188
182
178
78
198
172
24
5
193
202
222
104
18
201
132
195
212
110
17
109
164
171
28
136
55
45
204
133
226
180
211
74
184
173
166
9
60
65
138
33
49
200
129
42
203
57
191
131
38
27
44
179
15
81
98
91
35
143
101
130
58
82
205
229
163
228
160
51
168
194
187
148
77
22
23
208
217
122
93
97
106
87
46
165
61
40
118
8
151
37
147
134
95
139
181
21
206
183
10
66
114
174
213
216
185
119
20
32
169
31
225
135
161
72
112
157
41
144
220
64
150
152
167
224
25
103
73
79
108
199
141
140
29
162
36
6
100
218
190
30
117
56
63
221
34
70
39
210
94
175
43
196
176
89
107
219
125
111
189
154
67
113
159
19
68
16
137
53
223

> <PUBCHEM_MMFF94_PARTIAL_CHARGES>
43
1 -0.19
10 0.14
12 0.14
14 -0.28
15 -0.29
16 0.3
17 0.18
2 -0.28
20 0.14
21 0.3
22 0.54
23 0.43
24 0.09
25 0.05
26 -0.15
27 -0.15
28 -0.15
29 -0.15
3 -0.57
30 0.19
31 -0.15
32 0.12
33 -0.15
34 -0.15
35 -0.15
36 0.57
37 0.06
4 -0.57
44 0.15
5 -0.73
58 0.37
59 0.15
6 -0.34
60 0.15
61 0.15
62 0.15
63 0.15
64 0.15
65 0.15
66 0.15
67 0.37
7 -0.34
8 -0.55

> <PUBCHEM_EFFECTIVE_ROTOR_COUNT>
10.8

> <PUBCHEM_PHARMACOPHORE_FEATURES>
9
1 3 acceptor
1 4 acceptor
1 5 donor
1 8 donor
3 13 18 19 hydrophobe
5 2 6 7 21 23 rings
6 24 26 27 28 29 32 rings
6 25 30 31 33 34 35 rings
6 9 10 11 12 14 15 rings

> <PUBCHEM_HEAVY_ATOM_COUNT>
37

> <PUBCHEM_ATOM_DEF_STEREO_COUNT>
3

> <PUBCHEM_ATOM_UDEF_STEREO_COUNT>
0

> <PUBCHEM_BOND_DEF_STEREO_COUNT>
0

> <PUBCHEM_BOND_UDEF_STEREO_COUNT>
0

> <PUBCHEM_ISOTOPIC_ATOM_COUNT>
0

> <PUBCHEM_COMPONENT_COUNT>
1

> <PUBCHEM_CACTVS_TAUTO_COUNT>
7

> <PUBCHEM_CONFORMER_ID>
02BA9B8200000001

> <PUBCHEM_MMFF94_ENERGY>
83.633

> <PUBCHEM_FEATURE_SELFOVERLAP>
45.672

> <PUBCHEM_SHAPE_FINGERPRINT>
10319688 77 18334574646576744556
10462674 125 18200295681160411238
10622 236 18334018272445223370
10842051 180 18190748725413554092
11135609 149 18191294082547382981
11227150 75 18197477696898094622
11285246 1 17749095691164531663
11552529 35 18128270995261462532
12156800 1 17607766669853962021
12977781 61 18125689457349061977
13165053 137 16749584350030882579
14674994 50 18192427476697747748
15119646 57 9943508744320601554
18603816 31 17535456029808123726
19315092 285 17127596924385122663
20775530 9 18191894338344319244
21458453 9 14261357998006583167
25222932 49 15331813064588037703
3383291 50 18050285864881017245
474144 1 17770513228601978087
5080951 261 18191584151447918760
5223283 242 18189608510280254079
57527452 28 17903349304225430205
86090 222 16398612068847222411

> <PUBCHEM_SHAPE_MULTIPOLES>
716.64
12.55
7.38
3.23
14.98
0.61
0.75
-24.28
2.63
-2.62
-0.09
-1.03
1.75
-2.28

> <PUBCHEM_SHAPE_SELFOVERLAP>
1532.231

> <PUBCHEM_SHAPE_VOLUME>
398.4

> <PUBCHEM_COORDINATE_TYPE>
2
5
10

$$$$
