75537015
  -OEChem-12032416313D

 53 56  0     1  0  0  0  0  0999 V2000
    2.6576   -2.5961    0.7586 O   0  0  0  0  0  0  0  0  0  0  0  0
   -5.9183    1.6191    0.8777 O   0  0  0  0  0  0  0  0  0  0  0  0
   -4.1234   -1.4092   -0.2687 O   0  0  0  0  0  0  0  0  0  0  0  0
    2.6077   -0.3075    0.1924 N   0  0  0  0  0  0  0  0  0  0  0  0
    0.6609   -1.4084    0.4088 N   0  0  0  0  0  0  0  0  0  0  0  0
   -1.8816   -0.9041   -0.6039 N   0  0  0  0  0  0  0  0  0  0  0  0
    0.2762   -0.0270    0.1781 C   0  0  1  0  0  0  0  0  0  0  0  0
    4.0165   -0.0054    0.1131 C   0  0  0  0  0  0  0  0  0  0  0  0
    1.5914    0.6621   -0.1771 C   0  0  0  0  0  0  0  0  0  0  0  0
   -0.7994    0.0530   -0.9021 C   0  0  0  0  0  0  0  0  0  0  0  0
    4.4021    1.0353    1.1670 C   0  0  0  0  0  0  0  0  0  0  0  0
    4.3918    0.4626   -1.2954 C   0  0  0  0  0  0  0  0  0  0  0  0
   -0.3623   -2.4151    0.6261 C   0  0  0  0  0  0  0  0  0  0  0  0
    2.0512   -1.5671    0.4910 C   0  0  0  0  0  0  0  0  0  0  0  0
   -1.4417   -2.2990   -0.4477 C   0  0  0  0  0  0  0  0  0  0  0  0
    5.8780    1.4132    1.0711 C   0  0  0  0  0  0  0  0  0  0  0  0
    5.8682    0.8396   -1.3876 C   0  0  0  0  0  0  0  0  0  0  0  0
    6.2509    1.8756   -0.3345 C   0  0  0  0  0  0  0  0  0  0  0  0
   -3.2337   -0.5850   -0.4944 C   0  0  0  0  0  0  0  0  0  0  0  0
   -3.5974    0.8613   -0.6642 C   0  0  0  0  0  0  0  0  0  0  0  0
   -3.4985    1.5889    0.6764 C   0  0  0  0  0  0  0  0  0  0  0  0
   -4.9870    1.0071   -1.2839 C   0  0  0  0  0  0  0  0  0  0  0  0
   -4.7064    1.3173    1.5660 C   0  0  0  0  0  0  0  0  0  0  0  0
   -6.1025    0.7888   -0.2669 C   0  0  0  0  0  0  0  0  0  0  0  0
   -0.1105    0.3542    1.1319 H   0  0  0  0  0  0  0  0  0  0  0  0
    4.5689   -0.9293    0.3280 H   0  0  0  0  0  0  0  0  0  0  0  0
    1.6608    0.8625   -1.2505 H   0  0  0  0  0  0  0  0  0  0  0  0
    1.7137    1.5952    0.3783 H   0  0  0  0  0  0  0  0  0  0  0  0
   -1.1226    1.0890   -0.9765 H   0  0  0  0  0  0  0  0  0  0  0  0
   -0.3961   -0.2354   -1.8808 H   0  0  0  0  0  0  0  0  0  0  0  0
    4.1865    0.6501    2.1712 H   0  0  0  0  0  0  0  0  0  0  0  0
    3.8048    1.9476    1.0507 H   0  0  0  0  0  0  0  0  0  0  0  0
    3.8024    1.3407   -1.5858 H   0  0  0  0  0  0  0  0  0  0  0  0
    4.1655   -0.3228   -2.0267 H   0  0  0  0  0  0  0  0  0  0  0  0
   -0.7891   -2.2267    1.6177 H   0  0  0  0  0  0  0  0  0  0  0  0
    0.0905   -3.4112    0.6315 H   0  0  0  0  0  0  0  0  0  0  0  0
   -1.0448   -2.6153   -1.4198 H   0  0  0  0  0  0  0  0  0  0  0  0
   -2.2841   -2.9538   -0.2049 H   0  0  0  0  0  0  0  0  0  0  0  0
    6.4939    0.5480    1.3457 H   0  0  0  0  0  0  0  0  0  0  0  0
    6.1034    2.2068    1.7924 H   0  0  0  0  0  0  0  0  0  0  0  0
    6.0874    1.2316   -2.3872 H   0  0  0  0  0  0  0  0  0  0  0  0
    6.4827   -0.0594   -1.2554 H   0  0  0  0  0  0  0  0  0  0  0  0
    7.3278    2.0719   -0.3846 H   0  0  0  0  0  0  0  0  0  0  0  0
    5.7426    2.8228   -0.5534 H   0  0  0  0  0  0  0  0  0  0  0  0
   -2.9360    1.3273   -1.3966 H   0  0  0  0  0  0  0  0  0  0  0  0
   -2.5793    1.3290    1.2126 H   0  0  0  0  0  0  0  0  0  0  0  0
   -3.4603    2.6665    0.4712 H   0  0  0  0  0  0  0  0  0  0  0  0
   -5.0782    2.0317   -1.6684 H   0  0  0  0  0  0  0  0  0  0  0  0
   -5.1195    0.3306   -2.1363 H   0  0  0  0  0  0  0  0  0  0  0  0
   -4.6611    1.9562    2.4539 H   0  0  0  0  0  0  0  0  0  0  0  0
   -4.7292    0.2779    1.9131 H   0  0  0  0  0  0  0  0  0  0  0  0
   -7.0607    1.0663   -0.7193 H   0  0  0  0  0  0  0  0  0  0  0  0
   -6.1986   -0.2538    0.0503 H   0  0  0  0  0  0  0  0  0  0  0  0
  1 14  2  0  0  0  0
  2 23  1  0  0  0  0
  2 24  1  0  0  0  0
  3 19  2  0  0  0  0
  4  8  1  0  0  0  0
  4  9  1  0  0  0  0
  4 14  1  0  0  0  0
  5  7  1  0  0  0  0
  5 13  1  0  0  0  0
  5 14  1  0  0  0  0
  6 10  1  0  0  0  0
  6 15  1  0  0  0  0
  6 19  1  0  0  0  0
  7  9  1  0  0  0  0
  7 10  1  0  0  0  0
  7 25  1  0  0  0  0
  8 11  1  0  0  0  0
  8 12  1  0  0  0  0
  8 26  1  0  0  0  0
  9 27  1  0  0  0  0
  9 28  1  0  0  0  0
 10 29  1  0  0  0  0
 10 30  1  0  0  0  0
 11 16  1  0  0  0  0
 11 31  1  0  0  0  0
 11 32  1  0  0  0  0
 12 17  1  0  0  0  0
 12 33  1  0  0  0  0
 12 34  1  0  0  0  0
 13 15  1  0  0  0  0
 13 35  1  0  0  0  0
 13 36  1  0  0  0  0
 15 37  1  0  0  0  0
 15 38  1  0  0  0  0
 16 18  1  0  0  0  0
 16 39  1  0  0  0  0
 16 40  1  0  0  0  0
 17 18  1  0  0  0  0
 17 41  1  0  0  0  0
 17 42  1  0  0  0  0
 18 43  1  0  0  0  0
 18 44  1  0  0  0  0
 19 20  1  0  0  0  0
 20 21  1  0  0  0  0
 20 22  1  0  0  0  0
 20 45  1  0  0  0  0
 21 23  1  0  0  0  0
 21 46  1  0  0  0  0
 21 47  1  0  0  0  0
 22 24  1  0  0  0  0
 22 48  1  0  0  0  0
 22 49  1  0  0  0  0
 23 50  1  0  0  0  0
 23 51  1  0  0  0  0
 24 52  1  0  0  0  0
 24 53  1  0  0  0  0
M  END
> <PUBCHEM_COMPOUND_CID>
75537015

> <PUBCHEM_CONFORMER_RMSD>
0.8

> <PUBCHEM_CONFORMER_DIVERSEORDER>
1
31
21
70
43
33
67
46
26
64
18
44
58
22
54
12
4
55
62
61
59
11
36
34
9
15
63
48
53
6
71
41
50
69
29
40
2
45
13
66
68
60
5
35
56
57
51
42
7
32
73
52
19
28
8
49
10
27
39
23
37
25
24
20
72
3
47
65
16
17
30
38
14

> <PUBCHEM_MMFF94_PARTIAL_CHARGES>
17
1 -0.57
10 0.3
13 0.3
14 0.69
15 0.3
19 0.57
2 -0.56
20 0.06
23 0.28
24 0.28
3 -0.57
4 -0.66
5 -0.66
6 -0.66
7 0.3
8 0.3
9 0.3

> <PUBCHEM_EFFECTIVE_ROTOR_COUNT>
6.6

> <PUBCHEM_PHARMACOPHORE_FEATURES>
7
1 1 acceptor
1 2 acceptor
1 3 acceptor
5 4 5 7 9 14 rings
6 2 20 21 22 23 24 rings
6 5 6 7 10 13 15 rings
6 8 11 12 16 17 18 rings

> <PUBCHEM_HEAVY_ATOM_COUNT>
24

> <PUBCHEM_ATOM_DEF_STEREO_COUNT>
1

> <PUBCHEM_ATOM_UDEF_STEREO_COUNT>
0

> <PUBCHEM_BOND_DEF_STEREO_COUNT>
0

> <PUBCHEM_BOND_UDEF_STEREO_COUNT>
0

> <PUBCHEM_ISOTOPIC_ATOM_COUNT>
0

> <PUBCHEM_COMPONENT_COUNT>
1

> <PUBCHEM_CACTVS_TAUTO_COUNT>
1

> <PUBCHEM_CONFORMER_ID>
04809A7700000001

> <PUBCHEM_MMFF94_ENERGY>
48.4059

> <PUBCHEM_FEATURE_SELFOVERLAP>
35.622

> <PUBCHEM_SHAPE_FINGERPRINT>
10 15 17458067075052610573
10493431 412 18334012800218720087
106641 1 18187654618030195641
10670039 82 18130230358904424808
11089746 13 17989197149392147008
12166972 35 13182730477050707033
12236239 1 18272367547278788989
12390115 104 18412552028303489883
12422481 6 17313373509927775886
12596602 18 15719111361809756144
12788726 201 17560524984440341433
13540713 5 18264183916298682914
13631057 29 18264765640260640303
13668630 136 13110966439654034740
13782708 43 11603084086341964088
13885169 86 18188217614432263444
14251752 14 13254808914623022523
14739800 52 17987215825149124968
14790565 3 18411419470970173244
14840074 17 18113624486160926717
14931854 50 17989200417978927449
15081414 286 18334579001578617820
15183329 4 16343710910936141352
15188451 53 11314306178477982732
15348495 7 13984664775916636452
1601671 61 18334010605901908100
18222031 100 9727636107516542702
19377110 9 17603866736390617475
200 152 9871746893003156319
20281389 69 18334289859890176036
21033648 29 17560792286430819040
21033650 10 16128381428787647603
21150785 3 15697994175956841284
22061861 79 14189576329821284388
22224240 67 18040156219394937339
23198884 109 17275107223783958981
23559900 14 17917704755617633848
25147074 1 18336247003472882914
2838139 119 18201994400279968968
293599 30 18410011039572196542
300161 21 18335695031745176149
312425 54 13623523528779862989
3472631 163 18411421756478636540
34797466 226 16988842821277064700
3680242 22 18113611301391789512
38570 142 18271259234867494954
397830 11 13551474808550018044
4098825 35 15698013911637203113
4340502 62 16225766298455623496
5104073 3 18333728009416884154
5283173 99 17917716803275244728
543368 44 18343863325282517697
59682541 35 18337966662367132827
59682541 52 17274830121379076092
7495541 125 14345804863290972388
960060 61 14692572135083848732

> <PUBCHEM_SHAPE_MULTIPOLES>
461.36
15.88
2.32
1.25
2.97
1.33
0
-11.73
0.46
-0.12
-0.53
0.2
-0.38
-0.82

> <PUBCHEM_SHAPE_SELFOVERLAP>
964.747

> <PUBCHEM_SHAPE_VOLUME>
256.9

> <PUBCHEM_COORDINATE_TYPE>
2
5
10

$$$$
