26744780
  -OEChem-12032416373D

 50 54  0     1  0  0  0  0  0999 V2000
   -7.1837   -1.4923   -1.2933 F   0  0  0  0  0  0  0  0  0  0  0  0
   -7.1900    0.6452   -0.8952 F   0  0  0  0  0  0  0  0  0  0  0  0
   -7.5051   -0.7692    0.7260 F   0  0  0  0  0  0  0  0  0  0  0  0
    0.8396   -1.2941    1.0792 O   0  0  0  0  0  0  0  0  0  0  0  0
    3.5369   -2.1804   -0.6217 O   0  0  0  0  0  0  0  0  0  0  0  0
    4.0977   -3.9562    1.7364 O   0  0  0  0  0  0  0  0  0  0  0  0
    2.7012    1.0436   -0.7804 N   0  0  2  0  0  0  0  0  0  0  0  0
    1.5336    4.5794   -0.7278 N   0  0  0  0  0  0  0  0  0  0  0  0
    1.7302    4.3854    1.4912 N   0  0  0  0  0  0  0  0  0  0  0  0
   -0.3341    0.4339    0.2711 N   0  0  0  0  0  0  0  0  0  0  0  0
   -0.4927   -1.7221    1.0200 N   0  0  0  0  0  0  0  0  0  0  0  0
    2.2019    0.6905    0.5835 C   0  0  1  0  0  0  0  0  0  0  0  0
    2.2921    1.9106    1.5687 C   0  0  0  0  0  0  0  0  0  0  0  0
    1.9997    2.1646   -1.4411 C   0  0  0  0  0  0  0  0  0  0  0  0
    1.8436    3.2772   -0.4794 C   0  0  0  0  0  0  0  0  0  0  0  0
    1.9538    3.1816    0.8857 C   0  0  0  0  0  0  0  0  0  0  0  0
    2.8453   -0.0987   -1.6760 C   0  0  0  0  0  0  0  0  0  0  0  0
    0.8448   -0.0150    0.6210 C   0  0  0  0  0  0  0  0  0  0  0  0
    3.9383   -1.0306   -1.2246 C   0  0  0  0  0  0  0  0  0  0  0  0
    1.4773    5.2078    0.4918 C   0  0  0  0  0  0  0  0  0  0  0  0
    5.3111   -0.9729   -1.2900 C   0  0  0  0  0  0  0  0  0  0  0  0
   -1.1226   -0.6485    0.5337 C   0  0  0  0  0  0  0  0  0  0  0  0
    4.6661   -2.8644   -0.2988 C   0  0  0  0  0  0  0  0  0  0  0  0
    5.7838   -2.1638   -0.6888 C   0  0  0  0  0  0  0  0  0  0  0  0
   -2.5376   -0.6241    0.3001 C   0  0  0  0  0  0  0  0  0  0  0  0
    4.4734   -4.1580    0.3718 C   0  0  0  0  0  0  0  0  0  0  0  0
   -3.1409    0.5265   -0.2079 C   0  0  0  0  0  0  0  0  0  0  0  0
   -3.3104   -1.7509    0.5804 C   0  0  0  0  0  0  0  0  0  0  0  0
   -4.5168    0.5502   -0.4355 C   0  0  0  0  0  0  0  0  0  0  0  0
   -4.6863   -1.7273    0.3530 C   0  0  0  0  0  0  0  0  0  0  0  0
   -5.2895   -0.5768   -0.1550 C   0  0  0  0  0  0  0  0  0  0  0  0
   -6.7606   -0.5514   -0.3984 C   0  0  0  0  0  0  0  0  0  0  0  0
    2.9089   -0.0340    1.0122 H   0  0  0  0  0  0  0  0  0  0  0  0
    3.3235    1.9940    1.9349 H   0  0  0  0  0  0  0  0  0  0  0  0
    1.6411    1.7599    2.4371 H   0  0  0  0  0  0  0  0  0  0  0  0
    1.0136    1.8505   -1.8035 H   0  0  0  0  0  0  0  0  0  0  0  0
    2.5841    2.5095   -2.3022 H   0  0  0  0  0  0  0  0  0  0  0  0
    3.1343    0.2480   -2.6774 H   0  0  0  0  0  0  0  0  0  0  0  0
    1.9032   -0.6448   -1.8050 H   0  0  0  0  0  0  0  0  0  0  0  0
    1.3712    5.0051   -1.6310 H   0  0  0  0  0  0  0  0  0  0  0  0
    1.2476    6.2602    0.5790 H   0  0  0  0  0  0  0  0  0  0  0  0
    5.8995   -0.1733   -1.7168 H   0  0  0  0  0  0  0  0  0  0  0  0
    6.8116   -2.4704   -0.5574 H   0  0  0  0  0  0  0  0  0  0  0  0
    3.6843   -4.7351   -0.1208 H   0  0  0  0  0  0  0  0  0  0  0  0
    5.3954   -4.7478    0.3552 H   0  0  0  0  0  0  0  0  0  0  0  0
   -2.5658    1.4205   -0.4365 H   0  0  0  0  0  0  0  0  0  0  0  0
   -2.8757   -2.6651    0.9767 H   0  0  0  0  0  0  0  0  0  0  0  0
   -4.9674    1.4559   -0.8315 H   0  0  0  0  0  0  0  0  0  0  0  0
   -5.2806   -2.6100    0.5743 H   0  0  0  0  0  0  0  0  0  0  0  0
    3.9813   -4.8374    2.1310 H   0  0  0  0  0  0  0  0  0  0  0  0
  1 32  1  0  0  0  0
  2 32  1  0  0  0  0
  3 32  1  0  0  0  0
  4 11  1  0  0  0  0
  4 18  1  0  0  0  0
  5 19  1  0  0  0  0
  5 23  1  0  0  0  0
  6 26  1  0  0  0  0
  6 50  1  0  0  0  0
  7 12  1  0  0  0  0
  7 14  1  0  0  0  0
  7 17  1  0  0  0  0
  8 15  1  0  0  0  0
  8 20  1  0  0  0  0
  8 40  1  0  0  0  0
  9 16  1  0  0  0  0
  9 20  2  0  0  0  0
 10 18  2  0  0  0  0
 10 22  1  0  0  0  0
 11 22  2  0  0  0  0
 12 13  1  0  0  0  0
 12 18  1  0  0  0  0
 12 33  1  0  0  0  0
 13 16  1  0  0  0  0
 13 34  1  0  0  0  0
 13 35  1  0  0  0  0
 14 15  1  0  0  0  0
 14 36  1  0  0  0  0
 14 37  1  0  0  0  0
 15 16  2  0  0  0  0
 17 19  1  0  0  0  0
 17 38  1  0  0  0  0
 17 39  1  0  0  0  0
 19 21  2  0  0  0  0
 20 41  1  0  0  0  0
 21 24  1  0  0  0  0
 21 42  1  0  0  0  0
 22 25  1  0  0  0  0
 23 24  2  0  0  0  0
 23 26  1  0  0  0  0
 24 43  1  0  0  0  0
 25 27  2  0  0  0  0
 25 28  1  0  0  0  0
 26 44  1  0  0  0  0
 26 45  1  0  0  0  0
 27 29  1  0  0  0  0
 27 46  1  0  0  0  0
 28 30  2  0  0  0  0
 28 47  1  0  0  0  0
 29 31  2  0  0  0  0
 29 48  1  0  0  0  0
 30 31  1  0  0  0  0
 30 49  1  0  0  0  0
 31 32  1  0  0  0  0
M  END
> <PUBCHEM_COMPOUND_CID>
26744780

> <PUBCHEM_CONFORMER_RMSD>
1

> <PUBCHEM_CONFORMER_DIVERSEORDER>
4
44
91
54
76
80
88
26
12
55
27
51
38
71
2
41
49
14
59
36
81
48
42
83
40
66
28
34
87
37
74
25
39
60
77
78
79
18
56
8
30
22
50
64
86
68
13
6
46
75
90
21
52
72
69
62
47
58
31
70
67
73
5
61
35
65
89
33
29
53
43
15
85
24
32
3
7
63
57
10
20
84
17
1
45
19
23
82
9
11
16

> <PUBCHEM_MMFF94_PARTIAL_CHARGES>
41
1 -0.34
10 -0.57
11 -0.41
12 0.45
13 0.18
14 0.45
15 -0.33
16 0.05
17 0.45
18 0.3
19 -0.04
2 -0.34
20 0.04
21 -0.15
22 0.46
23 -0.04
24 -0.15
25 0.05
26 0.46
27 -0.15
28 -0.15
29 -0.15
3 -0.34
30 -0.15
31 -0.14
32 1.16
4 -0.02
40 0.27
41 0.15
42 0.15
43 0.15
46 0.15
47 0.15
48 0.15
49 0.15
5 -0.28
50 0.4
6 -0.68
7 -0.81
8 0.03
9 -0.57

> <PUBCHEM_EFFECTIVE_ROTOR_COUNT>
6.8

> <PUBCHEM_PHARMACOPHORE_FEATURES>
12
1 5 acceptor
1 6 acceptor
1 6 donor
1 7 cation
1 8 donor
3 10 11 22 cation
3 8 9 20 cation
5 4 10 11 18 22 rings
5 5 19 21 23 24 rings
5 8 9 15 16 20 rings
6 25 27 28 29 30 31 rings
6 7 12 13 14 15 16 rings

> <PUBCHEM_HEAVY_ATOM_COUNT>
32

> <PUBCHEM_ATOM_DEF_STEREO_COUNT>
1

> <PUBCHEM_ATOM_UDEF_STEREO_COUNT>
0

> <PUBCHEM_BOND_DEF_STEREO_COUNT>
0

> <PUBCHEM_BOND_UDEF_STEREO_COUNT>
0

> <PUBCHEM_ISOTOPIC_ATOM_COUNT>
0

> <PUBCHEM_COMPONENT_COUNT>
1

> <PUBCHEM_CACTVS_TAUTO_COUNT>
2

> <PUBCHEM_CONFORMER_ID>
019817CC00000004

> <PUBCHEM_MMFF94_ENERGY>
49.4459

> <PUBCHEM_FEATURE_SELFOVERLAP>
60.998

> <PUBCHEM_SHAPE_FINGERPRINT>
10670039 82 17240481369363385079
10864689 126 18046612431779274949
10930396 42 18266999740930545282
11093857 51 17827089711642887092
11115154 58 18338809904952513312
11135609 149 18268967848440353022
11386260 185 18338505422606417701
11720765 8 18412263939230403560
12107698 1 18272934908369533661
12166972 35 18273496767121583233
12633046 712 17971787486441209867
12788726 201 18121510059776503746
13004483 165 18267863892207604142
13533116 47 18341054116118136301
13631057 29 18265905649461844942
13835254 42 18268710503223147472
13955234 65 18196943377148156488
14068700 675 18059855017645860299
14150023 79 18196085767191041592
15183329 4 18041566844809812366
16988056 13 18409447024567814316
18681886 176 18341888580602624331
19311894 1 18051699836940267153
20775438 99 18122891295135906415
21133410 127 17825381036757319709
2132832 1 17846510209340308209
21968339 14 17986391302781768769
221357 26 18334296448564738989
23559900 14 18410572929027586835
249057 3 18342460348350718775
3004659 81 17417820568851765735
340366 18 18059855094829093559
345986 75 17971183743294962866
44317340 157 18267870661212991727
463206 1 18335709338567153994
59521099 67 18201715163535711945
6004065 56 18411699911456156810
6086070 43 18338790114476488277
9962374 69 18342167921502912703
9981440 41 17619907705049871920

> <PUBCHEM_SHAPE_MULTIPOLES>
594.21
15.47
5.73
1.38
30.75
6.37
-0.01
-14.22
4.56
-9.96
-1.72
-1.06
0.11
0.2

> <PUBCHEM_SHAPE_SELFOVERLAP>
1314.376

> <PUBCHEM_SHAPE_VOLUME>
322.9

> <PUBCHEM_COORDINATE_TYPE>
2
5
10

$$$$
