28961532
  -OEChem-12032416293D

 47 49  0     1  0  0  0  0  0999 V2000
    6.2063   -1.4064    1.7346 Cl  0  0  0  0  0  0  0  0  0  0  0  0
    6.8531    0.6219   -0.3282 F   0  0  0  0  0  0  0  0  0  0  0  0
   -1.2958    1.6648    0.6369 O   0  0  0  0  0  0  0  0  0  0  0  0
   -3.5880    1.4996   -1.2832 O   0  0  0  0  0  0  0  0  0  0  0  0
   -1.4662    4.4691    0.7466 O   0  0  0  0  0  0  0  0  0  0  0  0
    1.1432   -2.0248    0.1339 O   0  0  0  0  0  0  0  0  0  0  0  0
   -3.6021   -1.1044   -0.0790 N   0  0  0  0  0  0  0  0  0  0  0  0
    0.5416    0.0295   -0.7616 N   0  0  0  0  0  0  0  0  0  0  0  0
   -3.0517    0.0581    0.6019 C   0  0  1  0  0  0  0  0  0  0  0  0
   -1.5323    0.2456    0.5031 C   0  0  1  0  0  0  0  0  0  0  0  0
   -3.5938    1.4004    0.1350 C   0  0  1  0  0  0  0  0  0  0  0  0
   -2.5613    2.3456    0.7378 C   0  0  2  0  0  0  0  0  0  0  0  0
   -5.0535   -1.2040    0.0708 C   0  0  0  0  0  0  0  0  0  0  0  0
   -3.0784   -2.3626    0.4522 C   0  0  0  0  0  0  0  0  0  0  0  0
   -5.3427   -2.6349   -0.3583 C   0  0  0  0  0  0  0  0  0  0  0  0
   -4.0456   -3.3970   -0.1044 C   0  0  0  0  0  0  0  0  0  0  0  0
   -0.8713   -0.2023   -0.7957 C   0  0  0  0  0  0  0  0  0  0  0  0
   -2.4530    3.7051    0.0721 C   0  0  0  0  0  0  0  0  0  0  0  0
    1.4515   -0.9148   -0.2923 C   0  0  0  0  0  0  0  0  0  0  0  0
    2.8811   -0.5109   -0.2981 C   0  0  0  0  0  0  0  0  0  0  0  0
    3.7706   -1.0797    0.6135 C   0  0  0  0  0  0  0  0  0  0  0  0
    3.3338    0.4374   -1.2153 C   0  0  0  0  0  0  0  0  0  0  0  0
    5.1129   -0.7003    0.6078 C   0  0  0  0  0  0  0  0  0  0  0  0
    4.6761    0.8170   -1.2209 C   0  0  0  0  0  0  0  0  0  0  0  0
    5.5656    0.2480   -0.3095 C   0  0  0  0  0  0  0  0  0  0  0  0
   -3.2856   -0.0114    1.6766 H   0  0  0  0  0  0  0  0  0  0  0  0
   -1.0410   -0.2518    1.3486 H   0  0  0  0  0  0  0  0  0  0  0  0
   -4.6071    1.6070    0.4945 H   0  0  0  0  0  0  0  0  0  0  0  0
   -2.7458    2.4725    1.8124 H   0  0  0  0  0  0  0  0  0  0  0  0
   -5.5936   -0.4903   -0.5591 H   0  0  0  0  0  0  0  0  0  0  0  0
   -5.3682   -1.0607    1.1127 H   0  0  0  0  0  0  0  0  0  0  0  0
   -3.1216   -2.3823    1.5494 H   0  0  0  0  0  0  0  0  0  0  0  0
   -2.0552   -2.5982    0.1547 H   0  0  0  0  0  0  0  0  0  0  0  0
   -5.5953   -2.6784   -1.4242 H   0  0  0  0  0  0  0  0  0  0  0  0
   -6.1801   -3.0612    0.2032 H   0  0  0  0  0  0  0  0  0  0  0  0
   -4.1935   -4.2262    0.5950 H   0  0  0  0  0  0  0  0  0  0  0  0
   -3.6710   -3.8134   -1.0468 H   0  0  0  0  0  0  0  0  0  0  0  0
   -1.2460    0.3835   -1.6416 H   0  0  0  0  0  0  0  0  0  0  0  0
   -1.0351   -1.2556   -1.0239 H   0  0  0  0  0  0  0  0  0  0  0  0
   -3.4061    4.2410    0.1148 H   0  0  0  0  0  0  0  0  0  0  0  0
   -2.1300    3.6146   -0.9698 H   0  0  0  0  0  0  0  0  0  0  0  0
   -4.0407    2.3261   -1.5220 H   0  0  0  0  0  0  0  0  0  0  0  0
    0.8572    0.9542   -1.0342 H   0  0  0  0  0  0  0  0  0  0  0  0
   -1.4205    5.3334    0.3034 H   0  0  0  0  0  0  0  0  0  0  0  0
    3.4216   -1.8162    1.3338 H   0  0  0  0  0  0  0  0  0  0  0  0
    2.6818    0.8817   -1.9613 H   0  0  0  0  0  0  0  0  0  0  0  0
    5.0308    1.5502   -1.9393 H   0  0  0  0  0  0  0  0  0  0  0  0
  1 23  1  0  0  0  0
  2 25  1  0  0  0  0
  3 10  1  0  0  0  0
  3 12  1  0  0  0  0
  4 11  1  0  0  0  0
  4 42  1  0  0  0  0
  5 18  1  0  0  0  0
  5 44  1  0  0  0  0
  6 19  2  0  0  0  0
  7  9  1  0  0  0  0
  7 13  1  0  0  0  0
  7 14  1  0  0  0  0
  8 17  1  0  0  0  0
  8 19  1  0  0  0  0
  8 43  1  0  0  0  0
  9 10  1  0  0  0  0
  9 11  1  0  0  0  0
  9 26  1  0  0  0  0
 10 17  1  0  0  0  0
 10 27  1  0  0  0  0
 11 12  1  0  0  0  0
 11 28  1  0  0  0  0
 12 18  1  0  0  0  0
 12 29  1  0  0  0  0
 13 15  1  0  0  0  0
 13 30  1  0  0  0  0
 13 31  1  0  0  0  0
 14 16  1  0  0  0  0
 14 32  1  0  0  0  0
 14 33  1  0  0  0  0
 15 16  1  0  0  0  0
 15 34  1  0  0  0  0
 15 35  1  0  0  0  0
 16 36  1  0  0  0  0
 16 37  1  0  0  0  0
 17 38  1  0  0  0  0
 17 39  1  0  0  0  0
 18 40  1  0  0  0  0
 18 41  1  0  0  0  0
 19 20  1  0  0  0  0
 20 21  2  0  0  0  0
 20 22  1  0  0  0  0
 21 23  1  0  0  0  0
 21 45  1  0  0  0  0
 22 24  2  0  0  0  0
 22 46  1  0  0  0  0
 23 25  2  0  0  0  0
 24 25  1  0  0  0  0
 24 47  1  0  0  0  0
M  END
> <PUBCHEM_COMPOUND_CID>
28961532

> <PUBCHEM_CONFORMER_RMSD>
0.8

> <PUBCHEM_CONFORMER_DIVERSEORDER>
1
18
54
55
50
33
51
16
53
14
48
28
23
52
31
45
9
25
7
29
59
26
30
39
42
21
15
57
19
38
10
47
32
44
22
34
24
8
11
37
5
43
17
36
56
27
41
20
40
3
35
12
46
58
6
49
13
4
2

> <PUBCHEM_MMFF94_PARTIAL_CHARGES>
29
1 -0.18
10 0.28
11 0.28
12 0.28
13 0.27
14 0.27
17 0.3
18 0.28
19 0.54
2 -0.19
20 0.09
21 -0.15
22 -0.15
23 0.18
24 -0.15
25 0.19
3 -0.56
4 -0.68
42 0.4
43 0.37
44 0.4
45 0.15
46 0.15
47 0.15
5 -0.68
6 -0.57
7 -0.81
8 -0.73
9 0.27

> <PUBCHEM_EFFECTIVE_ROTOR_COUNT>
8

> <PUBCHEM_PHARMACOPHORE_FEATURES>
11
1 3 acceptor
1 4 acceptor
1 4 donor
1 5 acceptor
1 5 donor
1 6 acceptor
1 7 cation
1 8 donor
5 3 9 10 11 12 rings
5 7 13 14 15 16 rings
6 20 21 22 23 24 25 rings

> <PUBCHEM_HEAVY_ATOM_COUNT>
25

> <PUBCHEM_ATOM_DEF_STEREO_COUNT>
4

> <PUBCHEM_ATOM_UDEF_STEREO_COUNT>
0

> <PUBCHEM_BOND_DEF_STEREO_COUNT>
0

> <PUBCHEM_BOND_UDEF_STEREO_COUNT>
0

> <PUBCHEM_ISOTOPIC_ATOM_COUNT>
0

> <PUBCHEM_COMPONENT_COUNT>
1

> <PUBCHEM_CACTVS_TAUTO_COUNT>
2

> <PUBCHEM_CONFORMER_ID>
01B9EAFC00000001

> <PUBCHEM_MMFF94_ENERGY>
55.7741

> <PUBCHEM_FEATURE_SELFOVERLAP>
55.826

> <PUBCHEM_SHAPE_FINGERPRINT>
10319926 262 18270953528466412234
10595046 47 18334859433384293978
10670039 82 18339940242341210564
10912923 1 18186523194346861274
10937287 8 17620481207791186817
11045515 52 18187645851458996021
11056379 131 18340780255617073687
11059845 2 17833815085721138344
11265709 11 18339650052844083747
12107183 9 17758110398401999090
12166972 35 17895194462604430028
12236239 1 18113334223781231282
12403259 118 18410007702936612280
12403260 363 18333734632693887980
12596602 18 18334287674547901096
12616971 3 17894639127654183284
12788726 201 18335135389180739587
13583140 156 17846203428806646466
13631057 29 18410572933212082903
13782708 43 17203060612157035334
13914758 101 16732971008164566039
14068700 675 18336546131175851133
14565420 104 17193218673371847985
14674994 50 16055449847786368231
14844126 61 18409166615259724251
15183329 4 9367352535125871346
15188451 53 18334562560670837202
15250474 111 18261105258229296658
16087824 20 18339645548125367505
16992727 255 18189602875336156397
17349148 13 17967537891037396574
17844677 252 18410864231168909086
17857418 61 18187080685027999910
19377110 9 18335711532809256138
200 152 18114462348528547591
20028762 73 18187355520582098234
20511986 3 17968363598378590378
21033648 29 16917062231439521562
21033650 10 18193868997151215062
21065198 48 18260267434990289714
21304303 282 18049144593887771797
2132832 1 18187931728249612605
21585481 151 18121206590784812210
21728266 224 18408038524281055147
21796203 349 17761246549199236411
22956985 138 17545317944423284635
23557571 272 18059873735124048069
23559900 14 18338227293134540105
329604 57 18337675324895445462
335352 9 18412261775473910063
469060 322 18271542969118414283
497634 4 18186518804294426830
5104073 3 18260546710943609032
5924683 9 18408039602407426379
6677587 24 15655728696167898413
67856867 119 18189339129066428260
7495541 125 18201438133807097106
9981440 41 17905050249077336721

> <PUBCHEM_SHAPE_MULTIPOLES>
475.65
14.78
3.81
1.1
18.13
2.97
0.04
-6.42
0.96
-7.01
0.79
1.13
0.08
-1.69

> <PUBCHEM_SHAPE_SELFOVERLAP>
995.471

> <PUBCHEM_SHAPE_VOLUME>
270.7

> <PUBCHEM_COORDINATE_TYPE>
2
5
10

$$$$
