75536899
  -OEChem-12032416303D

 40 42  0     1  0  0  0  0  0999 V2000
   -2.1441   -2.7003   -1.0156 O   0  0  0  0  0  0  0  0  0  0  0  0
   -2.0098    0.8529   -0.3144 O   0  0  0  0  0  0  0  0  0  0  0  0
    2.4379   -3.0776    0.4574 O   0  0  0  0  0  0  0  0  0  0  0  0
    0.4600   -1.8206    0.4904 N   0  0  0  0  0  0  0  0  0  0  0  0
   -4.1378    0.2559    0.4071 N   0  0  0  0  0  0  0  0  0  0  0  0
   -4.9948    2.8891   -0.0372 N   0  0  0  0  0  0  0  0  0  0  0  0
    5.7946    3.5508   -0.3675 N   0  0  0  0  0  0  0  0  0  0  0  0
   -1.6593   -0.5081   -0.0600 C   0  0  2  0  0  0  0  0  0  0  0  0
   -0.1936   -0.5109    0.3837 C   0  0  0  0  0  0  0  0  0  0  0  0
   -0.3820   -3.0065    0.6562 C   0  0  0  0  0  0  0  0  0  0  0  0
   -1.9065   -1.3301   -1.3233 C   0  0  0  0  0  0  0  0  0  0  0  0
   -0.9793   -3.4446   -0.6749 C   0  0  0  0  0  0  0  0  0  0  0  0
    1.8510   -1.9972    0.4048 C   0  0  0  0  0  0  0  0  0  0  0  0
    2.6971   -0.8049    0.2391 C   0  0  0  0  0  0  0  0  0  0  0  0
   -3.3055    1.2081   -0.0589 C   0  0  0  0  0  0  0  0  0  0  0  0
    3.1855   -0.1346    1.3607 C   0  0  0  0  0  0  0  0  0  0  0  0
    3.0120   -0.3459   -1.0398 C   0  0  0  0  0  0  0  0  0  0  0  0
    3.9888    0.9946    1.2033 C   0  0  0  0  0  0  0  0  0  0  0  0
    3.8153    0.7834   -1.1973 C   0  0  0  0  0  0  0  0  0  0  0  0
   -3.7265    2.5015   -0.2772 C   0  0  0  0  0  0  0  0  0  0  0  0
    4.3039    1.4536   -0.0757 C   0  0  0  0  0  0  0  0  0  0  0  0
   -5.4062    0.6435    0.6470 C   0  0  0  0  0  0  0  0  0  0  0  0
   -5.8271    1.9369    0.4288 C   0  0  0  0  0  0  0  0  0  0  0  0
    5.1265    2.6109   -0.2368 C   0  0  0  0  0  0  0  0  0  0  0  0
   -2.2300   -0.9234    0.7804 H   0  0  0  0  0  0  0  0  0  0  0  0
   -0.1140   -0.0346    1.3695 H   0  0  0  0  0  0  0  0  0  0  0  0
    0.3793    0.1297   -0.2949 H   0  0  0  0  0  0  0  0  0  0  0  0
   -1.1493   -2.7945    1.4079 H   0  0  0  0  0  0  0  0  0  0  0  0
    0.2351   -3.8238    1.0452 H   0  0  0  0  0  0  0  0  0  0  0  0
   -2.8051   -0.9722   -1.8378 H   0  0  0  0  0  0  0  0  0  0  0  0
   -1.0875   -1.2314   -2.0465 H   0  0  0  0  0  0  0  0  0  0  0  0
   -0.2521   -3.3981   -1.4940 H   0  0  0  0  0  0  0  0  0  0  0  0
   -1.3033   -4.4870   -0.5860 H   0  0  0  0  0  0  0  0  0  0  0  0
    2.9456   -0.4839    2.3616 H   0  0  0  0  0  0  0  0  0  0  0  0
    2.6361   -0.8609   -1.9202 H   0  0  0  0  0  0  0  0  0  0  0  0
    4.3617    1.5066    2.0872 H   0  0  0  0  0  0  0  0  0  0  0  0
    4.0517    1.1293   -2.2007 H   0  0  0  0  0  0  0  0  0  0  0  0
   -3.0610    3.2700   -0.6517 H   0  0  0  0  0  0  0  0  0  0  0  0
   -6.0753   -0.1212    1.0214 H   0  0  0  0  0  0  0  0  0  0  0  0
   -6.8464    2.2475    0.6218 H   0  0  0  0  0  0  0  0  0  0  0  0
  1 11  1  0  0  0  0
  1 12  1  0  0  0  0
  2  8  1  0  0  0  0
  2 15  1  0  0  0  0
  3 13  2  0  0  0  0
  4  9  1  0  0  0  0
  4 10  1  0  0  0  0
  4 13  1  0  0  0  0
  5 15  2  0  0  0  0
  5 22  1  0  0  0  0
  6 20  2  0  0  0  0
  6 23  1  0  0  0  0
  7 24  3  0  0  0  0
  8  9  1  0  0  0  0
  8 11  1  0  0  0  0
  8 25  1  0  0  0  0
  9 26  1  0  0  0  0
  9 27  1  0  0  0  0
 10 12  1  0  0  0  0
 10 28  1  0  0  0  0
 10 29  1  0  0  0  0
 11 30  1  0  0  0  0
 11 31  1  0  0  0  0
 12 32  1  0  0  0  0
 12 33  1  0  0  0  0
 13 14  1  0  0  0  0
 14 16  2  0  0  0  0
 14 17  1  0  0  0  0
 15 20  1  0  0  0  0
 16 18  1  0  0  0  0
 16 34  1  0  0  0  0
 17 19  2  0  0  0  0
 17 35  1  0  0  0  0
 18 21  2  0  0  0  0
 18 36  1  0  0  0  0
 19 21  1  0  0  0  0
 19 37  1  0  0  0  0
 20 38  1  0  0  0  0
 21 24  1  0  0  0  0
 22 23  2  0  0  0  0
 22 39  1  0  0  0  0
 23 40  1  0  0  0  0
M  END
> <PUBCHEM_COMPOUND_CID>
75536899

> <PUBCHEM_CONFORMER_RMSD>
0.8

> <PUBCHEM_CONFORMER_DIVERSEORDER>
1
50
108
82
136
20
19
27
119
138
171
83
164
60
56
68
21
168
37
148
139
135
46
103
173
45
141
86
6
104
77
66
59
23
134
58
91
3
107
110
117
145
34
133
8
152
33
154
57
79
174
114
95
161
122
98
32
10
64
159
130
101
26
158
109
181
177
36
155
97
182
147
61
80
116
113
162
143
38
75
151
175
22
142
52
170
120
129
146
102
105
11
123
15
53
169
93
67
144
62
115
172
160
12
127
106
18
140
44
126
88
163
92
124
70
28
51
149
157
24
40
179
39
176
76
25
99
54
121
30
131
165
17
7
150
125
111
96
180
167
85
100
29
78
84
112
35
153
72
41
118
90
55
69
48
166
74
5
47
94
16
156
128
4
13
2
73
81
137
87
43
71
31
14
178
63
9
132
89
65
49
42

> <PUBCHEM_MMFF94_PARTIAL_CHARGES>
31
1 -0.56
10 0.3
11 0.28
12 0.28
13 0.54
14 0.09
15 0.39
16 -0.15
17 -0.15
18 -0.15
19 -0.15
2 -0.36
20 0.16
21 0.07
22 0.16
23 0.16
24 0.48
3 -0.57
34 0.15
35 0.15
36 0.15
37 0.15
38 0.15
39 0.15
4 -0.66
40 0.15
5 -0.62
6 -0.62
7 -0.56
8 0.28
9 0.3

> <PUBCHEM_EFFECTIVE_ROTOR_COUNT>
5.4

> <PUBCHEM_PHARMACOPHORE_FEATURES>
7
1 1 acceptor
1 3 acceptor
1 6 acceptor
1 7 acceptor
6 14 16 17 18 19 21 rings
6 5 6 15 20 22 23 rings
7 1 4 8 9 10 11 12 rings

> <PUBCHEM_HEAVY_ATOM_COUNT>
24

> <PUBCHEM_ATOM_DEF_STEREO_COUNT>
1

> <PUBCHEM_ATOM_UDEF_STEREO_COUNT>
0

> <PUBCHEM_BOND_DEF_STEREO_COUNT>
0

> <PUBCHEM_BOND_UDEF_STEREO_COUNT>
0

> <PUBCHEM_ISOTOPIC_ATOM_COUNT>
0

> <PUBCHEM_COMPONENT_COUNT>
1

> <PUBCHEM_CACTVS_TAUTO_COUNT>
1

> <PUBCHEM_CONFORMER_ID>
04809A0300000001

> <PUBCHEM_MMFF94_ENERGY>
76.867

> <PUBCHEM_FEATURE_SELFOVERLAP>
35.524

> <PUBCHEM_SHAPE_FINGERPRINT>
10493431 412 18408605889566280517
10937287 8 18411417297743303143
11720765 8 17559402345299561654
12107183 9 18262503846326303874
12173636 292 18341322349431300119
12390115 104 18270974530296911043
12403259 118 18120078495362410827
12760667 363 9007065651578794593
12788726 201 18122053471111604723
12895837 130 18118975930055955828
12925494 130 17832137222124440461
13540713 5 18339060666771636082
13955234 65 18117282458225014058
13965767 371 17967524675939796940
14142880 1 18189049970192693566
14251764 75 18342466898144359153
14528608 73 18340485565558788525
1454969 45 18341328968814211751
14739800 52 17690257723945994800
14790565 3 18341054012949315169
14848178 5 8862940554781167853
14849402 71 18262519170311062994
15342168 16 18407758127361988101
17349148 13 11963687568997112401
18785283 64 18194398888156647355
20465049 17 18195541298176148078
21365058 113 17552936030584355358
21756936 100 18339921623209387518
21864079 5 18335702779982287512
23227448 37 18341613775678099053
23559900 14 17760927347403396203
245318 6 17895777195114589053
270888 7 18409449232518568780
283562 15 18046620385014104154
2838139 119 18052819436842249572
3472631 163 18341614849425418852
34797466 226 18202009777022479157
350125 39 18192431870760319658
38570 142 16807322261405724300
394222 165 18264482884829658523
474 4 18334574590451746395
5048184 11 18410572898709581964
5252454 2 18411128147818484976
550186 72 18410291433188365629
6034566 193 18340215179839743033
633830 44 18199745847951949495
7288768 16 17895194449682663250
7808743 9 18338515360743722816
8988823 20 13768224816956756615
960060 61 12967119527935343768
9849439 229 18410845581840908248
9999458 23 18118969091982678367

> <PUBCHEM_SHAPE_MULTIPOLES>
456.38
12.7
4.26
1.08
3.72
0.95
-0.05
-15.97
0.69
-0.63
-0.41
-0.56
0.23
-1.12

> <PUBCHEM_SHAPE_SELFOVERLAP>
975.354

> <PUBCHEM_SHAPE_VOLUME>
246.3

> <PUBCHEM_COORDINATE_TYPE>
2
5
10

$$$$
