11913381
  -OEChem-12032416313D

 59 63  0     1  0  0  0  0  0999 V2000
    3.9797   -2.2237    3.3767 F   0  0  0  0  0  0  0  0  0  0  0  0
    0.6735    1.9148    1.9392 O   0  0  0  0  0  0  0  0  0  0  0  0
   -0.2120    4.0069   -0.1708 O   0  0  0  0  0  0  0  0  0  0  0  0
   -2.3480    1.5070    1.4840 N   0  0  0  0  0  0  0  0  0  0  0  0
    1.8502    2.1196   -1.5137 N   0  0  0  0  0  0  0  0  0  0  0  0
    3.1829    0.3029   -0.8581 N   0  0  0  0  0  0  0  0  0  0  0  0
    2.6522    0.6742   -3.1793 N   0  0  0  0  0  0  0  0  0  0  0  0
   -0.6762    2.6814    0.1407 C   0  0  1  0  0  0  0  0  0  0  0  0
    0.5411    1.8554    0.5077 C   0  0  1  0  0  0  0  0  0  0  0  0
   -1.5073    2.6997    1.4049 C   0  0  2  0  0  0  0  0  0  0  0  0
    1.6899    2.5809   -0.1521 C   0  0  2  0  0  0  0  0  0  0  0  0
   -0.4362    2.6451    2.4835 C   0  0  0  0  0  0  0  0  0  0  0  0
    1.2231    4.0253   -0.1372 C   0  0  0  0  0  0  0  0  0  0  0  0
   -3.3756    1.5305    0.4542 C   0  0  0  0  0  0  0  0  0  0  0  0
   -4.2695    0.2967    0.5682 C   0  0  0  0  0  0  0  0  0  0  0  0
    2.5835    0.9987   -1.8607 C   0  0  0  0  0  0  0  0  0  0  0  0
   -5.3711    0.3141   -0.4946 C   0  0  0  0  0  0  0  0  0  0  0  0
   -6.2390   -0.9159   -0.4185 C   0  0  0  0  0  0  0  0  0  0  0  0
    3.8897   -0.7839   -1.2321 C   0  0  0  0  0  0  0  0  0  0  0  0
    3.3754   -0.4239   -3.4820 C   0  0  0  0  0  0  0  0  0  0  0  0
    4.0219   -1.1993   -2.5413 C   0  0  0  0  0  0  0  0  0  0  0  0
   -5.8957   -2.0390   -1.1565 C   0  0  0  0  0  0  0  0  0  0  0  0
   -7.3675   -0.9053    0.3879 C   0  0  0  0  0  0  0  0  0  0  0  0
    4.5165   -1.5084   -0.1527 C   0  0  0  0  0  0  0  0  0  0  0  0
   -6.6988   -3.1773   -1.0862 C   0  0  0  0  0  0  0  0  0  0  0  0
   -8.1705   -2.0436    0.4581 C   0  0  0  0  0  0  0  0  0  0  0  0
   -7.8363   -3.1797   -0.2788 C   0  0  0  0  0  0  0  0  0  0  0  0
    3.9345   -1.5169    1.1169 C   0  0  0  0  0  0  0  0  0  0  0  0
    5.7073   -2.2039   -0.3736 C   0  0  0  0  0  0  0  0  0  0  0  0
    4.5401   -2.2172    2.1601 C   0  0  0  0  0  0  0  0  0  0  0  0
    6.3129   -2.9043    0.6696 C   0  0  0  0  0  0  0  0  0  0  0  0
    5.7293   -2.9109    1.9365 C   0  0  0  0  0  0  0  0  0  0  0  0
   -1.1528    2.3213   -0.7717 H   0  0  0  0  0  0  0  0  0  0  0  0
    0.4408    0.8005    0.2332 H   0  0  0  0  0  0  0  0  0  0  0  0
   -2.1113    3.6068    1.5220 H   0  0  0  0  0  0  0  0  0  0  0  0
    2.6349    2.5035    0.3978 H   0  0  0  0  0  0  0  0  0  0  0  0
   -0.0794    3.6523    2.7275 H   0  0  0  0  0  0  0  0  0  0  0  0
   -0.7623    2.1744    3.4166 H   0  0  0  0  0  0  0  0  0  0  0  0
    1.5969    4.6224   -0.9748 H   0  0  0  0  0  0  0  0  0  0  0  0
    1.5172    4.5209    0.7946 H   0  0  0  0  0  0  0  0  0  0  0  0
   -2.7863    1.4584    2.4036 H   0  0  0  0  0  0  0  0  0  0  0  0
    1.3650    2.6001   -2.2629 H   0  0  0  0  0  0  0  0  0  0  0  0
   -3.9931    2.4315    0.5570 H   0  0  0  0  0  0  0  0  0  0  0  0
   -2.9565    1.5275   -0.5549 H   0  0  0  0  0  0  0  0  0  0  0  0
   -3.6612   -0.6110    0.4594 H   0  0  0  0  0  0  0  0  0  0  0  0
   -4.7227    0.2546    1.5674 H   0  0  0  0  0  0  0  0  0  0  0  0
   -4.9289    0.3868   -1.4967 H   0  0  0  0  0  0  0  0  0  0  0  0
   -5.9931    1.2111   -0.3785 H   0  0  0  0  0  0  0  0  0  0  0  0
    3.4170   -0.6748   -4.5365 H   0  0  0  0  0  0  0  0  0  0  0  0
    4.5659   -2.0820   -2.8520 H   0  0  0  0  0  0  0  0  0  0  0  0
   -5.0108   -2.0478   -1.7866 H   0  0  0  0  0  0  0  0  0  0  0  0
   -7.6352   -0.0262    0.9672 H   0  0  0  0  0  0  0  0  0  0  0  0
   -6.4382   -4.0621   -1.6596 H   0  0  0  0  0  0  0  0  0  0  0  0
   -9.0559   -2.0456    1.0872 H   0  0  0  0  0  0  0  0  0  0  0  0
   -8.4615   -4.0660   -0.2239 H   0  0  0  0  0  0  0  0  0  0  0  0
    3.0029   -0.9952    1.3232 H   0  0  0  0  0  0  0  0  0  0  0  0
    6.2097   -2.2049   -1.3373 H   0  0  0  0  0  0  0  0  0  0  0  0
    7.2420   -3.4398    0.4976 H   0  0  0  0  0  0  0  0  0  0  0  0
    6.2013   -3.4549    2.7493 H   0  0  0  0  0  0  0  0  0  0  0  0
  1 30  1  0  0  0  0
  2  9  1  0  0  0  0
  2 12  1  0  0  0  0
  3  8  1  0  0  0  0
  3 13  1  0  0  0  0
  4 10  1  0  0  0  0
  4 14  1  0  0  0  0
  4 41  1  0  0  0  0
  5 11  1  0  0  0  0
  5 16  1  0  0  0  0
  5 42  1  0  0  0  0
  6 16  1  0  0  0  0
  6 19  2  0  0  0  0
  7 16  2  0  0  0  0
  7 20  1  0  0  0  0
  8  9  1  0  0  0  0
  8 10  1  0  0  0  0
  8 33  1  0  0  0  0
  9 11  1  0  0  0  0
  9 34  1  0  0  0  0
 10 12  1  0  0  0  0
 10 35  1  0  0  0  0
 11 13  1  0  0  0  0
 11 36  1  0  0  0  0
 12 37  1  0  0  0  0
 12 38  1  0  0  0  0
 13 39  1  0  0  0  0
 13 40  1  0  0  0  0
 14 15  1  0  0  0  0
 14 43  1  0  0  0  0
 14 44  1  0  0  0  0
 15 17  1  0  0  0  0
 15 45  1  0  0  0  0
 15 46  1  0  0  0  0
 17 18  1  0  0  0  0
 17 47  1  0  0  0  0
 17 48  1  0  0  0  0
 18 22  2  0  0  0  0
 18 23  1  0  0  0  0
 19 21  1  0  0  0  0
 19 24  1  0  0  0  0
 20 21  2  0  0  0  0
 20 49  1  0  0  0  0
 21 50  1  0  0  0  0
 22 25  1  0  0  0  0
 22 51  1  0  0  0  0
 23 26  2  0  0  0  0
 23 52  1  0  0  0  0
 24 28  2  0  0  0  0
 24 29  1  0  0  0  0
 25 27  2  0  0  0  0
 25 53  1  0  0  0  0
 26 27  1  0  0  0  0
 26 54  1  0  0  0  0
 27 55  1  0  0  0  0
 28 30  1  0  0  0  0
 28 56  1  0  0  0  0
 29 31  2  0  0  0  0
 29 57  1  0  0  0  0
 30 32  2  0  0  0  0
 31 32  1  0  0  0  0
 31 58  1  0  0  0  0
 32 59  1  0  0  0  0
M  END
> <PUBCHEM_COMPOUND_CID>
11913381

> <PUBCHEM_CONFORMER_RMSD>
1.4

> <PUBCHEM_CONFORMER_DIVERSEORDER>
1
87
159
25
162
56
128
202
150
161
114
55
153
94
189
104
111
127
171
191
30
158
141
75
7
22
18
92
138
107
70
17
117
98
184
100
166
135
181
88
149
44
78
39
49
115
36
195
139
183
154
131
11
177
9
134
31
50
110
180
174
175
152
130
164
178
61
185
79
80
34
15
48
170
23
86
156
93
193
35
14
77
8
132
155
112
33
129
68
57
52
187
16
81
62
194
3
196
160
165
125
109
60
99
182
65
126
63
122
83
121
105
124
59
58
186
27
118
101
137
192
38
146
41
147
167
103
76
72
140
143
163
102
198
85
95
190
6
89
148
120
151
64
71
20
123
201
26
113
188
46
21
108
169
96
97
74
51
37
172
199
133
84
168
119
73
4
173
67
47
28
82
179
157
42
136
54
197
142
116
10
176
45
19
13
91
53
145
66
32
24
69
144
40
29
5
12
200
43
90
2
106

> <PUBCHEM_MMFF94_PARTIAL_CHARGES>
43
1 -0.19
10 0.27
11 0.37
12 0.28
13 0.28
14 0.27
16 0.72
17 0.14
18 -0.14
19 0.31
2 -0.56
20 0.16
21 -0.15
22 -0.15
23 -0.15
25 -0.15
26 -0.15
27 -0.15
28 -0.15
29 -0.15
3 -0.56
30 0.19
31 -0.15
32 -0.15
4 -0.9
41 0.36
42 0.4
49 0.15
5 -0.87
50 0.15
51 0.15
52 0.15
53 0.15
54 0.15
55 0.15
56 0.15
57 0.15
58 0.15
59 0.15
6 -0.62
7 -0.62
8 0.28
9 0.28

> <PUBCHEM_EFFECTIVE_ROTOR_COUNT>
9.2

> <PUBCHEM_PHARMACOPHORE_FEATURES>
12
1 2 acceptor
1 3 acceptor
1 4 cation
1 4 donor
1 5 donor
1 6 acceptor
4 5 6 7 16 cation
5 2 8 9 10 12 rings
5 3 8 9 11 13 rings
6 18 22 23 25 26 27 rings
6 24 28 29 30 31 32 rings
6 6 7 16 19 20 21 rings

> <PUBCHEM_HEAVY_ATOM_COUNT>
32

> <PUBCHEM_ATOM_DEF_STEREO_COUNT>
4

> <PUBCHEM_ATOM_UDEF_STEREO_COUNT>
0

> <PUBCHEM_BOND_DEF_STEREO_COUNT>
0

> <PUBCHEM_BOND_UDEF_STEREO_COUNT>
0

> <PUBCHEM_ISOTOPIC_ATOM_COUNT>
0

> <PUBCHEM_COMPONENT_COUNT>
1

> <PUBCHEM_CACTVS_TAUTO_COUNT>
3

> <PUBCHEM_CONFORMER_ID>
00B5C8A500000001

> <PUBCHEM_MMFF94_ENERGY>
85.8856

> <PUBCHEM_FEATURE_SELFOVERLAP>
61.606

> <PUBCHEM_SHAPE_FINGERPRINT>
10622 236 18114745919269554345
11227150 75 18041267773826714042
11374522 72 10447660080528010467
11399510 152 15697166123399941067
11607047 403 18198049477857677792
12047536 79 14117532999902386947
12166972 35 18113615672919345807
12342043 65 16413814595544130268
12717326 69 17629181982519317899
12758862 65 17917711331228641890
12975358 362 9510644219780909487
13627167 48 13695858174637050607
13782708 43 18335983168907441487
14068700 675 18336543815819512304
14340393 91 16878493528475307911
14951699 99 9439406839687900427
15510800 12 17917430878675141549
16989378 47 17895181204462452123
17324776 126 18116145567571487146
19315092 285 18187365411136478012
20775438 99 18043248157154842571
208703 8 18410008801878878806
21458453 9 16198995419381235566
21585480 29 15984805061269607591
25025965 108 16737473345747650050
2748736 6 9007060154374090379
38570 142 10554916880711849932
3862424 121 17677904612060639315
42767 28 14923942341194584311
437795 139 18335414639121621909
4394409 98 18265041450101316847
439807 62 18408045130853080919
50009960 94 18058430154146659999
59025328 239 16951133850922664092
59682541 52 16877944936402111135
6636735 143 15913323581840403019
96874 4 18334009450065575827
9831354 38 18041271175488623699

> <PUBCHEM_SHAPE_MULTIPOLES>
619.61
20.8
5.17
2.85
38.54
2.43
0.66
-31.45
-0.59
0.07
-1.61
-5.68
-0.71
-4.15

> <PUBCHEM_SHAPE_SELFOVERLAP>
1347.676

> <PUBCHEM_SHAPE_VOLUME>
338.7

> <PUBCHEM_COORDINATE_TYPE>
2
5
10

$$$$
