7155496
  -OEChem-12032416173D

 68 73  0     1  0  0  0  0  0999 V2000
    0.2259    3.9036    0.8134 O   0  0  0  0  0  0  0  0  0  0  0  0
   -3.3428    0.8253    2.9415 O   0  0  0  0  0  0  0  0  0  0  0  0
    2.4172    0.1826   -1.3854 O   0  0  0  0  0  0  0  0  0  0  0  0
    5.0386    0.4915   -0.8657 O   0  0  0  0  0  0  0  0  0  0  0  0
   -4.1018    1.4221    0.8102 N   0  0  0  0  0  0  0  0  0  0  0  0
   -1.6744    3.1315   -0.3056 N   0  0  0  0  0  0  0  0  0  0  0  0
    1.9254    2.3527   -0.6891 N   0  0  0  0  0  0  0  0  0  0  0  0
   -4.0465    3.8629    0.3274 C   0  0  1  0  0  0  0  0  0  0  0  0
   -3.7091    2.2469   -1.4990 C   0  0  2  0  0  0  0  0  0  0  0  0
   -4.3729    3.5737   -1.1338 C   0  0  0  0  0  0  0  0  0  0  0  0
   -4.5837    2.7376    1.2304 C   0  0  0  0  0  0  0  0  0  0  0  0
   -2.5297    4.0420    0.4688 C   0  0  0  0  0  0  0  0  0  0  0  0
   -4.2868    1.1205   -0.6185 C   0  0  0  0  0  0  0  0  0  0  0  0
   -2.2053    2.3200   -1.3136 C   0  0  0  0  0  0  0  0  0  0  0  0
   -1.3911    1.5823   -2.0872 C   0  0  0  0  0  0  0  0  0  0  0  0
   -0.2894    3.1932   -0.0509 C   0  0  0  0  0  0  0  0  0  0  0  0
   -3.5001    0.5787    1.7471 C   0  0  0  0  0  0  0  0  0  0  0  0
    0.5809    2.3351   -0.9161 C   0  0  0  0  0  0  0  0  0  0  0  0
    0.0296    1.5914   -1.8810 C   0  0  0  0  0  0  0  0  0  0  0  0
   -2.9867   -0.7129    1.2791 C   0  0  0  0  0  0  0  0  0  0  0  0
   -1.6714   -0.8183    0.8268 C   0  0  0  0  0  0  0  0  0  0  0  0
   -3.8142   -1.8359    1.2855 C   0  0  0  0  0  0  0  0  0  0  0  0
    2.7624    1.2736   -0.9385 C   0  0  0  0  0  0  0  0  0  0  0  0
   -1.1835   -2.0465    0.3812 C   0  0  0  0  0  0  0  0  0  0  0  0
   -3.3262   -3.0643    0.8399 C   0  0  0  0  0  0  0  0  0  0  0  0
   -2.0108   -3.1696    0.3877 C   0  0  0  0  0  0  0  0  0  0  0  0
    4.2006    1.5932   -0.5878 C   0  0  0  0  0  0  0  0  0  0  0  0
   -1.5046   -4.4437   -0.0744 C   0  0  0  0  0  0  0  0  0  0  0  0
   -1.6246   -4.7956   -1.4189 C   0  0  0  0  0  0  0  0  0  0  0  0
   -0.8960   -5.3201    0.8242 C   0  0  0  0  0  0  0  0  0  0  0  0
   -1.1363   -6.0237   -1.8647 C   0  0  0  0  0  0  0  0  0  0  0  0
   -0.4076   -6.5483    0.3782 C   0  0  0  0  0  0  0  0  0  0  0  0
    6.1727    0.3567   -0.1003 C   0  0  0  0  0  0  0  0  0  0  0  0
   -0.5278   -6.9000   -0.9662 C   0  0  0  0  0  0  0  0  0  0  0  0
    6.8012    1.4877    0.4210 C   0  0  0  0  0  0  0  0  0  0  0  0
    6.6953   -0.9113    0.1547 C   0  0  0  0  0  0  0  0  0  0  0  0
    7.9522    1.3509    1.1970 C   0  0  0  0  0  0  0  0  0  0  0  0
    7.8463   -1.0480    0.9307 C   0  0  0  0  0  0  0  0  0  0  0  0
    8.4748    0.0830    1.4519 C   0  0  0  0  0  0  0  0  0  0  0  0
   -4.5341    4.7960    0.6354 H   0  0  0  0  0  0  0  0  0  0  0  0
   -3.9441    2.0231   -2.5477 H   0  0  0  0  0  0  0  0  0  0  0  0
   -5.4584    3.5120   -1.2786 H   0  0  0  0  0  0  0  0  0  0  0  0
   -4.0078    4.3826   -1.7790 H   0  0  0  0  0  0  0  0  0  0  0  0
   -4.3191    2.9320    2.2753 H   0  0  0  0  0  0  0  0  0  0  0  0
   -5.6787    2.7065    1.1758 H   0  0  0  0  0  0  0  0  0  0  0  0
   -2.2332    3.9880    1.5240 H   0  0  0  0  0  0  0  0  0  0  0  0
   -2.2633    5.0534    0.1324 H   0  0  0  0  0  0  0  0  0  0  0  0
   -5.3673    1.0304   -0.7852 H   0  0  0  0  0  0  0  0  0  0  0  0
   -3.8443    0.1597   -0.8920 H   0  0  0  0  0  0  0  0  0  0  0  0
   -1.7803    0.9372   -2.8680 H   0  0  0  0  0  0  0  0  0  0  0  0
    0.5974    0.9885   -2.5795 H   0  0  0  0  0  0  0  0  0  0  0  0
    2.2825    3.1101   -0.1117 H   0  0  0  0  0  0  0  0  0  0  0  0
   -1.0154    0.0475    0.8274 H   0  0  0  0  0  0  0  0  0  0  0  0
   -4.8408   -1.7644    1.6352 H   0  0  0  0  0  0  0  0  0  0  0  0
   -0.1551   -2.1109    0.0335 H   0  0  0  0  0  0  0  0  0  0  0  0
   -3.9846   -3.9298    0.8515 H   0  0  0  0  0  0  0  0  0  0  0  0
    4.5194    2.4557   -1.1843 H   0  0  0  0  0  0  0  0  0  0  0  0
    4.2068    1.8519    0.4796 H   0  0  0  0  0  0  0  0  0  0  0  0
   -2.0959   -4.1242   -2.1326 H   0  0  0  0  0  0  0  0  0  0  0  0
   -0.7939   -5.0615    1.8756 H   0  0  0  0  0  0  0  0  0  0  0  0
   -1.2298   -6.2978   -2.9115 H   0  0  0  0  0  0  0  0  0  0  0  0
    0.0664   -7.2307    1.0776 H   0  0  0  0  0  0  0  0  0  0  0  0
   -0.1474   -7.8563   -1.3134 H   0  0  0  0  0  0  0  0  0  0  0  0
    6.4407    2.4930    0.2243 H   0  0  0  0  0  0  0  0  0  0  0  0
    6.2099   -1.7957   -0.2486 H   0  0  0  0  0  0  0  0  0  0  0  0
    8.4453    2.2316    1.5981 H   0  0  0  0  0  0  0  0  0  0  0  0
    8.2535   -2.0352    1.1289 H   0  0  0  0  0  0  0  0  0  0  0  0
    9.3719   -0.0235    2.0548 H   0  0  0  0  0  0  0  0  0  0  0  0
  1 16  2  0  0  0  0
  2 17  2  0  0  0  0
  3 23  2  0  0  0  0
  4 27  1  0  0  0  0
  4 33  1  0  0  0  0
  5 11  1  0  0  0  0
  5 13  1  0  0  0  0
  5 17  1  0  0  0  0
  6 12  1  0  0  0  0
  6 14  1  0  0  0  0
  6 16  1  0  0  0  0
  7 18  1  0  0  0  0
  7 23  1  0  0  0  0
  7 52  1  0  0  0  0
  8 10  1  0  0  0  0
  8 11  1  0  0  0  0
  8 12  1  0  0  0  0
  8 40  1  0  0  0  0
  9 10  1  0  0  0  0
  9 13  1  0  0  0  0
  9 14  1  0  0  0  0
  9 41  1  0  0  0  0
 10 42  1  0  0  0  0
 10 43  1  0  0  0  0
 11 44  1  0  0  0  0
 11 45  1  0  0  0  0
 12 46  1  0  0  0  0
 12 47  1  0  0  0  0
 13 48  1  0  0  0  0
 13 49  1  0  0  0  0
 14 15  2  0  0  0  0
 15 19  1  0  0  0  0
 15 50  1  0  0  0  0
 16 18  1  0  0  0  0
 17 20  1  0  0  0  0
 18 19  2  0  0  0  0
 19 51  1  0  0  0  0
 20 21  2  0  0  0  0
 20 22  1  0  0  0  0
 21 24  1  0  0  0  0
 21 53  1  0  0  0  0
 22 25  2  0  0  0  0
 22 54  1  0  0  0  0
 23 27  1  0  0  0  0
 24 26  2  0  0  0  0
 24 55  1  0  0  0  0
 25 26  1  0  0  0  0
 25 56  1  0  0  0  0
 26 28  1  0  0  0  0
 27 57  1  0  0  0  0
 27 58  1  0  0  0  0
 28 29  2  0  0  0  0
 28 30  1  0  0  0  0
 29 31  1  0  0  0  0
 29 59  1  0  0  0  0
 30 32  2  0  0  0  0
 30 60  1  0  0  0  0
 31 34  2  0  0  0  0
 31 61  1  0  0  0  0
 32 34  1  0  0  0  0
 32 62  1  0  0  0  0
 33 35  2  0  0  0  0
 33 36  1  0  0  0  0
 34 63  1  0  0  0  0
 35 37  1  0  0  0  0
 35 64  1  0  0  0  0
 36 38  2  0  0  0  0
 36 65  1  0  0  0  0
 37 39  2  0  0  0  0
 37 66  1  0  0  0  0
 38 39  1  0  0  0  0
 38 67  1  0  0  0  0
 39 68  1  0  0  0  0
M  END
> <PUBCHEM_COMPOUND_CID>
7155496

> <PUBCHEM_CONFORMER_RMSD>
1

> <PUBCHEM_CONFORMER_DIVERSEORDER>
1
10
73
37
30
71
32
58
36
43
39
15
24
42
22
51
60
5
48
76
67
6
35
62
84
59
75
69
52
44
18
56
53
46
64
80
87
50
81
33
7
29
17
88
91
82
16
66
90
65
93
68
14
47
3
41
25
9
70
72
23
12
94
57
63
86
31
11
20
28
13
40
89
61
8
79
74
38
34
77
4
49
21
78
19
92
83
27
55
2
85
26
45
54

> <PUBCHEM_MMFF94_PARTIAL_CHARGES>
52
1 -0.57
11 0.3
12 0.3
13 0.3
14 -0.03
15 -0.15
16 0.62
17 0.54
18 0.12
19 -0.15
2 -0.57
20 0.09
21 -0.15
22 -0.15
23 0.57
24 -0.15
25 -0.15
27 0.34
29 -0.15
3 -0.57
30 -0.15
31 -0.15
32 -0.15
33 0.08
34 -0.15
35 -0.15
36 -0.15
37 -0.15
38 -0.15
39 -0.15
4 -0.36
5 -0.66
50 0.15
51 0.15
52 0.37
53 0.15
54 0.15
55 0.15
56 0.15
59 0.15
6 -0.47
60 0.15
61 0.15
62 0.15
63 0.15
64 0.15
65 0.15
66 0.15
67 0.15
68 0.15
7 -0.54
9 0.14

> <PUBCHEM_EFFECTIVE_ROTOR_COUNT>
9

> <PUBCHEM_PHARMACOPHORE_FEATURES>
11
1 1 acceptor
1 2 acceptor
1 3 acceptor
1 4 acceptor
1 7 donor
6 20 21 22 24 25 26 rings
6 28 29 30 31 32 34 rings
6 33 35 36 37 38 39 rings
6 5 8 9 10 11 13 rings
6 6 14 15 16 18 19 rings
6 6 8 9 10 12 14 rings

> <PUBCHEM_HEAVY_ATOM_COUNT>
39

> <PUBCHEM_ATOM_DEF_STEREO_COUNT>
2

> <PUBCHEM_ATOM_UDEF_STEREO_COUNT>
0

> <PUBCHEM_BOND_DEF_STEREO_COUNT>
0

> <PUBCHEM_BOND_UDEF_STEREO_COUNT>
0

> <PUBCHEM_ISOTOPIC_ATOM_COUNT>
0

> <PUBCHEM_COMPONENT_COUNT>
1

> <PUBCHEM_CACTVS_TAUTO_COUNT>
2

> <PUBCHEM_CONFORMER_ID>
006D2F2800000001

> <PUBCHEM_MMFF94_ENERGY>
127.7756

> <PUBCHEM_FEATURE_SELFOVERLAP>
57.413

> <PUBCHEM_SHAPE_FINGERPRINT>
10254770 206 18267304429024309499
10290309 65 18265908964058206738
10622 236 17759805136509782358
11524674 6 18335136445151999780
12717326 68 17476624847545235136
12988421 55 18199765669004318755
14659021 117 18269261525329512997
14844126 61 18335139842465394984
14856354 85 16298395651604615208
15320294 125 17967819336059800790
15439362 3 17903916656936781413
19301676 85 18050000292711942647
19611394 137 18271805766227138952
20775530 9 17258520244786231631
229767 44 18337681892069648922
3383291 50 18410289220240354253
3504750 166 18336535110886283906
3882209 13 17766545129766140422
4017518 198 18337666412986103726
484985 159 18263074560583668039
5080951 261 17968358114291007148
5085150 59 18336264557103935229
5171179 24 17255690690330172117
6636735 143 18270097099250433464

> <PUBCHEM_SHAPE_MULTIPOLES>
764.18
15.79
9.89
1.86
53.9
21.57
-0.08
-9.45
-7.12
-11.75
2.69
-1.28
-0.03
-0.02

> <PUBCHEM_SHAPE_SELFOVERLAP>
1689.603

> <PUBCHEM_SHAPE_VOLUME>
402.5

> <PUBCHEM_COORDINATE_TYPE>
2
5
10

$$$$
