7144049
  -OEChem-12032416253D

 46 50  0     1  0  0  0  0  0999 V2000
    4.9382   -2.2327    0.3540 S   0  0  0  0  0  0  0  0  0  0  0  0
   -2.1102    1.4195   -1.5515 O   0  0  0  0  0  0  0  0  0  0  0  0
    2.7636    0.7000   -0.6159 N   0  0  2  0  0  0  0  0  0  0  0  0
   -0.2633    1.5844   -0.1375 N   0  0  0  0  0  0  0  0  0  0  0  0
   -5.9142   -0.3614    0.2392 N   0  0  0  0  0  0  0  0  0  0  0  0
   -4.8098   -2.2179   -0.8290 N   0  0  0  0  0  0  0  0  0  0  0  0
    1.7907    3.0091   -0.7036 C   0  0  1  0  0  0  0  0  0  0  0  0
    1.7248    1.7536    1.3974 C   0  0  2  0  0  0  0  0  0  0  0  0
    1.9283    3.1461    0.8069 C   0  0  0  0  0  0  0  0  0  0  0  0
    2.8488    2.0242   -1.2443 C   0  0  0  0  0  0  0  0  0  0  0  0
    2.8092    0.7973    0.8508 C   0  0  0  0  0  0  0  0  0  0  0  0
    0.3566    2.5725   -1.0320 C   0  0  0  0  0  0  0  0  0  0  0  0
    0.3397    1.2269    1.0707 C   0  0  0  0  0  0  0  0  0  0  0  0
    3.8134   -0.1852   -1.1145 C   0  0  0  0  0  0  0  0  0  0  0  0
   -0.2960    0.4091    1.9248 C   0  0  0  0  0  0  0  0  0  0  0  0
   -1.5327    1.1007   -0.5105 C   0  0  0  0  0  0  0  0  0  0  0  0
   -2.2056    0.1586    0.4513 C   0  0  0  0  0  0  0  0  0  0  0  0
   -1.5847   -0.1353    1.6036 C   0  0  0  0  0  0  0  0  0  0  0  0
    3.6617   -1.5734   -0.5551 C   0  0  0  0  0  0  0  0  0  0  0  0
   -3.5150   -0.4421    0.1419 C   0  0  0  0  0  0  0  0  0  0  0  0
    2.5949   -2.4106   -0.6842 C   0  0  0  0  0  0  0  0  0  0  0  0
    2.8246   -3.6461   -0.0127 C   0  0  0  0  0  0  0  0  0  0  0  0
    4.0605   -3.6832    0.5943 C   0  0  0  0  0  0  0  0  0  0  0  0
   -4.6988    0.1600    0.5063 C   0  0  0  0  0  0  0  0  0  0  0  0
   -3.6284   -1.6396   -0.5291 C   0  0  0  0  0  0  0  0  0  0  0  0
   -5.8965   -1.5347   -0.4215 C   0  0  0  0  0  0  0  0  0  0  0  0
    1.9718    3.9817   -1.1779 H   0  0  0  0  0  0  0  0  0  0  0  0
    1.8452    1.8254    2.4865 H   0  0  0  0  0  0  0  0  0  0  0  0
    1.1904    3.8543    1.2038 H   0  0  0  0  0  0  0  0  0  0  0  0
    2.9204    3.5335    1.0688 H   0  0  0  0  0  0  0  0  0  0  0  0
    2.7137    1.9244   -2.3285 H   0  0  0  0  0  0  0  0  0  0  0  0
    3.8457    2.4576   -1.0849 H   0  0  0  0  0  0  0  0  0  0  0  0
    3.7952    1.1532    1.1806 H   0  0  0  0  0  0  0  0  0  0  0  0
    2.6477   -0.1785    1.3231 H   0  0  0  0  0  0  0  0  0  0  0  0
   -0.2949    3.4563   -0.9918 H   0  0  0  0  0  0  0  0  0  0  0  0
    0.2934    2.1990   -2.0618 H   0  0  0  0  0  0  0  0  0  0  0  0
    4.8080    0.2274   -0.8982 H   0  0  0  0  0  0  0  0  0  0  0  0
    3.7387   -0.2642   -2.2073 H   0  0  0  0  0  0  0  0  0  0  0  0
    0.1528    0.1107    2.8664 H   0  0  0  0  0  0  0  0  0  0  0  0
   -2.0256   -0.8104    2.3312 H   0  0  0  0  0  0  0  0  0  0  0  0
    1.6898   -2.1690   -1.2266 H   0  0  0  0  0  0  0  0  0  0  0  0
    2.1190   -4.4659    0.0232 H   0  0  0  0  0  0  0  0  0  0  0  0
    4.4900   -4.4927    1.1676 H   0  0  0  0  0  0  0  0  0  0  0  0
   -4.7186    1.1065    1.0379 H   0  0  0  0  0  0  0  0  0  0  0  0
   -2.7555   -2.1935   -0.8607 H   0  0  0  0  0  0  0  0  0  0  0  0
   -6.8589   -1.9762   -0.6492 H   0  0  0  0  0  0  0  0  0  0  0  0
  1 19  1  0  0  0  0
  1 23  1  0  0  0  0
  2 16  2  0  0  0  0
  3 10  1  0  0  0  0
  3 11  1  0  0  0  0
  3 14  1  0  0  0  0
  4 12  1  0  0  0  0
  4 13  1  0  0  0  0
  4 16  1  0  0  0  0
  5 24  2  0  0  0  0
  5 26  1  0  0  0  0
  6 25  1  0  0  0  0
  6 26  2  0  0  0  0
  7  9  1  0  0  0  0
  7 10  1  0  0  0  0
  7 12  1  0  0  0  0
  7 27  1  0  0  0  0
  8  9  1  0  0  0  0
  8 11  1  0  0  0  0
  8 13  1  0  0  0  0
  8 28  1  0  0  0  0
  9 29  1  0  0  0  0
  9 30  1  0  0  0  0
 10 31  1  0  0  0  0
 10 32  1  0  0  0  0
 11 33  1  0  0  0  0
 11 34  1  0  0  0  0
 12 35  1  0  0  0  0
 12 36  1  0  0  0  0
 13 15  2  0  0  0  0
 14 19  1  0  0  0  0
 14 37  1  0  0  0  0
 14 38  1  0  0  0  0
 15 18  1  0  0  0  0
 15 39  1  0  0  0  0
 16 17  1  0  0  0  0
 17 18  2  0  0  0  0
 17 20  1  0  0  0  0
 18 40  1  0  0  0  0
 19 21  2  0  0  0  0
 20 24  1  0  0  0  0
 20 25  2  0  0  0  0
 21 22  1  0  0  0  0
 21 41  1  0  0  0  0
 22 23  2  0  0  0  0
 22 42  1  0  0  0  0
 23 43  1  0  0  0  0
 24 44  1  0  0  0  0
 25 45  1  0  0  0  0
 26 46  1  0  0  0  0
M  END
> <PUBCHEM_COMPOUND_CID>
7144049

> <PUBCHEM_CONFORMER_RMSD>
0.8

> <PUBCHEM_CONFORMER_DIVERSEORDER>
2
4
5
3
1

> <PUBCHEM_MMFF94_PARTIAL_CHARGES>
32
1 -0.08
10 0.27
11 0.27
12 0.3
13 -0.03
14 0.45
15 -0.15
16 0.62
17 -0.01
18 -0.15
19 -0.14
2 -0.57
20 0.03
21 -0.15
22 -0.15
23 -0.11
24 0.16
25 0.16
26 0.47
3 -0.81
39 0.15
4 -0.47
40 0.15
41 0.15
42 0.15
43 0.15
44 0.15
45 0.15
46 0.15
5 -0.62
6 -0.62
8 0.14

> <PUBCHEM_EFFECTIVE_ROTOR_COUNT>
4

> <PUBCHEM_PHARMACOPHORE_FEATURES>
9
1 2 acceptor
1 3 cation
1 5 acceptor
3 5 6 26 cation
5 1 19 21 22 23 rings
6 3 7 8 9 10 11 rings
6 4 13 15 16 17 18 rings
6 4 7 8 9 12 13 rings
6 5 6 20 24 25 26 rings

> <PUBCHEM_HEAVY_ATOM_COUNT>
26

> <PUBCHEM_ATOM_DEF_STEREO_COUNT>
2

> <PUBCHEM_ATOM_UDEF_STEREO_COUNT>
0

> <PUBCHEM_BOND_DEF_STEREO_COUNT>
0

> <PUBCHEM_BOND_UDEF_STEREO_COUNT>
0

> <PUBCHEM_ISOTOPIC_ATOM_COUNT>
0

> <PUBCHEM_COMPONENT_COUNT>
1

> <PUBCHEM_CACTVS_TAUTO_COUNT>
1

> <PUBCHEM_CONFORMER_ID>
006D027100000002

> <PUBCHEM_MMFF94_ENERGY>
65.515

> <PUBCHEM_FEATURE_SELFOVERLAP>
47.226

> <PUBCHEM_SHAPE_FINGERPRINT>
10622 236 17391346317668508074
11135609 149 18192966327721196095
114674 6 18336542806787099178
11578080 2 17916574346264734512
11796584 16 17632027454519302085
12107183 9 18198916803595415521
12293681 25 18048844478341409588
12824470 246 18201163139756798384
13083527 12 18337107857617435298
13533116 47 18272091656007476435
13583140 156 17489015089454733649
1361 2 18264209299422494071
13631057 29 18194127314065705406
13911987 19 17972629794644009604
13955234 65 18269558414981240121
14117953 113 18055919788379518183
14251751 18 18338793416515054479
14347332 77 18341892987987519393
1454969 45 18408609159070257062
14863182 85 18264764536290352564
14866123 147 17834394519311063665
15250474 111 18130218393531804903
15475509 8 17822576006700617389
15664445 248 17022905695827115068
15848702 151 18408320021296844897
17138139 8 17341810384861995126
17349148 13 14692303884480604817
17492 54 18189918533572128486
17818456 19 17986968362187840265
1813 80 18334851680235134619
18681886 176 15481843439794682600
19026451 147 18409450254757793258
20567600 247 18341610443079123127
20626108 58 18338793408452511066
20645477 70 18261392316335859449
20775438 99 18120076527925693123
20775530 9 18267580209106221374
21285901 2 17821726147856023876
22224240 67 18129372882243926864
23559900 14 18262521510413812417
23569914 152 17613962272649439495
238 59 18262530319798171962
25222932 49 16627700642622427567
3004659 81 18060147552237314791
338550 245 18270113659789790327
3421961 26 18412822490968034496
345986 75 17846222124630143723
376196 1 15289049651084542580
4340502 62 17630604742028550992
46194498 28 17822013146202797372
463206 1 18409172103785017882
5309563 4 18340205181224436494
59682541 52 18336537309761677999
6433294 58 18339926020913786766
6438754 60 18116146675682812666
70251023 43 18334576832714831993
7970288 3 17844261635427351278
960060 61 18261681453481244941

> <PUBCHEM_SHAPE_MULTIPOLES>
513.12
11
4.22
1.41
12.7
1.18
0.27
10.66
-1.39
-5.25
-0.42
-0.2
-0.56
-0.71

> <PUBCHEM_SHAPE_SELFOVERLAP>
1120.93

> <PUBCHEM_SHAPE_VOLUME>
278.9

> <PUBCHEM_COORDINATE_TYPE>
2
5
10

$$$$
