26743432
  -OEChem-12032416183D

 59 61  0     1  0  0  0  0  0999 V2000
    5.7637    2.1341   -0.6422 O   0  0  0  0  0  0  0  0  0  0  0  0
    8.2280    1.1101   -0.9977 O   0  0  0  0  0  0  0  0  0  0  0  0
   -1.5212   -0.9791   -0.1780 N   0  0  0  0  0  0  0  0  0  0  0  0
    5.0636    0.2939    0.5970 N   0  0  0  0  0  0  0  0  0  0  0  0
   -1.2788   -2.1824   -0.7253 N   0  0  0  0  0  0  0  0  0  0  0  0
    2.0860   -1.0460    0.4569 C   0  0  2  0  0  0  0  0  0  0  0  0
    2.7111    0.2177   -0.1695 C   0  0  0  0  0  0  0  0  0  0  0  0
    3.7213    0.7399    0.8595 C   0  0  1  0  0  0  0  0  0  0  0  0
    0.6307   -1.2348    0.0953 C   0  0  0  0  0  0  0  0  0  0  0  0
    2.3479   -0.8429    1.9211 C   0  0  0  0  0  0  0  0  0  0  0  0
    3.2419    0.1282    2.1347 C   0  0  0  0  0  0  0  0  0  0  0  0
   -0.4106   -0.3698    0.3277 C   0  0  0  0  0  0  0  0  0  0  0  0
    0.0374   -2.3331   -0.5555 C   0  0  0  0  0  0  0  0  0  0  0  0
   -6.8112    1.0790   -0.1485 C   0  0  0  0  0  0  0  0  0  0  0  0
   -2.8211   -0.4721   -0.1690 C   0  0  0  0  0  0  0  0  0  0  0  0
   -0.4377    0.9579    0.9744 C   0  0  0  0  0  0  0  0  0  0  0  0
   -5.4214    0.5381   -0.1561 C   0  0  0  0  0  0  0  0  0  0  0  0
    0.6944   -3.5602   -1.0390 C   0  0  0  0  0  0  0  0  0  0  0  0
    5.9807    1.0353   -0.1387 C   0  0  0  0  0  0  0  0  0  0  0  0
   -3.8380   -1.1722    0.4803 C   0  0  0  0  0  0  0  0  0  0  0  0
   -3.1044    0.7329   -0.8118 C   0  0  0  0  0  0  0  0  0  0  0  0
   -5.1382   -0.6671    0.4867 C   0  0  0  0  0  0  0  0  0  0  0  0
   -4.4045    1.2381   -0.8053 C   0  0  0  0  0  0  0  0  0  0  0  0
   -7.3098    1.3371    1.3072 C   0  0  0  0  0  0  0  0  0  0  0  0
   -7.8094    0.0841   -0.8180 C   0  0  0  0  0  0  0  0  0  0  0  0
   -7.0077    2.4361   -0.9025 C   0  0  0  0  0  0  0  0  0  0  0  0
    7.3141    0.3286   -0.2578 C   0  0  0  0  0  0  0  0  0  0  0  0
    9.4935    0.4685   -1.1259 C   0  0  0  0  0  0  0  0  0  0  0  0
    2.6558   -1.9276    0.1358 H   0  0  0  0  0  0  0  0  0  0  0  0
    3.1736   -0.0117   -1.1372 H   0  0  0  0  0  0  0  0  0  0  0  0
    1.9625    0.9947   -0.3645 H   0  0  0  0  0  0  0  0  0  0  0  0
    3.6951    1.8338    0.9019 H   0  0  0  0  0  0  0  0  0  0  0  0
    1.8972   -1.4332    2.7067 H   0  0  0  0  0  0  0  0  0  0  0  0
    3.5913    0.4241    3.1138 H   0  0  0  0  0  0  0  0  0  0  0  0
    5.3429   -0.6239    0.9342 H   0  0  0  0  0  0  0  0  0  0  0  0
   -0.4254    1.7537    0.2230 H   0  0  0  0  0  0  0  0  0  0  0  0
   -1.3267    1.0861    1.6010 H   0  0  0  0  0  0  0  0  0  0  0  0
    0.4205    1.1156    1.6314 H   0  0  0  0  0  0  0  0  0  0  0  0
    1.1684   -4.0946   -0.2092 H   0  0  0  0  0  0  0  0  0  0  0  0
   -0.0169   -4.2447   -1.5134 H   0  0  0  0  0  0  0  0  0  0  0  0
    1.4660   -3.3176   -1.7769 H   0  0  0  0  0  0  0  0  0  0  0  0
   -3.6341   -2.1111    0.9896 H   0  0  0  0  0  0  0  0  0  0  0  0
   -2.3295    1.2862   -1.3369 H   0  0  0  0  0  0  0  0  0  0  0  0
   -5.9105   -1.2320    1.0007 H   0  0  0  0  0  0  0  0  0  0  0  0
   -4.5694    2.1766   -1.3228 H   0  0  0  0  0  0  0  0  0  0  0  0
   -6.6469    2.0390    1.8269 H   0  0  0  0  0  0  0  0  0  0  0  0
   -7.3432    0.4151    1.8979 H   0  0  0  0  0  0  0  0  0  0  0  0
   -8.3205    1.7614    1.3132 H   0  0  0  0  0  0  0  0  0  0  0  0
   -8.8263    0.4930   -0.8388 H   0  0  0  0  0  0  0  0  0  0  0  0
   -7.5114   -0.1298   -1.8512 H   0  0  0  0  0  0  0  0  0  0  0  0
   -7.8562   -0.8708   -0.2831 H   0  0  0  0  0  0  0  0  0  0  0  0
   -6.7507    2.3465   -1.9645 H   0  0  0  0  0  0  0  0  0  0  0  0
   -6.3975    3.2329   -0.4613 H   0  0  0  0  0  0  0  0  0  0  0  0
   -8.0519    2.7678   -0.8527 H   0  0  0  0  0  0  0  0  0  0  0  0
    7.7047    0.1523    0.7512 H   0  0  0  0  0  0  0  0  0  0  0  0
    7.1527   -0.6326   -0.7595 H   0  0  0  0  0  0  0  0  0  0  0  0
   10.1519    1.1208   -1.7055 H   0  0  0  0  0  0  0  0  0  0  0  0
    9.3873   -0.4831   -1.6557 H   0  0  0  0  0  0  0  0  0  0  0  0
    9.9403    0.3049   -0.1406 H   0  0  0  0  0  0  0  0  0  0  0  0
  1 19  2  0  0  0  0
  2 27  1  0  0  0  0
  2 28  1  0  0  0  0
  3  5  1  0  0  0  0
  3 12  1  0  0  0  0
  3 15  1  0  0  0  0
  4  8  1  0  0  0  0
  4 19  1  0  0  0  0
  4 35  1  0  0  0  0
  5 13  2  0  0  0  0
  6  7  1  0  0  0  0
  6  9  1  0  0  0  0
  6 10  1  0  0  0  0
  6 29  1  0  0  0  0
  7  8  1  0  0  0  0
  7 30  1  0  0  0  0
  7 31  1  0  0  0  0
  8 11  1  0  0  0  0
  8 32  1  0  0  0  0
  9 12  2  0  0  0  0
  9 13  1  0  0  0  0
 10 11  2  0  0  0  0
 10 33  1  0  0  0  0
 11 34  1  0  0  0  0
 12 16  1  0  0  0  0
 13 18  1  0  0  0  0
 14 17  1  0  0  0  0
 14 24  1  0  0  0  0
 14 25  1  0  0  0  0
 14 26  1  0  0  0  0
 15 20  2  0  0  0  0
 15 21  1  0  0  0  0
 16 36  1  0  0  0  0
 16 37  1  0  0  0  0
 16 38  1  0  0  0  0
 17 22  2  0  0  0  0
 17 23  1  0  0  0  0
 18 39  1  0  0  0  0
 18 40  1  0  0  0  0
 18 41  1  0  0  0  0
 19 27  1  0  0  0  0
 20 22  1  0  0  0  0
 20 42  1  0  0  0  0
 21 23  2  0  0  0  0
 21 43  1  0  0  0  0
 22 44  1  0  0  0  0
 23 45  1  0  0  0  0
 24 46  1  0  0  0  0
 24 47  1  0  0  0  0
 24 48  1  0  0  0  0
 25 49  1  0  0  0  0
 25 50  1  0  0  0  0
 25 51  1  0  0  0  0
 26 52  1  0  0  0  0
 26 53  1  0  0  0  0
 26 54  1  0  0  0  0
 27 55  1  0  0  0  0
 27 56  1  0  0  0  0
 28 57  1  0  0  0  0
 28 58  1  0  0  0  0
 28 59  1  0  0  0  0
M  END
> <PUBCHEM_COMPOUND_CID>
26743432

> <PUBCHEM_CONFORMER_RMSD>
1

> <PUBCHEM_CONFORMER_DIVERSEORDER>
1
37
12
32
38
9
24
34
10
17
40
20
3
36
7
16
26
22
4
30
14
39
18
2
6
13
41
25
42
33
27
21
35
11
23
5
31
29
19
15
8
28

> <PUBCHEM_MMFF94_PARTIAL_CHARGES>
31
1 -0.57
10 -0.29
11 -0.29
12 -0.33
13 0.11
14 0.14
15 -0.02
16 0.18
17 -0.14
18 0.18
19 0.57
2 -0.56
20 -0.15
21 -0.15
22 -0.15
23 -0.15
27 0.34
28 0.28
3 0.59
33 0.15
34 0.15
35 0.37
4 -0.73
42 0.15
43 0.15
44 0.15
45 0.15
5 -0.71
6 0.32
8 0.44
9 -0.18

> <PUBCHEM_EFFECTIVE_ROTOR_COUNT>
7.6

> <PUBCHEM_PHARMACOPHORE_FEATURES>
8
1 1 acceptor
1 2 acceptor
1 4 donor
1 5 acceptor
4 14 24 25 26 hydrophobe
5 3 5 9 12 13 rings
5 6 7 8 10 11 rings
6 15 17 20 21 22 23 rings

> <PUBCHEM_HEAVY_ATOM_COUNT>
28

> <PUBCHEM_ATOM_DEF_STEREO_COUNT>
2

> <PUBCHEM_ATOM_UDEF_STEREO_COUNT>
0

> <PUBCHEM_BOND_DEF_STEREO_COUNT>
0

> <PUBCHEM_BOND_UDEF_STEREO_COUNT>
0

> <PUBCHEM_ISOTOPIC_ATOM_COUNT>
0

> <PUBCHEM_COMPONENT_COUNT>
1

> <PUBCHEM_CACTVS_TAUTO_COUNT>
2

> <PUBCHEM_CONFORMER_ID>
0198128800000001

> <PUBCHEM_MMFF94_ENERGY>
83.3353

> <PUBCHEM_FEATURE_SELFOVERLAP>
40.604

> <PUBCHEM_SHAPE_FINGERPRINT>
10 15 17894631440222087689
10165383 225 18342739611023165111
10369192 42 18408882932110225653
106641 1 14057004931536745584
10670039 82 17775290434652075233
10674148 151 16415761907951529096
10883706 17 12966831481580088677
10906281 52 18411144611002663161
12236239 1 18114176462957735442
12596602 18 16877936093296869593
13177829 20 16008751316104721713
13540713 5 17129316255148796715
13685833 64 8502372247954944831
14068700 675 11743844668625692666
14341114 328 17821718434353112691
14933364 13 18186521012282045736
15183329 4 15841835538434581366
15461852 350 18342452682345415231
15510800 12 9222951542419755425
15690457 1 11743841353053111340
15706992 2 17676780806936832165
1577012 14 18260540143764715042
15849732 13 18259988197512134220
15961568 22 18187645773817346877
16992610 120 16877958140065600086
17980427 23 17967531311574871743
18006028 8 8646771092655881358
1813 80 12902107510220026451
18222031 100 12396583966896128259
18335252 114 18411131442264175044
18393751 57 13912606091526500160
19611394 137 17969796361489057915
19841028 212 12103304672358394532
2026 5 12175633862262566812
20505436 4 18113612409372390410
20721686 146 18114740443350134061
21033648 29 18200579414925046096
21344244 246 15267074614286625220
21344244 78 14634876310283212519
21585482 111 18115304458814868173
21756936 100 17968935422346563698
21781055 127 17845655842230968034
21792961 116 18202570583112025554
22224240 67 14562530695896455536
23559900 14 17631729517428837760
23576562 1 18197487640094875685
24771293 8 18261391114795115061
249057 3 15267337444272395044
335352 9 18272651272897613988
3411729 13 18335697191914013131
3711267 37 18041290919511519676
4058900 60 18411705344189139571
4073 2 17530969080977793426
4169191 19 18334292038235206301
4340502 62 16370723721065174818
5104073 3 13407893883829511532
57527585 21 18050818088955298165
5758199 1 17022901254783048696
59682541 35 11530484459009612476
59682541 52 16486978384458403916
6126387 218 7925919175406689239
6438161 24 11527944560388161261
9689198 14 18041002856133097128
9953998 17 15285361742665676713
9962374 69 11603122590765568281

> <PUBCHEM_SHAPE_MULTIPOLES>
549.55
24.33
2.33
1.34
18.73
1.56
-0.52
-17.49
7
-0.63
0.87
0.77
-0.06
-0.3

> <PUBCHEM_SHAPE_SELFOVERLAP>
1161.756

> <PUBCHEM_SHAPE_VOLUME>
312.9

> <PUBCHEM_COORDINATE_TYPE>
2
5
10

$$$$
