75536802
  -OEChem-12032416303D

 46 48  0     1  0  0  0  0  0999 V2000
    0.9766    0.6834    0.3703 O   0  0  0  0  0  0  0  0  0  0  0  0
   -0.0656   -2.4259   -1.0964 O   0  0  0  0  0  0  0  0  0  0  0  0
    4.5209   -1.8073   -0.7435 O   0  0  0  0  0  0  0  0  0  0  0  0
   -2.4022   -0.5860   -0.0810 N   0  0  0  0  0  0  0  0  0  0  0  0
    3.4913    0.2605   -0.9598 N   0  0  0  0  0  0  0  0  0  0  0  0
    8.0459    1.2968    0.9640 N   0  0  0  0  0  0  0  0  0  0  0  0
   -7.6438    3.0205   -0.8622 N   0  0  0  0  0  0  0  0  0  0  0  0
   -0.9952   -0.6379    0.2816 C   0  0  1  0  0  0  0  0  0  0  0  0
   -0.0844   -1.0304   -0.8670 C   0  0  1  0  0  0  0  0  0  0  0  0
    1.2589   -0.5197   -0.3637 C   0  0  1  0  0  0  0  0  0  0  0  0
   -0.4316    0.7216    0.6613 C   0  0  0  0  0  0  0  0  0  0  0  0
    2.2440   -0.2207   -1.4798 C   0  0  0  0  0  0  0  0  0  0  0  0
   -3.2489   -0.5405    1.1051 C   0  0  0  0  0  0  0  0  0  0  0  0
   -4.7099   -0.4697    0.7486 C   0  0  0  0  0  0  0  0  0  0  0  0
    4.5459   -0.5848   -0.6284 C   0  0  0  0  0  0  0  0  0  0  0  0
   -5.2627    0.7303    0.3010 C   0  0  0  0  0  0  0  0  0  0  0  0
   -5.5107   -1.6060    0.8649 C   0  0  0  0  0  0  0  0  0  0  0  0
    5.7614    0.0676   -0.0771 C   0  0  0  0  0  0  0  0  0  0  0  0
   -6.6162    0.7941   -0.0302 C   0  0  0  0  0  0  0  0  0  0  0  0
   -6.8642   -1.5423    0.5333 C   0  0  0  0  0  0  0  0  0  0  0  0
   -7.4170   -0.3422    0.0860 C   0  0  0  0  0  0  0  0  0  0  0  0
    6.6040   -0.6347    0.7775 C   0  0  0  0  0  0  0  0  0  0  0  0
    6.0599    1.3838   -0.4119 C   0  0  0  0  0  0  0  0  0  0  0  0
   -7.1831    2.0226   -0.4893 C   0  0  0  0  0  0  0  0  0  0  0  0
    7.7232    0.0193    1.2666 C   0  0  0  0  0  0  0  0  0  0  0  0
    7.2036    1.9475    0.1304 C   0  0  0  0  0  0  0  0  0  0  0  0
   -0.8400   -1.3566    1.0987 H   0  0  0  0  0  0  0  0  0  0  0  0
   -0.3780   -0.5235   -1.7947 H   0  0  0  0  0  0  0  0  0  0  0  0
    1.7070   -1.2338    0.3397 H   0  0  0  0  0  0  0  0  0  0  0  0
   -0.8626    1.5332    0.0636 H   0  0  0  0  0  0  0  0  0  0  0  0
   -0.5763    0.9586    1.7196 H   0  0  0  0  0  0  0  0  0  0  0  0
    1.8580    0.5703   -2.1322 H   0  0  0  0  0  0  0  0  0  0  0  0
    2.4234   -1.1147   -2.0866 H   0  0  0  0  0  0  0  0  0  0  0  0
   -2.6373   -1.4183   -0.6225 H   0  0  0  0  0  0  0  0  0  0  0  0
   -3.0092    0.3348    1.7224 H   0  0  0  0  0  0  0  0  0  0  0  0
   -3.0708   -1.4208    1.7365 H   0  0  0  0  0  0  0  0  0  0  0  0
    0.1940   -2.8682   -0.2705 H   0  0  0  0  0  0  0  0  0  0  0  0
    3.5541    1.2562   -0.7765 H   0  0  0  0  0  0  0  0  0  0  0  0
   -4.6352    1.6148    0.2116 H   0  0  0  0  0  0  0  0  0  0  0  0
   -5.0933   -2.5482    1.2098 H   0  0  0  0  0  0  0  0  0  0  0  0
   -7.4875   -2.4272    0.6231 H   0  0  0  0  0  0  0  0  0  0  0  0
   -8.4737   -0.3086   -0.1686 H   0  0  0  0  0  0  0  0  0  0  0  0
    6.4050   -1.6609    1.0671 H   0  0  0  0  0  0  0  0  0  0  0  0
    5.4594    1.9747   -1.0939 H   0  0  0  0  0  0  0  0  0  0  0  0
    8.4116   -0.4839    1.9376 H   0  0  0  0  0  0  0  0  0  0  0  0
    7.4850    2.9688   -0.1047 H   0  0  0  0  0  0  0  0  0  0  0  0
  1 10  1  0  0  0  0
  1 11  1  0  0  0  0
  2  9  1  0  0  0  0
  2 37  1  0  0  0  0
  3 15  2  0  0  0  0
  4  8  1  0  0  0  0
  4 13  1  0  0  0  0
  4 34  1  0  0  0  0
  5 12  1  0  0  0  0
  5 15  1  0  0  0  0
  5 38  1  0  0  0  0
  6 25  2  0  0  0  0
  6 26  1  0  0  0  0
  7 24  3  0  0  0  0
  8  9  1  0  0  0  0
  8 11  1  0  0  0  0
  8 27  1  0  0  0  0
  9 10  1  0  0  0  0
  9 28  1  0  0  0  0
 10 12  1  0  0  0  0
 10 29  1  0  0  0  0
 11 30  1  0  0  0  0
 11 31  1  0  0  0  0
 12 32  1  0  0  0  0
 12 33  1  0  0  0  0
 13 14  1  0  0  0  0
 13 35  1  0  0  0  0
 13 36  1  0  0  0  0
 14 16  2  0  0  0  0
 14 17  1  0  0  0  0
 15 18  1  0  0  0  0
 16 19  1  0  0  0  0
 16 39  1  0  0  0  0
 17 20  2  0  0  0  0
 17 40  1  0  0  0  0
 18 22  2  0  0  0  0
 18 23  1  0  0  0  0
 19 21  2  0  0  0  0
 19 24  1  0  0  0  0
 20 21  1  0  0  0  0
 20 41  1  0  0  0  0
 21 42  1  0  0  0  0
 22 25  1  0  0  0  0
 22 43  1  0  0  0  0
 23 26  2  0  0  0  0
 23 44  1  0  0  0  0
 25 45  1  0  0  0  0
 26 46  1  0  0  0  0
M  END
> <PUBCHEM_COMPOUND_CID>
75536802

> <PUBCHEM_CONFORMER_RMSD>
1.2

> <PUBCHEM_CONFORMER_DIVERSEORDER>
1
60
30
118
31
82
10
59
15
16
33
84
100
4
79
27
119
65
50
21
94
75
111
2
19
105
17
86
36
121
12
53
69
38
63
67
24
45
37
68
64
43
99
56
42
34
48
76
115
87
46
55
96
78
80
25
106
112
39
32
49
104
83
41
40
61
54
92
90
74
81
101
77
52
114
18
103
102
66
51
109
28
5
14
35
47
72
20
22
88
26
73
107
13
117
89
93
70
85
44
97
95
71
110
113
58
8
120
23
62
29
108
7
57
91
11
98
3
6
9
116

> <PUBCHEM_MMFF94_PARTIAL_CHARGES>
37
1 -0.56
10 0.28
11 0.28
12 0.3
13 0.41
14 -0.14
15 0.54
16 -0.15
17 -0.15
18 0.09
19 0.07
2 -0.68
20 -0.15
21 -0.15
22 -0.15
23 -0.15
24 0.48
25 0.16
26 0.16
3 -0.57
34 0.36
37 0.4
38 0.37
39 0.15
4 -0.9
40 0.15
41 0.15
42 0.15
43 0.15
44 0.15
45 0.15
46 0.15
5 -0.73
6 -0.62
7 -0.56
8 0.27
9 0.28

> <PUBCHEM_EFFECTIVE_ROTOR_COUNT>
8

> <PUBCHEM_PHARMACOPHORE_FEATURES>
12
1 1 acceptor
1 2 acceptor
1 2 donor
1 3 acceptor
1 4 cation
1 4 donor
1 5 donor
1 6 acceptor
1 7 acceptor
5 1 8 9 10 11 rings
6 14 16 17 19 20 21 rings
6 6 18 22 23 25 26 rings

> <PUBCHEM_HEAVY_ATOM_COUNT>
26

> <PUBCHEM_ATOM_DEF_STEREO_COUNT>
3

> <PUBCHEM_ATOM_UDEF_STEREO_COUNT>
0

> <PUBCHEM_BOND_DEF_STEREO_COUNT>
0

> <PUBCHEM_BOND_UDEF_STEREO_COUNT>
0

> <PUBCHEM_ISOTOPIC_ATOM_COUNT>
0

> <PUBCHEM_COMPONENT_COUNT>
1

> <PUBCHEM_CACTVS_TAUTO_COUNT>
2

> <PUBCHEM_CONFORMER_ID>
048099A200000001

> <PUBCHEM_MMFF94_ENERGY>
58.8486

> <PUBCHEM_FEATURE_SELFOVERLAP>
60.898

> <PUBCHEM_SHAPE_FINGERPRINT>
10 15 18412265064574709746
10429389 143 18272087192983146417
10533779 1 16414052284289867936
10835480 77 18341051831184842181
11135926 11 14923939047023130001
11315181 36 17775570836920306227
11524674 6 14129062538670761385
11719270 70 18343868805465901198
125118 31 18333454248639253980
12664476 115 18413670215493775361
12838862 33 17489576875840880408
13673619 4 13406787844310648582
13885169 127 18186519908528120345
13914758 101 17894915117884148417
14251764 18 18186521037793380302
14344974 52 10519692420574423690
14347424 109 17095807711322932228
14429380 56 16630516350283682168
14729087 3 18409166593716062013
14856354 85 10592043558014341923
15131766 46 17828492702156024372
15183329 4 14273452587209654818
15849732 13 18342741840274585900
17093844 174 18260831497582762601
1754911 235 14405187265624536808
18365409 1 14548441592147294924
20105231 36 11674878879398842824
20554085 129 17989197145187539346
21130935 74 18113338595915845835
21150785 3 13110966431232261672
21792934 111 18270955753274834456
22224240 67 17346600789779056878
23035841 295 12829206693683923587
23081809 10 16805899484110343151
23424782 7 10951758681817767556
246663 6 12107786298452250368
3009799 131 18343867710127388665
34797466 226 13398636060964994562
4093350 32 17530960233756217690
4169191 19 18060145336145057609
444735 82 18261115235712729228
445580 167 14405180677218408248
54039377 194 12822999960174877789
5470011 282 9511461135307172018
5758199 1 15985114015299812655
636775 72 18337953394971561973
99344 41 18261110772566157027
999808 66 9799401240400057357

> <PUBCHEM_SHAPE_MULTIPOLES>
497.54
28.06
2.04
1.12
4.32
0.83
-0.05
11.6
5.25
-2.67
-0.43
0.8
-0.16
1.82

> <PUBCHEM_SHAPE_SELFOVERLAP>
1057.6

> <PUBCHEM_SHAPE_VOLUME>
273.9

> <PUBCHEM_COORDINATE_TYPE>
2
5
10

$$$$
