75536078
  -OEChem-12032416293D

 43 45  0     1  0  0  0  0  0999 V2000
    1.0689    3.4820   -1.0093 O   0  0  0  0  0  0  0  0  0  0  0  0
    3.5659    2.3435   -0.9172 O   0  0  0  0  0  0  0  0  0  0  0  0
   -0.6820   -0.7799   -1.2469 O   0  0  0  0  0  0  0  0  0  0  0  0
   -0.4175    1.0301    0.1793 N   0  0  0  0  0  0  0  0  0  0  0  0
    2.1543   -3.2970    0.9686 N   0  0  0  0  0  0  0  0  0  0  0  0
   -3.5785   -0.4755   -0.9434 N   0  0  0  0  0  0  0  0  0  0  0  0
   -4.8080   -0.4265   -0.4027 N   0  0  0  0  0  0  0  0  0  0  0  0
    1.8645    0.4855    0.9737 C   0  0  2  0  0  0  0  0  0  0  0  0
    0.9894    1.2307   -0.0593 C   0  0  2  0  0  0  0  0  0  0  0  0
    1.3954    2.6929    0.1191 C   0  0  1  0  0  0  0  0  0  0  0  0
    3.0830    1.4072    1.2382 C   0  0  0  0  0  0  0  0  0  0  0  0
    2.9045    2.6112    0.3155 C   0  0  1  0  0  0  0  0  0  0  0  0
    2.2272   -0.9189    0.5394 C   0  0  0  0  0  0  0  0  0  0  0  0
    2.9385   -1.1449   -0.6337 C   0  0  0  0  0  0  0  0  0  0  0  0
   -1.1459    0.0259   -0.4444 C   0  0  0  0  0  0  0  0  0  0  0  0
    1.8618   -2.0189    1.2985 C   0  0  0  0  0  0  0  0  0  0  0  0
   -2.5926   -0.0320   -0.1117 C   0  0  0  0  0  0  0  0  0  0  0  0
    3.2582   -2.4458   -1.0066 C   0  0  0  0  0  0  0  0  0  0  0  0
    2.8468   -3.4775   -0.1783 C   0  0  0  0  0  0  0  0  0  0  0  0
   -3.2208    0.3330    1.0539 C   0  0  0  0  0  0  0  0  0  0  0  0
   -4.5831    0.0682    0.8175 C   0  0  0  0  0  0  0  0  0  0  0  0
   -3.4192   -0.9699   -2.2913 C   0  0  0  0  0  0  0  0  0  0  0  0
   -5.7106    0.2766    1.7413 C   0  0  0  0  0  0  0  0  0  0  0  0
    1.3110    0.4134    1.9217 H   0  0  0  0  0  0  0  0  0  0  0  0
    1.1987    0.9182   -1.0899 H   0  0  0  0  0  0  0  0  0  0  0  0
    0.9146    3.1284    1.0042 H   0  0  0  0  0  0  0  0  0  0  0  0
    3.0407    1.7441    2.2817 H   0  0  0  0  0  0  0  0  0  0  0  0
    4.0439    0.9028    1.0915 H   0  0  0  0  0  0  0  0  0  0  0  0
    3.3208    3.5351    0.7279 H   0  0  0  0  0  0  0  0  0  0  0  0
   -0.8787    1.6378    0.8498 H   0  0  0  0  0  0  0  0  0  0  0  0
    1.4395    4.3689   -0.8624 H   0  0  0  0  0  0  0  0  0  0  0  0
    4.5161    2.2628   -0.7273 H   0  0  0  0  0  0  0  0  0  0  0  0
    3.2559   -0.3243   -1.2692 H   0  0  0  0  0  0  0  0  0  0  0  0
    1.3048   -1.9099    2.2238 H   0  0  0  0  0  0  0  0  0  0  0  0
    3.8125   -2.6458   -1.9164 H   0  0  0  0  0  0  0  0  0  0  0  0
    3.0712   -4.5102   -0.4244 H   0  0  0  0  0  0  0  0  0  0  0  0
   -2.7646    0.7291    1.9500 H   0  0  0  0  0  0  0  0  0  0  0  0
   -2.9425   -1.9518   -2.2437 H   0  0  0  0  0  0  0  0  0  0  0  0
   -4.4015   -1.0577   -2.7637 H   0  0  0  0  0  0  0  0  0  0  0  0
   -2.8086   -0.2625   -2.8577 H   0  0  0  0  0  0  0  0  0  0  0  0
   -6.4356    0.9779    1.3153 H   0  0  0  0  0  0  0  0  0  0  0  0
   -6.2245   -0.6687    1.9443 H   0  0  0  0  0  0  0  0  0  0  0  0
   -5.3714    0.6858    2.6985 H   0  0  0  0  0  0  0  0  0  0  0  0
  1 10  1  0  0  0  0
  1 31  1  0  0  0  0
  2 12  1  0  0  0  0
  2 32  1  0  0  0  0
  3 15  2  0  0  0  0
  4  9  1  0  0  0  0
  4 15  1  0  0  0  0
  4 30  1  0  0  0  0
  5 16  1  0  0  0  0
  5 19  2  0  0  0  0
  6  7  1  0  0  0  0
  6 17  1  0  0  0  0
  6 22  1  0  0  0  0
  7 21  2  0  0  0  0
  8  9  1  0  0  0  0
  8 11  1  0  0  0  0
  8 13  1  0  0  0  0
  8 24  1  0  0  0  0
  9 10  1  0  0  0  0
  9 25  1  0  0  0  0
 10 12  1  0  0  0  0
 10 26  1  0  0  0  0
 11 12  1  0  0  0  0
 11 27  1  0  0  0  0
 11 28  1  0  0  0  0
 12 29  1  0  0  0  0
 13 14  1  0  0  0  0
 13 16  2  0  0  0  0
 14 18  2  0  0  0  0
 14 33  1  0  0  0  0
 15 17  1  0  0  0  0
 16 34  1  0  0  0  0
 17 20  2  0  0  0  0
 18 19  1  0  0  0  0
 18 35  1  0  0  0  0
 19 36  1  0  0  0  0
 20 21  1  0  0  0  0
 20 37  1  0  0  0  0
 21 23  1  0  0  0  0
 22 38  1  0  0  0  0
 22 39  1  0  0  0  0
 22 40  1  0  0  0  0
 23 41  1  0  0  0  0
 23 42  1  0  0  0  0
 23 43  1  0  0  0  0
M  END
> <PUBCHEM_COMPOUND_CID>
75536078

> <PUBCHEM_CONFORMER_RMSD>
0.8

> <PUBCHEM_CONFORMER_DIVERSEORDER>
1
47
7
25
12
30
37
42
44
34
3
2
46
21
38
29
41
5
20
43
26
13
4
45
15
27
17
8
19
9
11
36
23
40
22
18
14
33
31
35
10
16
6
32
28
39
24

> <PUBCHEM_MMFF94_PARTIAL_CHARGES>
30
1 -0.68
10 0.28
12 0.28
13 -0.14
14 -0.15
15 0.71
16 0.16
17 -0.24
18 -0.15
19 0.16
2 -0.68
20 -0.15
21 0.11
22 0.26
23 0.18
3 -0.57
30 0.37
31 0.4
32 0.4
33 0.15
34 0.15
35 0.15
36 0.15
37 0.15
4 -0.73
5 -0.62
6 0.31
7 -0.71
8 0.14
9 0.3

> <PUBCHEM_EFFECTIVE_ROTOR_COUNT>
5

> <PUBCHEM_PHARMACOPHORE_FEATURES>
11
1 1 acceptor
1 1 donor
1 2 acceptor
1 2 donor
1 3 acceptor
1 4 donor
1 5 acceptor
1 7 acceptor
5 6 7 17 20 21 rings
5 8 9 10 11 12 rings
6 5 13 14 16 18 19 rings

> <PUBCHEM_HEAVY_ATOM_COUNT>
23

> <PUBCHEM_ATOM_DEF_STEREO_COUNT>
4

> <PUBCHEM_ATOM_UDEF_STEREO_COUNT>
0

> <PUBCHEM_BOND_DEF_STEREO_COUNT>
0

> <PUBCHEM_BOND_UDEF_STEREO_COUNT>
0

> <PUBCHEM_ISOTOPIC_ATOM_COUNT>
0

> <PUBCHEM_COMPONENT_COUNT>
1

> <PUBCHEM_CACTVS_TAUTO_COUNT>
2

> <PUBCHEM_CONFORMER_ID>
048096CE00000001

> <PUBCHEM_MMFF94_ENERGY>
54.814

> <PUBCHEM_FEATURE_SELFOVERLAP>
55.834

> <PUBCHEM_SHAPE_FINGERPRINT>
10382601 240 18341317960201083034
11140007 195 16486416460554169630
12107183 9 17983025449234534977
12553582 1 18267298729586701286
12644460 14 18342186569770162345
13009979 54 17631741460614958578
13140716 1 18122897896262997200
13533116 47 18342457067491245339
14178342 30 17984402294815249482
14844126 61 17184161969717358914
14863182 85 18409448116063929032
15806764 133 17822008679959237229
15842332 3 17917137395107086119
17138139 8 17049890086411082687
17492 89 18343299280286821223
17818456 19 17702389442661194921
17980427 26 17129556172618283880
1813 80 18127136277233126902
20645477 70 18336250306639668271
20739085 24 18342186518183237765
20832881 197 18044378223549435139
21054139 6 17841131553139061614
21421861 104 18341613685526003592
2255824 54 18412261752991452726
23557571 272 15719381824363121972
23559900 14 17603597317861730351
23598291 2 18202278104608112791
25147074 1 17918269883778610487
3060560 45 18263921215071805460
3421961 26 18338801117523077530
4409770 3 17184190544086584796
474 4 18266171910551082425
6049 1 17822003173589383573
633830 44 18127416875983917597
7097593 13 18343860022362567579
7364860 26 18341893008919114840
8272917 22 18409453613078801025
8509985 295 16916782934317087859
9841814 1 18262230015521390162

> <PUBCHEM_SHAPE_MULTIPOLES>
435.8
9.33
3.69
1.54
14.13
0.03
0.24
-1.65
-1.64
-6.44
0.36
1.17
-0.35
-0.88

> <PUBCHEM_SHAPE_SELFOVERLAP>
932.677

> <PUBCHEM_SHAPE_VOLUME>
242.1

> <PUBCHEM_COORDINATE_TYPE>
2
5
10

$$$$
