56774928
  -OEChem-12032416403D

 54 56  0     1  0  0  0  0  0999 V2000
   -2.8336   -2.0267   -1.6365 O   0  0  0  0  0  0  0  0  0  0  0  0
   -2.4821   -0.5546    2.2907 O   0  0  0  0  0  0  0  0  0  0  0  0
   -5.0410    2.2420   -0.0901 O   0  0  0  0  0  0  0  0  0  0  0  0
   -6.1233   -2.0405   -0.1471 O   0  0  0  0  0  0  0  0  0  0  0  0
    4.4202   -1.8393   -0.0756 O   0  0  0  0  0  0  0  0  0  0  0  0
   -4.3716   -0.5431    0.1784 N   0  0  0  0  0  0  0  0  0  0  0  0
    3.4395    0.2701    0.2680 N   0  0  0  0  0  0  0  0  0  0  0  0
    7.3242    1.8500    0.3308 N   0  0  0  0  0  0  0  0  0  0  0  0
   -2.9537   -0.2404   -0.0531 C   0  0  1  0  0  0  0  0  0  0  0  0
   -2.0752   -0.9465    0.9839 C   0  0  1  0  0  0  0  0  0  0  0  0
   -2.5595   -0.6407   -1.4698 C   0  0  0  0  0  0  0  0  0  0  0  0
   -5.0642    0.2226    1.2060 C   0  0  0  0  0  0  0  0  0  0  0  0
   -4.9950   -1.6322   -0.4277 C   0  0  0  0  0  0  0  0  0  0  0  0
   -0.6150   -0.6240    0.7938 C   0  0  0  0  0  0  0  0  0  0  0  0
   -4.2192   -2.2795   -1.5693 C   0  0  0  0  0  0  0  0  0  0  0  0
   -5.8945    1.3411    0.6034 C   0  0  0  0  0  0  0  0  0  0  0  0
   -0.1793    0.6997    0.8515 C   0  0  0  0  0  0  0  0  0  0  0  0
    0.3008   -1.6500    0.5605 C   0  0  0  0  0  0  0  0  0  0  0  0
    1.1720    0.9976    0.6762 C   0  0  0  0  0  0  0  0  0  0  0  0
    1.6521   -1.3523    0.3852 C   0  0  0  0  0  0  0  0  0  0  0  0
    2.0877   -0.0284    0.4431 C   0  0  0  0  0  0  0  0  0  0  0  0
   -5.7744    3.3101   -0.6736 C   0  0  0  0  0  0  0  0  0  0  0  0
   -4.8140    4.2317   -1.3948 C   0  0  0  0  0  0  0  0  0  0  0  0
    4.4949   -0.6194    0.0267 C   0  0  0  0  0  0  0  0  0  0  0  0
    5.8311    0.0091   -0.1450 C   0  0  0  0  0  0  0  0  0  0  0  0
    6.8205   -0.6071   -0.9031 C   0  0  0  0  0  0  0  0  0  0  0  0
    6.1304    1.2259    0.4461 C   0  0  0  0  0  0  0  0  0  0  0  0
    8.0614    0.0038   -1.0450 C   0  0  0  0  0  0  0  0  0  0  0  0
    8.2610    1.2210   -0.4138 C   0  0  0  0  0  0  0  0  0  0  0  0
   -2.8498    0.8475    0.0325 H   0  0  0  0  0  0  0  0  0  0  0  0
   -2.2331   -2.0306    0.9355 H   0  0  0  0  0  0  0  0  0  0  0  0
   -3.1280   -0.0672   -2.2137 H   0  0  0  0  0  0  0  0  0  0  0  0
   -1.5014   -0.4679   -1.6843 H   0  0  0  0  0  0  0  0  0  0  0  0
   -4.3519    0.6696    1.9008 H   0  0  0  0  0  0  0  0  0  0  0  0
   -5.7170   -0.4497    1.7733 H   0  0  0  0  0  0  0  0  0  0  0  0
   -4.3501   -3.3638   -1.4897 H   0  0  0  0  0  0  0  0  0  0  0  0
   -4.6824   -1.9582   -2.5097 H   0  0  0  0  0  0  0  0  0  0  0  0
   -6.4216    1.8759    1.4019 H   0  0  0  0  0  0  0  0  0  0  0  0
   -6.6356    0.9314   -0.0933 H   0  0  0  0  0  0  0  0  0  0  0  0
   -2.1900    0.3567    2.4584 H   0  0  0  0  0  0  0  0  0  0  0  0
   -0.8718    1.5161    1.0363 H   0  0  0  0  0  0  0  0  0  0  0  0
   -0.0253   -2.6856    0.5120 H   0  0  0  0  0  0  0  0  0  0  0  0
    1.4974    2.0338    0.7250 H   0  0  0  0  0  0  0  0  0  0  0  0
    2.2979   -2.2008    0.2087 H   0  0  0  0  0  0  0  0  0  0  0  0
   -6.5067    2.9118   -1.3848 H   0  0  0  0  0  0  0  0  0  0  0  0
   -6.3035    3.8671    0.1077 H   0  0  0  0  0  0  0  0  0  0  0  0
    3.6473    1.2645    0.2878 H   0  0  0  0  0  0  0  0  0  0  0  0
   -5.3464    5.0670   -1.8579 H   0  0  0  0  0  0  0  0  0  0  0  0
   -4.2669    3.6868   -2.1713 H   0  0  0  0  0  0  0  0  0  0  0  0
   -4.0671    4.6301   -0.7001 H   0  0  0  0  0  0  0  0  0  0  0  0
    6.6422   -1.5600   -1.3938 H   0  0  0  0  0  0  0  0  0  0  0  0
    5.4327    1.7603    1.0819 H   0  0  0  0  0  0  0  0  0  0  0  0
    8.8473   -0.4574   -1.6320 H   0  0  0  0  0  0  0  0  0  0  0  0
    9.2112    1.7387   -0.4936 H   0  0  0  0  0  0  0  0  0  0  0  0
  1 11  1  0  0  0  0
  1 15  1  0  0  0  0
  2 10  1  0  0  0  0
  2 40  1  0  0  0  0
  3 16  1  0  0  0  0
  3 22  1  0  0  0  0
  4 13  2  0  0  0  0
  5 24  2  0  0  0  0
  6  9  1  0  0  0  0
  6 12  1  0  0  0  0
  6 13  1  0  0  0  0
  7 21  1  0  0  0  0
  7 24  1  0  0  0  0
  7 47  1  0  0  0  0
  8 27  1  0  0  0  0
  8 29  2  0  0  0  0
  9 10  1  0  0  0  0
  9 11  1  0  0  0  0
  9 30  1  0  0  0  0
 10 14  1  0  0  0  0
 10 31  1  0  0  0  0
 11 32  1  0  0  0  0
 11 33  1  0  0  0  0
 12 16  1  0  0  0  0
 12 34  1  0  0  0  0
 12 35  1  0  0  0  0
 13 15  1  0  0  0  0
 14 17  2  0  0  0  0
 14 18  1  0  0  0  0
 15 36  1  0  0  0  0
 15 37  1  0  0  0  0
 16 38  1  0  0  0  0
 16 39  1  0  0  0  0
 17 19  1  0  0  0  0
 17 41  1  0  0  0  0
 18 20  2  0  0  0  0
 18 42  1  0  0  0  0
 19 21  2  0  0  0  0
 19 43  1  0  0  0  0
 20 21  1  0  0  0  0
 20 44  1  0  0  0  0
 22 23  1  0  0  0  0
 22 45  1  0  0  0  0
 22 46  1  0  0  0  0
 23 48  1  0  0  0  0
 23 49  1  0  0  0  0
 23 50  1  0  0  0  0
 24 25  1  0  0  0  0
 25 26  1  0  0  0  0
 25 27  2  0  0  0  0
 26 28  2  0  0  0  0
 26 51  1  0  0  0  0
 27 52  1  0  0  0  0
 28 29  1  0  0  0  0
 28 53  1  0  0  0  0
 29 54  1  0  0  0  0
M  END
> <PUBCHEM_COMPOUND_CID>
56774928

> <PUBCHEM_CONFORMER_RMSD>
1

> <PUBCHEM_CONFORMER_DIVERSEORDER>
1
91
39
45
68
37
77
86
65
42
30
76
67
101
35
90
87
80
64
50
82
96
104
33
94
31
62
92
93
70
88
38
11
84
18
100
40
41
14
24
60
66
61
32
107
89
36
73
71
44
51
75
46
78
72
20
43
9
27
69
3
85
17
105
57
53
95
99
48
47
58
6
28
25
103
19
98
2
54
26
97
102
79
15
106
29
83
16
22
23
55
34
59
8
21
10
52
7
49
63
74
4
12
13
56
5
81

> <PUBCHEM_MMFF94_PARTIAL_CHARGES>
38
1 -0.56
10 0.42
11 0.28
12 0.3
13 0.57
14 -0.14
15 0.34
16 0.28
17 -0.15
18 -0.15
19 -0.15
2 -0.68
20 -0.15
21 0.12
22 0.28
24 0.54
25 0.09
26 -0.15
27 0.16
28 -0.15
29 0.16
3 -0.56
4 -0.57
40 0.4
41 0.15
42 0.15
43 0.15
44 0.15
47 0.37
5 -0.57
51 0.15
52 0.15
53 0.15
54 0.15
6 -0.66
7 -0.55
8 -0.62
9 0.3

> <PUBCHEM_EFFECTIVE_ROTOR_COUNT>
10

> <PUBCHEM_PHARMACOPHORE_FEATURES>
11
1 1 acceptor
1 2 acceptor
1 2 donor
1 3 acceptor
1 4 acceptor
1 5 acceptor
1 7 donor
1 8 acceptor
6 1 6 9 11 13 15 rings
6 14 17 18 19 20 21 rings
6 8 25 26 27 28 29 rings

> <PUBCHEM_HEAVY_ATOM_COUNT>
29

> <PUBCHEM_ATOM_DEF_STEREO_COUNT>
2

> <PUBCHEM_ATOM_UDEF_STEREO_COUNT>
0

> <PUBCHEM_BOND_DEF_STEREO_COUNT>
0

> <PUBCHEM_BOND_UDEF_STEREO_COUNT>
0

> <PUBCHEM_ISOTOPIC_ATOM_COUNT>
0

> <PUBCHEM_COMPONENT_COUNT>
1

> <PUBCHEM_CACTVS_TAUTO_COUNT>
4

> <PUBCHEM_CONFORMER_ID>
0362511000000001

> <PUBCHEM_MMFF94_ENERGY>
86.3363

> <PUBCHEM_FEATURE_SELFOVERLAP>
55.825

> <PUBCHEM_SHAPE_FINGERPRINT>
10066227 112 18342737386351847224
10299344 5 17560807662556539798
10816530 145 16009039388642056477
11135609 187 18342176665992952418
11135926 11 16988568974320540982
11315181 36 17531530979022526299
11524674 6 13470693667502988948
12082328 90 18408323297850846958
12104220 1 17894918460349744075
12236239 1 17989210365064759858
12516196 113 17917432060155060256
12895837 130 18407761426160992557
12988421 55 16370723708343965779
13690498 29 17916574475377074967
13782708 43 11455884759227406640
14856354 85 18335989774208901279
15183329 4 18272365369414125110
15419008 91 17846200169295981552
1577012 14 18334855000672369018
16994733 274 18040996211592428408
18927931 339 15267346240750370171
20511986 3 18131061641645723810
21150785 3 18335982077574512162
21267235 1 17988645263501879019
21424621 283 17894915083645599752
21756936 100 18040437677149704345
23081809 10 18113890551237740138
23559900 14 16630236004614273730
2838139 119 18261114110119541272
4098825 35 18337390448689777774
44249763 50 18270662221597482240
44802255 64 18272088275900143063
4938544 92 18334293141962459445
563151 97 18335134267872748859
636775 72 18260831514272989076
9831232 110 18129668470641804838
9953998 17 7925915894104201781

> <PUBCHEM_SHAPE_MULTIPOLES>
552.52
22.67
3.02
1.36
35.92
3.1
-0.07
9.96
-5.38
-6.9
-1.45
-1.38
-0.21
0.55

> <PUBCHEM_SHAPE_SELFOVERLAP>
1166.478

> <PUBCHEM_SHAPE_VOLUME>
304.4

> <PUBCHEM_COORDINATE_TYPE>
2
5
10

$$$$
