75367149
  -OEChem-12032416383D

 46 49  0     1  0  0  0  0  0999 V2000
   -5.1604    3.5016    2.0559 Cl  0  0  0  0  0  0  0  0  0  0  0  0
   -3.3708    1.3065    1.1637 S   0  0  0  0  0  0  0  0  0  0  0  0
    0.7865   -4.2189    1.6800 O   0  0  0  0  0  0  0  0  0  0  0  0
    4.7249    3.4976    0.1930 O   0  0  0  0  0  0  0  0  0  0  0  0
    1.2927   -1.8451    0.1606 N   0  0  1  0  0  0  0  0  0  0  0  0
   -1.6766   -0.9713    0.0053 N   0  0  0  0  0  0  0  0  0  0  0  0
   -1.6473   -2.1702   -1.8640 N   0  0  0  0  0  0  0  0  0  0  0  0
    0.1311   -2.7209   -0.1378 C   0  0  1  0  0  0  0  0  0  0  0  0
    2.3694   -2.6254    0.7965 C   0  0  0  0  0  0  0  0  0  0  0  0
   -0.3030   -3.4757    1.1340 C   0  0  0  0  0  0  0  0  0  0  0  0
    1.8185   -1.1943   -1.0451 C   0  0  0  0  0  0  0  0  0  0  0  0
    1.8556   -3.3455    2.0358 C   0  0  0  0  0  0  0  0  0  0  0  0
   -1.0684   -1.9718   -0.7006 C   0  0  0  0  0  0  0  0  0  0  0  0
    2.5917    0.0550   -0.7159 C   0  0  0  0  0  0  0  0  0  0  0  0
   -2.7092   -0.5018   -0.7567 C   0  0  0  0  0  0  0  0  0  0  0  0
   -2.6710   -1.2569   -1.9051 C   0  0  0  0  0  0  0  0  0  0  0  0
    1.9143    1.2254   -0.3736 C   0  0  0  0  0  0  0  0  0  0  0  0
    3.9861    0.0415   -0.7526 C   0  0  0  0  0  0  0  0  0  0  0  0
   -3.5726    0.5405   -0.3545 C   0  0  0  0  0  0  0  0  0  0  0  0
    2.6311    2.3822   -0.0686 C   0  0  0  0  0  0  0  0  0  0  0  0
    4.7030    1.1985   -0.4477 C   0  0  0  0  0  0  0  0  0  0  0  0
    4.0255    2.3688   -0.1056 C   0  0  0  0  0  0  0  0  0  0  0  0
   -4.6316    1.0659   -1.0618 C   0  0  0  0  0  0  0  0  0  0  0  0
   -5.2860    2.1111   -0.3481 C   0  0  0  0  0  0  0  0  0  0  0  0
   -4.7023    2.3447    0.8777 C   0  0  0  0  0  0  0  0  0  0  0  0
    3.9687    4.6583    0.5352 C   0  0  0  0  0  0  0  0  0  0  0  0
    0.4439   -3.4672   -0.8824 H   0  0  0  0  0  0  0  0  0  0  0  0
    3.1945   -1.9757    1.1060 H   0  0  0  0  0  0  0  0  0  0  0  0
    2.7665   -3.3689    0.0926 H   0  0  0  0  0  0  0  0  0  0  0  0
   -1.0988   -4.1909    0.8957 H   0  0  0  0  0  0  0  0  0  0  0  0
   -0.6980   -2.8030    1.9065 H   0  0  0  0  0  0  0  0  0  0  0  0
    1.0115   -0.8757   -1.7172 H   0  0  0  0  0  0  0  0  0  0  0  0
    2.4227   -1.8845   -1.6499 H   0  0  0  0  0  0  0  0  0  0  0  0
    2.6536   -3.9563    2.4699 H   0  0  0  0  0  0  0  0  0  0  0  0
    1.5201   -2.6414    2.8070 H   0  0  0  0  0  0  0  0  0  0  0  0
   -1.4066   -0.6368    0.9212 H   0  0  0  0  0  0  0  0  0  0  0  0
   -3.3236   -1.1974   -2.7647 H   0  0  0  0  0  0  0  0  0  0  0  0
    0.8280    1.2474   -0.3416 H   0  0  0  0  0  0  0  0  0  0  0  0
    4.5265   -0.8634   -1.0174 H   0  0  0  0  0  0  0  0  0  0  0  0
    2.0419    3.2557    0.1889 H   0  0  0  0  0  0  0  0  0  0  0  0
    5.7890    1.1820   -0.4779 H   0  0  0  0  0  0  0  0  0  0  0  0
   -4.9359    0.7285   -2.0450 H   0  0  0  0  0  0  0  0  0  0  0  0
   -6.1415    2.6602   -0.7208 H   0  0  0  0  0  0  0  0  0  0  0  0
    4.6844    5.4607    0.7424 H   0  0  0  0  0  0  0  0  0  0  0  0
    3.3873    4.5043    1.4506 H   0  0  0  0  0  0  0  0  0  0  0  0
    3.3457    4.9937   -0.3009 H   0  0  0  0  0  0  0  0  0  0  0  0
  1 25  1  0  0  0  0
  2 19  1  0  0  0  0
  2 25  1  0  0  0  0
  3 10  1  0  0  0  0
  3 12  1  0  0  0  0
  4 22  1  0  0  0  0
  4 26  1  0  0  0  0
  5  8  1  0  0  0  0
  5  9  1  0  0  0  0
  5 11  1  0  0  0  0
  6 13  1  0  0  0  0
  6 15  1  0  0  0  0
  6 36  1  0  0  0  0
  7 13  2  0  0  0  0
  7 16  1  0  0  0  0
  8 10  1  0  0  0  0
  8 13  1  0  0  0  0
  8 27  1  0  0  0  0
  9 12  1  0  0  0  0
  9 28  1  0  0  0  0
  9 29  1  0  0  0  0
 10 30  1  0  0  0  0
 10 31  1  0  0  0  0
 11 14  1  0  0  0  0
 11 32  1  0  0  0  0
 11 33  1  0  0  0  0
 12 34  1  0  0  0  0
 12 35  1  0  0  0  0
 14 17  2  0  0  0  0
 14 18  1  0  0  0  0
 15 16  2  0  0  0  0
 15 19  1  0  0  0  0
 16 37  1  0  0  0  0
 17 20  1  0  0  0  0
 17 38  1  0  0  0  0
 18 21  2  0  0  0  0
 18 39  1  0  0  0  0
 19 23  2  0  0  0  0
 20 22  2  0  0  0  0
 20 40  1  0  0  0  0
 21 22  1  0  0  0  0
 21 41  1  0  0  0  0
 23 24  1  0  0  0  0
 23 42  1  0  0  0  0
 24 25  2  0  0  0  0
 24 43  1  0  0  0  0
 26 44  1  0  0  0  0
 26 45  1  0  0  0  0
 26 46  1  0  0  0  0
M  END
> <PUBCHEM_COMPOUND_CID>
75367149

> <PUBCHEM_CONFORMER_RMSD>
0.8

> <PUBCHEM_CONFORMER_DIVERSEORDER>
1
89
135
116
156
130
162
2
109
159
125
172
123
100
144
66
62
5
181
160
68
88
115
170
43
148
85
47
163
119
113
83
70
96
51
95
118
19
69
107
186
4
158
80
16
145
49
39
30
177
101
57
56
142
103
151
58
14
161
146
149
153
137
120
189
173
44
87
53
104
10
76
105
164
38
98
64
128
147
54
90
152
81
175
97
37
183
180
13
48
171
23
17
168
188
42
27
21
15
34
91
124
94
184
136
143
108
74
185
166
71
169
150
24
179
134
29
139
82
165
8
32
41
40
99
12
114
174
110
52
45
111
22
121
77
31
127
25
129
6
106
65
75
33
46
36
182
55
11
178
92
167
59
141
176
133
50
63
60
138
122
157
35
140
67
131
93
73
102
78
154
86
112
28
3
18
187
72
117
20
79
26
132
9
84
155
61
126
7

> <PUBCHEM_MMFF94_PARTIAL_CHARGES>
34
1 -0.12
10 0.28
11 0.41
12 0.28
13 0.01
14 -0.14
15 -0.15
16 0.08
17 -0.15
18 -0.15
19 0.04
2 -0.08
20 -0.15
21 -0.15
22 0.08
23 -0.15
24 -0.15
25 0.16
26 0.28
3 -0.56
36 0.27
37 0.15
38 0.15
39 0.15
4 -0.36
40 0.15
41 0.15
42 0.15
43 0.15
5 -0.81
6 0.03
7 -0.57
8 0.45
9 0.27

> <PUBCHEM_EFFECTIVE_ROTOR_COUNT>
6.2

> <PUBCHEM_PHARMACOPHORE_FEATURES>
9
1 3 acceptor
1 4 acceptor
1 5 cation
1 6 donor
3 6 7 13 cation
5 2 19 23 24 25 rings
5 6 7 13 15 16 rings
6 14 17 18 20 21 22 rings
6 3 5 8 9 10 12 rings

> <PUBCHEM_HEAVY_ATOM_COUNT>
26

> <PUBCHEM_ATOM_DEF_STEREO_COUNT>
1

> <PUBCHEM_ATOM_UDEF_STEREO_COUNT>
0

> <PUBCHEM_BOND_DEF_STEREO_COUNT>
0

> <PUBCHEM_BOND_UDEF_STEREO_COUNT>
0

> <PUBCHEM_ISOTOPIC_ATOM_COUNT>
0

> <PUBCHEM_COMPONENT_COUNT>
1

> <PUBCHEM_CACTVS_TAUTO_COUNT>
2

> <PUBCHEM_CONFORMER_ID>
047E02ED00000001

> <PUBCHEM_MMFF94_ENERGY>
54.6747

> <PUBCHEM_FEATURE_SELFOVERLAP>
45.673

> <PUBCHEM_SHAPE_FINGERPRINT>
10382601 240 18187928322361411646
10794284 68 16608028812050312746
10906281 52 18336271219674365014
10937287 8 18411701019040527261
1100329 8 18335414635196244690
12107183 9 18189314919158648800
12293681 160 17615377678394458903
12788726 201 17833254699019459035
13583140 156 18043256743522739675
13590594 115 17690848852372430466
13878862 14 17753590379267572213
14040222 75 17330823631123119388
14251764 38 18126562560250472288
14251764 75 18272381849605138465
14848178 96 18412822512353706908
14849402 71 18334298622092730810
14955137 171 18047471119525565562
15142526 21 18408044026402959579
15463212 79 18265886029175777329
15475509 8 17840879477741759870
15475509 84 17322670773624307630
16112460 7 18411697699680277704
21591340 35 18412822460993240096
22122407 14 17976829679832736425
22182937 141 18264494064323314246
23398203 216 17978811304138018097
23558518 356 18193560197059817494
23845131 108 18114181939110220387
283562 15 18047463710843934999
3552219 110 17175195495996853382
376196 1 18271242841520534956
38570 142 18338252465584505966
394222 165 18341051800940970259
4408954 64 15954170116531519075
469060 322 17897451816369984675
474 4 18335976480926118395
474144 1 18126565613808508377
5048184 11 18412825810930606317
5252454 2 18333732407473515940
57307002 182 18336256831058780209
57527295 17 18339374036866545174
5895379 119 17630326337631216146
59124914 9 18410013234817585804
633830 44 18411412956042959998
7288768 16 18189616210069613327
7970288 3 7925618982736447993
9849439 229 18261679284555032957
9981440 41 18053937631202814202

> <PUBCHEM_SHAPE_MULTIPOLES>
514.11
11.18
6.02
1.67
7.78
1.21
-0.37
15.24
-0.85
-5.04
-3.32
1.25
-1.02
-2.86

> <PUBCHEM_SHAPE_SELFOVERLAP>
1089.153

> <PUBCHEM_SHAPE_VOLUME>
290.8

> <PUBCHEM_COORDINATE_TYPE>
2
5
10

$$$$
