71693199
  -OEChem-12032416303D

 77 80  0     1  0  0  0  0  0999 V2000
   -3.7754    0.3784    1.4877 O   0  0  0  0  0  0  0  0  0  0  0  0
   -0.8763   -1.7371    0.6454 O   0  0  0  0  0  0  0  0  0  0  0  0
   -1.5940   -3.2737   -0.8727 O   0  0  0  0  0  0  0  0  0  0  0  0
    7.3570   -2.0344    0.3406 O   0  0  0  0  0  0  0  0  0  0  0  0
   -3.1442    1.7536   -0.2789 N   0  0  0  0  0  0  0  0  0  0  0  0
    3.4253    0.3075   -1.4014 N   0  0  0  0  0  0  0  0  0  0  0  0
    2.0286   -0.6515    0.0371 N   0  0  0  0  0  0  0  0  0  0  0  0
   -4.2171   -1.8663   -0.1383 C   0  0  0  0  0  0  0  0  0  0  0  0
   -0.4493    2.3388    0.9205 C   0  0  1  0  0  0  0  0  0  0  0  0
   -1.4216    3.3776    0.3076 C   0  0  2  0  0  0  0  0  0  0  0  0
   -4.5047   -2.9086   -1.2428 C   0  0  0  0  0  0  0  0  0  0  0  0
   -5.5573   -1.6949    0.6165 C   0  0  0  0  0  0  0  0  0  0  0  0
    0.9748    2.5575    0.3872 C   0  0  0  0  0  0  0  0  0  0  0  0
    1.0457    2.4462   -1.1474 C   0  0  2  0  0  0  0  0  0  0  0  0
   -6.0218   -2.9701   -1.3472 C   0  0  0  0  0  0  0  0  0  0  0  0
   -6.4686   -2.7977    0.0923 C   0  0  0  0  0  0  0  0  0  0  0  0
   -3.7768   -0.5307   -0.7536 C   0  0  0  0  0  0  0  0  0  0  0  0
   -0.4448    2.3982    2.4512 C   0  0  0  0  0  0  0  0  0  0  0  0
   -3.1169   -2.3710    0.8033 C   0  0  0  0  0  0  0  0  0  0  0  0
   -2.8801    2.9375    0.4772 C   0  0  0  0  0  0  0  0  0  0  0  0
   -0.0578    3.2366   -1.8209 C   0  0  0  0  0  0  0  0  0  0  0  0
   -1.1463    3.6558   -1.1516 C   0  0  0  0  0  0  0  0  0  0  0  0
    1.0237    0.9809   -1.5965 C   0  0  0  0  0  0  0  0  0  0  0  0
   -3.5755    0.5538    0.2888 C   0  0  0  0  0  0  0  0  0  0  0  0
    0.4577    3.5278    2.9372 C   0  0  0  0  0  0  0  0  0  0  0  0
    0.0010    1.0609    3.0342 C   0  0  0  0  0  0  0  0  0  0  0  0
    0.1401    3.5740   -3.2725 C   0  0  0  0  0  0  0  0  0  0  0  0
   -1.8137   -2.5400    0.0792 C   0  0  0  0  0  0  0  0  0  0  0  0
    2.1357    0.1957   -0.9618 C   0  0  0  0  0  0  0  0  0  0  0  0
    4.2023   -0.5227   -0.6350 C   0  0  0  0  0  0  0  0  0  0  0  0
    3.3075   -1.1099    0.2552 C   0  0  0  0  0  0  0  0  0  0  0  0
    5.5693   -0.8021   -0.6438 C   0  0  0  0  0  0  0  0  0  0  0  0
    3.7874   -2.0331    1.1996 C   0  0  0  0  0  0  0  0  0  0  0  0
    6.0297   -1.7230    0.3030 C   0  0  0  0  0  0  0  0  0  0  0  0
    5.1563   -2.3288    1.2091 C   0  0  0  0  0  0  0  0  0  0  0  0
    8.2002   -1.3852   -0.6082 C   0  0  0  0  0  0  0  0  0  0  0  0
   -0.7678    1.3340    0.6176 H   0  0  0  0  0  0  0  0  0  0  0  0
   -1.3087    4.3371    0.8279 H   0  0  0  0  0  0  0  0  0  0  0  0
   -4.0499   -2.6571   -2.2067 H   0  0  0  0  0  0  0  0  0  0  0  0
   -4.1446   -3.9051   -0.9581 H   0  0  0  0  0  0  0  0  0  0  0  0
   -5.4550   -1.7630    1.7049 H   0  0  0  0  0  0  0  0  0  0  0  0
   -6.0263   -0.7288    0.3919 H   0  0  0  0  0  0  0  0  0  0  0  0
    1.6976    1.8970    0.8733 H   0  0  0  0  0  0  0  0  0  0  0  0
    1.3083    3.5791    0.6157 H   0  0  0  0  0  0  0  0  0  0  0  0
    2.0069    2.8886   -1.4467 H   0  0  0  0  0  0  0  0  0  0  0  0
   -6.3701   -3.9114   -1.7818 H   0  0  0  0  0  0  0  0  0  0  0  0
   -6.3954   -2.1457   -1.9659 H   0  0  0  0  0  0  0  0  0  0  0  0
   -7.5271   -2.5341    0.1721 H   0  0  0  0  0  0  0  0  0  0  0  0
   -6.3029   -3.7237    0.6556 H   0  0  0  0  0  0  0  0  0  0  0  0
   -4.5440   -0.1721   -1.4532 H   0  0  0  0  0  0  0  0  0  0  0  0
   -2.8528   -0.6325   -1.3352 H   0  0  0  0  0  0  0  0  0  0  0  0
   -1.4549    2.5855    2.8295 H   0  0  0  0  0  0  0  0  0  0  0  0
   -2.9733   -1.7477    1.6898 H   0  0  0  0  0  0  0  0  0  0  0  0
   -3.3812   -3.3576    1.2075 H   0  0  0  0  0  0  0  0  0  0  0  0
   -3.5554    3.7117    0.0932 H   0  0  0  0  0  0  0  0  0  0  0  0
   -3.1431    2.7874    1.5277 H   0  0  0  0  0  0  0  0  0  0  0  0
   -1.8844    4.2605   -1.6751 H   0  0  0  0  0  0  0  0  0  0  0  0
    1.1296    0.9088   -2.6862 H   0  0  0  0  0  0  0  0  0  0  0  0
    0.0664    0.5048   -1.3515 H   0  0  0  0  0  0  0  0  0  0  0  0
   -3.0664    1.8060   -1.2907 H   0  0  0  0  0  0  0  0  0  0  0  0
    1.5240    3.3101    2.8158 H   0  0  0  0  0  0  0  0  0  0  0  0
    0.3045    3.6723    4.0139 H   0  0  0  0  0  0  0  0  0  0  0  0
    0.2283    4.4862    2.4621 H   0  0  0  0  0  0  0  0  0  0  0  0
    1.0167    0.7905    2.7298 H   0  0  0  0  0  0  0  0  0  0  0  0
   -0.6727    0.2557    2.7229 H   0  0  0  0  0  0  0  0  0  0  0  0
   -0.0160    1.0963    4.1291 H   0  0  0  0  0  0  0  0  0  0  0  0
   -0.6568    4.2188   -3.6581 H   0  0  0  0  0  0  0  0  0  0  0  0
    0.1525    2.6666   -3.8836 H   0  0  0  0  0  0  0  0  0  0  0  0
    1.0880    4.1032   -3.4139 H   0  0  0  0  0  0  0  0  0  0  0  0
    3.7508    0.8970   -2.1561 H   0  0  0  0  0  0  0  0  0  0  0  0
   -0.0072   -1.8167    0.1977 H   0  0  0  0  0  0  0  0  0  0  0  0
    6.1919   -0.2989   -1.3718 H   0  0  0  0  0  0  0  0  0  0  0  0
    3.1165   -2.5088    1.9078 H   0  0  0  0  0  0  0  0  0  0  0  0
    5.5378   -3.0419    1.9362 H   0  0  0  0  0  0  0  0  0  0  0  0
    8.2195   -0.3007   -0.4555 H   0  0  0  0  0  0  0  0  0  0  0  0
    7.9350   -1.6562   -1.6358 H   0  0  0  0  0  0  0  0  0  0  0  0
    9.2188   -1.7485   -0.4364 H   0  0  0  0  0  0  0  0  0  0  0  0
  1 24  2  0  0  0  0
  2 28  1  0  0  0  0
  2 71  1  0  0  0  0
  3 28  2  0  0  0  0
  4 34  1  0  0  0  0
  4 36  1  0  0  0  0
  5 20  1  0  0  0  0
  5 24  1  0  0  0  0
  5 60  1  0  0  0  0
  6 29  1  0  0  0  0
  6 30  1  0  0  0  0
  6 70  1  0  0  0  0
  7 29  2  0  0  0  0
  7 31  1  0  0  0  0
  8 11  1  0  0  0  0
  8 12  1  0  0  0  0
  8 17  1  0  0  0  0
  8 19  1  0  0  0  0
  9 10  1  0  0  0  0
  9 13  1  0  0  0  0
  9 18  1  0  0  0  0
  9 37  1  0  0  0  0
 10 20  1  0  0  0  0
 10 22  1  0  0  0  0
 10 38  1  0  0  0  0
 11 15  1  0  0  0  0
 11 39  1  0  0  0  0
 11 40  1  0  0  0  0
 12 16  1  0  0  0  0
 12 41  1  0  0  0  0
 12 42  1  0  0  0  0
 13 14  1  0  0  0  0
 13 43  1  0  0  0  0
 13 44  1  0  0  0  0
 14 21  1  0  0  0  0
 14 23  1  0  0  0  0
 14 45  1  0  0  0  0
 15 16  1  0  0  0  0
 15 46  1  0  0  0  0
 15 47  1  0  0  0  0
 16 48  1  0  0  0  0
 16 49  1  0  0  0  0
 17 24  1  0  0  0  0
 17 50  1  0  0  0  0
 17 51  1  0  0  0  0
 18 25  1  0  0  0  0
 18 26  1  0  0  0  0
 18 52  1  0  0  0  0
 19 28  1  0  0  0  0
 19 53  1  0  0  0  0
 19 54  1  0  0  0  0
 20 55  1  0  0  0  0
 20 56  1  0  0  0  0
 21 22  2  0  0  0  0
 21 27  1  0  0  0  0
 22 57  1  0  0  0  0
 23 29  1  0  0  0  0
 23 58  1  0  0  0  0
 23 59  1  0  0  0  0
 25 61  1  0  0  0  0
 25 62  1  0  0  0  0
 25 63  1  0  0  0  0
 26 64  1  0  0  0  0
 26 65  1  0  0  0  0
 26 66  1  0  0  0  0
 27 67  1  0  0  0  0
 27 68  1  0  0  0  0
 27 69  1  0  0  0  0
 30 31  2  0  0  0  0
 30 32  1  0  0  0  0
 31 33  1  0  0  0  0
 32 34  2  0  0  0  0
 32 72  1  0  0  0  0
 33 35  2  0  0  0  0
 33 73  1  0  0  0  0
 34 35  1  0  0  0  0
 35 74  1  0  0  0  0
 36 75  1  0  0  0  0
 36 76  1  0  0  0  0
 36 77  1  0  0  0  0
M  END
> <PUBCHEM_COMPOUND_CID>
71693199

> <PUBCHEM_CONFORMER_RMSD>
1.2

> <PUBCHEM_CONFORMER_DIVERSEORDER>
1
15
173
54
181
2
122
135
60
43
169
154
81
184
124
179
164
144
202
178
52
19
96
158
108
76
127
149
133
168
120
77
25
204
85
160
185
110
13
113
57
188
140
194
102
193
141
142
176
63
162
37
42
48
196
8
107
186
106
187
78
28
5
203
148
192
151
156
26
36
206
157
134
170
137
61
114
128
105
7
24
70
205
65
153
29
112
197
22
50
201
117
21
191
87
129
103
67
104
20
93
27
64
49
23
195
132
30
98
89
152
92
41
32
31
9
136
174
94
121
97
58
183
86
200
40
150
35
125
130
119
88
39
3
12
175
34
44
131
47
139
83
72
11
167
46
123
199
79
17
126
53
116
146
38
6
59
95
100
74
71
166
75
56
165
180
177
51
18
55
182
84
45
189
161
111
109
163
82
145
138
115
10
73
101
4
99
198
33
66
143
90
62
91
69
14
16
118
159
68
155
80
172
147
190
171

> <PUBCHEM_MMFF94_PARTIAL_CHARGES>
33
1 -0.57
10 0.14
14 0.14
17 0.06
19 0.06
2 -0.65
20 0.3
21 -0.28
22 -0.29
23 0.18
24 0.57
27 0.14
28 0.66
29 0.01
3 -0.57
30 -0.15
31 0.23
32 -0.15
33 -0.15
34 0.08
35 -0.15
36 0.28
4 -0.36
5 -0.73
57 0.15
6 0.03
60 0.37
7 -0.57
70 0.27
71 0.5
72 0.15
73 0.15
74 0.15

> <PUBCHEM_EFFECTIVE_ROTOR_COUNT>
12.8

> <PUBCHEM_PHARMACOPHORE_FEATURES>
13
1 1 acceptor
1 2 acceptor
1 3 acceptor
1 4 acceptor
1 5 donor
1 6 donor
3 18 25 26 hydrophobe
3 2 3 28 anion
3 6 7 29 cation
5 6 7 29 30 31 rings
5 8 11 12 15 16 rings
6 30 31 32 33 34 35 rings
6 9 10 13 14 21 22 rings

> <PUBCHEM_HEAVY_ATOM_COUNT>
36

> <PUBCHEM_ATOM_DEF_STEREO_COUNT>
3

> <PUBCHEM_ATOM_UDEF_STEREO_COUNT>
0

> <PUBCHEM_BOND_DEF_STEREO_COUNT>
0

> <PUBCHEM_BOND_UDEF_STEREO_COUNT>
0

> <PUBCHEM_ISOTOPIC_ATOM_COUNT>
0

> <PUBCHEM_COMPONENT_COUNT>
1

> <PUBCHEM_CACTVS_TAUTO_COUNT>
6

> <PUBCHEM_CONFORMER_ID>
0445F38F00000001

> <PUBCHEM_MMFF94_ENERGY>
85.6172

> <PUBCHEM_FEATURE_SELFOVERLAP>
66.135

> <PUBCHEM_SHAPE_FINGERPRINT>
10483366 6 18190160319157302421
10622 236 18333452040682698279
11456790 92 18339939194628030091
11497681 19 18337676322372805094
11720765 8 18190742127579013773
12156800 1 17535707929022751809
12166972 35 18337954596723037155
13631057 29 18409729535132198802
14068700 675 18413394249862443500
14114206 34 16660639618625779973
14725015 67 18341047506411432919
14856354 85 17916023448216014828
15297060 5 18057887939688416123
15968369 26 17470152026818848083
17686467 74 18408321112740569914
18336668 15 18411425020289504969
19315092 285 18412550933488145768
19319366 153 17615702055777669765
20775530 9 18339081592115247389
21987440 362 12037941042158241966
23559900 14 18119523495589172127
3552219 110 18341905112590992900
4015057 19 16661230099673035716
469060 322 18262247607548964192
66674814 147 17676491639858330690

> <PUBCHEM_SHAPE_MULTIPOLES>
702.44
14.72
5.61
2.32
15.48
3.07
0.57
-21.98
-1.64
-3.88
-0.66
0.1
2.77
-1.63

> <PUBCHEM_SHAPE_SELFOVERLAP>
1487.342

> <PUBCHEM_SHAPE_VOLUME>
393.7

> <PUBCHEM_COORDINATE_TYPE>
2
5
10

$$$$
