7142382
  -OEChem-12032416133D

 46 49  0     1  0  0  0  0  0999 V2000
    8.7979   -1.3436   -0.4580 Cl  0  0  0  0  0  0  0  0  0  0  0  0
   -3.0160    2.1261    0.1441 O   0  0  0  0  0  0  0  0  0  0  0  0
    0.2035   -1.8771    1.3840 O   0  0  0  0  0  0  0  0  0  0  0  0
   -6.0151    0.3836   -1.8189 O   0  0  0  0  0  0  0  0  0  0  0  0
   -7.1494   -1.6247    0.1360 O   0  0  0  0  0  0  0  0  0  0  0  0
   -1.4974   -0.7958    0.2482 N   0  0  0  0  0  0  0  0  0  0  0  0
   -4.2810   -0.5061   -0.5050 N   0  0  0  0  0  0  0  0  0  0  0  0
   -0.7516    2.0653    0.3646 N   0  0  0  0  0  0  0  0  0  0  0  0
   -6.8237    0.4508    1.1353 N   0  0  0  0  0  0  0  0  0  0  0  0
   -1.8925    0.1864   -0.7526 C   0  0  1  0  0  0  0  0  0  0  0  0
   -3.2117   -0.1741   -1.4467 C   0  0  0  0  0  0  0  0  0  0  0  0
   -2.4992   -1.7832    0.6545 C   0  0  0  0  0  0  0  0  0  0  0  0
   -3.8932   -1.1794    0.7364 C   0  0  0  0  0  0  0  0  0  0  0  0
   -1.9564    1.5186   -0.0225 C   0  0  0  0  0  0  0  0  0  0  0  0
   -0.1845   -0.9370    0.6886 C   0  0  0  0  0  0  0  0  0  0  0  0
    0.8107    0.1100    0.3338 C   0  0  0  0  0  0  0  0  0  0  0  0
    0.5323    1.4860    0.2937 C   0  0  0  0  0  0  0  0  0  0  0  0
   -5.5931   -0.1752   -0.8154 C   0  0  0  0  0  0  0  0  0  0  0  0
    2.1429   -0.3269    0.2117 C   0  0  0  0  0  0  0  0  0  0  0  0
    1.6016    2.3943    0.2033 C   0  0  0  0  0  0  0  0  0  0  0  0
    3.1869    0.5868    0.0739 C   0  0  0  0  0  0  0  0  0  0  0  0
    2.9176    1.9490    0.0834 C   0  0  0  0  0  0  0  0  0  0  0  0
   -6.6091   -0.5316    0.2051 C   0  0  0  0  0  0  0  0  0  0  0  0
    4.5495    0.1180   -0.0548 C   0  0  0  0  0  0  0  0  0  0  0  0
    5.6019    0.8890    0.4386 C   0  0  0  0  0  0  0  0  0  0  0  0
    4.8110   -1.1049   -0.6730 C   0  0  0  0  0  0  0  0  0  0  0  0
    6.9158    0.4375    0.3138 C   0  0  0  0  0  0  0  0  0  0  0  0
    6.1249   -1.5566   -0.7978 C   0  0  0  0  0  0  0  0  0  0  0  0
    7.1774   -0.7854   -0.3042 C   0  0  0  0  0  0  0  0  0  0  0  0
   -1.1151    0.2536   -1.5237 H   0  0  0  0  0  0  0  0  0  0  0  0
   -3.5378    0.6360   -2.1090 H   0  0  0  0  0  0  0  0  0  0  0  0
   -3.0691   -1.0640   -2.0727 H   0  0  0  0  0  0  0  0  0  0  0  0
   -2.2220   -2.2219    1.6190 H   0  0  0  0  0  0  0  0  0  0  0  0
   -2.4716   -2.5884   -0.0900 H   0  0  0  0  0  0  0  0  0  0  0  0
   -4.6209   -1.9602    0.9778 H   0  0  0  0  0  0  0  0  0  0  0  0
   -3.9343   -0.4270    1.5330 H   0  0  0  0  0  0  0  0  0  0  0  0
   -0.7852    3.0425    0.6454 H   0  0  0  0  0  0  0  0  0  0  0  0
    2.3474   -1.3940    0.2729 H   0  0  0  0  0  0  0  0  0  0  0  0
    1.4137    3.4665    0.1890 H   0  0  0  0  0  0  0  0  0  0  0  0
    3.6915    2.7023   -0.0347 H   0  0  0  0  0  0  0  0  0  0  0  0
    5.4448    1.8325    0.9541 H   0  0  0  0  0  0  0  0  0  0  0  0
    4.0262   -1.7239   -1.0994 H   0  0  0  0  0  0  0  0  0  0  0  0
   -7.4959    0.3241    1.8846 H   0  0  0  0  0  0  0  0  0  0  0  0
   -6.3237    1.3341    1.1156 H   0  0  0  0  0  0  0  0  0  0  0  0
    7.7258    1.0454    0.7087 H   0  0  0  0  0  0  0  0  0  0  0  0
    6.3148   -2.5083   -1.2876 H   0  0  0  0  0  0  0  0  0  0  0  0
  1 29  1  0  0  0  0
  2 14  2  0  0  0  0
  3 15  2  0  0  0  0
  4 18  2  0  0  0  0
  5 23  2  0  0  0  0
  6 10  1  0  0  0  0
  6 12  1  0  0  0  0
  6 15  1  0  0  0  0
  7 11  1  0  0  0  0
  7 13  1  0  0  0  0
  7 18  1  0  0  0  0
  8 14  1  0  0  0  0
  8 17  1  0  0  0  0
  8 37  1  0  0  0  0
  9 23  1  0  0  0  0
  9 43  1  0  0  0  0
  9 44  1  0  0  0  0
 10 11  1  0  0  0  0
 10 14  1  0  0  0  0
 10 30  1  0  0  0  0
 11 31  1  0  0  0  0
 11 32  1  0  0  0  0
 12 13  1  0  0  0  0
 12 33  1  0  0  0  0
 12 34  1  0  0  0  0
 13 35  1  0  0  0  0
 13 36  1  0  0  0  0
 15 16  1  0  0  0  0
 16 17  2  0  0  0  0
 16 19  1  0  0  0  0
 17 20  1  0  0  0  0
 18 23  1  0  0  0  0
 19 21  2  0  0  0  0
 19 38  1  0  0  0  0
 20 22  2  0  0  0  0
 20 39  1  0  0  0  0
 21 22  1  0  0  0  0
 21 24  1  0  0  0  0
 22 40  1  0  0  0  0
 24 25  2  0  0  0  0
 24 26  1  0  0  0  0
 25 27  1  0  0  0  0
 25 41  1  0  0  0  0
 26 28  2  0  0  0  0
 26 42  1  0  0  0  0
 27 29  2  0  0  0  0
 27 45  1  0  0  0  0
 28 29  1  0  0  0  0
 28 46  1  0  0  0  0
M  END
> <PUBCHEM_COMPOUND_CID>
7142382

> <PUBCHEM_CONFORMER_RMSD>
0.8

> <PUBCHEM_CONFORMER_DIVERSEORDER>
1
5
6
3
4
2

> <PUBCHEM_MMFF94_PARTIAL_CHARGES>
37
1 -0.18
10 0.36
11 0.3
12 0.3
13 0.3
14 0.57
15 0.54
16 0.09
17 0.12
18 0.63
19 -0.15
2 -0.57
20 -0.15
22 -0.15
23 0.63
25 -0.15
26 -0.15
27 -0.15
28 -0.15
29 0.18
3 -0.57
37 0.37
38 0.15
39 0.15
4 -0.57
40 0.15
41 0.15
42 0.15
43 0.37
44 0.37
45 0.15
46 0.15
5 -0.57
6 -0.66
7 -0.66
8 -0.55
9 -0.8

> <PUBCHEM_EFFECTIVE_ROTOR_COUNT>
4

> <PUBCHEM_PHARMACOPHORE_FEATURES>
10
1 2 acceptor
1 3 acceptor
1 4 acceptor
1 5 acceptor
1 8 donor
1 9 donor
6 16 17 19 20 21 22 rings
6 24 25 26 27 28 29 rings
6 6 7 10 11 12 13 rings
7 6 8 10 14 15 16 17 rings

> <PUBCHEM_HEAVY_ATOM_COUNT>
29

> <PUBCHEM_ATOM_DEF_STEREO_COUNT>
1

> <PUBCHEM_ATOM_UDEF_STEREO_COUNT>
0

> <PUBCHEM_BOND_DEF_STEREO_COUNT>
0

> <PUBCHEM_BOND_UDEF_STEREO_COUNT>
0

> <PUBCHEM_ISOTOPIC_ATOM_COUNT>
0

> <PUBCHEM_COMPONENT_COUNT>
1

> <PUBCHEM_CACTVS_TAUTO_COUNT>
6

> <PUBCHEM_CONFORMER_ID>
006CFBEE00000001

> <PUBCHEM_MMFF94_ENERGY>
98.38

> <PUBCHEM_FEATURE_SELFOVERLAP>
50.776

> <PUBCHEM_SHAPE_FINGERPRINT>
10076449 9 18040722467324254549
10299344 5 17418374701216235694
106641 1 9655569738644236133
10670039 82 17167855340350717173
11315181 36 18113905966080866004
11524674 6 15769773572067264687
11578080 2 16879610589523772815
12107698 1 18202001031852009188
12166972 35 17748828539777412956
12236239 1 17346878974752452047
12516196 113 18131067139309299320
12760667 363 18344146994765775617
13533116 47 18131348652861964816
13685833 64 18413671314187212140
13914758 101 17203616968812897435
14251764 18 17846780715402898372
14294032 229 17387688310632512757
14856354 85 15719397261293456475
14931854 50 18187928331600413414
15064986 266 18410303493008035848
15131766 46 15408331218054091968
15183329 4 18187081729110968674
15198563 99 18188204295390903069
15461852 350 12252195068811993873
16087824 20 18337671890120029709
18603816 31 16414901015779564687
18608769 82 18040438832237846867
20105231 36 18260274048887030859
21150785 3 16732706047706289006
21236236 1 18343022155441828089
21267235 1 18410858767253194113
21279426 13 18334851740823755197
21781051 124 17677629694564884139
21792961 116 17894632522501196330
221357 26 18411134736472240916
22224240 67 9223228538256421676
23522609 53 17985575409446290225
23559900 14 18337667645937402312
23569943 247 18129379302423975095
23576562 1 16081950263822066702
3004659 81 18113616798991957428
3009799 131 18409163320871536362
335352 9 18408886269262981719
3383291 50 18410009957198948347
350125 39 18259981561571507041
484989 97 18114753749021737995
5104073 3 18201435832147751544
5758199 1 10737283537141220820
59755656 215 18187082849533398282
59755656 520 16950277447033825179
6138700 20 18409448080976203391

> <PUBCHEM_SHAPE_MULTIPOLES>
555.27
21.16
2.05
1.03
10.46
0.7
-0.18
-8.79
-3.04
0.47
0.28
-1.06
-0.19
0.99

> <PUBCHEM_SHAPE_SELFOVERLAP>
1215.272

> <PUBCHEM_SHAPE_VOLUME>
297.9

> <PUBCHEM_COORDINATE_TYPE>
2
5
10

$$$$
