75536600
  -OEChem-12032416303D

 47 49  0     1  0  0  0  0  0999 V2000
    7.4775    0.7532   -0.8214 S   0  0  0  0  0  0  0  0  0  0  0  0
    1.4520   -1.0041   -0.0031 O   0  0  0  0  0  0  0  0  0  0  0  0
    0.2591    2.3767    0.2257 O   0  0  0  0  0  0  0  0  0  0  0  0
    4.8665    1.8849   -0.0444 O   0  0  0  0  0  0  0  0  0  0  0  0
   -8.2889   -0.3402    0.5695 O   0  0  0  0  0  0  0  0  0  0  0  0
   -1.9856    0.1830    0.0671 N   0  0  0  0  0  0  0  0  0  0  0  0
    3.9617    0.0063    0.9729 N   0  0  0  0  0  0  0  0  0  0  0  0
   -0.5907    0.1596   -0.3421 C   0  0  1  0  0  0  0  0  0  0  0  0
    0.3165    0.9986    0.5387 C   0  0  1  0  0  0  0  0  0  0  0  0
    1.6778    0.3988    0.2133 C   0  0  1  0  0  0  0  0  0  0  0  0
    0.0434   -1.2148   -0.2041 C   0  0  0  0  0  0  0  0  0  0  0  0
    2.6983    0.5896    1.3212 C   0  0  0  0  0  0  0  0  0  0  0  0
   -2.8494   -0.3463   -0.9815 C   0  0  0  0  0  0  0  0  0  0  0  0
   -4.2973   -0.3453   -0.5687 C   0  0  0  0  0  0  0  0  0  0  0  0
    4.9597    0.7120    0.3078 C   0  0  0  0  0  0  0  0  0  0  0  0
   -4.7713   -1.3131    0.3169 C   0  0  0  0  0  0  0  0  0  0  0  0
   -5.1648    0.6242   -1.0719 C   0  0  0  0  0  0  0  0  0  0  0  0
    6.2007   -0.0429   -0.0039 C   0  0  0  0  0  0  0  0  0  0  0  0
   -6.1127   -1.3115    0.6992 C   0  0  0  0  0  0  0  0  0  0  0  0
   -6.5063    0.6258   -0.6898 C   0  0  0  0  0  0  0  0  0  0  0  0
   -6.9801   -0.3421    0.1958 C   0  0  0  0  0  0  0  0  0  0  0  0
    6.5058   -1.3568    0.2757 C   0  0  0  0  0  0  0  0  0  0  0  0
    7.8050   -1.7145   -0.1870 C   0  0  0  0  0  0  0  0  0  0  0  0
    8.4433   -0.6606   -0.8028 C   0  0  0  0  0  0  0  0  0  0  0  0
   -9.1202    0.6794    0.0168 C   0  0  0  0  0  0  0  0  0  0  0  0
   -0.4918    0.5230   -1.3748 H   0  0  0  0  0  0  0  0  0  0  0  0
    0.0693    0.8664    1.5995 H   0  0  0  0  0  0  0  0  0  0  0  0
    2.0713    0.8146   -0.7237 H   0  0  0  0  0  0  0  0  0  0  0  0
   -0.3293   -1.7598    0.6710 H   0  0  0  0  0  0  0  0  0  0  0  0
   -0.1064   -1.8403   -1.0893 H   0  0  0  0  0  0  0  0  0  0  0  0
    2.3701    0.0865    2.2375 H   0  0  0  0  0  0  0  0  0  0  0  0
    2.8369    1.6538    1.5402 H   0  0  0  0  0  0  0  0  0  0  0  0
   -2.2585    1.1462    0.2645 H   0  0  0  0  0  0  0  0  0  0  0  0
   -2.5709   -1.3777   -1.2330 H   0  0  0  0  0  0  0  0  0  0  0  0
   -2.7338    0.2377   -1.9038 H   0  0  0  0  0  0  0  0  0  0  0  0
    0.4778    2.4860   -0.7152 H   0  0  0  0  0  0  0  0  0  0  0  0
    4.1034   -0.9669    1.2211 H   0  0  0  0  0  0  0  0  0  0  0  0
   -4.1050   -2.0737    0.7153 H   0  0  0  0  0  0  0  0  0  0  0  0
   -4.8077    1.3853   -1.7608 H   0  0  0  0  0  0  0  0  0  0  0  0
   -6.4762   -2.0679    1.3895 H   0  0  0  0  0  0  0  0  0  0  0  0
   -7.1246    1.4074   -1.1178 H   0  0  0  0  0  0  0  0  0  0  0  0
    5.8483   -2.0487    0.7854 H   0  0  0  0  0  0  0  0  0  0  0  0
    8.2489   -2.6951   -0.0741 H   0  0  0  0  0  0  0  0  0  0  0  0
    9.4306   -0.6533   -1.2427 H   0  0  0  0  0  0  0  0  0  0  0  0
  -10.1269    0.5298    0.4207 H   0  0  0  0  0  0  0  0  0  0  0  0
   -9.1963    0.5903   -1.0722 H   0  0  0  0  0  0  0  0  0  0  0  0
   -8.7952    1.6774    0.3301 H   0  0  0  0  0  0  0  0  0  0  0  0
  1 18  1  0  0  0  0
  1 24  1  0  0  0  0
  2 10  1  0  0  0  0
  2 11  1  0  0  0  0
  3  9  1  0  0  0  0
  3 36  1  0  0  0  0
  4 15  2  0  0  0  0
  5 21  1  0  0  0  0
  5 25  1  0  0  0  0
  6  8  1  0  0  0  0
  6 13  1  0  0  0  0
  6 33  1  0  0  0  0
  7 12  1  0  0  0  0
  7 15  1  0  0  0  0
  7 37  1  0  0  0  0
  8  9  1  0  0  0  0
  8 11  1  0  0  0  0
  8 26  1  0  0  0  0
  9 10  1  0  0  0  0
  9 27  1  0  0  0  0
 10 12  1  0  0  0  0
 10 28  1  0  0  0  0
 11 29  1  0  0  0  0
 11 30  1  0  0  0  0
 12 31  1  0  0  0  0
 12 32  1  0  0  0  0
 13 14  1  0  0  0  0
 13 34  1  0  0  0  0
 13 35  1  0  0  0  0
 14 16  2  0  0  0  0
 14 17  1  0  0  0  0
 15 18  1  0  0  0  0
 16 19  1  0  0  0  0
 16 38  1  0  0  0  0
 17 20  2  0  0  0  0
 17 39  1  0  0  0  0
 18 22  2  0  0  0  0
 19 21  2  0  0  0  0
 19 40  1  0  0  0  0
 20 21  1  0  0  0  0
 20 41  1  0  0  0  0
 22 23  1  0  0  0  0
 22 42  1  0  0  0  0
 23 24  2  0  0  0  0
 23 43  1  0  0  0  0
 24 44  1  0  0  0  0
 25 45  1  0  0  0  0
 25 46  1  0  0  0  0
 25 47  1  0  0  0  0
M  END
> <PUBCHEM_COMPOUND_CID>
75536600

> <PUBCHEM_CONFORMER_RMSD>
1

> <PUBCHEM_CONFORMER_DIVERSEORDER>
1
16
28
19
112
70
36
103
9
89
107
122
111
42
114
29
72
51
96
40
8
116
4
128
125
14
105
17
98
46
57
85
92
108
121
44
61
41
102
82
39
113
67
109
60
38
127
106
101
80
50
71
34
24
65
63
73
13
10
25
130
62
99
87
43
7
126
56
32
120
20
117
95
37
84
88
91
48
124
100
33
2
76
27
118
12
131
66
47
64
68
22
115
6
18
93
55
69
21
94
49
123
119
54
23
3
26
104
78
86
52
35
97
5
15
81
79
53
90
129
30
31
75
110
74
58
77
45
11
83
59

> <PUBCHEM_MMFF94_PARTIAL_CHARGES>
35
1 -0.08
10 0.28
11 0.28
12 0.3
13 0.41
14 -0.14
15 0.71
16 -0.15
17 -0.15
18 -0.05
19 -0.15
2 -0.56
20 -0.15
21 0.08
22 -0.15
23 -0.15
24 -0.11
25 0.28
3 -0.68
33 0.36
36 0.4
37 0.37
38 0.15
39 0.15
4 -0.57
40 0.15
41 0.15
42 0.15
43 0.15
44 0.15
5 -0.36
6 -0.9
7 -0.73
8 0.27
9 0.28

> <PUBCHEM_EFFECTIVE_ROTOR_COUNT>
9

> <PUBCHEM_PHARMACOPHORE_FEATURES>
11
1 2 acceptor
1 3 acceptor
1 3 donor
1 4 acceptor
1 5 acceptor
1 6 cation
1 6 donor
1 7 donor
5 1 18 22 23 24 rings
5 2 8 9 10 11 rings
6 14 16 17 19 20 21 rings

> <PUBCHEM_HEAVY_ATOM_COUNT>
25

> <PUBCHEM_ATOM_DEF_STEREO_COUNT>
3

> <PUBCHEM_ATOM_UDEF_STEREO_COUNT>
0

> <PUBCHEM_BOND_DEF_STEREO_COUNT>
0

> <PUBCHEM_BOND_UDEF_STEREO_COUNT>
0

> <PUBCHEM_ISOTOPIC_ATOM_COUNT>
0

> <PUBCHEM_COMPONENT_COUNT>
1

> <PUBCHEM_CACTVS_TAUTO_COUNT>
2

> <PUBCHEM_CONFORMER_ID>
048098D800000001

> <PUBCHEM_MMFF94_ENERGY>
57.7238

> <PUBCHEM_FEATURE_SELFOVERLAP>
55.822

> <PUBCHEM_SHAPE_FINGERPRINT>
10162869 55 8286190626577011243
10299344 5 18412826884714329390
106641 1 7853570210433836172
11315181 36 11530481121983475775
12166972 35 18113338626629242412
12592606 108 18271803562322950855
13673619 4 17917990569028427752
13914758 101 14836129848809947250
14123256 10 14273454782090975654
14216079 64 17989208119118565646
14251764 18 17132117953163891952
14251764 46 18411418410086987802
14347424 109 15554439722316799082
14428016 248 15357702972154191783
14933364 13 18186800292097919084
15131766 46 13181011988202000210
15183329 4 16415483765721805206
15840311 113 18186802529765883557
15849732 13 18040435507927638318
16090146 7 16950579744159173088
18365409 1 15502671441372617258
20105231 36 18260552225017660659
21049683 271 13045946810955560383
21150785 3 14996284721228133010
21267235 1 18411982455362779056
21365058 27 15864069871277681851
21403212 168 15554448483105843621
21792934 111 17988915674463318944
21792961 116 18338792325962418757
220451 1 16733255807224417883
23035841 295 18059853978042364615
232437 2 18411700998557642883
246663 6 18343585135960829366
249057 25 13973691679762286107
249057 3 15864077597559888239
28498 318 17918275333590838446
328311 84 18410012143558314934
335352 9 18343862242839612935
34797466 226 16588025714943637270
4325135 7 16081088181922437327
4339292 15 10447628212261122829
439807 62 18411419484783873198
45270241 37 18261118487540204782
5283156 175 18272090487681517284
5381727 24 16487252189246178903
5758199 1 15357695279735999305
59682541 35 12396303664244951445
6394761 36 17561083609356153647
9663363 56 16988842775308667786

> <PUBCHEM_SHAPE_MULTIPOLES>
484.9
29.65
1.52
0.96
5.03
0.16
0.01
-4.51
3.01
-1.29
-0.09
-0.09
0.06
0.68

> <PUBCHEM_SHAPE_SELFOVERLAP>
1009.341

> <PUBCHEM_SHAPE_VOLUME>
277.4

> <PUBCHEM_COORDINATE_TYPE>
2
5
10

$$$$
