38030867
  -OEChem-12032416363D

 60 62  0     1  0  0  0  0  0999 V2000
   -0.9452    0.9476    0.8444 O   0  0  0  0  0  0  0  0  0  0  0  0
   -6.4872   -1.8089   -0.3306 O   0  0  0  0  0  0  0  0  0  0  0  0
    3.7235   -1.8642    0.3170 N   0  0  0  0  0  0  0  0  0  0  0  0
   -0.7898    3.1534    1.1833 N   0  0  0  0  0  0  0  0  0  0  0  0
   -2.1186    2.8491    0.9537 N   0  0  0  0  0  0  0  0  0  0  0  0
    2.0418   -0.0012   -1.3365 C   0  0  1  0  0  0  0  0  0  0  0  0
    3.5890   -0.0748   -1.3602 C   0  0  1  0  0  0  0  0  0  0  0  0
    1.5760    1.4590   -1.2317 C   0  0  0  0  0  0  0  0  0  0  0  0
    2.1171    2.1538    0.0321 C   0  0  2  0  0  0  0  0  0  0  0  0
    1.4222   -0.6557   -2.5752 C   0  0  0  0  0  0  0  0  0  0  0  0
    3.5988    1.9009    0.2230 C   0  0  0  0  0  0  0  0  0  0  0  0
    4.2422    0.9088   -0.4178 C   0  0  0  0  0  0  0  0  0  0  0  0
    4.0804   -1.4913   -1.0409 C   0  0  0  0  0  0  0  0  0  0  0  0
    1.3243    1.7350    1.2751 C   0  0  0  0  0  0  0  0  0  0  0  0
   -0.0037   -1.1101   -2.2800 C   0  0  0  0  0  0  0  0  0  0  0  0
    1.4489    0.3093   -3.7562 C   0  0  0  0  0  0  0  0  0  0  0  0
    4.3349    2.8440    1.1336 C   0  0  0  0  0  0  0  0  0  0  0  0
   -0.1423    2.0140    1.1104 C   0  0  0  0  0  0  0  0  0  0  0  0
    4.1776   -3.2146    0.6271 C   0  0  0  0  0  0  0  0  0  0  0  0
   -2.1621    1.5515    0.7609 C   0  0  0  0  0  0  0  0  0  0  0  0
    3.8014   -3.5931    1.9926 C   0  0  0  0  0  0  0  0  0  0  0  0
   -3.2730    0.6885    0.4816 C   0  0  0  0  0  0  0  0  0  0  0  0
   -4.5592    1.2183    0.3783 C   0  0  0  0  0  0  0  0  0  0  0  0
   -3.0672   -0.6808    0.3127 C   0  0  0  0  0  0  0  0  0  0  0  0
    3.4956   -3.9083    3.1101 C   0  0  0  0  0  0  0  0  0  0  0  0
   -5.6395    0.3790    0.1064 C   0  0  0  0  0  0  0  0  0  0  0  0
   -4.1474   -1.5202    0.0408 C   0  0  0  0  0  0  0  0  0  0  0  0
   -5.4336   -0.9903   -0.0624 C   0  0  0  0  0  0  0  0  0  0  0  0
   -6.2050   -3.1985   -0.4915 C   0  0  0  0  0  0  0  0  0  0  0  0
    1.6742   -0.5324   -0.4497 H   0  0  0  0  0  0  0  0  0  0  0  0
    3.9533    0.1786   -2.3640 H   0  0  0  0  0  0  0  0  0  0  0  0
    0.4887    1.5468   -1.3056 H   0  0  0  0  0  0  0  0  0  0  0  0
    1.9769    2.0418   -2.0724 H   0  0  0  0  0  0  0  0  0  0  0  0
    1.9735    3.2332   -0.1215 H   0  0  0  0  0  0  0  0  0  0  0  0
    1.9846   -1.5510   -2.8581 H   0  0  0  0  0  0  0  0  0  0  0  0
    5.3167    0.8042   -0.2794 H   0  0  0  0  0  0  0  0  0  0  0  0
    5.1716   -1.5286   -1.1616 H   0  0  0  0  0  0  0  0  0  0  0  0
    3.6666   -2.2115   -1.7541 H   0  0  0  0  0  0  0  0  0  0  0  0
    1.6683    2.2935    2.1540 H   0  0  0  0  0  0  0  0  0  0  0  0
    1.4733    0.6734    1.5065 H   0  0  0  0  0  0  0  0  0  0  0  0
   -0.6628   -0.2732   -2.0302 H   0  0  0  0  0  0  0  0  0  0  0  0
   -0.0247   -1.8201   -1.4463 H   0  0  0  0  0  0  0  0  0  0  0  0
   -0.4321   -1.6157   -3.1525 H   0  0  0  0  0  0  0  0  0  0  0  0
    0.7216    1.1228   -3.6649 H   0  0  0  0  0  0  0  0  0  0  0  0
    1.1747   -0.2331   -4.6696 H   0  0  0  0  0  0  0  0  0  0  0  0
    2.4423    0.7313   -3.9349 H   0  0  0  0  0  0  0  0  0  0  0  0
    4.1956    3.8782    0.8024 H   0  0  0  0  0  0  0  0  0  0  0  0
    5.4120    2.6460    1.1485 H   0  0  0  0  0  0  0  0  0  0  0  0
    3.9703    2.7544    2.1612 H   0  0  0  0  0  0  0  0  0  0  0  0
    4.1396   -1.2115    0.9806 H   0  0  0  0  0  0  0  0  0  0  0  0
    3.7314   -3.9310   -0.0730 H   0  0  0  0  0  0  0  0  0  0  0  0
    5.2670   -3.2832    0.5223 H   0  0  0  0  0  0  0  0  0  0  0  0
   -4.7430    2.2824    0.5059 H   0  0  0  0  0  0  0  0  0  0  0  0
   -2.0797   -1.1296    0.3862 H   0  0  0  0  0  0  0  0  0  0  0  0
    3.2243   -4.1876    4.1013 H   0  0  0  0  0  0  0  0  0  0  0  0
   -6.6391    0.7973    0.0265 H   0  0  0  0  0  0  0  0  0  0  0  0
   -3.9167   -2.5732   -0.0794 H   0  0  0  0  0  0  0  0  0  0  0  0
   -7.1565   -3.6996   -0.6979 H   0  0  0  0  0  0  0  0  0  0  0  0
   -5.8059   -3.6373    0.4293 H   0  0  0  0  0  0  0  0  0  0  0  0
   -5.5546   -3.3798   -1.3539 H   0  0  0  0  0  0  0  0  0  0  0  0
  1 18  1  0  0  0  0
  1 20  1  0  0  0  0
  2 28  1  0  0  0  0
  2 29  1  0  0  0  0
  3 13  1  0  0  0  0
  3 19  1  0  0  0  0
  3 50  1  0  0  0  0
  4  5  1  0  0  0  0
  4 18  2  0  0  0  0
  5 20  2  0  0  0  0
  6  7  1  0  0  0  0
  6  8  1  0  0  0  0
  6 10  1  0  0  0  0
  6 30  1  0  0  0  0
  7 12  1  0  0  0  0
  7 13  1  0  0  0  0
  7 31  1  0  0  0  0
  8  9  1  0  0  0  0
  8 32  1  0  0  0  0
  8 33  1  0  0  0  0
  9 11  1  0  0  0  0
  9 14  1  0  0  0  0
  9 34  1  0  0  0  0
 10 15  1  0  0  0  0
 10 16  1  0  0  0  0
 10 35  1  0  0  0  0
 11 12  2  0  0  0  0
 11 17  1  0  0  0  0
 12 36  1  0  0  0  0
 13 37  1  0  0  0  0
 13 38  1  0  0  0  0
 14 18  1  0  0  0  0
 14 39  1  0  0  0  0
 14 40  1  0  0  0  0
 15 41  1  0  0  0  0
 15 42  1  0  0  0  0
 15 43  1  0  0  0  0
 16 44  1  0  0  0  0
 16 45  1  0  0  0  0
 16 46  1  0  0  0  0
 17 47  1  0  0  0  0
 17 48  1  0  0  0  0
 17 49  1  0  0  0  0
 19 21  1  0  0  0  0
 19 51  1  0  0  0  0
 19 52  1  0  0  0  0
 20 22  1  0  0  0  0
 21 25  3  0  0  0  0
 22 23  2  0  0  0  0
 22 24  1  0  0  0  0
 23 26  1  0  0  0  0
 23 53  1  0  0  0  0
 24 27  2  0  0  0  0
 24 54  1  0  0  0  0
 25 55  1  0  0  0  0
 26 28  2  0  0  0  0
 26 56  1  0  0  0  0
 27 28  1  0  0  0  0
 27 57  1  0  0  0  0
 29 58  1  0  0  0  0
 29 59  1  0  0  0  0
 29 60  1  0  0  0  0
M  END
> <PUBCHEM_COMPOUND_CID>
38030867

> <PUBCHEM_CONFORMER_RMSD>
1

> <PUBCHEM_CONFORMER_DIVERSEORDER>
1
22
127
79
48
44
117
8
64
45
61
99
42
126
19
24
96
32
38
115
39
65
119
116
89
122
120
106
71
81
54
6
94
18
2
51
85
47
4
28
49
69
104
21
70
112
123
93
41
60
121
100
63
74
95
75
87
30
101
73
29
124
103
53
43
34
76
59
55
88
35
31
58
118
7
15
10
114
50
36
78
20
33
13
57
46
25
14
66
68
111
72
108
27
102
109
56
62
107
52
86
125
91
23
40
26
110
16
82
113
92
37
17
9
11
98
77
83
84
3
67
97
90
105
12
5
80

> <PUBCHEM_MMFF94_PARTIAL_CHARGES>
31
1 -0.28
11 -0.28
12 -0.29
13 0.27
14 0.18
17 0.14
18 0.3
19 0.47
2 -0.36
20 0.43
21 -0.2
22 0.05
23 -0.15
24 -0.15
25 -0.18
26 -0.15
27 -0.15
28 0.08
29 0.28
3 -0.9
36 0.15
4 -0.34
5 -0.34
50 0.36
53 0.15
54 0.15
55 0.18
56 0.15
57 0.15
7 0.14
9 0.14

> <PUBCHEM_EFFECTIVE_ROTOR_COUNT>
8.8

> <PUBCHEM_PHARMACOPHORE_FEATURES>
8
1 2 acceptor
1 25 hydrophobe
1 3 cation
1 3 donor
3 10 15 16 hydrophobe
5 1 4 5 18 20 rings
6 22 23 24 26 27 28 rings
6 6 7 8 9 11 12 rings

> <PUBCHEM_HEAVY_ATOM_COUNT>
29

> <PUBCHEM_ATOM_DEF_STEREO_COUNT>
3

> <PUBCHEM_ATOM_UDEF_STEREO_COUNT>
0

> <PUBCHEM_BOND_DEF_STEREO_COUNT>
0

> <PUBCHEM_BOND_UDEF_STEREO_COUNT>
0

> <PUBCHEM_ISOTOPIC_ATOM_COUNT>
0

> <PUBCHEM_COMPONENT_COUNT>
1

> <PUBCHEM_CACTVS_TAUTO_COUNT>
1

> <PUBCHEM_CONFORMER_ID>
02444E1300000001

> <PUBCHEM_MMFF94_ENERGY>
62.76

> <PUBCHEM_FEATURE_SELFOVERLAP>
40.596

> <PUBCHEM_SHAPE_FINGERPRINT>
10615611 76 11311186821082735002
10622 236 18116989992485268395
11796584 16 18199475376312451829
11963148 33 18055344992901136319
12422481 6 17060327488363442279
12633257 1 17985843548438010241
12977781 61 17390187531343752288
131258 38 18335696092940656678
13165053 137 13282611874318423915
13402501 40 17988370381183377765
13533116 47 18333452027734908483
14068700 675 18264200318836230978
15003188 105 18410293618756779626
17492 89 18129672897955793518
18681886 176 17346606257768459156
19315092 285 18261103041936156602
1979834 28 16558762217033030229
20626108 58 18270123388233386240
21197605 99 17344069838608004263
21315764 119 17676482848803931231
21623969 137 17488755604615295189
21703447 108 18413100659110480792
23559900 14 17701273433547108964
25222932 49 18198901607463045263
3680242 22 18270694069117215531
439807 62 18410016572434695991
484985 159 16600673105193481242
5104073 3 17846508015012966129
59025328 239 17313669231226845110
66674814 147 17459196183590525450
6679774 75 17623265570976022048
6823239 73 17344936039011907340
9709674 26 17630627625493095237

> <PUBCHEM_SHAPE_MULTIPOLES>
570.12
13.16
4.45
2.56
19.37
3.24
-1.6
9.28
1.47
-3.79
3.77
-3.22
1.22
-2.99

> <PUBCHEM_SHAPE_SELFOVERLAP>
1190.933

> <PUBCHEM_SHAPE_VOLUME>
323

> <PUBCHEM_COORDINATE_TYPE>
2
5
10

$$$$
