45784183
  -OEChem-12032416243D

 42 45  0     1  0  0  0  0  0999 V2000
   -6.9260    2.2840    0.7790 Cl  0  0  0  0  0  0  0  0  0  0  0  0
    2.8809   -1.4612    0.5033 O   0  0  0  0  0  0  0  0  0  0  0  0
   -1.6888   -0.4621   -0.1524 N   0  0  1  0  0  0  0  0  0  0  0  0
    2.4102    0.6930   -0.0210 N   0  0  0  0  0  0  0  0  0  0  0  0
    0.5083   -0.9055    0.5372 C   0  0  1  0  0  0  0  0  0  0  0  0
   -0.2310   -0.1295    1.6411 C   0  0  0  0  0  0  0  0  0  0  0  0
   -0.3621   -0.7253   -0.7138 C   0  0  0  0  0  0  0  0  0  0  0  0
   -1.4529    0.4658    0.9536 C   0  0  0  0  0  0  0  0  0  0  0  0
   -2.6128    0.0761   -1.1398 C   0  0  0  0  0  0  0  0  0  0  0  0
    1.9446   -0.4884    0.3208 C   0  0  0  0  0  0  0  0  0  0  0  0
   -4.0463   -0.0647   -0.7016 C   0  0  0  0  0  0  0  0  0  0  0  0
    3.7688    0.4950   -0.0715 C   0  0  0  0  0  0  0  0  0  0  0  0
    4.0608   -0.8226    0.2490 C   0  0  0  0  0  0  0  0  0  0  0  0
   -4.7410    1.0452   -0.2209 C   0  0  0  0  0  0  0  0  0  0  0  0
   -4.6799   -1.3051   -0.7772 C   0  0  0  0  0  0  0  0  0  0  0  0
    4.8230    1.3676   -0.3773 C   0  0  0  0  0  0  0  0  0  0  0  0
    5.3405   -1.3617    0.2930 C   0  0  0  0  0  0  0  0  0  0  0  0
    6.1297    0.8597   -0.3434 C   0  0  0  0  0  0  0  0  0  0  0  0
    6.3807   -0.4781   -0.0146 C   0  0  0  0  0  0  0  0  0  0  0  0
   -6.0695    0.9149    0.1842 C   0  0  0  0  0  0  0  0  0  0  0  0
   -6.0083   -1.4356   -0.3720 C   0  0  0  0  0  0  0  0  0  0  0  0
   -6.7032   -0.3256    0.1085 C   0  0  0  0  0  0  0  0  0  0  0  0
    7.2741    1.7642   -0.6643 C   0  0  0  0  0  0  0  0  0  0  0  0
    0.5005   -1.9684    0.8180 H   0  0  0  0  0  0  0  0  0  0  0  0
    0.3811    0.6483    2.1100 H   0  0  0  0  0  0  0  0  0  0  0  0
   -0.5440   -0.8266    2.4285 H   0  0  0  0  0  0  0  0  0  0  0  0
   -0.0120    0.1165   -1.3261 H   0  0  0  0  0  0  0  0  0  0  0  0
   -0.3557   -1.6274   -1.3353 H   0  0  0  0  0  0  0  0  0  0  0  0
   -2.3009    0.5246    1.6432 H   0  0  0  0  0  0  0  0  0  0  0  0
   -1.2185    1.4774    0.5979 H   0  0  0  0  0  0  0  0  0  0  0  0
   -2.3809    1.1182   -1.3985 H   0  0  0  0  0  0  0  0  0  0  0  0
   -2.5150   -0.4806   -2.0827 H   0  0  0  0  0  0  0  0  0  0  0  0
   -4.2454    2.0115   -0.1608 H   0  0  0  0  0  0  0  0  0  0  0  0
   -4.1495   -2.1774   -1.1500 H   0  0  0  0  0  0  0  0  0  0  0  0
    4.6261    2.4037   -0.6336 H   0  0  0  0  0  0  0  0  0  0  0  0
    5.5237   -2.3980    0.5480 H   0  0  0  0  0  0  0  0  0  0  0  0
    7.4026   -0.8516    0.0036 H   0  0  0  0  0  0  0  0  0  0  0  0
   -6.5016   -2.4014   -0.4308 H   0  0  0  0  0  0  0  0  0  0  0  0
   -7.7378   -0.4422    0.4208 H   0  0  0  0  0  0  0  0  0  0  0  0
    8.1598    1.5019   -0.0756 H   0  0  0  0  0  0  0  0  0  0  0  0
    7.0334    2.8073   -0.4321 H   0  0  0  0  0  0  0  0  0  0  0  0
    7.5232    1.6912   -1.7276 H   0  0  0  0  0  0  0  0  0  0  0  0
  1 20  1  0  0  0  0
  2 10  1  0  0  0  0
  2 13  1  0  0  0  0
  3  7  1  0  0  0  0
  3  8  1  0  0  0  0
  3  9  1  0  0  0  0
  4 10  2  0  0  0  0
  4 12  1  0  0  0  0
  5  6  1  0  0  0  0
  5  7  1  0  0  0  0
  5 10  1  0  0  0  0
  5 24  1  0  0  0  0
  6  8  1  0  0  0  0
  6 25  1  0  0  0  0
  6 26  1  0  0  0  0
  7 27  1  0  0  0  0
  7 28  1  0  0  0  0
  8 29  1  0  0  0  0
  8 30  1  0  0  0  0
  9 11  1  0  0  0  0
  9 31  1  0  0  0  0
  9 32  1  0  0  0  0
 11 14  2  0  0  0  0
 11 15  1  0  0  0  0
 12 13  2  0  0  0  0
 12 16  1  0  0  0  0
 13 17  1  0  0  0  0
 14 20  1  0  0  0  0
 14 33  1  0  0  0  0
 15 21  2  0  0  0  0
 15 34  1  0  0  0  0
 16 18  2  0  0  0  0
 16 35  1  0  0  0  0
 17 19  2  0  0  0  0
 17 36  1  0  0  0  0
 18 19  1  0  0  0  0
 18 23  1  0  0  0  0
 19 37  1  0  0  0  0
 20 22  2  0  0  0  0
 21 22  1  0  0  0  0
 21 38  1  0  0  0  0
 22 39  1  0  0  0  0
 23 40  1  0  0  0  0
 23 41  1  0  0  0  0
 23 42  1  0  0  0  0
M  END
> <PUBCHEM_COMPOUND_CID>
45784183

> <PUBCHEM_CONFORMER_RMSD>
0.8

> <PUBCHEM_CONFORMER_DIVERSEORDER>
1
67
77
48
15
30
52
64
34
66
78
58
9
63
46
33
7
51
59
80
24
26
25
82
65
60
44
20
68
49
13
53
11
81
79
75
61
47
29
8
69
36
38
21
40
6
71
57
27
62
55
2
4
10
37
43
76
23
54
5
70
42
3
72
39
50
35
73
32
56
31
16
19
17
45
18
22
12
74
14
28
41

> <PUBCHEM_MMFF94_PARTIAL_CHARGES>
29
1 -0.18
10 0.3
11 -0.14
12 0.23
13 0.14
14 -0.15
15 -0.15
16 -0.15
17 -0.15
18 -0.14
19 -0.15
2 -0.28
20 0.18
21 -0.15
22 -0.15
23 0.14
3 -0.81
33 0.15
34 0.15
35 0.15
36 0.15
37 0.15
38 0.15
39 0.15
4 -0.57
5 0.18
7 0.27
8 0.27
9 0.41

> <PUBCHEM_EFFECTIVE_ROTOR_COUNT>
4

> <PUBCHEM_PHARMACOPHORE_FEATURES>
5
1 3 cation
5 2 4 10 12 13 rings
5 3 5 6 7 8 rings
6 11 14 15 20 21 22 rings
6 12 13 16 17 18 19 rings

> <PUBCHEM_HEAVY_ATOM_COUNT>
23

> <PUBCHEM_ATOM_DEF_STEREO_COUNT>
1

> <PUBCHEM_ATOM_UDEF_STEREO_COUNT>
0

> <PUBCHEM_BOND_DEF_STEREO_COUNT>
0

> <PUBCHEM_BOND_UDEF_STEREO_COUNT>
0

> <PUBCHEM_ISOTOPIC_ATOM_COUNT>
0

> <PUBCHEM_COMPONENT_COUNT>
1

> <PUBCHEM_CACTVS_TAUTO_COUNT>
1

> <PUBCHEM_CONFORMER_ID>
02BA9C7700000001

> <PUBCHEM_MMFF94_ENERGY>
47.4101

> <PUBCHEM_FEATURE_SELFOVERLAP>
25.492

> <PUBCHEM_SHAPE_FINGERPRINT>
10 15 14201401612222654372
10299344 5 18413107269054332983
10595046 47 18409164394339209731
106641 1 13118008816167026004
11315181 36 18335420184731165255
11646440 116 16515408456022112036
11719270 70 17561081367689804702
12166972 35 18259985981114376172
12236239 1 18413669106136276006
12643181 29 14333407865683130884
12730499 353 17458625584431925994
12788726 201 17275108280135041251
12916748 109 16515399647481706188
13073987 5 15936679368212152965
13167372 99 18411137996072954192
13533116 47 16878214261222290850
14251752 14 17917991663759251945
14251764 18 18408322202528288772
14849402 71 18188216514662426309
14856354 85 18131634521858913495
14933364 13 18411700989076021933
15048467 5 18412825764123471549
15183329 4 17846781797397137985
15537594 2 16415476047465361735
1577012 14 18411417306301465868
16994733 274 18334855004682922281
17093844 174 17060328627025660515
18006028 8 12463573984476253058
18335252 98 18334299811503617251
20157964 124 18259703407168830202
20281389 69 17603299350015495644
21033648 29 17822854320713305784
21150785 3 18272654580106723932
21521721 280 18113057142724441178
21792961 116 17418098689649012847
220451 1 17917990585627983015
22224240 67 16443063919445215339
23035841 295 18201999932704215799
23081809 10 18342165670412210575
23198884 109 18335139795706057779
23522609 53 18339663181979521433
23536379 177 18411980252139319851
23569943 247 17242720992439189962
23576562 1 17130687540134538477
2747138 104 16515696519874325725
29717793 49 18060142020941858422
3004659 81 17203608220397272392
314173 85 14908179759304149331
3545911 37 17894910737302180494
3663271 9 18334856108805547467
397830 11 15214165117788021301
4073 2 18113341941816558618
4098825 35 18338798918420557396
4325135 7 18334574664046426223
4340502 62 16008745801899366722
445580 37 17704080568637789185
5265222 85 17987796457029787903
5283156 175 17489592234496256806
542803 24 18412821386934631575
5758199 1 18040436598406031099
59682541 35 16515693260305390977
59755656 215 15123516891322212940
59755656 520 17822006531932601379
6328613 192 18341895165383516537
9996256 80 18334009488714363527

> <PUBCHEM_SHAPE_MULTIPOLES>
459.37
21.67
1.69
1
0.38
0.49
-0.13
6.87
2.03
0.64
-0.03
0.38
0.02
-1.77

> <PUBCHEM_SHAPE_SELFOVERLAP>
995.898

> <PUBCHEM_SHAPE_VOLUME>
254.9

> <PUBCHEM_COORDINATE_TYPE>
2
5
10

$$$$
