75536958
  -OEChem-12032416343D

 34 35  0     1  0  0  0  0  0999 V2000
    2.9558    0.9677   -1.5250 O   0  0  0  0  0  0  0  0  0  0  0  0
    4.1729   -1.0279    1.2122 O   0  0  0  0  0  0  0  0  0  0  0  0
   -3.7670    0.1684   -0.4386 O   0  0  0  0  0  0  0  0  0  0  0  0
    0.6964    0.0756    0.4308 N   0  0  2  0  0  0  0  0  0  0  0  0
   -3.2989   -1.0501   -0.9150 N   0  0  0  0  0  0  0  0  0  0  0  0
    1.8577   -0.3901    1.1968 C   0  0  0  0  0  0  0  0  0  0  0  0
    3.2553   -0.1044    0.6247 C   0  0  2  0  0  0  0  0  0  0  0  0
    0.8883    1.3666   -0.2314 C   0  0  0  0  0  0  0  0  0  0  0  0
   -0.4962    0.0803    1.2788 C   0  0  0  0  0  0  0  0  0  0  0  0
    3.3547   -0.2417   -0.8886 C   0  0  0  0  0  0  0  0  0  0  0  0
    1.5498    1.1604   -1.5946 C   0  0  0  0  0  0  0  0  0  0  0  0
   -1.7548   -0.1206    0.4773 C   0  0  0  0  0  0  0  0  0  0  0  0
   -2.8388    0.7123    0.3894 C   0  0  0  0  0  0  0  0  0  0  0  0
   -2.0956   -1.2013   -0.3543 C   0  0  0  0  0  0  0  0  0  0  0  0
   -3.1772    2.0119    0.9845 C   0  0  0  0  0  0  0  0  0  0  0  0
   -1.3025   -2.4070   -0.6470 C   0  0  0  0  0  0  0  0  0  0  0  0
    1.7520   -1.4743    1.3394 H   0  0  0  0  0  0  0  0  0  0  0  0
    1.8418    0.0371    2.2101 H   0  0  0  0  0  0  0  0  0  0  0  0
    3.5696    0.9052    0.9170 H   0  0  0  0  0  0  0  0  0  0  0  0
    1.4566    2.0634    0.3963 H   0  0  0  0  0  0  0  0  0  0  0  0
   -0.0800    1.8407   -0.4330 H   0  0  0  0  0  0  0  0  0  0  0  0
   -0.5514    0.9927    1.8867 H   0  0  0  0  0  0  0  0  0  0  0  0
   -0.4623   -0.7567    1.9910 H   0  0  0  0  0  0  0  0  0  0  0  0
    4.3995   -0.4135   -1.1721 H   0  0  0  0  0  0  0  0  0  0  0  0
    2.7885   -1.0991   -1.2728 H   0  0  0  0  0  0  0  0  0  0  0  0
    1.0864    0.3389   -2.1555 H   0  0  0  0  0  0  0  0  0  0  0  0
    1.3966    2.0668   -2.1912 H   0  0  0  0  0  0  0  0  0  0  0  0
    4.1304   -0.9090    2.1765 H   0  0  0  0  0  0  0  0  0  0  0  0
   -2.4292    2.7640    0.7152 H   0  0  0  0  0  0  0  0  0  0  0  0
   -4.1530    2.3701    0.6413 H   0  0  0  0  0  0  0  0  0  0  0  0
   -3.2105    1.9368    2.0758 H   0  0  0  0  0  0  0  0  0  0  0  0
   -0.8305   -2.7962    0.2609 H   0  0  0  0  0  0  0  0  0  0  0  0
   -1.9228   -3.2077   -1.0637 H   0  0  0  0  0  0  0  0  0  0  0  0
   -0.5148   -2.1794   -1.3725 H   0  0  0  0  0  0  0  0  0  0  0  0
  1 10  1  0  0  0  0
  1 11  1  0  0  0  0
  2  7  1  0  0  0  0
  2 28  1  0  0  0  0
  3  5  1  0  0  0  0
  3 13  1  0  0  0  0
  4  6  1  0  0  0  0
  4  8  1  0  0  0  0
  4  9  1  0  0  0  0
  5 14  2  0  0  0  0
  6  7  1  0  0  0  0
  6 17  1  0  0  0  0
  6 18  1  0  0  0  0
  7 10  1  0  0  0  0
  7 19  1  0  0  0  0
  8 11  1  0  0  0  0
  8 20  1  0  0  0  0
  8 21  1  0  0  0  0
  9 12  1  0  0  0  0
  9 22  1  0  0  0  0
  9 23  1  0  0  0  0
 10 24  1  0  0  0  0
 10 25  1  0  0  0  0
 11 26  1  0  0  0  0
 11 27  1  0  0  0  0
 12 13  2  0  0  0  0
 12 14  1  0  0  0  0
 13 15  1  0  0  0  0
 14 16  1  0  0  0  0
 15 29  1  0  0  0  0
 15 30  1  0  0  0  0
 15 31  1  0  0  0  0
 16 32  1  0  0  0  0
 16 33  1  0  0  0  0
 16 34  1  0  0  0  0
M  END
> <PUBCHEM_COMPOUND_CID>
75536958

> <PUBCHEM_CONFORMER_RMSD>
0.6

> <PUBCHEM_CONFORMER_DIVERSEORDER>
3
57
30
54
42
46
17
36
41
18
58
19
26
55
51
52
32
20
11
25
12
50
24
40
44
38
35
6
7
21
10
56
53
1
8
23
45
33
9
28
37
47
48
13
39
16
4
34
2
5
49
43
14
31
15
29
27
22

> <PUBCHEM_MMFF94_PARTIAL_CHARGES>
17
1 -0.56
10 0.28
11 0.28
12 -0.18
13 -0.04
14 0.11
15 0.18
16 0.18
2 -0.68
28 0.4
3 -0.02
4 -0.81
5 -0.41
6 0.27
7 0.28
8 0.27
9 0.45

> <PUBCHEM_EFFECTIVE_ROTOR_COUNT>
3.4

> <PUBCHEM_PHARMACOPHORE_FEATURES>
7
1 1 acceptor
1 2 acceptor
1 2 donor
1 4 cation
1 5 acceptor
5 3 5 12 13 14 rings
7 1 4 6 7 8 10 11 rings

> <PUBCHEM_HEAVY_ATOM_COUNT>
16

> <PUBCHEM_ATOM_DEF_STEREO_COUNT>
1

> <PUBCHEM_ATOM_UDEF_STEREO_COUNT>
0

> <PUBCHEM_BOND_DEF_STEREO_COUNT>
0

> <PUBCHEM_BOND_UDEF_STEREO_COUNT>
0

> <PUBCHEM_ISOTOPIC_ATOM_COUNT>
0

> <PUBCHEM_COMPONENT_COUNT>
1

> <PUBCHEM_CACTVS_TAUTO_COUNT>
1

> <PUBCHEM_CONFORMER_ID>
04809A3E00000003

> <PUBCHEM_MMFF94_ENERGY>
31.1797

> <PUBCHEM_FEATURE_SELFOVERLAP>
35.522

> <PUBCHEM_SHAPE_FINGERPRINT>
11471102 20 16950280706850061904
11578080 2 17973126691477954276
12500047 106 18060138704546506718
13296908 3 16415487051176594644
13693222 15 13901915504892360082
14115302 16 18339917225115578991
15207287 21 16558740243690381559
15219456 202 15769777939790573360
15375358 24 16702296836909485306
15775835 57 17968382341715934901
15852999 172 17632022952781834535
16752209 62 18271800238107875787
16945 1 18201443618332621163
17834072 14 15841554041772109113
18186145 218 16732988621920249488
18219364 16 15936412268512139633
18522853 266 18273219685643370878
19422 9 18113903779309613659
20201158 50 16271933713537290231
20279233 1 16773798095238398302
20645476 183 18333732454961229359
20645477 70 16950278499252884786
21486144 27 16153431691927770714
21639500 275 17241047720709474892
22169311 21 16988847146419602924
23175994 123 16298945338667046306
232386 152 18272362122413418674
23402539 116 17917413325391891069
23557571 272 17489592267991066152
23559900 14 17417537908822686278
23598291 2 18187366532054350334
25 1 16732985331880387560
3082319 5 18260550077427796278
57812782 119 16989122062907379923
581208 293 13542462047222918528
6992083 37 18334294258084061933
74978 22 18338519758452428749
77492 1 18333171665101590136
81228 2 16485594055731357056
90525 40 18409737261377496231
9981440 41 17395856930644929312

> <PUBCHEM_SHAPE_MULTIPOLES>
301.7
6.97
1.79
1.42
1.53
0.41
0.16
-0.08
-0.04
-1.52
0.21
1.12
-0.19
-1.29

> <PUBCHEM_SHAPE_SELFOVERLAP>
615.27

> <PUBCHEM_SHAPE_VOLUME>
175.7

> <PUBCHEM_COORDINATE_TYPE>
2
5
10

$$$$
