25388474
  -OEChem-12032416213D

 60 64  0     1  0  0  0  0  0999 V2000
    7.1722   -1.3104    0.2243 S   0  0  0  0  0  0  0  0  0  0  0  0
   -3.2665   -0.8554    2.2348 O   0  0  0  0  0  0  0  0  0  0  0  0
    1.3805    1.6968    1.5222 O   0  0  0  0  0  0  0  0  0  0  0  0
   -3.4146    0.6452    0.4674 N   0  0  0  0  0  0  0  0  0  0  0  0
   -0.4944    1.8988    0.1498 N   0  0  0  0  0  0  0  0  0  0  0  0
   -2.6737    2.9817    0.9460 C   0  0  1  0  0  0  0  0  0  0  0  0
   -2.5144    2.0964   -1.3422 C   0  0  2  0  0  0  0  0  0  0  0  0
   -2.8724    3.3345   -0.5230 C   0  0  0  0  0  0  0  0  0  0  0  0
   -3.5806    1.8048    1.3457 C   0  0  0  0  0  0  0  0  0  0  0  0
   -3.4639    0.9399   -0.9726 C   0  0  0  0  0  0  0  0  0  0  0  0
   -1.1909    2.6740    1.1857 C   0  0  0  0  0  0  0  0  0  0  0  0
   -1.0763    1.6779   -1.1006 C   0  0  0  0  0  0  0  0  0  0  0  0
   -3.2276   -1.7758    0.0616 C   0  0  0  0  0  0  0  0  0  0  0  0
   -3.3063   -0.6297    1.0227 C   0  0  0  0  0  0  0  0  0  0  0  0
   -1.7691   -2.0398   -0.3152 C   0  0  0  0  0  0  0  0  0  0  0  0
   -3.8760   -3.0090    0.6931 C   0  0  0  0  0  0  0  0  0  0  0  0
   -0.3750    1.0726   -2.0723 C   0  0  0  0  0  0  0  0  0  0  0  0
   -1.6364   -3.2672   -1.2132 C   0  0  0  0  0  0  0  0  0  0  0  0
   -3.7383   -4.2364   -0.2039 C   0  0  0  0  0  0  0  0  0  0  0  0
    0.8215    1.4903    0.4436 C   0  0  0  0  0  0  0  0  0  0  0  0
   -2.2829   -4.4973   -0.5824 C   0  0  0  0  0  0  0  0  0  0  0  0
    1.5695    0.7819   -0.6537 C   0  0  0  0  0  0  0  0  0  0  0  0
    0.9653    0.6151   -1.8396 C   0  0  0  0  0  0  0  0  0  0  0  0
    2.9346    0.2709   -0.4401 C   0  0  0  0  0  0  0  0  0  0  0  0
    3.9840    0.7329   -1.2346 C   0  0  0  0  0  0  0  0  0  0  0  0
    3.1785   -0.6732    0.5574 C   0  0  0  0  0  0  0  0  0  0  0  0
    5.2770    0.2508   -1.0317 C   0  0  0  0  0  0  0  0  0  0  0  0
    4.4715   -1.1552    0.7604 C   0  0  0  0  0  0  0  0  0  0  0  0
    5.5208   -0.6932   -0.0342 C   0  0  0  0  0  0  0  0  0  0  0  0
    7.4837   -0.8219    1.9445 C   0  0  0  0  0  0  0  0  0  0  0  0
   -2.9515    3.8398    1.5706 H   0  0  0  0  0  0  0  0  0  0  0  0
   -2.6572    2.3364   -2.4039 H   0  0  0  0  0  0  0  0  0  0  0  0
   -2.2399    4.1853   -0.8056 H   0  0  0  0  0  0  0  0  0  0  0  0
   -3.9120    3.6306   -0.7091 H   0  0  0  0  0  0  0  0  0  0  0  0
   -3.4024    1.5285    2.3903 H   0  0  0  0  0  0  0  0  0  0  0  0
   -4.6328    2.1060    1.2706 H   0  0  0  0  0  0  0  0  0  0  0  0
   -4.5007    1.2137   -1.2038 H   0  0  0  0  0  0  0  0  0  0  0  0
   -3.2159    0.0808   -1.5953 H   0  0  0  0  0  0  0  0  0  0  0  0
   -0.6437    3.6237    1.2613 H   0  0  0  0  0  0  0  0  0  0  0  0
   -1.0541    2.1701    2.1509 H   0  0  0  0  0  0  0  0  0  0  0  0
   -3.8222   -1.5782   -0.8343 H   0  0  0  0  0  0  0  0  0  0  0  0
   -1.1676   -2.1869    0.5916 H   0  0  0  0  0  0  0  0  0  0  0  0
   -1.3398   -1.1793   -0.8276 H   0  0  0  0  0  0  0  0  0  0  0  0
   -4.9376   -2.8184    0.8937 H   0  0  0  0  0  0  0  0  0  0  0  0
   -3.4136   -3.2399    1.6618 H   0  0  0  0  0  0  0  0  0  0  0  0
   -0.8070    0.8792   -3.0486 H   0  0  0  0  0  0  0  0  0  0  0  0
   -0.5769   -3.4671   -1.4092 H   0  0  0  0  0  0  0  0  0  0  0  0
   -2.1078   -3.0624   -2.1823 H   0  0  0  0  0  0  0  0  0  0  0  0
   -4.3316   -4.0907   -1.1151 H   0  0  0  0  0  0  0  0  0  0  0  0
   -4.1493   -5.1146    0.3068 H   0  0  0  0  0  0  0  0  0  0  0  0
   -2.2288   -5.3408   -1.2798 H   0  0  0  0  0  0  0  0  0  0  0  0
   -1.7194   -4.7862    0.3133 H   0  0  0  0  0  0  0  0  0  0  0  0
    1.4530    0.1047   -2.6651 H   0  0  0  0  0  0  0  0  0  0  0  0
    3.8159    1.4731   -2.0132 H   0  0  0  0  0  0  0  0  0  0  0  0
    2.3714   -1.0495    1.1814 H   0  0  0  0  0  0  0  0  0  0  0  0
    6.0824    0.6235   -1.6599 H   0  0  0  0  0  0  0  0  0  0  0  0
    4.6362   -1.8968    1.5380 H   0  0  0  0  0  0  0  0  0  0  0  0
    8.5175   -1.0651    2.2037 H   0  0  0  0  0  0  0  0  0  0  0  0
    6.8201   -1.3598    2.6264 H   0  0  0  0  0  0  0  0  0  0  0  0
    7.3366    0.2546    2.0669 H   0  0  0  0  0  0  0  0  0  0  0  0
  1 29  1  0  0  0  0
  1 30  1  0  0  0  0
  2 14  2  0  0  0  0
  3 20  2  0  0  0  0
  4  9  1  0  0  0  0
  4 10  1  0  0  0  0
  4 14  1  0  0  0  0
  5 11  1  0  0  0  0
  5 12  1  0  0  0  0
  5 20  1  0  0  0  0
  6  8  1  0  0  0  0
  6  9  1  0  0  0  0
  6 11  1  0  0  0  0
  6 31  1  0  0  0  0
  7  8  1  0  0  0  0
  7 10  1  0  0  0  0
  7 12  1  0  0  0  0
  7 32  1  0  0  0  0
  8 33  1  0  0  0  0
  8 34  1  0  0  0  0
  9 35  1  0  0  0  0
  9 36  1  0  0  0  0
 10 37  1  0  0  0  0
 10 38  1  0  0  0  0
 11 39  1  0  0  0  0
 11 40  1  0  0  0  0
 12 17  2  0  0  0  0
 13 14  1  0  0  0  0
 13 15  1  0  0  0  0
 13 16  1  0  0  0  0
 13 41  1  0  0  0  0
 15 18  1  0  0  0  0
 15 42  1  0  0  0  0
 15 43  1  0  0  0  0
 16 19  1  0  0  0  0
 16 44  1  0  0  0  0
 16 45  1  0  0  0  0
 17 23  1  0  0  0  0
 17 46  1  0  0  0  0
 18 21  1  0  0  0  0
 18 47  1  0  0  0  0
 18 48  1  0  0  0  0
 19 21  1  0  0  0  0
 19 49  1  0  0  0  0
 19 50  1  0  0  0  0
 20 22  1  0  0  0  0
 21 51  1  0  0  0  0
 21 52  1  0  0  0  0
 22 23  2  0  0  0  0
 22 24  1  0  0  0  0
 23 53  1  0  0  0  0
 24 25  2  0  0  0  0
 24 26  1  0  0  0  0
 25 27  1  0  0  0  0
 25 54  1  0  0  0  0
 26 28  2  0  0  0  0
 26 55  1  0  0  0  0
 27 29  2  0  0  0  0
 27 56  1  0  0  0  0
 28 29  1  0  0  0  0
 28 57  1  0  0  0  0
 30 58  1  0  0  0  0
 30 59  1  0  0  0  0
 30 60  1  0  0  0  0
M  END
> <PUBCHEM_COMPOUND_CID>
25388474

> <PUBCHEM_CONFORMER_RMSD>
0.8

> <PUBCHEM_CONFORMER_DIVERSEORDER>
1
13
7
15
16
11
14
10
2
12
4
5
9
3
17
6
8

> <PUBCHEM_MMFF94_PARTIAL_CHARGES>
29
1 -0.33
10 0.3
11 0.3
12 -0.03
13 0.06
14 0.57
17 -0.15
2 -0.57
20 0.62
22 -0.01
23 -0.15
24 0.03
25 -0.15
26 -0.15
27 -0.15
28 -0.15
29 0.1
3 -0.57
30 0.23
4 -0.66
46 0.15
5 -0.47
53 0.15
54 0.15
55 0.15
56 0.15
57 0.15
7 0.14
9 0.3

> <PUBCHEM_EFFECTIVE_ROTOR_COUNT>
6.2

> <PUBCHEM_PHARMACOPHORE_FEATURES>
8
1 2 acceptor
1 3 acceptor
1 30 hydrophobe
6 13 15 16 18 19 21 rings
6 24 25 26 27 28 29 rings
6 4 6 7 8 9 10 rings
6 5 12 17 20 22 23 rings
6 5 6 7 8 11 12 rings

> <PUBCHEM_HEAVY_ATOM_COUNT>
30

> <PUBCHEM_ATOM_DEF_STEREO_COUNT>
2

> <PUBCHEM_ATOM_UDEF_STEREO_COUNT>
0

> <PUBCHEM_BOND_DEF_STEREO_COUNT>
0

> <PUBCHEM_BOND_UDEF_STEREO_COUNT>
0

> <PUBCHEM_ISOTOPIC_ATOM_COUNT>
0

> <PUBCHEM_COMPONENT_COUNT>
1

> <PUBCHEM_CACTVS_TAUTO_COUNT>
3

> <PUBCHEM_CONFORMER_ID>
018365BA00000001

> <PUBCHEM_MMFF94_ENERGY>
76.211

> <PUBCHEM_FEATURE_SELFOVERLAP>
42.163

> <PUBCHEM_SHAPE_FINGERPRINT>
10483366 6 18338219541399267855
10622 236 18114174289615171346
11524674 6 18270678649868014551
11552529 35 18411139147118700412
12422481 6 17902267479662563985
12523318 42 18413386523358709592
12633257 1 17845112786280789465
12788726 201 18265347264214588550
13004483 165 18196655309771277031
13009979 54 18189346825526282399
13631057 29 18337113492145074908
14020679 6 17631463271668291489
14114206 34 16805871974781190165
14114207 22 17170099349484604019
14705955 166 17203060590665933019
14844126 61 18410013243133311659
14856354 85 18343584023764779972
14950920 106 17917722339160730352
15021287 119 17458069236164667204
15250474 111 18333449837908144806
15320294 125 18261110734175305702
15484559 13 13562951175939669030
16728300 4 18041560213950052627
18927931 339 15864644847234671088
19611394 137 18131625704507066680
20511986 3 17895187771409567656
20775530 9 18052260897160566095
22956985 138 17979630461669740736
23559900 14 18337382842018515933
3383291 50 18413668007258170607
397830 11 18271514391402857288
4409770 3 18408881815882835013
445580 42 18342168968767550982
463206 1 18047197637493373579
484985 159 18334847325465896295
5080951 261 18043226021447292758
508706 21 18270974465614439527
5104073 3 18412254052906362656
9981440 41 18195252105374866785

> <PUBCHEM_SHAPE_MULTIPOLES>
599.53
13.05
4.72
1.74
30.54
4.34
-0.09
6.54
-4.45
-8.82
0.26
0.13
-0.49
-0.91

> <PUBCHEM_SHAPE_SELFOVERLAP>
1284.201

> <PUBCHEM_SHAPE_VOLUME>
333.4

> <PUBCHEM_COORDINATE_TYPE>
2
5
10

$$$$
