71694004
  -OEChem-12032416273D

 57 60  0     1  0  0  0  0  0999 V2000
    2.2854   -3.9486   -1.5624 O   0  0  0  0  0  0  0  0  0  0  0  0
   -0.3920   -4.5373   -1.4073 O   0  0  0  0  0  0  0  0  0  0  0  0
    1.1797    0.4797   -0.8892 O   0  0  0  0  0  0  0  0  0  0  0  0
   -6.3314    2.9649   -0.5159 O   0  0  0  0  0  0  0  0  0  0  0  0
    5.0256    3.8059   -0.8741 O   0  0  0  0  0  0  0  0  0  0  0  0
    2.1199   -1.3670    0.1527 N   0  0  0  0  0  0  0  0  0  0  0  0
   -2.9473   -0.6333   -0.6601 N   0  0  0  0  0  0  0  0  0  0  0  0
   -4.2717    1.1636    0.1261 N   0  0  0  0  0  0  0  0  0  0  0  0
    0.0094   -2.4280    0.8975 C   0  0  2  0  0  0  0  0  0  0  0  0
    1.0876   -2.3072   -0.2031 C   0  0  2  0  0  0  0  0  0  0  0  0
    1.6301   -3.7303   -0.3273 C   0  0  1  0  0  0  0  0  0  0  0  0
   -0.4157   -3.9192    0.9107 C   0  0  0  0  0  0  0  0  0  0  0  0
    0.3771   -4.5896   -0.2096 C   0  0  1  0  0  0  0  0  0  0  0  0
   -1.1357   -1.4546    0.7142 C   0  0  0  0  0  0  0  0  0  0  0  0
   -1.4391   -0.5119    1.6903 C   0  0  0  0  0  0  0  0  0  0  0  0
   -1.9132   -1.4739   -0.4325 C   0  0  0  0  0  0  0  0  0  0  0  0
    2.0783   -0.0320   -0.2264 C   0  0  0  0  0  0  0  0  0  0  0  0
   -2.4957    0.3701    1.4926 C   0  0  0  0  0  0  0  0  0  0  0  0
   -3.2124    0.2692    0.3111 C   0  0  0  0  0  0  0  0  0  0  0  0
    3.2326    0.8018    0.1972 C   0  0  0  0  0  0  0  0  0  0  0  0
   -5.4163    0.7250   -0.6842 C   0  0  0  0  0  0  0  0  0  0  0  0
   -4.0162    2.6081    0.1157 C   0  0  0  0  0  0  0  0  0  0  0  0
   -6.6359    1.5793   -0.3575 C   0  0  0  0  0  0  0  0  0  0  0  0
   -5.3107    3.3623    0.3989 C   0  0  0  0  0  0  0  0  0  0  0  0
    3.5914    1.9258   -0.5467 C   0  0  0  0  0  0  0  0  0  0  0  0
    3.9576    0.4605    1.3390 C   0  0  0  0  0  0  0  0  0  0  0  0
    4.6753    2.7088   -0.1489 C   0  0  0  0  0  0  0  0  0  0  0  0
    5.0416    1.2431    1.7367 C   0  0  0  0  0  0  0  0  0  0  0  0
    5.4003    2.3675    0.9930 C   0  0  0  0  0  0  0  0  0  0  0  0
    4.2414    4.0972   -2.0303 C   0  0  0  0  0  0  0  0  0  0  0  0
    0.4739   -2.2231    1.8734 H   0  0  0  0  0  0  0  0  0  0  0  0
    0.6698   -1.9919   -1.1672 H   0  0  0  0  0  0  0  0  0  0  0  0
    2.3298   -3.9564    0.4873 H   0  0  0  0  0  0  0  0  0  0  0  0
   -0.1176   -4.3545    1.8728 H   0  0  0  0  0  0  0  0  0  0  0  0
   -1.4966   -4.0593    0.8041 H   0  0  0  0  0  0  0  0  0  0  0  0
    0.6100   -5.6386   -0.0040 H   0  0  0  0  0  0  0  0  0  0  0  0
    2.9067   -1.7274    0.6811 H   0  0  0  0  0  0  0  0  0  0  0  0
    2.5165   -4.8921   -1.6074 H   0  0  0  0  0  0  0  0  0  0  0  0
   -1.1938   -5.0682   -1.2630 H   0  0  0  0  0  0  0  0  0  0  0  0
   -0.8627   -0.4545    2.6094 H   0  0  0  0  0  0  0  0  0  0  0  0
   -1.7359   -2.1834   -1.2334 H   0  0  0  0  0  0  0  0  0  0  0  0
   -2.7403    1.0958    2.2613 H   0  0  0  0  0  0  0  0  0  0  0  0
   -5.6586   -0.3266   -0.4898 H   0  0  0  0  0  0  0  0  0  0  0  0
   -5.1617    0.8311   -1.7459 H   0  0  0  0  0  0  0  0  0  0  0  0
   -3.6337    2.8861   -0.8742 H   0  0  0  0  0  0  0  0  0  0  0  0
   -3.2664    2.9020    0.8580 H   0  0  0  0  0  0  0  0  0  0  0  0
   -6.9882    1.3984    0.6653 H   0  0  0  0  0  0  0  0  0  0  0  0
   -7.4567    1.3346   -1.0391 H   0  0  0  0  0  0  0  0  0  0  0  0
   -5.1499    4.4381    0.2765 H   0  0  0  0  0  0  0  0  0  0  0  0
   -5.6552    3.1927    1.4263 H   0  0  0  0  0  0  0  0  0  0  0  0
    3.0020    2.1473   -1.4300 H   0  0  0  0  0  0  0  0  0  0  0  0
    3.6930   -0.3854    1.9663 H   0  0  0  0  0  0  0  0  0  0  0  0
    5.6017    0.9823    2.6300 H   0  0  0  0  0  0  0  0  0  0  0  0
    6.2443    2.9744    1.3090 H   0  0  0  0  0  0  0  0  0  0  0  0
    4.6594    5.0020   -2.4838 H   0  0  0  0  0  0  0  0  0  0  0  0
    3.2028    4.3238   -1.7662 H   0  0  0  0  0  0  0  0  0  0  0  0
    4.3169    3.3014   -2.7791 H   0  0  0  0  0  0  0  0  0  0  0  0
  1 11  1  0  0  0  0
  1 38  1  0  0  0  0
  2 13  1  0  0  0  0
  2 39  1  0  0  0  0
  3 17  2  0  0  0  0
  4 23  1  0  0  0  0
  4 24  1  0  0  0  0
  5 27  1  0  0  0  0
  5 30  1  0  0  0  0
  6 10  1  0  0  0  0
  6 17  1  0  0  0  0
  6 37  1  0  0  0  0
  7 16  1  0  0  0  0
  7 19  2  0  0  0  0
  8 19  1  0  0  0  0
  8 21  1  0  0  0  0
  8 22  1  0  0  0  0
  9 10  1  0  0  0  0
  9 12  1  0  0  0  0
  9 14  1  0  0  0  0
  9 31  1  0  0  0  0
 10 11  1  0  0  0  0
 10 32  1  0  0  0  0
 11 13  1  0  0  0  0
 11 33  1  0  0  0  0
 12 13  1  0  0  0  0
 12 34  1  0  0  0  0
 12 35  1  0  0  0  0
 13 36  1  0  0  0  0
 14 15  1  0  0  0  0
 14 16  2  0  0  0  0
 15 18  2  0  0  0  0
 15 40  1  0  0  0  0
 16 41  1  0  0  0  0
 17 20  1  0  0  0  0
 18 19  1  0  0  0  0
 18 42  1  0  0  0  0
 20 25  2  0  0  0  0
 20 26  1  0  0  0  0
 21 23  1  0  0  0  0
 21 43  1  0  0  0  0
 21 44  1  0  0  0  0
 22 24  1  0  0  0  0
 22 45  1  0  0  0  0
 22 46  1  0  0  0  0
 23 47  1  0  0  0  0
 23 48  1  0  0  0  0
 24 49  1  0  0  0  0
 24 50  1  0  0  0  0
 25 27  1  0  0  0  0
 25 51  1  0  0  0  0
 26 28  2  0  0  0  0
 26 52  1  0  0  0  0
 27 29  2  0  0  0  0
 28 29  1  0  0  0  0
 28 53  1  0  0  0  0
 29 54  1  0  0  0  0
 30 55  1  0  0  0  0
 30 56  1  0  0  0  0
 30 57  1  0  0  0  0
M  END
> <PUBCHEM_COMPOUND_CID>
71694004

> <PUBCHEM_CONFORMER_RMSD>
1

> <PUBCHEM_CONFORMER_DIVERSEORDER>
2
74
58
21
55
72
7
34
70
51
59
27
49
9
75
22
30
40
64
68
69
56
73
17
57
24
46
13
53
23
67
1
25
71
62
65
33
45
54
43
52
14
16
44
20
26
18
36
66
35
60
4
48
12
11
37
50
31
19
10
42
15
6
63
38
29
61
39
41
28
32
5
8
47
3

> <PUBCHEM_MMFF94_PARTIAL_CHARGES>
39
1 -0.68
10 0.3
11 0.28
13 0.28
14 -0.14
15 -0.15
16 0.16
17 0.54
18 -0.15
19 0.41
2 -0.68
20 0.09
21 0.37
22 0.37
23 0.28
24 0.28
25 -0.15
26 -0.15
27 0.08
28 -0.15
29 -0.15
3 -0.57
30 0.28
37 0.37
38 0.4
39 0.4
4 -0.56
40 0.15
41 0.15
42 0.15
5 -0.36
51 0.15
52 0.15
53 0.15
54 0.15
6 -0.73
7 -0.62
8 -0.84
9 0.14

> <PUBCHEM_EFFECTIVE_ROTOR_COUNT>
8.2

> <PUBCHEM_PHARMACOPHORE_FEATURES>
13
1 1 acceptor
1 1 donor
1 2 acceptor
1 2 donor
1 3 acceptor
1 4 acceptor
1 5 acceptor
1 6 donor
3 7 8 19 cation
5 9 10 11 12 13 rings
6 20 25 26 27 28 29 rings
6 4 8 21 22 23 24 rings
6 7 14 15 16 18 19 rings

> <PUBCHEM_HEAVY_ATOM_COUNT>
30

> <PUBCHEM_ATOM_DEF_STEREO_COUNT>
4

> <PUBCHEM_ATOM_UDEF_STEREO_COUNT>
0

> <PUBCHEM_BOND_DEF_STEREO_COUNT>
0

> <PUBCHEM_BOND_UDEF_STEREO_COUNT>
0

> <PUBCHEM_ISOTOPIC_ATOM_COUNT>
0

> <PUBCHEM_COMPONENT_COUNT>
1

> <PUBCHEM_CACTVS_TAUTO_COUNT>
2

> <PUBCHEM_CONFORMER_ID>
0445F6B400000002

> <PUBCHEM_MMFF94_ENERGY>
108.347

> <PUBCHEM_FEATURE_SELFOVERLAP>
65.984

> <PUBCHEM_SHAPE_FINGERPRINT>
10673678 19 18412259502718564929
10937287 8 18411981373067872255
11059845 2 18195504078675090992
11386260 185 17762327025748046045
11477941 20 16973093657824786412
12107183 9 18261376863881961402
12293681 160 17775282781114799339
12633257 1 15864359055609788041
12788726 201 17688585387754876898
13590594 115 17474118596108401163
13944108 23 18047198453589829460
14040221 304 18262777650327998157
14068700 675 17554886573007445610
14117953 113 18408601431833871764
14251764 75 18340778074185787193
14294032 229 18196944489861625827
14849402 71 18263646156385714850
15064981 113 18058174006786746764
15163728 17 18411142454195935056
15198563 99 17693658521219808431
15420108 30 18338781373701284106
15439362 3 18413106135441488074
15513586 35 16448419838459427580
15664445 248 17768533785481472815
15840311 113 18122067503967545301
16988056 13 17977105656707307268
20715895 44 18409162186631503176
21304303 282 18057300976657680214
21792964 463 17172087557984819799
22149856 69 18265076677934580625
22950370 63 9511467748612652921
23522609 53 17702673130263819153
23559900 14 17981321197622021195
245318 6 17968671508847951213
376196 1 18334860493693162075
4058900 60 18409456872779507496
5219985 13 18411136973860071373
57091435 61 18337388236728840433
57724786 102 18113614616842901748
6034566 193 18265065784911372449
6058803 2 17827063315659062520
6523845 18 18052015572659568858
9849439 229 18335426789462887069
9981440 41 18409729590602855483

> <PUBCHEM_SHAPE_MULTIPOLES>
573.1
13.47
6.65
1.44
9.08
4.82
0.04
-22.66
-0.34
-2.79
-2.71
-1.26
-0.16
-0.49

> <PUBCHEM_SHAPE_SELFOVERLAP>
1228.435

> <PUBCHEM_SHAPE_VOLUME>
315.5

> <PUBCHEM_COORDINATE_TYPE>
2
5
10

$$$$
