11883067
  -OEChem-12032416123D

 73 77  0     1  0  0  0  0  0999 V2000
    0.1461    3.7272   -0.2653 S   0  0  0  0  0  0  0  0  0  0  0  0
   -6.9368    0.3691   -0.6907 O   0  0  0  0  0  0  0  0  0  0  0  0
   -6.8661    2.4805    0.4414 O   0  0  0  0  0  0  0  0  0  0  0  0
    0.8836   -1.4920   -0.7965 O   0  0  0  0  0  0  0  0  0  0  0  0
    3.8346    0.9608    0.0634 O   0  0  0  0  0  0  0  0  0  0  0  0
    5.0091    4.2956   -0.2350 O   0  0  0  0  0  0  0  0  0  0  0  0
    0.9356    1.2805    0.0228 N   0  0  0  0  0  0  0  0  0  0  0  0
    1.3034   -2.6657    1.1595 N   0  0  0  0  0  0  0  0  0  0  0  0
    2.6522    2.9615   -0.1702 N   0  0  0  0  0  0  0  0  0  0  0  0
   -2.7544    0.2872    0.5377 C   0  0  2  0  0  0  0  0  0  0  0  0
   -3.2821    1.4509   -0.4124 C   0  0  1  0  0  0  0  0  0  0  0  0
   -4.8449    1.6386   -0.5143 C   0  0  1  0  0  0  0  0  0  0  0  0
   -1.2300   -0.0060    0.1582 C   0  0  1  0  0  0  0  0  0  0  0  0
   -3.5783   -1.0014    0.2813 C   0  0  0  0  0  0  0  0  0  0  0  0
   -5.5148    0.2510   -0.7236 C   0  0  1  0  0  0  0  0  0  0  0  0
   -2.5056    2.7782   -0.1711 C   0  0  0  0  0  0  0  0  0  0  0  0
   -5.0848   -0.7857    0.3083 C   0  0  0  0  0  0  0  0  0  0  0  0
   -2.8506    0.6478    2.0406 C   0  0  0  0  0  0  0  0  0  0  0  0
   -0.4470    1.2756    0.0316 C   0  0  0  0  0  0  0  0  0  0  0  0
   -5.4802    2.3821    0.6814 C   0  0  0  0  0  0  0  0  0  0  0  0
   -5.1713    2.5029   -1.7650 C   0  0  0  0  0  0  0  0  0  0  0  0
   -1.0388    2.5113   -0.1335 C   0  0  0  0  0  0  0  0  0  0  0  0
   -0.5237   -1.0069    1.0825 C   0  0  0  0  0  0  0  0  0  0  0  0
    0.6103   -1.7314    0.3826 C   0  0  0  0  0  0  0  0  0  0  0  0
    1.3572    2.5182   -0.1204 C   0  0  0  0  0  0  0  0  0  0  0  0
    2.4217   -3.4454    0.6341 C   0  0  0  0  0  0  0  0  0  0  0  0
    0.9620   -2.9317    2.5515 C   0  0  0  0  0  0  0  0  0  0  0  0
    3.8266    2.1814   -0.0783 C   0  0  0  0  0  0  0  0  0  0  0  0
    1.9626   -4.7175   -0.0180 C   0  0  0  0  0  0  0  0  0  0  0  0
    5.0872    2.9442   -0.1172 C   0  0  0  0  0  0  0  0  0  0  0  0
    1.8437   -5.8846    0.7367 C   0  0  0  0  0  0  0  0  0  0  0  0
    1.6544   -4.7322   -1.3784 C   0  0  0  0  0  0  0  0  0  0  0  0
    6.4005    2.5398   -0.0547 C   0  0  0  0  0  0  0  0  0  0  0  0
    1.4169   -7.0664    0.1310 C   0  0  0  0  0  0  0  0  0  0  0  0
    1.2274   -5.9141   -1.9839 C   0  0  0  0  0  0  0  0  0  0  0  0
    1.1087   -7.0811   -1.2291 C   0  0  0  0  0  0  0  0  0  0  0  0
    7.1792    3.7185   -0.1395 C   0  0  0  0  0  0  0  0  0  0  0  0
    6.2864    4.7592   -0.2476 C   0  0  0  0  0  0  0  0  0  0  0  0
   -2.9867    1.1211   -1.4237 H   0  0  0  0  0  0  0  0  0  0  0  0
   -1.2564   -0.4259   -0.8584 H   0  0  0  0  0  0  0  0  0  0  0  0
   -3.3351   -1.7738    1.0196 H   0  0  0  0  0  0  0  0  0  0  0  0
   -3.3111   -1.4196   -0.6982 H   0  0  0  0  0  0  0  0  0  0  0  0
   -5.2534   -0.1235   -1.7223 H   0  0  0  0  0  0  0  0  0  0  0  0
   -2.7209    3.4918   -0.9735 H   0  0  0  0  0  0  0  0  0  0  0  0
   -2.8083    3.2428    0.7733 H   0  0  0  0  0  0  0  0  0  0  0  0
   -5.5875   -1.7380    0.0952 H   0  0  0  0  0  0  0  0  0  0  0  0
   -5.4292   -0.5031    1.3092 H   0  0  0  0  0  0  0  0  0  0  0  0
   -2.2867    1.5499    2.2933 H   0  0  0  0  0  0  0  0  0  0  0  0
   -3.8746    0.7921    2.3790 H   0  0  0  0  0  0  0  0  0  0  0  0
   -2.4540   -0.1584    2.6678 H   0  0  0  0  0  0  0  0  0  0  0  0
   -5.0789    3.3941    0.7913 H   0  0  0  0  0  0  0  0  0  0  0  0
   -5.3552    1.8568    1.6248 H   0  0  0  0  0  0  0  0  0  0  0  0
   -4.6738    2.1052   -2.6572 H   0  0  0  0  0  0  0  0  0  0  0  0
   -4.8459    3.5409   -1.6393 H   0  0  0  0  0  0  0  0  0  0  0  0
   -6.2439    2.5277   -1.9875 H   0  0  0  0  0  0  0  0  0  0  0  0
   -0.1272   -0.4831    1.9602 H   0  0  0  0  0  0  0  0  0  0  0  0
   -1.2263   -1.7790    1.4084 H   0  0  0  0  0  0  0  0  0  0  0  0
   -7.3099   -0.5104   -0.8717 H   0  0  0  0  0  0  0  0  0  0  0  0
   -7.2572    2.9579    1.1927 H   0  0  0  0  0  0  0  0  0  0  0  0
    2.7576    3.9671   -0.2803 H   0  0  0  0  0  0  0  0  0  0  0  0
    3.1424   -3.6489    1.4354 H   0  0  0  0  0  0  0  0  0  0  0  0
    2.9547   -2.8331   -0.1043 H   0  0  0  0  0  0  0  0  0  0  0  0
    0.6171   -3.9661    2.6363 H   0  0  0  0  0  0  0  0  0  0  0  0
    0.1890   -2.2891    2.9688 H   0  0  0  0  0  0  0  0  0  0  0  0
    1.8618   -2.8044    3.1620 H   0  0  0  0  0  0  0  0  0  0  0  0
    2.0840   -5.8881    1.7965 H   0  0  0  0  0  0  0  0  0  0  0  0
    1.7463   -3.8332   -1.9813 H   0  0  0  0  0  0  0  0  0  0  0  0
    6.7569    1.5239    0.0402 H   0  0  0  0  0  0  0  0  0  0  0  0
    1.3254   -7.9754    0.7184 H   0  0  0  0  0  0  0  0  0  0  0  0
    0.9885   -5.9261   -3.0433 H   0  0  0  0  0  0  0  0  0  0  0  0
    0.7768   -8.0014   -1.7008 H   0  0  0  0  0  0  0  0  0  0  0  0
    8.2564    3.7995   -0.1236 H   0  0  0  0  0  0  0  0  0  0  0  0
    6.3938    5.8303   -0.3373 H   0  0  0  0  0  0  0  0  0  0  0  0
  1 22  1  0  0  0  0
  1 25  1  0  0  0  0
  2 15  1  0  0  0  0
  2 58  1  0  0  0  0
  3 20  1  0  0  0  0
  3 59  1  0  0  0  0
  4 24  2  0  0  0  0
  5 28  2  0  0  0  0
  6 30  1  0  0  0  0
  6 38  1  0  0  0  0
  7 19  1  0  0  0  0
  7 25  2  0  0  0  0
  8 24  1  0  0  0  0
  8 26  1  0  0  0  0
  8 27  1  0  0  0  0
  9 25  1  0  0  0  0
  9 28  1  0  0  0  0
  9 60  1  0  0  0  0
 10 11  1  0  0  0  0
 10 13  1  0  0  0  0
 10 14  1  0  0  0  0
 10 18  1  0  0  0  0
 11 12  1  0  0  0  0
 11 16  1  0  0  0  0
 11 39  1  0  0  0  0
 12 15  1  0  0  0  0
 12 20  1  0  0  0  0
 12 21  1  0  0  0  0
 13 19  1  0  0  0  0
 13 23  1  0  0  0  0
 13 40  1  0  0  0  0
 14 17  1  0  0  0  0
 14 41  1  0  0  0  0
 14 42  1  0  0  0  0
 15 17  1  0  0  0  0
 15 43  1  0  0  0  0
 16 22  1  0  0  0  0
 16 44  1  0  0  0  0
 16 45  1  0  0  0  0
 17 46  1  0  0  0  0
 17 47  1  0  0  0  0
 18 48  1  0  0  0  0
 18 49  1  0  0  0  0
 18 50  1  0  0  0  0
 19 22  2  0  0  0  0
 20 51  1  0  0  0  0
 20 52  1  0  0  0  0
 21 53  1  0  0  0  0
 21 54  1  0  0  0  0
 21 55  1  0  0  0  0
 23 24  1  0  0  0  0
 23 56  1  0  0  0  0
 23 57  1  0  0  0  0
 26 29  1  0  0  0  0
 26 61  1  0  0  0  0
 26 62  1  0  0  0  0
 27 63  1  0  0  0  0
 27 64  1  0  0  0  0
 27 65  1  0  0  0  0
 28 30  1  0  0  0  0
 29 31  2  0  0  0  0
 29 32  1  0  0  0  0
 30 33  2  0  0  0  0
 31 34  1  0  0  0  0
 31 66  1  0  0  0  0
 32 35  2  0  0  0  0
 32 67  1  0  0  0  0
 33 37  1  0  0  0  0
 33 68  1  0  0  0  0
 34 36  2  0  0  0  0
 34 69  1  0  0  0  0
 35 36  1  0  0  0  0
 35 70  1  0  0  0  0
 36 71  1  0  0  0  0
 37 38  2  0  0  0  0
 37 72  1  0  0  0  0
 38 73  1  0  0  0  0
M  END
> <PUBCHEM_COMPOUND_CID>
11883067

> <PUBCHEM_CONFORMER_RMSD>
1.2

> <PUBCHEM_CONFORMER_DIVERSEORDER>
1
32
31
23
13
18
21
38
34
11
42
5
19
37
8
26
40
12
6
43
27
15
22
44
35
36
29
20
3
30
10
25
2
17
33
41
14
7
39
24
16
28
4
9

> <PUBCHEM_MMFF94_PARTIAL_CHARGES>
42
1 -0.08
13 0.18
15 0.28
16 0.18
19 0.05
2 -0.68
20 0.28
22 -0.14
23 0.06
24 0.57
25 0.44
26 0.44
27 0.3
28 0.71
29 -0.14
3 -0.68
30 0.05
31 -0.15
32 -0.15
33 -0.15
34 -0.15
35 -0.15
36 -0.15
37 -0.15
38 -0.01
4 -0.57
5 -0.57
58 0.4
59 0.4
6 -0.28
60 0.37
66 0.15
67 0.15
68 0.15
69 0.15
7 -0.57
70 0.15
71 0.15
72 0.15
73 0.15
8 -0.66
9 -0.49

> <PUBCHEM_EFFECTIVE_ROTOR_COUNT>
10.2

> <PUBCHEM_PHARMACOPHORE_FEATURES>
13
1 2 acceptor
1 2 donor
1 3 acceptor
1 3 donor
1 4 acceptor
1 5 acceptor
1 6 acceptor
1 9 donor
5 1 7 19 22 25 rings
5 6 30 33 37 38 rings
6 10 11 12 14 15 17 rings
6 10 11 13 16 19 22 rings
6 29 31 32 34 35 36 rings

> <PUBCHEM_HEAVY_ATOM_COUNT>
38

> <PUBCHEM_ATOM_DEF_STEREO_COUNT>
5

> <PUBCHEM_ATOM_UDEF_STEREO_COUNT>
0

> <PUBCHEM_BOND_DEF_STEREO_COUNT>
0

> <PUBCHEM_BOND_UDEF_STEREO_COUNT>
0

> <PUBCHEM_ISOTOPIC_ATOM_COUNT>
0

> <PUBCHEM_COMPONENT_COUNT>
1

> <PUBCHEM_CACTVS_TAUTO_COUNT>
3

> <PUBCHEM_CONFORMER_ID>
00B5523B00000001

> <PUBCHEM_MMFF94_ENERGY>
109.8871

> <PUBCHEM_FEATURE_SELFOVERLAP>
66.12

> <PUBCHEM_SHAPE_FINGERPRINT>
10050765 1 18192710034835138837
11135926 11 18409161104627012965
11297010 23 18263907882881617093
11578080 2 16879605134920860957
11763715 3 17330294778983736126
11991303 11 18119813770853386396
12788726 201 16387339218477118026
13757389 114 17977950412397276390
15198563 99 17403738238935975998
15200665 1 17905609152933701024
15400415 2 18338234976694688028
15439362 3 18336263440940270729
15483637 11 17762901366080836052
15684970 41 17617674158646448651
15927050 60 18193554691719209410
16989713 51 17476655638704090788
18365409 1 17977663435324776222
19311894 1 17259334995719594791
21133665 82 18261956358297832760
21796203 349 16970873223793462177
22223350 30 17192076765398413929
22311459 1 18266180522461683750
23559900 14 18049152273083152331
24771750 20 18261967283913490230
25019877 29 18261673774170105860
3383291 50 18194965368736476320
3418910 222 17618225010558796226
38695281 34 18338796826956340938
4017518 198 18338521941071184708
4461854 278 18049739695713325651
4516262 110 18408881829190788693
504843 32 18195531617371908782
5085150 59 18336254760589820024
5265222 85 18118124899028603964
5385378 56 18336553737611256033
563151 97 18339918316200653429
6058803 2 17986394387190584729
6669772 16 18342182197641311014
6673363 416 17619924855789013966

> <PUBCHEM_SHAPE_MULTIPOLES>
741.58
14.08
11.3
1.37
3.82
24.02
0.27
-24
-1.97
-19.99
-3.31
0.53
1.58
0.26

> <PUBCHEM_SHAPE_SELFOVERLAP>
1584.815

> <PUBCHEM_SHAPE_VOLUME>
414.4

> <PUBCHEM_COORDINATE_TYPE>
2
5
10

$$$$
