75536265
  -OEChem-12032416413D

 57 60  0     1  0  0  0  0  0999 V2000
   -6.1980   -1.3889    0.8918 F   0  0  0  0  0  0  0  0  0  0  0  0
    3.2835   -0.3474    0.8667 O   0  0  0  0  0  0  0  0  0  0  0  0
    5.9963    0.3617    1.7755 O   0  0  0  0  0  0  0  0  0  0  0  0
   -0.4773   -2.4919   -1.4327 O   0  0  0  0  0  0  0  0  0  0  0  0
    1.7185    1.9004    0.0815 N   0  0  0  0  0  0  0  0  0  0  0  0
    0.8983   -2.6551   -1.5425 N   0  0  0  0  0  0  0  0  0  0  0  0
    3.8629    0.9633    0.8274 C   0  0  1  0  0  0  0  0  0  0  0  0
    5.3789    0.8971    0.6019 C   0  0  2  0  0  0  0  0  0  0  0  0
    3.5453   -1.1627   -0.2782 C   0  0  1  0  0  0  0  0  0  0  0  0
    5.7532   -0.0028   -0.5727 C   0  0  0  0  0  0  0  0  0  0  0  0
    5.0489   -1.3528   -0.4719 C   0  0  0  0  0  0  0  0  0  0  0  0
    3.1470    1.8511   -0.1884 C   0  0  0  0  0  0  0  0  0  0  0  0
    2.8534   -2.5019   -0.0551 C   0  0  0  0  0  0  0  0  0  0  0  0
    1.3737   -2.4155   -0.3171 C   0  0  0  0  0  0  0  0  0  0  0  0
    1.0339    2.7552   -0.8798 C   0  0  0  0  0  0  0  0  0  0  0  0
    0.3550   -2.0993    0.5982 C   0  0  0  0  0  0  0  0  0  0  0  0
   -0.4453    2.8306   -0.6095 C   0  0  0  0  0  0  0  0  0  0  0  0
   -0.7886   -2.1611   -0.1532 C   0  0  0  0  0  0  0  0  0  0  0  0
   -0.9881    3.9677   -0.0110 C   0  0  0  0  0  0  0  0  0  0  0  0
   -1.2734    1.7643   -0.9602 C   0  0  0  0  0  0  0  0  0  0  0  0
   -2.1828   -1.9610    0.1161 C   0  0  0  0  0  0  0  0  0  0  0  0
   -2.3589    4.0384    0.2367 C   0  0  0  0  0  0  0  0  0  0  0  0
   -2.6442    1.8351   -0.7125 C   0  0  0  0  0  0  0  0  0  0  0  0
   -3.1870    2.9721   -0.1139 C   0  0  0  0  0  0  0  0  0  0  0  0
   -3.1189   -2.1075   -0.9077 C   0  0  0  0  0  0  0  0  0  0  0  0
   -2.6032   -1.6208    1.4019 C   0  0  0  0  0  0  0  0  0  0  0  0
   -4.6529    3.0476    0.1501 C   0  0  0  0  0  0  0  0  0  0  0  0
   -4.4752   -1.9142   -0.6456 C   0  0  0  0  0  0  0  0  0  0  0  0
   -3.9594   -1.4274    1.6640 C   0  0  0  0  0  0  0  0  0  0  0  0
   -4.8954   -1.5742    0.6402 C   0  0  0  0  0  0  0  0  0  0  0  0
    3.6898    1.3813    1.8278 H   0  0  0  0  0  0  0  0  0  0  0  0
    5.7875    1.9034    0.4576 H   0  0  0  0  0  0  0  0  0  0  0  0
    3.1253   -0.6841   -1.1711 H   0  0  0  0  0  0  0  0  0  0  0  0
    6.8365   -0.1684   -0.6013 H   0  0  0  0  0  0  0  0  0  0  0  0
    5.4737    0.4819   -1.5154 H   0  0  0  0  0  0  0  0  0  0  0  0
    5.2502   -1.9440   -1.3725 H   0  0  0  0  0  0  0  0  0  0  0  0
    5.4649   -1.9049    0.3804 H   0  0  0  0  0  0  0  0  0  0  0  0
    3.3145    1.4904   -1.2089 H   0  0  0  0  0  0  0  0  0  0  0  0
    3.5703    2.8615   -0.1294 H   0  0  0  0  0  0  0  0  0  0  0  0
    3.0103   -2.8509    0.9735 H   0  0  0  0  0  0  0  0  0  0  0  0
    3.2740   -3.2650   -0.7228 H   0  0  0  0  0  0  0  0  0  0  0  0
    1.3356    0.9559    0.0393 H   0  0  0  0  0  0  0  0  0  0  0  0
    6.9581    0.3718    1.6323 H   0  0  0  0  0  0  0  0  0  0  0  0
    1.1815    2.3841   -1.9027 H   0  0  0  0  0  0  0  0  0  0  0  0
    1.4587    3.7669   -0.8539 H   0  0  0  0  0  0  0  0  0  0  0  0
    0.4503   -1.8620    1.6477 H   0  0  0  0  0  0  0  0  0  0  0  0
   -0.3548    4.8052    0.2693 H   0  0  0  0  0  0  0  0  0  0  0  0
   -0.8626    0.8759   -1.4324 H   0  0  0  0  0  0  0  0  0  0  0  0
   -2.7695    4.9288    0.7054 H   0  0  0  0  0  0  0  0  0  0  0  0
   -3.2819    1.0041   -0.9974 H   0  0  0  0  0  0  0  0  0  0  0  0
   -2.8309   -2.3705   -1.9223 H   0  0  0  0  0  0  0  0  0  0  0  0
   -1.8978   -1.4985    2.2197 H   0  0  0  0  0  0  0  0  0  0  0  0
   -4.8802    2.6172    1.1305 H   0  0  0  0  0  0  0  0  0  0  0  0
   -5.0066    4.0840    0.1316 H   0  0  0  0  0  0  0  0  0  0  0  0
   -5.2190    2.5020   -0.6126 H   0  0  0  0  0  0  0  0  0  0  0  0
   -5.2045   -2.0275   -1.4422 H   0  0  0  0  0  0  0  0  0  0  0  0
   -4.2874   -1.1619    2.6647 H   0  0  0  0  0  0  0  0  0  0  0  0
  1 30  1  0  0  0  0
  2  7  1  0  0  0  0
  2  9  1  0  0  0  0
  3  8  1  0  0  0  0
  3 43  1  0  0  0  0
  4  6  1  0  0  0  0
  4 18  1  0  0  0  0
  5 12  1  0  0  0  0
  5 15  1  0  0  0  0
  5 42  1  0  0  0  0
  6 14  2  0  0  0  0
  7  8  1  0  0  0  0
  7 12  1  0  0  0  0
  7 31  1  0  0  0  0
  8 10  1  0  0  0  0
  8 32  1  0  0  0  0
  9 11  1  0  0  0  0
  9 13  1  0  0  0  0
  9 33  1  0  0  0  0
 10 11  1  0  0  0  0
 10 34  1  0  0  0  0
 10 35  1  0  0  0  0
 11 36  1  0  0  0  0
 11 37  1  0  0  0  0
 12 38  1  0  0  0  0
 12 39  1  0  0  0  0
 13 14  1  0  0  0  0
 13 40  1  0  0  0  0
 13 41  1  0  0  0  0
 14 16  1  0  0  0  0
 15 17  1  0  0  0  0
 15 44  1  0  0  0  0
 15 45  1  0  0  0  0
 16 18  2  0  0  0  0
 16 46  1  0  0  0  0
 17 19  2  0  0  0  0
 17 20  1  0  0  0  0
 18 21  1  0  0  0  0
 19 22  1  0  0  0  0
 19 47  1  0  0  0  0
 20 23  2  0  0  0  0
 20 48  1  0  0  0  0
 21 25  2  0  0  0  0
 21 26  1  0  0  0  0
 22 24  2  0  0  0  0
 22 49  1  0  0  0  0
 23 24  1  0  0  0  0
 23 50  1  0  0  0  0
 24 27  1  0  0  0  0
 25 28  1  0  0  0  0
 25 51  1  0  0  0  0
 26 29  2  0  0  0  0
 26 52  1  0  0  0  0
 27 53  1  0  0  0  0
 27 54  1  0  0  0  0
 27 55  1  0  0  0  0
 28 30  2  0  0  0  0
 28 56  1  0  0  0  0
 29 30  1  0  0  0  0
 29 57  1  0  0  0  0
M  END
> <PUBCHEM_COMPOUND_CID>
75536265

> <PUBCHEM_CONFORMER_RMSD>
1

> <PUBCHEM_CONFORMER_DIVERSEORDER>
1
76
26
126
20
27
153
108
115
16
48
93
58
162
165
49
85
88
125
167
80
35
57
166
12
116
45
40
170
68
135
18
114
5
154
151
118
50
67
100
11
83
34
55
171
113
158
81
161
103
72
24
8
117
123
59
141
60
111
90
105
156
98
71
139
124
147
25
157
74
131
168
145
31
77
121
69
163
128
130
138
36
150
84
160
19
51
155
78
107
92
91
75
33
82
144
62
44
132
39
42
46
56
70
53
41
86
133
120
64
143
23
14
32
122
106
94
140
47
96
28
89
109
152
134
119
61
65
10
2
9
87
104
17
79
30
38
148
52
129
3
110
37
13
6
169
7
54
43
159
63
142
66
149
127
99
146
95
136
164
15
112
101
29
172
97
73
21
22
102
4
137

> <PUBCHEM_MMFF94_PARTIAL_CHARGES>
39
1 -0.19
12 0.27
13 0.18
14 0.11
15 0.41
16 -0.15
17 -0.14
18 0.09
19 -0.15
2 -0.56
20 -0.15
21 0.05
22 -0.15
23 -0.15
24 -0.14
25 -0.15
26 -0.15
27 0.14
28 -0.15
29 -0.15
3 -0.68
30 0.19
4 -0.02
42 0.36
43 0.4
46 0.15
47 0.15
48 0.15
49 0.15
5 -0.9
50 0.15
51 0.15
52 0.15
56 0.15
57 0.15
6 -0.41
7 0.28
8 0.28
9 0.28

> <PUBCHEM_EFFECTIVE_ROTOR_COUNT>
8.2

> <PUBCHEM_PHARMACOPHORE_FEATURES>
10
1 2 acceptor
1 3 acceptor
1 3 donor
1 5 cation
1 5 donor
1 6 acceptor
5 4 6 14 16 18 rings
6 17 19 20 22 23 24 rings
6 2 7 8 9 10 11 rings
6 21 25 26 28 29 30 rings

> <PUBCHEM_HEAVY_ATOM_COUNT>
30

> <PUBCHEM_ATOM_DEF_STEREO_COUNT>
3

> <PUBCHEM_ATOM_UDEF_STEREO_COUNT>
0

> <PUBCHEM_BOND_DEF_STEREO_COUNT>
0

> <PUBCHEM_BOND_UDEF_STEREO_COUNT>
0

> <PUBCHEM_ISOTOPIC_ATOM_COUNT>
0

> <PUBCHEM_COMPONENT_COUNT>
1

> <PUBCHEM_CACTVS_TAUTO_COUNT>
1

> <PUBCHEM_CONFORMER_ID>
0480978900000001

> <PUBCHEM_MMFF94_ENERGY>
57.3655

> <PUBCHEM_FEATURE_SELFOVERLAP>
50.748

> <PUBCHEM_SHAPE_FINGERPRINT>
10006869 2 18264195921164298015
10670039 82 18261970587255193446
10688039 33 18113334236734198614
10864689 126 17472709022634537661
10939801 23 18192149519964345312
1100329 8 17688022016736236042
11513181 2 18058723589974183767
12107698 1 18260827133400182770
12156800 1 18121814692552009876
12293681 4 18042410295325551290
12422481 6 18266203698237024145
12788726 201 18261107504480549736
13075007 39 17680164146287062979
13140716 1 18192145984583476026
13402501 40 18410855460165085057
13561361 72 18336263440401986352
14363568 33 17830474021201381832
14394314 77 18123193669207409129
14840074 17 18270125733005915943
15276724 80 18340207518441104324
15968369 153 18272365373598478757
20764821 26 18336838506458058877
21133410 90 17489297577727157353
21360443 126 18188205395250176501
21796203 349 17901702514768737152
22113638 7 17980760763743397127
3052486 1 18333737897132640900
338550 245 18334583446685243732
463206 1 18120654892452624015
469060 322 16877943806535549543
5081480 168 16986339087698993198
508706 21 18408045095538586186
6004065 56 18265050418141236579
653340 110 18412822465340856936

> <PUBCHEM_SHAPE_MULTIPOLES>
582.54
12.12
5.36
1.23
7.15
3.9
0.17
-1.7
3.32
-5.06
-0.71
-0.04
-0.5
1.01

> <PUBCHEM_SHAPE_SELFOVERLAP>
1248.275

> <PUBCHEM_SHAPE_VOLUME>
323.6

> <PUBCHEM_COORDINATE_TYPE>
2
5
10

$$$$
