75367670
  -OEChem-12032416383D

 42 44  0     1  0  0  0  0  0999 V2000
   -6.5654    1.5651   -0.3109 F   0  0  0  0  0  0  0  0  0  0  0  0
   -5.9577    1.1994    1.7387 F   0  0  0  0  0  0  0  0  0  0  0  0
   -6.6191   -0.4549    0.4921 F   0  0  0  0  0  0  0  0  0  0  0  0
    0.8965   -3.4490   -0.6007 O   0  0  0  0  0  0  0  0  0  0  0  0
   -0.5713   -0.2013   -1.2584 O   0  0  0  0  0  0  0  0  0  0  0  0
    4.7050   -1.2335    1.3725 O   0  0  0  0  0  0  0  0  0  0  0  0
    2.4559   -1.0792    0.7318 N   0  0  0  0  0  0  0  0  0  0  0  0
    3.4101    1.7604    0.8996 N   0  0  0  0  0  0  0  0  0  0  0  0
    5.3323    2.1499   -1.1053 N   0  0  0  0  0  0  0  0  0  0  0  0
    0.2105   -1.1105   -0.4823 C   0  0  2  0  0  0  0  0  0  0  0  0
    1.3891   -0.3105    0.0797 C   0  0  0  0  0  0  0  0  0  0  0  0
    2.1399   -2.4160    1.2379 C   0  0  0  0  0  0  0  0  0  0  0  0
    0.6433   -2.2766   -1.3686 C   0  0  0  0  0  0  0  0  0  0  0  0
    2.1298   -3.4402    0.1104 C   0  0  0  0  0  0  0  0  0  0  0  0
    3.7739   -0.6113    0.8623 C   0  0  0  0  0  0  0  0  0  0  0  0
   -1.8548    0.0138   -0.8381 C   0  0  0  0  0  0  0  0  0  0  0  0
    4.0909    0.7328    0.3544 C   0  0  0  0  0  0  0  0  0  0  0  0
   -2.7515   -1.0520   -0.7620 C   0  0  0  0  0  0  0  0  0  0  0  0
   -2.2673    1.2990   -0.4865 C   0  0  0  0  0  0  0  0  0  0  0  0
   -4.4734    0.4528    0.0176 C   0  0  0  0  0  0  0  0  0  0  0  0
   -4.0608   -0.8325   -0.3342 C   0  0  0  0  0  0  0  0  0  0  0  0
   -3.5766    1.5185   -0.0587 C   0  0  0  0  0  0  0  0  0  0  0  0
    5.0350    0.9242   -0.6305 C   0  0  0  0  0  0  0  0  0  0  0  0
   -5.8730    0.6881    0.4748 C   0  0  0  0  0  0  0  0  0  0  0  0
    3.7074    2.9861    0.4246 C   0  0  0  0  0  0  0  0  0  0  0  0
    4.6514    3.1775   -0.5602 C   0  0  0  0  0  0  0  0  0  0  0  0
   -0.3672   -1.5022    0.3663 H   0  0  0  0  0  0  0  0  0  0  0  0
    1.0125    0.4075    0.8192 H   0  0  0  0  0  0  0  0  0  0  0  0
    1.8222    0.2899   -0.7290 H   0  0  0  0  0  0  0  0  0  0  0  0
    1.1850   -2.3755    1.7722 H   0  0  0  0  0  0  0  0  0  0  0  0
    2.9061   -2.7069    1.9647 H   0  0  0  0  0  0  0  0  0  0  0  0
   -0.1654   -2.5301   -2.0631 H   0  0  0  0  0  0  0  0  0  0  0  0
    1.5100   -2.0246   -1.9921 H   0  0  0  0  0  0  0  0  0  0  0  0
    2.9637   -3.3006   -0.5875 H   0  0  0  0  0  0  0  0  0  0  0  0
    2.2336   -4.4398    0.5458 H   0  0  0  0  0  0  0  0  0  0  0  0
   -2.4486   -2.0573   -1.0410 H   0  0  0  0  0  0  0  0  0  0  0  0
   -1.5727    2.1326   -0.5435 H   0  0  0  0  0  0  0  0  0  0  0  0
   -4.7442   -1.6755   -0.2838 H   0  0  0  0  0  0  0  0  0  0  0  0
   -3.8888    2.5233    0.2133 H   0  0  0  0  0  0  0  0  0  0  0  0
    5.5851    0.1036   -1.0761 H   0  0  0  0  0  0  0  0  0  0  0  0
    3.1604    3.8121    0.8619 H   0  0  0  0  0  0  0  0  0  0  0  0
    4.8895    4.1627   -0.9414 H   0  0  0  0  0  0  0  0  0  0  0  0
  1 24  1  0  0  0  0
  2 24  1  0  0  0  0
  3 24  1  0  0  0  0
  4 13  1  0  0  0  0
  4 14  1  0  0  0  0
  5 10  1  0  0  0  0
  5 16  1  0  0  0  0
  6 15  2  0  0  0  0
  7 11  1  0  0  0  0
  7 12  1  0  0  0  0
  7 15  1  0  0  0  0
  8 17  2  0  0  0  0
  8 25  1  0  0  0  0
  9 23  2  0  0  0  0
  9 26  1  0  0  0  0
 10 11  1  0  0  0  0
 10 13  1  0  0  0  0
 10 27  1  0  0  0  0
 11 28  1  0  0  0  0
 11 29  1  0  0  0  0
 12 14  1  0  0  0  0
 12 30  1  0  0  0  0
 12 31  1  0  0  0  0
 13 32  1  0  0  0  0
 13 33  1  0  0  0  0
 14 34  1  0  0  0  0
 14 35  1  0  0  0  0
 15 17  1  0  0  0  0
 16 18  2  0  0  0  0
 16 19  1  0  0  0  0
 17 23  1  0  0  0  0
 18 21  1  0  0  0  0
 18 36  1  0  0  0  0
 19 22  2  0  0  0  0
 19 37  1  0  0  0  0
 20 21  2  0  0  0  0
 20 22  1  0  0  0  0
 20 24  1  0  0  0  0
 21 38  1  0  0  0  0
 22 39  1  0  0  0  0
 23 40  1  0  0  0  0
 25 26  2  0  0  0  0
 25 41  1  0  0  0  0
 26 42  1  0  0  0  0
M  END
> <PUBCHEM_COMPOUND_CID>
75367670

> <PUBCHEM_CONFORMER_RMSD>
0.8

> <PUBCHEM_CONFORMER_DIVERSEORDER>
1
58
226
222
134
227
10
70
215
113
158
21
207
180
57
175
97
22
150
63
78
123
28
59
111
174
49
53
190
108
167
178
71
26
64
211
201
41
216
224
12
214
61
182
197
39
103
132
127
50
86
29
172
74
185
204
217
122
23
199
170
13
54
15
164
124
65
36
27
137
159
156
106
114
184
24
56
213
220
225
154
144
192
166
149
118
194
121
202
223
126
117
187
80
11
40
112
60
133
193
81
142
47
210
130
200
42
162
168
38
120
141
88
171
25
165
96
138
110
198
203
221
169
188
85
51
173
17
77
94
196
32
208
48
129
145
119
8
107
66
189
136
128
157
69
229
16
152
46
73
125
219
90
3
205
95
52
93
6
87
176
139
209
181
89
2
179
163
116
151
153
5
35
98
14
191
4
91
148
20
102
100
218
115
146
140
68
155
76
109
44
147
72
62
131
228
30
37
143
84
195
67
31
18
34
19
33
177
104
7
160
212
79
101
9
92
135
99
105
183
161
186
75
206
43
55
82
45
83

> <PUBCHEM_MMFF94_PARTIAL_CHARGES>
33
1 -0.34
10 0.28
11 0.3
12 0.3
13 0.28
14 0.28
15 0.54
16 0.08
17 0.4
18 -0.15
19 -0.15
2 -0.34
20 -0.14
21 -0.15
22 -0.15
23 0.16
24 1.16
25 0.16
26 0.16
3 -0.34
36 0.15
37 0.15
38 0.15
39 0.15
4 -0.56
40 0.15
41 0.15
42 0.15
5 -0.36
6 -0.57
7 -0.66
8 -0.62
9 -0.62

> <PUBCHEM_EFFECTIVE_ROTOR_COUNT>
6.4

> <PUBCHEM_PHARMACOPHORE_FEATURES>
8
1 4 acceptor
1 5 acceptor
1 6 acceptor
1 8 acceptor
1 9 acceptor
6 16 18 19 20 21 22 rings
6 8 9 17 23 25 26 rings
7 4 7 10 11 12 13 14 rings

> <PUBCHEM_HEAVY_ATOM_COUNT>
26

> <PUBCHEM_ATOM_DEF_STEREO_COUNT>
1

> <PUBCHEM_ATOM_UDEF_STEREO_COUNT>
0

> <PUBCHEM_BOND_DEF_STEREO_COUNT>
0

> <PUBCHEM_BOND_UDEF_STEREO_COUNT>
0

> <PUBCHEM_ISOTOPIC_ATOM_COUNT>
0

> <PUBCHEM_COMPONENT_COUNT>
1

> <PUBCHEM_CACTVS_TAUTO_COUNT>
1

> <PUBCHEM_CONFORMER_ID>
047E04F600000001

> <PUBCHEM_MMFF94_ENERGY>
81.0316

> <PUBCHEM_FEATURE_SELFOVERLAP>
40.603

> <PUBCHEM_SHAPE_FINGERPRINT>
10165383 225 17894636985388766652
10378564 45 10879992428708158795
10670039 82 16773528684804165585
10674148 151 18130799979902165964
10904742 90 18335705000797430132
12596602 18 18186239528989668729
12616971 3 18339910567742125486
12633257 1 18187630384754301058
12788726 201 17346323644329789433
12925494 130 18194671580326482621
13583140 156 17678997336495043687
13955234 65 18335702685361807586
14251764 75 18264773345073234364
14341114 328 18411416219996558307
14347332 77 8142086455820373263
1454969 45 18269550706269376295
146900 427 18408322202522981488
14790565 3 18340206413579467613
14840074 17 18260547870136847341
14849402 71 18260263075862553232
14955137 171 18264194830669957690
15142526 21 18262514922065908090
151778 21 18410284822742482388
15183329 4 9223236264960667963
15475509 35 15792275005169442720
16126227 98 18121222245222810236
17349148 13 12540694791073915781
18222031 100 11963389609656351306
18785283 64 18337105658146507790
20465049 17 18411992338836680630
20626108 58 11386360435431764878
21250096 35 8862950489330414068
21365058 113 17912098148570670150
21756936 100 18198615734856074132
21859007 373 17169820082563988293
23559900 14 17986125023889605151
23845131 108 18260544580039144898
239999 70 18271248209866366190
2637199 183 18412263969637429382
3178227 256 18187923937954365082
38570 142 18336277833522996364
437795 163 18194955473981425415
474 4 18412261731395141106
5104073 3 18188201108714384378
633830 44 18272645788055637494
7808743 9 18121776399225153284
960060 61 11743841408544548064

> <PUBCHEM_SHAPE_MULTIPOLES>
480.7
14.87
3.59
1.19
16.85
1.07
0.1
-10.66
2.87
-5.05
-0.2
-0.23
0.19
-1.49

> <PUBCHEM_SHAPE_SELFOVERLAP>
1029.285

> <PUBCHEM_SHAPE_VOLUME>
264.6

> <PUBCHEM_COORDINATE_TYPE>
2
5
10

$$$$
