11913200
  -OEChem-12032416373D

 59 63  0     1  0  0  0  0  0999 V2000
   -7.3668   -2.3048   -2.3304 F   0  0  0  0  0  0  0  0  0  0  0  0
   -7.7234   -3.1474   -0.3639 F   0  0  0  0  0  0  0  0  0  0  0  0
   -5.9675   -3.7464   -1.4982 F   0  0  0  0  0  0  0  0  0  0  0  0
    0.5163    1.5890    1.8561 O   0  0  0  0  0  0  0  0  0  0  0  0
    0.1162    4.3766    0.5122 O   0  0  0  0  0  0  0  0  0  0  0  0
   -4.2024    2.2731    2.0637 O   0  0  0  0  0  0  0  0  0  0  0  0
    5.7692   -4.3577    1.9241 O   0  0  0  0  0  0  0  0  0  0  0  0
   -2.3820    1.7139    0.7402 N   0  0  0  0  0  0  0  0  0  0  0  0
    2.4088    2.9177   -0.9691 N   0  0  0  0  0  0  0  0  0  0  0  0
    3.5579    0.8821   -0.7628 N   0  0  0  0  0  0  0  0  0  0  0  0
    3.5466    2.0909   -2.8475 N   0  0  0  0  0  0  0  0  0  0  0  0
   -0.4164    3.0688    0.2439 C   0  0  1  0  0  0  0  0  0  0  0  0
    0.6902    2.0674    0.5117 C   0  0  1  0  0  0  0  0  0  0  0  0
   -1.4830    2.7178    1.2559 C   0  0  2  0  0  0  0  0  0  0  0  0
    1.9585    2.8808    0.4050 C   0  0  2  0  0  0  0  0  0  0  0  0
   -0.6652    2.1804    2.4168 C   0  0  0  0  0  0  0  0  0  0  0  0
    1.5071    4.2607    0.8468 C   0  0  0  0  0  0  0  0  0  0  0  0
   -3.6853    1.5752    1.1954 C   0  0  0  0  0  0  0  0  0  0  0  0
    3.1943    1.9342   -1.5437 C   0  0  0  0  0  0  0  0  0  0  0  0
   -4.4747    0.4760    0.5823 C   0  0  0  0  0  0  0  0  0  0  0  0
    4.3237   -0.0577   -1.3548 C   0  0  0  0  0  0  0  0  0  0  0  0
   -5.5027   -0.0907    1.3067 C   0  0  0  0  0  0  0  0  0  0  0  0
   -4.1554    0.0583   -0.6932 C   0  0  0  0  0  0  0  0  0  0  0  0
    4.3128    1.1139   -3.3755 C   0  0  0  0  0  0  0  0  0  0  0  0
    4.7354    0.0057   -2.6704 C   0  0  0  0  0  0  0  0  0  0  0  0
   -6.2447   -1.1215    0.7298 C   0  0  0  0  0  0  0  0  0  0  0  0
   -4.8975   -0.9724   -1.2700 C   0  0  0  0  0  0  0  0  0  0  0  0
    4.6972   -1.1659   -0.5088 C   0  0  0  0  0  0  0  0  0  0  0  0
   -5.9420   -1.5623   -0.5585 C   0  0  0  0  0  0  0  0  0  0  0  0
    5.9040   -1.8354   -0.7225 C   0  0  0  0  0  0  0  0  0  0  0  0
    3.8524   -1.5731    0.5262 C   0  0  0  0  0  0  0  0  0  0  0  0
   -6.7350   -2.6652   -1.1743 C   0  0  0  0  0  0  0  0  0  0  0  0
    6.2642   -2.9071    0.0946 C   0  0  0  0  0  0  0  0  0  0  0  0
    4.2127   -2.6446    1.3433 C   0  0  0  0  0  0  0  0  0  0  0  0
    5.4185   -3.3116    1.1275 C   0  0  0  0  0  0  0  0  0  0  0  0
    4.8582   -4.7185    2.9612 C   0  0  0  0  0  0  0  0  0  0  0  0
   -0.7607    3.0612   -0.7953 H   0  0  0  0  0  0  0  0  0  0  0  0
    0.6440    1.1968   -0.1505 H   0  0  0  0  0  0  0  0  0  0  0  0
   -2.0700    3.5862    1.5742 H   0  0  0  0  0  0  0  0  0  0  0  0
    2.7611    2.5362    1.0672 H   0  0  0  0  0  0  0  0  0  0  0  0
   -1.1897    1.4353    3.0228 H   0  0  0  0  0  0  0  0  0  0  0  0
   -0.3398    2.9929    3.0756 H   0  0  0  0  0  0  0  0  0  0  0  0
    2.0612    5.0810    0.3800 H   0  0  0  0  0  0  0  0  0  0  0  0
    1.5877    4.3684    1.9343 H   0  0  0  0  0  0  0  0  0  0  0  0
   -1.9874    1.0285    0.1045 H   0  0  0  0  0  0  0  0  0  0  0  0
    2.1005    3.6701   -1.5745 H   0  0  0  0  0  0  0  0  0  0  0  0
   -5.7478    0.2375    2.3124 H   0  0  0  0  0  0  0  0  0  0  0  0
   -3.3739    0.5138   -1.2925 H   0  0  0  0  0  0  0  0  0  0  0  0
    4.5814    1.2484   -4.4178 H   0  0  0  0  0  0  0  0  0  0  0  0
    5.3294   -0.7528   -3.1636 H   0  0  0  0  0  0  0  0  0  0  0  0
   -7.0537   -1.5695    1.3002 H   0  0  0  0  0  0  0  0  0  0  0  0
   -4.6594   -1.3044   -2.2772 H   0  0  0  0  0  0  0  0  0  0  0  0
    6.6041   -1.5382   -1.4989 H   0  0  0  0  0  0  0  0  0  0  0  0
    2.9006   -1.0812    0.7139 H   0  0  0  0  0  0  0  0  0  0  0  0
    7.2072   -3.4198   -0.0745 H   0  0  0  0  0  0  0  0  0  0  0  0
    3.5085   -2.9080    2.1252 H   0  0  0  0  0  0  0  0  0  0  0  0
    3.8994   -5.0576    2.5546 H   0  0  0  0  0  0  0  0  0  0  0  0
    5.2967   -5.5676    3.4957 H   0  0  0  0  0  0  0  0  0  0  0  0
    4.7374   -3.9099    3.6901 H   0  0  0  0  0  0  0  0  0  0  0  0
  1 32  1  0  0  0  0
  2 32  1  0  0  0  0
  3 32  1  0  0  0  0
  4 13  1  0  0  0  0
  4 16  1  0  0  0  0
  5 12  1  0  0  0  0
  5 17  1  0  0  0  0
  6 18  2  0  0  0  0
  7 35  1  0  0  0  0
  7 36  1  0  0  0  0
  8 14  1  0  0  0  0
  8 18  1  0  0  0  0
  8 45  1  0  0  0  0
  9 15  1  0  0  0  0
  9 19  1  0  0  0  0
  9 46  1  0  0  0  0
 10 19  1  0  0  0  0
 10 21  2  0  0  0  0
 11 19  2  0  0  0  0
 11 24  1  0  0  0  0
 12 13  1  0  0  0  0
 12 14  1  0  0  0  0
 12 37  1  0  0  0  0
 13 15  1  0  0  0  0
 13 38  1  0  0  0  0
 14 16  1  0  0  0  0
 14 39  1  0  0  0  0
 15 17  1  0  0  0  0
 15 40  1  0  0  0  0
 16 41  1  0  0  0  0
 16 42  1  0  0  0  0
 17 43  1  0  0  0  0
 17 44  1  0  0  0  0
 18 20  1  0  0  0  0
 20 22  2  0  0  0  0
 20 23  1  0  0  0  0
 21 25  1  0  0  0  0
 21 28  1  0  0  0  0
 22 26  1  0  0  0  0
 22 47  1  0  0  0  0
 23 27  2  0  0  0  0
 23 48  1  0  0  0  0
 24 25  2  0  0  0  0
 24 49  1  0  0  0  0
 25 50  1  0  0  0  0
 26 29  2  0  0  0  0
 26 51  1  0  0  0  0
 27 29  1  0  0  0  0
 27 52  1  0  0  0  0
 28 30  2  0  0  0  0
 28 31  1  0  0  0  0
 29 32  1  0  0  0  0
 30 33  1  0  0  0  0
 30 53  1  0  0  0  0
 31 34  2  0  0  0  0
 31 54  1  0  0  0  0
 33 35  2  0  0  0  0
 33 55  1  0  0  0  0
 34 35  1  0  0  0  0
 34 56  1  0  0  0  0
 36 57  1  0  0  0  0
 36 58  1  0  0  0  0
 36 59  1  0  0  0  0
M  END
> <PUBCHEM_COMPOUND_CID>
11913200

> <PUBCHEM_CONFORMER_RMSD>
1

> <PUBCHEM_CONFORMER_DIVERSEORDER>
1
28
121
151
124
82
158
60
119
186
173
45
18
90
148
178
147
170
31
32
175
112
137
59
17
11
123
183
141
61
89
131
184
126
53
27
100
5
146
57
118
185
15
49
145
149
128
176
155
132
111
104
154
19
68
139
12
129
41
34
78
135
136
127
76
74
116
63
25
48
182
92
21
93
50
87
165
55
64
153
8
62
101
115
7
42
108
140
65
56
171
77
20
120
138
10
99
169
113
29
9
152
46
157
162
160
47
122
96
33
133
23
80
70
167
143
44
37
54
35
177
38
86
52
58
150
174
94
69
22
98
166
83
2
125
95
79
6
179
40
142
110
4
24
117
72
114
181
81
106
71
97
134
164
161
159
130
51
73
163
109
91
102
85
107
88
168
187
36
30
84
103
14
105
180
26
156
144
172
66
75
13
39
67
16
43
3

> <PUBCHEM_MMFF94_PARTIAL_CHARGES>
47
1 -0.34
10 -0.62
11 -0.62
12 0.28
13 0.28
14 0.3
15 0.37
16 0.28
17 0.28
18 0.54
19 0.72
2 -0.34
20 0.09
21 0.31
22 -0.15
23 -0.15
24 0.16
25 -0.15
26 -0.15
27 -0.15
29 -0.14
3 -0.34
30 -0.15
31 -0.15
32 1.16
33 -0.15
34 -0.15
35 0.08
36 0.28
4 -0.56
45 0.37
46 0.4
47 0.15
48 0.15
49 0.15
5 -0.56
50 0.15
51 0.15
52 0.15
53 0.15
54 0.15
55 0.15
56 0.15
6 -0.57
7 -0.36
8 -0.73
9 -0.87

> <PUBCHEM_EFFECTIVE_ROTOR_COUNT>
9.2

> <PUBCHEM_PHARMACOPHORE_FEATURES>
13
1 10 acceptor
1 4 acceptor
1 5 acceptor
1 6 acceptor
1 7 acceptor
1 8 donor
1 9 donor
4 9 10 11 19 cation
5 4 12 13 14 16 rings
5 5 12 13 15 17 rings
6 10 11 19 21 24 25 rings
6 20 22 23 26 27 29 rings
6 28 30 31 33 34 35 rings

> <PUBCHEM_HEAVY_ATOM_COUNT>
36

> <PUBCHEM_ATOM_DEF_STEREO_COUNT>
4

> <PUBCHEM_ATOM_UDEF_STEREO_COUNT>
0

> <PUBCHEM_BOND_DEF_STEREO_COUNT>
0

> <PUBCHEM_BOND_UDEF_STEREO_COUNT>
0

> <PUBCHEM_ISOTOPIC_ATOM_COUNT>
0

> <PUBCHEM_COMPONENT_COUNT>
1

> <PUBCHEM_CACTVS_TAUTO_COUNT>
6

> <PUBCHEM_CONFORMER_ID>
00B5C7F000000001

> <PUBCHEM_MMFF94_ENERGY>
111.2414

> <PUBCHEM_FEATURE_SELFOVERLAP>
66.68

> <PUBCHEM_SHAPE_FINGERPRINT>
10622 236 18043253431854658058
10908659 184 18270137729229836763
11069576 57 17968959487264152748
11135609 149 17968089790493971324
11135926 11 17099228232131314284
11227150 75 18042670733589590138
11497681 19 18046632197450645010
11607047 403 18198327633030189288
11828042 38 17676216775132416411
12655364 74 9580652357696227583
13553644 42 18342175601453240311
13782708 43 18337950203677875421
14340393 91 17604696760648633175
14347332 77 18272376403908093833
15320294 125 18052835658485249633
15419009 47 17317036944758552780
15968369 26 17898291860275304384
17324776 126 18044369431641637114
19303781 99 17824268103144817890
19315092 285 18333735693577158612
19319366 153 18189910871371545844
20156587 161 18117826720945191794
20737093 269 15019874373925831451
20775438 99 18189895494935082106
208703 8 18272091578207767158
21458453 9 15840681051547299912
21585483 132 18410288125335787771
21599406 157 17241333602613073891
21792938 131 18342452691109968699
24204213 148 18408602596143957576
24983565 74 17628635560160027175
25025965 108 17028242481531942570
25222932 49 18271530879234310444
2838139 119 13118563042815704197
3882209 13 15433112819001663266
4112364 45 9943536223768833187
44575985 39 17183621538077646579
45266715 3 18265049330886328440
50009960 94 18200579363195494738
504843 32 17114387494785430824
57527295 17 18338253616726236744
59025328 239 17459198395952207492
6058803 2 18267328472483795704
6201460 15 18265050223950057730
636783 263 18055613257038941271
6636735 143 14836404705948559583
6677587 24 16663193968957698980
96874 4 18337670823975850442
9831354 38 18261103123430169019

> <PUBCHEM_SHAPE_MULTIPOLES>
675.64
20.29
6.42
2.81
21.75
1.71
-0.93
29.53
-5.85
-3.85
2.94
-2.45
0.43
-9.25

> <PUBCHEM_SHAPE_SELFOVERLAP>
1487.083

> <PUBCHEM_SHAPE_VOLUME>
365.8

> <PUBCHEM_COORDINATE_TYPE>
2
5
10

$$$$
