45783431
  -OEChem-12032416363D

 49 52  0     1  0  0  0  0  0999 V2000
    0.4437    2.6269    0.8551 O   0  0  0  0  0  0  0  0  0  0  0  0
   -1.7653   -1.2541   -0.3973 O   0  0  0  0  0  0  0  0  0  0  0  0
    0.0061   -3.3270    0.1522 O   0  0  0  0  0  0  0  0  0  0  0  0
    2.8546    0.3824   -0.3623 N   0  0  1  0  0  0  0  0  0  0  0  0
   -0.2247    0.9608   -0.4843 N   0  0  0  0  0  0  0  0  0  0  0  0
   -0.9218    2.4466    1.1095 N   0  0  0  0  0  0  0  0  0  0  0  0
   -4.0473   -0.9531   -0.2291 N   0  0  0  0  0  0  0  0  0  0  0  0
    3.4786    0.2687    0.9631 C   0  0  0  0  0  0  0  0  0  0  0  0
    4.0387   -1.1565    1.1506 C   0  0  0  0  0  0  0  0  0  0  0  0
    2.4062   -0.0975    2.0102 C   0  0  0  0  0  0  0  0  0  0  0  0
    2.2182    1.7030   -0.5495 C   0  0  1  0  0  0  0  0  0  0  0  0
    3.4059   -1.1375    2.5576 C   0  0  0  0  0  0  0  0  0  0  0  0
    3.8641    0.2554   -1.4151 C   0  0  0  0  0  0  0  0  0  0  0  0
    2.3747    2.0056   -2.0515 C   0  0  0  0  0  0  0  0  0  0  0  0
    3.1344    0.8154   -2.6192 C   0  0  0  0  0  0  0  0  0  0  0  0
    0.7734    1.7131   -0.0950 C   0  0  0  0  0  0  0  0  0  0  0  0
   -1.2433    1.4476    0.2822 C   0  0  0  0  0  0  0  0  0  0  0  0
   -2.5721    0.9143    0.1963 C   0  0  0  0  0  0  0  0  0  0  0  0
   -2.8133   -0.4088   -0.1368 C   0  0  0  0  0  0  0  0  0  0  0  0
   -3.6679    1.7316    0.4511 C   0  0  0  0  0  0  0  0  0  0  0  0
   -4.9532    1.2079    0.3664 C   0  0  0  0  0  0  0  0  0  0  0  0
   -5.0880   -0.1284    0.0256 C   0  0  0  0  0  0  0  0  0  0  0  0
   -2.0954   -2.5965   -0.7318 C   0  0  0  0  0  0  0  0  0  0  0  0
   -0.8179   -3.3663   -1.0066 C   0  0  0  0  0  0  0  0  0  0  0  0
    1.2115   -4.0538   -0.0413 C   0  0  0  0  0  0  0  0  0  0  0  0
    4.1683    1.0677    1.2614 H   0  0  0  0  0  0  0  0  0  0  0  0
    5.1286   -1.2447    1.1307 H   0  0  0  0  0  0  0  0  0  0  0  0
    3.6101   -1.9371    0.5097 H   0  0  0  0  0  0  0  0  0  0  0  0
    1.4901   -0.5639    1.6263 H   0  0  0  0  0  0  0  0  0  0  0  0
    2.1321    0.6979    2.7087 H   0  0  0  0  0  0  0  0  0  0  0  0
    2.7640    2.4820    0.0016 H   0  0  0  0  0  0  0  0  0  0  0  0
    4.0705   -0.7444    3.3355 H   0  0  0  0  0  0  0  0  0  0  0  0
    2.9734   -2.0813    2.8986 H   0  0  0  0  0  0  0  0  0  0  0  0
    4.1668   -0.7819   -1.5880 H   0  0  0  0  0  0  0  0  0  0  0  0
    4.7582    0.8557   -1.2025 H   0  0  0  0  0  0  0  0  0  0  0  0
    2.9735    2.9155   -2.1821 H   0  0  0  0  0  0  0  0  0  0  0  0
    1.4255    2.1511   -2.5783 H   0  0  0  0  0  0  0  0  0  0  0  0
    2.4275    0.0766   -3.0169 H   0  0  0  0  0  0  0  0  0  0  0  0
    3.8145    1.1052   -3.4255 H   0  0  0  0  0  0  0  0  0  0  0  0
   -3.5514    2.7808    0.7108 H   0  0  0  0  0  0  0  0  0  0  0  0
   -5.8223    1.8263    0.5591 H   0  0  0  0  0  0  0  0  0  0  0  0
   -6.0689   -0.5850   -0.0544 H   0  0  0  0  0  0  0  0  0  0  0  0
   -2.7298   -2.6256   -1.6256 H   0  0  0  0  0  0  0  0  0  0  0  0
   -2.6173   -3.0619    0.1136 H   0  0  0  0  0  0  0  0  0  0  0  0
   -1.0547   -4.4046   -1.2637 H   0  0  0  0  0  0  0  0  0  0  0  0
   -0.2769   -2.9003   -1.8385 H   0  0  0  0  0  0  0  0  0  0  0  0
    0.9968   -5.1065   -0.2488 H   0  0  0  0  0  0  0  0  0  0  0  0
    1.7943   -3.6185   -0.8589 H   0  0  0  0  0  0  0  0  0  0  0  0
    1.8010   -3.9925    0.8774 H   0  0  0  0  0  0  0  0  0  0  0  0
  1  6  1  0  0  0  0
  1 16  1  0  0  0  0
  2 19  1  0  0  0  0
  2 23  1  0  0  0  0
  3 24  1  0  0  0  0
  3 25  1  0  0  0  0
  4  8  1  0  0  0  0
  4 11  1  0  0  0  0
  4 13  1  0  0  0  0
  5 16  2  0  0  0  0
  5 17  1  0  0  0  0
  6 17  2  0  0  0  0
  7 19  1  0  0  0  0
  7 22  2  0  0  0  0
  8  9  1  0  0  0  0
  8 10  1  0  0  0  0
  8 26  1  0  0  0  0
  9 12  1  0  0  0  0
  9 27  1  0  0  0  0
  9 28  1  0  0  0  0
 10 12  1  0  0  0  0
 10 29  1  0  0  0  0
 10 30  1  0  0  0  0
 11 14  1  0  0  0  0
 11 16  1  0  0  0  0
 11 31  1  0  0  0  0
 12 32  1  0  0  0  0
 12 33  1  0  0  0  0
 13 15  1  0  0  0  0
 13 34  1  0  0  0  0
 13 35  1  0  0  0  0
 14 15  1  0  0  0  0
 14 36  1  0  0  0  0
 14 37  1  0  0  0  0
 15 38  1  0  0  0  0
 15 39  1  0  0  0  0
 17 18  1  0  0  0  0
 18 19  2  0  0  0  0
 18 20  1  0  0  0  0
 20 21  2  0  0  0  0
 20 40  1  0  0  0  0
 21 22  1  0  0  0  0
 21 41  1  0  0  0  0
 22 42  1  0  0  0  0
 23 24  1  0  0  0  0
 23 43  1  0  0  0  0
 23 44  1  0  0  0  0
 24 45  1  0  0  0  0
 24 46  1  0  0  0  0
 25 47  1  0  0  0  0
 25 48  1  0  0  0  0
 25 49  1  0  0  0  0
M  END
> <PUBCHEM_COMPOUND_CID>
45783431

> <PUBCHEM_CONFORMER_RMSD>
1

> <PUBCHEM_CONFORMER_DIVERSEORDER>
1
80
57
28
54
24
22
83
29
71
50
78
70
66
69
49
35
37
59
82
47
79
12
38
58
75
14
60
65
27
11
72
13
48
52
61
64
40
10
17
36
74
30
62
7
51
56
45
4
23
32
77
25
31
44
42
34
76
68
39
53
81
8
2
33
73
67
3
16
41
26
15
6
18
63
21
46
20
5
19
9
43
55

> <PUBCHEM_MMFF94_PARTIAL_CHARGES>
23
1 -0.02
11 0.45
13 0.27
16 0.3
17 0.46
18 0.05
19 0.39
2 -0.36
20 -0.15
21 -0.15
22 0.16
23 0.28
24 0.28
25 0.28
3 -0.56
4 -0.75
40 0.15
41 0.15
42 0.15
5 -0.57
6 -0.41
7 -0.62
8 0.21

> <PUBCHEM_EFFECTIVE_ROTOR_COUNT>
8.8

> <PUBCHEM_PHARMACOPHORE_FEATURES>
9
1 2 acceptor
1 3 acceptor
1 4 cation
1 7 acceptor
3 5 6 17 cation
4 8 9 10 12 rings
5 1 5 6 16 17 rings
5 4 11 13 14 15 rings
6 7 18 19 20 21 22 rings

> <PUBCHEM_HEAVY_ATOM_COUNT>
25

> <PUBCHEM_ATOM_DEF_STEREO_COUNT>
1

> <PUBCHEM_ATOM_UDEF_STEREO_COUNT>
0

> <PUBCHEM_BOND_DEF_STEREO_COUNT>
0

> <PUBCHEM_BOND_UDEF_STEREO_COUNT>
0

> <PUBCHEM_ISOTOPIC_ATOM_COUNT>
0

> <PUBCHEM_COMPONENT_COUNT>
1

> <PUBCHEM_CACTVS_TAUTO_COUNT>
1

> <PUBCHEM_CONFORMER_ID>
02BA998700000001

> <PUBCHEM_MMFF94_ENERGY>
60.2467

> <PUBCHEM_FEATURE_SELFOVERLAP>
45.726

> <PUBCHEM_SHAPE_FINGERPRINT>
10366900 7 16343434959319184284
11118852 30 18338511933206762002
12403259 327 17631148862876527738
12422481 6 17833803024862621234
12592029 89 18411428293534749499
12788726 201 17907580581461700111
13140716 1 18198899396008120249
13726171 33 17981075159697899985
14022347 108 18272385186266901228
14178342 30 18055635014662104424
15003188 3 17632579370047904641
15403338 16 17170655702283915411
16752209 62 18341620308471172509
17093844 170 18272094868511463702
17818456 19 17899972733859897413
1813 80 17677889029222209562
19591789 44 18268716185422779215
20511986 3 18187916322507980396
20600515 1 18130496513685298688
20645477 70 16515694333577976488
21197605 99 12644279223809770226
22907989 373 15300317609260089028
23559900 14 18125727781457548351
3052486 1 18340768246941625230
3298306 158 18412827954677910911
338550 245 18409731716311135495
445580 8 18335691707129733570
474144 1 18186802469889255938
484985 159 14209794995915571930
5281201 14 16008744693244208397
6287921 2 17912081642837160643
6823239 73 17845945150979982444
7064713 232 18270665477050402003
9709674 26 17843126067553860365

> <PUBCHEM_SHAPE_MULTIPOLES>
476.96
8.78
3.84
1.89
5.93
4.21
-0.05
-1.16
0.92
0.04
-0.68
-3.13
-0.25
-2.24

> <PUBCHEM_SHAPE_SELFOVERLAP>
1015.235

> <PUBCHEM_SHAPE_VOLUME>
268.1

> <PUBCHEM_COORDINATE_TYPE>
2
5
10

$$$$
