51137936
  -OEChem-12032416243D

 47 50  0     1  0  0  0  0  0999 V2000
    0.6515    1.7910    0.2327 O   0  0  0  0  0  0  0  0  0  0  0  0
   -2.5285    1.4685   -0.1671 N   0  0  0  0  0  0  0  0  0  0  0  0
    1.2800    3.9372    0.2892 N   0  0  0  0  0  0  0  0  0  0  0  0
   -3.3682   -0.2810    1.1582 N   0  0  0  0  0  0  0  0  0  0  0  0
    2.4205    3.1600    0.2094 N   0  0  0  0  0  0  0  0  0  0  0  0
    4.9118   -2.9015   -0.1362 N   0  0  0  0  0  0  0  0  0  0  0  0
   -5.5216   -4.5020    0.2827 N   0  0  0  0  0  0  0  0  0  0  0  0
   -1.2196    3.3750    0.3757 C   0  0  1  0  0  0  0  0  0  0  0  0
   -1.8318    3.5506   -1.0175 C   0  0  0  0  0  0  0  0  0  0  0  0
   -2.0993    2.2654    0.9826 C   0  0  0  0  0  0  0  0  0  0  0  0
   -2.2327    2.1349   -1.4320 C   0  0  0  0  0  0  0  0  0  0  0  0
    0.2722    3.0964    0.2999 C   0  0  0  0  0  0  0  0  0  0  0  0
   -3.1449    0.2390   -0.0696 C   0  0  0  0  0  0  0  0  0  0  0  0
   -3.4984   -0.3882   -1.2534 C   0  0  0  0  0  0  0  0  0  0  0  0
    2.0058    1.9151    0.1789 C   0  0  0  0  0  0  0  0  0  0  0  0
    2.7455    0.6890    0.0987 C   0  0  0  0  0  0  0  0  0  0  0  0
   -4.1210   -1.6289   -1.1721 C   0  0  0  0  0  0  0  0  0  0  0  0
   -3.9752   -1.4884    1.1977 C   0  0  0  0  0  0  0  0  0  0  0  0
   -4.3676   -2.1964    0.0731 C   0  0  0  0  0  0  0  0  0  0  0  0
    4.1389    0.7176    0.0390 C   0  0  0  0  0  0  0  0  0  0  0  0
    2.0717   -0.5321    0.0811 C   0  0  0  0  0  0  0  0  0  0  0  0
    4.1843   -1.6960   -0.0566 C   0  0  0  0  0  0  0  0  0  0  0  0
    4.8583   -0.4749   -0.0387 C   0  0  0  0  0  0  0  0  0  0  0  0
    2.7910   -1.7247    0.0034 C   0  0  0  0  0  0  0  0  0  0  0  0
   -5.0038   -3.4676    0.1887 C   0  0  0  0  0  0  0  0  0  0  0  0
    4.2215   -4.1761   -0.1477 C   0  0  0  0  0  0  0  0  0  0  0  0
    6.3596   -2.8822   -0.2000 C   0  0  0  0  0  0  0  0  0  0  0  0
   -1.3328    4.2957    0.9612 H   0  0  0  0  0  0  0  0  0  0  0  0
   -2.7325    4.1733   -0.9412 H   0  0  0  0  0  0  0  0  0  0  0  0
   -1.1612    4.0178   -1.7457 H   0  0  0  0  0  0  0  0  0  0  0  0
   -2.9819    2.7019    1.4649 H   0  0  0  0  0  0  0  0  0  0  0  0
   -1.5520    1.6686    1.7206 H   0  0  0  0  0  0  0  0  0  0  0  0
   -1.4044    1.6325   -1.9445 H   0  0  0  0  0  0  0  0  0  0  0  0
   -3.0980    2.1929   -2.1012 H   0  0  0  0  0  0  0  0  0  0  0  0
   -3.3119    0.0190   -2.2400 H   0  0  0  0  0  0  0  0  0  0  0  0
   -4.4062   -2.1432   -2.0865 H   0  0  0  0  0  0  0  0  0  0  0  0
   -4.1389   -1.8765    2.1989 H   0  0  0  0  0  0  0  0  0  0  0  0
    4.6844    1.6583    0.0516 H   0  0  0  0  0  0  0  0  0  0  0  0
    0.9871   -0.5942    0.1260 H   0  0  0  0  0  0  0  0  0  0  0  0
    5.9403   -0.3996   -0.0830 H   0  0  0  0  0  0  0  0  0  0  0  0
    2.2210   -2.6484   -0.0078 H   0  0  0  0  0  0  0  0  0  0  0  0
    3.6430   -4.3213    0.7714 H   0  0  0  0  0  0  0  0  0  0  0  0
    3.5588   -4.2595   -1.0163 H   0  0  0  0  0  0  0  0  0  0  0  0
    4.9228   -5.0158   -0.2099 H   0  0  0  0  0  0  0  0  0  0  0  0
    6.7098   -2.3481   -1.0904 H   0  0  0  0  0  0  0  0  0  0  0  0
    6.7893   -2.4226    0.6971 H   0  0  0  0  0  0  0  0  0  0  0  0
    6.7757   -3.8940   -0.2611 H   0  0  0  0  0  0  0  0  0  0  0  0
  1 12  1  0  0  0  0
  1 15  1  0  0  0  0
  2 10  1  0  0  0  0
  2 11  1  0  0  0  0
  2 13  1  0  0  0  0
  3  5  1  0  0  0  0
  3 12  2  0  0  0  0
  4 13  2  0  0  0  0
  4 18  1  0  0  0  0
  5 15  2  0  0  0  0
  6 22  1  0  0  0  0
  6 26  1  0  0  0  0
  6 27  1  0  0  0  0
  7 25  3  0  0  0  0
  8  9  1  0  0  0  0
  8 10  1  0  0  0  0
  8 12  1  0  0  0  0
  8 28  1  0  0  0  0
  9 11  1  0  0  0  0
  9 29  1  0  0  0  0
  9 30  1  0  0  0  0
 10 31  1  0  0  0  0
 10 32  1  0  0  0  0
 11 33  1  0  0  0  0
 11 34  1  0  0  0  0
 13 14  1  0  0  0  0
 14 17  2  0  0  0  0
 14 35  1  0  0  0  0
 15 16  1  0  0  0  0
 16 20  2  0  0  0  0
 16 21  1  0  0  0  0
 17 19  1  0  0  0  0
 17 36  1  0  0  0  0
 18 19  2  0  0  0  0
 18 37  1  0  0  0  0
 19 25  1  0  0  0  0
 20 23  1  0  0  0  0
 20 38  1  0  0  0  0
 21 24  2  0  0  0  0
 21 39  1  0  0  0  0
 22 23  2  0  0  0  0
 22 24  1  0  0  0  0
 23 40  1  0  0  0  0
 24 41  1  0  0  0  0
 26 42  1  0  0  0  0
 26 43  1  0  0  0  0
 26 44  1  0  0  0  0
 27 45  1  0  0  0  0
 27 46  1  0  0  0  0
 27 47  1  0  0  0  0
M  END
> <PUBCHEM_COMPOUND_CID>
51137936

> <PUBCHEM_CONFORMER_RMSD>
0.8

> <PUBCHEM_CONFORMER_DIVERSEORDER>
1
11
10
14
7
32
31
22
23
9
30
17
25
28
18
3
13
5
21
8
16
12
6
27
24
20
15
29
19
2
33
26
4

> <PUBCHEM_MMFF94_PARTIAL_CHARGES>
33
1 -0.28
10 0.37
11 0.37
12 0.3
13 0.41
14 -0.15
15 0.43
16 0.05
17 -0.15
18 0.16
19 0.07
2 -0.84
20 -0.15
21 -0.15
22 0.1
23 -0.15
24 -0.15
25 0.48
26 0.37
27 0.37
3 -0.34
35 0.15
36 0.15
37 0.15
38 0.15
39 0.15
4 -0.62
40 0.15
41 0.15
5 -0.34
6 -0.84
7 -0.56
8 0.18

> <PUBCHEM_EFFECTIVE_ROTOR_COUNT>
5

> <PUBCHEM_PHARMACOPHORE_FEATURES>
7
1 6 cation
1 7 acceptor
3 2 4 13 cation
5 1 3 5 12 15 rings
5 2 8 9 10 11 rings
6 16 20 21 22 23 24 rings
6 4 13 14 17 18 19 rings

> <PUBCHEM_HEAVY_ATOM_COUNT>
27

> <PUBCHEM_ATOM_DEF_STEREO_COUNT>
1

> <PUBCHEM_ATOM_UDEF_STEREO_COUNT>
0

> <PUBCHEM_BOND_DEF_STEREO_COUNT>
0

> <PUBCHEM_BOND_UDEF_STEREO_COUNT>
0

> <PUBCHEM_ISOTOPIC_ATOM_COUNT>
0

> <PUBCHEM_COMPONENT_COUNT>
1

> <PUBCHEM_CACTVS_TAUTO_COUNT>
1

> <PUBCHEM_CONFORMER_ID>
030C4D9000000001

> <PUBCHEM_MMFF94_ENERGY>
83.933

> <PUBCHEM_FEATURE_SELFOVERLAP>
35.523

> <PUBCHEM_SHAPE_FINGERPRINT>
10391435 84 18195516014378539242
10622 236 17414411082363851775
10838868 158 18266195941268643862
10928967 22 18271813483154079726
11014199 57 18410576162942781684
11070050 100 17056103379638937264
11186622 123 18117274762213474594
11315621 246 17978525131141591654
11409948 41 17766824402380008679
117089 54 18338243768165695275
12107183 9 18270418143829037137
12202916 173 17610601382602167673
12559416 138 18272077319123034414
12655387 17 18268730363568681255
12969540 37 18410006680576627620
12990986 174 18339081467424065134
13533116 47 17765720509689241779
1361 2 17834394901578938475
13911852 28 18267865159112089199
13989917 61 17760370289929697851
14168556 18 18412820297352777626
14429380 30 18410573989848014170
14659021 117 18121768440323576584
14863182 85 17832143097011648837
14866123 147 18341052896663980857
14950920 106 16702013197264230058
15320467 1 17690561209580557267
15352361 1 18411417306290838289
15728490 83 18264776462876769171
15803439 3 17102533182994221677
17492 89 18339922713957117747
17859628 70 18050849115535026521
17909252 39 18412262878478379176
19301676 85 18194674870518961959
19311894 1 18121781629836249002
20775530 9 18187086139388162979
21033650 10 16516505790797937629
21133410 171 17541324225986460843
21133410 38 17046555323885248559
21315759 227 18262220175793213774
221490 88 18411136888620218760
23379529 103 18125447406430698382
23428019 142 17459197283001803090
23466295 7 18337955580391776325
23559900 14 18338785780480154461
24893989 43 16979851217149576775
3383291 50 18122903128007969329
3421961 26 18195807599164913209
345986 75 17630620114048507801
3737641 26 18340775951991550564
3991529 202 18119835710138159683
404807 14 18410016533659087091
437795 163 18336550414102965326
437795 96 17697320611952304310
44062 13 18264206924321630965
4435113 14 17028545241970744515
445580 102 18411983546300231878
4616759 239 17771045109352486722
46194498 28 17100856823310122077
463206 1 18265896852308369984
484985 159 18266460910785229825
5309563 4 18339080526894805591
5365585 94 18333737896447104979
56633871 153 18340498789826442299
613672 6 18195218157531086483
6376802 90 18117534272617170244
6431902 208 18411133602764639046
70251023 43 18337109063849144081
7970288 3 18339643437951421811
9555976 147 17416428617993040051

> <PUBCHEM_SHAPE_MULTIPOLES>
519.89
13.04
6.41
0.99
6.68
1.1
0.13
19.14
0.39
-2.13
-0.17
-1.14
-0.18
1.14

> <PUBCHEM_SHAPE_SELFOVERLAP>
1132.081

> <PUBCHEM_SHAPE_VOLUME>
283.5

> <PUBCHEM_COORDINATE_TYPE>
2
5
10

$$$$
