45783722
  -OEChem-12032416383D

 48 51  0     1  0  0  0  0  0999 V2000
    0.0976   -2.2836    1.4860 O   0  0  0  0  0  0  0  0  0  0  0  0
   -0.2092    2.9013   -1.2376 O   0  0  0  0  0  0  0  0  0  0  0  0
   -2.4172   -1.0628   -0.6749 N   0  0  0  0  0  0  0  0  0  0  0  0
    0.7257   -1.2179   -0.3811 N   0  0  0  0  0  0  0  0  0  0  0  0
   -2.7752   -0.3262    1.4974 N   0  0  0  0  0  0  0  0  0  0  0  0
   -3.8930    0.7038   -0.3726 N   0  0  0  0  0  0  0  0  0  0  0  0
    1.4091   -1.8460    1.7099 N   0  0  0  0  0  0  0  0  0  0  0  0
    1.9529    1.5456   -0.0038 N   0  0  0  0  0  0  0  0  0  0  0  0
    4.3055    1.3524   -0.1688 N   0  0  0  0  0  0  0  0  0  0  0  0
   -1.6211   -2.2280   -0.2566 C   0  0  1  0  0  0  0  0  0  0  0  0
   -1.5777   -3.1032   -1.5216 C   0  0  0  0  0  0  0  0  0  0  0  0
   -1.6661   -2.1028   -2.6629 C   0  0  0  0  0  0  0  0  0  0  0  0
   -2.6197   -1.0398   -2.1259 C   0  0  0  0  0  0  0  0  0  0  0  0
   -0.2274   -1.8727    0.2323 C   0  0  0  0  0  0  0  0  0  0  0  0
   -3.0562   -0.1905    0.1874 C   0  0  0  0  0  0  0  0  0  0  0  0
    1.7095   -1.2266    0.5644 C   0  0  0  0  0  0  0  0  0  0  0  0
    2.9829   -0.6083    0.3325 C   0  0  0  0  0  0  0  0  0  0  0  0
   -4.4987    1.5389    0.4968 C   0  0  0  0  0  0  0  0  0  0  0  0
   -3.4154    0.5404    2.3096 C   0  0  0  0  0  0  0  0  0  0  0  0
    3.1199    0.7421    0.0541 C   0  0  0  0  0  0  0  0  0  0  0  0
   -4.2964    1.5033    1.8615 C   0  0  0  0  0  0  0  0  0  0  0  0
    4.1367   -1.3823    0.3857 C   0  0  0  0  0  0  0  0  0  0  0  0
    1.9948    2.9434   -0.2834 C   0  0  0  0  0  0  0  0  0  0  0  0
    5.3750   -0.7904    0.1619 C   0  0  0  0  0  0  0  0  0  0  0  0
    0.5914    3.5240   -0.2409 C   0  0  0  0  0  0  0  0  0  0  0  0
    5.4051    0.5681   -0.1089 C   0  0  0  0  0  0  0  0  0  0  0  0
   -1.5328    3.4179   -1.2405 C   0  0  0  0  0  0  0  0  0  0  0  0
   -2.1424   -2.7865    0.5317 H   0  0  0  0  0  0  0  0  0  0  0  0
   -0.6894   -3.7391   -1.5894 H   0  0  0  0  0  0  0  0  0  0  0  0
   -2.4618   -3.7530   -1.5473 H   0  0  0  0  0  0  0  0  0  0  0  0
   -2.0232   -2.5512   -3.5943 H   0  0  0  0  0  0  0  0  0  0  0  0
   -0.6810   -1.6616   -2.8551 H   0  0  0  0  0  0  0  0  0  0  0  0
   -3.6565   -1.3055   -2.3627 H   0  0  0  0  0  0  0  0  0  0  0  0
   -2.3928   -0.0593   -2.5581 H   0  0  0  0  0  0  0  0  0  0  0  0
   -5.1730    2.2624    0.0513 H   0  0  0  0  0  0  0  0  0  0  0  0
   -3.1926    0.4361    3.3661 H   0  0  0  0  0  0  0  0  0  0  0  0
   -4.7956    2.1860    2.5358 H   0  0  0  0  0  0  0  0  0  0  0  0
    4.0925   -2.4481    0.5965 H   0  0  0  0  0  0  0  0  0  0  0  0
    1.0833    1.0597   -0.1979 H   0  0  0  0  0  0  0  0  0  0  0  0
    2.6198    3.4652    0.4501 H   0  0  0  0  0  0  0  0  0  0  0  0
    2.4218    3.1065   -1.2800 H   0  0  0  0  0  0  0  0  0  0  0  0
    6.2877   -1.3741    0.1975 H   0  0  0  0  0  0  0  0  0  0  0  0
    0.1421    3.3565    0.7456 H   0  0  0  0  0  0  0  0  0  0  0  0
    0.6361    4.6029   -0.4292 H   0  0  0  0  0  0  0  0  0  0  0  0
    6.3456    1.0774   -0.2909 H   0  0  0  0  0  0  0  0  0  0  0  0
   -2.0050    3.2705   -0.2650 H   0  0  0  0  0  0  0  0  0  0  0  0
   -1.5263    4.4815   -1.4975 H   0  0  0  0  0  0  0  0  0  0  0  0
   -2.1114    2.8794   -1.9957 H   0  0  0  0  0  0  0  0  0  0  0  0
  1  7  1  0  0  0  0
  1 14  1  0  0  0  0
  2 25  1  0  0  0  0
  2 27  1  0  0  0  0
  3 10  1  0  0  0  0
  3 13  1  0  0  0  0
  3 15  1  0  0  0  0
  4 14  2  0  0  0  0
  4 16  1  0  0  0  0
  5 15  2  0  0  0  0
  5 19  1  0  0  0  0
  6 15  1  0  0  0  0
  6 18  2  0  0  0  0
  7 16  2  0  0  0  0
  8 20  1  0  0  0  0
  8 23  1  0  0  0  0
  8 39  1  0  0  0  0
  9 20  1  0  0  0  0
  9 26  2  0  0  0  0
 10 11  1  0  0  0  0
 10 14  1  0  0  0  0
 10 28  1  0  0  0  0
 11 12  1  0  0  0  0
 11 29  1  0  0  0  0
 11 30  1  0  0  0  0
 12 13  1  0  0  0  0
 12 31  1  0  0  0  0
 12 32  1  0  0  0  0
 13 33  1  0  0  0  0
 13 34  1  0  0  0  0
 16 17  1  0  0  0  0
 17 20  2  0  0  0  0
 17 22  1  0  0  0  0
 18 21  1  0  0  0  0
 18 35  1  0  0  0  0
 19 21  2  0  0  0  0
 19 36  1  0  0  0  0
 21 37  1  0  0  0  0
 22 24  2  0  0  0  0
 22 38  1  0  0  0  0
 23 25  1  0  0  0  0
 23 40  1  0  0  0  0
 23 41  1  0  0  0  0
 24 26  1  0  0  0  0
 24 42  1  0  0  0  0
 25 43  1  0  0  0  0
 25 44  1  0  0  0  0
 26 45  1  0  0  0  0
 27 46  1  0  0  0  0
 27 47  1  0  0  0  0
 27 48  1  0  0  0  0
M  END
> <PUBCHEM_COMPOUND_CID>
45783722

> <PUBCHEM_CONFORMER_RMSD>
1

> <PUBCHEM_CONFORMER_DIVERSEORDER>
1
35
34
57
46
45
25
22
20
55
16
44
48
42
40
53
11
60
23
8
6
2
54
58
52
28
47
50
26
17
7
33
31
4
56
9
49
30
24
36
27
59
19
32
5
10
18
43
21
12
61
3
51
39
41
38
14
13
15
29
37

> <PUBCHEM_MMFF94_PARTIAL_CHARGES>
32
1 -0.02
10 0.55
13 0.37
14 0.3
15 0.72
16 0.46
17 0.05
18 0.16
19 0.16
2 -0.56
20 0.41
21 -0.15
22 -0.15
23 0.37
24 -0.15
25 0.28
26 0.16
27 0.28
3 -0.84
35 0.15
36 0.15
37 0.15
38 0.15
39 0.4
4 -0.57
42 0.15
45 0.15
5 -0.62
6 -0.62
7 -0.41
8 -0.87
9 -0.62

> <PUBCHEM_EFFECTIVE_ROTOR_COUNT>
8

> <PUBCHEM_PHARMACOPHORE_FEATURES>
11
1 2 acceptor
1 6 acceptor
1 8 cation
1 8 donor
1 9 acceptor
3 4 7 16 cation
4 3 5 6 15 cation
5 1 4 7 14 16 rings
5 3 10 11 12 13 rings
6 5 6 15 18 19 21 rings
6 9 17 20 22 24 26 rings

> <PUBCHEM_HEAVY_ATOM_COUNT>
27

> <PUBCHEM_ATOM_DEF_STEREO_COUNT>
1

> <PUBCHEM_ATOM_UDEF_STEREO_COUNT>
0

> <PUBCHEM_BOND_DEF_STEREO_COUNT>
0

> <PUBCHEM_BOND_UDEF_STEREO_COUNT>
0

> <PUBCHEM_ISOTOPIC_ATOM_COUNT>
0

> <PUBCHEM_COMPONENT_COUNT>
1

> <PUBCHEM_CACTVS_TAUTO_COUNT>
8

> <PUBCHEM_CONFORMER_ID>
02BA9AAA00000001

> <PUBCHEM_MMFF94_ENERGY>
76.6513

> <PUBCHEM_FEATURE_SELFOVERLAP>
55.822

> <PUBCHEM_SHAPE_FINGERPRINT>
10006869 2 18046056056444122585
10675989 125 16459647518800826780
10906281 52 18262525913958012368
11014199 57 18122904501817092750
11578080 2 17345454042527805794
12107698 1 18197780101355329431
12422481 6 18122357778107795369
12539773 59 17986677167625947413
12553582 1 18334565872106206052
12596599 1 18130796710418814060
12633257 1 18202287995765386108
13402501 40 18115308869650938573
13583140 156 18113622283454458163
14279260 333 17824821132235747938
14765038 42 18341065080974983872
14840074 17 18338245877162962073
15297060 5 17346604032880136315
18219364 16 17677039273757783998
18603816 31 16127805237719221806
19930381 70 16823617276256968007
20261772 1 18410857629429849616
25265897 201 17629515061216497004
3388396 114 17481692474783503637
4169191 19 17972590264002438604
46194498 28 13398046683872196771
469060 322 16154266268614782355
57527585 103 17245260074082936970
6438718 38 18202280320784837916
7226269 152 17968924401808355944
7832392 63 18412542149989348858

> <PUBCHEM_SHAPE_MULTIPOLES>
509.04
9.42
4.01
1.9
6.92
2.15
-0.16
2.14
2.41
-1.07
-1.79
-2.42
-0.63
-1.93

> <PUBCHEM_SHAPE_SELFOVERLAP>
1093.707

> <PUBCHEM_SHAPE_VOLUME>
280.6

> <PUBCHEM_COORDINATE_TYPE>
2
5
10

$$$$
