26743586
  -OEChem-12032416213D

 50 54  0     1  0  0  0  0  0999 V2000
    5.4979   -1.8432    1.3966 O   0  0  0  0  0  0  0  0  0  0  0  0
    0.8300   -1.9930   -1.8711 O   0  0  0  0  0  0  0  0  0  0  0  0
    2.8464    0.2496    0.2299 N   0  0  1  0  0  0  0  0  0  0  0  0
   -0.6571    2.3962   -1.6889 N   0  0  0  0  0  0  0  0  0  0  0  0
    0.2010   -1.1293    0.0974 N   0  0  0  0  0  0  0  0  0  0  0  0
   -0.5435   -2.2426   -1.7574 N   0  0  0  0  0  0  0  0  0  0  0  0
    2.6461   -0.9449   -0.6155 C   0  0  1  0  0  0  0  0  0  0  0  0
    3.5027   -2.0419    0.0437 C   0  0  0  0  0  0  0  0  0  0  0  0
    4.1810   -1.3571    1.2236 C   0  0  2  0  0  0  0  0  0  0  0  0
    4.1684    0.1098    0.8374 C   0  0  0  0  0  0  0  0  0  0  0  0
    2.7093    1.5015   -0.5030 C   0  0  0  0  0  0  0  0  0  0  0  0
    1.1880   -1.3347   -0.7376 C   0  0  0  0  0  0  0  0  0  0  0  0
    1.2654    1.8749   -0.7096 C   0  0  0  0  0  0  0  0  0  0  0  0
    0.2919    2.0876    0.3064 C   0  0  0  0  0  0  0  0  0  0  0  0
    0.6518    2.0720   -1.9252 C   0  0  0  0  0  0  0  0  0  0  0  0
   -0.9052    2.4133   -0.3348 C   0  0  0  0  0  0  0  0  0  0  0  0
    0.3145    2.0341    1.7142 C   0  0  0  0  0  0  0  0  0  0  0  0
   -0.8406   -1.7037   -0.5712 C   0  0  0  0  0  0  0  0  0  0  0  0
   -2.0856    2.6892    0.3642 C   0  0  0  0  0  0  0  0  0  0  0  0
   -1.6267    2.6800   -2.7252 C   0  0  0  0  0  0  0  0  0  0  0  0
   -0.8588    2.3078    2.4268 C   0  0  0  0  0  0  0  0  0  0  0  0
   -2.0392    2.6301    1.7600 C   0  0  0  0  0  0  0  0  0  0  0  0
   -2.1670   -1.7235   -0.0252 C   0  0  0  0  0  0  0  0  0  0  0  0
   -2.4166   -1.1458    1.2195 C   0  0  0  0  0  0  0  0  0  0  0  0
   -3.2066   -2.3203   -0.7382 C   0  0  0  0  0  0  0  0  0  0  0  0
   -3.7060   -1.1649    1.7514 C   0  0  0  0  0  0  0  0  0  0  0  0
   -4.4959   -2.3394   -0.2065 C   0  0  0  0  0  0  0  0  0  0  0  0
   -4.7457   -1.7618    1.0383 C   0  0  0  0  0  0  0  0  0  0  0  0
    3.0457   -0.7766   -1.6254 H   0  0  0  0  0  0  0  0  0  0  0  0
    2.9166   -2.9013    0.3894 H   0  0  0  0  0  0  0  0  0  0  0  0
    4.2463   -2.4217   -0.6682 H   0  0  0  0  0  0  0  0  0  0  0  0
    3.6123   -1.5213    2.1470 H   0  0  0  0  0  0  0  0  0  0  0  0
    4.2915    0.7527    1.7154 H   0  0  0  0  0  0  0  0  0  0  0  0
    4.9810    0.3360    0.1343 H   0  0  0  0  0  0  0  0  0  0  0  0
    3.2505    1.4805   -1.4578 H   0  0  0  0  0  0  0  0  0  0  0  0
    3.1550    2.3198    0.0799 H   0  0  0  0  0  0  0  0  0  0  0  0
    5.4366   -2.7988    1.5656 H   0  0  0  0  0  0  0  0  0  0  0  0
    1.0404    2.0062   -2.9329 H   0  0  0  0  0  0  0  0  0  0  0  0
    1.2254    1.7867    2.2517 H   0  0  0  0  0  0  0  0  0  0  0  0
   -3.0082    2.9391   -0.1486 H   0  0  0  0  0  0  0  0  0  0  0  0
   -2.4379    1.9519   -2.6458 H   0  0  0  0  0  0  0  0  0  0  0  0
   -1.1510    2.5985   -3.7058 H   0  0  0  0  0  0  0  0  0  0  0  0
   -2.0009    3.6964   -2.5786 H   0  0  0  0  0  0  0  0  0  0  0  0
   -0.8476    2.2672    3.5127 H   0  0  0  0  0  0  0  0  0  0  0  0
   -2.9393    2.8373    2.3332 H   0  0  0  0  0  0  0  0  0  0  0  0
   -1.6261   -0.6820    1.8030 H   0  0  0  0  0  0  0  0  0  0  0  0
   -3.0502   -2.7801   -1.7108 H   0  0  0  0  0  0  0  0  0  0  0  0
   -3.9002   -0.7161    2.7212 H   0  0  0  0  0  0  0  0  0  0  0  0
   -5.3059   -2.8040   -0.7614 H   0  0  0  0  0  0  0  0  0  0  0  0
   -5.7496   -1.7769    1.4525 H   0  0  0  0  0  0  0  0  0  0  0  0
  1  9  1  0  0  0  0
  1 37  1  0  0  0  0
  2  6  1  0  0  0  0
  2 12  1  0  0  0  0
  3  7  1  0  0  0  0
  3 10  1  0  0  0  0
  3 11  1  0  0  0  0
  4 15  1  0  0  0  0
  4 16  1  0  0  0  0
  4 20  1  0  0  0  0
  5 12  2  0  0  0  0
  5 18  1  0  0  0  0
  6 18  2  0  0  0  0
  7  8  1  0  0  0  0
  7 12  1  0  0  0  0
  7 29  1  0  0  0  0
  8  9  1  0  0  0  0
  8 30  1  0  0  0  0
  8 31  1  0  0  0  0
  9 10  1  0  0  0  0
  9 32  1  0  0  0  0
 10 33  1  0  0  0  0
 10 34  1  0  0  0  0
 11 13  1  0  0  0  0
 11 35  1  0  0  0  0
 11 36  1  0  0  0  0
 13 14  1  0  0  0  0
 13 15  2  0  0  0  0
 14 16  1  0  0  0  0
 14 17  2  0  0  0  0
 15 38  1  0  0  0  0
 16 19  2  0  0  0  0
 17 21  1  0  0  0  0
 17 39  1  0  0  0  0
 18 23  1  0  0  0  0
 19 22  1  0  0  0  0
 19 40  1  0  0  0  0
 20 41  1  0  0  0  0
 20 42  1  0  0  0  0
 20 43  1  0  0  0  0
 21 22  2  0  0  0  0
 21 44  1  0  0  0  0
 22 45  1  0  0  0  0
 23 24  2  0  0  0  0
 23 25  1  0  0  0  0
 24 26  1  0  0  0  0
 24 46  1  0  0  0  0
 25 27  2  0  0  0  0
 25 47  1  0  0  0  0
 26 28  2  0  0  0  0
 26 48  1  0  0  0  0
 27 28  1  0  0  0  0
 27 49  1  0  0  0  0
 28 50  1  0  0  0  0
M  END
> <PUBCHEM_COMPOUND_CID>
26743586

> <PUBCHEM_CONFORMER_RMSD>
0.8

> <PUBCHEM_CONFORMER_DIVERSEORDER>
1
34
100
85
2
19
101
110
44
54
93
36
96
21
87
115
43
26
98
73
48
3
24
81
106
29
91
97
15
107
56
109
60
74
105
67
50
90
55
112
62
42
38
68
41
51
99
14
8
10
72
53
28
88
59
33
57
83
80
77
9
89
84
4
95
111
108
94
70
23
35
64
103
65
39
11
102
40
16
66
20
30
12
27
61
63
114
92
17
18
45
47
58
104
31
7
5
76
78
25
71
32
79
52
37
49
6
69
82
113
22
13
75
46
86

> <PUBCHEM_MMFF94_PARTIAL_CHARGES>
37
1 -0.68
10 0.27
11 0.45
12 0.3
13 -0.18
15 -0.3
16 -0.15
17 -0.15
18 0.46
19 -0.15
2 -0.02
20 0.26
21 -0.15
22 -0.15
23 0.05
24 -0.15
25 -0.15
26 -0.15
27 -0.15
28 -0.15
3 -0.81
37 0.4
38 0.15
39 0.15
4 0.05
40 0.15
44 0.15
45 0.15
46 0.15
47 0.15
48 0.15
49 0.15
5 -0.57
50 0.15
6 -0.41
7 0.45
9 0.28

> <PUBCHEM_EFFECTIVE_ROTOR_COUNT>
5

> <PUBCHEM_PHARMACOPHORE_FEATURES>
10
1 1 acceptor
1 1 donor
1 3 cation
1 4 cation
3 5 6 18 cation
5 2 5 6 12 18 rings
5 3 7 8 9 10 rings
5 4 13 14 15 16 rings
6 14 16 17 19 21 22 rings
6 23 24 25 26 27 28 rings

> <PUBCHEM_HEAVY_ATOM_COUNT>
28

> <PUBCHEM_ATOM_DEF_STEREO_COUNT>
2

> <PUBCHEM_ATOM_UDEF_STEREO_COUNT>
0

> <PUBCHEM_BOND_DEF_STEREO_COUNT>
0

> <PUBCHEM_BOND_UDEF_STEREO_COUNT>
0

> <PUBCHEM_ISOTOPIC_ATOM_COUNT>
0

> <PUBCHEM_COMPONENT_COUNT>
1

> <PUBCHEM_CACTVS_TAUTO_COUNT>
1

> <PUBCHEM_CONFORMER_ID>
0198132200000001

> <PUBCHEM_MMFF94_ENERGY>
53.9645

> <PUBCHEM_FEATURE_SELFOVERLAP>
50.84

> <PUBCHEM_SHAPE_FINGERPRINT>
10064457 181 17481738276214008280
104564 63 18269574843162341309
10688039 33 18040990773852049679
11370993 70 17838339579457457864
11578080 2 18267847527633731032
11582403 64 15941170722930305660
12035759 4 17974038281248618812
12422481 6 18196117476950036369
12788726 201 18340779212256635898
13134695 92 18195243541051504361
13140716 1 18339640019652800288
13583140 156 17169835454067186904
13965767 371 18059292175278104794
14840074 17 17901658599413846184
15420108 30 17055825216086440870
17357779 13 18339908390325445607
20600515 1 18261125105061836691
20905425 154 18127716961586106557
22182313 1 18058166116784611310
23419403 2 18126819759560212864
238 59 16531453320480233325
3052486 1 18192455020475803038
3380486 145 17840269484588674836
3380486 77 18114757004538590538
345986 75 18412543249136928419
35225 105 17901101915231770683
392239 28 17771883186289786960
4340502 62 17840031745549692337
469060 322 17894913980097324282
5282274 181 17910141038994188569
57527293 21 18043542625056638616
57527585 103 18121783816027233527
7064713 232 17702966767759197715
81228 2 18120398491690283123

> <PUBCHEM_SHAPE_MULTIPOLES>
544.56
7.57
4.24
2.19
2.05
1.74
-0.29
-7.68
3.56
-1.72
-0.57
-0.6
1.37
-0.67

> <PUBCHEM_SHAPE_SELFOVERLAP>
1207.322

> <PUBCHEM_SHAPE_VOLUME>
295.4

> <PUBCHEM_COORDINATE_TYPE>
2
5
10

$$$$
