75536902
  -OEChem-12032416303D

 44 46  0     1  0  0  0  0  0999 V2000
    1.1857   -0.0616   -1.7887 S   0  0  0  0  0  0  0  0  0  0  0  0
   -1.1516   -2.7120    1.2021 O   0  0  0  0  0  0  0  0  0  0  0  0
   -2.6725    0.1853   -0.3948 O   0  0  0  0  0  0  0  0  0  0  0  0
    0.5132    1.1689   -2.1391 O   0  0  0  0  0  0  0  0  0  0  0  0
    1.6049   -1.0020   -2.8033 O   0  0  0  0  0  0  0  0  0  0  0  0
    5.9060    1.3098    1.5021 O   0  0  0  0  0  0  0  0  0  0  0  0
    0.2468   -0.8931   -0.6205 N   0  0  2  0  0  0  0  0  0  0  0  0
   -4.3304    0.2676    1.2336 N   0  0  0  0  0  0  0  0  0  0  0  0
   -6.0447    1.4952   -0.6158 N   0  0  0  0  0  0  0  0  0  0  0  0
   -0.4049   -0.0375    0.4189 C   0  0  0  0  0  0  0  0  0  0  0  0
   -1.8674   -0.4346    0.6085 C   0  0  2  0  0  0  0  0  0  0  0  0
    0.8823   -2.1093   -0.0286 C   0  0  0  0  0  0  0  0  0  0  0  0
   -2.1694   -1.9313    0.5846 C   0  0  0  0  0  0  0  0  0  0  0  0
   -0.1682   -3.1681    0.2733 C   0  0  0  0  0  0  0  0  0  0  0  0
    2.5947    0.3491   -0.8091 C   0  0  0  0  0  0  0  0  0  0  0  0
    3.6762   -0.5294   -0.7410 C   0  0  0  0  0  0  0  0  0  0  0  0
    2.6260    1.5502   -0.1006 C   0  0  0  0  0  0  0  0  0  0  0  0
   -3.9440    0.5342   -0.0297 C   0  0  0  0  0  0  0  0  0  0  0  0
    4.7889   -0.2065    0.0357 C   0  0  0  0  0  0  0  0  0  0  0  0
    3.7386    1.8730    0.6761 C   0  0  0  0  0  0  0  0  0  0  0  0
    4.8203    0.9947    0.7441 C   0  0  0  0  0  0  0  0  0  0  0  0
   -4.7860    1.1371   -0.9381 C   0  0  0  0  0  0  0  0  0  0  0  0
   -5.5892    0.6255    1.5560 C   0  0  0  0  0  0  0  0  0  0  0  0
   -6.4312    1.2285    0.6476 C   0  0  0  0  0  0  0  0  0  0  0  0
    6.9761    0.3662    1.5268 C   0  0  0  0  0  0  0  0  0  0  0  0
   -0.3670    1.0210    0.1443 H   0  0  0  0  0  0  0  0  0  0  0  0
    0.1374   -0.1349    1.3673 H   0  0  0  0  0  0  0  0  0  0  0  0
   -2.1065   -0.0396    1.6055 H   0  0  0  0  0  0  0  0  0  0  0  0
    1.4240   -1.8440    0.8861 H   0  0  0  0  0  0  0  0  0  0  0  0
    1.5950   -2.5548   -0.7290 H   0  0  0  0  0  0  0  0  0  0  0  0
   -3.0911   -2.1188    1.1471 H   0  0  0  0  0  0  0  0  0  0  0  0
   -2.3814   -2.2854   -0.4329 H   0  0  0  0  0  0  0  0  0  0  0  0
   -0.6431   -3.5368   -0.6440 H   0  0  0  0  0  0  0  0  0  0  0  0
    0.3284   -4.0274    0.7372 H   0  0  0  0  0  0  0  0  0  0  0  0
    3.6774   -1.4681   -1.2872 H   0  0  0  0  0  0  0  0  0  0  0  0
    1.7959    2.2496   -0.1374 H   0  0  0  0  0  0  0  0  0  0  0  0
    5.5940   -0.9333    0.0433 H   0  0  0  0  0  0  0  0  0  0  0  0
    3.7573    2.8098    1.2262 H   0  0  0  0  0  0  0  0  0  0  0  0
   -4.4794    1.3531   -1.9546 H   0  0  0  0  0  0  0  0  0  0  0  0
   -5.9003    0.4114    2.5710 H   0  0  0  0  0  0  0  0  0  0  0  0
   -7.4425    1.5158    0.9075 H   0  0  0  0  0  0  0  0  0  0  0  0
    7.7547    0.7776    2.1775 H   0  0  0  0  0  0  0  0  0  0  0  0
    7.4229    0.2385    0.5350 H   0  0  0  0  0  0  0  0  0  0  0  0
    6.6624   -0.5866    1.9667 H   0  0  0  0  0  0  0  0  0  0  0  0
  1  4  2  0  0  0  0
  1  5  2  0  0  0  0
  1  7  1  0  0  0  0
  1 15  1  0  0  0  0
  2 13  1  0  0  0  0
  2 14  1  0  0  0  0
  3 11  1  0  0  0  0
  3 18  1  0  0  0  0
  6 21  1  0  0  0  0
  6 25  1  0  0  0  0
  7 10  1  0  0  0  0
  7 12  1  0  0  0  0
  8 18  2  0  0  0  0
  8 23  1  0  0  0  0
  9 22  2  0  0  0  0
  9 24  1  0  0  0  0
 10 11  1  0  0  0  0
 10 26  1  0  0  0  0
 10 27  1  0  0  0  0
 11 13  1  0  0  0  0
 11 28  1  0  0  0  0
 12 14  1  0  0  0  0
 12 29  1  0  0  0  0
 12 30  1  0  0  0  0
 13 31  1  0  0  0  0
 13 32  1  0  0  0  0
 14 33  1  0  0  0  0
 14 34  1  0  0  0  0
 15 16  2  0  0  0  0
 15 17  1  0  0  0  0
 16 19  1  0  0  0  0
 16 35  1  0  0  0  0
 17 20  2  0  0  0  0
 17 36  1  0  0  0  0
 18 22  1  0  0  0  0
 19 21  2  0  0  0  0
 19 37  1  0  0  0  0
 20 21  1  0  0  0  0
 20 38  1  0  0  0  0
 22 39  1  0  0  0  0
 23 24  2  0  0  0  0
 23 40  1  0  0  0  0
 24 41  1  0  0  0  0
 25 42  1  0  0  0  0
 25 43  1  0  0  0  0
 25 44  1  0  0  0  0
M  END
> <PUBCHEM_COMPOUND_CID>
75536902

> <PUBCHEM_CONFORMER_RMSD>
0.8

> <PUBCHEM_CONFORMER_DIVERSEORDER>
5
172
71
315
53
80
298
323
235
266
196
261
254
83
24
12
291
246
103
124
283
116
245
174
114
334
60
190
299
20
308
191
205
317
38
163
225
274
209
290
240
285
197
155
243
203
94
226
105
252
233
248
47
198
189
139
167
165
148
213
232
251
166
26
153
329
314
50
43
181
330
126
328
128
158
61
247
142
212
262
250
200
313
273
223
217
318
322
279
257
222
195
68
82
219
242
151
307
331
304
104
135
294
184
182
21
193
78
96
123
263
221
239
32
267
303
145
63
275
238
187
324
171
64
95
220
264
202
206
39
111
292
132
201
289
81
208
277
204
93
138
284
147
234
150
115
33
210
88
293
97
300
227
119
237
121
100
325
286
36
271
92
73
10
134
296
249
110
45
333
14
101
192
270
85
216
52
230
86
87
156
259
76
7
44
125
109
58
46
276
74
23
278
108
211
168
255
236
319
77
112
178
309
332
180
8
65
117
17
91
228
185
66
253
35
269
215
157
18
152
162
183
89
137
120
70
144
143
79
122
265
281
305
161
118
27
54
48
56
272
67
327
136
15
173
16
127
57
28
6
55
320
130
241
34
9
140
31
301
280
41
186
214
11
159
310
149
102
2
231
42
75
129
302
218
154
326
40
179
37
106
268
30
282
90
49
316
29
194
84
321
244
170
229
176
72
19
1
177
3
311
288
287
113
188
141
297
175
22
13
164
133
207
51
169
69
146
256
160
131
4
306
312
107
295
224
98
25
199
59
99
260
258
62

> <PUBCHEM_MMFF94_PARTIAL_CHARGES>
32
1 1.45
10 0.36
11 0.28
12 0.36
13 0.28
14 0.28
15 -0.01
16 -0.15
17 -0.15
18 0.39
19 -0.15
2 -0.56
20 -0.15
21 0.08
22 0.16
23 0.16
24 0.16
25 0.28
3 -0.36
35 0.15
36 0.15
37 0.15
38 0.15
39 0.15
4 -0.65
40 0.15
41 0.15
5 -0.65
6 -0.36
7 -0.85
8 -0.62
9 -0.62

> <PUBCHEM_EFFECTIVE_ROTOR_COUNT>
6.4

> <PUBCHEM_PHARMACOPHORE_FEATURES>
8
1 2 acceptor
1 4 acceptor
1 5 acceptor
1 6 acceptor
1 9 acceptor
6 15 16 17 19 20 21 rings
6 8 9 18 22 23 24 rings
7 2 7 10 11 12 13 14 rings

> <PUBCHEM_HEAVY_ATOM_COUNT>
25

> <PUBCHEM_ATOM_DEF_STEREO_COUNT>
1

> <PUBCHEM_ATOM_UDEF_STEREO_COUNT>
0

> <PUBCHEM_BOND_DEF_STEREO_COUNT>
0

> <PUBCHEM_BOND_UDEF_STEREO_COUNT>
0

> <PUBCHEM_ISOTOPIC_ATOM_COUNT>
0

> <PUBCHEM_COMPONENT_COUNT>
1

> <PUBCHEM_CACTVS_TAUTO_COUNT>
1

> <PUBCHEM_CONFORMER_ID>
04809A0600000005

> <PUBCHEM_MMFF94_ENERGY>
77.5156

> <PUBCHEM_FEATURE_SELFOVERLAP>
40.617

> <PUBCHEM_SHAPE_FINGERPRINT>
10 15 18040439922716324273
10042902 136 11675175790508809129
10319926 262 17095816446959228355
10595046 47 16487257634621261333
10692045 39 18262796264131241522
10906281 52 17987817296406390672
11646440 116 18337965532153105545
11961588 58 16200142205666254399
12107183 9 18260540135306656072
12403259 415 18339096972055634527
12422481 6 17530960254919920751
12553582 1 14779810712094714800
12596602 18 16298391283301420092
12633257 1 18335415820417093192
13103583 49 15213020440547501789
13533116 47 18270685247360222134
13673619 4 11891329850881033606
14251757 52 17202499805967138665
14251764 18 17167583812750352324
14251764 30 13117993397060477080
144659 39 18060426824297249367
14528608 73 15626221312275028145
14767858 380 12175620707003663104
14951699 99 18117002280924876196
15420108 30 18336251410436623306
16994733 274 16845571989712253105
17492 54 14549018801591941746
17913733 40 18337686234819552115
17980427 23 18267302208557301340
1813 80 15357695267463157102
18222031 100 9078828533793054313
20157964 124 17418376878859561364
20567600 254 18410569574605270465
20871999 31 10880004557168138783
21033648 29 18260267408709017101
212916 134 18333732429032760667
21304303 282 18199174252219740895
21403212 168 18261098652278801858
21637258 2 12901541360410058432
22149856 69 18118433708347038881
22950370 63 13912320179379112860
23522609 53 13624673549217610199
23559900 14 18270142157367070862
2838139 119 17418088832261550432
2916195 48 18343866610995620977
3004659 81 14619964681752099917
329604 57 11240004434068449804
33382 64 12468349146702022744
345986 75 13984924243381124420
4340502 62 18410864243958995199
437815 12 10809343343377683743
465052 167 14851613180136630376
5104073 3 17750803331501486552
5207 217 14692565550545705580
5385378 56 18189056400228097723
54039377 194 13768193966918989056
543368 44 17275105016645620289
58807428 26 18040715874418060874
7226269 152 18341893004239558920

> <PUBCHEM_SHAPE_MULTIPOLES>
474.05
15.04
2.32
1.74
3.66
1.88
-0.82
-10.32
6.97
0.29
0.49
-0.76
-0.05
1.23

> <PUBCHEM_SHAPE_SELFOVERLAP>
989.454

> <PUBCHEM_SHAPE_VOLUME>
268

> <PUBCHEM_COORDINATE_TYPE>
2
5
10

$$$$
