7144115
  -OEChem-12032416233D

 55 59  0     1  0  0  0  0  0999 V2000
   -2.8482    0.1895    1.3653 S   0  0  0  0  0  0  0  0  0  0  0  0
   -3.8827    1.1788    1.5823 O   0  0  0  0  0  0  0  0  0  0  0  0
   -2.0565   -0.3140    2.4679 O   0  0  0  0  0  0  0  0  0  0  0  0
    0.6955    5.0055    0.4446 O   0  0  0  0  0  0  0  0  0  0  0  0
    4.5056   -3.8995    0.1492 O   0  0  0  0  0  0  0  0  0  0  0  0
   -1.7985    0.7382    0.1307 N   0  0  2  0  0  0  0  0  0  0  0  0
    0.5169    2.8145   -0.3643 N   0  0  0  0  0  0  0  0  0  0  0  0
   -1.4008    2.1063   -1.9121 C   0  0  1  0  0  0  0  0  0  0  0  0
    0.2789    0.4591   -1.2105 C   0  0  2  0  0  0  0  0  0  0  0  0
   -0.4105    1.0744   -2.4259 C   0  0  0  0  0  0  0  0  0  0  0  0
   -2.4515    1.4506   -1.0029 C   0  0  0  0  0  0  0  0  0  0  0  0
   -0.7713   -0.2423   -0.3269 C   0  0  0  0  0  0  0  0  0  0  0  0
   -0.6253    3.2143   -1.1978 C   0  0  0  0  0  0  0  0  0  0  0  0
    1.0492    1.5105   -0.4068 C   0  0  0  0  0  0  0  0  0  0  0  0
    2.1936    1.2249    0.2677 C   0  0  0  0  0  0  0  0  0  0  0  0
    1.1096    3.8473    0.3839 C   0  0  0  0  0  0  0  0  0  0  0  0
    2.8306    2.2641    1.0541 C   0  0  0  0  0  0  0  0  0  0  0  0
    2.3357    3.4988    1.1368 C   0  0  0  0  0  0  0  0  0  0  0  0
   -3.5868   -1.1928    0.5520 C   0  0  0  0  0  0  0  0  0  0  0  0
    2.8012   -0.1235    0.2364 C   0  0  0  0  0  0  0  0  0  0  0  0
   -2.9957   -2.4403    0.6647 C   0  0  0  0  0  0  0  0  0  0  0  0
   -4.7438   -1.0061   -0.1861 C   0  0  0  0  0  0  0  0  0  0  0  0
    2.4240   -1.0734    1.1803 C   0  0  0  0  0  0  0  0  0  0  0  0
    3.7467   -0.4321   -0.7370 C   0  0  0  0  0  0  0  0  0  0  0  0
    2.9977   -2.3445    1.1509 C   0  0  0  0  0  0  0  0  0  0  0  0
    4.3203   -1.7033   -0.7665 C   0  0  0  0  0  0  0  0  0  0  0  0
   -3.5782   -3.5323    0.0210 C   0  0  0  0  0  0  0  0  0  0  0  0
   -5.3263   -2.0980   -0.8296 C   0  0  0  0  0  0  0  0  0  0  0  0
    3.9458   -2.6595    0.1775 C   0  0  0  0  0  0  0  0  0  0  0  0
   -4.7435   -3.3610   -0.7261 C   0  0  0  0  0  0  0  0  0  0  0  0
    5.4683   -4.1545   -0.8728 C   0  0  0  0  0  0  0  0  0  0  0  0
   -1.9347    2.5532   -2.7602 H   0  0  0  0  0  0  0  0  0  0  0  0
    0.9633   -0.3056   -1.5949 H   0  0  0  0  0  0  0  0  0  0  0  0
    0.3235    1.5394   -3.0959 H   0  0  0  0  0  0  0  0  0  0  0  0
   -0.9291    0.3013   -3.0061 H   0  0  0  0  0  0  0  0  0  0  0  0
   -3.1245    2.2259   -0.6218 H   0  0  0  0  0  0  0  0  0  0  0  0
   -3.0420    0.7450   -1.5966 H   0  0  0  0  0  0  0  0  0  0  0  0
   -1.2431   -1.0334   -0.9195 H   0  0  0  0  0  0  0  0  0  0  0  0
   -0.2913   -0.7038    0.5395 H   0  0  0  0  0  0  0  0  0  0  0  0
   -0.2106    3.8925   -1.9567 H   0  0  0  0  0  0  0  0  0  0  0  0
   -1.3047    3.8262   -0.5908 H   0  0  0  0  0  0  0  0  0  0  0  0
    3.7356    2.0138    1.6000 H   0  0  0  0  0  0  0  0  0  0  0  0
    2.8155    4.2675    1.7307 H   0  0  0  0  0  0  0  0  0  0  0  0
   -2.0877   -2.5954    1.2393 H   0  0  0  0  0  0  0  0  0  0  0  0
   -5.2115   -0.0311   -0.2824 H   0  0  0  0  0  0  0  0  0  0  0  0
    1.6929   -0.8409    1.9505 H   0  0  0  0  0  0  0  0  0  0  0  0
    4.0469    0.3037   -1.4789 H   0  0  0  0  0  0  0  0  0  0  0  0
    2.7032   -3.0846    1.8899 H   0  0  0  0  0  0  0  0  0  0  0  0
    5.0498   -1.8808   -1.5494 H   0  0  0  0  0  0  0  0  0  0  0  0
   -3.1239   -4.5156    0.1009 H   0  0  0  0  0  0  0  0  0  0  0  0
   -6.2331   -1.9647   -1.4125 H   0  0  0  0  0  0  0  0  0  0  0  0
   -5.1967   -4.2110   -1.2277 H   0  0  0  0  0  0  0  0  0  0  0  0
    5.8086   -5.1874   -0.7457 H   0  0  0  0  0  0  0  0  0  0  0  0
    6.3489   -3.5121   -0.7653 H   0  0  0  0  0  0  0  0  0  0  0  0
    5.0231   -4.0852   -1.8711 H   0  0  0  0  0  0  0  0  0  0  0  0
  1  2  2  0  0  0  0
  1  3  2  0  0  0  0
  1  6  1  0  0  0  0
  1 19  1  0  0  0  0
  4 16  2  0  0  0  0
  5 29  1  0  0  0  0
  5 31  1  0  0  0  0
  6 11  1  0  0  0  0
  6 12  1  0  0  0  0
  7 13  1  0  0  0  0
  7 14  1  0  0  0  0
  7 16  1  0  0  0  0
  8 10  1  0  0  0  0
  8 11  1  0  0  0  0
  8 13  1  0  0  0  0
  8 32  1  0  0  0  0
  9 10  1  0  0  0  0
  9 12  1  0  0  0  0
  9 14  1  0  0  0  0
  9 33  1  0  0  0  0
 10 34  1  0  0  0  0
 10 35  1  0  0  0  0
 11 36  1  0  0  0  0
 11 37  1  0  0  0  0
 12 38  1  0  0  0  0
 12 39  1  0  0  0  0
 13 40  1  0  0  0  0
 13 41  1  0  0  0  0
 14 15  2  0  0  0  0
 15 17  1  0  0  0  0
 15 20  1  0  0  0  0
 16 18  1  0  0  0  0
 17 18  2  0  0  0  0
 17 42  1  0  0  0  0
 18 43  1  0  0  0  0
 19 21  2  0  0  0  0
 19 22  1  0  0  0  0
 20 23  2  0  0  0  0
 20 24  1  0  0  0  0
 21 27  1  0  0  0  0
 21 44  1  0  0  0  0
 22 28  2  0  0  0  0
 22 45  1  0  0  0  0
 23 25  1  0  0  0  0
 23 46  1  0  0  0  0
 24 26  2  0  0  0  0
 24 47  1  0  0  0  0
 25 29  2  0  0  0  0
 25 48  1  0  0  0  0
 26 29  1  0  0  0  0
 26 49  1  0  0  0  0
 27 30  2  0  0  0  0
 27 50  1  0  0  0  0
 28 30  1  0  0  0  0
 28 51  1  0  0  0  0
 30 52  1  0  0  0  0
 31 53  1  0  0  0  0
 31 54  1  0  0  0  0
 31 55  1  0  0  0  0
M  END
> <PUBCHEM_COMPOUND_CID>
7144115

> <PUBCHEM_CONFORMER_RMSD>
0.8

> <PUBCHEM_CONFORMER_DIVERSEORDER>
1
6
4
5
8
2
7
3

> <PUBCHEM_MMFF94_PARTIAL_CHARGES>
40
1 1.45
11 0.36
12 0.36
13 0.3
14 -0.03
15 -0.03
16 0.62
17 -0.15
18 -0.14
19 -0.01
2 -0.65
20 0.03
21 -0.15
22 -0.15
23 -0.15
24 -0.15
25 -0.15
26 -0.15
27 -0.15
28 -0.15
29 0.08
3 -0.65
30 -0.15
31 0.28
4 -0.57
42 0.15
43 0.15
44 0.15
45 0.15
46 0.15
47 0.15
48 0.15
49 0.15
5 -0.36
50 0.15
51 0.15
52 0.15
6 -0.85
7 -0.47
9 0.14

> <PUBCHEM_EFFECTIVE_ROTOR_COUNT>
5

> <PUBCHEM_PHARMACOPHORE_FEATURES>
9
1 2 acceptor
1 3 acceptor
1 4 acceptor
1 5 acceptor
6 19 21 22 27 28 30 rings
6 20 23 24 25 26 29 rings
6 6 8 9 10 11 12 rings
6 7 14 15 16 17 18 rings
6 7 8 9 10 13 14 rings

> <PUBCHEM_HEAVY_ATOM_COUNT>
31

> <PUBCHEM_ATOM_DEF_STEREO_COUNT>
2

> <PUBCHEM_ATOM_UDEF_STEREO_COUNT>
0

> <PUBCHEM_BOND_DEF_STEREO_COUNT>
0

> <PUBCHEM_BOND_UDEF_STEREO_COUNT>
0

> <PUBCHEM_ISOTOPIC_ATOM_COUNT>
0

> <PUBCHEM_COMPONENT_COUNT>
1

> <PUBCHEM_CACTVS_TAUTO_COUNT>
1

> <PUBCHEM_CONFORMER_ID>
006D02B300000001

> <PUBCHEM_MMFF94_ENERGY>
88.8913

> <PUBCHEM_FEATURE_SELFOVERLAP>
47.275

> <PUBCHEM_SHAPE_FINGERPRINT>
10928967 22 18261396594023767979
11069576 57 17982157131032726167
114674 6 18189046671831896530
11513181 2 17986394605485279286
12107183 9 18271538490005503777
12156800 1 12595526048392125104
12160290 23 16879325845792691429
12293681 25 18120058823890319876
12633257 1 18199761249551549017
12788726 201 17829893131496217096
12969540 37 18265334087127901500
13103583 49 18058744484942066178
13533116 47 18339083817156512363
13583140 156 17772463749756427921
13690498 29 18043540417021845206
13692114 37 17261305316529496864
14068700 675 18130786755006784203
14863182 85 17685220868639517045
15163728 17 8790875281510448382
17492 89 18268713977577987291
19315092 285 17987519380268373811
19611394 137 18196072363189143874
20028762 73 17837486719749126110
20511986 3 17698715141320864751
20764821 26 17471288457527187987
20771845 35 18129075931703177562
20775438 99 17761161779370991767
20775530 9 18187650154551879434
21285901 2 17243273175425693759
23559900 14 18340198700292632899
23845131 108 17045127053384101920
25222932 49 16981244286029510935
3383291 50 17834382428676775995
3737641 26 18334870398188043274
404807 14 18340487743081509355
4409770 3 17903638475587485500
463206 1 18334020466709632643
484985 159 17907581320248439066
70251023 43 18335984250447961155
7097593 13 18340214084575557753
7288768 16 16477379926520382216

> <PUBCHEM_SHAPE_MULTIPOLES>
608.38
10.07
6.05
1.67
3.38
0.54
0.07
-14.21
0.15
-5.05
0.21
0.58
0.62
0.96

> <PUBCHEM_SHAPE_SELFOVERLAP>
1325.311

> <PUBCHEM_SHAPE_VOLUME>
331

> <PUBCHEM_COORDINATE_TYPE>
2
5
10

$$$$
