25390346
  -OEChem-12032416173D

 52 54  0     1  0  0  0  0  0999 V2000
    1.6317    0.6856   -0.5427 O   0  0  0  0  0  0  0  0  0  0  0  0
    0.6641    3.9797    0.5119 O   0  0  0  0  0  0  0  0  0  0  0  0
    2.7540    3.4380   -1.1932 O   0  0  0  0  0  0  0  0  0  0  0  0
    1.6319   -1.6987    1.2778 O   0  0  0  0  0  0  0  0  0  0  0  0
   -1.0582    0.3688   -1.8528 O   0  0  0  0  0  0  0  0  0  0  0  0
   -2.5396   -0.3528   -0.2152 N   0  0  0  0  0  0  0  0  0  0  0  0
    3.7130   -0.9015    0.5969 N   0  0  0  0  0  0  0  0  0  0  0  0
    3.1608   -3.2518    0.3919 C   0  0  0  0  0  0  0  0  0  0  0  0
    0.6275    1.6820   -0.2815 C   0  0  2  0  0  0  0  0  0  0  0  0
    2.9339    1.2460   -0.2579 C   0  0  1  0  0  0  0  0  0  0  0  0
    1.3003    2.7225    0.5974 C   0  0  1  0  0  0  0  0  0  0  0  0
    2.7094    2.7240    0.0416 C   0  0  2  0  0  0  0  0  0  0  0  0
    2.3045   -4.0117   -0.5781 C   0  0  0  0  0  0  0  0  0  0  0  0
    3.6393   -3.4803   -1.0119 C   0  0  0  0  0  0  0  0  0  0  0  0
   -0.5800    1.0324    0.3706 C   0  0  0  0  0  0  0  0  0  0  0  0
    3.5224    0.4816    0.9201 C   0  0  0  0  0  0  0  0  0  0  0  0
   -5.3546   -0.7420    0.3671 C   0  0  0  0  0  0  0  0  0  0  0  0
    2.7478   -1.8778    0.8040 C   0  0  0  0  0  0  0  0  0  0  0  0
   -4.4309    0.0341    1.3181 C   0  0  0  0  0  0  0  0  0  0  0  0
   -4.8295   -0.6518   -1.0737 C   0  0  0  0  0  0  0  0  0  0  0  0
   -2.9804   -0.4263    1.1826 C   0  0  0  0  0  0  0  0  0  0  0  0
   -3.3723   -1.0996   -1.1596 C   0  0  0  0  0  0  0  0  0  0  0  0
   -1.4076    0.3220   -0.6705 C   0  0  0  0  0  0  0  0  0  0  0  0
   -6.7874   -0.2222    0.4570 C   0  0  0  0  0  0  0  0  0  0  0  0
    0.3556    2.1480   -1.2378 H   0  0  0  0  0  0  0  0  0  0  0  0
    3.6302   -3.8348    1.1780 H   0  0  0  0  0  0  0  0  0  0  0  0
    3.5523    1.0971   -1.1510 H   0  0  0  0  0  0  0  0  0  0  0  0
    1.3064    2.3983    1.6451 H   0  0  0  0  0  0  0  0  0  0  0  0
    3.4434    3.1729    0.7167 H   0  0  0  0  0  0  0  0  0  0  0  0
    1.4194   -3.5331   -0.9793 H   0  0  0  0  0  0  0  0  0  0  0  0
    2.2095   -5.0814   -0.4372 H   0  0  0  0  0  0  0  0  0  0  0  0
    4.4418   -4.1926   -1.1607 H   0  0  0  0  0  0  0  0  0  0  0  0
    3.6414   -2.6539   -1.7121 H   0  0  0  0  0  0  0  0  0  0  0  0
   -1.2098    1.8006    0.8329 H   0  0  0  0  0  0  0  0  0  0  0  0
   -0.2599    0.3085    1.1269 H   0  0  0  0  0  0  0  0  0  0  0  0
    2.8652    0.5390    1.7948 H   0  0  0  0  0  0  0  0  0  0  0  0
    4.4998    0.8916    1.1942 H   0  0  0  0  0  0  0  0  0  0  0  0
   -5.3568   -1.7975    0.6703 H   0  0  0  0  0  0  0  0  0  0  0  0
   -4.4896    1.1073    1.0947 H   0  0  0  0  0  0  0  0  0  0  0  0
   -4.7610   -0.0983    2.3551 H   0  0  0  0  0  0  0  0  0  0  0  0
   -5.4426   -1.2715   -1.7383 H   0  0  0  0  0  0  0  0  0  0  0  0
   -4.9098    0.3831   -1.4311 H   0  0  0  0  0  0  0  0  0  0  0  0
   -2.3517    0.1709    1.8450 H   0  0  0  0  0  0  0  0  0  0  0  0
   -2.8809   -1.4717    1.4984 H   0  0  0  0  0  0  0  0  0  0  0  0
   -3.2817   -2.1626   -0.9065 H   0  0  0  0  0  0  0  0  0  0  0  0
   -3.0079   -0.9755   -2.1842 H   0  0  0  0  0  0  0  0  0  0  0  0
    4.6058   -1.1725    0.1953 H   0  0  0  0  0  0  0  0  0  0  0  0
    1.2111    4.6169    1.0021 H   0  0  0  0  0  0  0  0  0  0  0  0
   -6.8486    0.8316    0.1650 H   0  0  0  0  0  0  0  0  0  0  0  0
   -7.1694   -0.3130    1.4792 H   0  0  0  0  0  0  0  0  0  0  0  0
   -7.4496   -0.7948   -0.2009 H   0  0  0  0  0  0  0  0  0  0  0  0
    3.6647    3.3805   -1.5293 H   0  0  0  0  0  0  0  0  0  0  0  0
  1  9  1  0  0  0  0
  1 10  1  0  0  0  0
  2 11  1  0  0  0  0
  2 48  1  0  0  0  0
  3 12  1  0  0  0  0
  3 52  1  0  0  0  0
  4 18  2  0  0  0  0
  5 23  2  0  0  0  0
  6 21  1  0  0  0  0
  6 22  1  0  0  0  0
  6 23  1  0  0  0  0
  7 16  1  0  0  0  0
  7 18  1  0  0  0  0
  7 47  1  0  0  0  0
  8 13  1  0  0  0  0
  8 14  1  0  0  0  0
  8 18  1  0  0  0  0
  8 26  1  0  0  0  0
  9 11  1  0  0  0  0
  9 15  1  0  0  0  0
  9 25  1  0  0  0  0
 10 12  1  0  0  0  0
 10 16  1  0  0  0  0
 10 27  1  0  0  0  0
 11 12  1  0  0  0  0
 11 28  1  0  0  0  0
 12 29  1  0  0  0  0
 13 14  1  0  0  0  0
 13 30  1  0  0  0  0
 13 31  1  0  0  0  0
 14 32  1  0  0  0  0
 14 33  1  0  0  0  0
 15 23  1  0  0  0  0
 15 34  1  0  0  0  0
 15 35  1  0  0  0  0
 16 36  1  0  0  0  0
 16 37  1  0  0  0  0
 17 19  1  0  0  0  0
 17 20  1  0  0  0  0
 17 24  1  0  0  0  0
 17 38  1  0  0  0  0
 19 21  1  0  0  0  0
 19 39  1  0  0  0  0
 19 40  1  0  0  0  0
 20 22  1  0  0  0  0
 20 41  1  0  0  0  0
 20 42  1  0  0  0  0
 21 43  1  0  0  0  0
 21 44  1  0  0  0  0
 22 45  1  0  0  0  0
 22 46  1  0  0  0  0
 24 49  1  0  0  0  0
 24 50  1  0  0  0  0
 24 51  1  0  0  0  0
M  END
> <PUBCHEM_COMPOUND_CID>
25390346

> <PUBCHEM_CONFORMER_RMSD>
1

> <PUBCHEM_CONFORMER_DIVERSEORDER>
1
118
33
140
24
64
91
105
124
10
109
41
143
123
135
98
148
73
19
59
63
58
81
18
101
61
141
122
82
49
75
120
9
32
134
115
132
44
20
110
92
83
99
96
108
76
138
22
45
30
85
12
74
111
37
90
60
46
6
78
137
34
127
106
47
103
136
66
69
29
104
93
125
130
38
113
43
139
14
21
128
67
62
70
86
48
2
40
65
71
94
119
107
112
102
3
31
42
117
145
147
17
28
80
68
144
95
133
53
15
52
55
5
4
89
51
146
77
97
116
84
26
50
16
39
56
35
121
114
8
7
126
129
54
57
131
87
142
11
100
36
27
23
88
25
13
79
72

> <PUBCHEM_MMFF94_PARTIAL_CHARGES>
28
1 -0.56
10 0.28
11 0.28
12 0.28
13 -0.2
14 -0.2
15 0.06
16 0.3
18 0.63
2 -0.68
21 0.3
22 0.3
23 0.57
26 0.1
3 -0.68
30 0.1
31 0.1
32 0.1
33 0.1
4 -0.57
47 0.37
48 0.4
5 -0.57
52 0.4
6 -0.66
7 -0.73
8 -0.1
9 0.28

> <PUBCHEM_EFFECTIVE_ROTOR_COUNT>
9.8

> <PUBCHEM_PHARMACOPHORE_FEATURES>
10
1 1 acceptor
1 2 acceptor
1 2 donor
1 3 acceptor
1 3 donor
1 4 acceptor
1 5 acceptor
1 7 donor
5 1 9 10 11 12 rings
6 6 17 19 20 21 22 rings

> <PUBCHEM_HEAVY_ATOM_COUNT>
24

> <PUBCHEM_ATOM_DEF_STEREO_COUNT>
4

> <PUBCHEM_ATOM_UDEF_STEREO_COUNT>
0

> <PUBCHEM_BOND_DEF_STEREO_COUNT>
0

> <PUBCHEM_BOND_UDEF_STEREO_COUNT>
0

> <PUBCHEM_ISOTOPIC_ATOM_COUNT>
0

> <PUBCHEM_COMPONENT_COUNT>
1

> <PUBCHEM_CACTVS_TAUTO_COUNT>
2

> <PUBCHEM_CONFORMER_ID>
01836D0A00000001

> <PUBCHEM_MMFF94_ENERGY>
48.3782

> <PUBCHEM_FEATURE_SELFOVERLAP>
50.761

> <PUBCHEM_SHAPE_FINGERPRINT>
114674 6 18187364311625389290
12107183 9 18054520106209250601
12553582 1 18340198601397868622
12596602 18 17346310565758636195
13533116 47 18411703205896318867
13583140 156 18195538219211493937
1361 2 18412543206631198195
13785724 45 18127423250063310647
14251764 30 17628366974100382358
14863182 85 18410007754687261910
14866123 147 17331396472232819619
15142526 21 17553191512397949873
15250474 111 18128242588427434319
15422964 175 18338227151337088328
15635459 17 18259982652250893178
15848702 151 18409164386023763859
17349148 13 17346875646559122621
17818456 19 17773042955965762881
1813 80 18199756838335812391
1979834 28 18342165670649600834
20511986 3 17631439224209567305
20645477 70 18261385689248541069
20775530 9 18196360430049057334
21197605 99 17973731573429247579
21279426 13 18116706327903054437
21285901 2 17748819722330548541
21344244 78 18200865206481071953
21421861 104 18341902874158384893
22033318 11 17913241714194745593
2255824 54 18266176317409366476
23466295 7 17333658176579361838
23559900 14 18041842942882957701
239999 70 17894628188314536440
3117164 225 18127137364350327033
3421961 26 18411699850841272674
345986 75 18130221545493805827
3737641 26 18199751337178986406
460360 51 18339084774791931349
5309563 4 18195809565817323311
57527585 21 15000834354658381286
59682541 52 18195217054594943447
6443956 14 18336543807213473798
7097593 13 18343581837056525093
8272917 22 18336548316992613453

> <PUBCHEM_SHAPE_MULTIPOLES>
454.6
11.11
4.58
1.28
18.99
0.21
-0.14
5.57
1.28
-8.59
-0.65
0.44
0.17
-0.3

> <PUBCHEM_SHAPE_SELFOVERLAP>
931.288

> <PUBCHEM_SHAPE_VOLUME>
262.1

> <PUBCHEM_COORDINATE_TYPE>
2
5
10

$$$$
