51137502
  -OEChem-12032416203D

 49 53  0     1  0  0  0  0  0999 V2000
    2.1527   -0.9759    0.1972 O   0  0  0  0  0  0  0  0  0  0  0  0
   -6.2793    2.4436    0.8462 O   0  0  0  0  0  0  0  0  0  0  0  0
   -7.8946    0.7633    0.2336 O   0  0  0  0  0  0  0  0  0  0  0  0
    7.1101    2.8921   -0.1964 O   0  0  0  0  0  0  0  0  0  0  0  0
   -1.8744   -1.0424   -0.2879 N   0  0  1  0  0  0  0  0  0  0  0  0
    2.4093   -3.1977    0.2447 N   0  0  0  0  0  0  0  0  0  0  0  0
    3.6642   -2.6245    0.1574 N   0  0  0  0  0  0  0  0  0  0  0  0
    0.0497   -2.2208    0.3513 C   0  0  2  0  0  0  0  0  0  0  0  0
   -0.6283   -1.5604   -0.8567 C   0  0  0  0  0  0  0  0  0  0  0  0
   -0.5389   -1.4947    1.5734 C   0  0  0  0  0  0  0  0  0  0  0  0
   -1.4875   -0.4533    0.9940 C   0  0  0  0  0  0  0  0  0  0  0  0
   -2.5278   -0.0817   -1.1646 C   0  0  0  0  0  0  0  0  0  0  0  0
    1.5584   -2.1986    0.2652 C   0  0  0  0  0  0  0  0  0  0  0  0
   -3.9767    0.1115   -0.8037 C   0  0  0  0  0  0  0  0  0  0  0  0
   -4.3732    1.2634   -0.1199 C   0  0  0  0  0  0  0  0  0  0  0  0
   -4.9191   -0.8688   -1.1609 C   0  0  0  0  0  0  0  0  0  0  0  0
    3.4660   -1.3272    0.1323 C   0  0  0  0  0  0  0  0  0  0  0  0
   -5.7118    1.3970    0.1869 C   0  0  0  0  0  0  0  0  0  0  0  0
   -6.2688   -0.7087   -0.8384 C   0  0  0  0  0  0  0  0  0  0  0  0
   -6.6342    0.4374   -0.1628 C   0  0  0  0  0  0  0  0  0  0  0  0
    4.4019   -0.2438    0.0491 C   0  0  0  0  0  0  0  0  0  0  0  0
   -7.6624    2.0354    0.8719 C   0  0  0  0  0  0  0  0  0  0  0  0
    5.7699   -0.5075   -0.0208 C   0  0  0  0  0  0  0  0  0  0  0  0
    3.9442    1.0738    0.0371 C   0  0  0  0  0  0  0  0  0  0  0  0
    6.6801    0.5462   -0.1022 C   0  0  0  0  0  0  0  0  0  0  0  0
    4.8544    2.1276   -0.0443 C   0  0  0  0  0  0  0  0  0  0  0  0
    6.2223    1.8638   -0.1140 C   0  0  0  0  0  0  0  0  0  0  0  0
    8.4938    2.5508   -0.2678 C   0  0  0  0  0  0  0  0  0  0  0  0
   -0.2610   -3.2736    0.4025 H   0  0  0  0  0  0  0  0  0  0  0  0
   -0.0133   -0.7522   -1.2743 H   0  0  0  0  0  0  0  0  0  0  0  0
   -0.8188   -2.2899   -1.6514 H   0  0  0  0  0  0  0  0  0  0  0  0
   -1.0984   -2.2123    2.1866 H   0  0  0  0  0  0  0  0  0  0  0  0
    0.2195   -1.0318    2.2138 H   0  0  0  0  0  0  0  0  0  0  0  0
   -0.9546    0.4976    0.8645 H   0  0  0  0  0  0  0  0  0  0  0  0
   -2.3419   -0.2887    1.6578 H   0  0  0  0  0  0  0  0  0  0  0  0
   -1.9978    0.8801   -1.1922 H   0  0  0  0  0  0  0  0  0  0  0  0
   -2.5068   -0.4491   -2.2005 H   0  0  0  0  0  0  0  0  0  0  0  0
   -3.6591    2.0288    0.1642 H   0  0  0  0  0  0  0  0  0  0  0  0
   -4.6054   -1.7634   -1.6935 H   0  0  0  0  0  0  0  0  0  0  0  0
   -6.9985   -1.4623   -1.1120 H   0  0  0  0  0  0  0  0  0  0  0  0
   -7.9893    1.9691    1.9160 H   0  0  0  0  0  0  0  0  0  0  0  0
   -8.2628    2.7982    0.3629 H   0  0  0  0  0  0  0  0  0  0  0  0
    6.1481   -1.5271   -0.0132 H   0  0  0  0  0  0  0  0  0  0  0  0
    2.8864    1.3192    0.0896 H   0  0  0  0  0  0  0  0  0  0  0  0
    7.7279    0.2705   -0.1538 H   0  0  0  0  0  0  0  0  0  0  0  0
    4.4923    3.1521   -0.0538 H   0  0  0  0  0  0  0  0  0  0  0  0
    8.8287    2.0364    0.6393 H   0  0  0  0  0  0  0  0  0  0  0  0
    8.7217    1.9822   -1.1758 H   0  0  0  0  0  0  0  0  0  0  0  0
    9.0552    3.4889   -0.3289 H   0  0  0  0  0  0  0  0  0  0  0  0
  1 13  1  0  0  0  0
  1 17  1  0  0  0  0
  2 18  1  0  0  0  0
  2 22  1  0  0  0  0
  3 20  1  0  0  0  0
  3 22  1  0  0  0  0
  4 27  1  0  0  0  0
  4 28  1  0  0  0  0
  5  9  1  0  0  0  0
  5 11  1  0  0  0  0
  5 12  1  0  0  0  0
  6  7  1  0  0  0  0
  6 13  2  0  0  0  0
  7 17  2  0  0  0  0
  8  9  1  0  0  0  0
  8 10  1  0  0  0  0
  8 13  1  0  0  0  0
  8 29  1  0  0  0  0
  9 30  1  0  0  0  0
  9 31  1  0  0  0  0
 10 11  1  0  0  0  0
 10 32  1  0  0  0  0
 10 33  1  0  0  0  0
 11 34  1  0  0  0  0
 11 35  1  0  0  0  0
 12 14  1  0  0  0  0
 12 36  1  0  0  0  0
 12 37  1  0  0  0  0
 14 15  2  0  0  0  0
 14 16  1  0  0  0  0
 15 18  1  0  0  0  0
 15 38  1  0  0  0  0
 16 19  2  0  0  0  0
 16 39  1  0  0  0  0
 17 21  1  0  0  0  0
 18 20  2  0  0  0  0
 19 20  1  0  0  0  0
 19 40  1  0  0  0  0
 21 23  2  0  0  0  0
 21 24  1  0  0  0  0
 22 41  1  0  0  0  0
 22 42  1  0  0  0  0
 23 25  1  0  0  0  0
 23 43  1  0  0  0  0
 24 26  2  0  0  0  0
 24 44  1  0  0  0  0
 25 27  2  0  0  0  0
 25 45  1  0  0  0  0
 26 27  1  0  0  0  0
 26 46  1  0  0  0  0
 28 47  1  0  0  0  0
 28 48  1  0  0  0  0
 28 49  1  0  0  0  0
M  END
> <PUBCHEM_COMPOUND_CID>
51137502

> <PUBCHEM_CONFORMER_RMSD>
0.8

> <PUBCHEM_CONFORMER_DIVERSEORDER>
1
126
17
156
86
162
102
128
183
152
5
123
50
106
127
154
174
20
26
131
76
130
134
97
34
105
180
32
149
146
2
118
145
107
75
163
160
116
90
33
48
95
25
133
82
69
83
110
124
143
92
138
171
30
67
182
91
3
158
132
111
161
115
65
178
56
165
104
135
15
113
35
22
41
103
140
52
100
77
8
122
136
57
185
28
53
125
68
13
55
87
85
153
51
31
27
119
98
147
37
187
21
45
120
74
4
99
60
177
173
93
112
164
23
101
24
36
109
172
29
151
12
181
38
117
9
54
72
137
73
59
40
129
62
14
44
179
49
141
46
114
6
11
39
159
7
61
88
184
80
66
96
121
167
16
166
144
58
70
19
71
89
150
64
168
43
155
169
170
139
176
175
42
78
47
186
94
84
18
79
188
108
81
148
63
10
157
142

> <PUBCHEM_MMFF94_PARTIAL_CHARGES>
34
1 -0.28
11 0.27
12 0.41
13 0.3
14 -0.14
15 -0.15
16 -0.15
17 0.43
18 0.08
19 -0.15
2 -0.36
20 0.08
21 0.05
22 0.56
23 -0.15
24 -0.15
25 -0.15
26 -0.15
27 0.08
28 0.28
3 -0.36
38 0.15
39 0.15
4 -0.36
40 0.15
43 0.15
44 0.15
45 0.15
46 0.15
5 -0.81
6 -0.34
7 -0.34
8 0.18
9 0.27

> <PUBCHEM_EFFECTIVE_ROTOR_COUNT>
6.6

> <PUBCHEM_PHARMACOPHORE_FEATURES>
9
1 2 acceptor
1 3 acceptor
1 4 acceptor
1 5 cation
5 1 6 7 13 17 rings
5 2 3 18 20 22 rings
5 5 8 9 10 11 rings
6 14 15 16 18 19 20 rings
6 21 23 24 25 26 27 rings

> <PUBCHEM_HEAVY_ATOM_COUNT>
28

> <PUBCHEM_ATOM_DEF_STEREO_COUNT>
1

> <PUBCHEM_ATOM_UDEF_STEREO_COUNT>
0

> <PUBCHEM_BOND_DEF_STEREO_COUNT>
0

> <PUBCHEM_BOND_UDEF_STEREO_COUNT>
0

> <PUBCHEM_ISOTOPIC_ATOM_COUNT>
0

> <PUBCHEM_COMPONENT_COUNT>
1

> <PUBCHEM_CACTVS_TAUTO_COUNT>
1

> <PUBCHEM_CONFORMER_ID>
030C4BDE00000001

> <PUBCHEM_MMFF94_ENERGY>
71.317

> <PUBCHEM_FEATURE_SELFOVERLAP>
45.829

> <PUBCHEM_SHAPE_FINGERPRINT>
10 15 17603586330765570737
10074138 170 16081661087763207987
10319688 67 16226051110732745177
10411042 1 17833266425378104970
10595046 47 18341325631113270655
10673678 19 18272373065874330190
10838868 160 18341602750729743560
11273773 42 18341609351935520557
11408170 253 17630331831686745057
11646440 116 17240203218127183684
1200032 147 18259985998789403144
12035758 1 16660366982696623415
12788726 201 17274825701456827907
12821665 9 18411979200500333271
12895837 130 18269556207583853636
13248334 5 18266177219727896018
13540713 4 18263383489567516802
13690498 29 17416392380942507119
13911852 28 9583524217421987546
13955234 65 17823691958561817930
14394314 77 18412549786774498049
14565420 104 18113335284770152794
14849402 71 18410576210530787529
14931854 50 17917441951538985656
14933364 13 18413108334190229255
15064981 194 18193008233986095662
15183329 4 17203613683279272409
15188451 53 11674877792565875055
15276724 80 18338232636195461701
15419008 145 18116420446195037032
15685185 35 18337676446278139688
1577012 14 18342452651420573460
15840311 113 18337958870821827277
16126227 98 18409730702709091215
16989713 51 16701162244928197519
16994733 274 18411696569776415937
1768 4 18335708264629508289
17899979 129 18342463621479652318
18393751 57 17676205783798673923
19302320 297 18113619032396745732
19438510 23 18187079598680446946
20157964 124 18410293575770248346
2026 5 9367345925572752793
20691028 202 18192993949326646604
21033648 144 18259976077088447575
21033648 29 18191297377225285336
21298829 104 18411139164663008244
21304303 64 18334011705134227405
21307412 95 13110959855558548613
21521721 280 18335423435515558659
21585482 111 18335419007009189869
21641784 216 16343426098975441299
22224240 67 17675925387618260571
23522609 53 17845945013957332329
23729398 52 18191309265764482002
24771293 8 18187364354463850885
25269216 80 16987988531408071455
2747138 104 17458921344696462553
2838139 119 18334003974329965350
306946 40 17168130219307635901
34797466 226 18202005378817797127
397830 11 18114194038180442219
4073 2 18334016107665908843
4093350 32 17846500318752909206
4107672 100 17346032381096243927
4169191 19 18410851037124698381
4339292 15 12751252385439870564
4366758 26 18411990173462331792
437815 12 11240000061792288307
445580 126 18410565181154251554
474113 269 7853576782092560473
5080951 261 16515686697927848163
5104073 3 17966967227127949411
5265222 85 18131349739568104567
5385378 56 18259980462508382730
543368 44 18410290312021864727
5470011 282 14692574377500415048
5718773 13 9439407925877055780
57303763 176 18058176038644263880
5758199 1 18335139799526251855
5776283 40 18270681003927785880
5911458 16 18201725033264660193
59682541 35 17676493856694022721
6328613 192 18271805675847702617
6608658 132 17203060581854640801
6691757 9 15502372386888911995
9689198 14 18343589542227867357
9980921 177 18189597442376288584

> <PUBCHEM_SHAPE_MULTIPOLES>
537.81
24.86
3.16
0.98
1.69
0.03
0.05
-23.76
-0.69
-3.81
0.44
1.11
0.15
-1.85

> <PUBCHEM_SHAPE_SELFOVERLAP>
1188.302

> <PUBCHEM_SHAPE_VOLUME>
291.7

> <PUBCHEM_COORDINATE_TYPE>
2
5
10

$$$$
