7144193
  -OEChem-12032416193D

 54 57  0     1  0  0  0  0  0999 V2000
    6.4899   -2.5928   -1.1090 F   0  0  0  0  0  0  0  0  0  0  0  0
    5.1833   -0.9335   -1.6707 F   0  0  0  0  0  0  0  0  0  0  0  0
    6.8888   -0.6002   -0.3052 F   0  0  0  0  0  0  0  0  0  0  0  0
   -2.8538    3.5450    2.1216 O   0  0  0  0  0  0  0  0  0  0  0  0
   -4.1791   -0.0566   -1.4863 O   0  0  0  0  0  0  0  0  0  0  0  0
   -3.5932   -2.2656   -0.4059 O   0  0  0  0  0  0  0  0  0  0  0  0
    5.0795   -1.7763    0.4527 O   0  0  0  0  0  0  0  0  0  0  0  0
   -4.1728   -5.4520    1.1364 O   0  0  0  0  0  0  0  0  0  0  0  0
   -5.6374   -3.8421    0.4650 O   0  0  0  0  0  0  0  0  0  0  0  0
   -1.9976    0.6535   -1.8524 N   0  0  0  0  0  0  0  0  0  0  0  0
   -1.3735    2.6629    0.5351 N   0  0  0  0  0  0  0  0  0  0  0  0
   -1.6659    3.1191   -1.9706 C   0  0  1  0  0  0  0  0  0  0  0  0
    0.1702    1.6832   -1.1907 C   0  0  2  0  0  0  0  0  0  0  0  0
   -0.1610    2.9113   -2.0367 C   0  0  0  0  0  0  0  0  0  0  0  0
   -2.4115    1.8898   -2.5157 C   0  0  0  0  0  0  0  0  0  0  0  0
   -2.0508    3.4255   -0.5228 C   0  0  0  0  0  0  0  0  0  0  0  0
   -0.5453    0.4479   -1.7768 C   0  0  0  0  0  0  0  0  0  0  0  0
   -0.2304    1.8815    0.2738 C   0  0  0  0  0  0  0  0  0  0  0  0
    0.4524    1.3164    1.3035 C   0  0  0  0  0  0  0  0  0  0  0  0
   -1.8697    2.8625    1.8358 C   0  0  0  0  0  0  0  0  0  0  0  0
   -2.9630   -0.2516   -1.4122 C   0  0  0  0  0  0  0  0  0  0  0  0
   -0.0319    1.4975    2.6588 C   0  0  0  0  0  0  0  0  0  0  0  0
   -1.1266    2.2058    2.9349 C   0  0  0  0  0  0  0  0  0  0  0  0
    1.6683    0.5038    1.0799 C   0  0  0  0  0  0  0  0  0  0  0  0
   -2.4583   -1.5357   -0.8041 C   0  0  0  0  0  0  0  0  0  0  0  0
    1.5589   -0.8698    0.8629 C   0  0  0  0  0  0  0  0  0  0  0  0
    2.9240    1.1111    1.0860 C   0  0  0  0  0  0  0  0  0  0  0  0
    2.7052   -1.6361    0.6521 C   0  0  0  0  0  0  0  0  0  0  0  0
    4.0703    0.3449    0.8753 C   0  0  0  0  0  0  0  0  0  0  0  0
    3.9609   -1.0286    0.6583 C   0  0  0  0  0  0  0  0  0  0  0  0
   -3.2455   -3.5139    0.1906 C   0  0  0  0  0  0  0  0  0  0  0  0
   -4.4928   -4.2494    0.5957 C   0  0  0  0  0  0  0  0  0  0  0  0
    5.9081   -1.4575   -0.6596 C   0  0  0  0  0  0  0  0  0  0  0  0
   -1.9465    3.9783   -2.5922 H   0  0  0  0  0  0  0  0  0  0  0  0
    1.2510    1.5241   -1.2768 H   0  0  0  0  0  0  0  0  0  0  0  0
    0.1586    2.7591   -3.0749 H   0  0  0  0  0  0  0  0  0  0  0  0
    0.3707    3.7956   -1.6637 H   0  0  0  0  0  0  0  0  0  0  0  0
   -3.4936    2.0340   -2.4286 H   0  0  0  0  0  0  0  0  0  0  0  0
   -2.1908    1.7640   -3.5829 H   0  0  0  0  0  0  0  0  0  0  0  0
   -1.8203    4.4801   -0.3170 H   0  0  0  0  0  0  0  0  0  0  0  0
   -3.1353    3.3252   -0.3876 H   0  0  0  0  0  0  0  0  0  0  0  0
   -0.2010    0.2731   -2.8040 H   0  0  0  0  0  0  0  0  0  0  0  0
   -0.2966   -0.4503   -1.2132 H   0  0  0  0  0  0  0  0  0  0  0  0
    0.5168    1.0250    3.4683 H   0  0  0  0  0  0  0  0  0  0  0  0
   -1.4844    2.3310    3.9499 H   0  0  0  0  0  0  0  0  0  0  0  0
   -1.8876   -2.0962   -1.5515 H   0  0  0  0  0  0  0  0  0  0  0  0
   -1.8451   -1.3067    0.0730 H   0  0  0  0  0  0  0  0  0  0  0  0
    0.5896   -1.3614    0.8657 H   0  0  0  0  0  0  0  0  0  0  0  0
    3.0253    2.1805    1.2546 H   0  0  0  0  0  0  0  0  0  0  0  0
    2.6139   -2.7059    0.4854 H   0  0  0  0  0  0  0  0  0  0  0  0
    5.0425    0.8296    0.8894 H   0  0  0  0  0  0  0  0  0  0  0  0
   -2.6381   -3.3350    1.0840 H   0  0  0  0  0  0  0  0  0  0  0  0
   -2.6986   -4.1238   -0.5362 H   0  0  0  0  0  0  0  0  0  0  0  0
   -4.9700   -5.9543    1.4097 H   0  0  0  0  0  0  0  0  0  0  0  0
  1 33  1  0  0  0  0
  2 33  1  0  0  0  0
  3 33  1  0  0  0  0
  4 20  2  0  0  0  0
  5 21  2  0  0  0  0
  6 25  1  0  0  0  0
  6 31  1  0  0  0  0
  7 30  1  0  0  0  0
  7 33  1  0  0  0  0
  8 32  1  0  0  0  0
  8 54  1  0  0  0  0
  9 32  2  0  0  0  0
 10 15  1  0  0  0  0
 10 17  1  0  0  0  0
 10 21  1  0  0  0  0
 11 16  1  0  0  0  0
 11 18  1  0  0  0  0
 11 20  1  0  0  0  0
 12 14  1  0  0  0  0
 12 15  1  0  0  0  0
 12 16  1  0  0  0  0
 12 34  1  0  0  0  0
 13 14  1  0  0  0  0
 13 17  1  0  0  0  0
 13 18  1  0  0  0  0
 13 35  1  0  0  0  0
 14 36  1  0  0  0  0
 14 37  1  0  0  0  0
 15 38  1  0  0  0  0
 15 39  1  0  0  0  0
 16 40  1  0  0  0  0
 16 41  1  0  0  0  0
 17 42  1  0  0  0  0
 17 43  1  0  0  0  0
 18 19  2  0  0  0  0
 19 22  1  0  0  0  0
 19 24  1  0  0  0  0
 20 23  1  0  0  0  0
 21 25  1  0  0  0  0
 22 23  2  0  0  0  0
 22 44  1  0  0  0  0
 23 45  1  0  0  0  0
 24 26  2  0  0  0  0
 24 27  1  0  0  0  0
 25 46  1  0  0  0  0
 25 47  1  0  0  0  0
 26 28  1  0  0  0  0
 26 48  1  0  0  0  0
 27 29  2  0  0  0  0
 27 49  1  0  0  0  0
 28 30  2  0  0  0  0
 28 50  1  0  0  0  0
 29 30  1  0  0  0  0
 29 51  1  0  0  0  0
 31 32  1  0  0  0  0
 31 52  1  0  0  0  0
 31 53  1  0  0  0  0
M  END
> <PUBCHEM_COMPOUND_CID>
7144193

> <PUBCHEM_CONFORMER_RMSD>
1

> <PUBCHEM_CONFORMER_DIVERSEORDER>
1
8
19
13
14
18
7
6
5
9
16
4
3
10
15
12
2
17
11

> <PUBCHEM_MMFF94_PARTIAL_CHARGES>
38
1 -0.34
10 -0.66
11 -0.47
13 0.14
15 0.3
16 0.3
17 0.3
18 -0.03
19 -0.03
2 -0.34
20 0.62
21 0.57
22 -0.15
23 -0.14
24 0.03
25 0.34
26 -0.15
27 -0.15
28 -0.15
29 -0.15
3 -0.34
30 0.08
31 0.34
32 0.66
33 1.3
4 -0.57
44 0.15
45 0.15
48 0.15
49 0.15
5 -0.57
50 0.15
51 0.15
54 0.5
6 -0.56
7 -0.36
8 -0.65
9 -0.57

> <PUBCHEM_EFFECTIVE_ROTOR_COUNT>
9

> <PUBCHEM_PHARMACOPHORE_FEATURES>
11
1 4 acceptor
1 5 acceptor
1 6 acceptor
1 7 acceptor
1 8 acceptor
1 9 acceptor
3 8 9 32 anion
6 10 12 13 14 15 17 rings
6 11 12 13 14 16 18 rings
6 11 18 19 20 22 23 rings
6 24 26 27 28 29 30 rings

> <PUBCHEM_HEAVY_ATOM_COUNT>
33

> <PUBCHEM_ATOM_DEF_STEREO_COUNT>
2

> <PUBCHEM_ATOM_UDEF_STEREO_COUNT>
0

> <PUBCHEM_BOND_DEF_STEREO_COUNT>
0

> <PUBCHEM_BOND_UDEF_STEREO_COUNT>
0

> <PUBCHEM_ISOTOPIC_ATOM_COUNT>
0

> <PUBCHEM_COMPONENT_COUNT>
1

> <PUBCHEM_CACTVS_TAUTO_COUNT>
1

> <PUBCHEM_CONFORMER_ID>
006D030100000001

> <PUBCHEM_MMFF94_ENERGY>
89.858

> <PUBCHEM_FEATURE_SELFOVERLAP>
57.468

> <PUBCHEM_SHAPE_FINGERPRINT>
10764073 3 12677255277462961232
107951 10 17556582045575410789
11387372 6 17914633664948735638
12156800 1 17770261298620536429
12422481 6 15482132521099717943
13135754 10 17845672368547223274
13150687 139 8069767185892845914
13383661 66 18337961206841860226
14251764 30 18338802328625233614
150020 26 17980758556690025787
17909252 39 17972596859927259540
18603816 31 18049167675079203610
20587220 46 17107921249548245915
20771845 140 17109870696516928401
20771845 171 16602341085860831173
20775530 9 18264193880828174171
21716022 299 17827091893548712853
23466295 7 18410291389341465003
3380486 145 17629172065286460854
3737641 26 18196927983969640442
4058900 60 17407682809408910769
437815 12 18270953652867417783
469060 322 18187089438091916370
484985 159 18340488846402444259
4921388 177 18199183997547163388
497634 4 18341894044286217700
50150288 127 17058656149021904907
57816373 69 17913212250292592807
58260988 114 18201451229104613786
5895379 119 12500743477806961498
59755656 520 17912649003600487456
621550 5 18266734865047397459
6287921 2 17399504019599374955
6823239 73 17099719889526930515
9862522 239 11170204094352673712

> <PUBCHEM_SHAPE_MULTIPOLES>
612.13
11.1
5.81
2.59
16.8
5.4
-0.49
16.03
2.54
-10.4
-1.36
-1.24
-2.55
1.9

> <PUBCHEM_SHAPE_SELFOVERLAP>
1325.251

> <PUBCHEM_SHAPE_VOLUME>
333

> <PUBCHEM_COORDINATE_TYPE>
2
5
10

$$$$
