11884381
  -OEChem-12032416113D

 54 57  0     1  0  0  0  0  0999 V2000
    0.6209    1.3751   -2.2461 O   0  0  0  0  0  0  0  0  0  0  0  0
    2.5384   -2.3761    1.4272 O   0  0  0  0  0  0  0  0  0  0  0  0
    2.8723   -4.4322    0.3202 O   0  0  0  0  0  0  0  0  0  0  0  0
    4.5788   -3.5752   -0.9607 O   0  0  0  0  0  0  0  0  0  0  0  0
   -2.2648    1.5118    1.6396 O   0  0  0  0  0  0  0  0  0  0  0  0
   -7.0349   -2.4258   -0.3420 O   0  0  0  0  0  0  0  0  0  0  0  0
    2.3415    1.3733   -0.6649 N   0  0  0  0  0  0  0  0  0  0  0  0
    4.1695   -1.0506    0.4056 N   0  0  0  0  0  0  0  0  0  0  0  0
   -1.2835    2.0789   -0.3946 N   0  0  0  0  0  0  0  0  0  0  0  0
    4.7528    0.7408   -1.2431 C   0  0  2  0  0  0  0  0  0  0  0  0
    4.1725    1.3509    1.0654 C   0  0  2  0  0  0  0  0  0  0  0  0
    5.1271    1.6575   -0.0857 C   0  0  0  0  0  0  0  0  0  0  0  0
    3.3333    1.0864   -1.7091 C   0  0  0  0  0  0  0  0  0  0  0  0
    4.8808   -0.7387   -0.8356 C   0  0  0  0  0  0  0  0  0  0  0  0
    4.3644   -0.1091    1.5112 C   0  0  0  0  0  0  0  0  0  0  0  0
    2.7288    1.5830    0.6620 C   0  0  0  0  0  0  0  0  0  0  0  0
    1.8219    1.9612    1.5785 C   0  0  0  0  0  0  0  0  0  0  0  0
    1.0056    1.5314   -1.0864 C   0  0  0  0  0  0  0  0  0  0  0  0
    3.4500   -2.2203    0.6234 C   0  0  0  0  0  0  0  0  0  0  0  0
    0.0219    1.9292   -0.0299 C   0  0  0  0  0  0  0  0  0  0  0  0
    0.4418    2.1356    1.2227 C   0  0  0  0  0  0  0  0  0  0  0  0
    3.7139   -3.4842   -0.1125 C   0  0  0  0  0  0  0  0  0  0  0  0
   -2.3539    1.8600    0.4646 C   0  0  0  0  0  0  0  0  0  0  0  0
   -3.6791    2.1084   -0.2321 C   0  0  0  0  0  0  0  0  0  0  0  0
   -4.5745    0.8978   -0.2613 C   0  0  0  0  0  0  0  0  0  0  0  0
   -4.4915    0.0126   -1.3263 C   0  0  0  0  0  0  0  0  0  0  0  0
   -5.4701    0.6863    0.7774 C   0  0  0  0  0  0  0  0  0  0  0  0
   -5.3217   -1.1081   -1.3535 C   0  0  0  0  0  0  0  0  0  0  0  0
   -6.3001   -0.4343    0.7502 C   0  0  0  0  0  0  0  0  0  0  0  0
   -6.2259   -1.3315   -0.3151 C   0  0  0  0  0  0  0  0  0  0  0  0
   -7.9362   -2.5940    0.7511 C   0  0  0  0  0  0  0  0  0  0  0  0
    5.4373    0.9111   -2.0834 H   0  0  0  0  0  0  0  0  0  0  0  0
    4.4300    2.0065    1.9076 H   0  0  0  0  0  0  0  0  0  0  0  0
    6.1663    1.4847    0.2194 H   0  0  0  0  0  0  0  0  0  0  0  0
    5.0506    2.7102   -0.3855 H   0  0  0  0  0  0  0  0  0  0  0  0
    2.9380    0.2968   -2.3605 H   0  0  0  0  0  0  0  0  0  0  0  0
    3.3787    1.9923   -2.3292 H   0  0  0  0  0  0  0  0  0  0  0  0
    4.5075   -1.3616   -1.6528 H   0  0  0  0  0  0  0  0  0  0  0  0
    5.9345   -0.9932   -0.6710 H   0  0  0  0  0  0  0  0  0  0  0  0
    5.3885   -0.2586    1.8756 H   0  0  0  0  0  0  0  0  0  0  0  0
    3.6940   -0.3595    2.3416 H   0  0  0  0  0  0  0  0  0  0  0  0
    2.0966    2.1238    2.6156 H   0  0  0  0  0  0  0  0  0  0  0  0
   -0.1978    2.4785    2.0272 H   0  0  0  0  0  0  0  0  0  0  0  0
   -1.4693    2.1315   -1.3930 H   0  0  0  0  0  0  0  0  0  0  0  0
    3.0105   -5.2890   -0.1371 H   0  0  0  0  0  0  0  0  0  0  0  0
   -3.5326    2.4793   -1.2541 H   0  0  0  0  0  0  0  0  0  0  0  0
   -4.1756    2.9303    0.3002 H   0  0  0  0  0  0  0  0  0  0  0  0
   -3.7890    0.1771   -2.1385 H   0  0  0  0  0  0  0  0  0  0  0  0
   -5.5337    1.3788    1.6121 H   0  0  0  0  0  0  0  0  0  0  0  0
   -5.2589   -1.8038   -2.1857 H   0  0  0  0  0  0  0  0  0  0  0  0
   -6.9786   -0.5476    1.5888 H   0  0  0  0  0  0  0  0  0  0  0  0
   -8.6634   -1.7766    0.8025 H   0  0  0  0  0  0  0  0  0  0  0  0
   -8.5013   -3.5133    0.5657 H   0  0  0  0  0  0  0  0  0  0  0  0
   -7.4008   -2.7330    1.6964 H   0  0  0  0  0  0  0  0  0  0  0  0
  1 18  2  0  0  0  0
  2 19  2  0  0  0  0
  3 22  1  0  0  0  0
  3 45  1  0  0  0  0
  4 22  2  0  0  0  0
  5 23  2  0  0  0  0
  6 30  1  0  0  0  0
  6 31  1  0  0  0  0
  7 13  1  0  0  0  0
  7 16  1  0  0  0  0
  7 18  1  0  0  0  0
  8 14  1  0  0  0  0
  8 15  1  0  0  0  0
  8 19  1  0  0  0  0
  9 20  1  0  0  0  0
  9 23  1  0  0  0  0
  9 44  1  0  0  0  0
 10 12  1  0  0  0  0
 10 13  1  0  0  0  0
 10 14  1  0  0  0  0
 10 32  1  0  0  0  0
 11 12  1  0  0  0  0
 11 15  1  0  0  0  0
 11 16  1  0  0  0  0
 11 33  1  0  0  0  0
 12 34  1  0  0  0  0
 12 35  1  0  0  0  0
 13 36  1  0  0  0  0
 13 37  1  0  0  0  0
 14 38  1  0  0  0  0
 14 39  1  0  0  0  0
 15 40  1  0  0  0  0
 15 41  1  0  0  0  0
 16 17  2  0  0  0  0
 17 21  1  0  0  0  0
 17 42  1  0  0  0  0
 18 20  1  0  0  0  0
 19 22  1  0  0  0  0
 20 21  2  0  0  0  0
 21 43  1  0  0  0  0
 23 24  1  0  0  0  0
 24 25  1  0  0  0  0
 24 46  1  0  0  0  0
 24 47  1  0  0  0  0
 25 26  2  0  0  0  0
 25 27  1  0  0  0  0
 26 28  1  0  0  0  0
 26 48  1  0  0  0  0
 27 29  2  0  0  0  0
 27 49  1  0  0  0  0
 28 30  2  0  0  0  0
 28 50  1  0  0  0  0
 29 30  1  0  0  0  0
 29 51  1  0  0  0  0
 31 52  1  0  0  0  0
 31 53  1  0  0  0  0
 31 54  1  0  0  0  0
M  END
> <PUBCHEM_COMPOUND_CID>
11884381

> <PUBCHEM_CONFORMER_RMSD>
1

> <PUBCHEM_CONFORMER_DIVERSEORDER>
1
6
25
26
29
27
12
3
17
13
28
23
20
22
10
8
14
11
18
16
7
4
19
9
5
24
21
2
15

> <PUBCHEM_MMFF94_PARTIAL_CHARGES>
37
1 -0.57
11 0.14
13 0.3
14 0.3
15 0.3
16 -0.03
17 -0.15
18 0.62
19 0.63
2 -0.57
20 0.12
21 -0.15
22 0.72
23 0.57
24 0.2
25 -0.14
26 -0.15
27 -0.15
28 -0.15
29 -0.15
3 -0.65
30 0.08
31 0.28
4 -0.57
42 0.15
43 0.15
44 0.37
45 0.5
48 0.15
49 0.15
5 -0.57
50 0.15
51 0.15
6 -0.36
7 -0.47
8 -0.66
9 -0.54

> <PUBCHEM_EFFECTIVE_ROTOR_COUNT>
8

> <PUBCHEM_PHARMACOPHORE_FEATURES>
12
1 1 acceptor
1 2 acceptor
1 3 acceptor
1 4 acceptor
1 5 acceptor
1 6 acceptor
1 9 donor
3 3 4 22 anion
6 25 26 27 28 29 30 rings
6 7 10 11 12 13 16 rings
6 7 16 17 18 20 21 rings
6 8 10 11 12 14 15 rings

> <PUBCHEM_HEAVY_ATOM_COUNT>
31

> <PUBCHEM_ATOM_DEF_STEREO_COUNT>
2

> <PUBCHEM_ATOM_UDEF_STEREO_COUNT>
0

> <PUBCHEM_BOND_DEF_STEREO_COUNT>
0

> <PUBCHEM_BOND_UDEF_STEREO_COUNT>
0

> <PUBCHEM_ISOTOPIC_ATOM_COUNT>
0

> <PUBCHEM_COMPONENT_COUNT>
1

> <PUBCHEM_CACTVS_TAUTO_COUNT>
2

> <PUBCHEM_CONFORMER_ID>
00B5575D00000001

> <PUBCHEM_MMFF94_ENERGY>
98.5822

> <PUBCHEM_FEATURE_SELFOVERLAP>
62.539

> <PUBCHEM_SHAPE_FINGERPRINT>
10928967 22 18130774673147216799
11070050 100 14764626404273726030
11315621 136 18337110060450731734
11443803 9 17896605167248758596
11456790 92 12103575164665041294
117089 54 17269487439645865710
11763715 3 18267042599407735484
11796584 16 18198346152000936052
11963148 33 18410568513643529023
12422481 6 16988278677675994901
12633046 712 18269543945284451093
12633257 1 14330552331264945466
13150687 139 17969524739758389028
13533116 47 18341895173218589865
1361 4 18410858780581519443
13692114 37 18338515352939524858
14251740 57 18339360769063148878
14347332 77 18333446539515868325
14480069 147 18408325463062905819
14556957 393 14056987305692849967
15183329 4 16008740330116695477
15238133 3 10951753198020269344
15347590 135 17845924247347955776
15352257 5 18334579075204861483
15475509 35 18343861125763163000
15799311 1 18338531793420173881
17134984 74 18261113027423591034
17909252 39 18413386536069772475
18365409 1 17975984473191332318
19315092 285 18201154356696144232
19958102 18 17022900181710994833
20567600 247 18408604781865443409
20775438 99 17967257485808581242
21033648 29 14261062109077500793
21197605 99 18409445921008957226
21599406 157 17822006489436057223
23522609 53 18124630623884625761
25222932 49 18131060571729375524
25269216 80 16588315973407822167
2838139 119 9223237338881846529
373842 8 18410014360083979059
404807 78 18043541713980636338
4340502 62 18341043095517216160
439807 62 18409448090436348623
4435113 14 18337684031348679051
46194498 28 17313384582074208637
463206 1 18337951294135630571
465052 167 17847065493078097644
50009960 94 17971449846104063386
5104073 3 17275107206393425177
7970288 3 18337953510813378663

> <PUBCHEM_SHAPE_MULTIPOLES>
587.81
18.14
4.08
1.6
32.04
5.07
-0.21
12.56
0.06
-2.99
0.48
-0.71
-0.41
-0.11

> <PUBCHEM_SHAPE_SELFOVERLAP>
1277.243

> <PUBCHEM_SHAPE_VOLUME>
312.2

> <PUBCHEM_COORDINATE_TYPE>
2
5
10

$$$$
