38027105
  -OEChem-12032416253D

 72 74  0     1  0  0  0  0  0999 V2000
   -2.4068    2.1077    1.3885 O   0  0  0  0  0  0  0  0  0  0  0  0
    3.5835   -0.0380   -2.5228 O   0  0  0  0  0  0  0  0  0  0  0  0
   -7.9501   -0.9786   -1.2060 O   0  0  0  0  0  0  0  0  0  0  0  0
    3.7632    0.8165   -0.3726 N   0  0  0  0  0  0  0  0  0  0  0  0
   -2.1293   -0.1934    1.5573 N   0  0  0  0  0  0  0  0  0  0  0  0
   -5.3563   -1.1490   -0.0462 N   0  0  0  0  0  0  0  0  0  0  0  0
    2.8282   -6.5445    1.2142 N   0  0  0  0  0  0  0  0  0  0  0  0
    1.4119    2.6523   -0.7528 C   0  0  1  0  0  0  0  0  0  0  0  0
    2.7834    3.0383   -0.1445 C   0  0  1  0  0  0  0  0  0  0  0  0
    0.2679    3.1807    0.1259 C   0  0  0  0  0  0  0  0  0  0  0  0
    0.3361    2.6317    1.5635 C   0  0  2  0  0  0  0  0  0  0  0  0
    1.2547    3.1807   -2.1820 C   0  0  0  0  0  0  0  0  0  0  0  0
    1.7339    2.7333    2.1393 C   0  0  0  0  0  0  0  0  0  0  0  0
    2.8138    2.9286    1.3620 C   0  0  0  0  0  0  0  0  0  0  0  0
    3.9118    2.1894   -0.7412 C   0  0  0  0  0  0  0  0  0  0  0  0
   -0.1810    1.1903    1.6293 C   0  0  0  0  0  0  0  0  0  0  0  0
    0.2451    2.3367   -2.9534 C   0  0  0  0  0  0  0  0  0  0  0  0
    0.8330    4.6464   -2.1639 C   0  0  0  0  0  0  0  0  0  0  0  0
    1.8574    2.6510    3.6353 C   0  0  0  0  0  0  0  0  0  0  0  0
   -1.6867    1.1204    1.5096 C   0  0  0  0  0  0  0  0  0  0  0  0
    3.6081   -0.2074   -1.3066 C   0  0  0  0  0  0  0  0  0  0  0  0
   -3.5241   -0.5599    1.4677 C   0  0  0  0  0  0  0  0  0  0  0  0
   -3.9415   -0.7894    0.0226 C   0  0  0  0  0  0  0  0  0  0  0  0
    3.4394   -1.5787   -0.7611 C   0  0  0  0  0  0  0  0  0  0  0  0
   -5.6687   -1.7953   -1.3285 C   0  0  0  0  0  0  0  0  0  0  0  0
   -6.2055    0.0357    0.1404 C   0  0  0  0  0  0  0  0  0  0  0  0
   -7.1520   -2.1497   -1.3823 C   0  0  0  0  0  0  0  0  0  0  0  0
   -7.6759   -0.3625    0.0528 C   0  0  0  0  0  0  0  0  0  0  0  0
    3.8308   -2.6833   -1.5178 C   0  0  0  0  0  0  0  0  0  0  0  0
    2.8896   -1.7620    0.5077 C   0  0  0  0  0  0  0  0  0  0  0  0
    3.6723   -3.9710   -1.0056 C   0  0  0  0  0  0  0  0  0  0  0  0
    2.7311   -3.0496    1.0198 C   0  0  0  0  0  0  0  0  0  0  0  0
    3.1225   -4.1541    0.2633 C   0  0  0  0  0  0  0  0  0  0  0  0
    2.9602   -5.4732    0.7880 C   0  0  0  0  0  0  0  0  0  0  0  0
    1.3362    1.5593   -0.7841 H   0  0  0  0  0  0  0  0  0  0  0  0
    3.0064    4.0868   -0.3787 H   0  0  0  0  0  0  0  0  0  0  0  0
   -0.7062    2.9577   -0.3203 H   0  0  0  0  0  0  0  0  0  0  0  0
    0.3265    4.2724    0.2234 H   0  0  0  0  0  0  0  0  0  0  0  0
   -0.3139    3.2726    2.1759 H   0  0  0  0  0  0  0  0  0  0  0  0
    2.2041    3.1082   -2.7225 H   0  0  0  0  0  0  0  0  0  0  0  0
    3.7878    3.0409    1.8344 H   0  0  0  0  0  0  0  0  0  0  0  0
    4.8805    2.5170   -0.3443 H   0  0  0  0  0  0  0  0  0  0  0  0
    3.9708    2.2940   -1.8279 H   0  0  0  0  0  0  0  0  0  0  0  0
    0.0724    0.7300    2.5922 H   0  0  0  0  0  0  0  0  0  0  0  0
    0.2653    0.5613    0.8514 H   0  0  0  0  0  0  0  0  0  0  0  0
   -0.7543    2.3731   -2.5090 H   0  0  0  0  0  0  0  0  0  0  0  0
    0.5605    1.2884   -2.9931 H   0  0  0  0  0  0  0  0  0  0  0  0
    0.1589    2.6927   -3.9860 H   0  0  0  0  0  0  0  0  0  0  0  0
   -0.2098    4.7905   -1.8623 H   0  0  0  0  0  0  0  0  0  0  0  0
    0.9076    5.0543   -3.1796 H   0  0  0  0  0  0  0  0  0  0  0  0
    1.4800    5.2649   -1.5350 H   0  0  0  0  0  0  0  0  0  0  0  0
    1.2145    3.3984    4.1116 H   0  0  0  0  0  0  0  0  0  0  0  0
    2.8823    2.8384    3.9737 H   0  0  0  0  0  0  0  0  0  0  0  0
    1.5695    1.6607    3.9994 H   0  0  0  0  0  0  0  0  0  0  0  0
    3.8663    0.5876    0.6106 H   0  0  0  0  0  0  0  0  0  0  0  0
   -1.4503   -0.9433    1.6511 H   0  0  0  0  0  0  0  0  0  0  0  0
   -4.1050    0.2335    1.9464 H   0  0  0  0  0  0  0  0  0  0  0  0
   -3.6534   -1.4745    2.0574 H   0  0  0  0  0  0  0  0  0  0  0  0
   -3.3256   -1.6106   -0.3688 H   0  0  0  0  0  0  0  0  0  0  0  0
   -3.7136    0.0853   -0.6009 H   0  0  0  0  0  0  0  0  0  0  0  0
   -5.0829   -2.7141   -1.4466 H   0  0  0  0  0  0  0  0  0  0  0  0
   -5.4219   -1.1242   -2.1615 H   0  0  0  0  0  0  0  0  0  0  0  0
   -5.9879    0.7860   -0.6310 H   0  0  0  0  0  0  0  0  0  0  0  0
   -6.0441    0.4997    1.1178 H   0  0  0  0  0  0  0  0  0  0  0  0
   -7.3981   -2.5756   -2.3603 H   0  0  0  0  0  0  0  0  0  0  0  0
   -7.4186   -2.8925   -0.6205 H   0  0  0  0  0  0  0  0  0  0  0  0
   -7.9602   -1.0439    0.8640 H   0  0  0  0  0  0  0  0  0  0  0  0
   -8.3085    0.5275    0.1314 H   0  0  0  0  0  0  0  0  0  0  0  0
    4.2650   -2.5602   -2.5065 H   0  0  0  0  0  0  0  0  0  0  0  0
    2.5464   -0.9301    1.1157 H   0  0  0  0  0  0  0  0  0  0  0  0
    3.9830   -4.8222   -1.6069 H   0  0  0  0  0  0  0  0  0  0  0  0
    2.2950   -3.1768    2.0078 H   0  0  0  0  0  0  0  0  0  0  0  0
  1 20  2  0  0  0  0
  2 21  2  0  0  0  0
  3 27  1  0  0  0  0
  3 28  1  0  0  0  0
  4 15  1  0  0  0  0
  4 21  1  0  0  0  0
  4 55  1  0  0  0  0
  5 20  1  0  0  0  0
  5 22  1  0  0  0  0
  5 56  1  0  0  0  0
  6 23  1  0  0  0  0
  6 25  1  0  0  0  0
  6 26  1  0  0  0  0
  7 34  3  0  0  0  0
  8  9  1  0  0  0  0
  8 10  1  0  0  0  0
  8 12  1  0  0  0  0
  8 35  1  0  0  0  0
  9 14  1  0  0  0  0
  9 15  1  0  0  0  0
  9 36  1  0  0  0  0
 10 11  1  0  0  0  0
 10 37  1  0  0  0  0
 10 38  1  0  0  0  0
 11 13  1  0  0  0  0
 11 16  1  0  0  0  0
 11 39  1  0  0  0  0
 12 17  1  0  0  0  0
 12 18  1  0  0  0  0
 12 40  1  0  0  0  0
 13 14  2  0  0  0  0
 13 19  1  0  0  0  0
 14 41  1  0  0  0  0
 15 42  1  0  0  0  0
 15 43  1  0  0  0  0
 16 20  1  0  0  0  0
 16 44  1  0  0  0  0
 16 45  1  0  0  0  0
 17 46  1  0  0  0  0
 17 47  1  0  0  0  0
 17 48  1  0  0  0  0
 18 49  1  0  0  0  0
 18 50  1  0  0  0  0
 18 51  1  0  0  0  0
 19 52  1  0  0  0  0
 19 53  1  0  0  0  0
 19 54  1  0  0  0  0
 21 24  1  0  0  0  0
 22 23  1  0  0  0  0
 22 57  1  0  0  0  0
 22 58  1  0  0  0  0
 23 59  1  0  0  0  0
 23 60  1  0  0  0  0
 24 29  2  0  0  0  0
 24 30  1  0  0  0  0
 25 27  1  0  0  0  0
 25 61  1  0  0  0  0
 25 62  1  0  0  0  0
 26 28  1  0  0  0  0
 26 63  1  0  0  0  0
 26 64  1  0  0  0  0
 27 65  1  0  0  0  0
 27 66  1  0  0  0  0
 28 67  1  0  0  0  0
 28 68  1  0  0  0  0
 29 31  1  0  0  0  0
 29 69  1  0  0  0  0
 30 32  2  0  0  0  0
 30 70  1  0  0  0  0
 31 33  2  0  0  0  0
 31 71  1  0  0  0  0
 32 33  1  0  0  0  0
 32 72  1  0  0  0  0
 33 34  1  0  0  0  0
M  END
> <PUBCHEM_COMPOUND_CID>
38027105

> <PUBCHEM_CONFORMER_RMSD>
1.2

> <PUBCHEM_CONFORMER_DIVERSEORDER>
1
129
5
208
181
21
200
38
50
73
32
123
65
18
125
136
12
63
67
36
100
203
77
179
176
193
17
173
159
68
90
15
52
157
170
13
144
6
152
30
102
131
160
91
76
137
24
34
31
83
111
72
161
158
202
146
162
183
64
184
132
69
98
163
139
122
104
108
51
87
154
43
93
206
14
78
84
94
187
42
169
2
71
96
205
133
53
110
3
195
89
196
120
140
40
198
115
172
174
59
168
48
164
75
79
186
23
109
105
46
92
148
156
55
171
56
10
45
103
58
19
127
153
191
118
155
192
116
66
7
54
80
74
119
62
107
95
112
180
207
130
149
124
117
182
9
44
97
138
185
194
81
37
128
60
99
134
197
113
167
39
178
33
86
47
114
175
106
82
85
27
16
70
188
41
204
141
121
11
201
20
4
166
101
49
8
150
26
28
151
145
88
25
61
177
22
165
35
199
189
190
147
135
29
142
143
57
126

> <PUBCHEM_MMFF94_PARTIAL_CHARGES>
36
1 -0.57
11 0.14
13 -0.28
14 -0.29
15 0.3
16 0.06
19 0.14
2 -0.57
20 0.57
21 0.54
22 0.3
23 0.27
24 0.09
25 0.27
26 0.27
27 0.28
28 0.28
29 -0.15
3 -0.56
30 -0.15
31 -0.15
32 -0.15
33 0.07
34 0.48
4 -0.73
41 0.15
5 -0.73
55 0.37
56 0.37
6 -0.81
69 0.15
7 -0.56
70 0.15
71 0.15
72 0.15
9 0.14

> <PUBCHEM_EFFECTIVE_ROTOR_COUNT>
13

> <PUBCHEM_PHARMACOPHORE_FEATURES>
11
1 1 acceptor
1 2 acceptor
1 3 acceptor
1 4 donor
1 5 donor
1 6 cation
1 7 acceptor
3 12 17 18 hydrophobe
6 24 29 30 31 32 33 rings
6 3 6 25 26 27 28 rings
6 8 9 10 11 13 14 rings

> <PUBCHEM_HEAVY_ATOM_COUNT>
34

> <PUBCHEM_ATOM_DEF_STEREO_COUNT>
3

> <PUBCHEM_ATOM_UDEF_STEREO_COUNT>
0

> <PUBCHEM_BOND_DEF_STEREO_COUNT>
0

> <PUBCHEM_BOND_UDEF_STEREO_COUNT>
0

> <PUBCHEM_ISOTOPIC_ATOM_COUNT>
0

> <PUBCHEM_COMPONENT_COUNT>
1

> <PUBCHEM_CACTVS_TAUTO_COUNT>
4

> <PUBCHEM_CONFORMER_ID>
02443F6100000001

> <PUBCHEM_MMFF94_ENERGY>
64.3447

> <PUBCHEM_FEATURE_SELFOVERLAP>
55.821

> <PUBCHEM_SHAPE_FINGERPRINT>
10622 236 18196937673695766555
11069576 57 18341904012261337316
11093857 51 18190193462696673244
11135609 149 18263905688600987135
12977781 61 17903045882513878120
131258 38 18201992261460031222
14674994 50 17180248803854776798
19026451 147 18340485578148856666
19315092 285 18201723912235569296
20775438 99 18334580130902088803
20775530 9 18048903817714786794
21703447 108 17489303144142072569
25222932 49 17417821681053830804
4066623 53 17531517690208940236
513532 50 17386562608562729045
5951187 136 15285648736754458478
86090 222 17839756098368485242
9831232 110 18335134337420368167

> <PUBCHEM_SHAPE_MULTIPOLES>
662.17
14.31
7.83
2.77
44.52
9.18
0.27
13.37
-5.32
-12.99
0.58
-1.45
-2.78
-1.36

> <PUBCHEM_SHAPE_SELFOVERLAP>
1366.471

> <PUBCHEM_SHAPE_VOLUME>
374.8

> <PUBCHEM_COORDINATE_TYPE>
2
5
10

$$$$
