26744782
  -OEChem-12032416373D

 48 52  0     1  0  0  0  0  0999 V2000
   -7.2934   -1.2183   -0.2213 F   0  0  0  0  0  0  0  0  0  0  0  0
   -6.7121   -0.4687   -2.1778 F   0  0  0  0  0  0  0  0  0  0  0  0
   -7.5488    0.8829   -0.6941 F   0  0  0  0  0  0  0  0  0  0  0  0
    0.2330    1.3942    2.3421 O   0  0  0  0  0  0  0  0  0  0  0  0
    2.7798    0.0057    0.3212 N   0  0  1  0  0  0  0  0  0  0  0  0
    5.7408    1.7600   -1.1694 N   0  0  0  0  0  0  0  0  0  0  0  0
    4.3465    3.4938   -1.3897 N   0  0  0  0  0  0  0  0  0  0  0  0
   -0.3238    0.8516    0.2415 N   0  0  0  0  0  0  0  0  0  0  0  0
   -1.1574    1.2243    2.3392 N   0  0  0  0  0  0  0  0  0  0  0  0
    3.7553   -3.1651    0.7252 N   0  0  0  0  0  0  0  0  0  0  0  0
    2.1410    1.2784    0.8038 C   0  0  1  0  0  0  0  0  0  0  0  0
    2.3576    2.4734   -0.1912 C   0  0  0  0  0  0  0  0  0  0  0  0
    4.2549    0.1450    0.1461 C   0  0  0  0  0  0  0  0  0  0  0  0
    4.5764    1.4005   -0.5619 C   0  0  0  0  0  0  0  0  0  0  0  0
    3.7427    2.4788   -0.7037 C   0  0  0  0  0  0  0  0  0  0  0  0
    2.5322   -1.1229    1.2285 C   0  0  0  0  0  0  0  0  0  0  0  0
    0.6437    1.1568    1.0689 C   0  0  0  0  0  0  0  0  0  0  0  0
    2.6296   -2.4462    0.5168 C   0  0  0  0  0  0  0  0  0  0  0  0
    5.5528    3.0310   -1.6540 C   0  0  0  0  0  0  0  0  0  0  0  0
   -1.4096    0.9056    1.0662 C   0  0  0  0  0  0  0  0  0  0  0  0
    1.5867   -2.8566   -0.2980 C   0  0  0  0  0  0  0  0  0  0  0  0
   -2.7344    0.6370    0.5860 C   0  0  0  0  0  0  0  0  0  0  0  0
    1.7070   -4.0841   -0.9400 C   0  0  0  0  0  0  0  0  0  0  0  0
    3.8366   -4.3528    0.0845 C   0  0  0  0  0  0  0  0  0  0  0  0
   -2.9372    0.3106   -0.7549 C   0  0  0  0  0  0  0  0  0  0  0  0
   -3.8195    0.7014    1.4600 C   0  0  0  0  0  0  0  0  0  0  0  0
    2.8502   -4.8526   -0.7503 C   0  0  0  0  0  0  0  0  0  0  0  0
   -5.3105    0.1136   -0.3478 C   0  0  0  0  0  0  0  0  0  0  0  0
   -4.2252    0.0489   -1.2218 C   0  0  0  0  0  0  0  0  0  0  0  0
   -5.1075    0.4399    0.9932 C   0  0  0  0  0  0  0  0  0  0  0  0
   -6.6875   -0.1662   -0.8471 C   0  0  0  0  0  0  0  0  0  0  0  0
    2.6235    1.5472    1.7560 H   0  0  0  0  0  0  0  0  0  0  0  0
    2.1353    3.4210    0.3135 H   0  0  0  0  0  0  0  0  0  0  0  0
    1.6731    2.3882   -1.0451 H   0  0  0  0  0  0  0  0  0  0  0  0
    4.6417   -0.7018   -0.4320 H   0  0  0  0  0  0  0  0  0  0  0  0
    4.7661    0.1599    1.1174 H   0  0  0  0  0  0  0  0  0  0  0  0
    1.5249   -1.0940    1.6605 H   0  0  0  0  0  0  0  0  0  0  0  0
    3.2060   -1.1037    2.0957 H   0  0  0  0  0  0  0  0  0  0  0  0
    6.5834    1.2057   -1.2473 H   0  0  0  0  0  0  0  0  0  0  0  0
    6.3317    3.5575   -2.1870 H   0  0  0  0  0  0  0  0  0  0  0  0
    0.6985   -2.2500   -0.4395 H   0  0  0  0  0  0  0  0  0  0  0  0
    0.9113   -4.4412   -1.5869 H   0  0  0  0  0  0  0  0  0  0  0  0
    4.7478   -4.9133    0.2654 H   0  0  0  0  0  0  0  0  0  0  0  0
   -2.1120    0.2518   -1.4604 H   0  0  0  0  0  0  0  0  0  0  0  0
   -3.7002    0.9521    2.5111 H   0  0  0  0  0  0  0  0  0  0  0  0
    2.9655   -5.8124   -1.2406 H   0  0  0  0  0  0  0  0  0  0  0  0
   -4.3620   -0.2036   -2.2697 H   0  0  0  0  0  0  0  0  0  0  0  0
   -5.9472    0.4924    1.6812 H   0  0  0  0  0  0  0  0  0  0  0  0
  1 31  1  0  0  0  0
  2 31  1  0  0  0  0
  3 31  1  0  0  0  0
  4  9  1  0  0  0  0
  4 17  1  0  0  0  0
  5 11  1  0  0  0  0
  5 13  1  0  0  0  0
  5 16  1  0  0  0  0
  6 14  1  0  0  0  0
  6 19  1  0  0  0  0
  6 39  1  0  0  0  0
  7 15  1  0  0  0  0
  7 19  2  0  0  0  0
  8 17  2  0  0  0  0
  8 20  1  0  0  0  0
  9 20  2  0  0  0  0
 10 18  1  0  0  0  0
 10 24  2  0  0  0  0
 11 12  1  0  0  0  0
 11 17  1  0  0  0  0
 11 32  1  0  0  0  0
 12 15  1  0  0  0  0
 12 33  1  0  0  0  0
 12 34  1  0  0  0  0
 13 14  1  0  0  0  0
 13 35  1  0  0  0  0
 13 36  1  0  0  0  0
 14 15  2  0  0  0  0
 16 18  1  0  0  0  0
 16 37  1  0  0  0  0
 16 38  1  0  0  0  0
 18 21  2  0  0  0  0
 19 40  1  0  0  0  0
 20 22  1  0  0  0  0
 21 23  1  0  0  0  0
 21 41  1  0  0  0  0
 22 25  2  0  0  0  0
 22 26  1  0  0  0  0
 23 27  2  0  0  0  0
 23 42  1  0  0  0  0
 24 27  1  0  0  0  0
 24 43  1  0  0  0  0
 25 29  1  0  0  0  0
 25 44  1  0  0  0  0
 26 30  2  0  0  0  0
 26 45  1  0  0  0  0
 27 46  1  0  0  0  0
 28 29  2  0  0  0  0
 28 30  1  0  0  0  0
 28 31  1  0  0  0  0
 29 47  1  0  0  0  0
 30 48  1  0  0  0  0
M  END
> <PUBCHEM_COMPOUND_CID>
26744782

> <PUBCHEM_CONFORMER_RMSD>
0.8

> <PUBCHEM_CONFORMER_DIVERSEORDER>
1
85
70
33
41
83
86
92
71
55
50
68
10
59
23
13
84
56
27
29
44
72
31
64
87
51
26
35
77
75
89
60
43
53
67
46
21
52
4
11
82
2
90
12
20
25
45
57
6
58
63
39
65
94
80
16
7
78
42
69
66
47
22
79
88
28
30
9
37
40
5
24
91
62
17
3
34
81
32
48
38
61
15
19
14
93
73
74
18
49
36
8
76
54

> <PUBCHEM_MMFF94_PARTIAL_CHARGES>
41
1 -0.34
10 -0.62
11 0.45
12 0.18
13 0.45
14 -0.33
15 0.05
16 0.41
17 0.3
18 0.17
19 0.04
2 -0.34
20 0.46
21 -0.15
22 0.05
23 -0.15
24 0.16
25 -0.15
26 -0.15
27 -0.15
28 -0.14
29 -0.15
3 -0.34
30 -0.15
31 1.16
39 0.27
4 -0.02
40 0.15
41 0.15
42 0.15
43 0.15
44 0.15
45 0.15
46 0.15
47 0.15
48 0.15
5 -0.81
6 0.03
7 -0.57
8 -0.57
9 -0.41

> <PUBCHEM_EFFECTIVE_ROTOR_COUNT>
5.8

> <PUBCHEM_PHARMACOPHORE_FEATURES>
10
1 10 acceptor
1 5 cation
1 6 donor
3 6 7 19 cation
3 8 9 20 cation
5 4 8 9 17 20 rings
5 6 7 14 15 19 rings
6 10 18 21 23 24 27 rings
6 22 25 26 28 29 30 rings
6 5 11 12 13 14 15 rings

> <PUBCHEM_HEAVY_ATOM_COUNT>
31

> <PUBCHEM_ATOM_DEF_STEREO_COUNT>
1

> <PUBCHEM_ATOM_UDEF_STEREO_COUNT>
0

> <PUBCHEM_BOND_DEF_STEREO_COUNT>
0

> <PUBCHEM_BOND_UDEF_STEREO_COUNT>
0

> <PUBCHEM_ISOTOPIC_ATOM_COUNT>
0

> <PUBCHEM_COMPONENT_COUNT>
1

> <PUBCHEM_CACTVS_TAUTO_COUNT>
2

> <PUBCHEM_CONFORMER_ID>
019817CE00000001

> <PUBCHEM_MMFF94_ENERGY>
63.1731

> <PUBCHEM_FEATURE_SELFOVERLAP>
50.848

> <PUBCHEM_SHAPE_FINGERPRINT>
10554248 39 18268134389364042285
10622 236 18054787291218084315
10693767 8 18128268805181778110
11069576 57 18271525291043787406
11103572 155 18411986889088346923
11135926 11 18338812185627315224
11181472 205 18339365168054379693
11545043 162 13830144866626371809
11719270 70 18410006659333191874
11763715 3 17487906609892604770
12107183 9 17696481680891206257
13150687 139 18337684113501171052
13533116 47 18343014472388575923
13540713 5 17985843544037671905
1361 2 18334296508694664324
13911987 19 18191886702114610844
13968360 50 18408886261305887306
14675020 138 18199733890974286624
14863182 85 18271515430421205850
15183329 4 17775004588337724865
15250474 111 18272929410679688275
15264996 19 17983012542362302511
15348495 7 10952045680776899541
15484559 13 18187086183081543234
15537594 2 17917986200909141167
15705408 1 18049187496310206620
16989378 47 17986690172834646614
16993438 75 17901954363034912882
17134984 74 18270394009832943063
17138139 8 17845364630162106526
19304671 126 17678151843035953709
19319366 153 18272645788076788110
20587220 46 17417801842800688983
20721686 124 17603575331840149618
21033648 29 14779546837678225184
21285901 2 17822003190331831757
21304303 94 18130515201551896054
21344244 246 18339088090965684582
25147074 1 18059585624713113177
25223398 141 17829618601592581744
255183 451 18126289628011388166
3103668 31 17690007051651888374
34797466 226 17821725031892377185
4017518 198 18341626945403667638
404807 78 17974010845219532347
4093350 32 18186518804769413925
4098825 35 18262233318826201901
44280117 145 17408530542582478502
44802255 64 17173531170673130916
46194498 28 18187638068487112463
474144 1 18202278074295863854
504843 32 17754189879508420858
5223283 242 17609766510006713061
59682541 52 18335971005254182021
6025842 7 18407477765077141104
6058803 2 17985004599791959720

> <PUBCHEM_SHAPE_MULTIPOLES>
580.39
16.28
5.08
1.67
30.47
6.86
0.27
-3.41
-8.12
-12.59
-1.76
0.78
-0.73
-2.6

> <PUBCHEM_SHAPE_SELFOVERLAP>
1287.164

> <PUBCHEM_SHAPE_VOLUME>
313.1

> <PUBCHEM_COORDINATE_TYPE>
2
5
10

$$$$
