11882510
  -OEChem-12032416193D

 55 59  0     1  0  0  0  0  0999 V2000
    1.7244   -3.6860    0.7478 O   0  0  0  0  0  0  0  0  0  0  0  0
    0.4016    1.4611    0.4043 O   0  0  0  0  0  0  0  0  0  0  0  0
   -4.4360    0.9762    2.5311 O   0  0  0  0  0  0  0  0  0  0  0  0
   -7.0665    1.9456    0.4822 O   0  0  0  0  0  0  0  0  0  0  0  0
    0.2587   -2.0290    0.0180 N   0  0  0  0  0  0  0  0  0  0  0  0
   -3.6666   -0.4232   -0.3395 N   0  0  0  0  0  0  0  0  0  0  0  0
    1.9277   -0.1696    0.9395 N   0  0  0  0  0  0  0  0  0  0  0  0
   -4.2192   -1.0631   -1.3768 N   0  0  0  0  0  0  0  0  0  0  0  0
   -5.4536   -0.5903   -1.5104 N   0  0  0  0  0  0  0  0  0  0  0  0
    6.8702   -0.4508    0.3063 N   0  0  0  0  0  0  0  0  0  0  0  0
   -3.6921    2.5785    1.0905 N   0  0  0  0  0  0  0  0  0  0  0  0
   -7.9141    0.7810   -1.2844 N   0  0  0  0  0  0  0  0  0  0  0  0
    0.1634   -0.7194   -0.6325 C   0  0  1  0  0  0  0  0  0  0  0  0
   -2.2874   -0.7334    0.0618 C   0  0  2  0  0  0  0  0  0  0  0  0
   -1.2732   -0.3612   -1.0364 C   0  0  0  0  0  0  0  0  0  0  0  0
   -2.1286   -2.1881    0.5591 C   0  0  0  0  0  0  0  0  0  0  0  0
   -0.9145   -2.8929   -0.0409 C   0  0  0  0  0  0  0  0  0  0  0  0
    2.5574   -1.4417    0.6231 C   0  0  1  0  0  0  0  0  0  0  0  0
    1.4775   -2.5058    0.5000 C   0  0  0  0  0  0  0  0  0  0  0  0
    0.7910    0.2999    0.3057 C   0  0  0  0  0  0  0  0  0  0  0  0
    3.4569   -1.3772   -0.6010 C   0  0  0  0  0  0  0  0  0  0  0  0
   -4.5148    0.4725    0.2224 C   0  0  0  0  0  0  0  0  0  0  0  0
    4.7792   -0.7254   -0.2889 C   0  0  0  0  0  0  0  0  0  0  0  0
    5.0574    0.6486   -0.3882 C   0  0  0  0  0  0  0  0  0  0  0  0
   -5.6503    0.3511   -0.5385 C   0  0  0  0  0  0  0  0  0  0  0  0
    5.8873   -1.3880    0.1342 C   0  0  0  0  0  0  0  0  0  0  0  0
   -4.2376    1.3140    1.3408 C   0  0  0  0  0  0  0  0  0  0  0  0
    6.3917    0.8020   -0.0055 C   0  0  0  0  0  0  0  0  0  0  0  0
    4.3236    1.7918   -0.7626 C   0  0  0  0  0  0  0  0  0  0  0  0
   -6.8791    1.0675   -0.3892 C   0  0  0  0  0  0  0  0  0  0  0  0
    7.0314    2.0463    0.0217 C   0  0  0  0  0  0  0  0  0  0  0  0
    4.9504    3.0430   -0.7401 C   0  0  0  0  0  0  0  0  0  0  0  0
    6.2836    3.1660   -0.3536 C   0  0  0  0  0  0  0  0  0  0  0  0
    0.7775   -0.7487   -1.5396 H   0  0  0  0  0  0  0  0  0  0  0  0
   -2.0788   -0.0831    0.9214 H   0  0  0  0  0  0  0  0  0  0  0  0
   -1.3596    0.7031   -1.2879 H   0  0  0  0  0  0  0  0  0  0  0  0
   -1.5224   -0.9066   -1.9569 H   0  0  0  0  0  0  0  0  0  0  0  0
   -3.0240   -2.7906    0.3659 H   0  0  0  0  0  0  0  0  0  0  0  0
   -2.0162   -2.1616    1.6513 H   0  0  0  0  0  0  0  0  0  0  0  0
   -0.7274   -3.8291    0.4954 H   0  0  0  0  0  0  0  0  0  0  0  0
   -1.0885   -3.1498   -1.0923 H   0  0  0  0  0  0  0  0  0  0  0  0
    3.1413   -1.7039    1.5152 H   0  0  0  0  0  0  0  0  0  0  0  0
    2.4252    0.4688    1.5529 H   0  0  0  0  0  0  0  0  0  0  0  0
    2.9813   -0.8444   -1.4319 H   0  0  0  0  0  0  0  0  0  0  0  0
    3.6525   -2.3921   -0.9730 H   0  0  0  0  0  0  0  0  0  0  0  0
    6.0813   -2.4328    0.3332 H   0  0  0  0  0  0  0  0  0  0  0  0
    7.8112   -0.6489    0.6174 H   0  0  0  0  0  0  0  0  0  0  0  0
    3.2852    1.7156   -1.0713 H   0  0  0  0  0  0  0  0  0  0  0  0
    8.0692    2.1431    0.3225 H   0  0  0  0  0  0  0  0  0  0  0  0
    4.3896    3.9280   -1.0289 H   0  0  0  0  0  0  0  0  0  0  0  0
   -3.4987    2.9043    0.1488 H   0  0  0  0  0  0  0  0  0  0  0  0
   -3.4701    3.2105    1.8524 H   0  0  0  0  0  0  0  0  0  0  0  0
    6.7507    4.1475   -0.3437 H   0  0  0  0  0  0  0  0  0  0  0  0
   -7.8156    0.0854   -2.0171 H   0  0  0  0  0  0  0  0  0  0  0  0
   -8.8030    1.2667   -1.2262 H   0  0  0  0  0  0  0  0  0  0  0  0
  1 19  2  0  0  0  0
  2 20  2  0  0  0  0
  3 27  2  0  0  0  0
  4 30  2  0  0  0  0
  5 13  1  0  0  0  0
  5 17  1  0  0  0  0
  5 19  1  0  0  0  0
  6  8  1  0  0  0  0
  6 14  1  0  0  0  0
  6 22  1  0  0  0  0
  7 18  1  0  0  0  0
  7 20  1  0  0  0  0
  7 43  1  0  0  0  0
  8  9  2  0  0  0  0
  9 25  1  0  0  0  0
 10 26  1  0  0  0  0
 10 28  1  0  0  0  0
 10 47  1  0  0  0  0
 11 27  1  0  0  0  0
 11 51  1  0  0  0  0
 11 52  1  0  0  0  0
 12 30  1  0  0  0  0
 12 54  1  0  0  0  0
 12 55  1  0  0  0  0
 13 15  1  0  0  0  0
 13 20  1  0  0  0  0
 13 34  1  0  0  0  0
 14 15  1  0  0  0  0
 14 16  1  0  0  0  0
 14 35  1  0  0  0  0
 15 36  1  0  0  0  0
 15 37  1  0  0  0  0
 16 17  1  0  0  0  0
 16 38  1  0  0  0  0
 16 39  1  0  0  0  0
 17 40  1  0  0  0  0
 17 41  1  0  0  0  0
 18 19  1  0  0  0  0
 18 21  1  0  0  0  0
 18 42  1  0  0  0  0
 21 23  1  0  0  0  0
 21 44  1  0  0  0  0
 21 45  1  0  0  0  0
 22 25  2  0  0  0  0
 22 27  1  0  0  0  0
 23 24  1  0  0  0  0
 23 26  2  0  0  0  0
 24 28  1  0  0  0  0
 24 29  2  0  0  0  0
 25 30  1  0  0  0  0
 26 46  1  0  0  0  0
 28 31  2  0  0  0  0
 29 32  1  0  0  0  0
 29 48  1  0  0  0  0
 31 33  1  0  0  0  0
 31 49  1  0  0  0  0
 32 33  2  0  0  0  0
 32 50  1  0  0  0  0
 33 53  1  0  0  0  0
M  END
> <PUBCHEM_COMPOUND_CID>
11882510

> <PUBCHEM_CONFORMER_RMSD>
0.8

> <PUBCHEM_CONFORMER_DIVERSEORDER>
1
55
273
408
380
372
32
137
245
409
302
233
236
211
252
266
87
327
191
351
279
402
85
125
227
180
423
285
314
438
349
38
463
237
446
322
342
49
387
412
256
84
136
212
383
350
367
417
298
57
370
394
378
232
382
426
283
385
185
454
410
389
364
439
225
230
259
56
400
359
373
352
470
363
396
98
458
138
183
319
135
275
421
14
194
220
115
329
186
278
348
430
317
175
457
318
139
64
419
355
371
398
213
44
368
35
447
276
61
262
308
30
264
365
338
369
415
305
246
274
339
290
102
325
299
162
150
71
203
39
81
215
151
166
253
424
96
63
468
282
243
248
103
11
195
234
218
460
440
451
126
441
461
312
471
15
393
134
437
202
92
464
132
357
391
433
445
324
201
310
168
178
222
205
214
141
163
140
207
427
223
335
403
328
333
456
358
40
467
146
147
114
287
128
101
395
390
90
455
337
374
109
9
143
316
27
401
199
459
129
160
361
3
110
184
5
173
388
436
289
341
111
404
272
375
469
284
411
311
443
331
343
82
271
231
345
420
7
399
332
425
79
208
288
16
347
58
152
216
258
309
120
113
108
292
6
428
41
167
45
72
240
229
131
94
23
127
13
235
294
386
209
277
444
384
377
60
217
122
340
293
450
379
435
42
462
301
255
118
119
366
104
67
142
344
414
144
254
315
189
53
130
280
432
242
219
353
22
106
73
210
291
362
97
313
228
198
249
354
123
270
297
20
36
12
431
320
124
239
295
29
187
19
381
83
174
34
164
172
321
105
51
99
80
77
206
466
346
418
161
68
88
157
422
59
18
334
306
397
260
156
25
449
37
453
392
133
226
204
31
70
452
250
192
197
154
24
267
145
176
257
448
75
33
100
17
181
200
121
360
149
247
196
336
269
296
43
171
281
8
238
153
407
330
442
303
413
62
286
117
112
434
65
182
307
159
4
169
158
188
91
429
416
326
193
190
179
300
170
465
48
265
177
261
116
323
107
244
28
78
251
376
155
224
52
148
241
47
93
21
74
46
50
10
89
69
356
406
76
268
165
221
26
304
54
2
263
95
405
66
86

> <PUBCHEM_MMFF94_PARTIAL_CHARGES>
41
1 -0.57
10 0.03
11 -0.8
12 -0.8
13 0.36
14 0.26
17 0.3
18 0.36
19 0.57
2 -0.57
20 0.57
21 0.18
22 -0.24
23 -0.18
25 0.14
26 -0.3
27 0.71
28 -0.15
29 -0.15
3 -0.57
30 0.72
31 -0.15
32 -0.15
33 -0.15
4 -0.57
43 0.37
46 0.15
47 0.27
48 0.15
49 0.15
5 -0.66
50 0.15
51 0.37
52 0.37
53 0.15
54 0.37
55 0.37
6 0.31
7 -0.73
8 -0.42
9 -0.23

> <PUBCHEM_EFFECTIVE_ROTOR_COUNT>
6.2

> <PUBCHEM_PHARMACOPHORE_FEATURES>
14
1 1 acceptor
1 10 cation
1 10 donor
1 11 donor
1 12 donor
1 2 acceptor
1 3 acceptor
1 4 acceptor
1 7 donor
5 10 23 24 26 28 rings
5 6 8 9 22 25 rings
6 24 28 29 31 32 33 rings
6 5 13 14 15 16 17 rings
6 5 7 13 18 19 20 rings

> <PUBCHEM_HEAVY_ATOM_COUNT>
33

> <PUBCHEM_ATOM_DEF_STEREO_COUNT>
3

> <PUBCHEM_ATOM_UDEF_STEREO_COUNT>
0

> <PUBCHEM_BOND_DEF_STEREO_COUNT>
0

> <PUBCHEM_BOND_UDEF_STEREO_COUNT>
0

> <PUBCHEM_ISOTOPIC_ATOM_COUNT>
0

> <PUBCHEM_COMPONENT_COUNT>
1

> <PUBCHEM_CACTVS_TAUTO_COUNT>
8

> <PUBCHEM_CONFORMER_ID>
00B5500E00000001

> <PUBCHEM_MMFF94_ENERGY>
83.5949

> <PUBCHEM_FEATURE_SELFOVERLAP>
71.191

> <PUBCHEM_SHAPE_FINGERPRINT>
10 15 17458346355548641164
10675989 125 18408321104018889800
10906281 52 18131084730767505735
11007060 377 18187365480267794467
117089 54 8645122942729745120
12422481 6 17167864201047674734
12925494 130 18265613367635208968
13627175 23 18201729440285890297
13668630 136 12679456495868281861
14117953 113 18410296917908718588
14394314 77 18411987940701420913
14790565 3 18411423903824828784
14849402 71 18411701019674069121
15064981 194 18190476046002066150
15183329 4 17275390914652610064
15276724 80 18337105679236151564
15840311 113 18408045086996183437
18608769 82 18337394954606869899
20715895 44 18409166649851070414
21033648 29 17168426073507447554
21150785 3 17203324516031679309
21298829 104 18338800130551589380
2748736 6 18410007775829698080
2838139 119 18334855000292547742
335352 9 18410015417193923822
3633792 109 18335695015045667029
3680242 22 18261106362583842362
3711267 37 18129954365113365753
3918712 181 18342164609772177392
397830 11 17023762241318258728
4073 2 18187366579410208850
4340502 62 16588024584929687658
5104073 3 18041559256483289586
5718773 13 9943534007154329700
6328613 192 18413671322397578969
9961470 85 18052250992671258064

> <PUBCHEM_SHAPE_MULTIPOLES>
615.8
20.66
3.35
1.19
6.23
0.34
0.27
-15.35
-2.74
-3.22
0.4
1.83
-0.25
-1.62

> <PUBCHEM_SHAPE_SELFOVERLAP>
1357.942

> <PUBCHEM_SHAPE_VOLUME>
328.7

> <PUBCHEM_COORDINATE_TYPE>
2
5
10

$$$$
