51136788
  -OEChem-12032416143D

 56 58  0     1  0  0  0  0  0999 V2000
   -5.0703    2.1830   -1.9910 F   0  0  0  0  0  0  0  0  0  0  0  0
   -0.0255   -3.0460   -1.7514 O   0  0  0  0  0  0  0  0  0  0  0  0
    6.1452    2.2204   -0.5294 O   0  0  0  0  0  0  0  0  0  0  0  0
    6.1226   -0.0122   -0.0872 O   0  0  0  0  0  0  0  0  0  0  0  0
    1.1449   -1.9226   -0.0947 N   0  0  0  0  0  0  0  0  0  0  0  0
   -0.2788    1.2407    2.1187 N   0  0  0  0  0  0  0  0  0  0  0  0
   -1.2157   -2.0491   -0.0638 N   0  0  0  0  0  0  0  0  0  0  0  0
    1.9293    0.2134    0.8888 C   0  0  2  0  0  0  0  0  0  0  0  0
    3.3104   -0.0285    0.2243 C   0  0  1  0  0  0  0  0  0  0  0  0
    3.1967   -0.9310   -1.0178 C   0  0  0  0  0  0  0  0  0  0  0  0
    1.2365   -1.1363    1.1441 C   0  0  0  0  0  0  0  0  0  0  0  0
    2.4413   -2.2216   -0.7045 C   0  0  0  0  0  0  0  0  0  0  0  0
    1.0083    1.1458    0.0932 C   0  0  0  0  0  0  0  0  0  0  0  0
    4.0476    1.2664   -0.1161 C   0  0  0  0  0  0  0  0  0  0  0  0
   -0.2970    1.3288    0.8296 C   0  0  0  0  0  0  0  0  0  0  0  0
   -0.0308   -2.3867   -0.7064 C   0  0  0  0  0  0  0  0  0  0  0  0
   -1.5301    1.5919    0.0448 C   0  0  0  0  0  0  0  0  0  0  0  0
    5.5306    1.0468   -0.2321 C   0  0  0  0  0  0  0  0  0  0  0  0
   -2.7509    1.3728    0.6955 C   0  0  0  0  0  0  0  0  0  0  0  0
   -2.7340    0.8814    2.1125 C   0  0  0  0  0  0  0  0  0  0  0  0
   -1.5351    1.4784    2.8376 C   0  0  0  0  0  0  0  0  0  0  0  0
   -1.5027    2.0230   -1.2828 C   0  0  0  0  0  0  0  0  0  0  0  0
   -2.5083   -2.4462   -0.5755 C   0  0  0  0  0  0  0  0  0  0  0  0
   -3.9478    1.5632   -0.0005 C   0  0  0  0  0  0  0  0  0  0  0  0
   -2.7031    2.2256   -1.9649 C   0  0  0  0  0  0  0  0  0  0  0  0
   -3.9223    1.9939   -1.3272 C   0  0  0  0  0  0  0  0  0  0  0  0
   -2.9590   -3.7958   -0.0296 C   0  0  0  0  0  0  0  0  0  0  0  0
   -3.1022   -3.7994    1.4857 C   0  0  0  0  0  0  0  0  0  0  0  0
    2.1309    0.6728    1.8668 H   0  0  0  0  0  0  0  0  0  0  0  0
    3.9072   -0.5805    0.9657 H   0  0  0  0  0  0  0  0  0  0  0  0
    2.6752   -0.3959   -1.8213 H   0  0  0  0  0  0  0  0  0  0  0  0
    4.1883   -1.1888   -1.4053 H   0  0  0  0  0  0  0  0  0  0  0  0
    0.2879   -1.0553    1.6651 H   0  0  0  0  0  0  0  0  0  0  0  0
    1.8644   -1.7266    1.8261 H   0  0  0  0  0  0  0  0  0  0  0  0
    3.0079   -2.8370    0.0044 H   0  0  0  0  0  0  0  0  0  0  0  0
    2.3211   -2.8082   -1.6205 H   0  0  0  0  0  0  0  0  0  0  0  0
    0.8304    0.7367   -0.9051 H   0  0  0  0  0  0  0  0  0  0  0  0
    1.4611    2.1370   -0.0193 H   0  0  0  0  0  0  0  0  0  0  0  0
    3.6795    1.6931   -1.0557 H   0  0  0  0  0  0  0  0  0  0  0  0
    3.8979    1.9970    0.6878 H   0  0  0  0  0  0  0  0  0  0  0  0
   -2.6762   -0.2132    2.1094 H   0  0  0  0  0  0  0  0  0  0  0  0
   -3.6529    1.1694    2.6353 H   0  0  0  0  0  0  0  0  0  0  0  0
   -1.6629    2.5583    2.9840 H   0  0  0  0  0  0  0  0  0  0  0  0
   -1.4580    1.0283    3.8334 H   0  0  0  0  0  0  0  0  0  0  0  0
   -1.2234   -1.4908    0.7768 H   0  0  0  0  0  0  0  0  0  0  0  0
   -0.5714    2.2214   -1.8036 H   0  0  0  0  0  0  0  0  0  0  0  0
   -3.2227   -1.6657   -0.2942 H   0  0  0  0  0  0  0  0  0  0  0  0
   -2.4697   -2.4822   -1.6695 H   0  0  0  0  0  0  0  0  0  0  0  0
   -4.9030    1.3794    0.4835 H   0  0  0  0  0  0  0  0  0  0  0  0
    7.1168    2.1135   -0.6129 H   0  0  0  0  0  0  0  0  0  0  0  0
   -2.6889    2.5636   -2.9971 H   0  0  0  0  0  0  0  0  0  0  0  0
   -2.2453   -4.5753   -0.3212 H   0  0  0  0  0  0  0  0  0  0  0  0
   -3.9239   -4.0570   -0.4791 H   0  0  0  0  0  0  0  0  0  0  0  0
   -2.1411   -3.6258    1.9797 H   0  0  0  0  0  0  0  0  0  0  0  0
   -3.8036   -3.0259    1.8148 H   0  0  0  0  0  0  0  0  0  0  0  0
   -3.4822   -4.7682    1.8253 H   0  0  0  0  0  0  0  0  0  0  0  0
  1 26  1  0  0  0  0
  2 16  2  0  0  0  0
  3 18  1  0  0  0  0
  3 50  1  0  0  0  0
  4 18  2  0  0  0  0
  5 11  1  0  0  0  0
  5 12  1  0  0  0  0
  5 16  1  0  0  0  0
  6 15  2  0  0  0  0
  6 21  1  0  0  0  0
  7 16  1  0  0  0  0
  7 23  1  0  0  0  0
  7 45  1  0  0  0  0
  8  9  1  0  0  0  0
  8 11  1  0  0  0  0
  8 13  1  0  0  0  0
  8 29  1  0  0  0  0
  9 10  1  0  0  0  0
  9 14  1  0  0  0  0
  9 30  1  0  0  0  0
 10 12  1  0  0  0  0
 10 31  1  0  0  0  0
 10 32  1  0  0  0  0
 11 33  1  0  0  0  0
 11 34  1  0  0  0  0
 12 35  1  0  0  0  0
 12 36  1  0  0  0  0
 13 15  1  0  0  0  0
 13 37  1  0  0  0  0
 13 38  1  0  0  0  0
 14 18  1  0  0  0  0
 14 39  1  0  0  0  0
 14 40  1  0  0  0  0
 15 17  1  0  0  0  0
 17 19  2  0  0  0  0
 17 22  1  0  0  0  0
 19 20  1  0  0  0  0
 19 24  1  0  0  0  0
 20 21  1  0  0  0  0
 20 41  1  0  0  0  0
 20 42  1  0  0  0  0
 21 43  1  0  0  0  0
 21 44  1  0  0  0  0
 22 25  2  0  0  0  0
 22 46  1  0  0  0  0
 23 27  1  0  0  0  0
 23 47  1  0  0  0  0
 23 48  1  0  0  0  0
 24 26  2  0  0  0  0
 24 49  1  0  0  0  0
 25 26  1  0  0  0  0
 25 51  1  0  0  0  0
 27 28  1  0  0  0  0
 27 52  1  0  0  0  0
 27 53  1  0  0  0  0
 28 54  1  0  0  0  0
 28 55  1  0  0  0  0
 28 56  1  0  0  0  0
M  END
> <PUBCHEM_COMPOUND_CID>
51136788

> <PUBCHEM_CONFORMER_RMSD>
1

> <PUBCHEM_CONFORMER_DIVERSEORDER>
1
21
18
62
3
76
77
50
14
60
17
23
80
81
75
79
26
57
64
24
47
39
12
66
71
10
15
56
37
69
2
43
49
61
27
55
74
31
63
59
65
11
67
28
72
20
35
38
19
58
5
32
51
53
29
52
36
44
46
8
4
22
82
73
45
6
30
34
70
9
16
78
68
25
40
42
7
54
41
48
13
33

> <PUBCHEM_MMFF94_PARTIAL_CHARGES>
28
1 -0.19
11 0.3
12 0.3
13 0.06
14 0.06
15 0.3
16 0.69
17 0.09
18 0.66
19 -0.14
2 -0.57
20 0.14
21 0.25
22 -0.15
23 0.3
24 -0.15
25 -0.15
26 0.19
3 -0.65
4 -0.57
45 0.37
46 0.15
49 0.15
5 -0.66
50 0.5
51 0.15
6 -0.7
7 -0.73

> <PUBCHEM_EFFECTIVE_ROTOR_COUNT>
9.6

> <PUBCHEM_PHARMACOPHORE_FEATURES>
10
1 2 acceptor
1 28 hydrophobe
1 3 acceptor
1 4 acceptor
1 6 acceptor
1 7 donor
3 3 4 18 anion
6 17 19 22 24 25 26 rings
6 5 8 9 10 11 12 rings
6 6 15 17 19 20 21 rings

> <PUBCHEM_HEAVY_ATOM_COUNT>
28

> <PUBCHEM_ATOM_DEF_STEREO_COUNT>
2

> <PUBCHEM_ATOM_UDEF_STEREO_COUNT>
0

> <PUBCHEM_BOND_DEF_STEREO_COUNT>
0

> <PUBCHEM_BOND_UDEF_STEREO_COUNT>
0

> <PUBCHEM_ISOTOPIC_ATOM_COUNT>
0

> <PUBCHEM_COMPONENT_COUNT>
1

> <PUBCHEM_CACTVS_TAUTO_COUNT>
2

> <PUBCHEM_CONFORMER_ID>
030C491400000001

> <PUBCHEM_MMFF94_ENERGY>
56.5903

> <PUBCHEM_FEATURE_SELFOVERLAP>
50.828

> <PUBCHEM_SHAPE_FINGERPRINT>
104564 63 18269271438130219835
10675989 125 17617372884145595541
10688039 33 18046631380219727843
11135609 187 18200305529451654097
11582403 64 17314774214342210525
12422481 6 18195833944109192163
13583140 156 17749960960071825576
1361 2 18189607264312743101
13911987 19 18411425007843297500
14468879 13 17896603886298445133
14713325 29 18334856168534247151
15276724 80 18051978314393133388
17138139 8 17701224071708989975
17357779 13 18127678543009107607
17492 54 18264749039958139165
17980427 23 15285940064391205956
17980427 26 16227712347968714200
21049683 271 17549266277566950894
21236236 1 18341899653507795930
21641784 216 18045797929067557852
22182313 1 18059309716066973246
23227448 37 18334576858416187388
23419403 2 17486763349174296945
238 59 17904757782962141311
350125 39 18126293171306172344
4058900 60 18194399979457830313
4409770 3 18272366528897383959
469060 322 18043261329666798595
5951187 136 16595592330274824045
7237137 82 18198067069964139092

> <PUBCHEM_SHAPE_MULTIPOLES>
536.4
9.72
4.3
1.98
13.6
4.57
-0.71
-5.18
2.58
-4.69
0.85
-2.21
-0.89
1.47

> <PUBCHEM_SHAPE_SELFOVERLAP>
1123.337

> <PUBCHEM_SHAPE_VOLUME>
302.4

> <PUBCHEM_COORDINATE_TYPE>
2
5
10

$$$$
