11912229
  -OEChem-12032416413D

 50 50  0     1  0  0  0  0  0999 V2000
   -3.6500   -2.0994   -0.3614 O   0  0  0  0  0  0  0  0  0  0  0  0
    2.6537    2.2267   -0.5655 O   0  0  0  0  0  0  0  0  0  0  0  0
   -1.8250   -0.9965    0.5497 N   0  0  0  0  0  0  0  0  0  0  0  0
   -3.9424    0.0442    0.3989 N   0  0  0  0  0  0  0  0  0  0  0  0
    4.0143    0.7067    0.5382 N   0  0  0  0  0  0  0  0  0  0  0  0
    6.0501   -1.6463   -0.9004 N   0  0  0  0  0  0  0  0  0  0  0  0
    0.9789   -0.4994    0.0302 C   0  0  1  0  0  0  0  0  0  0  0  0
   -0.0028    0.6677    0.3157 C   0  0  2  0  0  0  0  0  0  0  0  0
    0.2522   -1.7303   -0.5420 C   0  0  0  0  0  0  0  0  0  0  0  0
   -1.1706    0.1599    1.1788 C   0  0  0  0  0  0  0  0  0  0  0  0
   -0.9335   -2.1365    0.3320 C   0  0  0  0  0  0  0  0  0  0  0  0
   -0.5313    1.3616   -0.9451 C   0  0  0  0  0  0  0  0  0  0  0  0
    2.1456   -0.0956   -0.8706 C   0  0  0  0  0  0  0  0  0  0  0  0
   -1.3787    2.5660   -0.5923 C   0  0  0  0  0  0  0  0  0  0  0  0
   -3.1718   -1.0877    0.1627 C   0  0  0  0  0  0  0  0  0  0  0  0
    2.9482    1.0591   -0.2961 C   0  0  0  0  0  0  0  0  0  0  0  0
   -5.3436    0.1075    0.0480 C   0  0  0  0  0  0  0  0  0  0  0  0
    4.3441   -0.6837    0.8428 C   0  0  0  0  0  0  0  0  0  0  0  0
    4.8766    1.7002    1.1664 C   0  0  0  0  0  0  0  0  0  0  0  0
   -6.0999    0.9986    1.0255 C   0  0  0  0  0  0  0  0  0  0  0  0
   -5.5089    0.5958   -1.3853 C   0  0  0  0  0  0  0  0  0  0  0  0
    5.2950   -1.2186   -0.1301 C   0  0  0  0  0  0  0  0  0  0  0  0
    1.3827   -0.7970    1.0072 H   0  0  0  0  0  0  0  0  0  0  0  0
    0.5299    1.4177    0.9156 H   0  0  0  0  0  0  0  0  0  0  0  0
   -0.1024   -1.5142   -1.5575 H   0  0  0  0  0  0  0  0  0  0  0  0
    0.9481   -2.5740   -0.6202 H   0  0  0  0  0  0  0  0  0  0  0  0
   -1.8554    0.9589    1.4535 H   0  0  0  0  0  0  0  0  0  0  0  0
   -0.7726   -0.2026    2.1365 H   0  0  0  0  0  0  0  0  0  0  0  0
   -0.5879   -2.4797    1.3143 H   0  0  0  0  0  0  0  0  0  0  0  0
   -1.4652   -2.9709   -0.1356 H   0  0  0  0  0  0  0  0  0  0  0  0
    0.2931    1.7234   -1.5651 H   0  0  0  0  0  0  0  0  0  0  0  0
   -1.1143    0.6761   -1.5697 H   0  0  0  0  0  0  0  0  0  0  0  0
    1.7866    0.2181   -1.8585 H   0  0  0  0  0  0  0  0  0  0  0  0
    2.7815   -0.9544   -1.0995 H   0  0  0  0  0  0  0  0  0  0  0  0
   -1.5676    3.1572   -1.4954 H   0  0  0  0  0  0  0  0  0  0  0  0
   -0.8723    3.2191    0.1257 H   0  0  0  0  0  0  0  0  0  0  0  0
   -2.3562    2.2978   -0.1920 H   0  0  0  0  0  0  0  0  0  0  0  0
   -3.5397    0.8853    0.7832 H   0  0  0  0  0  0  0  0  0  0  0  0
   -5.7632   -0.9034    0.1167 H   0  0  0  0  0  0  0  0  0  0  0  0
    4.7790   -0.7204    1.8489 H   0  0  0  0  0  0  0  0  0  0  0  0
    3.4557   -1.3141    0.8877 H   0  0  0  0  0  0  0  0  0  0  0  0
    5.9127    1.5203    0.8660 H   0  0  0  0  0  0  0  0  0  0  0  0
    4.5904    2.7117    0.8669 H   0  0  0  0  0  0  0  0  0  0  0  0
    4.7844    1.6140    2.2530 H   0  0  0  0  0  0  0  0  0  0  0  0
   -5.7206    2.0265    1.0025 H   0  0  0  0  0  0  0  0  0  0  0  0
   -7.1682    1.0238    0.7870 H   0  0  0  0  0  0  0  0  0  0  0  0
   -5.9897    0.6298    2.0511 H   0  0  0  0  0  0  0  0  0  0  0  0
   -6.5662    0.6309   -1.6678 H   0  0  0  0  0  0  0  0  0  0  0  0
   -5.0875    1.5992   -1.5131 H   0  0  0  0  0  0  0  0  0  0  0  0
   -4.9940   -0.0681   -2.0883 H   0  0  0  0  0  0  0  0  0  0  0  0
  1 15  2  0  0  0  0
  2 16  2  0  0  0  0
  3 10  1  0  0  0  0
  3 11  1  0  0  0  0
  3 15  1  0  0  0  0
  4 15  1  0  0  0  0
  4 17  1  0  0  0  0
  4 38  1  0  0  0  0
  5 16  1  0  0  0  0
  5 18  1  0  0  0  0
  5 19  1  0  0  0  0
  6 22  3  0  0  0  0
  7  8  1  0  0  0  0
  7  9  1  0  0  0  0
  7 13  1  0  0  0  0
  7 23  1  0  0  0  0
  8 10  1  0  0  0  0
  8 12  1  0  0  0  0
  8 24  1  0  0  0  0
  9 11  1  0  0  0  0
  9 25  1  0  0  0  0
  9 26  1  0  0  0  0
 10 27  1  0  0  0  0
 10 28  1  0  0  0  0
 11 29  1  0  0  0  0
 11 30  1  0  0  0  0
 12 14  1  0  0  0  0
 12 31  1  0  0  0  0
 12 32  1  0  0  0  0
 13 16  1  0  0  0  0
 13 33  1  0  0  0  0
 13 34  1  0  0  0  0
 14 35  1  0  0  0  0
 14 36  1  0  0  0  0
 14 37  1  0  0  0  0
 17 20  1  0  0  0  0
 17 21  1  0  0  0  0
 17 39  1  0  0  0  0
 18 22  1  0  0  0  0
 18 40  1  0  0  0  0
 18 41  1  0  0  0  0
 19 42  1  0  0  0  0
 19 43  1  0  0  0  0
 19 44  1  0  0  0  0
 20 45  1  0  0  0  0
 20 46  1  0  0  0  0
 20 47  1  0  0  0  0
 21 48  1  0  0  0  0
 21 49  1  0  0  0  0
 21 50  1  0  0  0  0
M  END
> <PUBCHEM_COMPOUND_CID>
11912229

> <PUBCHEM_CONFORMER_RMSD>
1

> <PUBCHEM_CONFORMER_DIVERSEORDER>
9
71
217
116
109
8
165
221
94
42
56
174
129
115
176
159
67
131
222
149
213
187
186
30
212
83
63
128
220
226
37
198
215
206
204
118
139
96
211
64
19
35
181
201
177
44
72
41
111
167
117
179
197
39
95
172
182
171
191
170
33
79
151
85
89
70
75
88
203
214
13
90
183
10
81
143
141
185
73
77
210
227
74
166
87
192
152
27
164
224
162
126
62
86
169
52
140
92
132
223
156
145
188
105
173
190
14
100
59
158
5
194
161
124
130
122
137
51
31
178
184
119
55
175
40
123
49
136
196
163
76
113
22
66
112
114
43
225
193
61
144
208
4
160
168
121
135
120
148
205
107
157
93
80
48
219
6
15
99
98
82
29
1
110
24
103
3
142
54
200
78
102
16
125
7
150
11
218
180
25
12
153
26
155
69
209
46
32
50
101
20
127
147
2
146
138
216
38
53
195
154
84
104
23
199
21
45
60
28
65
202
17
97
18
47
133
189
91
34
108
106
57
134
68
207
58
36

> <PUBCHEM_MMFF94_PARTIAL_CHARGES>
16
1 -0.57
10 0.3
11 0.3
13 0.06
15 0.69
16 0.57
17 0.3
18 0.5
19 0.3
2 -0.57
22 0.36
3 -0.66
38 0.37
4 -0.73
5 -0.66
6 -0.56

> <PUBCHEM_EFFECTIVE_ROTOR_COUNT>
9.2

> <PUBCHEM_PHARMACOPHORE_FEATURES>
7
1 1 acceptor
1 14 hydrophobe
1 2 acceptor
1 4 donor
1 6 acceptor
3 17 20 21 hydrophobe
6 3 7 8 9 10 11 rings

> <PUBCHEM_HEAVY_ATOM_COUNT>
22

> <PUBCHEM_ATOM_DEF_STEREO_COUNT>
2

> <PUBCHEM_ATOM_UDEF_STEREO_COUNT>
0

> <PUBCHEM_BOND_DEF_STEREO_COUNT>
0

> <PUBCHEM_BOND_UDEF_STEREO_COUNT>
0

> <PUBCHEM_ISOTOPIC_ATOM_COUNT>
0

> <PUBCHEM_COMPONENT_COUNT>
1

> <PUBCHEM_CACTVS_TAUTO_COUNT>
2

> <PUBCHEM_CONFORMER_ID>
00B5C42500000009

> <PUBCHEM_MMFF94_ENERGY>
41.7081

> <PUBCHEM_FEATURE_SELFOVERLAP>
35.522

> <PUBCHEM_SHAPE_FINGERPRINT>
12011746 2 18334298630698587214
12236239 1 17775282768461972607
12403259 415 18336539435206227116
13533116 47 17988642974310190418
14251758 9 18040996237208640363
15183329 4 18334572425988819063
15196674 1 18338518646071788267
15531645 54 18409451366948126574
15788980 27 18113337531095609067
17834072 8 18260829284662028022
19141452 34 18412262869466710879
21150785 3 14273751649998288584
21267235 1 18261402135010743859
21279426 13 18408597042070930869
2215653 11 18343024367972419406
23402539 116 18410285939233629847
23559900 14 18341613750272032202
335352 9 18409452474780540615
34797466 226 16343149155004831377
350125 39 18411704270911012524
351380 180 18409445907717424904
4340502 62 14620795994025549684
5104073 3 18335983180837425363
56616090 46 17967531251366207635
59755656 215 18335984151716779206
633830 44 17531524403142739898
6913067 236 13686297950428337466

> <PUBCHEM_SHAPE_MULTIPOLES>
421.09
13.52
2.31
1.11
1.36
0.24
0
-0.06
-0.63
-0.66
0.29
0.19
0.22
0.69

> <PUBCHEM_SHAPE_SELFOVERLAP>
826.879

> <PUBCHEM_SHAPE_VOLUME>
248.9

> <PUBCHEM_COORDINATE_TYPE>
2
5
10

$$$$
