26745474
  -OEChem-12032416183D

 55 58  0     1  0  0  0  0  0999 V2000
   -5.9172    2.8965   -0.7462 Cl  0  0  0  0  0  0  0  0  0  0  0  0
    1.9528   -2.4418    0.0588 S   0  0  0  0  0  0  0  0  0  0  0  0
    2.3759   -2.5973    1.4337 O   0  0  0  0  0  0  0  0  0  0  0  0
    2.5550   -3.2224   -1.0002 O   0  0  0  0  0  0  0  0  0  0  0  0
    5.5291    0.2251   -0.2795 O   0  0  0  0  0  0  0  0  0  0  0  0
    4.0512   -0.4024    1.3814 O   0  0  0  0  0  0  0  0  0  0  0  0
   -4.5771   -4.0083    0.6972 O   0  0  0  0  0  0  0  0  0  0  0  0
    2.0258   -0.7829   -0.3635 N   0  0  2  0  0  0  0  0  0  0  0  0
    0.6990    2.6275    0.4108 N   0  0  0  0  0  0  0  0  0  0  0  0
    2.0846    3.2878   -1.2127 N   0  0  0  0  0  0  0  0  0  0  0  0
    3.3384   -0.2839   -0.9121 C   0  0  1  0  0  0  0  0  0  0  0  0
    1.2903    0.1520    0.5653 C   0  0  0  0  0  0  0  0  0  0  0  0
    3.1733    1.0483   -1.6752 C   0  0  0  0  0  0  0  0  0  0  0  0
    1.3941    1.5209    0.0246 C   0  0  0  0  0  0  0  0  0  0  0  0
    2.2395    1.9521   -0.9676 C   0  0  0  0  0  0  0  0  0  0  0  0
    4.3197   -0.1700    0.2105 C   0  0  0  0  0  0  0  0  0  0  0  0
   -0.3112    2.7102    1.4374 C   0  0  0  0  0  0  0  0  0  0  0  0
    1.1495    3.6665   -0.3643 C   0  0  0  0  0  0  0  0  0  0  0  0
    0.2074   -2.6982   -0.0020 C   0  0  0  0  0  0  0  0  0  0  0  0
   -1.7164    2.7566    0.8910 C   0  0  0  0  0  0  0  0  0  0  0  0
   -0.4564   -2.6864   -1.2289 C   0  0  0  0  0  0  0  0  0  0  0  0
   -0.5084   -2.9095    1.1763 C   0  0  0  0  0  0  0  0  0  0  0  0
   -1.8359   -2.8861   -1.2772 C   0  0  0  0  0  0  0  0  0  0  0  0
   -1.8881   -3.1089    1.1280 C   0  0  0  0  0  0  0  0  0  0  0  0
   -2.2199    3.9451    0.3620 C   0  0  0  0  0  0  0  0  0  0  0  0
   -2.5125    1.6113    0.9143 C   0  0  0  0  0  0  0  0  0  0  0  0
   -2.5519   -3.0975   -0.0988 C   0  0  0  0  0  0  0  0  0  0  0  0
    6.5677    0.3746    0.6937 C   0  0  0  0  0  0  0  0  0  0  0  0
   -3.5192    3.9885   -0.1433 C   0  0  0  0  0  0  0  0  0  0  0  0
   -3.8119    1.6547    0.4092 C   0  0  0  0  0  0  0  0  0  0  0  0
   -4.3153    2.8433   -0.1197 C   0  0  0  0  0  0  0  0  0  0  0  0
   -3.9903   -3.3051   -0.1495 C   0  0  0  0  0  0  0  0  0  0  0  0
   -4.8216   -2.6602   -1.2535 C   0  0  0  0  0  0  0  0  0  0  0  0
    3.7301   -1.0286   -1.6156 H   0  0  0  0  0  0  0  0  0  0  0  0
    1.6919    0.1031    1.5806 H   0  0  0  0  0  0  0  0  0  0  0  0
    0.2336   -0.1260    0.5948 H   0  0  0  0  0  0  0  0  0  0  0  0
    2.7457    0.8355   -2.6633 H   0  0  0  0  0  0  0  0  0  0  0  0
    4.1316    1.5511   -1.8417 H   0  0  0  0  0  0  0  0  0  0  0  0
   -0.1095    3.6137    2.0271 H   0  0  0  0  0  0  0  0  0  0  0  0
   -0.1846    1.8669    2.1259 H   0  0  0  0  0  0  0  0  0  0  0  0
    0.7710    4.6744   -0.2631 H   0  0  0  0  0  0  0  0  0  0  0  0
    0.0877   -2.5219   -2.1550 H   0  0  0  0  0  0  0  0  0  0  0  0
   -0.0175   -2.9190    2.1450 H   0  0  0  0  0  0  0  0  0  0  0  0
   -2.3255   -2.8833   -2.2471 H   0  0  0  0  0  0  0  0  0  0  0  0
   -2.4302   -3.2666    2.0568 H   0  0  0  0  0  0  0  0  0  0  0  0
   -1.6170    4.8486    0.3457 H   0  0  0  0  0  0  0  0  0  0  0  0
   -2.1329    0.6783    1.3223 H   0  0  0  0  0  0  0  0  0  0  0  0
    7.4766    0.6908    0.1751 H   0  0  0  0  0  0  0  0  0  0  0  0
    6.7609   -0.5808    1.1909 H   0  0  0  0  0  0  0  0  0  0  0  0
    6.2944    1.1425    1.4236 H   0  0  0  0  0  0  0  0  0  0  0  0
   -3.8989    4.9220   -0.5507 H   0  0  0  0  0  0  0  0  0  0  0  0
   -4.4199    0.7538    0.4325 H   0  0  0  0  0  0  0  0  0  0  0  0
   -4.8695   -3.3308   -2.1149 H   0  0  0  0  0  0  0  0  0  0  0  0
   -4.3977   -1.6952   -1.5446 H   0  0  0  0  0  0  0  0  0  0  0  0
   -5.8320   -2.4746   -0.8770 H   0  0  0  0  0  0  0  0  0  0  0  0
  1 31  1  0  0  0  0
  2  3  2  0  0  0  0
  2  4  2  0  0  0  0
  2  8  1  0  0  0  0
  2 19  1  0  0  0  0
  5 16  1  0  0  0  0
  5 28  1  0  0  0  0
  6 16  2  0  0  0  0
  7 32  2  0  0  0  0
  8 11  1  0  0  0  0
  8 12  1  0  0  0  0
  9 14  1  0  0  0  0
  9 17  1  0  0  0  0
  9 18  1  0  0  0  0
 10 15  1  0  0  0  0
 10 18  2  0  0  0  0
 11 13  1  0  0  0  0
 11 16  1  0  0  0  0
 11 34  1  0  0  0  0
 12 14  1  0  0  0  0
 12 35  1  0  0  0  0
 12 36  1  0  0  0  0
 13 15  1  0  0  0  0
 13 37  1  0  0  0  0
 13 38  1  0  0  0  0
 14 15  2  0  0  0  0
 17 20  1  0  0  0  0
 17 39  1  0  0  0  0
 17 40  1  0  0  0  0
 18 41  1  0  0  0  0
 19 21  2  0  0  0  0
 19 22  1  0  0  0  0
 20 25  2  0  0  0  0
 20 26  1  0  0  0  0
 21 23  1  0  0  0  0
 21 42  1  0  0  0  0
 22 24  2  0  0  0  0
 22 43  1  0  0  0  0
 23 27  2  0  0  0  0
 23 44  1  0  0  0  0
 24 27  1  0  0  0  0
 24 45  1  0  0  0  0
 25 29  1  0  0  0  0
 25 46  1  0  0  0  0
 26 30  2  0  0  0  0
 26 47  1  0  0  0  0
 27 32  1  0  0  0  0
 28 48  1  0  0  0  0
 28 49  1  0  0  0  0
 28 50  1  0  0  0  0
 29 31  2  0  0  0  0
 29 51  1  0  0  0  0
 30 31  1  0  0  0  0
 30 52  1  0  0  0  0
 32 33  1  0  0  0  0
 33 53  1  0  0  0  0
 33 54  1  0  0  0  0
 33 55  1  0  0  0  0
M  END
> <PUBCHEM_COMPOUND_CID>
26745474

> <PUBCHEM_CONFORMER_RMSD>
1

> <PUBCHEM_CONFORMER_DIVERSEORDER>
1
63
105
86
79
49
24
84
99
101
68
14
26
11
93
88
73
28
95
97
3
67
66
89
60
98
8
91
51
5
76
69
80
32
35
6
94
29
83
42
19
36
92
25
71
106
72
15
104
64
41
103
78
45
23
16
54
10
52
81
85
77
43
38
53
90
62
58
87
75
31
27
107
4
57
96
18
100
44
40
20
61
34
102
21
2
56
74
13
108
22
65
48
39
50
82
37
59
46
30
12
47
7
70
33
17
55
9

> <PUBCHEM_MMFF94_PARTIAL_CHARGES>
42
1 -0.18
10 -0.57
11 0.42
12 0.54
13 0.18
14 -0.33
15 0.05
16 0.66
17 0.4
18 0.04
19 -0.01
2 1.45
20 -0.14
21 -0.15
22 -0.15
23 -0.15
24 -0.15
25 -0.15
26 -0.15
27 0.09
28 0.28
29 -0.15
3 -0.65
30 -0.15
31 0.18
32 0.42
33 0.06
4 -0.65
41 0.15
42 0.15
43 0.15
44 0.15
45 0.15
46 0.15
47 0.15
5 -0.43
51 0.15
52 0.15
6 -0.57
7 -0.57
8 -0.85
9 0.05

> <PUBCHEM_EFFECTIVE_ROTOR_COUNT>
7.8

> <PUBCHEM_PHARMACOPHORE_FEATURES>
9
1 3 acceptor
1 4 acceptor
1 6 acceptor
1 7 acceptor
3 9 10 18 cation
5 9 10 14 15 18 rings
6 19 21 22 23 24 27 rings
6 20 25 26 29 30 31 rings
6 8 11 12 13 14 15 rings

> <PUBCHEM_HEAVY_ATOM_COUNT>
33

> <PUBCHEM_ATOM_DEF_STEREO_COUNT>
1

> <PUBCHEM_ATOM_UDEF_STEREO_COUNT>
0

> <PUBCHEM_BOND_DEF_STEREO_COUNT>
0

> <PUBCHEM_BOND_UDEF_STEREO_COUNT>
0

> <PUBCHEM_ISOTOPIC_ATOM_COUNT>
0

> <PUBCHEM_COMPONENT_COUNT>
1

> <PUBCHEM_CACTVS_TAUTO_COUNT>
2

> <PUBCHEM_CONFORMER_ID>
01981A8200000001

> <PUBCHEM_MMFF94_ENERGY>
73.4835

> <PUBCHEM_FEATURE_SELFOVERLAP>
45.798

> <PUBCHEM_SHAPE_FINGERPRINT>
10074138 170 18192967427865820338
10190206 1 17686366538951600780
10675989 125 17976257168458765345
1100329 8 18410858771622287360
11513181 2 18058447599786903967
12788726 201 18193852654568493340
13122387 1 18411705413245751637
13590594 115 18268144451707447130
1361 2 18049722924060959665
14725015 67 18267860765007280115
15210252 30 17252587284338181085
15297060 5 17988641835606027539
15406563 228 18187362159709708693
15483637 11 18410014364694405103
15484559 13 17907861704625048045
16114785 44 17413551225905582168
161222 619 17617977671981382001
17138139 8 17986365881355283557
20028762 73 17694776324844038311
20642791 105 18410571816377622240
20764821 26 18266749158951674997
20775438 99 18056752135819390007
21133410 62 18044639929424717925
21583282 1 17535778217012124486
22113638 7 18121216481233371097
3052486 1 18410570712934965586
338550 245 18408325480131777885
4066623 53 18125424561441245759
463206 1 18342172207827363929
5171179 24 17772738610340929000
66674814 147 18049145684550585917

> <PUBCHEM_SHAPE_MULTIPOLES>
640.55
10.63
7.12
1.33
2.04
1.33
0.06
-2.65
0.76
-8.82
0.1
0.3
0.26
-0.72

> <PUBCHEM_SHAPE_SELFOVERLAP>
1366.066

> <PUBCHEM_SHAPE_VOLUME>
357.4

> <PUBCHEM_COORDINATE_TYPE>
2
5
10

$$$$
