26743242
  -OEChem-12032416193D

 68 71  0     1  0  0  0  0  0999 V2000
    0.4187    3.3504    1.6772 O   0  0  0  0  0  0  0  0  0  0  0  0
    0.5224   -1.1513   -1.6522 O   0  0  0  0  0  0  0  0  0  0  0  0
    5.7300    0.0466   -0.9285 N   0  0  0  0  0  0  0  0  0  0  0  0
    1.7696    3.0332    1.7511 N   0  0  0  0  0  0  0  0  0  0  0  0
    0.5515   -3.0326   -0.2961 N   0  0  0  0  0  0  0  0  0  0  0  0
    3.7272    0.8168    0.3209 C   0  0  2  0  0  0  0  0  0  0  0  0
    2.7943    0.0317   -0.6317 C   0  0  1  0  0  0  0  0  0  0  0  0
    3.5053   -0.1646   -1.9812 C   0  0  0  0  0  0  0  0  0  0  0  0
    5.1259    0.1818    0.3973 C   0  0  0  0  0  0  0  0  0  0  0  0
    3.1407    0.9946    1.7220 C   0  0  0  0  0  0  0  0  0  0  0  0
   -2.2960    2.1893    0.0481 C   0  0  0  0  0  0  0  0  0  0  0  0
    4.9032   -0.7612   -1.8227 C   0  0  0  0  0  0  0  0  0  0  0  0
    2.3137   -1.3108   -0.0679 C   0  0  0  0  0  0  0  0  0  0  0  0
   -3.8250    2.3190    0.0253 C   0  0  0  0  0  0  0  0  0  0  0  0
   -1.6473    3.2061   -0.9008 C   0  0  0  0  0  0  0  0  0  0  0  0
   -1.7613    2.3599    1.4688 C   0  0  0  0  0  0  0  0  0  0  0  0
   -4.3793    2.2051   -1.3929 C   0  0  0  0  0  0  0  0  0  0  0  0
   -2.2052    3.0909   -2.3175 C   0  0  0  0  0  0  0  0  0  0  0  0
   -3.7259    3.2112   -2.3351 C   0  0  0  0  0  0  0  0  0  0  0  0
    1.8163    1.7001    1.6751 C   0  0  0  0  0  0  0  0  0  0  0  0
   -0.3043    2.2073    1.5599 C   0  0  0  0  0  0  0  0  0  0  0  0
    1.0517   -1.8084   -0.7521 C   0  0  0  0  0  0  0  0  0  0  0  0
    0.5384    1.1274    1.5536 C   0  0  0  0  0  0  0  0  0  0  0  0
   -0.6534   -3.6428   -0.8534 C   0  0  0  0  0  0  0  0  0  0  0  0
    1.1945   -3.7915    0.7695 C   0  0  0  0  0  0  0  0  0  0  0  0
   -1.8963   -3.1719   -0.1551 C   0  0  0  0  0  0  0  0  0  0  0  0
   -2.3762   -3.8643    0.9566 C   0  0  0  0  0  0  0  0  0  0  0  0
   -2.5710   -2.0424   -0.6179 C   0  0  0  0  0  0  0  0  0  0  0  0
   -3.5309   -3.4271    1.6056 C   0  0  0  0  0  0  0  0  0  0  0  0
   -3.7256   -1.6050    0.0310 C   0  0  0  0  0  0  0  0  0  0  0  0
   -4.2057   -2.2973    1.1428 C   0  0  0  0  0  0  0  0  0  0  0  0
    3.8548    1.8203   -0.1148 H   0  0  0  0  0  0  0  0  0  0  0  0
    1.9218    0.6645   -0.8380 H   0  0  0  0  0  0  0  0  0  0  0  0
    3.5921    0.8110   -2.4784 H   0  0  0  0  0  0  0  0  0  0  0  0
    2.9154   -0.7971   -2.6536 H   0  0  0  0  0  0  0  0  0  0  0  0
    5.7801    0.8146    1.0082 H   0  0  0  0  0  0  0  0  0  0  0  0
    5.0821   -0.7972    0.8906 H   0  0  0  0  0  0  0  0  0  0  0  0
    3.0510    0.0473    2.2639 H   0  0  0  0  0  0  0  0  0  0  0  0
    3.8335    1.5997    2.3235 H   0  0  0  0  0  0  0  0  0  0  0  0
   -2.0336    1.1830   -0.3072 H   0  0  0  0  0  0  0  0  0  0  0  0
    4.8582   -1.7966   -1.4681 H   0  0  0  0  0  0  0  0  0  0  0  0
    5.3852   -0.7919   -2.8064 H   0  0  0  0  0  0  0  0  0  0  0  0
    2.0753   -1.2386    0.9933 H   0  0  0  0  0  0  0  0  0  0  0  0
    3.0964   -2.0661   -0.1837 H   0  0  0  0  0  0  0  0  0  0  0  0
    6.6496   -0.3843   -0.8378 H   0  0  0  0  0  0  0  0  0  0  0  0
   -4.1225    3.2871    0.4488 H   0  0  0  0  0  0  0  0  0  0  0  0
   -4.2786    1.5471    0.6576 H   0  0  0  0  0  0  0  0  0  0  0  0
   -0.5626    3.0588   -0.9536 H   0  0  0  0  0  0  0  0  0  0  0  0
   -1.8146    4.2254   -0.5296 H   0  0  0  0  0  0  0  0  0  0  0  0
   -2.0563    3.3408    1.8638 H   0  0  0  0  0  0  0  0  0  0  0  0
   -2.2340    1.6173    2.1245 H   0  0  0  0  0  0  0  0  0  0  0  0
   -5.4635    2.3636   -1.3784 H   0  0  0  0  0  0  0  0  0  0  0  0
   -4.2096    1.1916   -1.7748 H   0  0  0  0  0  0  0  0  0  0  0  0
   -1.9103    2.1258   -2.7480 H   0  0  0  0  0  0  0  0  0  0  0  0
   -1.7668    3.8703   -2.9509 H   0  0  0  0  0  0  0  0  0  0  0  0
   -4.0965    3.0567   -3.3546 H   0  0  0  0  0  0  0  0  0  0  0  0
   -4.0148    4.2276   -2.0404 H   0  0  0  0  0  0  0  0  0  0  0  0
    0.2521    0.0894    1.4857 H   0  0  0  0  0  0  0  0  0  0  0  0
   -0.5686   -4.7356   -0.8170 H   0  0  0  0  0  0  0  0  0  0  0  0
   -0.7153   -3.3793   -1.9168 H   0  0  0  0  0  0  0  0  0  0  0  0
    1.3720   -4.8119    0.4146 H   0  0  0  0  0  0  0  0  0  0  0  0
    0.5204   -3.8256    1.6301 H   0  0  0  0  0  0  0  0  0  0  0  0
    2.1484   -3.3933    1.1099 H   0  0  0  0  0  0  0  0  0  0  0  0
   -1.8623   -4.7479    1.3255 H   0  0  0  0  0  0  0  0  0  0  0  0
   -2.2144   -1.4952   -1.4861 H   0  0  0  0  0  0  0  0  0  0  0  0
   -3.9054   -3.9668    2.4704 H   0  0  0  0  0  0  0  0  0  0  0  0
   -4.2595   -0.7349   -0.3343 H   0  0  0  0  0  0  0  0  0  0  0  0
   -5.1064   -1.9583    1.6461 H   0  0  0  0  0  0  0  0  0  0  0  0
  1  4  1  0  0  0  0
  1 21  1  0  0  0  0
  2 22  2  0  0  0  0
  3  9  1  0  0  0  0
  3 12  1  0  0  0  0
  3 45  1  0  0  0  0
  4 20  2  0  0  0  0
  5 22  1  0  0  0  0
  5 24  1  0  0  0  0
  5 25  1  0  0  0  0
  6  7  1  0  0  0  0
  6  9  1  0  0  0  0
  6 10  1  0  0  0  0
  6 32  1  0  0  0  0
  7  8  1  0  0  0  0
  7 13  1  0  0  0  0
  7 33  1  0  0  0  0
  8 12  1  0  0  0  0
  8 34  1  0  0  0  0
  8 35  1  0  0  0  0
  9 36  1  0  0  0  0
  9 37  1  0  0  0  0
 10 20  1  0  0  0  0
 10 38  1  0  0  0  0
 10 39  1  0  0  0  0
 11 14  1  0  0  0  0
 11 15  1  0  0  0  0
 11 16  1  0  0  0  0
 11 40  1  0  0  0  0
 12 41  1  0  0  0  0
 12 42  1  0  0  0  0
 13 22  1  0  0  0  0
 13 43  1  0  0  0  0
 13 44  1  0  0  0  0
 14 17  1  0  0  0  0
 14 46  1  0  0  0  0
 14 47  1  0  0  0  0
 15 18  1  0  0  0  0
 15 48  1  0  0  0  0
 15 49  1  0  0  0  0
 16 21  1  0  0  0  0
 16 50  1  0  0  0  0
 16 51  1  0  0  0  0
 17 19  1  0  0  0  0
 17 52  1  0  0  0  0
 17 53  1  0  0  0  0
 18 19  1  0  0  0  0
 18 54  1  0  0  0  0
 18 55  1  0  0  0  0
 19 56  1  0  0  0  0
 19 57  1  0  0  0  0
 20 23  1  0  0  0  0
 21 23  2  0  0  0  0
 23 58  1  0  0  0  0
 24 26  1  0  0  0  0
 24 59  1  0  0  0  0
 24 60  1  0  0  0  0
 25 61  1  0  0  0  0
 25 62  1  0  0  0  0
 25 63  1  0  0  0  0
 26 27  2  0  0  0  0
 26 28  1  0  0  0  0
 27 29  1  0  0  0  0
 27 64  1  0  0  0  0
 28 30  2  0  0  0  0
 28 65  1  0  0  0  0
 29 31  2  0  0  0  0
 29 66  1  0  0  0  0
 30 31  1  0  0  0  0
 30 67  1  0  0  0  0
 31 68  1  0  0  0  0
M  END
> <PUBCHEM_COMPOUND_CID>
26743242

> <PUBCHEM_CONFORMER_RMSD>
1.6

> <PUBCHEM_CONFORMER_DIVERSEORDER>
1
12
44
23
73
42
65
55
17
11
67
40
47
72
63
28
84
25
13
59
86
46
31
75
6
3
43
41
56
80
33
14
18
21
49
74
51
88
81
35
48
82
62
78
45
26
9
58
34
71
37
87
54
70
52
32
24
36
19
64
5
76
22
85
50
38
30
8
10
77
69
79
27
66
68
39
60
15
29
57
53
2
7
61
20
16
83
4

> <PUBCHEM_MMFF94_PARTIAL_CHARGES>
29
1 -0.02
10 0.18
12 0.27
13 0.06
16 0.18
2 -0.57
20 0.11
21 -0.04
22 0.57
23 -0.15
24 0.44
25 0.3
26 -0.14
27 -0.15
28 -0.15
29 -0.15
3 -0.9
30 -0.15
31 -0.15
4 -0.41
45 0.36
5 -0.66
58 0.15
64 0.15
65 0.15
66 0.15
67 0.15
68 0.15
9 0.27

> <PUBCHEM_EFFECTIVE_ROTOR_COUNT>
11.4

> <PUBCHEM_PHARMACOPHORE_FEATURES>
8
1 2 acceptor
1 3 cation
1 3 donor
1 4 acceptor
5 1 4 20 21 23 rings
6 11 14 15 17 18 19 rings
6 26 27 28 29 30 31 rings
6 3 6 7 8 9 12 rings

> <PUBCHEM_HEAVY_ATOM_COUNT>
31

> <PUBCHEM_ATOM_DEF_STEREO_COUNT>
2

> <PUBCHEM_ATOM_UDEF_STEREO_COUNT>
0

> <PUBCHEM_BOND_DEF_STEREO_COUNT>
0

> <PUBCHEM_BOND_UDEF_STEREO_COUNT>
0

> <PUBCHEM_ISOTOPIC_ATOM_COUNT>
0

> <PUBCHEM_COMPONENT_COUNT>
1

> <PUBCHEM_CACTVS_TAUTO_COUNT>
1

> <PUBCHEM_CONFORMER_ID>
019811CA00000001

> <PUBCHEM_MMFF94_ENERGY>
48.4901

> <PUBCHEM_FEATURE_SELFOVERLAP>
40.597

> <PUBCHEM_SHAPE_FINGERPRINT>
10688039 33 18191590967313188378
108634 29 18131352969234927940
10940486 97 15099008107067074512
11421498 54 17895475950682729698
11513181 2 17127347334718388815
13402501 40 18343867736250620203
13617811 41 18115576055846787861
150020 26 17333099023292433715
16067689 391 17127635080817149542
16067689 68 17533184576603316768
19319366 153 15749287157938604868
20764821 26 18197763419949927683
22182313 1 18060131085623015056
25223398 141 18334012804840910396
3052486 1 18409729569380946600
35225 105 18194372607472536319
404807 78 18259987093895533631
4058900 60 17907306446542016921
4409770 3 18413112749063493526
463206 1 16757181975225411729
469060 322 18044121083799316643
508706 21 18411130372748434671
6287921 2 17114671168436444987

> <PUBCHEM_SHAPE_MULTIPOLES>
611.28
9.27
6.21
2.23
6.4
2.68
0.26
-1.07
2.78
-7.47
-0.5
0.13
-1.67
3.63

> <PUBCHEM_SHAPE_SELFOVERLAP>
1276.487

> <PUBCHEM_SHAPE_VOLUME>
342.8

> <PUBCHEM_COORDINATE_TYPE>
2
5
10

$$$$
