75536420
  -OEChem-12032416303D

 62 65  0     1  0  0  0  0  0999 V2000
    3.1622   -0.8540    0.7397 O   0  0  0  0  0  0  0  0  0  0  0  0
    5.9517   -1.7073    1.1629 O   0  0  0  0  0  0  0  0  0  0  0  0
   -1.1604    0.1502    0.9698 O   0  0  0  0  0  0  0  0  0  0  0  0
   -6.7125   -1.8755   -0.0741 O   0  0  0  0  0  0  0  0  0  0  0  0
    1.2394    1.0621   -2.0503 O   0  0  0  0  0  0  0  0  0  0  0  0
    3.2725    1.5751   -1.0504 N   0  0  0  0  0  0  0  0  0  0  0  0
   -3.9913   -1.1734   -0.5253 N   0  0  0  0  0  0  0  0  0  0  0  0
    0.0134   -0.4083    1.4611 N   0  0  0  0  0  0  0  0  0  0  0  0
    2.5697   -2.0165    0.1556 C   0  0  1  0  0  0  0  0  0  0  0  0
    4.3082   -0.3406    0.0479 C   0  0  1  0  0  0  0  0  0  0  0  0
    5.3882   -1.4172   -0.1191 C   0  0  2  0  0  0  0  0  0  0  0  0
    3.5833   -3.1571    0.0782 C   0  0  0  0  0  0  0  0  0  0  0  0
    4.8289   -2.7189   -0.6869 C   0  0  0  0  0  0  0  0  0  0  0  0
    1.3780   -2.4075    1.0210 C   0  0  0  0  0  0  0  0  0  0  0  0
    3.9068    0.3114   -1.2736 C   0  0  0  0  0  0  0  0  0  0  0  0
    0.1843   -1.5299    0.7557 C   0  0  0  0  0  0  0  0  0  0  0  0
   -0.8400   -1.7295   -0.1859 C   0  0  0  0  0  0  0  0  0  0  0  0
   -2.9064   -0.2015   -0.6441 C   0  0  0  0  0  0  0  0  0  0  0  0
   -1.6592   -0.6457   -0.0105 C   0  0  0  0  0  0  0  0  0  0  0  0
   -5.0268   -0.9259   -1.5382 C   0  0  0  0  0  0  0  0  0  0  0  0
   -4.5826   -1.1336    0.8194 C   0  0  0  0  0  0  0  0  0  0  0  0
   -6.1537   -1.9437   -1.3865 C   0  0  0  0  0  0  0  0  0  0  0  0
   -5.7192   -2.1474    0.9152 C   0  0  0  0  0  0  0  0  0  0  0  0
    1.9699    1.8554   -1.4622 C   0  0  0  0  0  0  0  0  0  0  0  0
    1.5492    3.2647   -1.0926 C   0  0  0  0  0  0  0  0  0  0  0  0
    0.3509    3.3103   -0.1818 C   0  0  0  0  0  0  0  0  0  0  0  0
   -0.9341    3.3657   -0.7216 C   0  0  0  0  0  0  0  0  0  0  0  0
    0.5261    3.2969    1.2019 C   0  0  0  0  0  0  0  0  0  0  0  0
   -2.0439    3.4080    0.1224 C   0  0  0  0  0  0  0  0  0  0  0  0
   -0.5836    3.3390    2.0459 C   0  0  0  0  0  0  0  0  0  0  0  0
   -1.8687    3.3947    1.5061 C   0  0  0  0  0  0  0  0  0  0  0  0
    2.2139   -1.7843   -0.8543 H   0  0  0  0  0  0  0  0  0  0  0  0
    4.7156    0.4346    0.7102 H   0  0  0  0  0  0  0  0  0  0  0  0
    6.2054   -1.0463   -0.7476 H   0  0  0  0  0  0  0  0  0  0  0  0
    3.1404   -4.0347   -0.4062 H   0  0  0  0  0  0  0  0  0  0  0  0
    3.8795   -3.4585    1.0910 H   0  0  0  0  0  0  0  0  0  0  0  0
    5.5786   -3.5169   -0.6354 H   0  0  0  0  0  0  0  0  0  0  0  0
    4.5722   -2.5782   -1.7436 H   0  0  0  0  0  0  0  0  0  0  0  0
    1.6374   -2.3532    2.0861 H   0  0  0  0  0  0  0  0  0  0  0  0
    1.0816   -3.4436    0.8130 H   0  0  0  0  0  0  0  0  0  0  0  0
    3.2718   -0.3249   -1.8934 H   0  0  0  0  0  0  0  0  0  0  0  0
    4.8052    0.5378   -1.8591 H   0  0  0  0  0  0  0  0  0  0  0  0
    6.6639   -2.3561    1.0310 H   0  0  0  0  0  0  0  0  0  0  0  0
    3.8217    2.3029   -0.6029 H   0  0  0  0  0  0  0  0  0  0  0  0
   -0.9644   -2.5395   -0.8893 H   0  0  0  0  0  0  0  0  0  0  0  0
   -3.2192    0.7781   -0.2642 H   0  0  0  0  0  0  0  0  0  0  0  0
   -2.6687   -0.0454   -1.7055 H   0  0  0  0  0  0  0  0  0  0  0  0
   -4.6059   -1.0156   -2.5462 H   0  0  0  0  0  0  0  0  0  0  0  0
   -5.4319    0.0884   -1.4266 H   0  0  0  0  0  0  0  0  0  0  0  0
   -4.9745   -0.1308    1.0350 H   0  0  0  0  0  0  0  0  0  0  0  0
   -3.8352   -1.3763    1.5832 H   0  0  0  0  0  0  0  0  0  0  0  0
   -5.8057   -2.9651   -1.5836 H   0  0  0  0  0  0  0  0  0  0  0  0
   -6.9537   -1.7231   -2.1005 H   0  0  0  0  0  0  0  0  0  0  0  0
   -6.1995   -2.0771    1.8964 H   0  0  0  0  0  0  0  0  0  0  0  0
   -5.3556   -3.1754    0.7967 H   0  0  0  0  0  0  0  0  0  0  0  0
    1.3301    3.7954   -2.0281 H   0  0  0  0  0  0  0  0  0  0  0  0
    2.3754    3.8205   -0.6328 H   0  0  0  0  0  0  0  0  0  0  0  0
   -1.0840    3.3736   -1.7979 H   0  0  0  0  0  0  0  0  0  0  0  0
    1.5222    3.2503    1.6339 H   0  0  0  0  0  0  0  0  0  0  0  0
   -3.0445    3.4506   -0.2978 H   0  0  0  0  0  0  0  0  0  0  0  0
   -0.4473    3.3264    3.1233 H   0  0  0  0  0  0  0  0  0  0  0  0
   -2.7329    3.4256    2.1631 H   0  0  0  0  0  0  0  0  0  0  0  0
  1  9  1  0  0  0  0
  1 10  1  0  0  0  0
  2 11  1  0  0  0  0
  2 43  1  0  0  0  0
  3  8  1  0  0  0  0
  3 19  1  0  0  0  0
  4 22  1  0  0  0  0
  4 23  1  0  0  0  0
  5 24  2  0  0  0  0
  6 15  1  0  0  0  0
  6 24  1  0  0  0  0
  6 44  1  0  0  0  0
  7 18  1  0  0  0  0
  7 20  1  0  0  0  0
  7 21  1  0  0  0  0
  8 16  2  0  0  0  0
  9 12  1  0  0  0  0
  9 14  1  0  0  0  0
  9 32  1  0  0  0  0
 10 11  1  0  0  0  0
 10 15  1  0  0  0  0
 10 33  1  0  0  0  0
 11 13  1  0  0  0  0
 11 34  1  0  0  0  0
 12 13  1  0  0  0  0
 12 35  1  0  0  0  0
 12 36  1  0  0  0  0
 13 37  1  0  0  0  0
 13 38  1  0  0  0  0
 14 16  1  0  0  0  0
 14 39  1  0  0  0  0
 14 40  1  0  0  0  0
 15 41  1  0  0  0  0
 15 42  1  0  0  0  0
 16 17  1  0  0  0  0
 17 19  2  0  0  0  0
 17 45  1  0  0  0  0
 18 19  1  0  0  0  0
 18 46  1  0  0  0  0
 18 47  1  0  0  0  0
 20 22  1  0  0  0  0
 20 48  1  0  0  0  0
 20 49  1  0  0  0  0
 21 23  1  0  0  0  0
 21 50  1  0  0  0  0
 21 51  1  0  0  0  0
 22 52  1  0  0  0  0
 22 53  1  0  0  0  0
 23 54  1  0  0  0  0
 23 55  1  0  0  0  0
 24 25  1  0  0  0  0
 25 26  1  0  0  0  0
 25 56  1  0  0  0  0
 25 57  1  0  0  0  0
 26 27  2  0  0  0  0
 26 28  1  0  0  0  0
 27 29  1  0  0  0  0
 27 58  1  0  0  0  0
 28 30  2  0  0  0  0
 28 59  1  0  0  0  0
 29 31  2  0  0  0  0
 29 60  1  0  0  0  0
 30 31  1  0  0  0  0
 30 61  1  0  0  0  0
 31 62  1  0  0  0  0
M  END
> <PUBCHEM_COMPOUND_CID>
75536420

> <PUBCHEM_CONFORMER_RMSD>
1.4

> <PUBCHEM_CONFORMER_DIVERSEORDER>
2
21
59
70
95
112
60
25
61
83
117
109
37
113
93
80
43
75
67
57
92
28
79
3
19
55
54
105
94
106
45
87
34
96
107
97
47
58
78
31
39
84
1
101
7
71
98
103
65
51
41
13
73
46
12
48
10
88
119
102
69
100
82
91
66
116
74
44
62
111
108
81
16
18
72
68
49
27
85
36
115
118
24
26
50
20
22
56
114
52
32
89
23
110
77
15
38
17
86
99
35
30
5
64
40
53
33
4
42
8
14
90
104
63
11
29
9
76
6

> <PUBCHEM_MMFF94_PARTIAL_CHARGES>
37
1 -0.56
10 0.28
11 0.28
14 0.18
15 0.3
16 0.11
17 -0.15
18 0.45
19 -0.04
2 -0.68
20 0.27
21 0.27
22 0.28
23 0.28
24 0.57
25 0.2
26 -0.14
27 -0.15
28 -0.15
29 -0.15
3 -0.02
30 -0.15
31 -0.15
4 -0.56
43 0.4
44 0.37
45 0.15
5 -0.57
58 0.15
59 0.15
6 -0.73
60 0.15
61 0.15
62 0.15
7 -0.81
8 -0.41
9 0.28

> <PUBCHEM_EFFECTIVE_ROTOR_COUNT>
11.4

> <PUBCHEM_PHARMACOPHORE_FEATURES>
12
1 1 acceptor
1 2 acceptor
1 2 donor
1 4 acceptor
1 5 acceptor
1 6 donor
1 7 cation
1 8 acceptor
5 3 8 16 17 19 rings
6 1 9 10 11 12 13 rings
6 26 27 28 29 30 31 rings
6 4 7 20 21 22 23 rings

> <PUBCHEM_HEAVY_ATOM_COUNT>
31

> <PUBCHEM_ATOM_DEF_STEREO_COUNT>
3

> <PUBCHEM_ATOM_UDEF_STEREO_COUNT>
0

> <PUBCHEM_BOND_DEF_STEREO_COUNT>
0

> <PUBCHEM_BOND_UDEF_STEREO_COUNT>
0

> <PUBCHEM_ISOTOPIC_ATOM_COUNT>
0

> <PUBCHEM_COMPONENT_COUNT>
1

> <PUBCHEM_CACTVS_TAUTO_COUNT>
2

> <PUBCHEM_CONFORMER_ID>
0480982400000002

> <PUBCHEM_MMFF94_ENERGY>
51.8484

> <PUBCHEM_FEATURE_SELFOVERLAP>
60.9

> <PUBCHEM_SHAPE_FINGERPRINT>
10675989 125 18192437595752031705
11045515 52 18409726240596753891
11513181 2 18125176948029492806
11646440 116 18410009966199858698
12156800 1 16955021728101877164
12166972 35 17894353280474891654
12422481 6 17985010118887724985
12788726 201 18342471339024063300
14068700 675 18411417306771165748
14415360 78 16970296487311700105
14464042 87 18410862061683014204
14681490 219 18408604781311705196
14931854 50 18262813963691267228
14955137 171 18341896328987454567
15297060 5 17771624542652073537
17909252 39 18412260662016875985
1813 80 18060707203940864791
19026451 147 18411982502607471342
19319366 153 18050854621678033988
20775438 99 17692506211654170255
23559900 14 17822280328346225431
4015057 19 18263926704224892587
463206 1 18268144430095779246
469060 322 17459471048770231316
57527585 103 17388853848791763258
6287921 2 16759174298436788625
6438754 60 18410857698191322837
6669772 16 17909543201016348241
7164475 11 18341055095175416282
7471813 234 18412824698386013453

> <PUBCHEM_SHAPE_MULTIPOLES>
593.68
12.34
5.32
1.61
8.02
5.04
0.03
-15.18
2.1
0.1
-0.91
0.35
0.8
-1.7

> <PUBCHEM_SHAPE_SELFOVERLAP>
1245.581

> <PUBCHEM_SHAPE_VOLUME>
334.1

> <PUBCHEM_COORDINATE_TYPE>
2
5
10

$$$$
