38029337
  -OEChem-12032416143D

 72 74  0     1  0  0  0  0  0999 V2000
   -1.2916   -4.0538    0.0804 O   0  0  0  0  0  0  0  0  0  0  0  0
   -1.0870    2.0087    1.5832 O   0  0  0  0  0  0  0  0  0  0  0  0
    3.6268    1.9182    1.4831 O   0  0  0  0  0  0  0  0  0  0  0  0
   -2.8200    2.4018    0.1017 N   0  0  0  0  0  0  0  0  0  0  0  0
    0.2412   -2.5673   -0.8373 N   0  0  0  0  0  0  0  0  0  0  0  0
   -0.6451    2.5300   -0.6627 N   0  0  0  0  0  0  0  0  0  0  0  0
    7.0984    0.3936    0.2015 N   0  0  0  0  0  0  0  0  0  0  0  0
   -4.4807    0.1788   -0.3840 C   0  0  1  0  0  0  0  0  0  0  0  0
   -4.3315    0.7402    1.0522 C   0  0  1  0  0  0  0  0  0  0  0  0
   -4.5004   -1.3571   -0.3599 C   0  0  0  0  0  0  0  0  0  0  0  0
   -3.2213   -1.9465    0.2640 C   0  0  2  0  0  0  0  0  0  0  0  0
   -5.7456    0.7031   -1.0710 C   0  0  0  0  0  0  0  0  0  0  0  0
   -2.8572   -1.2541    1.5616 C   0  0  0  0  0  0  0  0  0  0  0  0
   -3.3735   -0.0601    1.9031 C   0  0  0  0  0  0  0  0  0  0  0  0
   -3.8901    2.2081    1.0292 C   0  0  0  0  0  0  0  0  0  0  0  0
   -2.0531   -1.9040   -0.7273 C   0  0  0  0  0  0  0  0  0  0  0  0
   -5.5857    0.6568   -2.5872 C   0  0  0  0  0  0  0  0  0  0  0  0
   -6.9632   -0.1031   -0.6305 C   0  0  0  0  0  0  0  0  0  0  0  0
   -1.9197   -1.9872    2.4804 C   0  0  0  0  0  0  0  0  0  0  0  0
   -1.0240   -2.9738   -0.4395 C   0  0  0  0  0  0  0  0  0  0  0  0
   -1.4605    2.2871    0.4462 C   0  0  0  0  0  0  0  0  0  0  0  0
    1.4193   -3.3891   -0.6816 C   0  0  0  0  0  0  0  0  0  0  0  0
    2.6586   -2.5638   -0.4888 C   0  0  0  0  0  0  0  0  0  0  0  0
    0.7679    2.5097   -0.7221 C   0  0  0  0  0  0  0  0  0  0  0  0
    3.2352   -1.9070   -1.5762 C   0  0  0  0  0  0  0  0  0  0  0  0
    3.2333   -2.4537    0.7774 C   0  0  0  0  0  0  0  0  0  0  0  0
    1.5093    2.2204    0.4234 C   0  0  0  0  0  0  0  0  0  0  0  0
    1.4199    2.7801   -1.9253 C   0  0  0  0  0  0  0  0  0  0  0  0
    4.3865   -1.1402   -1.3971 C   0  0  0  0  0  0  0  0  0  0  0  0
    4.3847   -1.6869    0.9563 C   0  0  0  0  0  0  0  0  0  0  0  0
    2.9028    2.2014    0.3658 C   0  0  0  0  0  0  0  0  0  0  0  0
    4.9612   -1.0300   -0.1308 C   0  0  0  0  0  0  0  0  0  0  0  0
    2.8133    2.7611   -1.9827 C   0  0  0  0  0  0  0  0  0  0  0  0
    3.5549    2.4719   -0.8373 C   0  0  0  0  0  0  0  0  0  0  0  0
    6.1405   -0.2445    0.0525 C   0  0  0  0  0  0  0  0  0  0  0  0
    2.8964    1.6512    2.6794 C   0  0  0  0  0  0  0  0  0  0  0  0
   -3.6126    0.4607   -0.9907 H   0  0  0  0  0  0  0  0  0  0  0  0
   -5.2947    0.6966    1.5761 H   0  0  0  0  0  0  0  0  0  0  0  0
   -4.6457   -1.7759   -1.3623 H   0  0  0  0  0  0  0  0  0  0  0  0
   -5.3294   -1.7243    0.2589 H   0  0  0  0  0  0  0  0  0  0  0  0
   -3.4660   -2.9918    0.4964 H   0  0  0  0  0  0  0  0  0  0  0  0
   -5.9132    1.7519   -0.8031 H   0  0  0  0  0  0  0  0  0  0  0  0
   -3.1146    0.3649    2.8709 H   0  0  0  0  0  0  0  0  0  0  0  0
   -3.5844    2.5558    2.0231 H   0  0  0  0  0  0  0  0  0  0  0  0
   -4.7131    2.8535    0.7057 H   0  0  0  0  0  0  0  0  0  0  0  0
   -1.5853   -0.9117   -0.7319 H   0  0  0  0  0  0  0  0  0  0  0  0
   -2.4068   -2.0978   -1.7478 H   0  0  0  0  0  0  0  0  0  0  0  0
   -5.4437   -0.3624   -2.9596 H   0  0  0  0  0  0  0  0  0  0  0  0
   -4.7288    1.2583   -2.9091 H   0  0  0  0  0  0  0  0  0  0  0  0
   -6.4761    1.0652   -3.0780 H   0  0  0  0  0  0  0  0  0  0  0  0
   -6.9937   -1.1084   -1.0638 H   0  0  0  0  0  0  0  0  0  0  0  0
   -7.8731    0.3997   -0.9812 H   0  0  0  0  0  0  0  0  0  0  0  0
   -7.0507   -0.1755    0.4577 H   0  0  0  0  0  0  0  0  0  0  0  0
   -2.2483   -3.0215    2.6228 H   0  0  0  0  0  0  0  0  0  0  0  0
   -1.8788   -1.5238    3.4724 H   0  0  0  0  0  0  0  0  0  0  0  0
   -0.9014   -1.9868    2.0823 H   0  0  0  0  0  0  0  0  0  0  0  0
   -3.0522    2.6621   -0.8521 H   0  0  0  0  0  0  0  0  0  0  0  0
    0.3430   -1.6807   -1.3235 H   0  0  0  0  0  0  0  0  0  0  0  0
    1.5145   -4.0032   -1.5848 H   0  0  0  0  0  0  0  0  0  0  0  0
    1.2737   -4.0832    0.1544 H   0  0  0  0  0  0  0  0  0  0  0  0
   -1.1172    2.7471   -1.5367 H   0  0  0  0  0  0  0  0  0  0  0  0
    2.7959   -1.9848   -2.5672 H   0  0  0  0  0  0  0  0  0  0  0  0
    2.7926   -2.9574    1.6335 H   0  0  0  0  0  0  0  0  0  0  0  0
    1.0132    2.0097    1.3529 H   0  0  0  0  0  0  0  0  0  0  0  0
    0.8540    3.0069   -2.8252 H   0  0  0  0  0  0  0  0  0  0  0  0
    4.8237   -0.6332   -2.2539 H   0  0  0  0  0  0  0  0  0  0  0  0
    4.8199   -1.6086    1.9497 H   0  0  0  0  0  0  0  0  0  0  0  0
    3.3214    2.9718   -2.9192 H   0  0  0  0  0  0  0  0  0  0  0  0
    4.6400    2.4625   -0.8887 H   0  0  0  0  0  0  0  0  0  0  0  0
    3.6318    1.4452    3.4643 H   0  0  0  0  0  0  0  0  0  0  0  0
    2.2781    0.7520    2.5833 H   0  0  0  0  0  0  0  0  0  0  0  0
    2.3213    2.5243    3.0061 H   0  0  0  0  0  0  0  0  0  0  0  0
  1 20  2  0  0  0  0
  2 21  2  0  0  0  0
  3 31  1  0  0  0  0
  3 36  1  0  0  0  0
  4 15  1  0  0  0  0
  4 21  1  0  0  0  0
  4 57  1  0  0  0  0
  5 20  1  0  0  0  0
  5 22  1  0  0  0  0
  5 58  1  0  0  0  0
  6 21  1  0  0  0  0
  6 24  1  0  0  0  0
  6 61  1  0  0  0  0
  7 35  3  0  0  0  0
  8  9  1  0  0  0  0
  8 10  1  0  0  0  0
  8 12  1  0  0  0  0
  8 37  1  0  0  0  0
  9 14  1  0  0  0  0
  9 15  1  0  0  0  0
  9 38  1  0  0  0  0
 10 11  1  0  0  0  0
 10 39  1  0  0  0  0
 10 40  1  0  0  0  0
 11 13  1  0  0  0  0
 11 16  1  0  0  0  0
 11 41  1  0  0  0  0
 12 17  1  0  0  0  0
 12 18  1  0  0  0  0
 12 42  1  0  0  0  0
 13 14  2  0  0  0  0
 13 19  1  0  0  0  0
 14 43  1  0  0  0  0
 15 44  1  0  0  0  0
 15 45  1  0  0  0  0
 16 20  1  0  0  0  0
 16 46  1  0  0  0  0
 16 47  1  0  0  0  0
 17 48  1  0  0  0  0
 17 49  1  0  0  0  0
 17 50  1  0  0  0  0
 18 51  1  0  0  0  0
 18 52  1  0  0  0  0
 18 53  1  0  0  0  0
 19 54  1  0  0  0  0
 19 55  1  0  0  0  0
 19 56  1  0  0  0  0
 22 23  1  0  0  0  0
 22 59  1  0  0  0  0
 22 60  1  0  0  0  0
 23 25  2  0  0  0  0
 23 26  1  0  0  0  0
 24 27  2  0  0  0  0
 24 28  1  0  0  0  0
 25 29  1  0  0  0  0
 25 62  1  0  0  0  0
 26 30  2  0  0  0  0
 26 63  1  0  0  0  0
 27 31  1  0  0  0  0
 27 64  1  0  0  0  0
 28 33  2  0  0  0  0
 28 65  1  0  0  0  0
 29 32  2  0  0  0  0
 29 66  1  0  0  0  0
 30 32  1  0  0  0  0
 30 67  1  0  0  0  0
 31 34  2  0  0  0  0
 32 35  1  0  0  0  0
 33 34  1  0  0  0  0
 33 68  1  0  0  0  0
 34 69  1  0  0  0  0
 36 70  1  0  0  0  0
 36 71  1  0  0  0  0
 36 72  1  0  0  0  0
M  END
> <PUBCHEM_COMPOUND_CID>
38029337

> <PUBCHEM_CONFORMER_RMSD>
1.2

> <PUBCHEM_CONFORMER_DIVERSEORDER>
14
147
67
79
82
155
71
127
115
16
64
88
193
148
5
19
2
113
78
138
37
169
118
96
167
43
90
28
81
152
190
55
143
153
6
136
150
89
180
183
59
48
94
151
101
98
158
165
198
56
126
157
69
54
171
11
32
119
53
91
161
135
76
125
130
195
38
12
189
132
41
85
65
108
181
20
122
61
13
107
154
176
62
4
145
179
33
15
105
29
164
104
87
109
93
39
8
68
163
95
160
1
58
166
142
188
26
111
75
7
197
131
114
185
74
25
121
44
31
63
47
3
77
123
83
174
92
194
177
144
184
40
110
86
129
120
103
186
36
178
70
52
159
102
80
128
50
175
49
23
117
168
73
196
34
9
173
60
140
141
51
45
187
149
35
133
139
57
99
66
182
18
22
10
134
192
162
30
199
124
116
97
106
17
72
112
156
146
24
137
42
170
84
172
21
100
27
46
191

> <PUBCHEM_MMFF94_PARTIAL_CHARGES>
43
1 -0.57
11 0.14
13 -0.28
14 -0.29
15 0.3
16 0.06
19 0.14
2 -0.57
20 0.57
21 0.69
22 0.44
23 -0.14
24 0.12
25 -0.15
26 -0.15
27 -0.15
28 -0.15
29 -0.15
3 -0.36
30 -0.15
31 0.08
32 0.07
33 -0.15
34 -0.15
35 0.48
36 0.28
4 -0.73
43 0.15
5 -0.73
57 0.37
58 0.37
6 -0.55
61 0.37
62 0.15
63 0.15
64 0.15
65 0.15
66 0.15
67 0.15
68 0.15
69 0.15
7 -0.56
9 0.14

> <PUBCHEM_EFFECTIVE_ROTOR_COUNT>
12.8

> <PUBCHEM_PHARMACOPHORE_FEATURES>
11
1 1 acceptor
1 2 acceptor
1 3 acceptor
1 4 donor
1 5 donor
1 6 donor
1 7 acceptor
3 12 17 18 hydrophobe
6 23 25 26 29 30 32 rings
6 24 27 28 31 33 34 rings
6 8 9 10 11 13 14 rings

> <PUBCHEM_HEAVY_ATOM_COUNT>
36

> <PUBCHEM_ATOM_DEF_STEREO_COUNT>
3

> <PUBCHEM_ATOM_UDEF_STEREO_COUNT>
0

> <PUBCHEM_BOND_DEF_STEREO_COUNT>
0

> <PUBCHEM_BOND_UDEF_STEREO_COUNT>
0

> <PUBCHEM_ISOTOPIC_ATOM_COUNT>
0

> <PUBCHEM_COMPONENT_COUNT>
1

> <PUBCHEM_CACTVS_TAUTO_COUNT>
6

> <PUBCHEM_CONFORMER_ID>
024448190000000E

> <PUBCHEM_MMFF94_ENERGY>
89.092

> <PUBCHEM_FEATURE_SELFOVERLAP>
55.871

> <PUBCHEM_SHAPE_FINGERPRINT>
11513181 2 17559123064059901958
12422481 6 18340474678233321192
13122387 1 17906182745710475794
13402501 40 18411699859700096094
14747281 78 17098043942133676061
15001296 14 18337112366394359116
19315092 285 17346307220190213001
20554085 129 16733255760955866255
20764821 26 18337117855288593759
23559900 14 18409164428662265441
338550 245 18337116760647121356
354706 109 18267000809348753568
437795 51 17560794473255546752
463206 1 18339935925376747408
508706 21 18411705344072600867
550186 83 17604410986389007556
9543594 6 18340768238799615816
9961470 85 18198615738523384889

> <PUBCHEM_SHAPE_MULTIPOLES>
703.33
13.97
4.7
2.1
1.95
0.93
0.42
-0.27
-2.29
-2.23
-0.7
0.58
-0.63
0.41

> <PUBCHEM_SHAPE_SELFOVERLAP>
1473.125

> <PUBCHEM_SHAPE_VOLUME>
393.2

> <PUBCHEM_COORDINATE_TYPE>
2
5
10

$$$$
