40533398
  -OEChem-12032416373D

 57 62  0     1  0  0  0  0  0999 V2000
    2.4746    1.1788    1.7171 O   0  0  0  0  0  0  0  0  0  0  0  0
   -2.3315    1.7266    0.3918 N   0  0  2  0  0  0  0  0  0  0  0  0
    0.8405    2.0504    0.3002 N   0  0  0  0  0  0  0  0  0  0  0  0
   -3.8421   -2.3279   -0.9748 N   0  0  0  0  0  0  0  0  0  0  0  0
    5.9308   -1.1191   -0.8580 N   0  0  0  0  0  0  0  0  0  0  0  0
   -0.9527    3.6963    1.1027 C   0  0  1  0  0  0  0  0  0  0  0  0
   -0.9181    2.9846   -1.2398 C   0  0  2  0  0  0  0  0  0  0  0  0
   -0.9120    4.2102   -0.3303 C   0  0  0  0  0  0  0  0  0  0  0  0
   -2.2264    2.8537    1.3264 C   0  0  0  0  0  0  0  0  0  0  0  0
   -2.2127    2.1732   -1.0043 C   0  0  0  0  0  0  0  0  0  0  0  0
    0.3332    2.9066    1.3820 C   0  0  0  0  0  0  0  0  0  0  0  0
    0.3032    2.1200   -0.9873 C   0  0  0  0  0  0  0  0  0  0  0  0
   -3.5738    0.9866    0.6004 C   0  0  0  0  0  0  0  0  0  0  0  0
    0.8539    1.4125   -1.9864 C   0  0  0  0  0  0  0  0  0  0  0  0
    1.9526    1.2404    0.6024 C   0  0  0  0  0  0  0  0  0  0  0  0
   -3.4640   -0.4383    0.1267 C   0  0  0  0  0  0  0  0  0  0  0  0
    2.5269    0.4320   -0.5301 C   0  0  0  0  0  0  0  0  0  0  0  0
    1.9783    0.5526   -1.7484 C   0  0  0  0  0  0  0  0  0  0  0  0
   -2.5299   -1.4117    0.5794 C   0  0  0  0  0  0  0  0  0  0  0  0
   -4.2569   -1.0314   -0.8285 C   0  0  0  0  0  0  0  0  0  0  0  0
   -2.7887   -2.5880   -0.1274 C   0  0  0  0  0  0  0  0  0  0  0  0
    3.6621   -0.4827   -0.3166 C   0  0  0  0  0  0  0  0  0  0  0  0
   -1.4858   -1.4048    1.5256 C   0  0  0  0  0  0  0  0  0  0  0  0
   -2.0527   -3.7624    0.0655 C   0  0  0  0  0  0  0  0  0  0  0  0
   -4.4381   -3.2762   -1.8912 C   0  0  0  0  0  0  0  0  0  0  0  0
    3.5727   -1.5391    0.5830 C   0  0  0  0  0  0  0  0  0  0  0  0
    4.8525   -0.3172   -1.0062 C   0  0  0  0  0  0  0  0  0  0  0  0
   -0.7412   -2.5724    1.7290 C   0  0  0  0  0  0  0  0  0  0  0  0
   -1.0220   -3.7319    1.0091 C   0  0  0  0  0  0  0  0  0  0  0  0
    4.6609   -2.3858    0.7631 C   0  0  0  0  0  0  0  0  0  0  0  0
    5.8065   -2.1353    0.0251 C   0  0  0  0  0  0  0  0  0  0  0  0
   -0.9928    4.5458    1.7959 H   0  0  0  0  0  0  0  0  0  0  0  0
   -0.9145    3.3332   -2.2810 H   0  0  0  0  0  0  0  0  0  0  0  0
   -0.0178    4.8227   -0.5004 H   0  0  0  0  0  0  0  0  0  0  0  0
   -1.7821    4.8457   -0.5356 H   0  0  0  0  0  0  0  0  0  0  0  0
   -2.2169    2.4773    2.3571 H   0  0  0  0  0  0  0  0  0  0  0  0
   -3.1043    3.5074    1.2317 H   0  0  0  0  0  0  0  0  0  0  0  0
   -3.0747    2.7943   -1.2842 H   0  0  0  0  0  0  0  0  0  0  0  0
   -2.2122    1.3077   -1.6788 H   0  0  0  0  0  0  0  0  0  0  0  0
    1.1408    3.6197    1.5973 H   0  0  0  0  0  0  0  0  0  0  0  0
    0.2220    2.2958    2.2868 H   0  0  0  0  0  0  0  0  0  0  0  0
   -4.4315    1.4912    0.1364 H   0  0  0  0  0  0  0  0  0  0  0  0
   -3.8032    0.9279    1.6738 H   0  0  0  0  0  0  0  0  0  0  0  0
    0.4518    1.4435   -2.9936 H   0  0  0  0  0  0  0  0  0  0  0  0
    2.3461   -0.0112   -2.6009 H   0  0  0  0  0  0  0  0  0  0  0  0
   -5.0779   -0.6359   -1.4120 H   0  0  0  0  0  0  0  0  0  0  0  0
   -1.2522   -0.5111    2.0972 H   0  0  0  0  0  0  0  0  0  0  0  0
   -2.2660   -4.6683   -0.4919 H   0  0  0  0  0  0  0  0  0  0  0  0
   -3.6689   -3.6064   -2.5940 H   0  0  0  0  0  0  0  0  0  0  0  0
   -4.8233   -4.1196   -1.3125 H   0  0  0  0  0  0  0  0  0  0  0  0
   -5.2557   -2.7970   -2.4358 H   0  0  0  0  0  0  0  0  0  0  0  0
    2.6615   -1.7194    1.1478 H   0  0  0  0  0  0  0  0  0  0  0  0
    4.9921    0.4901   -1.7194 H   0  0  0  0  0  0  0  0  0  0  0  0
    0.0661   -2.5724    2.4566 H   0  0  0  0  0  0  0  0  0  0  0  0
   -0.4304   -4.6272    1.1828 H   0  0  0  0  0  0  0  0  0  0  0  0
    4.6134   -3.2163    1.4581 H   0  0  0  0  0  0  0  0  0  0  0  0
    6.6829   -2.7667    0.1285 H   0  0  0  0  0  0  0  0  0  0  0  0
  1 15  2  0  0  0  0
  2  9  1  0  0  0  0
  2 10  1  0  0  0  0
  2 13  1  0  0  0  0
  3 11  1  0  0  0  0
  3 12  1  0  0  0  0
  3 15  1  0  0  0  0
  4 20  1  0  0  0  0
  4 21  1  0  0  0  0
  4 25  1  0  0  0  0
  5 27  1  0  0  0  0
  5 31  2  0  0  0  0
  6  8  1  0  0  0  0
  6  9  1  0  0  0  0
  6 11  1  0  0  0  0
  6 32  1  0  0  0  0
  7  8  1  0  0  0  0
  7 10  1  0  0  0  0
  7 12  1  0  0  0  0
  7 33  1  0  0  0  0
  8 34  1  0  0  0  0
  8 35  1  0  0  0  0
  9 36  1  0  0  0  0
  9 37  1  0  0  0  0
 10 38  1  0  0  0  0
 10 39  1  0  0  0  0
 11 40  1  0  0  0  0
 11 41  1  0  0  0  0
 12 14  2  0  0  0  0
 13 16  1  0  0  0  0
 13 42  1  0  0  0  0
 13 43  1  0  0  0  0
 14 18  1  0  0  0  0
 14 44  1  0  0  0  0
 15 17  1  0  0  0  0
 16 19  1  0  0  0  0
 16 20  2  0  0  0  0
 17 18  2  0  0  0  0
 17 22  1  0  0  0  0
 18 45  1  0  0  0  0
 19 21  1  0  0  0  0
 19 23  2  0  0  0  0
 20 46  1  0  0  0  0
 21 24  2  0  0  0  0
 22 26  1  0  0  0  0
 22 27  2  0  0  0  0
 23 28  1  0  0  0  0
 23 47  1  0  0  0  0
 24 29  1  0  0  0  0
 24 48  1  0  0  0  0
 25 49  1  0  0  0  0
 25 50  1  0  0  0  0
 25 51  1  0  0  0  0
 26 30  2  0  0  0  0
 26 52  1  0  0  0  0
 27 53  1  0  0  0  0
 28 29  2  0  0  0  0
 28 54  1  0  0  0  0
 29 55  1  0  0  0  0
 30 31  1  0  0  0  0
 30 56  1  0  0  0  0
 31 57  1  0  0  0  0
M  END
> <PUBCHEM_COMPOUND_CID>
40533398

> <PUBCHEM_CONFORMER_RMSD>
0.8

> <PUBCHEM_CONFORMER_DIVERSEORDER>
1
20
48
49
29
43
32
26
16
52
47
18
5
25
30
12
44
31
24
50
35
21
28
51
23
17
19
45
15
38
42
22
27
10
37
6
7
39
46
36
2
40
11
9
8
14
41
33
4
34
3
13

> <PUBCHEM_MMFF94_PARTIAL_CHARGES>
39
1 -0.57
10 0.27
11 0.3
12 -0.03
13 0.45
14 -0.15
15 0.62
16 -0.18
17 -0.01
18 -0.15
2 -0.81
20 -0.3
21 -0.15
22 0.03
23 -0.15
24 -0.15
25 0.26
26 -0.15
27 0.16
28 -0.15
29 -0.15
3 -0.47
30 -0.15
31 0.16
4 0.05
44 0.15
45 0.15
46 0.15
47 0.15
48 0.15
5 -0.62
52 0.15
53 0.15
54 0.15
55 0.15
56 0.15
57 0.15
7 0.14
9 0.27

> <PUBCHEM_EFFECTIVE_ROTOR_COUNT>
4

> <PUBCHEM_PHARMACOPHORE_FEATURES>
10
1 1 acceptor
1 2 cation
1 4 cation
1 5 acceptor
5 4 16 19 20 21 rings
6 19 21 23 24 28 29 rings
6 2 6 7 8 9 10 rings
6 3 12 14 15 17 18 rings
6 3 6 7 8 11 12 rings
6 5 22 26 27 30 31 rings

> <PUBCHEM_HEAVY_ATOM_COUNT>
31

> <PUBCHEM_ATOM_DEF_STEREO_COUNT>
2

> <PUBCHEM_ATOM_UDEF_STEREO_COUNT>
0

> <PUBCHEM_BOND_DEF_STEREO_COUNT>
0

> <PUBCHEM_BOND_UDEF_STEREO_COUNT>
0

> <PUBCHEM_ISOTOPIC_ATOM_COUNT>
0

> <PUBCHEM_COMPONENT_COUNT>
1

> <PUBCHEM_CACTVS_TAUTO_COUNT>
3

> <PUBCHEM_CONFORMER_ID>
026A7D9600000001

> <PUBCHEM_MMFF94_ENERGY>
77.8255

> <PUBCHEM_FEATURE_SELFOVERLAP>
52.394

> <PUBCHEM_SHAPE_FINGERPRINT>
10483366 6 18264752291702368557
11552529 35 18269835329076955476
12156800 1 16408101528905046127
12422481 6 17687218320780298553
12633257 1 17988657250185676017
12712778 12 18265034870063642010
12788726 201 18337966596956146526
13122387 1 17255679699202978091
1361 2 16031559941720727427
13631057 29 18411140238831502732
14020679 6 15832585106803157284
14068700 675 18409721863724360062
14114206 34 17967806146072744863
14251740 79 18262521377549498570
14251757 5 18335709316970316266
14659021 117 18410284822589469426
14844126 61 18339085873839121089
14866123 147 18341336600617480619
19315092 285 16843317054509663431
19611394 137 18201144483378779146
20764821 26 18337113457389989802
20775438 99 17260441083100628327
20775530 9 18338237175426942291
21987440 362 15877776340369944493
22440779 20 15621495551976563132
23559900 14 17831856120587338071
24893992 56 18409731760737407505
3027735 51 18266740173310801946
35225 105 18194950855804190165
463206 1 18337956808615643243
5265222 85 18190476969188231500
57527295 17 17481993746139310951
613672 6 18121203531427400314
6201320 77 16195701210094673214
9896288 288 17838915741099611921

> <PUBCHEM_SHAPE_MULTIPOLES>
612.17
9.49
5.74
1.71
11.98
0.66
-0.18
-9.23
-2.37
-4.5
0.72
-0.37
0.13
-1.32

> <PUBCHEM_SHAPE_SELFOVERLAP>
1367.385

> <PUBCHEM_SHAPE_VOLUME>
319

> <PUBCHEM_COORDINATE_TYPE>
2
5
10

$$$$
