45783411
  -OEChem-12032416203D

 58 61  0     1  0  0  0  0  0999 V2000
    0.6104   -2.9596    1.3696 O   0  0  0  0  0  0  0  0  0  0  0  0
    2.2795    0.5204   -1.2002 O   0  0  0  0  0  0  0  0  0  0  0  0
    0.2932    1.3795   -2.9476 O   0  0  0  0  0  0  0  0  0  0  0  0
   -2.3048   -1.3577   -0.1925 N   0  0  1  0  0  0  0  0  0  0  0  0
    0.6185   -0.9958    0.2922 N   0  0  0  0  0  0  0  0  0  0  0  0
    1.8435   -2.3617    1.6589 N   0  0  0  0  0  0  0  0  0  0  0  0
    4.0649    1.5117   -0.1246 N   0  0  0  0  0  0  0  0  0  0  0  0
   -3.4427    0.5977    0.7692 C   0  0  0  0  0  0  0  0  0  0  0  0
   -2.9927   -0.8458    0.9857 C   0  0  0  0  0  0  0  0  0  0  0  0
   -1.4288   -2.5099    0.0996 C   0  0  1  0  0  0  0  0  0  0  0  0
   -4.1440    1.1405    2.0218 C   0  0  0  0  0  0  0  0  0  0  0  0
   -2.2514    1.4845    0.3825 C   0  0  0  0  0  0  0  0  0  0  0  0
   -3.2400   -1.8012   -1.2266 C   0  0  0  0  0  0  0  0  0  0  0  0
   -1.3981   -3.3199   -1.2097 C   0  0  0  0  0  0  0  0  0  0  0  0
   -2.3323   -2.5803   -2.1569 C   0  0  0  0  0  0  0  0  0  0  0  0
   -4.5562    2.6006    1.8489 C   0  0  0  0  0  0  0  0  0  0  0  0
   -2.6667    2.9441    0.2126 C   0  0  0  0  0  0  0  0  0  0  0  0
   -3.3712    3.4773    1.4561 C   0  0  0  0  0  0  0  0  0  0  0  0
   -0.0486   -2.0900    0.5596 C   0  0  0  0  0  0  0  0  0  0  0  0
    1.7728   -1.2079    0.9884 C   0  0  0  0  0  0  0  0  0  0  0  0
    2.8377   -0.2470    0.9918 C   0  0  0  0  0  0  0  0  0  0  0  0
    3.0744    0.5923   -0.0849 C   0  0  0  0  0  0  0  0  0  0  0  0
    3.6712   -0.1356    2.0992 C   0  0  0  0  0  0  0  0  0  0  0  0
    4.7012    0.7984    2.0960 C   0  0  0  0  0  0  0  0  0  0  0  0
    4.8546    1.5909    0.9698 C   0  0  0  0  0  0  0  0  0  0  0  0
    2.5867    1.4150   -2.2623 C   0  0  0  0  0  0  0  0  0  0  0  0
    1.6231    1.1726   -3.4080 C   0  0  0  0  0  0  0  0  0  0  0  0
   -0.6540    1.1869   -3.9887 C   0  0  0  0  0  0  0  0  0  0  0  0
   -4.1712    0.6260   -0.0527 H   0  0  0  0  0  0  0  0  0  0  0  0
   -3.8412   -1.4824    1.2685 H   0  0  0  0  0  0  0  0  0  0  0  0
   -2.3085   -0.8553    1.8453 H   0  0  0  0  0  0  0  0  0  0  0  0
   -1.8788   -3.1434    0.8772 H   0  0  0  0  0  0  0  0  0  0  0  0
   -3.4781    1.0556    2.8902 H   0  0  0  0  0  0  0  0  0  0  0  0
   -5.0330    0.5380    2.2433 H   0  0  0  0  0  0  0  0  0  0  0  0
   -1.7997    1.1499   -0.5584 H   0  0  0  0  0  0  0  0  0  0  0  0
   -1.4706    1.4202    1.1515 H   0  0  0  0  0  0  0  0  0  0  0  0
   -3.7149   -0.9656   -1.7494 H   0  0  0  0  0  0  0  0  0  0  0  0
   -4.0198   -2.4600   -0.8242 H   0  0  0  0  0  0  0  0  0  0  0  0
   -1.7848   -4.3299   -1.0271 H   0  0  0  0  0  0  0  0  0  0  0  0
   -0.3983   -3.4167   -1.6467 H   0  0  0  0  0  0  0  0  0  0  0  0
   -1.7548   -1.8953   -2.7901 H   0  0  0  0  0  0  0  0  0  0  0  0
   -2.8851   -3.2626   -2.8094 H   0  0  0  0  0  0  0  0  0  0  0  0
   -5.3339    2.6712    1.0785 H   0  0  0  0  0  0  0  0  0  0  0  0
   -4.9962    2.9718    2.7813 H   0  0  0  0  0  0  0  0  0  0  0  0
   -1.7828    3.5559   -0.0007 H   0  0  0  0  0  0  0  0  0  0  0  0
   -3.3343    3.0349   -0.6531 H   0  0  0  0  0  0  0  0  0  0  0  0
   -2.6582    3.5211    2.2886 H   0  0  0  0  0  0  0  0  0  0  0  0
   -3.7143    4.5021    1.2750 H   0  0  0  0  0  0  0  0  0  0  0  0
    3.5377   -0.7575    2.9809 H   0  0  0  0  0  0  0  0  0  0  0  0
    5.3622    0.9042    2.9486 H   0  0  0  0  0  0  0  0  0  0  0  0
    5.6425    2.3350    0.9174 H   0  0  0  0  0  0  0  0  0  0  0  0
    3.6118    1.2541   -2.6169 H   0  0  0  0  0  0  0  0  0  0  0  0
    2.4696    2.4476   -1.9104 H   0  0  0  0  0  0  0  0  0  0  0  0
    1.8446    1.8567   -4.2345 H   0  0  0  0  0  0  0  0  0  0  0  0
    1.7171    0.1379   -3.7578 H   0  0  0  0  0  0  0  0  0  0  0  0
   -0.4869    1.9046   -4.7975 H   0  0  0  0  0  0  0  0  0  0  0  0
   -0.5988    0.1640   -4.3736 H   0  0  0  0  0  0  0  0  0  0  0  0
   -1.6539    1.3503   -3.5776 H   0  0  0  0  0  0  0  0  0  0  0  0
  1  6  1  0  0  0  0
  1 19  1  0  0  0  0
  2 22  1  0  0  0  0
  2 26  1  0  0  0  0
  3 27  1  0  0  0  0
  3 28  1  0  0  0  0
  4  9  1  0  0  0  0
  4 10  1  0  0  0  0
  4 13  1  0  0  0  0
  5 19  2  0  0  0  0
  5 20  1  0  0  0  0
  6 20  2  0  0  0  0
  7 22  1  0  0  0  0
  7 25  2  0  0  0  0
  8  9  1  0  0  0  0
  8 11  1  0  0  0  0
  8 12  1  0  0  0  0
  8 29  1  0  0  0  0
  9 30  1  0  0  0  0
  9 31  1  0  0  0  0
 10 14  1  0  0  0  0
 10 19  1  0  0  0  0
 10 32  1  0  0  0  0
 11 16  1  0  0  0  0
 11 33  1  0  0  0  0
 11 34  1  0  0  0  0
 12 17  1  0  0  0  0
 12 35  1  0  0  0  0
 12 36  1  0  0  0  0
 13 15  1  0  0  0  0
 13 37  1  0  0  0  0
 13 38  1  0  0  0  0
 14 15  1  0  0  0  0
 14 39  1  0  0  0  0
 14 40  1  0  0  0  0
 15 41  1  0  0  0  0
 15 42  1  0  0  0  0
 16 18  1  0  0  0  0
 16 43  1  0  0  0  0
 16 44  1  0  0  0  0
 17 18  1  0  0  0  0
 17 45  1  0  0  0  0
 17 46  1  0  0  0  0
 18 47  1  0  0  0  0
 18 48  1  0  0  0  0
 20 21  1  0  0  0  0
 21 22  2  0  0  0  0
 21 23  1  0  0  0  0
 23 24  2  0  0  0  0
 23 49  1  0  0  0  0
 24 25  1  0  0  0  0
 24 50  1  0  0  0  0
 25 51  1  0  0  0  0
 26 27  1  0  0  0  0
 26 52  1  0  0  0  0
 26 53  1  0  0  0  0
 27 54  1  0  0  0  0
 27 55  1  0  0  0  0
 28 56  1  0  0  0  0
 28 57  1  0  0  0  0
 28 58  1  0  0  0  0
M  END
> <PUBCHEM_COMPOUND_CID>
45783411

> <PUBCHEM_CONFORMER_RMSD>
1

> <PUBCHEM_CONFORMER_DIVERSEORDER>
1
45
46
32
82
11
30
56
9
63
65
8
39
38
77
83
28
15
49
12
25
71
85
92
26
67
88
90
93
89
74
64
19
52
42
81
53
87
68
29
62
66
37
2
72
41
10
86
55
76
61
34
75
57
27
78
6
18
80
22
91
4
60
23
33
44
14
17
20
59
79
3
73
36
69
13
35
48
16
43
31
40
50
70
84
21
94
47
51
24
58
5
7
54

> <PUBCHEM_MMFF94_PARTIAL_CHARGES>
23
1 -0.02
10 0.45
13 0.27
19 0.3
2 -0.36
20 0.46
21 0.05
22 0.39
23 -0.15
24 -0.15
25 0.16
26 0.28
27 0.28
28 0.28
3 -0.56
4 -0.81
49 0.15
5 -0.57
50 0.15
51 0.15
6 -0.41
7 -0.62
9 0.27

> <PUBCHEM_EFFECTIVE_ROTOR_COUNT>
10.2

> <PUBCHEM_PHARMACOPHORE_FEATURES>
9
1 2 acceptor
1 3 acceptor
1 4 cation
1 7 acceptor
3 5 6 20 cation
5 1 5 6 19 20 rings
5 4 10 13 14 15 rings
6 7 21 22 23 24 25 rings
6 8 11 12 16 17 18 rings

> <PUBCHEM_HEAVY_ATOM_COUNT>
28

> <PUBCHEM_ATOM_DEF_STEREO_COUNT>
1

> <PUBCHEM_ATOM_UDEF_STEREO_COUNT>
0

> <PUBCHEM_BOND_DEF_STEREO_COUNT>
0

> <PUBCHEM_BOND_UDEF_STEREO_COUNT>
0

> <PUBCHEM_ISOTOPIC_ATOM_COUNT>
0

> <PUBCHEM_COMPONENT_COUNT>
1

> <PUBCHEM_CACTVS_TAUTO_COUNT>
1

> <PUBCHEM_CONFORMER_ID>
02BA997300000001

> <PUBCHEM_MMFF94_ENERGY>
48.9207

> <PUBCHEM_FEATURE_SELFOVERLAP>
45.726

> <PUBCHEM_SHAPE_FINGERPRINT>
10871710 139 18343014536770913563
11640471 11 18410571769159745715
11720765 8 15981184163352707940
12166972 35 17607786598338652646
12422481 6 17824250523890848896
12539773 59 17902520616044583711
12788726 201 17905350741867832029
13009979 54 18043808916954933018
13583140 156 15574981927400778410
13615921 28 17765422541230967421
13947920 24 14545026547653933400
13965767 371 18116710707999264224
14468879 13 16774079566083971013
14840074 17 17458354069431666188
15961568 22 17265790176909269984
16988056 13 16688240405735946665
20739085 24 17603588504683680394
21033650 10 18199486517990004226
21133410 90 18051666010231200693
21860390 5 16761123737295916389
21987440 362 17693110569471480036
235170 7 16558191638996177098
38570 142 17098091422701357412
445580 8 18114480992955218997
469060 322 17676474069347218791
5252454 2 18201434736245425473
539174 4 17242750911338901095
550186 7 17703512219989539228
5895379 119 18269005339600633252
5951187 136 17200240222692141625
7064713 232 18335987480057938337
7808743 9 18272930544192268080

> <PUBCHEM_SHAPE_MULTIPOLES>
538.69
8.81
4.04
3.41
3.42
0.55
4.65
-7.48
-4.69
-5.28
-0.85
1.84
-0.34
-1.93

> <PUBCHEM_SHAPE_SELFOVERLAP>
1132.264

> <PUBCHEM_SHAPE_VOLUME>
303.8

> <PUBCHEM_COORDINATE_TYPE>
2
5
10

$$$$
