75537116
  -OEChem-12032416313D

 40 42  0     1  0  0  0  0  0999 V2000
    5.3479    0.5226   -0.2525 O   0  0  0  0  0  0  0  0  0  0  0  0
   -5.5086   -0.9544   -0.7668 O   0  0  0  0  0  0  0  0  0  0  0  0
    3.0009    0.4667   -0.3380 N   0  0  0  0  0  0  0  0  0  0  0  0
    0.3370    1.2059    0.1802 N   0  0  2  0  0  0  0  0  0  0  0  0
    4.1022   -1.4722   -0.0706 N   0  0  0  0  0  0  0  0  0  0  0  0
   -3.7566   -0.8150    0.7489 N   0  0  0  0  0  0  0  0  0  0  0  0
    1.9684   -0.5473   -0.3879 C   0  0  2  0  0  0  0  0  0  0  0  0
    0.7966   -0.1579    0.5126 C   0  0  0  0  0  0  0  0  0  0  0  0
    2.6961   -1.8260    0.0224 C   0  0  0  0  0  0  0  0  0  0  0  0
    2.6361    1.8584   -0.5032 C   0  0  0  0  0  0  0  0  0  0  0  0
    1.4232    2.1885    0.3703 C   0  0  0  0  0  0  0  0  0  0  0  0
    4.2849   -0.0836   -0.2281 C   0  0  0  0  0  0  0  0  0  0  0  0
   -0.8232    1.5650    0.9953 C   0  0  0  0  0  0  0  0  0  0  0  0
    5.1525   -2.4452    0.1337 C   0  0  0  0  0  0  0  0  0  0  0  0
   -2.0840    0.9120    0.4946 C   0  0  0  0  0  0  0  0  0  0  0  0
   -2.7378    1.3890   -0.6361 C   0  0  0  0  0  0  0  0  0  0  0  0
   -2.6292   -0.1829    1.1454 C   0  0  0  0  0  0  0  0  0  0  0  0
   -3.9005    0.7654   -1.0750 C   0  0  0  0  0  0  0  0  0  0  0  0
   -4.3646   -0.3231   -0.3539 C   0  0  0  0  0  0  0  0  0  0  0  0
   -5.9412   -2.0660    0.0088 C   0  0  0  0  0  0  0  0  0  0  0  0
    1.6411   -0.6201   -1.4335 H   0  0  0  0  0  0  0  0  0  0  0  0
    1.0948   -0.2094    1.5687 H   0  0  0  0  0  0  0  0  0  0  0  0
    0.0011   -0.8949    0.3586 H   0  0  0  0  0  0  0  0  0  0  0  0
    2.4858   -2.1227    1.0551 H   0  0  0  0  0  0  0  0  0  0  0  0
    2.4745   -2.6595   -0.6507 H   0  0  0  0  0  0  0  0  0  0  0  0
    2.4002    2.0091   -1.5629 H   0  0  0  0  0  0  0  0  0  0  0  0
    3.4909    2.4942   -0.2522 H   0  0  0  0  0  0  0  0  0  0  0  0
    1.7292    2.2119    1.4248 H   0  0  0  0  0  0  0  0  0  0  0  0
    1.0757    3.1943    0.1057 H   0  0  0  0  0  0  0  0  0  0  0  0
   -0.9981    2.6493    0.9529 H   0  0  0  0  0  0  0  0  0  0  0  0
   -0.6606    1.3405    2.0583 H   0  0  0  0  0  0  0  0  0  0  0  0
    5.0674   -2.8461    1.1472 H   0  0  0  0  0  0  0  0  0  0  0  0
    6.1320   -1.9769    0.0096 H   0  0  0  0  0  0  0  0  0  0  0  0
    5.0341   -3.2515   -0.5947 H   0  0  0  0  0  0  0  0  0  0  0  0
   -2.3508    2.2449   -1.1823 H   0  0  0  0  0  0  0  0  0  0  0  0
   -2.1657   -0.6019    2.0332 H   0  0  0  0  0  0  0  0  0  0  0  0
   -4.4223    1.1253   -1.9550 H   0  0  0  0  0  0  0  0  0  0  0  0
   -6.8571   -2.4565   -0.4447 H   0  0  0  0  0  0  0  0  0  0  0  0
   -6.1759   -1.7620    1.0344 H   0  0  0  0  0  0  0  0  0  0  0  0
   -5.1932   -2.8659    0.0002 H   0  0  0  0  0  0  0  0  0  0  0  0
  1 12  2  0  0  0  0
  2 19  1  0  0  0  0
  2 20  1  0  0  0  0
  3  7  1  0  0  0  0
  3 10  1  0  0  0  0
  3 12  1  0  0  0  0
  4  8  1  0  0  0  0
  4 11  1  0  0  0  0
  4 13  1  0  0  0  0
  5  9  1  0  0  0  0
  5 12  1  0  0  0  0
  5 14  1  0  0  0  0
  6 17  1  0  0  0  0
  6 19  2  0  0  0  0
  7  8  1  0  0  0  0
  7  9  1  0  0  0  0
  7 21  1  0  0  0  0
  8 22  1  0  0  0  0
  8 23  1  0  0  0  0
  9 24  1  0  0  0  0
  9 25  1  0  0  0  0
 10 11  1  0  0  0  0
 10 26  1  0  0  0  0
 10 27  1  0  0  0  0
 11 28  1  0  0  0  0
 11 29  1  0  0  0  0
 13 15  1  0  0  0  0
 13 30  1  0  0  0  0
 13 31  1  0  0  0  0
 14 32  1  0  0  0  0
 14 33  1  0  0  0  0
 14 34  1  0  0  0  0
 15 16  1  0  0  0  0
 15 17  2  0  0  0  0
 16 18  2  0  0  0  0
 16 35  1  0  0  0  0
 17 36  1  0  0  0  0
 18 19  1  0  0  0  0
 18 37  1  0  0  0  0
 20 38  1  0  0  0  0
 20 39  1  0  0  0  0
 20 40  1  0  0  0  0
M  END
> <PUBCHEM_COMPOUND_CID>
75537116

> <PUBCHEM_CONFORMER_RMSD>
0.6

> <PUBCHEM_CONFORMER_DIVERSEORDER>
1
43
29
16
21
33
38
8
47
26
31
46
19
44
42
2
39
36
30
50
51
45
20
25
27
11
32
48
23
22
13
18
34
7
6
41
4
12
37
15
49
9
40
3
24
17
35
28
14
10
5

> <PUBCHEM_MMFF94_PARTIAL_CHARGES>
23
1 -0.57
10 0.3
11 0.27
12 0.69
13 0.41
14 0.3
15 -0.14
16 -0.15
17 0.16
18 -0.15
19 0.39
2 -0.36
20 0.28
3 -0.66
35 0.15
36 0.15
37 0.15
4 -0.81
5 -0.66
6 -0.62
7 0.3
8 0.27
9 0.3

> <PUBCHEM_EFFECTIVE_ROTOR_COUNT>
4.2

> <PUBCHEM_PHARMACOPHORE_FEATURES>
5
1 1 acceptor
1 4 cation
5 3 5 7 9 12 rings
6 3 4 7 8 10 11 rings
6 6 15 16 17 18 19 rings

> <PUBCHEM_HEAVY_ATOM_COUNT>
20

> <PUBCHEM_ATOM_DEF_STEREO_COUNT>
1

> <PUBCHEM_ATOM_UDEF_STEREO_COUNT>
0

> <PUBCHEM_BOND_DEF_STEREO_COUNT>
0

> <PUBCHEM_BOND_UDEF_STEREO_COUNT>
0

> <PUBCHEM_ISOTOPIC_ATOM_COUNT>
0

> <PUBCHEM_COMPONENT_COUNT>
1

> <PUBCHEM_CACTVS_TAUTO_COUNT>
1

> <PUBCHEM_CONFORMER_ID>
04809ADC00000001

> <PUBCHEM_MMFF94_ENERGY>
52.5899

> <PUBCHEM_FEATURE_SELFOVERLAP>
25.468

> <PUBCHEM_SHAPE_FINGERPRINT>
10447042 23 18413101758405434158
11089746 13 13190339105888735918
11806522 49 18412265021567099064
12236239 1 17775290464579422673
12596602 18 16988847206449113515
12916754 54 18410293610182545761
13544653 18 18412268302705828872
13862211 1 18410856517545048714
13955234 65 17984980659586268369
1420 369 18131636659824159766
14576447 43 18412829088248726212
15163728 17 14997380862045313655
15188451 53 14979380890446595237
15196674 1 18410857620744657528
15352361 1 18411419496871982215
17492 89 18198909119434848358
18222031 100 18341050714625136026
193927 3 18059582355768013023
19433438 38 18187362116933523629
19784866 170 10663820788701968411
19784866 240 18272091582808383573
200 152 18272088296973993737
20028762 73 18270960146811185230
20261772 1 17704067404283296278
20281475 54 18342179968653705681
20645477 70 18335137622099327344
20671657 53 18412548695219178465
21267235 1 18343310262285549350
212847 35 10953460734729447710
21637258 2 17560510803323323767
21713013 43 18186793674117740717
221357 26 18334289873312868861
221490 88 18263370337664349968
22393880 68 17968649432910578287
22646028 1 18272933795418959976
22646028 28 18202566168048973821
23402539 116 18269554940615954080
23403322 49 18411136914110064425
23557571 272 17603860122420881381
23559900 14 18334286604816590509
2838139 119 8646496193791377459
2871803 45 18186799192902750507
293599 30 8790586123301442674
3004659 81 18261388936259816523
314194 84 18272370879688484227
351380 3 17846780728145317375
4259306 186 18411134771037441455
439807 62 18335983155864712487
46194498 28 17676768781117984021
465052 167 18202005451288740279
4921388 177 16732996335876744201
5104073 3 18059573555401279000
5281201 14 18113057146951174509
59682541 35 18130215065247901794
76465 3 18412825759248106248
7970288 3 18342456993628209358
9709674 26 18188212108378401275

> <PUBCHEM_SHAPE_MULTIPOLES>
379.93
12.89
2.34
0.92
4.26
0.41
0.06
8.49
-2.19
-1.11
0.08
0.68
-0.15
-0.05

> <PUBCHEM_SHAPE_SELFOVERLAP>
799.422

> <PUBCHEM_SHAPE_VOLUME>
215.6

> <PUBCHEM_COORDINATE_TYPE>
2
5
10

$$$$
