7164901
  -OEChem-12032416233D

 79 82  0     1  0  0  0  0  0999 V2000
   -3.6628    0.9822   -1.2584 S   0  0  0  0  0  0  0  0  0  0  0  0
   -0.4405   -4.8099   -0.9584 O   0  0  0  0  0  0  0  0  0  0  0  0
   -4.4021    0.8981   -2.4994 O   0  0  0  0  0  0  0  0  0  0  0  0
   -3.0505    2.2242   -0.8375 O   0  0  0  0  0  0  0  0  0  0  0  0
    0.5415   -0.9200   -2.4489 O   0  0  0  0  0  0  0  0  0  0  0  0
    4.9622    1.3602   -1.2950 O   0  0  0  0  0  0  0  0  0  0  0  0
    3.9840    0.5109    0.6051 O   0  0  0  0  0  0  0  0  0  0  0  0
    1.0183    6.0026    2.0521 O   0  0  0  0  0  0  0  0  0  0  0  0
   -0.7857   -2.5186   -0.7568 N   0  0  0  0  0  0  0  0  0  0  0  0
   -2.4820   -0.2584   -1.2261 N   0  0  1  0  0  0  0  0  0  0  0  0
    0.8092   -3.6536    0.5791 N   0  0  0  0  0  0  0  0  0  0  0  0
    1.5609    0.1548   -0.6532 N   0  0  0  0  0  0  0  0  0  0  0  0
    1.5440   -4.8127    1.0350 C   0  0  0  0  0  0  0  0  0  0  0  0
    1.9056   -4.6874    2.5188 C   0  0  0  0  0  0  0  0  0  0  0  0
    2.7920   -5.0461    0.1769 C   0  0  0  0  0  0  0  0  0  0  0  0
   -0.3844   -1.1888   -0.2633 C   0  0  2  0  0  0  0  0  0  0  0  0
    2.9952   -3.6446    2.7692 C   0  0  0  0  0  0  0  0  0  0  0  0
    3.8802   -4.0030    0.4312 C   0  0  0  0  0  0  0  0  0  0  0  0
    4.2307   -3.9046    1.9128 C   0  0  0  0  0  0  0  0  0  0  0  0
   -1.5607   -0.2341   -0.0540 C   0  0  0  0  0  0  0  0  0  0  0  0
   -1.8139   -2.5381   -1.8054 C   0  0  0  0  0  0  0  0  0  0  0  0
   -2.9910   -1.6333   -1.4782 C   0  0  0  0  0  0  0  0  0  0  0  0
   -0.1600   -3.7363   -0.4149 C   0  0  0  0  0  0  0  0  0  0  0  0
    0.6033   -0.6444   -1.2535 C   0  0  0  0  0  0  0  0  0  0  0  0
   -4.7236    0.4313    0.0407 C   0  0  0  0  0  0  0  0  0  0  0  0
    2.6386    0.7817   -1.3839 C   0  0  1  0  0  0  0  0  0  0  0  0
    2.2201    2.1563   -1.9264 C   0  0  0  0  0  0  0  0  0  0  0  0
   -5.7883   -0.4237   -0.2436 C   0  0  0  0  0  0  0  0  0  0  0  0
   -4.4960    0.8498    1.3516 C   0  0  0  0  0  0  0  0  0  0  0  0
    3.9241    0.8564   -0.5706 C   0  0  0  0  0  0  0  0  0  0  0  0
    1.8986    3.1834   -0.8642 C   0  0  0  0  0  0  0  0  0  0  0  0
   -6.6256   -0.8601    0.7832 C   0  0  0  0  0  0  0  0  0  0  0  0
   -5.3332    0.4133    2.3784 C   0  0  0  0  0  0  0  0  0  0  0  0
   -6.3980   -0.4416    2.0942 C   0  0  0  0  0  0  0  0  0  0  0  0
    0.5957    3.3031   -0.3805 C   0  0  0  0  0  0  0  0  0  0  0  0
    2.9057    4.0112   -0.3679 C   0  0  0  0  0  0  0  0  0  0  0  0
    0.2999    4.2506    0.5994 C   0  0  0  0  0  0  0  0  0  0  0  0
    2.6098    4.9587    0.6120 C   0  0  0  0  0  0  0  0  0  0  0  0
    1.3070    5.0784    1.0956 C   0  0  0  0  0  0  0  0  0  0  0  0
    6.2057    1.4816   -0.5970 C   0  0  0  0  0  0  0  0  0  0  0  0
   -0.3341    6.0708    2.5019 C   0  0  0  0  0  0  0  0  0  0  0  0
    0.8872   -5.6843    0.9229 H   0  0  0  0  0  0  0  0  0  0  0  0
    2.2591   -5.6604    2.8832 H   0  0  0  0  0  0  0  0  0  0  0  0
    1.0161   -4.4315    3.1070 H   0  0  0  0  0  0  0  0  0  0  0  0
    2.5333   -5.0470   -0.8887 H   0  0  0  0  0  0  0  0  0  0  0  0
    3.1986   -6.0399    0.4041 H   0  0  0  0  0  0  0  0  0  0  0  0
    0.1016   -1.2808    0.7101 H   0  0  0  0  0  0  0  0  0  0  0  0
    2.6098   -2.6393    2.5625 H   0  0  0  0  0  0  0  0  0  0  0  0
    3.2763   -3.6596    3.8286 H   0  0  0  0  0  0  0  0  0  0  0  0
    4.7777   -4.2630   -0.1415 H   0  0  0  0  0  0  0  0  0  0  0  0
    3.5463   -3.0231    0.0680 H   0  0  0  0  0  0  0  0  0  0  0  0
    4.9613   -3.1024    2.0663 H   0  0  0  0  0  0  0  0  0  0  0  0
    4.7084   -4.8375    2.2365 H   0  0  0  0  0  0  0  0  0  0  0  0
   -2.1085   -0.5554    0.8392 H   0  0  0  0  0  0  0  0  0  0  0  0
   -1.1895    0.7788    0.1204 H   0  0  0  0  0  0  0  0  0  0  0  0
   -1.3552   -2.2487   -2.7553 H   0  0  0  0  0  0  0  0  0  0  0  0
   -2.1855   -3.5591   -1.9456 H   0  0  0  0  0  0  0  0  0  0  0  0
   -3.6851   -1.6391   -2.3243 H   0  0  0  0  0  0  0  0  0  0  0  0
   -3.5045   -2.0204   -0.5918 H   0  0  0  0  0  0  0  0  0  0  0  0
    1.1454   -2.7558    0.8964 H   0  0  0  0  0  0  0  0  0  0  0  0
    1.5050    0.3322    0.3457 H   0  0  0  0  0  0  0  0  0  0  0  0
    2.8632    0.1300   -2.2385 H   0  0  0  0  0  0  0  0  0  0  0  0
    1.3443    2.0423   -2.5798 H   0  0  0  0  0  0  0  0  0  0  0  0
    3.0088    2.5595   -2.5753 H   0  0  0  0  0  0  0  0  0  0  0  0
   -5.9843   -0.7641   -1.2563 H   0  0  0  0  0  0  0  0  0  0  0  0
   -3.6712    1.5128    1.5966 H   0  0  0  0  0  0  0  0  0  0  0  0
   -7.4543   -1.5264    0.5622 H   0  0  0  0  0  0  0  0  0  0  0  0
   -5.1555    0.7383    3.3993 H   0  0  0  0  0  0  0  0  0  0  0  0
   -7.0495   -0.7819    2.8937 H   0  0  0  0  0  0  0  0  0  0  0  0
   -0.1976    2.6742   -0.7716 H   0  0  0  0  0  0  0  0  0  0  0  0
    3.9238    3.9358   -0.7394 H   0  0  0  0  0  0  0  0  0  0  0  0
   -0.7331    4.2917    0.9277 H   0  0  0  0  0  0  0  0  0  0  0  0
    3.3982    5.6018    0.9937 H   0  0  0  0  0  0  0  0  0  0  0  0
    6.0981    2.1634    0.2521 H   0  0  0  0  0  0  0  0  0  0  0  0
    6.5501    0.4982   -0.2630 H   0  0  0  0  0  0  0  0  0  0  0  0
    6.9442    1.8963   -1.2882 H   0  0  0  0  0  0  0  0  0  0  0  0
   -0.3828    6.8579    3.2616 H   0  0  0  0  0  0  0  0  0  0  0  0
   -0.6445    5.1390    2.9867 H   0  0  0  0  0  0  0  0  0  0  0  0
   -1.0126    6.3642    1.6937 H   0  0  0  0  0  0  0  0  0  0  0  0
  1  3  2  0  0  0  0
  1  4  2  0  0  0  0
  1 10  1  0  0  0  0
  1 25  1  0  0  0  0
  2 23  2  0  0  0  0
  5 24  2  0  0  0  0
  6 30  1  0  0  0  0
  6 40  1  0  0  0  0
  7 30  2  0  0  0  0
  8 39  1  0  0  0  0
  8 41  1  0  0  0  0
  9 16  1  0  0  0  0
  9 21  1  0  0  0  0
  9 23  1  0  0  0  0
 10 20  1  0  0  0  0
 10 22  1  0  0  0  0
 11 13  1  0  0  0  0
 11 23  1  0  0  0  0
 11 60  1  0  0  0  0
 12 24  1  0  0  0  0
 12 26  1  0  0  0  0
 12 61  1  0  0  0  0
 13 14  1  0  0  0  0
 13 15  1  0  0  0  0
 13 42  1  0  0  0  0
 14 17  1  0  0  0  0
 14 43  1  0  0  0  0
 14 44  1  0  0  0  0
 15 18  1  0  0  0  0
 15 45  1  0  0  0  0
 15 46  1  0  0  0  0
 16 20  1  0  0  0  0
 16 24  1  0  0  0  0
 16 47  1  0  0  0  0
 17 19  1  0  0  0  0
 17 48  1  0  0  0  0
 17 49  1  0  0  0  0
 18 19  1  0  0  0  0
 18 50  1  0  0  0  0
 18 51  1  0  0  0  0
 19 52  1  0  0  0  0
 19 53  1  0  0  0  0
 20 54  1  0  0  0  0
 20 55  1  0  0  0  0
 21 22  1  0  0  0  0
 21 56  1  0  0  0  0
 21 57  1  0  0  0  0
 22 58  1  0  0  0  0
 22 59  1  0  0  0  0
 25 28  2  0  0  0  0
 25 29  1  0  0  0  0
 26 27  1  0  0  0  0
 26 30  1  0  0  0  0
 26 62  1  0  0  0  0
 27 31  1  0  0  0  0
 27 63  1  0  0  0  0
 27 64  1  0  0  0  0
 28 32  1  0  0  0  0
 28 65  1  0  0  0  0
 29 33  2  0  0  0  0
 29 66  1  0  0  0  0
 31 35  2  0  0  0  0
 31 36  1  0  0  0  0
 32 34  2  0  0  0  0
 32 67  1  0  0  0  0
 33 34  1  0  0  0  0
 33 68  1  0  0  0  0
 34 69  1  0  0  0  0
 35 37  1  0  0  0  0
 35 70  1  0  0  0  0
 36 38  2  0  0  0  0
 36 71  1  0  0  0  0
 37 39  2  0  0  0  0
 37 72  1  0  0  0  0
 38 39  1  0  0  0  0
 38 73  1  0  0  0  0
 40 74  1  0  0  0  0
 40 75  1  0  0  0  0
 40 76  1  0  0  0  0
 41 77  1  0  0  0  0
 41 78  1  0  0  0  0
 41 79  1  0  0  0  0
M  END
> <PUBCHEM_COMPOUND_CID>
7164901

> <PUBCHEM_CONFORMER_RMSD>
1.4

> <PUBCHEM_CONFORMER_DIVERSEORDER>
1
42
83
97
57
44
61
41
69
54
84
103
58
107
34
81
60
72
45
65
85
123
73
118
98
92
59
102
96
93
111
86
18
112
14
62
121
115
104
101
68
75
120
113
109
91
38
114
23
49
117
48
119
67
124
108
116
63
47
74
105
70
66
30
79
90
87
100
80
95
40
2
64
106
13
78
27
52
89
56
110
99
15
33
94
25
10
37
29
5
8
51
122
82
77
17
22
39
36
6
55
26
31
32
35
76
46
88
43
50
28
71
9
11
21
16
12
19
7
53
20
3
24
4

> <PUBCHEM_MMFF94_PARTIAL_CHARGES>
47
1 1.45
10 -0.85
11 -0.73
12 -0.73
13 0.3
16 0.36
2 -0.57
20 0.36
21 0.3
22 0.36
23 0.69
24 0.57
25 -0.01
26 0.36
27 0.14
28 -0.15
29 -0.15
3 -0.65
30 0.66
31 -0.14
32 -0.15
33 -0.15
34 -0.15
35 -0.15
36 -0.15
37 -0.15
38 -0.15
39 0.08
4 -0.65
40 0.28
41 0.28
5 -0.57
6 -0.43
60 0.37
61 0.37
65 0.15
66 0.15
67 0.15
68 0.15
69 0.15
7 -0.57
70 0.15
71 0.15
72 0.15
73 0.15
8 -0.36
9 -0.66

> <PUBCHEM_EFFECTIVE_ROTOR_COUNT>
15.4

> <PUBCHEM_PHARMACOPHORE_FEATURES>
12
1 11 donor
1 12 donor
1 2 acceptor
1 3 acceptor
1 4 acceptor
1 5 acceptor
1 7 acceptor
1 8 acceptor
6 13 14 15 17 18 19 rings
6 25 28 29 32 33 34 rings
6 31 35 36 37 38 39 rings
6 9 10 16 20 21 22 rings

> <PUBCHEM_HEAVY_ATOM_COUNT>
41

> <PUBCHEM_ATOM_DEF_STEREO_COUNT>
2

> <PUBCHEM_ATOM_UDEF_STEREO_COUNT>
0

> <PUBCHEM_BOND_DEF_STEREO_COUNT>
0

> <PUBCHEM_BOND_UDEF_STEREO_COUNT>
0

> <PUBCHEM_ISOTOPIC_ATOM_COUNT>
0

> <PUBCHEM_COMPONENT_COUNT>
1

> <PUBCHEM_CACTVS_TAUTO_COUNT>
4

> <PUBCHEM_CONFORMER_ID>
006D53E500000001

> <PUBCHEM_MMFF94_ENERGY>
89.824

> <PUBCHEM_FEATURE_SELFOVERLAP>
60.918

> <PUBCHEM_SHAPE_FINGERPRINT>
10074138 170 17399795398711926931
10675989 125 17761746852179429543
10794284 68 17474703579629614486
11115154 58 17115454661003348597
14020679 6 18267029547074806564
140371 6 17400917501688351495
14955137 171 18048321037560704775
150020 26 18113611261993149269
16112460 7 18128828618875766377
16114785 44 17547018880453531707
19319366 153 18261403294609755132
21344244 78 18266451010458449075
3882209 13 17979347565681373265
4015057 19 15530233247096601334

> <PUBCHEM_SHAPE_MULTIPOLES>
786.6
11.61
9.95
2.49
13.85
4.79
-0.9
-2.44
-3.08
-12.76
-6.93
0.74
-0.18
-3.09

> <PUBCHEM_SHAPE_SELFOVERLAP>
1637.163

> <PUBCHEM_SHAPE_VOLUME>
447

> <PUBCHEM_COORDINATE_TYPE>
2
5
10

$$$$
