75536965
  -OEChem-12032416343D

 31 33  0     1  0  0  0  0  0999 V2000
   -4.9484   -0.2071   -0.1506 O   0  0  0  0  0  0  0  0  0  0  0  0
    1.6469   -2.5217   -0.3639 O   0  0  0  0  0  0  0  0  0  0  0  0
   -2.5956   -0.1794   -0.2094 N   0  0  0  0  0  0  0  0  0  0  0  0
    0.0040   -1.0059    0.3164 N   0  0  0  0  0  0  0  0  0  0  0  0
   -3.6872    1.7295    0.2544 N   0  0  0  0  0  0  0  0  0  0  0  0
    2.1482    0.6841   -0.9036 N   0  0  0  0  0  0  0  0  0  0  0  0
    4.4277    0.4899    0.7188 N   0  0  0  0  0  0  0  0  0  0  0  0
   -1.5553    0.8322   -0.1365 C   0  0  2  0  0  0  0  0  0  0  0  0
   -0.4081    0.3457    0.7431 C   0  0  0  0  0  0  0  0  0  0  0  0
   -2.2876    2.0633    0.3883 C   0  0  0  0  0  0  0  0  0  0  0  0
   -2.2487   -1.5540   -0.5257 C   0  0  0  0  0  0  0  0  0  0  0  0
   -1.0714   -2.0074    0.3360 C   0  0  0  0  0  0  0  0  0  0  0  0
   -3.8734    0.3689   -0.0522 C   0  0  0  0  0  0  0  0  0  0  0  0
    1.2972   -1.3863   -0.0455 C   0  0  0  0  0  0  0  0  0  0  0  0
    2.3417   -0.3541   -0.0661 C   0  0  0  0  0  0  0  0  0  0  0  0
    3.4614   -0.4494    0.7307 C   0  0  0  0  0  0  0  0  0  0  0  0
    3.1145    1.6235   -0.9156 C   0  0  0  0  0  0  0  0  0  0  0  0
    4.2342    1.5282   -0.1188 C   0  0  0  0  0  0  0  0  0  0  0  0
   -1.2053    1.0015   -1.1628 H   0  0  0  0  0  0  0  0  0  0  0  0
    0.4107    1.0654    0.7498 H   0  0  0  0  0  0  0  0  0  0  0  0
   -0.7394    0.2443    1.7848 H   0  0  0  0  0  0  0  0  0  0  0  0
   -2.0904    2.2624    1.4462 H   0  0  0  0  0  0  0  0  0  0  0  0
   -2.0697    2.9618   -0.1953 H   0  0  0  0  0  0  0  0  0  0  0  0
   -1.9749   -1.5765   -1.5866 H   0  0  0  0  0  0  0  0  0  0  0  0
   -3.1206   -2.1996   -0.3835 H   0  0  0  0  0  0  0  0  0  0  0  0
   -1.3850   -2.1168    1.3811 H   0  0  0  0  0  0  0  0  0  0  0  0
   -0.7087   -2.9817   -0.0057 H   0  0  0  0  0  0  0  0  0  0  0  0
   -4.4488    2.3751    0.4375 H   0  0  0  0  0  0  0  0  0  0  0  0
    3.6245   -1.2798    1.4078 H   0  0  0  0  0  0  0  0  0  0  0  0
    2.9593    2.4581   -1.5880 H   0  0  0  0  0  0  0  0  0  0  0  0
    5.0101    2.2835   -0.1289 H   0  0  0  0  0  0  0  0  0  0  0  0
  1 13  2  0  0  0  0
  2 14  2  0  0  0  0
  3  8  1  0  0  0  0
  3 11  1  0  0  0  0
  3 13  1  0  0  0  0
  4  9  1  0  0  0  0
  4 12  1  0  0  0  0
  4 14  1  0  0  0  0
  5 10  1  0  0  0  0
  5 13  1  0  0  0  0
  5 28  1  0  0  0  0
  6 15  2  0  0  0  0
  6 17  1  0  0  0  0
  7 16  2  0  0  0  0
  7 18  1  0  0  0  0
  8  9  1  0  0  0  0
  8 10  1  0  0  0  0
  8 19  1  0  0  0  0
  9 20  1  0  0  0  0
  9 21  1  0  0  0  0
 10 22  1  0  0  0  0
 10 23  1  0  0  0  0
 11 12  1  0  0  0  0
 11 24  1  0  0  0  0
 11 25  1  0  0  0  0
 12 26  1  0  0  0  0
 12 27  1  0  0  0  0
 14 15  1  0  0  0  0
 15 16  1  0  0  0  0
 16 29  1  0  0  0  0
 17 18  2  0  0  0  0
 17 30  1  0  0  0  0
 18 31  1  0  0  0  0
M  END
> <PUBCHEM_COMPOUND_CID>
75536965

> <PUBCHEM_CONFORMER_RMSD>
0.6

> <PUBCHEM_CONFORMER_DIVERSEORDER>
1
10
23
14
19
20
24
18
21
15
16
4
8
9
22
7
17
11
5
13
3
12
2
6

> <PUBCHEM_MMFF94_PARTIAL_CHARGES>
22
1 -0.57
10 0.3
11 0.3
12 0.3
13 0.69
14 0.54
15 0.4
16 0.16
17 0.16
18 0.16
2 -0.57
28 0.37
29 0.15
3 -0.66
30 0.15
31 0.15
4 -0.66
5 -0.73
6 -0.62
7 -0.62
8 0.3
9 0.3

> <PUBCHEM_EFFECTIVE_ROTOR_COUNT>
3.2

> <PUBCHEM_PHARMACOPHORE_FEATURES>
8
1 1 acceptor
1 2 acceptor
1 5 donor
1 6 acceptor
1 7 acceptor
5 3 5 8 10 13 rings
6 3 4 8 9 11 12 rings
6 6 7 15 16 17 18 rings

> <PUBCHEM_HEAVY_ATOM_COUNT>
18

> <PUBCHEM_ATOM_DEF_STEREO_COUNT>
1

> <PUBCHEM_ATOM_UDEF_STEREO_COUNT>
0

> <PUBCHEM_BOND_DEF_STEREO_COUNT>
0

> <PUBCHEM_BOND_UDEF_STEREO_COUNT>
0

> <PUBCHEM_ISOTOPIC_ATOM_COUNT>
0

> <PUBCHEM_COMPONENT_COUNT>
1

> <PUBCHEM_CACTVS_TAUTO_COUNT>
2

> <PUBCHEM_CONFORMER_ID>
04809A4500000001

> <PUBCHEM_MMFF94_ENERGY>
50.4887

> <PUBCHEM_FEATURE_SELFOVERLAP>
40.699

> <PUBCHEM_SHAPE_FINGERPRINT>
10062212 137 18337662113671157410
10465860 228 18338802200123737666
10498660 4 18340490057472217900
10646746 165 18342174501281578992
11132069 177 18409446998718252388
11715629 250 18410292467314855549
12173636 292 18199748051338977629
12251169 10 18113896070275690914
12403814 3 17967526883410588237
12788726 201 17465665993771677714
13380535 76 18408887343020798754
13583140 156 16950284026648928561
14251764 38 17240756234132902061
14415576 193 18411983533631484078
14739800 52 17980467186636465680
14787075 74 18262238940938230051
14897335 6 18410856551145001902
15196674 1 18411136901014308849
15442244 35 18263921051857493978
15536298 74 18342178804316518318
15775835 57 18408044034998272644
1741750 31 18343588425488968931
17492 89 18408602574026439450
18186145 218 18197223542238852413
20671657 1 18265621987476361870
20715895 44 17829596272137517325
21524375 3 18407758144716034466
22854114 111 18261395511786025480
23227448 37 18338234967945523805
23402539 116 18338506534358965879
23557571 272 18058456576210243694
23559900 14 18199746934389186534
3545911 37 18410013243175288350
4340502 62 17022906736010586003
474 4 17967817171391080148
4921388 177 15625929993586586669
5104073 3 18338238150679814507
537710 114 18412827992921510329
58051976 378 18413669106310336551
6333272 397 18334859411213242330
69090 78 18408038515706633035
7364860 26 18270964514618234702
9709674 26 18412269406423058535
9981440 41 18337105761019800442

> <PUBCHEM_SHAPE_MULTIPOLES>
333.79
8.53
2.25
0.81
0.17
0.41
-0.01
-3.51
0.08
0.11
-0.12
-0.37
-0.08
-0.58

> <PUBCHEM_SHAPE_SELFOVERLAP>
716.374

> <PUBCHEM_SHAPE_VOLUME>
182.9

> <PUBCHEM_COORDINATE_TYPE>
2
5
10

$$$$
