75367741
  -OEChem-12032416403D

 50 51  0     1  0  0  0  0  0999 V2000
   -0.1227   -2.3732    1.2448 O   0  0  0  0  0  0  0  0  0  0  0  0
    1.0863    0.8436    0.1274 O   0  0  0  0  0  0  0  0  0  0  0  0
   -4.4105   -1.3678   -0.9248 O   0  0  0  0  0  0  0  0  0  0  0  0
    6.5172    0.1196   -0.5291 O   0  0  0  0  0  0  0  0  0  0  0  0
   -2.1466   -0.8779   -0.6547 N   0  0  0  0  0  0  0  0  0  0  0  0
   -4.7469    1.4030    0.2042 C   0  0  0  0  0  0  0  0  0  0  0  0
   -3.8181    0.9284   -0.9266 C   0  0  0  0  0  0  0  0  0  0  0  0
   -1.0874    0.1326   -0.5726 C   0  0  0  0  0  0  0  0  0  0  0  0
    0.2660   -0.3173   -0.0155 C   0  0  2  0  0  0  0  0  0  0  0  0
   -3.4959   -0.5444   -0.8392 C   0  0  0  0  0  0  0  0  0  0  0  0
   -1.7766   -2.2920   -0.5544 C   0  0  0  0  0  0  0  0  0  0  0  0
    0.1579   -0.9822    1.3540 C   0  0  0  0  0  0  0  0  0  0  0  0
   -5.0147    2.9146    0.1068 C   0  0  0  0  0  0  0  0  0  0  0  0
   -6.0847    0.6444    0.1807 C   0  0  0  0  0  0  0  0  0  0  0  0
   -4.0426    1.1146    1.5433 C   0  0  0  0  0  0  0  0  0  0  0  0
   -1.4647   -2.6817    0.8844 C   0  0  0  0  0  0  0  0  0  0  0  0
    2.4321    0.6643   -0.0353 C   0  0  0  0  0  0  0  0  0  0  0  0
    3.3071    0.9660    1.0083 C   0  0  0  0  0  0  0  0  0  0  0  0
    2.9300    0.1796   -1.2449 C   0  0  0  0  0  0  0  0  0  0  0  0
    4.6799    0.7829    0.8423 C   0  0  0  0  0  0  0  0  0  0  0  0
    4.3027   -0.0034   -1.4109 C   0  0  0  0  0  0  0  0  0  0  0  0
    5.1777    0.2982   -0.3672 C   0  0  0  0  0  0  0  0  0  0  0  0
    7.3544    0.4479    0.5788 C   0  0  0  0  0  0  0  0  0  0  0  0
   -4.3353    1.0592   -1.8884 H   0  0  0  0  0  0  0  0  0  0  0  0
   -2.9532    1.5851   -1.0099 H   0  0  0  0  0  0  0  0  0  0  0  0
   -1.4300    0.9556    0.0625 H   0  0  0  0  0  0  0  0  0  0  0  0
   -0.9502    0.5505   -1.5777 H   0  0  0  0  0  0  0  0  0  0  0  0
    0.7046   -1.0284   -0.7261 H   0  0  0  0  0  0  0  0  0  0  0  0
   -0.9360   -2.4842   -1.2293 H   0  0  0  0  0  0  0  0  0  0  0  0
   -2.6152   -2.9039   -0.9033 H   0  0  0  0  0  0  0  0  0  0  0  0
    1.1097   -0.9095    1.8906 H   0  0  0  0  0  0  0  0  0  0  0  0
   -0.5838   -0.4881    1.9940 H   0  0  0  0  0  0  0  0  0  0  0  0
   -4.0797    3.4848    0.1413 H   0  0  0  0  0  0  0  0  0  0  0  0
   -5.5209    3.1603   -0.8334 H   0  0  0  0  0  0  0  0  0  0  0  0
   -5.6481    3.2635    0.9300 H   0  0  0  0  0  0  0  0  0  0  0  0
   -5.9961   -0.3897    0.5261 H   0  0  0  0  0  0  0  0  0  0  0  0
   -6.5239    0.6431   -0.8229 H   0  0  0  0  0  0  0  0  0  0  0  0
   -6.8097    1.1226    0.8507 H   0  0  0  0  0  0  0  0  0  0  0  0
   -3.0793    1.6323    1.6074 H   0  0  0  0  0  0  0  0  0  0  0  0
   -3.8656    0.0460    1.7046 H   0  0  0  0  0  0  0  0  0  0  0  0
   -4.6538    1.4649    2.3838 H   0  0  0  0  0  0  0  0  0  0  0  0
   -2.1615   -2.2306    1.6006 H   0  0  0  0  0  0  0  0  0  0  0  0
   -1.5583   -3.7687    0.9793 H   0  0  0  0  0  0  0  0  0  0  0  0
    2.9238    1.3436    1.9524 H   0  0  0  0  0  0  0  0  0  0  0  0
    2.2651   -0.0417   -2.0753 H   0  0  0  0  0  0  0  0  0  0  0  0
    5.3023    1.0370    1.6934 H   0  0  0  0  0  0  0  0  0  0  0  0
    4.6851   -0.3771   -2.3568 H   0  0  0  0  0  0  0  0  0  0  0  0
    7.2972    1.5138    0.8245 H   0  0  0  0  0  0  0  0  0  0  0  0
    8.3867    0.2451    0.2750 H   0  0  0  0  0  0  0  0  0  0  0  0
    7.1449   -0.1896    1.4444 H   0  0  0  0  0  0  0  0  0  0  0  0
  1 12  1  0  0  0  0
  1 16  1  0  0  0  0
  2  9  1  0  0  0  0
  2 17  1  0  0  0  0
  3 10  2  0  0  0  0
  4 22  1  0  0  0  0
  4 23  1  0  0  0  0
  5  8  1  0  0  0  0
  5 10  1  0  0  0  0
  5 11  1  0  0  0  0
  6  7  1  0  0  0  0
  6 13  1  0  0  0  0
  6 14  1  0  0  0  0
  6 15  1  0  0  0  0
  7 10  1  0  0  0  0
  7 24  1  0  0  0  0
  7 25  1  0  0  0  0
  8  9  1  0  0  0  0
  8 26  1  0  0  0  0
  8 27  1  0  0  0  0
  9 12  1  0  0  0  0
  9 28  1  0  0  0  0
 11 16  1  0  0  0  0
 11 29  1  0  0  0  0
 11 30  1  0  0  0  0
 12 31  1  0  0  0  0
 12 32  1  0  0  0  0
 13 33  1  0  0  0  0
 13 34  1  0  0  0  0
 13 35  1  0  0  0  0
 14 36  1  0  0  0  0
 14 37  1  0  0  0  0
 14 38  1  0  0  0  0
 15 39  1  0  0  0  0
 15 40  1  0  0  0  0
 15 41  1  0  0  0  0
 16 42  1  0  0  0  0
 16 43  1  0  0  0  0
 17 18  2  0  0  0  0
 17 19  1  0  0  0  0
 18 20  1  0  0  0  0
 18 44  1  0  0  0  0
 19 21  2  0  0  0  0
 19 45  1  0  0  0  0
 20 22  2  0  0  0  0
 20 46  1  0  0  0  0
 21 22  1  0  0  0  0
 21 47  1  0  0  0  0
 23 48  1  0  0  0  0
 23 49  1  0  0  0  0
 23 50  1  0  0  0  0
M  END
> <PUBCHEM_COMPOUND_CID>
75367741

> <PUBCHEM_CONFORMER_RMSD>
1

> <PUBCHEM_CONFORMER_DIVERSEORDER>
2
94
123
78
102
118
127
96
132
86
24
17
65
87
66
39
109
105
57
76
75
90
25
115
98
106
126
77
74
117
128
83
85
40
70
26
62
95
112
50
81
93
43
116
120
7
63
108
31
61
68
19
22
92
104
129
47
64
125
30
36
84
46
9
18
28
113
114
130
13
121
58
69
29
107
101
1
131
8
99
124
56
10
4
51
80
100
52
49
41
91
32
79
37
71
60
54
3
73
15
59
33
23
20
6
42
55
21
38
72
110
89
35
11
122
103
5
44
119
88
67
14
53
48
111
34
12
27
45
97
82
16

> <PUBCHEM_MMFF94_PARTIAL_CHARGES>
23
1 -0.56
10 0.57
11 0.3
12 0.28
16 0.28
17 0.08
18 -0.15
19 -0.15
2 -0.36
20 -0.15
21 -0.15
22 0.08
23 0.28
3 -0.57
4 -0.36
44 0.15
45 0.15
46 0.15
47 0.15
5 -0.66
7 0.06
8 0.3
9 0.28

> <PUBCHEM_EFFECTIVE_ROTOR_COUNT>
7.4

> <PUBCHEM_PHARMACOPHORE_FEATURES>
7
1 1 acceptor
1 2 acceptor
1 3 acceptor
1 4 acceptor
4 6 13 14 15 hydrophobe
6 17 18 19 20 21 22 rings
7 1 5 8 9 11 12 16 rings

> <PUBCHEM_HEAVY_ATOM_COUNT>
23

> <PUBCHEM_ATOM_DEF_STEREO_COUNT>
1

> <PUBCHEM_ATOM_UDEF_STEREO_COUNT>
0

> <PUBCHEM_BOND_DEF_STEREO_COUNT>
0

> <PUBCHEM_BOND_UDEF_STEREO_COUNT>
0

> <PUBCHEM_ISOTOPIC_ATOM_COUNT>
0

> <PUBCHEM_COMPONENT_COUNT>
1

> <PUBCHEM_CACTVS_TAUTO_COUNT>
1

> <PUBCHEM_CONFORMER_ID>
047E053D00000002

> <PUBCHEM_MMFF94_ENERGY>
88.758

> <PUBCHEM_FEATURE_SELFOVERLAP>
35.523

> <PUBCHEM_SHAPE_FINGERPRINT>
10291535 26 17489596666263982561
10447042 23 14333130754503780220
10670039 82 18411974741976198229
10906281 52 18338532906070287932
11036077 3 18187365415410573107
11265709 11 10519982673683701503
11405975 8 18335984289471873256
11552529 35 15937269930948339881
11823591 26 18334571305387203853
12236239 1 17022897978471944732
12516196 113 10879986952176164341
12616971 3 16588305029757344654
12633257 1 18113337543864441052
12788726 201 17846219887042087288
12916748 109 18342459257576140093
12954195 1 18339356483029068655
13177829 73 18409167692652631476
14251764 38 18197210575733333016
14713325 29 18262243342979418027
15021287 119 16153708751999932934
15183329 4 17846780680768691098
17844677 252 18271527618873766024
18222031 100 10663815274032505934
19489759 90 18131068255283209061
200 152 15051739694123866494
20281389 69 18411980252166128824
20621476 66 18409733954226590300
20645477 70 16702313338543095772
20681677 155 18334012809267343858
21279426 13 18129387012037003550
21315759 40 17530683233929777915
21424621 283 18341616971007387728
21623969 137 14779263090663379792
21756936 100 18410572886315199523
23198884 109 18341611533525627343
23402539 116 18412823594811721844
23536379 177 17632578240587387572
23559900 14 17346873472989101544
25147074 1 18188472636753000651
3009799 131 13470687023167384795
4073 2 18337390560902194610
4098825 35 16702019807593223707
4325135 7 11530484428364494936
444769 64 18187927240567872786
5283173 99 18131631183978513776
5385378 56 18261960617950511219
59755656 520 18407757041067909279
6328613 192 18261959652137173164
7226269 152 18343301453086469176

> <PUBCHEM_SHAPE_MULTIPOLES>
444.87
15.85
2.24
1.3
14
0.82
-0.12
-8.22
0.33
-3.59
-0.54
0.16
0.17
-0.2

> <PUBCHEM_SHAPE_SELFOVERLAP>
911.349

> <PUBCHEM_SHAPE_VOLUME>
256.6

> <PUBCHEM_COORDINATE_TYPE>
2
5
10

$$$$
