7051458
  -OEChem-12032416113D

 59 63  0     1  0  0  0  0  0999 V2000
   -1.6575    2.6046    1.6843 S   0  0  0  0  0  0  0  0  0  0  0  0
   -2.0041    4.1500   -3.1550 F   0  0  0  0  0  0  0  0  0  0  0  0
    1.3829    2.8427   -0.2725 O   0  0  0  0  0  0  0  0  0  0  0  0
    0.6939   -1.9905   -2.4813 O   0  0  0  0  0  0  0  0  0  0  0  0
   -1.0540   -3.1245   -1.0499 O   0  0  0  0  0  0  0  0  0  0  0  0
   -2.0688    1.3295    2.2391 O   0  0  0  0  0  0  0  0  0  0  0  0
   -2.4606    3.8006    1.8514 O   0  0  0  0  0  0  0  0  0  0  0  0
    2.4055   -2.0410   -0.9106 N   0  0  0  0  0  0  0  0  0  0  0  0
    2.5163    0.8911    0.3573 N   0  0  0  0  0  0  0  0  0  0  0  0
   -0.0512    2.9475    2.1419 N   0  0  0  0  0  0  0  0  0  0  0  0
    4.1860   -0.3077   -1.1666 C   0  0  1  0  0  0  0  0  0  0  0  0
    3.6887   -1.2268    1.0598 C   0  0  2  0  0  0  0  0  0  0  0  0
    4.8201   -0.7828    0.1350 C   0  0  0  0  0  0  0  0  0  0  0  0
    3.3837   -1.4450   -1.8225 C   0  0  0  0  0  0  0  0  0  0  0  0
    3.3138    0.9191   -0.8752 C   0  0  0  0  0  0  0  0  0  0  0  0
    2.9263   -2.4016    0.4165 C   0  0  0  0  0  0  0  0  0  0  0  0
    2.7310   -0.0838    1.3409 C   0  0  0  0  0  0  0  0  0  0  0  0
    2.0730   -0.0256    2.5133 C   0  0  0  0  0  0  0  0  0  0  0  0
    1.6028    1.9497    0.5448 C   0  0  0  0  0  0  0  0  0  0  0  0
    1.1118   -2.3016   -1.3630 C   0  0  0  0  0  0  0  0  0  0  0  0
    0.8910    1.9466    1.8476 C   0  0  0  0  0  0  0  0  0  0  0  0
    1.1217    1.0197    2.7779 C   0  0  0  0  0  0  0  0  0  0  0  0
    0.1873   -3.0017   -0.3993 C   0  0  0  0  0  0  0  0  0  0  0  0
   -1.6444    2.3031   -0.0836 C   0  0  0  0  0  0  0  0  0  0  0  0
   -2.1862   -3.0720   -0.2675 C   0  0  0  0  0  0  0  0  0  0  0  0
   -1.8333    3.3689   -0.9260 C   0  0  0  0  0  0  0  0  0  0  0  0
   -1.4462    1.0185   -0.5220 C   0  0  0  0  0  0  0  0  0  0  0  0
   -2.1301   -3.5219    1.0432 C   0  0  0  0  0  0  0  0  0  0  0  0
   -3.3624   -2.5705   -0.8044 C   0  0  0  0  0  0  0  0  0  0  0  0
   -1.8233    3.1342   -2.3008 C   0  0  0  0  0  0  0  0  0  0  0  0
   -1.4360    0.7839   -1.8970 C   0  0  0  0  0  0  0  0  0  0  0  0
   -1.6245    1.8416   -2.7864 C   0  0  0  0  0  0  0  0  0  0  0  0
   -3.2771   -3.4693    1.8353 C   0  0  0  0  0  0  0  0  0  0  0  0
   -4.5093   -2.5178   -0.0122 C   0  0  0  0  0  0  0  0  0  0  0  0
   -4.4665   -2.9673    1.3076 C   0  0  0  0  0  0  0  0  0  0  0  0
    4.9725   -0.0096   -1.8710 H   0  0  0  0  0  0  0  0  0  0  0  0
    4.1337   -1.5766    2.0005 H   0  0  0  0  0  0  0  0  0  0  0  0
    5.4071    0.0218    0.5957 H   0  0  0  0  0  0  0  0  0  0  0  0
    5.5090   -1.6147   -0.0556 H   0  0  0  0  0  0  0  0  0  0  0  0
    4.0634   -2.2521   -2.1228 H   0  0  0  0  0  0  0  0  0  0  0  0
    2.8946   -1.0851   -2.7339 H   0  0  0  0  0  0  0  0  0  0  0  0
    3.9649    1.7994   -0.7850 H   0  0  0  0  0  0  0  0  0  0  0  0
    2.6442    1.1257   -1.7197 H   0  0  0  0  0  0  0  0  0  0  0  0
    2.1359   -2.7490    1.0853 H   0  0  0  0  0  0  0  0  0  0  0  0
    3.6050   -3.2506    0.2664 H   0  0  0  0  0  0  0  0  0  0  0  0
    2.2168   -0.7760    3.2836 H   0  0  0  0  0  0  0  0  0  0  0  0
    0.6122    1.0117    3.7356 H   0  0  0  0  0  0  0  0  0  0  0  0
    0.5842   -3.9931   -0.1595 H   0  0  0  0  0  0  0  0  0  0  0  0
    0.1159   -2.3664    0.4917 H   0  0  0  0  0  0  0  0  0  0  0  0
    0.2563    3.8750    1.8177 H   0  0  0  0  0  0  0  0  0  0  0  0
   -1.9788    4.3817   -0.5668 H   0  0  0  0  0  0  0  0  0  0  0  0
   -1.2898    0.1832    0.1518 H   0  0  0  0  0  0  0  0  0  0  0  0
   -1.2307   -3.9448    1.4800 H   0  0  0  0  0  0  0  0  0  0  0  0
   -3.3982   -2.2195   -1.8315 H   0  0  0  0  0  0  0  0  0  0  0  0
   -1.2895   -0.2215   -2.2770 H   0  0  0  0  0  0  0  0  0  0  0  0
   -1.6181    1.6589   -3.8569 H   0  0  0  0  0  0  0  0  0  0  0  0
   -3.2459   -3.8249    2.8611 H   0  0  0  0  0  0  0  0  0  0  0  0
   -5.4355   -2.1266   -0.4230 H   0  0  0  0  0  0  0  0  0  0  0  0
   -5.3599   -2.9275    1.9240 H   0  0  0  0  0  0  0  0  0  0  0  0
  1  6  2  0  0  0  0
  1  7  2  0  0  0  0
  1 10  1  0  0  0  0
  1 24  1  0  0  0  0
  2 30  1  0  0  0  0
  3 19  2  0  0  0  0
  4 20  2  0  0  0  0
  5 23  1  0  0  0  0
  5 25  1  0  0  0  0
  8 14  1  0  0  0  0
  8 16  1  0  0  0  0
  8 20  1  0  0  0  0
  9 15  1  0  0  0  0
  9 17  1  0  0  0  0
  9 19  1  0  0  0  0
 10 21  1  0  0  0  0
 10 50  1  0  0  0  0
 11 13  1  0  0  0  0
 11 14  1  0  0  0  0
 11 15  1  0  0  0  0
 11 36  1  0  0  0  0
 12 13  1  0  0  0  0
 12 16  1  0  0  0  0
 12 17  1  0  0  0  0
 12 37  1  0  0  0  0
 13 38  1  0  0  0  0
 13 39  1  0  0  0  0
 14 40  1  0  0  0  0
 14 41  1  0  0  0  0
 15 42  1  0  0  0  0
 15 43  1  0  0  0  0
 16 44  1  0  0  0  0
 16 45  1  0  0  0  0
 17 18  2  0  0  0  0
 18 22  1  0  0  0  0
 18 46  1  0  0  0  0
 19 21  1  0  0  0  0
 20 23  1  0  0  0  0
 21 22  2  0  0  0  0
 22 47  1  0  0  0  0
 23 48  1  0  0  0  0
 23 49  1  0  0  0  0
 24 26  1  0  0  0  0
 24 27  2  0  0  0  0
 25 28  2  0  0  0  0
 25 29  1  0  0  0  0
 26 30  2  0  0  0  0
 26 51  1  0  0  0  0
 27 31  1  0  0  0  0
 27 52  1  0  0  0  0
 28 33  1  0  0  0  0
 28 53  1  0  0  0  0
 29 34  2  0  0  0  0
 29 54  1  0  0  0  0
 30 32  1  0  0  0  0
 31 32  2  0  0  0  0
 31 55  1  0  0  0  0
 32 56  1  0  0  0  0
 33 35  2  0  0  0  0
 33 57  1  0  0  0  0
 34 35  1  0  0  0  0
 34 58  1  0  0  0  0
 35 59  1  0  0  0  0
M  END
> <PUBCHEM_COMPOUND_CID>
7051458

> <PUBCHEM_CONFORMER_RMSD>
1

> <PUBCHEM_CONFORMER_DIVERSEORDER>
1
338
244
355
288
19
203
226
141
421
163
96
6
160
391
207
81
397
279
17
425
405
270
236
350
94
162
302
82
249
137
308
128
108
178
278
273
30
343
314
430
95
45
268
123
4
12
56
287
379
198
62
49
374
342
130
248
209
181
133
387
61
195
318
378
299
298
306
213
358
293
363
43
119
65
190
84
182
344
78
189
168
165
73
179
196
283
111
297
284
257
422
408
413
184
93
114
354
347
307
362
259
348
59
254
5
67
327
335
375
276
41
305
9
295
267
291
188
271
415
134
24
186
230
420
138
120
296
325
75
31
187
142
136
129
353
220
346
370
101
312
110
227
275
145
156
360
255
419
140
383
176
83
364
27
292
127
406
124
277
205
232
77
64
410
51
272
247
311
401
282
369
429
389
42
330
260
303
212
60
316
74
361
13
153
286
177
328
174
246
50
117
404
185
15
388
349
40
53
104
46
194
169
320
150
171
85
151
20
313
69
356
113
106
143
102
382
48
63
79
55
245
21
319
16
224
368
25
228
411
173
10
400
139
8
219
149
377
37
258
214
426
399
365
175
428
216
336
351
225
2
217
131
57
337
80
152
71
92
386
154
317
18
309
414
126
86
11
352
412
38
116
87
242
252
144
265
99
340
233
396
310
243
23
167
339
266
261
192
380
200
100
237
36
103
3
68
218
250
315
52
326
331
253
32
164
70
264
166
376
385
423
323
301
263
161
280
107
54
402
222
373
121
112
251
76
118
155
132
285
289
333
109
332
170
372
384
215
235
90
394
341
211
33
22
44
231
29
39
392
58
210
234
329
431
125
97
239
367
193
135
28
418
208
240
115
157
238
269
427
294
88
321
148
172
35
229
7
407
416
89
357
146
183
290
91
26
403
424
159
417
281
98
395
34
371
147
221
66
409
241
262
206
322
199
158
204
381
201
122
180
202
398
191
300
47
14
223
345
72
197
334
105
366
304
324
256
274
359
390
393

> <PUBCHEM_MMFF94_PARTIAL_CHARGES>
45
1 1.45
10 -0.75
12 0.14
14 0.3
15 0.3
16 0.3
17 -0.03
18 -0.15
19 0.62
2 -0.19
20 0.57
21 0.21
22 -0.15
23 0.34
24 -0.01
25 0.08
26 -0.15
27 -0.15
28 -0.15
29 -0.15
3 -0.57
30 0.19
31 -0.15
32 -0.15
33 -0.15
34 -0.15
35 -0.15
4 -0.57
46 0.15
47 0.15
5 -0.36
50 0.42
51 0.15
52 0.15
53 0.15
54 0.15
55 0.15
56 0.15
57 0.15
58 0.15
59 0.15
6 -0.65
7 -0.65
8 -0.66
9 -0.47

> <PUBCHEM_EFFECTIVE_ROTOR_COUNT>
8

> <PUBCHEM_PHARMACOPHORE_FEATURES>
11
1 10 donor
1 3 acceptor
1 4 acceptor
1 5 acceptor
1 6 acceptor
1 7 acceptor
6 24 26 27 30 31 32 rings
6 25 28 29 33 34 35 rings
6 8 11 12 13 14 16 rings
6 9 11 12 13 15 17 rings
6 9 17 18 19 21 22 rings

> <PUBCHEM_HEAVY_ATOM_COUNT>
35

> <PUBCHEM_ATOM_DEF_STEREO_COUNT>
2

> <PUBCHEM_ATOM_UDEF_STEREO_COUNT>
0

> <PUBCHEM_BOND_DEF_STEREO_COUNT>
0

> <PUBCHEM_BOND_UDEF_STEREO_COUNT>
0

> <PUBCHEM_ISOTOPIC_ATOM_COUNT>
0

> <PUBCHEM_COMPONENT_COUNT>
1

> <PUBCHEM_CACTVS_TAUTO_COUNT>
1

> <PUBCHEM_CONFORMER_ID>
006B98C200000001

> <PUBCHEM_MMFF94_ENERGY>
92.3107

> <PUBCHEM_FEATURE_SELFOVERLAP>
57.423

> <PUBCHEM_SHAPE_FINGERPRINT>
10032420 55 17123355738790948160
11513181 2 17630346335210463335
12156800 1 16621306836066512999
12422481 6 17764847475475575552
12655364 131 15978315945168898232
150020 26 17762629782055475955
15210252 30 17829054556111107640
15664445 248 17608084587638800261
19319366 153 17265535738582531073
20764821 26 18057584637703730662
35225 105 18264187167577759359
469060 322 18115045085427807134
57527452 28 17038044656628531906
6287921 2 16896801865392460770

> <PUBCHEM_SHAPE_MULTIPOLES>
672.57
7.21
6.01
2.99
0.35
2.84
0.16
-7.22
-0.82
5.39
0.98
0.44
2.19
2.01

> <PUBCHEM_SHAPE_SELFOVERLAP>
1461.208

> <PUBCHEM_SHAPE_VOLUME>
368.5

> <PUBCHEM_COORDINATE_TYPE>
2
5
10

$$$$
