11886185
  -OEChem-12032416163D

 53 57  0     1  0  0  0  0  0999 V2000
   -7.1284    3.4819   -0.0359 F   0  0  0  0  0  0  0  0  0  0  0  0
   -8.9676    2.3852    0.3088 F   0  0  0  0  0  0  0  0  0  0  0  0
   -7.9978    2.2923   -1.6353 F   0  0  0  0  0  0  0  0  0  0  0  0
    1.2696   -2.9821    0.5739 O   0  0  0  0  0  0  0  0  0  0  0  0
    1.2519   -1.3509   -2.1150 O   0  0  0  0  0  0  0  0  0  0  0  0
    5.3958    0.2217   -0.3590 O   0  0  0  0  0  0  0  0  0  0  0  0
   -3.0029   -2.4410    0.5466 O   0  0  0  0  0  0  0  0  0  0  0  0
    3.4032   -0.4953    0.7097 N   0  0  0  0  0  0  0  0  0  0  0  0
   -1.6257   -1.3853   -0.9811 N   0  0  0  0  0  0  0  0  0  0  0  0
    2.7729   -0.2748    1.8671 N   0  0  0  0  0  0  0  0  0  0  0  0
    4.6626    0.9041    1.7706 N   0  0  0  0  0  0  0  0  0  0  0  0
   -3.6785   -0.4626   -0.5212 N   0  0  0  0  0  0  0  0  0  0  0  0
    3.5498    0.5844    2.5152 N   0  0  0  0  0  0  0  0  0  0  0  0
    1.4496   -0.9970   -0.7340 C   0  0  1  0  0  0  0  0  0  0  0  0
    0.5139   -1.8614    0.0884 C   0  0  1  0  0  0  0  0  0  0  0  0
    2.8415   -1.4063   -0.2910 C   0  0  2  0  0  0  0  0  0  0  0  0
   -0.5330   -2.3240   -0.8999 C   0  0  2  0  0  0  0  0  0  0  0  0
    2.6421   -2.8419    0.1824 C   0  0  0  0  0  0  0  0  0  0  0  0
    0.2481   -2.3720   -2.1999 C   0  0  0  0  0  0  0  0  0  0  0  0
    4.5500    0.2216    0.6543 C   0  0  0  0  0  0  0  0  0  0  0  0
   -2.8043   -1.5154   -0.2365 C   0  0  0  0  0  0  0  0  0  0  0  0
   -4.9648   -0.2319    0.0198 C   0  0  0  0  0  0  0  0  0  0  0  0
    6.5585    0.9798   -0.3624 C   0  0  0  0  0  0  0  0  0  0  0  0
   -5.6859    0.8765   -0.3930 C   0  0  0  0  0  0  0  0  0  0  0  0
   -5.4779   -1.1203    0.9509 C   0  0  0  0  0  0  0  0  0  0  0  0
    7.7213    0.4263    0.1377 C   0  0  0  0  0  0  0  0  0  0  0  0
    6.5189    2.2659   -0.8656 C   0  0  0  0  0  0  0  0  0  0  0  0
   -6.9550    1.1029    0.1399 C   0  0  0  0  0  0  0  0  0  0  0  0
   -6.7469   -0.8939    1.4838 C   0  0  0  0  0  0  0  0  0  0  0  0
   -7.4855    0.2178    1.0784 C   0  0  0  0  0  0  0  0  0  0  0  0
    8.8897    1.1881    0.1344 C   0  0  0  0  0  0  0  0  0  0  0  0
    7.6874    3.0277   -0.8689 C   0  0  0  0  0  0  0  0  0  0  0  0
   -7.7455    2.2911   -0.2940 C   0  0  0  0  0  0  0  0  0  0  0  0
    8.8728    2.4889   -0.3690 C   0  0  0  0  0  0  0  0  0  0  0  0
    1.2381    0.0732   -0.6417 H   0  0  0  0  0  0  0  0  0  0  0  0
    0.1061   -1.3401    0.9603 H   0  0  0  0  0  0  0  0  0  0  0  0
    3.5497   -1.4011   -1.1281 H   0  0  0  0  0  0  0  0  0  0  0  0
   -0.9369   -3.3129   -0.6578 H   0  0  0  0  0  0  0  0  0  0  0  0
    3.2881   -3.1222    1.0199 H   0  0  0  0  0  0  0  0  0  0  0  0
    2.8170   -3.5473   -0.6374 H   0  0  0  0  0  0  0  0  0  0  0  0
    0.7668   -3.3306   -2.3109 H   0  0  0  0  0  0  0  0  0  0  0  0
   -0.3649   -2.2059   -3.0911 H   0  0  0  0  0  0  0  0  0  0  0  0
   -1.5087   -0.5563   -1.5561 H   0  0  0  0  0  0  0  0  0  0  0  0
   -3.3585    0.2240   -1.1998 H   0  0  0  0  0  0  0  0  0  0  0  0
   -5.2737    1.5670   -1.1246 H   0  0  0  0  0  0  0  0  0  0  0  0
   -4.9701   -2.0009    1.3150 H   0  0  0  0  0  0  0  0  0  0  0  0
    7.7370   -0.5864    0.5291 H   0  0  0  0  0  0  0  0  0  0  0  0
    5.5974    2.6869   -1.2561 H   0  0  0  0  0  0  0  0  0  0  0  0
   -7.1610   -1.5825    2.2147 H   0  0  0  0  0  0  0  0  0  0  0  0
   -8.4721    0.3770    1.5048 H   0  0  0  0  0  0  0  0  0  0  0  0
    9.8128    0.7684    0.5236 H   0  0  0  0  0  0  0  0  0  0  0  0
    7.6741    4.0404   -1.2611 H   0  0  0  0  0  0  0  0  0  0  0  0
    9.7826    3.0821   -0.3717 H   0  0  0  0  0  0  0  0  0  0  0  0
  1 33  1  0  0  0  0
  2 33  1  0  0  0  0
  3 33  1  0  0  0  0
  4 15  1  0  0  0  0
  4 18  1  0  0  0  0
  5 14  1  0  0  0  0
  5 19  1  0  0  0  0
  6 20  1  0  0  0  0
  6 23  1  0  0  0  0
  7 21  2  0  0  0  0
  8 10  1  0  0  0  0
  8 16  1  0  0  0  0
  8 20  1  0  0  0  0
  9 17  1  0  0  0  0
  9 21  1  0  0  0  0
  9 43  1  0  0  0  0
 10 13  2  0  0  0  0
 11 13  1  0  0  0  0
 11 20  2  0  0  0  0
 12 21  1  0  0  0  0
 12 22  1  0  0  0  0
 12 44  1  0  0  0  0
 14 15  1  0  0  0  0
 14 16  1  0  0  0  0
 14 35  1  0  0  0  0
 15 17  1  0  0  0  0
 15 36  1  0  0  0  0
 16 18  1  0  0  0  0
 16 37  1  0  0  0  0
 17 19  1  0  0  0  0
 17 38  1  0  0  0  0
 18 39  1  0  0  0  0
 18 40  1  0  0  0  0
 19 41  1  0  0  0  0
 19 42  1  0  0  0  0
 22 24  1  0  0  0  0
 22 25  2  0  0  0  0
 23 26  2  0  0  0  0
 23 27  1  0  0  0  0
 24 28  2  0  0  0  0
 24 45  1  0  0  0  0
 25 29  1  0  0  0  0
 25 46  1  0  0  0  0
 26 31  1  0  0  0  0
 26 47  1  0  0  0  0
 27 32  2  0  0  0  0
 27 48  1  0  0  0  0
 28 30  1  0  0  0  0
 28 33  1  0  0  0  0
 29 30  2  0  0  0  0
 29 49  1  0  0  0  0
 30 50  1  0  0  0  0
 31 34  2  0  0  0  0
 31 51  1  0  0  0  0
 32 34  1  0  0  0  0
 32 52  1  0  0  0  0
 34 53  1  0  0  0  0
M  END
> <PUBCHEM_COMPOUND_CID>
11886185

> <PUBCHEM_CONFORMER_RMSD>
1.2

> <PUBCHEM_CONFORMER_DIVERSEORDER>
1
158
132
86
233
222
68
20
200
157
245
216
103
224
146
228
93
171
54
133
11
166
177
85
240
50
62
6
123
128
141
241
87
247
181
76
239
23
172
182
122
231
206
97
94
178
174
19
202
160
147
39
192
112
49
38
211
69
184
227
243
218
212
162
96
92
208
148
197
204
234
188
60
226
229
78
7
169
113
207
205
165
152
34
153
145
83
72
138
117
213
100
217
159
250
48
140
56
176
151
80
161
195
47
142
248
101
215
189
13
115
126
90
24
223
118
143
29
196
244
42
52
144
155
175
125
18
135
180
154
173
150
32
198
179
139
185
129
183
74
40
194
235
37
82
66
116
64
149
107
98
170
57
220
121
27
186
44
105
193
89
236
167
120
10
84
163
15
111
14
131
238
232
214
237
219
63
242
119
225
191
134
199
2
58
164
35
55
210
45
71
91
190
70
30
130
156
124
99
221
109
5
137
108
36
16
106
41
127
51
104
67
114
187
53
110
21
3
28
203
8
95
61
168
88
33
9
249
201
102
4
22
26
46
17
43
81
12
230
73
246
136
31
25
209
75
65
77
79
59

> <PUBCHEM_MMFF94_PARTIAL_CHARGES>
44
1 -0.34
10 -0.42
11 -0.34
12 -0.55
14 0.28
15 0.28
16 0.26
17 0.3
18 0.28
19 0.28
2 -0.34
20 0.25
21 0.69
22 0.12
23 0.08
24 -0.15
25 -0.15
26 -0.15
27 -0.15
28 -0.14
29 -0.15
3 -0.34
30 -0.15
31 -0.15
32 -0.15
33 1.16
34 -0.15
4 -0.56
43 0.37
44 0.37
45 0.15
46 0.15
47 0.15
48 0.15
49 0.15
5 -0.56
50 0.15
51 0.15
52 0.15
53 0.15
6 -0.15
7 -0.57
8 0.31
9 -0.73

> <PUBCHEM_EFFECTIVE_ROTOR_COUNT>
9.2

> <PUBCHEM_PHARMACOPHORE_FEATURES>
11
1 12 donor
1 4 acceptor
1 5 acceptor
1 7 acceptor
1 9 donor
3 8 11 20 cation
5 4 14 15 16 18 rings
5 5 14 15 17 19 rings
5 8 10 11 13 20 rings
6 22 24 25 28 29 30 rings
6 23 26 27 31 32 34 rings

> <PUBCHEM_HEAVY_ATOM_COUNT>
34

> <PUBCHEM_ATOM_DEF_STEREO_COUNT>
4

> <PUBCHEM_ATOM_UDEF_STEREO_COUNT>
0

> <PUBCHEM_BOND_DEF_STEREO_COUNT>
0

> <PUBCHEM_BOND_UDEF_STEREO_COUNT>
0

> <PUBCHEM_ISOTOPIC_ATOM_COUNT>
0

> <PUBCHEM_COMPONENT_COUNT>
1

> <PUBCHEM_CACTVS_TAUTO_COUNT>
3

> <PUBCHEM_CONFORMER_ID>
00B55E6900000001

> <PUBCHEM_MMFF94_ENERGY>
84.2534

> <PUBCHEM_FEATURE_SELFOVERLAP>
56.566

> <PUBCHEM_SHAPE_FINGERPRINT>
10 15 18187365445839217627
10190108 129 16805318899659482012
10625338 86 18335144202495620849
10670039 82 15626234502483819147
10883706 17 10591754407019184356
11146346 60 14996561734255985599
11621639 179 17988639749127998352
11621639 336 18339079273187368416
12047536 79 17024293129688741095
12098696 120 18272092712379670192
12218070 45 16081939298253927131
12522641 68 18131069355043913903
12758862 65 12396303655982422100
12838862 33 16343702158800237422
14931854 50 17203610376048764937
15183329 4 16415210005166046290
15198563 99 17555435581856390175
15350500 55 18410571765149400309
15840311 113 18408609128504567086
16989713 51 17559387166843940543
17852330 162 12750369554436969650
18335252 114 17275385383119763550
20105231 36 11671772803176058557
2026 5 9799699190180660837
20721686 146 18413110554292917028
21095123 293 18262243334769285156
21585482 111 18335700512161168317
22149856 69 14635143465748870982
23576562 1 15912470450193813272
24771293 8 18260268576929436207
2747138 104 14056991716413038058
3711267 37 18337682991776851708
3918712 181 18410855447280969249
406291 66 8862944969986605156
4169191 19 18410291394338325197
437795 150 14404891545059230421
504579 68 15410886350212078453
5104073 3 14636241917026062196
5718773 13 9511466619268206566
5719381 82 10087638209189399037
6126387 218 14635138050354825631
636775 72 18336266761271912981
6698420 124 18040997414926524386
9689198 14 18334581273953641218
9896288 288 18192995043636673371
9953998 17 17095524032621784067
9962374 69 13118576198716711531

> <PUBCHEM_SHAPE_MULTIPOLES>
624.52
30.69
3.53
1.56
6.19
0.82
-0.16
35.8
-1.25
1.52
1.06
-0.26
-0.31
0.4

> <PUBCHEM_SHAPE_SELFOVERLAP>
1369.31

> <PUBCHEM_SHAPE_VOLUME>
339.6

> <PUBCHEM_COORDINATE_TYPE>
2
5
10

$$$$
