75536650
  -OEChem-12032416313D

 43 45  0     1  0  0  0  0  0999 V2000
   -6.8096   -1.9788   -0.0808 S   0  0  0  0  0  0  0  0  0  0  0  0
    8.0120   -1.7867   -0.3821 F   0  0  0  0  0  0  0  0  0  0  0  0
   -0.2288   -0.8101    0.2492 O   0  0  0  0  0  0  0  0  0  0  0  0
   -1.5525    2.4921   -0.2502 O   0  0  0  0  0  0  0  0  0  0  0  0
    3.0718    2.1324   -0.4250 O   0  0  0  0  0  0  0  0  0  0  0  0
   -3.7100    0.2303    0.0750 N   0  0  0  0  0  0  0  0  0  0  0  0
    2.2353    0.4829    0.9760 N   0  0  0  0  0  0  0  0  0  0  0  0
   -2.3133    0.1735   -0.3247 C   0  0  1  0  0  0  0  0  0  0  0  0
   -1.4434    1.2168    0.3517 C   0  0  1  0  0  0  0  0  0  0  0  0
   -0.0585    0.6142    0.1580 C   0  0  1  0  0  0  0  0  0  0  0  0
   -1.6273   -1.1135    0.1034 C   0  0  0  0  0  0  0  0  0  0  0  0
    0.9486    1.0782    1.1952 C   0  0  0  0  0  0  0  0  0  0  0  0
   -4.5478   -0.5452   -0.8321 C   0  0  0  0  0  0  0  0  0  0  0  0
   -5.9965   -0.5114   -0.4239 C   0  0  0  0  0  0  0  0  0  0  0  0
    3.2085    1.0672    0.1709 C   0  0  0  0  0  0  0  0  0  0  0  0
   -6.8200    0.5829   -0.2753 C   0  0  0  0  0  0  0  0  0  0  0  0
    4.4792    0.3116    0.0244 C   0  0  0  0  0  0  0  0  0  0  0  0
   -8.1358    0.2116    0.1259 C   0  0  0  0  0  0  0  0  0  0  0  0
   -8.2679   -1.1521    0.2684 C   0  0  0  0  0  0  0  0  0  0  0  0
    5.2566    0.4704   -1.1230 C   0  0  0  0  0  0  0  0  0  0  0  0
    4.8954   -0.5561    1.0341 C   0  0  0  0  0  0  0  0  0  0  0  0
    6.4497   -0.2385   -1.2607 C   0  0  0  0  0  0  0  0  0  0  0  0
    6.0886   -1.2651    0.8964 C   0  0  0  0  0  0  0  0  0  0  0  0
    6.8658   -1.1064   -0.2509 C   0  0  0  0  0  0  0  0  0  0  0  0
   -2.2242    0.3096   -1.4119 H   0  0  0  0  0  0  0  0  0  0  0  0
   -1.6903    1.3063    1.4170 H   0  0  0  0  0  0  0  0  0  0  0  0
    0.3232    0.8336   -0.8479 H   0  0  0  0  0  0  0  0  0  0  0  0
   -1.9828   -1.4716    1.0765 H   0  0  0  0  0  0  0  0  0  0  0  0
   -1.7481   -1.9201   -0.6260 H   0  0  0  0  0  0  0  0  0  0  0  0
    0.6360    0.7714    2.1994 H   0  0  0  0  0  0  0  0  0  0  0  0
    1.0450    2.1691    1.1794 H   0  0  0  0  0  0  0  0  0  0  0  0
   -4.0180    1.2030    0.0634 H   0  0  0  0  0  0  0  0  0  0  0  0
   -4.1960   -1.5831   -0.8753 H   0  0  0  0  0  0  0  0  0  0  0  0
   -4.4785   -0.1405   -1.8504 H   0  0  0  0  0  0  0  0  0  0  0  0
   -1.3335    2.4048   -1.1934 H   0  0  0  0  0  0  0  0  0  0  0  0
    2.3872   -0.4336    1.3830 H   0  0  0  0  0  0  0  0  0  0  0  0
   -6.5006    1.6030   -0.4469 H   0  0  0  0  0  0  0  0  0  0  0  0
   -8.9445    0.9093    0.3004 H   0  0  0  0  0  0  0  0  0  0  0  0
   -9.1511   -1.7024    0.5607 H   0  0  0  0  0  0  0  0  0  0  0  0
    4.9474    1.1383   -1.9227 H   0  0  0  0  0  0  0  0  0  0  0  0
    4.3364   -0.6854    1.9560 H   0  0  0  0  0  0  0  0  0  0  0  0
    7.0549   -0.1160   -2.1541 H   0  0  0  0  0  0  0  0  0  0  0  0
    6.4169   -1.9357    1.6851 H   0  0  0  0  0  0  0  0  0  0  0  0
  1 14  1  0  0  0  0
  1 19  1  0  0  0  0
  2 24  1  0  0  0  0
  3 10  1  0  0  0  0
  3 11  1  0  0  0  0
  4  9  1  0  0  0  0
  4 35  1  0  0  0  0
  5 15  2  0  0  0  0
  6  8  1  0  0  0  0
  6 13  1  0  0  0  0
  6 32  1  0  0  0  0
  7 12  1  0  0  0  0
  7 15  1  0  0  0  0
  7 36  1  0  0  0  0
  8  9  1  0  0  0  0
  8 11  1  0  0  0  0
  8 25  1  0  0  0  0
  9 10  1  0  0  0  0
  9 26  1  0  0  0  0
 10 12  1  0  0  0  0
 10 27  1  0  0  0  0
 11 28  1  0  0  0  0
 11 29  1  0  0  0  0
 12 30  1  0  0  0  0
 12 31  1  0  0  0  0
 13 14  1  0  0  0  0
 13 33  1  0  0  0  0
 13 34  1  0  0  0  0
 14 16  2  0  0  0  0
 15 17  1  0  0  0  0
 16 18  1  0  0  0  0
 16 37  1  0  0  0  0
 17 20  2  0  0  0  0
 17 21  1  0  0  0  0
 18 19  2  0  0  0  0
 18 38  1  0  0  0  0
 19 39  1  0  0  0  0
 20 22  1  0  0  0  0
 20 40  1  0  0  0  0
 21 23  2  0  0  0  0
 21 41  1  0  0  0  0
 22 24  2  0  0  0  0
 22 42  1  0  0  0  0
 23 24  1  0  0  0  0
 23 43  1  0  0  0  0
M  END
> <PUBCHEM_COMPOUND_CID>
75536650

> <PUBCHEM_CONFORMER_RMSD>
1

> <PUBCHEM_CONFORMER_DIVERSEORDER>
1
151
75
34
40
67
44
122
20
99
134
173
110
32
89
103
9
101
121
133
36
131
63
159
6
104
97
140
128
112
135
59
10
61
5
77
4
148
96
125
84
147
163
107
17
76
143
162
132
123
141
85
160
50
124
90
144
7
118
150
100
138
156
142
33
56
153
22
81
54
47
106
115
23
51
60
146
92
88
116
37
26
165
43
145
49
57
129
3
108
119
82
137
8
172
69
139
16
80
42
11
113
130
126
127
117
46
109
174
94
48
169
2
31
164
74
166
105
73
152
15
79
95
114
111
13
70
68
24
28
18
55
157
87
98
35
21
171
120
72
93
41
167
39
158
170
38
86
66
136
64
155
65
58
30
149
71
14
91
45
78
25
83
27
161
19
102
154
29
52
53
168
12
62

> <PUBCHEM_MMFF94_PARTIAL_CHARGES>
34
1 -0.08
10 0.28
11 0.28
12 0.3
13 0.45
14 -0.14
15 0.54
16 -0.15
17 0.09
18 -0.15
19 -0.11
2 -0.19
20 -0.15
21 -0.15
22 -0.15
23 -0.15
24 0.19
3 -0.56
32 0.36
35 0.4
36 0.37
37 0.15
38 0.15
39 0.15
4 -0.68
40 0.15
41 0.15
42 0.15
43 0.15
5 -0.57
6 -0.9
7 -0.73
8 0.27
9 0.28

> <PUBCHEM_EFFECTIVE_ROTOR_COUNT>
8

> <PUBCHEM_PHARMACOPHORE_FEATURES>
10
1 3 acceptor
1 4 acceptor
1 4 donor
1 5 acceptor
1 6 cation
1 6 donor
1 7 donor
5 1 14 16 18 19 rings
5 3 8 9 10 11 rings
6 17 20 21 22 23 24 rings

> <PUBCHEM_HEAVY_ATOM_COUNT>
24

> <PUBCHEM_ATOM_DEF_STEREO_COUNT>
3

> <PUBCHEM_ATOM_UDEF_STEREO_COUNT>
0

> <PUBCHEM_BOND_DEF_STEREO_COUNT>
0

> <PUBCHEM_BOND_UDEF_STEREO_COUNT>
0

> <PUBCHEM_ISOTOPIC_ATOM_COUNT>
0

> <PUBCHEM_COMPONENT_COUNT>
1

> <PUBCHEM_CACTVS_TAUTO_COUNT>
2

> <PUBCHEM_CONFORMER_ID>
0480990A00000001

> <PUBCHEM_MMFF94_ENERGY>
45.8666

> <PUBCHEM_FEATURE_SELFOVERLAP>
50.747

> <PUBCHEM_SHAPE_FINGERPRINT>
10 15 11024106551288921814
10299344 5 18260547823155645219
11135609 127 16951138404078641132
11524674 6 17132113572250232615
11638347 137 13830138278156920412
11719270 70 17847064384712648943
12166972 35 17967252018109432917
125118 31 9511191754288895079
12592606 108 18342737442523954399
13533116 47 17676759894978270098
13668630 136 18411699876880062798
13673619 4 18202561778455702425
13685833 64 18060137648111165576
13885169 127 18202566146896118441
14216079 64 18131352990361910006
14251752 14 18412542102997948709
14251764 18 17418378012293311608
14251764 46 18113056035203289458
14294032 229 18194689155295806305
14347424 109 16773792636493318952
14856354 85 18040718096018341895
15183329 4 18333733506958633000
15352257 5 18334574663973203235
15849732 13 15140962863795347363
2026 5 18058171610364813934
21095086 128 18409729595647038239
21150785 3 16660363679529123399
21267235 1 18409730660102368081
21344244 246 18114742608652532562
21781051 124 18336835285264690115
221357 26 17095520691332478420
22224240 67 9799692597299865933
22956985 138 17626961785745462798
23035841 295 18410290329149077187
23522609 53 18195839372969784265
23559900 14 18337949120766406880
246663 6 18411983563759623635
28498 318 18201999911054955391
3004659 81 18408319999769351888
328311 84 18413392059909202987
34797466 226 15936128564421022046
4107672 100 17968088678403273469
4339292 15 12319157553161340725
4340502 62 14333131879178907821
444769 64 17917989495381464895
5758199 1 11097848572051521349
5937810 71 13623797303713753583
59755656 215 18273496749678268599
59755656 520 18113893897381721483
6438161 24 18334851711117764970

> <PUBCHEM_SHAPE_MULTIPOLES>
462.91
26.16
1.76
0.98
13.34
0.23
0
-12.79
3.05
-0.2
0
-1.16
0
-0.16

> <PUBCHEM_SHAPE_SELFOVERLAP>
968.135

> <PUBCHEM_SHAPE_VOLUME>
264.5

> <PUBCHEM_COORDINATE_TYPE>
2
5
10

$$$$
