75536654
  -OEChem-12032416323D

 43 44  0     1  0  0  0  0  0999 V2000
    5.2239    0.4978    0.0805 S   0  0  0  0  0  0  0  0  0  0  0  0
    1.1040    0.8305    0.6888 O   0  0  0  0  0  0  0  0  0  0  0  0
    0.0703   -2.4232   -0.4296 O   0  0  0  0  0  0  0  0  0  0  0  0
    6.2054    0.6186    1.1406 O   0  0  0  0  0  0  0  0  0  0  0  0
    4.8737    1.6411   -0.7402 O   0  0  0  0  0  0  0  0  0  0  0  0
   -2.0392   -0.1352   -0.8666 N   0  0  0  0  0  0  0  0  0  0  0  0
    3.7866   -0.1846    0.6968 N   0  0  0  0  0  0  0  0  0  0  0  0
   -0.9168   -0.2427    0.0512 C   0  0  1  0  0  0  0  0  0  0  0  0
   -3.2414    0.3090   -0.1638 C   0  0  0  0  0  0  0  0  0  0  0  0
    0.2568   -1.0235   -0.5108 C   0  0  1  0  0  0  0  0  0  0  0  0
    1.3856   -0.5478    0.3937 C   0  0  1  0  0  0  0  0  0  0  0  0
   -4.2419    0.8978   -1.1645 C   0  0  0  0  0  0  0  0  0  0  0  0
   -3.8565   -0.8633    0.6082 C   0  0  0  0  0  0  0  0  0  0  0  0
   -0.2687    1.0986    0.3531 C   0  0  0  0  0  0  0  0  0  0  0  0
   -5.5442    1.3034   -0.4763 C   0  0  0  0  0  0  0  0  0  0  0  0
   -5.1589   -0.4549    1.2948 C   0  0  0  0  0  0  0  0  0  0  0  0
   -6.1540    0.1422    0.3038 C   0  0  0  0  0  0  0  0  0  0  0  0
    2.7577   -0.6658   -0.2458 C   0  0  0  0  0  0  0  0  0  0  0  0
    5.7575   -0.7980   -1.0140 C   0  0  0  0  0  0  0  0  0  0  0  0
   -1.2051   -0.7288    0.9906 H   0  0  0  0  0  0  0  0  0  0  0  0
   -2.9953    1.1113    0.5445 H   0  0  0  0  0  0  0  0  0  0  0  0
    0.4464   -0.7522   -1.5568 H   0  0  0  0  0  0  0  0  0  0  0  0
    1.3789   -1.0942    1.3462 H   0  0  0  0  0  0  0  0  0  0  0  0
   -2.2129   -1.0338   -1.3157 H   0  0  0  0  0  0  0  0  0  0  0  0
   -4.4667    0.1646   -1.9506 H   0  0  0  0  0  0  0  0  0  0  0  0
   -3.8078    1.7737   -1.6622 H   0  0  0  0  0  0  0  0  0  0  0  0
   -3.1799   -1.2484    1.3778 H   0  0  0  0  0  0  0  0  0  0  0  0
   -4.0649   -1.6984   -0.0741 H   0  0  0  0  0  0  0  0  0  0  0  0
   -0.7465    1.6242    1.1852 H   0  0  0  0  0  0  0  0  0  0  0  0
   -0.2634    1.7640   -0.5180 H   0  0  0  0  0  0  0  0  0  0  0  0
   -6.2604    1.6608   -1.2248 H   0  0  0  0  0  0  0  0  0  0  0  0
   -5.3510    2.1403    0.2061 H   0  0  0  0  0  0  0  0  0  0  0  0
   -4.9425    0.2778    2.0820 H   0  0  0  0  0  0  0  0  0  0  0  0
   -5.6066   -1.3271    1.7845 H   0  0  0  0  0  0  0  0  0  0  0  0
   -7.0463    0.4857    0.8390 H   0  0  0  0  0  0  0  0  0  0  0  0
   -6.4813   -0.6356   -0.3972 H   0  0  0  0  0  0  0  0  0  0  0  0
    2.9697   -1.7077   -0.5062 H   0  0  0  0  0  0  0  0  0  0  0  0
    2.7866   -0.0562   -1.1556 H   0  0  0  0  0  0  0  0  0  0  0  0
   -0.1000   -2.6559    0.4988 H   0  0  0  0  0  0  0  0  0  0  0  0
    3.8866   -0.7800    1.5297 H   0  0  0  0  0  0  0  0  0  0  0  0
    6.7283   -0.5085   -1.4234 H   0  0  0  0  0  0  0  0  0  0  0  0
    5.8629   -1.7232   -0.4442 H   0  0  0  0  0  0  0  0  0  0  0  0
    5.0417   -0.9132   -1.8290 H   0  0  0  0  0  0  0  0  0  0  0  0
  1  4  2  0  0  0  0
  1  5  2  0  0  0  0
  1  7  1  0  0  0  0
  1 19  1  0  0  0  0
  2 11  1  0  0  0  0
  2 14  1  0  0  0  0
  3 10  1  0  0  0  0
  3 39  1  0  0  0  0
  6  8  1  0  0  0  0
  6  9  1  0  0  0  0
  6 24  1  0  0  0  0
  7 18  1  0  0  0  0
  7 40  1  0  0  0  0
  8 10  1  0  0  0  0
  8 14  1  0  0  0  0
  8 20  1  0  0  0  0
  9 12  1  0  0  0  0
  9 13  1  0  0  0  0
  9 21  1  0  0  0  0
 10 11  1  0  0  0  0
 10 22  1  0  0  0  0
 11 18  1  0  0  0  0
 11 23  1  0  0  0  0
 12 15  1  0  0  0  0
 12 25  1  0  0  0  0
 12 26  1  0  0  0  0
 13 16  1  0  0  0  0
 13 27  1  0  0  0  0
 13 28  1  0  0  0  0
 14 29  1  0  0  0  0
 14 30  1  0  0  0  0
 15 17  1  0  0  0  0
 15 31  1  0  0  0  0
 15 32  1  0  0  0  0
 16 17  1  0  0  0  0
 16 33  1  0  0  0  0
 16 34  1  0  0  0  0
 17 35  1  0  0  0  0
 17 36  1  0  0  0  0
 18 37  1  0  0  0  0
 18 38  1  0  0  0  0
 19 41  1  0  0  0  0
 19 42  1  0  0  0  0
 19 43  1  0  0  0  0
M  END
> <PUBCHEM_COMPOUND_CID>
75536654

> <PUBCHEM_CONFORMER_RMSD>
0.8

> <PUBCHEM_CONFORMER_DIVERSEORDER>
1
146
222
96
179
91
135
122
231
36
229
147
120
188
190
210
227
58
194
152
123
74
101
193
85
215
47
217
197
111
131
46
157
174
75
165
168
39
138
117
125
159
206
9
81
186
236
209
30
90
207
141
202
199
62
149
95
183
126
100
185
213
139
192
63
52
143
195
22
162
171
204
48
169
127
50
144
198
140
13
44
156
160
34
35
208
124
8
24
23
136
94
219
51
97
173
4
25
3
60
220
133
191
132
56
33
42
71
161
88
151
200
145
84
49
137
41
26
116
68
158
110
54
148
223
112
7
235
211
234
181
67
163
92
221
77
105
180
115
187
45
17
28
31
142
65
83
205
216
107
109
226
172
212
6
184
108
134
80
178
196
14
167
12
155
20
106
59
129
18
118
79
166
27
114
225
128
61
19
237
76
102
53
218
15
99
32
103
57
150
87
37
66
228
72
29
189
121
73
16
64
177
89
98
164
2
40
214
153
10
176
55
201
130
233
86
182
170
175
93
69
5
104
224
230
43
70
203
11
119
113
38
82
78
154
232
21

> <PUBCHEM_MMFF94_PARTIAL_CHARGES>
17
1 1.33
10 0.28
11 0.28
14 0.28
18 0.36
19 0.11
2 -0.56
24 0.36
3 -0.68
39 0.4
4 -0.65
40 0.42
5 -0.65
6 -0.9
7 -0.91
8 0.27
9 0.27

> <PUBCHEM_EFFECTIVE_ROTOR_COUNT>
7.2

> <PUBCHEM_PHARMACOPHORE_FEATURES>
10
1 2 acceptor
1 3 acceptor
1 3 donor
1 4 acceptor
1 5 acceptor
1 6 cation
1 6 donor
1 7 donor
5 2 8 10 11 14 rings
6 9 12 13 15 16 17 rings

> <PUBCHEM_HEAVY_ATOM_COUNT>
19

> <PUBCHEM_ATOM_DEF_STEREO_COUNT>
3

> <PUBCHEM_ATOM_UDEF_STEREO_COUNT>
0

> <PUBCHEM_BOND_DEF_STEREO_COUNT>
0

> <PUBCHEM_BOND_UDEF_STEREO_COUNT>
0

> <PUBCHEM_ISOTOPIC_ATOM_COUNT>
0

> <PUBCHEM_COMPONENT_COUNT>
1

> <PUBCHEM_CACTVS_TAUTO_COUNT>
1

> <PUBCHEM_CONFORMER_ID>
0480990E00000001

> <PUBCHEM_MMFF94_ENERGY>
19.9834

> <PUBCHEM_FEATURE_SELFOVERLAP>
50.764

> <PUBCHEM_SHAPE_FINGERPRINT>
11287383 113 17894632569197119176
11315181 36 16370730344432297677
12236239 1 14634589372028576459
12596602 18 16515683351109145600
12916748 109 18413110550430342136
13533116 47 17631738163066668150
13590594 115 16487260962819866945
1420 363 18408889524869115610
14251732 16 17531252810943793065
14251764 18 18187085045115774105
15048467 5 18186237316490842501
15183329 4 15339123428994563604
15716309 27 14923663069256391329
17834076 25 16343703231212596395
18222031 100 11458423535860541142
19784866 170 18335701611814480127
20281389 69 17989205932289180561
21150785 3 16200142227283742797
21641784 216 18200048264915810856
220451 1 16443066084235359090
22079108 93 17022620914062669704
22224240 67 18410292532356894251
23198884 109 15913609471557911535
23402539 116 15574710292320567567
23536379 177 17167859746876476840
23557571 272 17458912526648433231
23559900 14 18114741508718540978
293599 30 18343299275405804134
34797466 226 17168158822940617414
42788 4 18113056034311655017
4340502 62 17385441007981239202
4463277 17 18202282493838050185
5104073 3 17750516183300096609
542803 24 17530964678704288116
7495541 125 17313392261264684661

> <PUBCHEM_SHAPE_MULTIPOLES>
361.42
16.17
1.42
1.05
5.47
0.23
-0.02
-3.75
-0.86
0.17
0.23
-0.03
-0.01
1.01

> <PUBCHEM_SHAPE_SELFOVERLAP>
709.016

> <PUBCHEM_SHAPE_VOLUME>
218.5

> <PUBCHEM_COORDINATE_TYPE>
2
5
10

$$$$
