40780146
  -OEChem-12032416163D

 72 76  0     1  0  0  0  0  0999 V2000
    4.3618    1.3594    1.1666 O   0  0  0  0  0  0  0  0  0  0  0  0
   -4.3513   -3.9118   -1.5011 O   0  0  0  0  0  0  0  0  0  0  0  0
   -6.3256   -4.4787    0.3707 O   0  0  0  0  0  0  0  0  0  0  0  0
    9.2522   -2.6780   -0.3018 O   0  0  0  0  0  0  0  0  0  0  0  0
    0.6258    3.9078    0.5146 N   0  0  2  0  0  0  0  0  0  0  0  0
   -3.9788    2.7367    0.2435 N   0  0  0  0  0  0  0  0  0  0  0  0
    2.2314    0.5234    0.8276 N   0  0  0  0  0  0  0  0  0  0  0  0
   -4.8335    1.7170    0.4323 N   0  0  0  0  0  0  0  0  0  0  0  0
    4.0471   -0.8162    0.3430 N   0  0  0  0  0  0  0  0  0  0  0  0
   -0.5928    2.9720   -1.5883 C   0  0  2  0  0  0  0  0  0  0  0  0
   -1.6202    3.3322   -0.4797 C   0  0  2  0  0  0  0  0  0  0  0  0
    1.2600    2.6338    0.0846 C   0  0  2  0  0  0  0  0  0  0  0  0
    0.4285    1.9597   -1.0279 C   0  0  0  0  0  0  0  0  0  0  0  0
    0.1832    4.2664   -1.9135 C   0  0  0  0  0  0  0  0  0  0  0  0
   -0.8136    3.6876    0.8019 C   0  0  0  0  0  0  0  0  0  0  0  0
    0.7315    4.8698   -0.6086 C   0  0  0  0  0  0  0  0  0  0  0  0
   -2.7478    2.3494   -0.1983 C   0  0  0  0  0  0  0  0  0  0  0  0
    1.5176    1.6859    1.2578 C   0  0  0  0  0  0  0  0  0  0  0  0
   -2.8008    0.9811   -0.3055 C   0  0  0  0  0  0  0  0  0  0  0  0
   -4.1083    0.6472    0.0953 C   0  0  0  0  0  0  0  0  0  0  0  0
   -4.4189    4.0857    0.5145 C   0  0  0  0  0  0  0  0  0  0  0  0
    3.6350    0.4350    0.8100 C   0  0  0  0  0  0  0  0  0  0  0  0
   -4.6769   -0.6737    0.1639 C   0  0  0  0  0  0  0  0  0  0  0  0
   -4.2373   -1.6687   -0.7093 C   0  0  0  0  0  0  0  0  0  0  0  0
   -5.6681   -0.9583    1.1031 C   0  0  0  0  0  0  0  0  0  0  0  0
    5.3700   -1.2892    0.1795 C   0  0  0  0  0  0  0  0  0  0  0  0
   -4.7886   -2.9483   -0.6432 C   0  0  0  0  0  0  0  0  0  0  0  0
   -6.2196   -2.2379    1.1691 C   0  0  0  0  0  0  0  0  0  0  0  0
   -5.7798   -3.2328    0.2960 C   0  0  0  0  0  0  0  0  0  0  0  0
    5.5948   -2.5777   -0.3049 C   0  0  0  0  0  0  0  0  0  0  0  0
    6.4498   -0.4672    0.5023 C   0  0  0  0  0  0  0  0  0  0  0  0
    6.8994   -3.0442   -0.4667 C   0  0  0  0  0  0  0  0  0  0  0  0
    7.7544   -0.9338    0.3407 C   0  0  0  0  0  0  0  0  0  0  0  0
    7.9792   -2.2224   -0.1438 C   0  0  0  0  0  0  0  0  0  0  0  0
   -3.3355   -3.5392   -2.4305 C   0  0  0  0  0  0  0  0  0  0  0  0
   -7.3334   -4.6865    1.3586 C   0  0  0  0  0  0  0  0  0  0  0  0
   10.3090   -1.7853    0.0477 C   0  0  0  0  0  0  0  0  0  0  0  0
   -1.0858    2.5756   -2.4822 H   0  0  0  0  0  0  0  0  0  0  0  0
   -2.1082    4.2557   -0.8259 H   0  0  0  0  0  0  0  0  0  0  0  0
    2.2477    2.8795   -0.3337 H   0  0  0  0  0  0  0  0  0  0  0  0
   -0.0664    1.0583   -0.6650 H   0  0  0  0  0  0  0  0  0  0  0  0
    1.1007    1.6414   -1.8350 H   0  0  0  0  0  0  0  0  0  0  0  0
   -0.4711    4.9906   -2.4125 H   0  0  0  0  0  0  0  0  0  0  0  0
    1.0064    4.0441   -2.6033 H   0  0  0  0  0  0  0  0  0  0  0  0
   -1.2279    4.6031    1.2444 H   0  0  0  0  0  0  0  0  0  0  0  0
   -0.9344    2.9243    1.5793 H   0  0  0  0  0  0  0  0  0  0  0  0
    1.7774    5.1702   -0.7476 H   0  0  0  0  0  0  0  0  0  0  0  0
    0.1917    5.7924   -0.3599 H   0  0  0  0  0  0  0  0  0  0  0  0
    0.5862    1.3325    1.7114 H   0  0  0  0  0  0  0  0  0  0  0  0
    2.0974    2.1941    2.0368 H   0  0  0  0  0  0  0  0  0  0  0  0
   -2.0175    0.3137   -0.6283 H   0  0  0  0  0  0  0  0  0  0  0  0
    1.6956   -0.2800    0.5141 H   0  0  0  0  0  0  0  0  0  0  0  0
   -4.4474    4.6359   -0.4289 H   0  0  0  0  0  0  0  0  0  0  0  0
   -5.4190    4.0601    0.9560 H   0  0  0  0  0  0  0  0  0  0  0  0
   -3.7237    4.5488    1.2180 H   0  0  0  0  0  0  0  0  0  0  0  0
    3.3130   -1.4717    0.0870 H   0  0  0  0  0  0  0  0  0  0  0  0
   -3.4764   -1.4029   -1.4347 H   0  0  0  0  0  0  0  0  0  0  0  0
   -6.0248   -0.2055    1.8022 H   0  0  0  0  0  0  0  0  0  0  0  0
   -6.9836   -2.3873    1.9243 H   0  0  0  0  0  0  0  0  0  0  0  0
    4.7624   -3.2285   -0.5603 H   0  0  0  0  0  0  0  0  0  0  0  0
    6.3551    0.5402    0.8821 H   0  0  0  0  0  0  0  0  0  0  0  0
    7.0683   -4.0489   -0.8446 H   0  0  0  0  0  0  0  0  0  0  0  0
    8.5473   -0.2443    0.6103 H   0  0  0  0  0  0  0  0  0  0  0  0
   -3.1065   -4.4271   -3.0292 H   0  0  0  0  0  0  0  0  0  0  0  0
   -2.4080   -3.2524   -1.9232 H   0  0  0  0  0  0  0  0  0  0  0  0
   -3.6872   -2.7705   -3.1272 H   0  0  0  0  0  0  0  0  0  0  0  0
   -7.6551   -5.7300    1.2760 H   0  0  0  0  0  0  0  0  0  0  0  0
   -8.2164   -4.0660    1.1712 H   0  0  0  0  0  0  0  0  0  0  0  0
   -6.9384   -4.5551    2.3717 H   0  0  0  0  0  0  0  0  0  0  0  0
   11.2512   -2.3106   -0.1403 H   0  0  0  0  0  0  0  0  0  0  0  0
   10.2893   -1.5362    1.1140 H   0  0  0  0  0  0  0  0  0  0  0  0
   10.3085   -0.8929   -0.5874 H   0  0  0  0  0  0  0  0  0  0  0  0
  1 22  2  0  0  0  0
  2 27  1  0  0  0  0
  2 35  1  0  0  0  0
  3 29  1  0  0  0  0
  3 36  1  0  0  0  0
  4 34  1  0  0  0  0
  4 37  1  0  0  0  0
  5 12  1  0  0  0  0
  5 15  1  0  0  0  0
  5 16  1  0  0  0  0
  6  8  1  0  0  0  0
  6 17  1  0  0  0  0
  6 21  1  0  0  0  0
  7 18  1  0  0  0  0
  7 22  1  0  0  0  0
  7 52  1  0  0  0  0
  8 20  2  0  0  0  0
  9 22  1  0  0  0  0
  9 26  1  0  0  0  0
  9 56  1  0  0  0  0
 10 11  1  0  0  0  0
 10 13  1  0  0  0  0
 10 14  1  0  0  0  0
 10 38  1  0  0  0  0
 11 15  1  0  0  0  0
 11 17  1  0  0  0  0
 11 39  1  0  0  0  0
 12 13  1  0  0  0  0
 12 18  1  0  0  0  0
 12 40  1  0  0  0  0
 13 41  1  0  0  0  0
 13 42  1  0  0  0  0
 14 16  1  0  0  0  0
 14 43  1  0  0  0  0
 14 44  1  0  0  0  0
 15 45  1  0  0  0  0
 15 46  1  0  0  0  0
 16 47  1  0  0  0  0
 16 48  1  0  0  0  0
 17 19  2  0  0  0  0
 18 49  1  0  0  0  0
 18 50  1  0  0  0  0
 19 20  1  0  0  0  0
 19 51  1  0  0  0  0
 20 23  1  0  0  0  0
 21 53  1  0  0  0  0
 21 54  1  0  0  0  0
 21 55  1  0  0  0  0
 23 24  2  0  0  0  0
 23 25  1  0  0  0  0
 24 27  1  0  0  0  0
 24 57  1  0  0  0  0
 25 28  2  0  0  0  0
 25 58  1  0  0  0  0
 26 30  2  0  0  0  0
 26 31  1  0  0  0  0
 27 29  2  0  0  0  0
 28 29  1  0  0  0  0
 28 59  1  0  0  0  0
 30 32  1  0  0  0  0
 30 60  1  0  0  0  0
 31 33  2  0  0  0  0
 31 61  1  0  0  0  0
 32 34  2  0  0  0  0
 32 62  1  0  0  0  0
 33 34  1  0  0  0  0
 33 63  1  0  0  0  0
 35 64  1  0  0  0  0
 35 65  1  0  0  0  0
 35 66  1  0  0  0  0
 36 67  1  0  0  0  0
 36 68  1  0  0  0  0
 36 69  1  0  0  0  0
 37 70  1  0  0  0  0
 37 71  1  0  0  0  0
 37 72  1  0  0  0  0
M  END
> <PUBCHEM_COMPOUND_CID>
40780146

> <PUBCHEM_CONFORMER_RMSD>
1.2

> <PUBCHEM_CONFORMER_DIVERSEORDER>
2
60
15
30
55
7
28
57
48
53
5
20
54
64
59
29
12
35
24
52
47
22
4
16
63
19
23
38
9
8
17
37
46
25
26
11
40
6
14
56
21
34
31
58
43
41
18
61
39
32
13
45
50
36
33
27
62
10
44
1
49
3
42
51

> <PUBCHEM_MMFF94_PARTIAL_CHARGES>
44
1 -0.57
11 0.18
12 0.27
15 0.27
16 0.27
17 -0.33
18 0.3
19 -0.15
2 -0.36
20 0.23
21 0.26
22 0.69
23 0.05
24 -0.15
25 -0.15
26 0.12
27 0.08
28 -0.15
29 0.08
3 -0.36
30 -0.15
31 -0.15
32 -0.15
33 -0.15
34 0.08
35 0.28
36 0.28
37 0.28
4 -0.36
5 -0.81
51 0.15
52 0.37
56 0.37
57 0.15
58 0.15
59 0.15
6 0.31
60 0.15
61 0.15
62 0.15
63 0.15
7 -0.73
8 -0.71
9 -0.55

> <PUBCHEM_EFFECTIVE_ROTOR_COUNT>
11.2

> <PUBCHEM_PHARMACOPHORE_FEATURES>
12
1 1 acceptor
1 2 acceptor
1 3 acceptor
1 4 acceptor
1 5 cation
1 7 donor
1 8 acceptor
1 9 donor
5 6 8 17 19 20 rings
6 23 24 25 27 28 29 rings
6 26 30 31 32 33 34 rings
8 5 10 11 12 13 14 15 16 rings

> <PUBCHEM_HEAVY_ATOM_COUNT>
37

> <PUBCHEM_ATOM_DEF_STEREO_COUNT>
3

> <PUBCHEM_ATOM_UDEF_STEREO_COUNT>
0

> <PUBCHEM_BOND_DEF_STEREO_COUNT>
0

> <PUBCHEM_BOND_UDEF_STEREO_COUNT>
0

> <PUBCHEM_ISOTOPIC_ATOM_COUNT>
0

> <PUBCHEM_COMPONENT_COUNT>
1

> <PUBCHEM_CACTVS_TAUTO_COUNT>
3

> <PUBCHEM_CONFORMER_ID>
026E417200000002

> <PUBCHEM_MMFF94_ENERGY>
126.5115

> <PUBCHEM_FEATURE_SELFOVERLAP>
60.952

> <PUBCHEM_SHAPE_FINGERPRINT>
10100884 174 18260267456592623866
10391435 84 18338221705308462520
10462674 296 18056742437715092414
10622 236 18334853965569523701
11059845 2 17986974985354530225
11069576 57 17831572451088444925
11103572 155 18195808467017722134
11315621 246 18263360288042718604
11455722 242 18260823784075447450
11497681 19 18408042919019276636
117089 54 18409733992670448994
11756154 67 18409166597952916237
12522641 68 17031051698700845412
12841400 136 18336826502410185791
13383668 254 14835535061504145010
1361 4 18193556671720569842
13690498 29 17967530138875025045
13782708 43 18272080592129491728
14178184 131 18130782360917721646
14856354 85 18128538155007401780
15152005 1 18338799030122615927
15320295 44 18334870398563136220
15361156 5 18114193990777812104
15392192 29 18340487768803619661
15448158 91 18187929555207007953
16989713 51 18334574591042635900
17492 89 18337109098594530081
17686467 74 18410851067532120328
18608769 82 18339358553635055402
19303781 99 18265042703709949543
20775530 9 18188196685193396785
208703 8 18335416932824347955
21307412 95 18335126567523823781
22899556 105 18191042285267498524
23729417 116 18260268504396014676
255183 451 18261674890993119845
3886686 26 18342176627344008881
4017518 198 18198616632736711757
42626532 9 17917982863197755584
44280117 145 18336830802067620228
44426695 248 15913036677465550852
54583773 228 18410580588051320044
6201460 15 17911792793312432663
999808 66 18059289843511555860

> <PUBCHEM_SHAPE_MULTIPOLES>
713.06
25.06
7.94
1.37
53.99
1.6
-0.56
-41.34
4.27
-10.89
-1.53
-1.34
-0.26
0.81

> <PUBCHEM_SHAPE_SELFOVERLAP>
1537.946

> <PUBCHEM_SHAPE_VOLUME>
390

> <PUBCHEM_COORDINATE_TYPE>
2
5
10

$$$$
