7682247
  -OEChem-12032416293D

 52 56  0     1  0  0  0  0  0999 V2000
   -2.1477   -3.5161    1.1460 S   0  0  0  0  0  0  0  0  0  0  0  0
   -3.2691    1.4166   -2.9545 O   0  0  0  0  0  0  0  0  0  0  0  0
    5.2601   -0.7459   -0.9385 O   0  0  0  0  0  0  0  0  0  0  0  0
   -0.1144    2.1012    0.8335 N   0  0  2  0  0  0  0  0  0  0  0  0
   -2.4954    0.8089   -0.8290 N   0  0  0  0  0  0  0  0  0  0  0  0
   -2.5712    2.4462    1.1457 C   0  0  1  0  0  0  0  0  0  0  0  0
   -1.6301    0.2083    1.4517 C   0  0  2  0  0  0  0  0  0  0  0  0
   -2.6712    1.1867    1.9893 C   0  0  0  0  0  0  0  0  0  0  0  0
   -1.1555    3.0488    1.2465 C   0  0  0  0  0  0  0  0  0  0  0  0
   -0.2213    0.8374    1.5756 C   0  0  0  0  0  0  0  0  0  0  0  0
   -2.9567    2.0978   -0.2935 C   0  0  0  0  0  0  0  0  0  0  0  0
   -1.9277   -0.1820   -0.0012 C   0  0  0  0  0  0  0  0  0  0  0  0
    1.2159    2.6859    0.9843 C   0  0  0  0  0  0  0  0  0  0  0  0
   -1.6527   -1.4127   -0.5108 C   0  0  0  0  0  0  0  0  0  0  0  0
   -2.7638    0.5921   -2.1923 C   0  0  0  0  0  0  0  0  0  0  0  0
   -1.9127   -1.6688   -1.9163 C   0  0  0  0  0  0  0  0  0  0  0  0
   -2.4198   -0.7430   -2.7296 C   0  0  0  0  0  0  0  0  0  0  0  0
    2.2923    1.7728    0.4727 C   0  0  0  0  0  0  0  0  0  0  0  0
   -1.0967   -2.4457    0.3204 C   0  0  0  0  0  0  0  0  0  0  0  0
    2.1255    1.1307   -0.7484 C   0  0  0  0  0  0  0  0  0  0  0  0
    3.4444    1.5792    1.2255 C   0  0  0  0  0  0  0  0  0  0  0  0
    0.2283   -2.7253    0.5717 C   0  0  0  0  0  0  0  0  0  0  0  0
    3.1254    0.2822   -1.2237 C   0  0  0  0  0  0  0  0  0  0  0  0
    4.4444    0.7307    0.7503 C   0  0  0  0  0  0  0  0  0  0  0  0
    0.3831   -3.8334    1.4537 C   0  0  0  0  0  0  0  0  0  0  0  0
   -0.8297   -4.3582    1.8429 C   0  0  0  0  0  0  0  0  0  0  0  0
    4.2850    0.0822   -0.4744 C   0  0  0  0  0  0  0  0  0  0  0  0
    5.0315   -1.3769   -2.1977 C   0  0  0  0  0  0  0  0  0  0  0  0
   -3.2773    3.1972    1.5217 H   0  0  0  0  0  0  0  0  0  0  0  0
   -1.6651   -0.6689    2.1064 H   0  0  0  0  0  0  0  0  0  0  0  0
   -3.6792    0.7569    1.9362 H   0  0  0  0  0  0  0  0  0  0  0  0
   -2.4744    1.4155    3.0440 H   0  0  0  0  0  0  0  0  0  0  0  0
   -1.1086    3.9439    0.6137 H   0  0  0  0  0  0  0  0  0  0  0  0
   -0.9849    3.3787    2.2804 H   0  0  0  0  0  0  0  0  0  0  0  0
   -0.0051    1.0049    2.6403 H   0  0  0  0  0  0  0  0  0  0  0  0
    0.5058    0.0991    1.2259 H   0  0  0  0  0  0  0  0  0  0  0  0
   -4.0532    2.0670   -0.3606 H   0  0  0  0  0  0  0  0  0  0  0  0
   -2.6385    2.8948   -0.9778 H   0  0  0  0  0  0  0  0  0  0  0  0
    1.4017    2.9461    2.0351 H   0  0  0  0  0  0  0  0  0  0  0  0
    1.2822    3.6193    0.4100 H   0  0  0  0  0  0  0  0  0  0  0  0
   -1.6691   -2.6507   -2.3116 H   0  0  0  0  0  0  0  0  0  0  0  0
   -2.6045   -0.9437   -3.7782 H   0  0  0  0  0  0  0  0  0  0  0  0
    1.2357    1.2824   -1.3535 H   0  0  0  0  0  0  0  0  0  0  0  0
    3.5815    2.0788    2.1804 H   0  0  0  0  0  0  0  0  0  0  0  0
    1.0539   -2.1691    0.1451 H   0  0  0  0  0  0  0  0  0  0  0  0
    2.9373   -0.1880   -2.1828 H   0  0  0  0  0  0  0  0  0  0  0  0
    5.3454    0.5789    1.3383 H   0  0  0  0  0  0  0  0  0  0  0  0
    1.3355   -4.2259    1.7854 H   0  0  0  0  0  0  0  0  0  0  0  0
   -1.0047   -5.1959    2.5032 H   0  0  0  0  0  0  0  0  0  0  0  0
    4.9553   -0.6434   -3.0074 H   0  0  0  0  0  0  0  0  0  0  0  0
    4.1652   -2.0462   -2.1608 H   0  0  0  0  0  0  0  0  0  0  0  0
    5.9069   -1.9989   -2.4112 H   0  0  0  0  0  0  0  0  0  0  0  0
  1 19  1  0  0  0  0
  1 26  1  0  0  0  0
  2 15  2  0  0  0  0
  3 27  1  0  0  0  0
  3 28  1  0  0  0  0
  4  9  1  0  0  0  0
  4 10  1  0  0  0  0
  4 13  1  0  0  0  0
  5 11  1  0  0  0  0
  5 12  1  0  0  0  0
  5 15  1  0  0  0  0
  6  8  1  0  0  0  0
  6  9  1  0  0  0  0
  6 11  1  0  0  0  0
  6 29  1  0  0  0  0
  7  8  1  0  0  0  0
  7 10  1  0  0  0  0
  7 12  1  0  0  0  0
  7 30  1  0  0  0  0
  8 31  1  0  0  0  0
  8 32  1  0  0  0  0
  9 33  1  0  0  0  0
  9 34  1  0  0  0  0
 10 35  1  0  0  0  0
 10 36  1  0  0  0  0
 11 37  1  0  0  0  0
 11 38  1  0  0  0  0
 12 14  2  0  0  0  0
 13 18  1  0  0  0  0
 13 39  1  0  0  0  0
 13 40  1  0  0  0  0
 14 16  1  0  0  0  0
 14 19  1  0  0  0  0
 15 17  1  0  0  0  0
 16 17  2  0  0  0  0
 16 41  1  0  0  0  0
 17 42  1  0  0  0  0
 18 20  2  0  0  0  0
 18 21  1  0  0  0  0
 19 22  2  0  0  0  0
 20 23  1  0  0  0  0
 20 43  1  0  0  0  0
 21 24  2  0  0  0  0
 21 44  1  0  0  0  0
 22 25  1  0  0  0  0
 22 45  1  0  0  0  0
 23 27  2  0  0  0  0
 23 46  1  0  0  0  0
 24 27  1  0  0  0  0
 24 47  1  0  0  0  0
 25 26  2  0  0  0  0
 25 48  1  0  0  0  0
 26 49  1  0  0  0  0
 28 50  1  0  0  0  0
 28 51  1  0  0  0  0
 28 52  1  0  0  0  0
M  END
> <PUBCHEM_COMPOUND_CID>
7682247

> <PUBCHEM_CONFORMER_RMSD>
0.8

> <PUBCHEM_CONFORMER_DIVERSEORDER>
1
3
5
2
4
6

> <PUBCHEM_MMFF94_PARTIAL_CHARGES>
35
1 -0.08
10 0.27
11 0.3
12 -0.03
13 0.41
14 0.05
15 0.62
16 -0.15
17 -0.14
18 -0.14
19 -0.01
2 -0.57
20 -0.15
21 -0.15
22 -0.15
23 -0.15
24 -0.15
25 -0.15
26 -0.11
27 0.08
28 0.28
3 -0.36
4 -0.81
41 0.15
42 0.15
43 0.15
44 0.15
45 0.15
46 0.15
47 0.15
48 0.15
49 0.15
5 -0.47
7 0.14
9 0.27

> <PUBCHEM_EFFECTIVE_ROTOR_COUNT>
5

> <PUBCHEM_PHARMACOPHORE_FEATURES>
8
1 2 acceptor
1 3 acceptor
1 4 cation
5 1 19 22 25 26 rings
6 18 20 21 23 24 27 rings
6 4 6 7 8 9 10 rings
6 5 12 14 15 16 17 rings
6 5 6 7 8 11 12 rings

> <PUBCHEM_HEAVY_ATOM_COUNT>
28

> <PUBCHEM_ATOM_DEF_STEREO_COUNT>
2

> <PUBCHEM_ATOM_UDEF_STEREO_COUNT>
0

> <PUBCHEM_BOND_DEF_STEREO_COUNT>
0

> <PUBCHEM_BOND_UDEF_STEREO_COUNT>
0

> <PUBCHEM_ISOTOPIC_ATOM_COUNT>
0

> <PUBCHEM_COMPONENT_COUNT>
1

> <PUBCHEM_CACTVS_TAUTO_COUNT>
1

> <PUBCHEM_CONFORMER_ID>
007538C700000001

> <PUBCHEM_MMFF94_ENERGY>
84.3409

> <PUBCHEM_FEATURE_SELFOVERLAP>
42.147

> <PUBCHEM_SHAPE_FINGERPRINT>
10190108 129 18334863844790577747
10764073 3 17983614950581126715
107951 10 18267324044123268399
10871710 139 17259324580138675650
12035759 4 18128232529196678061
12422481 6 17415316989739976979
133893 2 17829875543668430057
15361156 5 17988379087567688972
17899979 19 17175995953082662770
17974551 9 17409391884739008235
17980427 23 16757180871308228769
1813 80 16595618091646803395
20775530 9 17541950131638539378
21285901 2 17326869168839672399
21330990 113 18115587201091033235
22907989 373 17970629807749382519
23559900 14 18130793339761296368
23728640 28 17059788744803399013
3298306 158 18051420560849350456
3411729 13 17192948214648621825
3493558 16 13748556447853015307
35225 105 17899170279412680106
404807 14 14037626867967646444
445580 42 18410016550563961242
469060 322 17531820184750719171
513532 50 16480158178288104541
57527585 103 18265900335558541122
9709674 26 18060418041004505128
9925002 15 17335866047292820713

> <PUBCHEM_SHAPE_MULTIPOLES>
558.38
7.48
4.71
2.57
12.43
4.1
1.68
-0.49
3.58
-2.77
-3.18
-1.65
0.28
1.52

> <PUBCHEM_SHAPE_SELFOVERLAP>
1215.736

> <PUBCHEM_SHAPE_VOLUME>
305.4

> <PUBCHEM_COORDINATE_TYPE>
2
5
10

$$$$
