26743302
  -OEChem-12032416183D

 63 65  0     1  0  0  0  0  0999 V2000
   -1.7722   -0.0373   -1.7690 O   0  0  0  0  0  0  0  0  0  0  0  0
    5.4704   -0.1513    2.3286 O   0  0  0  0  0  0  0  0  0  0  0  0
    2.7001   -3.3732   -0.9914 N   0  0  0  0  0  0  0  0  0  0  0  0
    6.5667    0.9966    0.6375 N   0  0  0  0  0  0  0  0  0  0  0  0
   -0.3861   -0.0480   -1.8686 N   0  0  0  0  0  0  0  0  0  0  0  0
    3.4030   -1.1252    0.7859 C   0  0  1  0  0  0  0  0  0  0  0  0
    2.0793   -1.1768   -0.0138 C   0  0  2  0  0  0  0  0  0  0  0  0
    3.9174   -2.5590    0.9979 C   0  0  0  0  0  0  0  0  0  0  0  0
    2.2191   -2.0238   -1.2898 C   0  0  0  0  0  0  0  0  0  0  0  0
    3.9911   -3.3511   -0.3069 C   0  0  0  0  0  0  0  0  0  0  0  0
    1.5263    0.2095   -0.3471 C   0  0  0  0  0  0  0  0  0  0  0  0
    4.4845   -0.2465    0.1461 C   0  0  0  0  0  0  0  0  0  0  0  0
    0.0515    0.1582   -0.6233 C   0  0  0  0  0  0  0  0  0  0  0  0
    5.5402    0.1938    1.1461 C   0  0  0  0  0  0  0  0  0  0  0  0
   -1.0023    0.3048    0.2953 C   0  0  0  0  0  0  0  0  0  0  0  0
   -2.1269    0.1737   -0.4757 C   0  0  0  0  0  0  0  0  0  0  0  0
   -7.7457    0.3229    0.5583 C   0  0  0  0  0  0  0  0  0  0  0  0
    6.6284    1.3925   -0.7676 C   0  0  0  0  0  0  0  0  0  0  0  0
   -3.5367    0.2105   -0.2163 C   0  0  0  0  0  0  0  0  0  0  0  0
    7.6521    1.4986    1.4711 C   0  0  0  0  0  0  0  0  0  0  0  0
   -6.2794    0.2841    0.2883 C   0  0  0  0  0  0  0  0  0  0  0  0
   -4.0017    0.4218    1.0817 C   0  0  0  0  0  0  0  0  0  0  0  0
   -4.4432    0.0363   -1.2621 C   0  0  0  0  0  0  0  0  0  0  0  0
   -5.3730    0.4586    1.3341 C   0  0  0  0  0  0  0  0  0  0  0  0
   -5.8146    0.0729   -1.0098 C   0  0  0  0  0  0  0  0  0  0  0  0
   -8.1732    1.6963    1.1627 C   0  0  0  0  0  0  0  0  0  0  0  0
   -8.1641   -0.7875    1.5715 C   0  0  0  0  0  0  0  0  0  0  0  0
   -8.6643    0.1138   -0.6911 C   0  0  0  0  0  0  0  0  0  0  0  0
    5.9178    2.6510   -0.9921 C   0  0  0  0  0  0  0  0  0  0  0  0
    5.3353    3.6838   -1.1806 C   0  0  0  0  0  0  0  0  0  0  0  0
    3.1567   -0.7103    1.7730 H   0  0  0  0  0  0  0  0  0  0  0  0
    1.3513   -1.6886    0.6351 H   0  0  0  0  0  0  0  0  0  0  0  0
    3.2384   -3.0774    1.6884 H   0  0  0  0  0  0  0  0  0  0  0  0
    4.9012   -2.5615    1.4799 H   0  0  0  0  0  0  0  0  0  0  0  0
    1.2498   -2.1328   -1.7851 H   0  0  0  0  0  0  0  0  0  0  0  0
    2.8907   -1.5390   -2.0091 H   0  0  0  0  0  0  0  0  0  0  0  0
    4.7676   -2.9558   -0.9708 H   0  0  0  0  0  0  0  0  0  0  0  0
    4.2779   -4.3831   -0.0751 H   0  0  0  0  0  0  0  0  0  0  0  0
    2.0410    0.6502   -1.2099 H   0  0  0  0  0  0  0  0  0  0  0  0
    1.6855    0.8903    0.4993 H   0  0  0  0  0  0  0  0  0  0  0  0
    4.0409    0.6692   -0.2522 H   0  0  0  0  0  0  0  0  0  0  0  0
    4.9610   -0.7825   -0.6774 H   0  0  0  0  0  0  0  0  0  0  0  0
    2.7880   -3.9000   -1.8599 H   0  0  0  0  0  0  0  0  0  0  0  0
   -0.9409    0.4793    1.3596 H   0  0  0  0  0  0  0  0  0  0  0  0
    7.6829    1.5012   -1.0486 H   0  0  0  0  0  0  0  0  0  0  0  0
    6.2300    0.6142   -1.4209 H   0  0  0  0  0  0  0  0  0  0  0  0
    8.5996    1.0974    1.1000 H   0  0  0  0  0  0  0  0  0  0  0  0
    7.5211    1.1900    2.5115 H   0  0  0  0  0  0  0  0  0  0  0  0
    7.6676    2.5911    1.4239 H   0  0  0  0  0  0  0  0  0  0  0  0
   -3.3199    0.5611    1.9167 H   0  0  0  0  0  0  0  0  0  0  0  0
   -4.1194   -0.1303   -2.2864 H   0  0  0  0  0  0  0  0  0  0  0  0
   -7.9091    2.5181    0.4867 H   0  0  0  0  0  0  0  0  0  0  0  0
   -9.2550    1.7367    1.3351 H   0  0  0  0  0  0  0  0  0  0  0  0
   -7.6856    1.8898    2.1243 H   0  0  0  0  0  0  0  0  0  0  0  0
   -9.2458   -0.7785    1.7487 H   0  0  0  0  0  0  0  0  0  0  0  0
   -7.8930   -1.7806    1.1943 H   0  0  0  0  0  0  0  0  0  0  0  0
   -7.6765   -0.6590    2.5440 H   0  0  0  0  0  0  0  0  0  0  0  0
   -9.7245    0.1553   -0.4131 H   0  0  0  0  0  0  0  0  0  0  0  0
   -8.5005    0.8926   -1.4451 H   0  0  0  0  0  0  0  0  0  0  0  0
   -8.4935   -0.8642   -1.1562 H   0  0  0  0  0  0  0  0  0  0  0  0
   -5.7077    0.6246    2.3540 H   0  0  0  0  0  0  0  0  0  0  0  0
   -6.4748   -0.0684   -1.8585 H   0  0  0  0  0  0  0  0  0  0  0  0
    4.8179    4.5995   -1.3473 H   0  0  0  0  0  0  0  0  0  0  0  0
  1  5  1  0  0  0  0
  1 16  1  0  0  0  0
  2 14  2  0  0  0  0
  3  9  1  0  0  0  0
  3 10  1  0  0  0  0
  3 43  1  0  0  0  0
  4 14  1  0  0  0  0
  4 18  1  0  0  0  0
  4 20  1  0  0  0  0
  5 13  2  0  0  0  0
  6  7  1  0  0  0  0
  6  8  1  0  0  0  0
  6 12  1  0  0  0  0
  6 31  1  0  0  0  0
  7  9  1  0  0  0  0
  7 11  1  0  0  0  0
  7 32  1  0  0  0  0
  8 10  1  0  0  0  0
  8 33  1  0  0  0  0
  8 34  1  0  0  0  0
  9 35  1  0  0  0  0
  9 36  1  0  0  0  0
 10 37  1  0  0  0  0
 10 38  1  0  0  0  0
 11 13  1  0  0  0  0
 11 39  1  0  0  0  0
 11 40  1  0  0  0  0
 12 14  1  0  0  0  0
 12 41  1  0  0  0  0
 12 42  1  0  0  0  0
 13 15  1  0  0  0  0
 15 16  2  0  0  0  0
 15 44  1  0  0  0  0
 16 19  1  0  0  0  0
 17 21  1  0  0  0  0
 17 26  1  0  0  0  0
 17 27  1  0  0  0  0
 17 28  1  0  0  0  0
 18 29  1  0  0  0  0
 18 45  1  0  0  0  0
 18 46  1  0  0  0  0
 19 22  2  0  0  0  0
 19 23  1  0  0  0  0
 20 47  1  0  0  0  0
 20 48  1  0  0  0  0
 20 49  1  0  0  0  0
 21 24  2  0  0  0  0
 21 25  1  0  0  0  0
 22 24  1  0  0  0  0
 22 50  1  0  0  0  0
 23 25  2  0  0  0  0
 23 51  1  0  0  0  0
 24 61  1  0  0  0  0
 25 62  1  0  0  0  0
 26 52  1  0  0  0  0
 26 53  1  0  0  0  0
 26 54  1  0  0  0  0
 27 55  1  0  0  0  0
 27 56  1  0  0  0  0
 27 57  1  0  0  0  0
 28 58  1  0  0  0  0
 28 59  1  0  0  0  0
 28 60  1  0  0  0  0
 29 30  3  0  0  0  0
 30 63  1  0  0  0  0
M  END
> <PUBCHEM_COMPOUND_CID>
26743302

> <PUBCHEM_CONFORMER_RMSD>
1.2

> <PUBCHEM_CONFORMER_DIVERSEORDER>
2
80
19
99
74
43
102
46
83
95
118
61
37
66
30
97
85
65
77
49
28
69
109
88
27
71
17
91
73
105
1
115
117
106
24
110
114
111
58
18
64
89
79
81
54
22
57
92
119
23
75
45
120
101
7
87
62
116
35
60
76
41
4
20
56
9
5
40
72
78
6
16
14
31
42
47
67
12
39
121
100
10
108
36
68
3
48
38
90
112
82
98
44
53
55
113
104
33
52
32
86
26
8
107
84
29
94
21
11
34
96
13
93
63
15
51
70
103
25
59
50

> <PUBCHEM_MMFF94_PARTIAL_CHARGES>
31
1 -0.02
10 0.27
11 0.18
12 0.06
13 0.11
14 0.57
15 -0.15
16 0.09
17 0.14
18 0.5
19 0.05
2 -0.57
20 0.3
21 -0.14
22 -0.15
23 -0.15
24 -0.15
25 -0.15
29 -0.2
3 -0.9
30 -0.18
4 -0.66
43 0.36
44 0.15
5 -0.41
50 0.15
51 0.15
61 0.15
62 0.15
63 0.18
9 0.27

> <PUBCHEM_EFFECTIVE_ROTOR_COUNT>
9.2

> <PUBCHEM_PHARMACOPHORE_FEATURES>
9
1 2 acceptor
1 3 cation
1 3 donor
1 30 hydrophobe
1 5 acceptor
4 17 26 27 28 hydrophobe
5 1 5 13 15 16 rings
6 19 21 22 23 24 25 rings
6 3 6 7 8 9 10 rings

> <PUBCHEM_HEAVY_ATOM_COUNT>
30

> <PUBCHEM_ATOM_DEF_STEREO_COUNT>
2

> <PUBCHEM_ATOM_UDEF_STEREO_COUNT>
0

> <PUBCHEM_BOND_DEF_STEREO_COUNT>
0

> <PUBCHEM_BOND_UDEF_STEREO_COUNT>
0

> <PUBCHEM_ISOTOPIC_ATOM_COUNT>
0

> <PUBCHEM_COMPONENT_COUNT>
1

> <PUBCHEM_CACTVS_TAUTO_COUNT>
1

> <PUBCHEM_CONFORMER_ID>
0198120600000002

> <PUBCHEM_MMFF94_ENERGY>
67.6019

> <PUBCHEM_FEATURE_SELFOVERLAP>
45.671

> <PUBCHEM_SHAPE_FINGERPRINT>
10 15 17894630365741583882
10162869 55 18340758339163756061
10165383 225 18343578565314806104
10670039 82 13686306763717560243
11411753 29 18044093458749088798
12516196 113 18187646882245417149
12592606 108 11025795388375541200
12596602 18 18201719497378759659
13533116 47 18130505223831553819
14118638 360 18131355163873922353
14251764 18 17918269849387041199
14910700 183 17676204676140314754
15188451 53 14056713535580986136
15328829 1 17988932183922127489
15392192 104 18411985788563576679
15419008 91 17385711496832501269
1577012 14 17418368078793396719
16120349 18 18261107508786579541
20567600 234 18333730230215175004
21716022 299 15408956625922571838
21792964 463 18129120972978420817
221357 26 9511458931135036538
22224240 67 18334855030320519066
3044373 193 16805327712510282964
3383291 50 14996290228057124737
3663271 9 17989204812036218563
3711267 37 17632305592033020809
394071 54 18261118478074894732
397830 11 18040996215918648109
3986486 107 14907913686602648552
4073 2 18342177774078937123
4340502 62 18040433287482507666
444735 82 18411422769822145877
45377200 153 14476666573325075749
49967989 163 16199002073018632733
5104073 3 18191300472968277929
54076057 255 16559025022008555610
5758199 1 18131910476890031722
6438161 24 13190341274947382113
9962374 69 18128807565352562550

> <PUBCHEM_SHAPE_MULTIPOLES>
590.7
26.98
2.8
1.67
30.55
0.6
0.2
-11.97
8.9
-8.16
-0.88
-0.34
-0.06
-0.9

> <PUBCHEM_SHAPE_SELFOVERLAP>
1232.822

> <PUBCHEM_SHAPE_VOLUME>
334.4

> <PUBCHEM_COORDINATE_TYPE>
2
5
10

$$$$
