25313090
  -OEChem-12032416193D

 62 65  0     1  0  0  0  0  0999 V2000
    2.7637    3.4278    1.6455 O   0  0  0  0  0  0  0  0  0  0  0  0
    5.0352   -4.4761    0.6414 O   0  0  0  0  0  0  0  0  0  0  0  0
    6.2908   -2.5970    0.3703 O   0  0  0  0  0  0  0  0  0  0  0  0
    3.2491    1.7656    0.0967 N   0  0  0  0  0  0  0  0  0  0  0  0
   -0.9600   -0.9591   -0.6842 N   0  0  0  0  0  0  0  0  0  0  0  0
   -3.7541   -0.5966   -0.2146 N   0  0  0  0  0  0  0  0  0  0  0  0
    2.7992   -0.4420   -0.9509 C   0  0  2  0  0  0  0  0  0  0  0  0
    4.0035   -1.0192   -0.1641 C   0  0  1  0  0  0  0  0  0  0  0  0
    1.3401    3.2964   -0.2435 C   0  0  0  0  0  0  0  0  0  0  0  0
    2.9944    1.0692   -1.1708 C   0  0  0  0  0  0  0  0  0  0  0  0
    4.2653   -0.2289    1.1292 C   0  0  0  0  0  0  0  0  0  0  0  0
    1.5727    4.2636   -1.3669 C   0  0  0  0  0  0  0  0  0  0  0  0
    0.8644    4.7146   -0.1232 C   0  0  0  0  0  0  0  0  0  0  0  0
    4.3999    1.2655    0.8484 C   0  0  0  0  0  0  0  0  0  0  0  0
    1.4391   -0.7136   -0.2959 C   0  0  0  0  0  0  0  0  0  0  0  0
    2.5127    2.8426    0.5889 C   0  0  0  0  0  0  0  0  0  0  0  0
    3.8661   -2.5118    0.1348 C   0  0  0  0  0  0  0  0  0  0  0  0
    0.3269   -0.7156   -1.3348 C   0  0  0  0  0  0  0  0  0  0  0  0
   -1.4518    0.2658   -0.0413 C   0  0  0  0  0  0  0  0  0  0  0  0
   -1.9462   -1.4424   -1.6580 C   0  0  0  0  0  0  0  0  0  0  0  0
   -2.7707    0.0097    0.6916 C   0  0  0  0  0  0  0  0  0  0  0  0
   -3.2824   -1.7549   -0.9796 C   0  0  0  0  0  0  0  0  0  0  0  0
    5.2029   -3.1531    0.3860 C   0  0  0  0  0  0  0  0  0  0  0  0
   -5.1089   -0.4906    0.1195 C   0  0  0  0  0  0  0  0  0  0  0  0
   -5.6986    0.7667    0.2512 C   0  0  0  0  0  0  0  0  0  0  0  0
   -5.8704   -1.6422    0.3175 C   0  0  0  0  0  0  0  0  0  0  0  0
   -7.0499    0.8721    0.5810 C   0  0  0  0  0  0  0  0  0  0  0  0
   -7.2217   -1.5368    0.6471 C   0  0  0  0  0  0  0  0  0  0  0  0
   -7.8113   -0.2795    0.7789 C   0  0  0  0  0  0  0  0  0  0  0  0
    2.8079   -0.9239   -1.9385 H   0  0  0  0  0  0  0  0  0  0  0  0
    4.8818   -0.8761   -0.8110 H   0  0  0  0  0  0  0  0  0  0  0  0
    0.5609    2.5527   -0.3732 H   0  0  0  0  0  0  0  0  0  0  0  0
    3.8750    1.2394   -1.8030 H   0  0  0  0  0  0  0  0  0  0  0  0
    2.1467    1.4997   -1.7058 H   0  0  0  0  0  0  0  0  0  0  0  0
    5.1757   -0.5793    1.6272 H   0  0  0  0  0  0  0  0  0  0  0  0
    3.4379   -0.3875    1.8327 H   0  0  0  0  0  0  0  0  0  0  0  0
    2.5777    4.6306   -1.5354 H   0  0  0  0  0  0  0  0  0  0  0  0
    0.9838    4.1397   -2.2675 H   0  0  0  0  0  0  0  0  0  0  0  0
   -0.2019    4.8955   -0.1890 H   0  0  0  0  0  0  0  0  0  0  0  0
    1.3909    5.4003    0.5290 H   0  0  0  0  0  0  0  0  0  0  0  0
    4.5156    1.8081    1.7919 H   0  0  0  0  0  0  0  0  0  0  0  0
    5.2949    1.4630    0.2467 H   0  0  0  0  0  0  0  0  0  0  0  0
    1.2591    0.0118    0.5029 H   0  0  0  0  0  0  0  0  0  0  0  0
    1.4307   -1.6963    0.1876 H   0  0  0  0  0  0  0  0  0  0  0  0
    3.2371   -2.6838    1.0151 H   0  0  0  0  0  0  0  0  0  0  0  0
    3.4231   -3.0232   -0.7280 H   0  0  0  0  0  0  0  0  0  0  0  0
    0.5422   -1.5275   -2.0424 H   0  0  0  0  0  0  0  0  0  0  0  0
    0.3064    0.2108   -1.9207 H   0  0  0  0  0  0  0  0  0  0  0  0
   -1.5991    1.0617   -0.7842 H   0  0  0  0  0  0  0  0  0  0  0  0
   -0.7412    0.6427    0.7007 H   0  0  0  0  0  0  0  0  0  0  0  0
   -1.5873   -2.3620   -2.1361 H   0  0  0  0  0  0  0  0  0  0  0  0
   -2.1009   -0.6997   -2.4525 H   0  0  0  0  0  0  0  0  0  0  0  0
   -2.6047   -0.6614    1.5443 H   0  0  0  0  0  0  0  0  0  0  0  0
   -3.1259    0.9642    1.0967 H   0  0  0  0  0  0  0  0  0  0  0  0
   -4.0043   -2.0248   -1.7605 H   0  0  0  0  0  0  0  0  0  0  0  0
   -3.1625   -2.6190   -0.3136 H   0  0  0  0  0  0  0  0  0  0  0  0
    5.8898   -4.9270    0.8106 H   0  0  0  0  0  0  0  0  0  0  0  0
   -5.1259    1.6758    0.0865 H   0  0  0  0  0  0  0  0  0  0  0  0
   -5.4415   -2.6369    0.2368 H   0  0  0  0  0  0  0  0  0  0  0  0
   -7.5100    1.8509    0.6804 H   0  0  0  0  0  0  0  0  0  0  0  0
   -7.8144   -2.4332    0.8043 H   0  0  0  0  0  0  0  0  0  0  0  0
   -8.8634   -0.1974    1.0356 H   0  0  0  0  0  0  0  0  0  0  0  0
  1 16  2  0  0  0  0
  2 23  1  0  0  0  0
  2 57  1  0  0  0  0
  3 23  2  0  0  0  0
  4 10  1  0  0  0  0
  4 14  1  0  0  0  0
  4 16  1  0  0  0  0
  5 18  1  0  0  0  0
  5 19  1  0  0  0  0
  5 20  1  0  0  0  0
  6 21  1  0  0  0  0
  6 22  1  0  0  0  0
  6 24  1  0  0  0  0
  7  8  1  0  0  0  0
  7 10  1  0  0  0  0
  7 15  1  0  0  0  0
  7 30  1  0  0  0  0
  8 11  1  0  0  0  0
  8 17  1  0  0  0  0
  8 31  1  0  0  0  0
  9 12  1  0  0  0  0
  9 13  1  0  0  0  0
  9 16  1  0  0  0  0
  9 32  1  0  0  0  0
 10 33  1  0  0  0  0
 10 34  1  0  0  0  0
 11 14  1  0  0  0  0
 11 35  1  0  0  0  0
 11 36  1  0  0  0  0
 12 13  1  0  0  0  0
 12 37  1  0  0  0  0
 12 38  1  0  0  0  0
 13 39  1  0  0  0  0
 13 40  1  0  0  0  0
 14 41  1  0  0  0  0
 14 42  1  0  0  0  0
 15 18  1  0  0  0  0
 15 43  1  0  0  0  0
 15 44  1  0  0  0  0
 17 23  1  0  0  0  0
 17 45  1  0  0  0  0
 17 46  1  0  0  0  0
 18 47  1  0  0  0  0
 18 48  1  0  0  0  0
 19 21  1  0  0  0  0
 19 49  1  0  0  0  0
 19 50  1  0  0  0  0
 20 22  1  0  0  0  0
 20 51  1  0  0  0  0
 20 52  1  0  0  0  0
 21 53  1  0  0  0  0
 21 54  1  0  0  0  0
 22 55  1  0  0  0  0
 22 56  1  0  0  0  0
 24 25  2  0  0  0  0
 24 26  1  0  0  0  0
 25 27  1  0  0  0  0
 25 58  1  0  0  0  0
 26 28  2  0  0  0  0
 26 59  1  0  0  0  0
 27 29  2  0  0  0  0
 27 60  1  0  0  0  0
 28 29  1  0  0  0  0
 28 61  1  0  0  0  0
 29 62  1  0  0  0  0
M  END
> <PUBCHEM_COMPOUND_CID>
25313090

> <PUBCHEM_CONFORMER_RMSD>
1.2

> <PUBCHEM_CONFORMER_DIVERSEORDER>
2
51
126
139
84
124
41
129
71
64
131
73
91
44
32
90
72
140
63
68
117
13
108
76
33
141
123
40
77
138
38
37
127
5
132
115
78
119
109
87
36
100
105
61
95
137
17
135
104
97
49
67
3
22
114
128
111
98
23
103
83
110
18
125
93
99
122
57
74
28
96
121
30
92
9
48
70
82
25
62
130
66
53
11
19
6
55
58
107
24
50
120
94
112
45
39
102
85
81
69
21
65
113
14
80
118
116
52
29
101
136
47
60
42
79
106
88
12
35
43
31
16
89
26
20
27
86
54
59
7
133
75
10
15
46
34
1
56
134
8
4

> <PUBCHEM_MMFF94_PARTIAL_CHARGES>
36
1 -0.57
10 0.3
12 -0.2
13 -0.2
14 0.3
16 0.63
17 0.06
18 0.27
19 0.27
2 -0.65
20 0.27
21 0.37
22 0.37
23 0.66
24 0.1
25 -0.15
26 -0.15
27 -0.15
28 -0.15
29 -0.15
3 -0.57
32 0.1
37 0.1
38 0.1
39 0.1
4 -0.66
40 0.1
5 -0.81
57 0.5
58 0.15
59 0.15
6 -0.84
60 0.15
61 0.15
62 0.15
9 -0.1

> <PUBCHEM_EFFECTIVE_ROTOR_COUNT>
11

> <PUBCHEM_PHARMACOPHORE_FEATURES>
9
1 1 acceptor
1 2 acceptor
1 3 acceptor
1 5 cation
1 6 cation
3 2 3 23 anion
6 24 25 26 27 28 29 rings
6 4 7 8 10 11 14 rings
6 5 6 19 20 21 22 rings

> <PUBCHEM_HEAVY_ATOM_COUNT>
29

> <PUBCHEM_ATOM_DEF_STEREO_COUNT>
2

> <PUBCHEM_ATOM_UDEF_STEREO_COUNT>
0

> <PUBCHEM_BOND_DEF_STEREO_COUNT>
0

> <PUBCHEM_BOND_UDEF_STEREO_COUNT>
0

> <PUBCHEM_ISOTOPIC_ATOM_COUNT>
0

> <PUBCHEM_COMPONENT_COUNT>
1

> <PUBCHEM_CACTVS_TAUTO_COUNT>
1

> <PUBCHEM_CONFORMER_ID>
01823F4200000002

> <PUBCHEM_MMFF94_ENERGY>
75.7113

> <PUBCHEM_FEATURE_SELFOVERLAP>
45.731

> <PUBCHEM_SHAPE_FINGERPRINT>
10688039 33 18262236608697122252
11186622 174 18411695500724879413
11456790 92 18338246968712020273
11756154 67 18267308633970501430
12107183 9 18343582915405052943
12166972 35 18342742909769194729
12422481 6 18408604790856909069
12616971 3 18060696204550758127
13150687 139 8934707938817798210
13533116 47 18335422374104774235
13782708 43 17676207970638823083
13785724 45 18340775836259314894
14114211 80 17395303867611291476
14849402 71 18336833081771783260
15348495 7 18336269041640870147
15419008 47 17894906292074554501
15420108 30 17558812113729706852
15439362 3 17762345008829556676
17844677 252 18411991278000831305
17868525 174 18411979173918237061
19301679 30 18263637378021064922
20715895 44 18130793343781846353
21315764 268 18408322212078475245
21344244 78 18411691072397358624
22033318 11 18198646366610776985
23559900 14 18259989309755845107
3004659 81 17988936595090449757
3680242 22 18343309171384786353
397830 11 17825397529831298115
4073 2 18190465050374416627
4144715 1 18334864913783695523
5104073 3 18270693051674378667
60111433 81 16915932070963020025
68570916 9 18200034083877603287
70251023 43 18262519174711369562
86090 222 17313105232822031779

> <PUBCHEM_SHAPE_MULTIPOLES>
564.26
18
5.1
1.22
31.22
3.95
0.19
-11.61
-6.47
-10.14
-0.18
-0.38
0.25
-0.82

> <PUBCHEM_SHAPE_SELFOVERLAP>
1173.137

> <PUBCHEM_SHAPE_VOLUME>
319

> <PUBCHEM_COORDINATE_TYPE>
2
5
10

$$$$
