11886183
  -OEChem-12032416143D

 50 54  0     1  0  0  0  0  0999 V2000
   -0.1702   -2.4529    1.0978 O   0  0  0  0  0  0  0  0  0  0  0  0
    0.0920   -1.4832   -1.8826 O   0  0  0  0  0  0  0  0  0  0  0  0
    4.3789   -0.1117   -0.3111 O   0  0  0  0  0  0  0  0  0  0  0  0
   -4.3246   -1.3768    0.7363 O   0  0  0  0  0  0  0  0  0  0  0  0
    2.2854   -0.3013    0.7879 N   0  0  0  0  0  0  0  0  0  0  0  0
   -2.7842   -0.8831   -0.9157 N   0  0  0  0  0  0  0  0  0  0  0  0
    1.6691    0.2555    1.8346 N   0  0  0  0  0  0  0  0  0  0  0  0
    3.7060    1.1241    1.5753 N   0  0  0  0  0  0  0  0  0  0  0  0
    2.5451    1.1295    2.3152 N   0  0  0  0  0  0  0  0  0  0  0  0
   -4.6974    0.3804   -0.7751 N   0  0  0  0  0  0  0  0  0  0  0  0
    0.3098   -0.8556   -0.6058 C   0  0  1  0  0  0  0  0  0  0  0  0
   -0.7530   -1.3817    0.3391 C   0  0  1  0  0  0  0  0  0  0  0  0
    1.6223   -1.3330   -0.0138 C   0  0  2  0  0  0  0  0  0  0  0  0
   -1.8344   -1.9142   -0.5740 C   0  0  2  0  0  0  0  0  0  0  0  0
    1.2160   -2.5858    0.7546 C   0  0  0  0  0  0  0  0  0  0  0  0
   -1.0422   -2.3565   -1.7902 C   0  0  0  0  0  0  0  0  0  0  0  0
    3.5215    0.2279    0.6333 C   0  0  0  0  0  0  0  0  0  0  0  0
   -3.9838   -0.6862   -0.2211 C   0  0  0  0  0  0  0  0  0  0  0  0
   -5.9495    0.8939   -0.3640 C   0  0  0  0  0  0  0  0  0  0  0  0
    5.6356    0.4670   -0.4233 C   0  0  0  0  0  0  0  0  0  0  0  0
   -6.5001    1.9663   -1.0469 C   0  0  0  0  0  0  0  0  0  0  0  0
   -6.6002    0.3139    0.7129 C   0  0  0  0  0  0  0  0  0  0  0  0
    6.7000   -0.1068    0.2447 C   0  0  0  0  0  0  0  0  0  0  0  0
    5.7845    1.6002   -1.1994 C   0  0  0  0  0  0  0  0  0  0  0  0
   -7.7350    2.4726   -0.6418 C   0  0  0  0  0  0  0  0  0  0  0  0
   -7.8352    0.8202    1.1179 C   0  0  0  0  0  0  0  0  0  0  0  0
    7.9627    0.4754    0.1324 C   0  0  0  0  0  0  0  0  0  0  0  0
    7.0473    2.1823   -1.3117 C   0  0  0  0  0  0  0  0  0  0  0  0
   -8.4027    1.8996    0.4405 C   0  0  0  0  0  0  0  0  0  0  0  0
    8.1363    1.6198   -0.6457 C   0  0  0  0  0  0  0  0  0  0  0  0
    0.2473    0.2261   -0.7631 H   0  0  0  0  0  0  0  0  0  0  0  0
   -1.1015   -0.6280    1.0525 H   0  0  0  0  0  0  0  0  0  0  0  0
    2.3407   -1.6098   -0.7945 H   0  0  0  0  0  0  0  0  0  0  0  0
   -2.3766   -2.7611   -0.1400 H   0  0  0  0  0  0  0  0  0  0  0  0
    1.8001   -2.7519    1.6648 H   0  0  0  0  0  0  0  0  0  0  0  0
    1.3071   -3.4748    0.1208 H   0  0  0  0  0  0  0  0  0  0  0  0
   -0.6597   -3.3749   -1.6604 H   0  0  0  0  0  0  0  0  0  0  0  0
   -1.6084   -2.3172   -2.7258 H   0  0  0  0  0  0  0  0  0  0  0  0
   -2.5418   -0.2280   -1.6530 H   0  0  0  0  0  0  0  0  0  0  0  0
   -4.2717    0.8484   -1.5714 H   0  0  0  0  0  0  0  0  0  0  0  0
   -5.9886    2.4199   -1.8913 H   0  0  0  0  0  0  0  0  0  0  0  0
   -6.2279   -0.5214    1.2872 H   0  0  0  0  0  0  0  0  0  0  0  0
    6.5672   -0.9981    0.8503 H   0  0  0  0  0  0  0  0  0  0  0  0
    4.9383    2.0391   -1.7192 H   0  0  0  0  0  0  0  0  0  0  0  0
   -8.1770    3.3130   -1.1691 H   0  0  0  0  0  0  0  0  0  0  0  0
   -8.3564    0.3750    1.9606 H   0  0  0  0  0  0  0  0  0  0  0  0
    8.8105    0.0374    0.6508 H   0  0  0  0  0  0  0  0  0  0  0  0
    7.1826    3.0733   -1.9178 H   0  0  0  0  0  0  0  0  0  0  0  0
   -9.3643    2.2937    0.7559 H   0  0  0  0  0  0  0  0  0  0  0  0
    9.1194    2.0730   -0.7332 H   0  0  0  0  0  0  0  0  0  0  0  0
  1 12  1  0  0  0  0
  1 15  1  0  0  0  0
  2 11  1  0  0  0  0
  2 16  1  0  0  0  0
  3 17  1  0  0  0  0
  3 20  1  0  0  0  0
  4 18  2  0  0  0  0
  5  7  1  0  0  0  0
  5 13  1  0  0  0  0
  5 17  1  0  0  0  0
  6 14  1  0  0  0  0
  6 18  1  0  0  0  0
  6 39  1  0  0  0  0
  7  9  2  0  0  0  0
  8  9  1  0  0  0  0
  8 17  2  0  0  0  0
 10 18  1  0  0  0  0
 10 19  1  0  0  0  0
 10 40  1  0  0  0  0
 11 12  1  0  0  0  0
 11 13  1  0  0  0  0
 11 31  1  0  0  0  0
 12 14  1  0  0  0  0
 12 32  1  0  0  0  0
 13 15  1  0  0  0  0
 13 33  1  0  0  0  0
 14 16  1  0  0  0  0
 14 34  1  0  0  0  0
 15 35  1  0  0  0  0
 15 36  1  0  0  0  0
 16 37  1  0  0  0  0
 16 38  1  0  0  0  0
 19 21  2  0  0  0  0
 19 22  1  0  0  0  0
 20 23  2  0  0  0  0
 20 24  1  0  0  0  0
 21 25  1  0  0  0  0
 21 41  1  0  0  0  0
 22 26  2  0  0  0  0
 22 42  1  0  0  0  0
 23 27  1  0  0  0  0
 23 43  1  0  0  0  0
 24 28  2  0  0  0  0
 24 44  1  0  0  0  0
 25 29  2  0  0  0  0
 25 45  1  0  0  0  0
 26 29  1  0  0  0  0
 26 46  1  0  0  0  0
 27 30  2  0  0  0  0
 27 47  1  0  0  0  0
 28 30  1  0  0  0  0
 28 48  1  0  0  0  0
 29 49  1  0  0  0  0
 30 50  1  0  0  0  0
M  END
> <PUBCHEM_COMPOUND_CID>
11886183

> <PUBCHEM_CONFORMER_RMSD>
1

> <PUBCHEM_CONFORMER_DIVERSEORDER>
1
96
9
72
159
136
129
118
155
64
40
132
150
62
140
180
39
121
7
87
145
126
128
102
170
178
20
120
174
158
169
57
42
90
161
182
66
183
98
33
17
160
138
181
171
45
51
27
86
69
153
44
105
10
144
32
101
135
83
164
113
149
115
89
163
122
63
81
56
167
97
168
78
165
55
53
176
24
125
6
23
100
166
162
70
61
172
18
175
12
77
179
117
142
94
74
141
139
147
30
99
50
43
84
35
38
152
75
82
106
36
93
157
110
85
103
28
3
137
146
26
119
29
79
80
34
11
109
107
2
133
156
154
8
22
88
111
143
31
127
76
4
123
48
60
19
173
116
114
91
108
46
67
177
54
131
71
68
104
124
15
130
25
47
148
134
5
41
92
73
112
65
13
52
16
58
14
59
49
151
21
37
95

> <PUBCHEM_MMFF94_PARTIAL_CHARGES>
41
1 -0.56
10 -0.55
11 0.28
12 0.28
13 0.26
14 0.3
15 0.28
16 0.28
17 0.25
18 0.69
19 0.12
2 -0.56
20 0.08
21 -0.15
22 -0.15
23 -0.15
24 -0.15
25 -0.15
26 -0.15
27 -0.15
28 -0.15
29 -0.15
3 -0.15
30 -0.15
39 0.37
4 -0.57
40 0.37
41 0.15
42 0.15
43 0.15
44 0.15
45 0.15
46 0.15
47 0.15
48 0.15
49 0.15
5 0.31
50 0.15
6 -0.73
7 -0.42
8 -0.34

> <PUBCHEM_EFFECTIVE_ROTOR_COUNT>
8.2

> <PUBCHEM_PHARMACOPHORE_FEATURES>
11
1 1 acceptor
1 10 donor
1 2 acceptor
1 4 acceptor
1 6 donor
3 5 8 17 cation
5 1 11 12 13 15 rings
5 2 11 12 14 16 rings
5 5 7 8 9 17 rings
6 19 21 22 25 26 29 rings
6 20 23 24 27 28 30 rings

> <PUBCHEM_HEAVY_ATOM_COUNT>
30

> <PUBCHEM_ATOM_DEF_STEREO_COUNT>
4

> <PUBCHEM_ATOM_UDEF_STEREO_COUNT>
0

> <PUBCHEM_BOND_DEF_STEREO_COUNT>
0

> <PUBCHEM_BOND_UDEF_STEREO_COUNT>
0

> <PUBCHEM_ISOTOPIC_ATOM_COUNT>
0

> <PUBCHEM_COMPONENT_COUNT>
1

> <PUBCHEM_CACTVS_TAUTO_COUNT>
3

> <PUBCHEM_CONFORMER_ID>
00B55E6700000001

> <PUBCHEM_MMFF94_ENERGY>
81.2536

> <PUBCHEM_FEATURE_SELFOVERLAP>
56.566

> <PUBCHEM_SHAPE_FINGERPRINT>
10 15 17894349965366611745
10483366 6 17346883333912090730
10625338 86 17967811610084191821
106641 1 16805326613109158187
10670039 82 16343706500510839139
10883706 17 11599706412111905989
11135609 99 9223220854296438584
11211813 128 12540692605421171112
11410812 94 15195298477813325912
11621639 336 18263924333076364908
12120059 9 15052012356503004582
12218070 45 15502951843018720163
12596602 18 16732979783194513585
12758862 65 11602831185123343348
12838862 33 16630803319172072630
13540713 4 13913697807324962370
14251757 52 18186802482874352124
14931854 50 17632862996898279993
15052358 14 17418093243166166954
15183329 4 17060344024182658330
15188451 53 9727640501083450812
15347590 135 14345788353595513748
15350500 55 18261385595551116957
15510800 12 8430315787778554777
1577012 14 18409724071311527078
15840311 113 18261959544045228550
16989713 51 17845086463012665855
18335252 114 17632008663594328453
190975 80 12468357955205095577
19303781 99 9222931653296327753
20105231 36 14490468656973350706
2026 5 10231761072161336029
20505436 4 18408599262379781267
21033648 29 18341321288278550219
21095123 293 18040442118083306444
21360443 89 9511465494825870236
21585482 111 18188769423673425589
22149856 69 13840539601962397068
22224240 67 16950563294160369403
23528940 14 11743299255794381748
23559900 14 15482105115773661370
23576562 1 17202189897257336525
2747138 104 13479129082156748318
2838139 119 18272078405738066749
3009799 131 16773799221137190362
3178227 256 14201401595063812790
3633792 109 15267064765953059730
392239 28 14346074273931291062
4093350 32 17676485017519803426
44426699 302 18337387146620232450
444735 79 13045939105625442288
474113 269 15841002057951480860
54039377 194 9439399134216209529
5718773 13 10447931663287098701
57527295 17 18270105955214975922
5911458 16 18186526513761275172
59682541 35 12613037214753535412
59682541 52 16486977288951872452
6126387 218 13695862628934834951
9689198 14 18186806880583006268
9953998 17 16732706060791586113
9962374 69 12180144106947310921

> <PUBCHEM_SHAPE_MULTIPOLES>
564.02
26.53
2.64
1.54
9.24
0.42
0.21
-26.06
-1.26
1.35
-0.61
-0.47
0.01
-0.78

> <PUBCHEM_SHAPE_SELFOVERLAP>
1235.069

> <PUBCHEM_SHAPE_VOLUME>
304.2

> <PUBCHEM_COORDINATE_TYPE>
2
5
10

$$$$
