45361599
  -OEChem-12032416203D

 72 74  0     1  0  0  0  0  0999 V2000
   -7.1016   -1.7959    1.8512 F   0  0  0  0  0  0  0  0  0  0  0  0
   -4.1881   -4.0284   -1.1408 F   0  0  0  0  0  0  0  0  0  0  0  0
    0.5412    2.4722   -1.5468 O   0  0  0  0  0  0  0  0  0  0  0  0
   -4.4957    2.6222    0.2359 O   0  0  0  0  0  0  0  0  0  0  0  0
    5.8634   -1.7178   -0.3348 O   0  0  0  0  0  0  0  0  0  0  0  0
    8.4790   -1.1448   -1.3516 O   0  0  0  0  0  0  0  0  0  0  0  0
    5.0015    0.2409    0.5673 N   0  0  0  0  0  0  0  0  0  0  0  0
   -3.8238    1.3180   -1.5605 N   0  0  0  0  0  0  0  0  0  0  0  0
    0.7836    0.0763    1.4157 C   0  0  1  0  0  0  0  0  0  0  0  0
    1.2153    0.8049    0.0997 C   0  0  2  0  0  0  0  0  0  0  0  0
    2.7397    1.1817    0.1435 C   0  0  1  0  0  0  0  0  0  0  0  0
    0.2472    1.9745   -0.2406 C   0  0  2  0  0  0  0  0  0  0  0  0
   -0.6894   -0.3801    1.2935 C   0  0  0  0  0  0  0  0  0  0  0  0
    1.6542   -1.1880    1.6009 C   0  0  0  0  0  0  0  0  0  0  0  0
   -1.2349    1.5334   -0.2590 C   0  0  1  0  0  0  0  0  0  0  0  0
    3.6004   -0.0862    0.4051 C   0  0  2  0  0  0  0  0  0  0  0  0
   -1.6451    0.7686    0.9993 C   0  0  0  0  0  0  0  0  0  0  0  0
    3.1462   -0.8880    1.6245 C   0  0  0  0  0  0  0  0  0  0  0  0
    0.9227    0.9793    2.6676 C   0  0  0  0  0  0  0  0  0  0  0  0
   -2.1801    2.7232   -0.4663 C   0  0  2  0  0  0  0  0  0  0  0  0
    3.2392    1.8772   -1.1341 C   0  0  0  0  0  0  0  0  0  0  0  0
   -1.9937    3.7427    0.6520 C   0  0  0  0  0  0  0  0  0  0  0  0
   -3.6234    2.2343   -0.5384 C   0  0  0  0  0  0  0  0  0  0  0  0
    6.0210   -0.6135    0.1786 C   0  0  0  0  0  0  0  0  0  0  0  0
    7.3881   -0.0130    0.4651 C   0  0  0  0  0  0  0  0  0  0  0  0
   -5.1079    0.7119   -1.8259 C   0  0  0  0  0  0  0  0  0  0  0  0
    8.5348   -0.9227    0.0517 C   0  0  0  0  0  0  0  0  0  0  0  0
   -5.2963   -0.5642   -1.0575 C   0  0  0  0  0  0  0  0  0  0  0  0
   -4.6407   -1.7264   -1.4638 C   0  0  0  0  0  0  0  0  0  0  0  0
   -6.1276   -0.5875    0.0624 C   0  0  0  0  0  0  0  0  0  0  0  0
    9.5388   -1.9844   -1.7889 C   0  0  0  0  0  0  0  0  0  0  0  0
   -6.3034   -1.7731    0.7759 C   0  0  0  0  0  0  0  0  0  0  0  0
   -4.8166   -2.9120   -0.7504 C   0  0  0  0  0  0  0  0  0  0  0  0
   -5.6478   -2.9353    0.3695 C   0  0  0  0  0  0  0  0  0  0  0  0
    1.1173    0.0805   -0.7248 H   0  0  0  0  0  0  0  0  0  0  0  0
    2.9057    1.8926    0.9629 H   0  0  0  0  0  0  0  0  0  0  0  0
    0.4397    2.7829    0.4666 H   0  0  0  0  0  0  0  0  0  0  0  0
   -0.7807   -1.1238    0.4902 H   0  0  0  0  0  0  0  0  0  0  0  0
   -1.0085   -0.8852    2.2143 H   0  0  0  0  0  0  0  0  0  0  0  0
    1.3788   -1.7067    2.5280 H   0  0  0  0  0  0  0  0  0  0  0  0
    1.4562   -1.8949    0.7838 H   0  0  0  0  0  0  0  0  0  0  0  0
   -1.3408    0.8426   -1.1062 H   0  0  0  0  0  0  0  0  0  0  0  0
    3.5133   -0.7402   -0.4737 H   0  0  0  0  0  0  0  0  0  0  0  0
   -1.6940    1.4068    1.8840 H   0  0  0  0  0  0  0  0  0  0  0  0
   -2.6461    0.3370    0.8844 H   0  0  0  0  0  0  0  0  0  0  0  0
    3.6963   -1.8369    1.6710 H   0  0  0  0  0  0  0  0  0  0  0  0
    3.4089   -0.3555    2.5467 H   0  0  0  0  0  0  0  0  0  0  0  0
    1.9558    1.2775    2.8633 H   0  0  0  0  0  0  0  0  0  0  0  0
    0.5680    0.4541    3.5623 H   0  0  0  0  0  0  0  0  0  0  0  0
    0.3448    1.9038    2.5837 H   0  0  0  0  0  0  0  0  0  0  0  0
   -1.9638    3.2147   -1.4236 H   0  0  0  0  0  0  0  0  0  0  0  0
    2.9634    1.3101   -2.0291 H   0  0  0  0  0  0  0  0  0  0  0  0
    4.3278    1.9933   -1.1380 H   0  0  0  0  0  0  0  0  0  0  0  0
    2.8382    2.8915   -1.2140 H   0  0  0  0  0  0  0  0  0  0  0  0
    5.2376    1.1071    1.0433 H   0  0  0  0  0  0  0  0  0  0  0  0
    0.4280    1.7437   -2.1807 H   0  0  0  0  0  0  0  0  0  0  0  0
   -2.6945    4.5740    0.4988 H   0  0  0  0  0  0  0  0  0  0  0  0
   -2.2142    3.3588    1.6506 H   0  0  0  0  0  0  0  0  0  0  0  0
   -1.0019    4.1999    0.6561 H   0  0  0  0  0  0  0  0  0  0  0  0
   -3.0629    1.0883   -2.1916 H   0  0  0  0  0  0  0  0  0  0  0  0
    7.4525    0.9332   -0.0859 H   0  0  0  0  0  0  0  0  0  0  0  0
    7.4559    0.2038    1.5370 H   0  0  0  0  0  0  0  0  0  0  0  0
   -5.9018    1.4308   -1.5922 H   0  0  0  0  0  0  0  0  0  0  0  0
   -5.1651    0.5121   -2.9020 H   0  0  0  0  0  0  0  0  0  0  0  0
    8.4649   -1.8825    0.5772 H   0  0  0  0  0  0  0  0  0  0  0  0
    9.4881   -0.4475    0.3099 H   0  0  0  0  0  0  0  0  0  0  0  0
   -3.9903   -1.7203   -2.3344 H   0  0  0  0  0  0  0  0  0  0  0  0
   -6.6433    0.3105    0.3914 H   0  0  0  0  0  0  0  0  0  0  0  0
   10.5076   -1.5222   -1.5761 H   0  0  0  0  0  0  0  0  0  0  0  0
    9.4468   -2.1198   -2.8699 H   0  0  0  0  0  0  0  0  0  0  0  0
    9.4746   -2.9652   -1.3077 H   0  0  0  0  0  0  0  0  0  0  0  0
   -5.7847   -3.8584    0.9249 H   0  0  0  0  0  0  0  0  0  0  0  0
  1 32  1  0  0  0  0
  2 33  1  0  0  0  0
  3 12  1  0  0  0  0
  3 56  1  0  0  0  0
  4 23  2  0  0  0  0
  5 24  2  0  0  0  0
  6 27  1  0  0  0  0
  6 31  1  0  0  0  0
  7 16  1  0  0  0  0
  7 24  1  0  0  0  0
  7 55  1  0  0  0  0
  8 23  1  0  0  0  0
  8 26  1  0  0  0  0
  8 60  1  0  0  0  0
  9 10  1  0  0  0  0
  9 13  1  0  0  0  0
  9 14  1  0  0  0  0
  9 19  1  0  0  0  0
 10 11  1  0  0  0  0
 10 12  1  0  0  0  0
 10 35  1  0  0  0  0
 11 16  1  0  0  0  0
 11 21  1  0  0  0  0
 11 36  1  0  0  0  0
 12 15  1  0  0  0  0
 12 37  1  0  0  0  0
 13 17  1  0  0  0  0
 13 38  1  0  0  0  0
 13 39  1  0  0  0  0
 14 18  1  0  0  0  0
 14 40  1  0  0  0  0
 14 41  1  0  0  0  0
 15 17  1  0  0  0  0
 15 20  1  0  0  0  0
 15 42  1  0  0  0  0
 16 18  1  0  0  0  0
 16 43  1  0  0  0  0
 17 44  1  0  0  0  0
 17 45  1  0  0  0  0
 18 46  1  0  0  0  0
 18 47  1  0  0  0  0
 19 48  1  0  0  0  0
 19 49  1  0  0  0  0
 19 50  1  0  0  0  0
 20 22  1  0  0  0  0
 20 23  1  0  0  0  0
 20 51  1  0  0  0  0
 21 52  1  0  0  0  0
 21 53  1  0  0  0  0
 21 54  1  0  0  0  0
 22 57  1  0  0  0  0
 22 58  1  0  0  0  0
 22 59  1  0  0  0  0
 24 25  1  0  0  0  0
 25 27  1  0  0  0  0
 25 61  1  0  0  0  0
 25 62  1  0  0  0  0
 26 28  1  0  0  0  0
 26 63  1  0  0  0  0
 26 64  1  0  0  0  0
 27 65  1  0  0  0  0
 27 66  1  0  0  0  0
 28 29  2  0  0  0  0
 28 30  1  0  0  0  0
 29 33  1  0  0  0  0
 29 67  1  0  0  0  0
 30 32  2  0  0  0  0
 30 68  1  0  0  0  0
 31 69  1  0  0  0  0
 31 70  1  0  0  0  0
 31 71  1  0  0  0  0
 32 34  1  0  0  0  0
 33 34  2  0  0  0  0
 34 72  1  0  0  0  0
M  END
> <PUBCHEM_COMPOUND_CID>
45361599

> <PUBCHEM_CONFORMER_RMSD>
1.2

> <PUBCHEM_CONFORMER_DIVERSEORDER>
1
8
39
18
85
37
43
122
112
87
133
46
57
97
84
53
7
117
139
90
10
82
124
132
47
94
64
111
110
52
121
91
93
70
140
5
15
86
35
138
106
62
49
59
60
136
23
127
114
63
22
38
61
116
72
113
129
55
120
2
104
41
48
135
32
13
81
17
74
128
96
21
95
115
101
102
30
26
44
100
68
137
98
88
131
99
77
118
109
108
71
19
31
25
67
4
83
45
9
107
56
130
28
33
73
119
134
89
78
123
92
14
103
126
42
12
3
66
79
34
105
24
75
65
76
27
54
11
58
51
50
80
29
125
6
36
40
16
20
69

> <PUBCHEM_MMFF94_PARTIAL_CHARGES>
29
1 -0.19
12 0.28
16 0.3
2 -0.19
20 0.06
23 0.57
24 0.57
25 0.06
26 0.44
27 0.28
28 -0.14
29 -0.15
3 -0.68
30 -0.15
31 0.28
32 0.19
33 0.19
34 -0.15
4 -0.57
5 -0.57
55 0.37
56 0.4
6 -0.56
60 0.37
67 0.15
68 0.15
7 -0.73
72 0.15
8 -0.73

> <PUBCHEM_EFFECTIVE_ROTOR_COUNT>
11.6

> <PUBCHEM_PHARMACOPHORE_FEATURES>
11
1 22 hydrophobe
1 3 acceptor
1 3 donor
1 4 acceptor
1 5 acceptor
1 6 acceptor
1 7 donor
1 8 donor
6 28 29 30 32 33 34 rings
6 9 10 11 14 16 18 rings
6 9 10 12 13 15 17 rings

> <PUBCHEM_HEAVY_ATOM_COUNT>
34

> <PUBCHEM_ATOM_DEF_STEREO_COUNT>
6

> <PUBCHEM_ATOM_UDEF_STEREO_COUNT>
1

> <PUBCHEM_BOND_DEF_STEREO_COUNT>
0

> <PUBCHEM_BOND_UDEF_STEREO_COUNT>
0

> <PUBCHEM_ISOTOPIC_ATOM_COUNT>
0

> <PUBCHEM_COMPONENT_COUNT>
1

> <PUBCHEM_CACTVS_TAUTO_COUNT>
4

> <PUBCHEM_CONFORMER_ID>
02B429BF00000001

> <PUBCHEM_MMFF94_ENERGY>
86.3497

> <PUBCHEM_FEATURE_SELFOVERLAP>
55.838

> <PUBCHEM_SHAPE_FINGERPRINT>
10554248 39 15864347992444284778
10928967 22 18192136317429880787
11315621 136 18114179769665938917
11315621 246 18336257977314200061
11456790 92 11311765169496317054
11477941 20 16660636345802315285
11621639 254 16732994128311189926
117089 54 18120091938569057343
11973863 73 14476965532981778646
13257819 101 12612747991159944136
13690498 29 17967803960599185949
13782708 43 18131061654372188458
14251757 5 18115299107533004171
14279260 333 18186511094770692866
14856354 85 18343295955770696245
14950920 106 16127802123751574495
15183329 4 18114731707307759226
15461852 350 18408046191799628374
15669420 48 12901550157262405169
16112460 7 12462985784853307778
17686467 74 18412816998517934936
18603816 31 16343412990435125519
20775530 9 17969485165581088741
21795232 338 18344144800370011705
21867018 265 18411987979497915350
22288116 15 18040156210341155602
22393880 68 17604410965146266749
2838139 119 14129337364742509998
354706 132 16443339867696210839
437795 150 18408886234893246270
437795 160 18336528466735102970
445580 160 18413665811996846911
44802255 64 13190345668577951849
44880168 125 17987794258703273967
484989 97 17822861990511683170
54039377 194 18260834830224579259
6086070 43 14273457011200517028
636775 72 8142076560020986774
999808 66 17917709097950519158

> <PUBCHEM_SHAPE_MULTIPOLES>
651.72
22.71
3.69
1.83
39.82
0.07
-0.31
20.48
7.99
-6.09
0.86
0.07
0.24
1.33

> <PUBCHEM_SHAPE_SELFOVERLAP>
1350.854

> <PUBCHEM_SHAPE_VOLUME>
370.3

> <PUBCHEM_COORDINATE_TYPE>
2
5
10

$$$$
