75536669
  -OEChem-12032416393D

 37 38  0     1  0  0  0  0  0999 V2000
    5.5241    0.0324   -0.1358 S   0  0  0  0  0  0  0  0  0  0  0  0
    1.1996    1.2707    0.6830 O   0  0  0  0  0  0  0  0  0  0  0  0
    0.3891   -2.1895    0.1585 O   0  0  0  0  0  0  0  0  0  0  0  0
    5.6856   -1.3466    0.2819 O   0  0  0  0  0  0  0  0  0  0  0  0
    6.4453    1.0572    0.3163 O   0  0  0  0  0  0  0  0  0  0  0  0
   -2.0463   -0.2116   -0.0227 N   0  0  0  0  0  0  0  0  0  0  0  0
    3.9331    0.5544    0.1917 N   0  0  0  0  0  0  0  0  0  0  0  0
   -4.8957    1.0072   -0.7040 N   0  0  0  0  0  0  0  0  0  0  0  0
   -5.3714   -0.8562    0.4066 N   0  0  0  0  0  0  0  0  0  0  0  0
   -0.7517   -0.0823    0.6261 C   0  0  1  0  0  0  0  0  0  0  0  0
    0.3692   -0.7996   -0.1030 C   0  0  1  0  0  0  0  0  0  0  0  0
    1.5909   -0.0962    0.4727 C   0  0  1  0  0  0  0  0  0  0  0  0
   -0.2361    1.3474    0.6383 C   0  0  0  0  0  0  0  0  0  0  0  0
    2.8010   -0.1487   -0.4428 C   0  0  0  0  0  0  0  0  0  0  0  0
   -3.1245    0.1942    0.8710 C   0  0  0  0  0  0  0  0  0  0  0  0
   -4.4725    0.0827    0.2099 C   0  0  0  0  0  0  0  0  0  0  0  0
    5.5203    0.0686   -1.9137 C   0  0  0  0  0  0  0  0  0  0  0  0
   -6.1439    0.6341   -1.1165 C   0  0  0  0  0  0  0  0  0  0  0  0
   -6.4158   -0.5182   -0.4173 C   0  0  0  0  0  0  0  0  0  0  0  0
   -0.7995   -0.4791    1.6502 H   0  0  0  0  0  0  0  0  0  0  0  0
    0.2977   -0.6448   -1.1869 H   0  0  0  0  0  0  0  0  0  0  0  0
    1.8573   -0.5148    1.4523 H   0  0  0  0  0  0  0  0  0  0  0  0
   -0.5016    1.8940   -0.2740 H   0  0  0  0  0  0  0  0  0  0  0  0
   -0.5950    1.9189    1.4995 H   0  0  0  0  0  0  0  0  0  0  0  0
    2.5847    0.3531   -1.3926 H   0  0  0  0  0  0  0  0  0  0  0  0
    3.0621   -1.1931   -0.6410 H   0  0  0  0  0  0  0  0  0  0  0  0
   -2.1892   -1.1855   -0.2916 H   0  0  0  0  0  0  0  0  0  0  0  0
   -2.9896    1.2321    1.1990 H   0  0  0  0  0  0  0  0  0  0  0  0
   -3.1334   -0.4354    1.7696 H   0  0  0  0  0  0  0  0  0  0  0  0
    0.4516   -2.3189    1.1200 H   0  0  0  0  0  0  0  0  0  0  0  0
    3.7909    1.5701    0.2707 H   0  0  0  0  0  0  0  0  0  0  0  0
    4.8318   -0.6856   -2.2971 H   0  0  0  0  0  0  0  0  0  0  0  0
    5.2400    1.0690   -2.2489 H   0  0  0  0  0  0  0  0  0  0  0  0
    6.5335   -0.1600   -2.2530 H   0  0  0  0  0  0  0  0  0  0  0  0
   -4.3807    1.8188   -1.0189 H   0  0  0  0  0  0  0  0  0  0  0  0
   -6.7035    1.2036   -1.8442 H   0  0  0  0  0  0  0  0  0  0  0  0
   -7.3104   -1.1217   -0.4654 H   0  0  0  0  0  0  0  0  0  0  0  0
  1  4  2  0  0  0  0
  1  5  2  0  0  0  0
  1  7  1  0  0  0  0
  1 17  1  0  0  0  0
  2 12  1  0  0  0  0
  2 13  1  0  0  0  0
  3 11  1  0  0  0  0
  3 30  1  0  0  0  0
  6 10  1  0  0  0  0
  6 15  1  0  0  0  0
  6 27  1  0  0  0  0
  7 14  1  0  0  0  0
  7 31  1  0  0  0  0
  8 16  1  0  0  0  0
  8 18  1  0  0  0  0
  8 35  1  0  0  0  0
  9 16  2  0  0  0  0
  9 19  1  0  0  0  0
 10 11  1  0  0  0  0
 10 13  1  0  0  0  0
 10 20  1  0  0  0  0
 11 12  1  0  0  0  0
 11 21  1  0  0  0  0
 12 14  1  0  0  0  0
 12 22  1  0  0  0  0
 13 23  1  0  0  0  0
 13 24  1  0  0  0  0
 14 25  1  0  0  0  0
 14 26  1  0  0  0  0
 15 16  1  0  0  0  0
 15 28  1  0  0  0  0
 15 29  1  0  0  0  0
 17 32  1  0  0  0  0
 17 33  1  0  0  0  0
 17 34  1  0  0  0  0
 18 19  2  0  0  0  0
 18 36  1  0  0  0  0
 19 37  1  0  0  0  0
M  END
> <PUBCHEM_COMPOUND_CID>
75536669

> <PUBCHEM_CONFORMER_RMSD>
0.8

> <PUBCHEM_CONFORMER_DIVERSEORDER>
2
86
167
112
55
113
110
30
79
68
160
73
105
18
148
106
37
169
59
164
53
136
140
81
54
109
64
162
142
46
88
56
134
99
178
176
63
131
72
168
152
132
90
180
14
166
139
149
6
121
98
60
42
21
83
48
97
41
163
29
171
118
172
49
57
127
175
22
25
50
89
87
117
145
52
154
11
181
159
45
62
157
71
43
27
170
69
32
102
70
129
165
82
78
114
135
33
173
107
153
93
104
120
115
116
125
138
1
155
26
34
9
103
75
108
119
84
20
95
39
38
101
126
143
161
100
31
144
65
156
66
17
51
133
146
4
77
40
13
44
10
5
174
47
16
158
35
147
96
80
123
3
137
28
141
74
58
124
7
151
128
15
111
92
12
19
67
150
177
122
8
76
85
179
91
36
24
130
94
23
61

> <PUBCHEM_MMFF94_PARTIAL_CHARGES>
25
1 1.33
10 0.27
11 0.28
12 0.28
13 0.28
14 0.36
15 0.45
16 0.01
17 0.11
18 -0.3
19 0.08
2 -0.56
27 0.36
3 -0.68
30 0.4
31 0.42
35 0.27
36 0.15
37 0.15
4 -0.65
5 -0.65
6 -0.9
7 -0.91
8 0.03
9 -0.57

> <PUBCHEM_EFFECTIVE_ROTOR_COUNT>
7

> <PUBCHEM_PHARMACOPHORE_FEATURES>
12
1 2 acceptor
1 3 acceptor
1 3 donor
1 4 acceptor
1 5 acceptor
1 6 cation
1 6 donor
1 7 donor
1 8 donor
3 8 9 16 cation
5 2 10 11 12 13 rings
5 8 9 16 18 19 rings

> <PUBCHEM_HEAVY_ATOM_COUNT>
19

> <PUBCHEM_ATOM_DEF_STEREO_COUNT>
3

> <PUBCHEM_ATOM_UDEF_STEREO_COUNT>
0

> <PUBCHEM_BOND_DEF_STEREO_COUNT>
0

> <PUBCHEM_BOND_UDEF_STEREO_COUNT>
0

> <PUBCHEM_ISOTOPIC_ATOM_COUNT>
0

> <PUBCHEM_COMPONENT_COUNT>
1

> <PUBCHEM_CACTVS_TAUTO_COUNT>
1

> <PUBCHEM_CONFORMER_ID>
0480991D00000002

> <PUBCHEM_MMFF94_ENERGY>
22.1832

> <PUBCHEM_FEATURE_SELFOVERLAP>
60.917

> <PUBCHEM_SHAPE_FINGERPRINT>
10087517 78 16515677811228796333
11089746 13 15357697513451094583
117890 112 15936413351096956420
12091667 2 17530685420595321209
12236239 1 16702307845005643001
12516196 113 15052013467971066594
12616971 3 9367336020733674658
12670543 26 18408604725503380245
13167372 99 15791727486416343444
13288520 33 15267341830272546769
13533116 47 18339362964509043826
13668630 136 17418094330294001295
13862211 1 18202283584981282890
13968360 50 18261670394057398682
1420 363 17632863027041905575
14251752 14 18334008376317918255
15048467 5 15574433232274844452
15183329 4 17748831799820886740
15348495 7 8069728681495154469
15716309 27 13686297976530495885
17834072 8 18344148106966944748
17834076 25 15285357323370915833
19489759 90 17531246154208655929
20281389 69 13840262598094068975
21150785 3 17846498166557828132
21267235 1 18059860597509964891
21521721 280 17632577197073962738
21637258 2 15410611441412247036
21709351 56 18335132138032472901
22224240 67 11386369257653598761
23035841 295 16487255474115412119
23402539 116 17022620896851255703
23536379 177 17167860855004269968
23559900 14 17917141814158929033
3009799 131 18409728469521568504
3014965 18 18114458960142327034
33382 64 14908190711544353972
465052 167 11887956549470812916
59755656 215 18411140199713119062
59755656 520 17749383793550619419

> <PUBCHEM_SHAPE_MULTIPOLES>
351.46
17.88
1.25
1.06
1.12
0.26
-0.42
-0.47
-5.31
-0.34
0.16
-0.41
-0.12
0.38

> <PUBCHEM_SHAPE_SELFOVERLAP>
704.635

> <PUBCHEM_SHAPE_VOLUME>
209.5

> <PUBCHEM_COORDINATE_TYPE>
2
5
10

$$$$
