75536239
  -OEChem-12032416303D

 58 60  0     1  0  0  0  0  0999 V2000
   -6.7279   -0.1257    0.7966 F   0  0  0  0  0  0  0  0  0  0  0  0
    2.7856   -0.8153    0.7564 O   0  0  0  0  0  0  0  0  0  0  0  0
    5.5897   -0.5179    1.6149 O   0  0  0  0  0  0  0  0  0  0  0  0
   -1.3201   -2.4687   -1.3506 O   0  0  0  0  0  0  0  0  0  0  0  0
    1.9587    3.5036    0.9555 O   0  0  0  0  0  0  0  0  0  0  0  0
    1.6449    1.5697   -0.2946 N   0  0  0  0  0  0  0  0  0  0  0  0
    0.0027   -2.8869   -1.4305 N   0  0  0  0  0  0  0  0  0  0  0  0
    3.5910    0.3590    0.5908 C   0  0  1  0  0  0  0  0  0  0  0  0
    5.0683   -0.0012    0.3875 C   0  0  2  0  0  0  0  0  0  0  0  0
    2.8863   -1.7755   -0.2980 C   0  0  1  0  0  0  0  0  0  0  0  0
    5.2641   -1.0675   -0.6869 C   0  0  0  0  0  0  0  0  0  0  0  0
    4.3293   -2.2516   -0.4573 C   0  0  0  0  0  0  0  0  0  0  0  0
    3.0377    1.2542   -0.5160 C   0  0  0  0  0  0  0  0  0  0  0  0
    1.9666   -2.9390    0.0523 C   0  0  0  0  0  0  0  0  0  0  0  0
   -0.9520    3.6320   -0.5855 C   0  0  0  0  0  0  0  0  0  0  0  0
   -0.2913    2.7774    0.5221 C   0  0  0  0  0  0  0  0  0  0  0  0
    0.5244   -2.6145   -0.2310 C   0  0  0  0  0  0  0  0  0  0  0  0
    1.2222    2.6736    0.4263 C   0  0  0  0  0  0  0  0  0  0  0  0
   -2.4778    3.6929   -0.4019 C   0  0  0  0  0  0  0  0  0  0  0  0
   -0.3915    5.0641   -0.4816 C   0  0  0  0  0  0  0  0  0  0  0  0
   -0.6308    3.0851   -1.9860 C   0  0  0  0  0  0  0  0  0  0  0  0
   -0.4127   -2.0296    0.6381 C   0  0  0  0  0  0  0  0  0  0  0  0
   -1.5554   -1.9600   -0.1141 C   0  0  0  0  0  0  0  0  0  0  0  0
   -2.8883   -1.4861    0.1204 C   0  0  0  0  0  0  0  0  0  0  0  0
   -3.2292   -0.9480    1.3615 C   0  0  0  0  0  0  0  0  0  0  0  0
   -3.8445   -1.5643   -0.8922 C   0  0  0  0  0  0  0  0  0  0  0  0
   -4.5261   -0.4884    1.5899 C   0  0  0  0  0  0  0  0  0  0  0  0
   -5.1415   -1.1047   -0.6637 C   0  0  0  0  0  0  0  0  0  0  0  0
   -5.4822   -0.5667    0.5772 C   0  0  0  0  0  0  0  0  0  0  0  0
    3.4991    0.8977    1.5426 H   0  0  0  0  0  0  0  0  0  0  0  0
    5.6494    0.8958    0.1464 H   0  0  0  0  0  0  0  0  0  0  0  0
    2.5515   -1.3212   -1.2382 H   0  0  0  0  0  0  0  0  0  0  0  0
    6.2997   -1.4270   -0.6891 H   0  0  0  0  0  0  0  0  0  0  0  0
    5.0668   -0.6373   -1.6757 H   0  0  0  0  0  0  0  0  0  0  0  0
    4.4129   -2.9571   -1.2917 H   0  0  0  0  0  0  0  0  0  0  0  0
    4.6468   -2.7807    0.4502 H   0  0  0  0  0  0  0  0  0  0  0  0
    3.0930    0.7796   -1.4996 H   0  0  0  0  0  0  0  0  0  0  0  0
    3.6097    2.1875   -0.5663 H   0  0  0  0  0  0  0  0  0  0  0  0
    2.0672   -3.2050    1.1123 H   0  0  0  0  0  0  0  0  0  0  0  0
    2.2371   -3.8286   -0.5310 H   0  0  0  0  0  0  0  0  0  0  0  0
    0.9537    0.9348   -0.6831 H   0  0  0  0  0  0  0  0  0  0  0  0
   -0.7182    1.7658    0.5112 H   0  0  0  0  0  0  0  0  0  0  0  0
   -0.5269    3.1888    1.5124 H   0  0  0  0  0  0  0  0  0  0  0  0
    6.5363   -0.6954    1.4805 H   0  0  0  0  0  0  0  0  0  0  0  0
   -2.9495    4.3198   -1.1667 H   0  0  0  0  0  0  0  0  0  0  0  0
   -2.7407    4.1058    0.5784 H   0  0  0  0  0  0  0  0  0  0  0  0
   -2.9188    2.6920   -0.4706 H   0  0  0  0  0  0  0  0  0  0  0  0
   -0.8978    5.7326   -1.1881 H   0  0  0  0  0  0  0  0  0  0  0  0
    0.6775    5.1082   -0.7148 H   0  0  0  0  0  0  0  0  0  0  0  0
   -0.5379    5.4770    0.5229 H   0  0  0  0  0  0  0  0  0  0  0  0
   -1.1560    3.6567   -2.7601 H   0  0  0  0  0  0  0  0  0  0  0  0
   -0.9434    2.0390   -2.0789 H   0  0  0  0  0  0  0  0  0  0  0  0
    0.4378    3.1428   -2.2169 H   0  0  0  0  0  0  0  0  0  0  0  0
   -0.2669   -1.7086    1.6592 H   0  0  0  0  0  0  0  0  0  0  0  0
   -2.5061   -0.8729    2.1695 H   0  0  0  0  0  0  0  0  0  0  0  0
   -3.6178   -1.9766   -1.8721 H   0  0  0  0  0  0  0  0  0  0  0  0
   -4.7921   -0.0690    2.5557 H   0  0  0  0  0  0  0  0  0  0  0  0
   -5.8866   -1.1653   -1.4515 H   0  0  0  0  0  0  0  0  0  0  0  0
  1 29  1  0  0  0  0
  2  8  1  0  0  0  0
  2 10  1  0  0  0  0
  3  9  1  0  0  0  0
  3 44  1  0  0  0  0
  4  7  1  0  0  0  0
  4 23  1  0  0  0  0
  5 18  2  0  0  0  0
  6 13  1  0  0  0  0
  6 18  1  0  0  0  0
  6 41  1  0  0  0  0
  7 17  2  0  0  0  0
  8  9  1  0  0  0  0
  8 13  1  0  0  0  0
  8 30  1  0  0  0  0
  9 11  1  0  0  0  0
  9 31  1  0  0  0  0
 10 12  1  0  0  0  0
 10 14  1  0  0  0  0
 10 32  1  0  0  0  0
 11 12  1  0  0  0  0
 11 33  1  0  0  0  0
 11 34  1  0  0  0  0
 12 35  1  0  0  0  0
 12 36  1  0  0  0  0
 13 37  1  0  0  0  0
 13 38  1  0  0  0  0
 14 17  1  0  0  0  0
 14 39  1  0  0  0  0
 14 40  1  0  0  0  0
 15 16  1  0  0  0  0
 15 19  1  0  0  0  0
 15 20  1  0  0  0  0
 15 21  1  0  0  0  0
 16 18  1  0  0  0  0
 16 42  1  0  0  0  0
 16 43  1  0  0  0  0
 17 22  1  0  0  0  0
 19 45  1  0  0  0  0
 19 46  1  0  0  0  0
 19 47  1  0  0  0  0
 20 48  1  0  0  0  0
 20 49  1  0  0  0  0
 20 50  1  0  0  0  0
 21 51  1  0  0  0  0
 21 52  1  0  0  0  0
 21 53  1  0  0  0  0
 22 23  2  0  0  0  0
 22 54  1  0  0  0  0
 23 24  1  0  0  0  0
 24 25  2  0  0  0  0
 24 26  1  0  0  0  0
 25 27  1  0  0  0  0
 25 55  1  0  0  0  0
 26 28  2  0  0  0  0
 26 56  1  0  0  0  0
 27 29  2  0  0  0  0
 27 57  1  0  0  0  0
 28 29  1  0  0  0  0
 28 58  1  0  0  0  0
M  END
> <PUBCHEM_COMPOUND_CID>
75536239

> <PUBCHEM_CONFORMER_RMSD>
1.2

> <PUBCHEM_CONFORMER_DIVERSEORDER>
1
82
35
97
65
53
83
117
39
95
145
48
80
90
59
136
24
12
7
47
121
96
76
33
106
88
107
128
139
70
54
135
84
79
73
112
120
86
14
38
72
52
44
6
130
68
10
119
138
100
41
55
37
110
20
99
78
30
143
31
104
98
109
81
63
40
102
32
122
126
105
15
89
92
36
137
27
74
116
49
57
111
132
58
46
2
69
93
71
142
42
21
144
66
115
75
25
29
129
19
127
23
87
133
26
13
43
124
18
62
3
60
118
85
9
50
11
147
101
123
148
22
64
114
51
140
113
77
146
34
103
141
91
134
16
131
28
125
45
4
56
108
67
61
94
8
17
5

> <PUBCHEM_MMFF94_PARTIAL_CHARGES>
30
1 -0.19
10 0.28
13 0.3
14 0.18
16 0.06
17 0.11
18 0.57
2 -0.56
22 -0.15
23 0.09
24 0.05
25 -0.15
26 -0.15
27 -0.15
28 -0.15
29 0.19
3 -0.68
4 -0.02
41 0.37
44 0.4
5 -0.57
54 0.15
55 0.15
56 0.15
57 0.15
58 0.15
6 -0.73
7 -0.41
8 0.28
9 0.28

> <PUBCHEM_EFFECTIVE_ROTOR_COUNT>
9.2

> <PUBCHEM_PHARMACOPHORE_FEATURES>
10
1 2 acceptor
1 3 acceptor
1 3 donor
1 5 acceptor
1 6 donor
1 7 acceptor
4 15 19 20 21 hydrophobe
5 4 7 17 22 23 rings
6 2 8 9 10 11 12 rings
6 24 25 26 27 28 29 rings

> <PUBCHEM_HEAVY_ATOM_COUNT>
29

> <PUBCHEM_ATOM_DEF_STEREO_COUNT>
3

> <PUBCHEM_ATOM_UDEF_STEREO_COUNT>
0

> <PUBCHEM_BOND_DEF_STEREO_COUNT>
0

> <PUBCHEM_BOND_UDEF_STEREO_COUNT>
0

> <PUBCHEM_ISOTOPIC_ATOM_COUNT>
0

> <PUBCHEM_COMPONENT_COUNT>
1

> <PUBCHEM_CACTVS_TAUTO_COUNT>
2

> <PUBCHEM_CONFORMER_ID>
0480976F00000001

> <PUBCHEM_MMFF94_ENERGY>
55.2572

> <PUBCHEM_FEATURE_SELFOVERLAP>
50.748

> <PUBCHEM_SHAPE_FINGERPRINT>
10439779 11 17765700713620621744
10670039 82 18264507113241088166
10688039 33 18187086126434728268
12156800 1 17906768853884965108
12293681 4 18186809097187500138
12422481 6 18195550107201051681
12596602 18 14056719049955641007
12788726 201 18333733512028969386
13075007 39 17824844440584926179
13402501 40 18409446951827066021
14028597 1 17604414233737426234
14117953 113 18342462513087517407
14363568 33 18046364173150579241
14725015 67 18335690616191742232
14790565 3 17328024781425837684
150020 26 17974583682139449465
151778 21 17756158035097176445
15210252 30 17970918979940938804
15276724 80 18412265056633518164
15420108 30 17625527262283024112
15483637 11 18050005497974330597
15968369 153 18198884947395680245
16993438 75 18119809110423706729
20764821 26 18265900159575658333
21133410 90 17489292041788794793
21298829 104 18202287996181695801
21641784 216 18042989613430564148
21860390 5 18270972369796642294
22113638 7 18268709596198986359
3014063 31 18410572877050025373
3052486 1 18261961722210513934
469060 322 17313957298492909004
474 4 18341333383207830851
550186 83 17896016871411318553
653340 110 18268425737811053024

> <PUBCHEM_SHAPE_MULTIPOLES>
556.09
11.41
5.8
1.31
3.27
7.87
0.06
-6.46
-2.88
0.65
1.55
0.4
0.05
0.68

> <PUBCHEM_SHAPE_SELFOVERLAP>
1165.929

> <PUBCHEM_SHAPE_VOLUME>
315.5

> <PUBCHEM_COORDINATE_TYPE>
2
5
10

$$$$
