45783562
  -OEChem-12032416263D

 53 56  0     1  0  0  0  0  0999 V2000
   -1.9354   -0.5288    2.1135 O   0  0  0  0  0  0  0  0  0  0  0  0
   -2.9099    0.9854   -2.4657 O   0  0  0  0  0  0  0  0  0  0  0  0
    5.1451   -0.0075   -0.5541 O   0  0  0  0  0  0  0  0  0  0  0  0
    7.8657   -0.6477   -0.4028 O   0  0  0  0  0  0  0  0  0  0  0  0
   -4.1320   -0.9326   -0.5995 N   0  0  1  0  0  0  0  0  0  0  0  0
   -1.0887   -1.1754    0.1433 N   0  0  0  0  0  0  0  0  0  0  0  0
   -0.5755   -0.1948    2.1456 N   0  0  0  0  0  0  0  0  0  0  0  0
    3.4661    0.2754    1.0223 N   0  0  0  0  0  0  0  0  0  0  0  0
   -3.5694   -1.5569    0.6146 C   0  0  1  0  0  0  0  0  0  0  0  0
   -3.6656   -3.0718    0.3560 C   0  0  0  0  0  0  0  0  0  0  0  0
   -4.3494   -3.2016   -0.9976 C   0  0  0  0  0  0  0  0  0  0  0  0
   -5.0925   -1.8896   -1.1492 C   0  0  0  0  0  0  0  0  0  0  0  0
   -4.7374    0.3689   -0.3484 C   0  0  0  0  0  0  0  0  0  0  0  0
   -2.1538   -1.1014    0.9007 C   0  0  0  0  0  0  0  0  0  0  0  0
   -3.7035    1.4593   -0.2538 C   0  0  0  0  0  0  0  0  0  0  0  0
   -2.8386    1.7158   -1.3176 C   0  0  0  0  0  0  0  0  0  0  0  0
   -3.6160    2.2166    0.9142 C   0  0  0  0  0  0  0  0  0  0  0  0
   -0.1457   -0.6070    0.9492 C   0  0  0  0  0  0  0  0  0  0  0  0
   -1.8862    2.7295   -1.2134 C   0  0  0  0  0  0  0  0  0  0  0  0
   -2.6636    3.2304    1.0186 C   0  0  0  0  0  0  0  0  0  0  0  0
    1.2188   -0.4672    0.5295 C   0  0  0  0  0  0  0  0  0  0  0  0
   -1.7986    3.4869   -0.0452 C   0  0  0  0  0  0  0  0  0  0  0  0
    1.6316   -0.9092   -0.7227 C   0  0  0  0  0  0  0  0  0  0  0  0
    2.1665    0.1130    1.3572 C   0  0  0  0  0  0  0  0  0  0  0  0
    2.9605   -0.7596   -1.1033 C   0  0  0  0  0  0  0  0  0  0  0  0
    3.8303   -0.1663   -0.2025 C   0  0  0  0  0  0  0  0  0  0  0  0
    5.9949    0.6073    0.4072 C   0  0  0  0  0  0  0  0  0  0  0  0
    7.4043    0.6737   -0.1486 C   0  0  0  0  0  0  0  0  0  0  0  0
    9.1778   -0.6451   -0.9475 C   0  0  0  0  0  0  0  0  0  0  0  0
   -4.1943   -1.3355    1.4914 H   0  0  0  0  0  0  0  0  0  0  0  0
   -2.6985   -3.5860    0.3545 H   0  0  0  0  0  0  0  0  0  0  0  0
   -4.2910   -3.5376    1.1275 H   0  0  0  0  0  0  0  0  0  0  0  0
   -5.0148   -4.0687   -1.0437 H   0  0  0  0  0  0  0  0  0  0  0  0
   -3.5953   -3.3076   -1.7873 H   0  0  0  0  0  0  0  0  0  0  0  0
   -6.0239   -1.9106   -0.5691 H   0  0  0  0  0  0  0  0  0  0  0  0
   -5.3294   -1.6804   -2.1969 H   0  0  0  0  0  0  0  0  0  0  0  0
   -5.3863    0.3491    0.5371 H   0  0  0  0  0  0  0  0  0  0  0  0
   -5.3955    0.6437   -1.1850 H   0  0  0  0  0  0  0  0  0  0  0  0
   -4.2810    2.0275    1.7527 H   0  0  0  0  0  0  0  0  0  0  0  0
   -1.2051    2.9394   -2.0338 H   0  0  0  0  0  0  0  0  0  0  0  0
   -2.5945    3.8191    1.9286 H   0  0  0  0  0  0  0  0  0  0  0  0
   -1.0563    4.2754    0.0366 H   0  0  0  0  0  0  0  0  0  0  0  0
   -2.2318    1.3028   -3.0864 H   0  0  0  0  0  0  0  0  0  0  0  0
    0.9402   -1.3727   -1.4217 H   0  0  0  0  0  0  0  0  0  0  0  0
    1.9260    0.4842    2.3490 H   0  0  0  0  0  0  0  0  0  0  0  0
    3.2987   -1.0989   -2.0763 H   0  0  0  0  0  0  0  0  0  0  0  0
    6.0014    0.0056    1.3247 H   0  0  0  0  0  0  0  0  0  0  0  0
    5.6454    1.6226    0.6286 H   0  0  0  0  0  0  0  0  0  0  0  0
    7.4049    1.2368   -1.0892 H   0  0  0  0  0  0  0  0  0  0  0  0
    8.0676    1.1669    0.5704 H   0  0  0  0  0  0  0  0  0  0  0  0
    9.1952   -0.1147   -1.9046 H   0  0  0  0  0  0  0  0  0  0  0  0
    9.8829   -0.1851   -0.2484 H   0  0  0  0  0  0  0  0  0  0  0  0
    9.4818   -1.6814   -1.1180 H   0  0  0  0  0  0  0  0  0  0  0  0
  1  7  1  0  0  0  0
  1 14  1  0  0  0  0
  2 16  1  0  0  0  0
  2 43  1  0  0  0  0
  3 26  1  0  0  0  0
  3 27  1  0  0  0  0
  4 28  1  0  0  0  0
  4 29  1  0  0  0  0
  5  9  1  0  0  0  0
  5 12  1  0  0  0  0
  5 13  1  0  0  0  0
  6 14  2  0  0  0  0
  6 18  1  0  0  0  0
  7 18  2  0  0  0  0
  8 24  1  0  0  0  0
  8 26  2  0  0  0  0
  9 10  1  0  0  0  0
  9 14  1  0  0  0  0
  9 30  1  0  0  0  0
 10 11  1  0  0  0  0
 10 31  1  0  0  0  0
 10 32  1  0  0  0  0
 11 12  1  0  0  0  0
 11 33  1  0  0  0  0
 11 34  1  0  0  0  0
 12 35  1  0  0  0  0
 12 36  1  0  0  0  0
 13 15  1  0  0  0  0
 13 37  1  0  0  0  0
 13 38  1  0  0  0  0
 15 16  1  0  0  0  0
 15 17  2  0  0  0  0
 16 19  2  0  0  0  0
 17 20  1  0  0  0  0
 17 39  1  0  0  0  0
 18 21  1  0  0  0  0
 19 22  1  0  0  0  0
 19 40  1  0  0  0  0
 20 22  2  0  0  0  0
 20 41  1  0  0  0  0
 21 23  1  0  0  0  0
 21 24  2  0  0  0  0
 22 42  1  0  0  0  0
 23 25  2  0  0  0  0
 23 44  1  0  0  0  0
 24 45  1  0  0  0  0
 25 26  1  0  0  0  0
 25 46  1  0  0  0  0
 27 28  1  0  0  0  0
 27 47  1  0  0  0  0
 27 48  1  0  0  0  0
 28 49  1  0  0  0  0
 28 50  1  0  0  0  0
 29 51  1  0  0  0  0
 29 52  1  0  0  0  0
 29 53  1  0  0  0  0
M  END
> <PUBCHEM_COMPOUND_CID>
45783562

> <PUBCHEM_CONFORMER_RMSD>
1

> <PUBCHEM_CONFORMER_DIVERSEORDER>
1
92
140
45
119
14
129
125
85
53
96
100
32
68
132
107
83
25
124
123
77
137
87
18
63
69
21
104
115
58
136
55
141
40
90
103
93
94
33
135
116
97
86
84
64
127
70
126
106
89
47
17
138
108
122
15
39
31
54
20
65
128
22
101
24
117
34
110
109
50
19
52
111
105
13
29
134
59
121
118
72
82
44
81
28
130
79
36
74
48
12
102
61
67
133
46
10
114
27
51
120
23
113
5
3
99
38
73
131
78
66
76
95
98
35
11
139
43
91
8
71
49
16
56
7
80
112
9
60
2
30
75
88
62
37
42
26
4
41
6
57

> <PUBCHEM_MMFF94_PARTIAL_CHARGES>
35
1 -0.02
12 0.27
13 0.41
14 0.3
15 -0.14
16 0.08
17 -0.15
18 0.46
19 -0.15
2 -0.53
20 -0.15
21 0.05
22 -0.15
23 -0.15
24 0.16
25 -0.15
26 0.39
27 0.28
28 0.28
29 0.28
3 -0.36
39 0.15
4 -0.56
40 0.15
41 0.15
42 0.15
43 0.45
44 0.15
45 0.15
46 0.15
5 -0.81
6 -0.57
7 -0.41
8 -0.62
9 0.45

> <PUBCHEM_EFFECTIVE_ROTOR_COUNT>
9

> <PUBCHEM_PHARMACOPHORE_FEATURES>
8
1 2 donor
1 4 acceptor
1 5 cation
3 6 7 18 cation
5 1 6 7 14 18 rings
5 5 9 10 11 12 rings
6 15 16 17 19 20 22 rings
6 8 21 23 24 25 26 rings

> <PUBCHEM_HEAVY_ATOM_COUNT>
29

> <PUBCHEM_ATOM_DEF_STEREO_COUNT>
1

> <PUBCHEM_ATOM_UDEF_STEREO_COUNT>
0

> <PUBCHEM_BOND_DEF_STEREO_COUNT>
0

> <PUBCHEM_BOND_UDEF_STEREO_COUNT>
0

> <PUBCHEM_ISOTOPIC_ATOM_COUNT>
0

> <PUBCHEM_COMPONENT_COUNT>
1

> <PUBCHEM_CACTVS_TAUTO_COUNT>
3

> <PUBCHEM_CONFORMER_ID>
02BA9A0A00000001

> <PUBCHEM_MMFF94_ENERGY>
64.7743

> <PUBCHEM_FEATURE_SELFOVERLAP>
40.597

> <PUBCHEM_SHAPE_FINGERPRINT>
10165383 225 18129668500616053977
10291535 26 18410580560873281153
10454371 7 18408044013861345332
10670039 82 18260545628305914218
11007060 377 13840845417204602456
11101153 10 18264495168657800348
11315181 36 17313109691698911446
11477941 20 18337944688281127572
12082328 90 18273215284103434236
12788726 201 18261380162085041747
13761468 95 17898003534319549132
13782708 43 18060422443630787530
13947920 75 18186516609460512946
14713325 29 18341614793838633459
14910302 57 18201153261379717559
15183329 4 18040151795847823146
15461852 350 18341620330784344334
15876981 60 18334581286569596477
15961568 22 18120080938904397032
17492 54 17896856826403556333
17686467 74 18190739941698733128
17980427 23 17749681752642649062
19489759 90 18187365445717774834
20771845 65 17771911808220944035
20775438 99 16825844874679975391
21236236 1 18334295357817294092
21927370 108 18041574632228520347
23557571 272 18413103983404130579
4098825 35 18342461383585191970
4169191 19 16515981349884944982
469060 322 17168726175699669545
4938544 92 7997969072430452360
531348 171 18340487764318800138
57527585 103 17097241456931097587
5969126 39 18341610455536334998
68570916 9 10735865181023596578

> <PUBCHEM_SHAPE_MULTIPOLES>
553.41
17.29
3.32
1.6
52.1
1.32
0.05
-4.36
-5.48
-7.19
-0.37
-1
0.16
0.16

> <PUBCHEM_SHAPE_SELFOVERLAP>
1189.069

> <PUBCHEM_SHAPE_VOLUME>
306.8

> <PUBCHEM_COORDINATE_TYPE>
2
5
10

$$$$
