11885192
  -OEChem-12032416233D

 35 38  0     1  0  0  0  0  0999 V2000
   -3.5955    0.0781    1.5573 S   0  0  0  0  0  0  0  0  0  0  0  0
   -0.9253   -1.9358   -0.1709 O   0  0  0  0  0  0  0  0  0  0  0  0
    0.8688   -0.4541   -0.3258 N   0  0  0  0  0  0  0  0  0  0  0  0
    3.2977    0.0579    1.6949 N   0  0  0  0  0  0  0  0  0  0  0  0
    3.3057   -1.2393   -0.4512 C   0  0  2  0  0  0  0  0  0  0  0  0
    2.7967    1.1561   -0.4935 C   0  0  2  0  0  0  0  0  0  0  0  0
    3.5216    0.0426   -1.2455 C   0  0  0  0  0  0  0  0  0  0  0  0
    1.8086   -1.5770   -0.4562 C   0  0  0  0  0  0  0  0  0  0  0  0
    3.8710   -1.0776    0.9735 C   0  0  0  0  0  0  0  0  0  0  0  0
    3.3979    1.2976    0.9211 C   0  0  0  0  0  0  0  0  0  0  0  0
    1.3089    0.8689   -0.4111 C   0  0  0  0  0  0  0  0  0  0  0  0
    0.4214    1.8761   -0.4027 C   0  0  0  0  0  0  0  0  0  0  0  0
   -0.4969   -0.7812   -0.2151 C   0  0  0  0  0  0  0  0  0  0  0  0
   -1.4656    0.3703   -0.1739 C   0  0  0  0  0  0  0  0  0  0  0  0
   -0.9851    1.6186   -0.2762 C   0  0  0  0  0  0  0  0  0  0  0  0
   -2.9131    0.1450   -0.0164 C   0  0  0  0  0  0  0  0  0  0  0  0
   -3.8745   -0.0333   -0.9942 C   0  0  0  0  0  0  0  0  0  0  0  0
   -5.1753   -0.2253   -0.4456 C   0  0  0  0  0  0  0  0  0  0  0  0
   -5.1669   -0.1877    0.9314 C   0  0  0  0  0  0  0  0  0  0  0  0
    3.8472   -2.0642   -0.9308 H   0  0  0  0  0  0  0  0  0  0  0  0
    2.9618    2.0970   -1.0346 H   0  0  0  0  0  0  0  0  0  0  0  0
    3.1343   -0.0605   -2.2668 H   0  0  0  0  0  0  0  0  0  0  0  0
    4.5918    0.2680   -1.3277 H   0  0  0  0  0  0  0  0  0  0  0  0
    1.5628   -2.0575   -1.4132 H   0  0  0  0  0  0  0  0  0  0  0  0
    1.5776   -2.3174    0.3201 H   0  0  0  0  0  0  0  0  0  0  0  0
    3.6814   -1.9907    1.5491 H   0  0  0  0  0  0  0  0  0  0  0  0
    4.9609   -0.9603    0.9211 H   0  0  0  0  0  0  0  0  0  0  0  0
    4.4508    1.5978    0.8458 H   0  0  0  0  0  0  0  0  0  0  0  0
    2.8831    2.0949    1.4700 H   0  0  0  0  0  0  0  0  0  0  0  0
    3.7730    0.1723    2.5893 H   0  0  0  0  0  0  0  0  0  0  0  0
    0.7370    2.9124   -0.4619 H   0  0  0  0  0  0  0  0  0  0  0  0
   -1.6406    2.4842   -0.2515 H   0  0  0  0  0  0  0  0  0  0  0  0
   -3.6565   -0.0272   -2.0550 H   0  0  0  0  0  0  0  0  0  0  0  0
   -6.0716   -0.3830   -1.0311 H   0  0  0  0  0  0  0  0  0  0  0  0
   -6.0084   -0.3037    1.5997 H   0  0  0  0  0  0  0  0  0  0  0  0
  1 16  1  0  0  0  0
  1 19  1  0  0  0  0
  2 13  2  0  0  0  0
  3  8  1  0  0  0  0
  3 11  1  0  0  0  0
  3 13  1  0  0  0  0
  4  9  1  0  0  0  0
  4 10  1  0  0  0  0
  4 30  1  0  0  0  0
  5  7  1  0  0  0  0
  5  8  1  0  0  0  0
  5  9  1  0  0  0  0
  5 20  1  0  0  0  0
  6  7  1  0  0  0  0
  6 10  1  0  0  0  0
  6 11  1  0  0  0  0
  6 21  1  0  0  0  0
  7 22  1  0  0  0  0
  7 23  1  0  0  0  0
  8 24  1  0  0  0  0
  8 25  1  0  0  0  0
  9 26  1  0  0  0  0
  9 27  1  0  0  0  0
 10 28  1  0  0  0  0
 10 29  1  0  0  0  0
 11 12  2  0  0  0  0
 12 15  1  0  0  0  0
 12 31  1  0  0  0  0
 13 14  1  0  0  0  0
 14 15  2  0  0  0  0
 14 16  1  0  0  0  0
 15 32  1  0  0  0  0
 16 17  2  0  0  0  0
 17 18  1  0  0  0  0
 17 33  1  0  0  0  0
 18 19  2  0  0  0  0
 18 34  1  0  0  0  0
 19 35  1  0  0  0  0
M  END
> <PUBCHEM_COMPOUND_CID>
11885192

> <PUBCHEM_CONFORMER_RMSD>
0.6

> <PUBCHEM_CONFORMER_DIVERSEORDER>
1
4
3
2

> <PUBCHEM_MMFF94_PARTIAL_CHARGES>
23
1 -0.08
10 0.27
11 -0.03
12 -0.15
13 0.62
14 0.06
15 -0.15
16 -0.01
17 -0.15
18 -0.15
19 -0.11
2 -0.57
3 -0.47
30 0.36
31 0.15
32 0.15
33 0.15
34 0.15
35 0.15
4 -0.9
6 0.14
8 0.3
9 0.27

> <PUBCHEM_EFFECTIVE_ROTOR_COUNT>
2

> <PUBCHEM_PHARMACOPHORE_FEATURES>
7
1 2 acceptor
1 4 cation
1 4 donor
5 1 16 17 18 19 rings
6 3 11 12 13 14 15 rings
6 3 5 6 7 8 11 rings
6 4 5 6 7 9 10 rings

> <PUBCHEM_HEAVY_ATOM_COUNT>
19

> <PUBCHEM_ATOM_DEF_STEREO_COUNT>
2

> <PUBCHEM_ATOM_UDEF_STEREO_COUNT>
0

> <PUBCHEM_BOND_DEF_STEREO_COUNT>
0

> <PUBCHEM_BOND_UDEF_STEREO_COUNT>
0

> <PUBCHEM_ISOTOPIC_ATOM_COUNT>
0

> <PUBCHEM_COMPONENT_COUNT>
1

> <PUBCHEM_CACTVS_TAUTO_COUNT>
1

> <PUBCHEM_CONFORMER_ID>
00B55A8800000001

> <PUBCHEM_MMFF94_ENERGY>
41.8191

> <PUBCHEM_FEATURE_SELFOVERLAP>
37.067

> <PUBCHEM_SHAPE_FINGERPRINT>
11132069 177 18342170081443590495
11471102 20 18409733971168660685
11796584 16 16443063881170428603
12236239 1 17775569745824545885
12553582 1 18411141346094606901
12633257 1 18057578011069950954
12644460 14 18187657945765063184
12670546 56 17060338500886331841
13140716 1 18266738180492975208
13224815 77 18342739598370391145
13533116 47 17489594428844893095
13583140 156 16950833808364365365
13675066 3 18186795902884039477
13760787 19 16443070525152434619
13760787 5 18335143098351318197
13862211 1 18409444774131239815
14252887 29 18409167701479819544
14289901 80 15698280018909699111
15239154 128 16415482640609107497
15536298 74 18131353007383237693
15788980 27 17676483947924960647
15848700 24 18411418405860703052
15848702 151 17631461081049931375
16752209 62 18261389992642501300
16945 1 18411418414693230652
17349148 13 18411982472911653463
18186145 218 17703793595770285597
18222031 100 18411983563675130357
19784866 240 15936959727061746264
19862831 5 11169914974465804543
200 152 18343863321367053381
20028762 73 18199753703812130999
20261772 1 18412546535108825135
20645477 70 18186803586279708879
21267235 1 18337401460722304134
21501925 9 18335416846397104348
21503847 285 16559038190135749920
22854114 59 18202845452587010945
23184049 59 18412265042867550383
23402539 116 18343013372539162831
23557571 272 14620531025146403041
23559900 14 16877949321268340666
26918003 58 17676485042756486489
2748010 2 18193837033450918388
29717793 49 13479128026032708499
3286 77 17632013053145844130
34797466 226 15430333446400209183
34934 24 18264208178826556460
4072396 5 18261098643999979939
465052 167 18040726878440400907
474 4 17559382755031110784
4990 188 11891333136377975873
5104073 3 18336829701965182009
5281201 14 12751252388573866537
5374978 207 18408038507079950712
537710 114 18409453595745938165
633830 44 14476963359227218701
69090 78 18201996646795719863

> <PUBCHEM_SHAPE_MULTIPOLES>
379.03
9.72
1.63
1.24
8.08
0.08
-0.4
-1.28
-1.64
-1.13
0.14
-0.14
0
0.06

> <PUBCHEM_SHAPE_SELFOVERLAP>
820.866

> <PUBCHEM_SHAPE_VOLUME>
207.2

> <PUBCHEM_COORDINATE_TYPE>
2
5
10

$$$$
