51137411
  -OEChem-12032416243D

 49 52  0     1  0  0  0  0  0999 V2000
   -8.6553    0.1982    1.0435 F   0  0  0  0  0  0  0  0  0  0  0  0
   -6.5899    0.1227    1.7539 F   0  0  0  0  0  0  0  0  0  0  0  0
   -7.5101    2.0532    1.1962 F   0  0  0  0  0  0  0  0  0  0  0  0
    3.1439   -0.7483    0.2024 O   0  0  0  0  0  0  0  0  0  0  0  0
   -7.0040    0.5525   -0.4540 O   0  0  0  0  0  0  0  0  0  0  0  0
   -0.8450   -0.9654   -0.5035 N   0  0  1  0  0  0  0  0  0  0  0  0
    3.4604   -2.9556    0.3806 N   0  0  0  0  0  0  0  0  0  0  0  0
    4.7015   -2.3485    0.3339 N   0  0  0  0  0  0  0  0  0  0  0  0
    1.0718   -2.0490    0.3034 C   0  0  1  0  0  0  0  0  0  0  0  0
    0.3934   -1.2807    1.4509 C   0  0  0  0  0  0  0  0  0  0  0  0
    0.4460   -1.4723   -0.9736 C   0  0  0  0  0  0  0  0  0  0  0  0
   -0.5495   -0.3002    0.7654 C   0  0  0  0  0  0  0  0  0  0  0  0
   -1.4738   -0.0714   -1.4646 C   0  0  0  0  0  0  0  0  0  0  0  0
    2.5816   -1.9839    0.3010 C   0  0  0  0  0  0  0  0  0  0  0  0
   -2.9460    0.0944   -1.1962 C   0  0  0  0  0  0  0  0  0  0  0  0
   -3.8381   -0.9187   -1.5477 C   0  0  0  0  0  0  0  0  0  0  0  0
   -3.4178    1.2616   -0.5954 C   0  0  0  0  0  0  0  0  0  0  0  0
    4.4682   -1.0611    0.2297 C   0  0  0  0  0  0  0  0  0  0  0  0
    5.3762    0.0456    0.1424 C   0  0  0  0  0  0  0  0  0  0  0  0
   -5.2017   -0.7647   -1.2986 C   0  0  0  0  0  0  0  0  0  0  0  0
   -4.7814    1.4157   -0.3462 C   0  0  0  0  0  0  0  0  0  0  0  0
   -5.6735    0.4026   -0.6979 C   0  0  0  0  0  0  0  0  0  0  0  0
    6.7529   -0.1788    0.1634 C   0  0  0  0  0  0  0  0  0  0  0  0
    4.8830    1.3460    0.0360 C   0  0  0  0  0  0  0  0  0  0  0  0
    7.6361    0.8973    0.0782 C   0  0  0  0  0  0  0  0  0  0  0  0
    5.7663    2.4221   -0.0490 C   0  0  0  0  0  0  0  0  0  0  0  0
    7.1429    2.1977   -0.0280 C   0  0  0  0  0  0  0  0  0  0  0  0
    8.0876    3.3483   -0.1186 C   0  0  0  0  0  0  0  0  0  0  0  0
   -7.4256    0.7407    0.8923 C   0  0  0  0  0  0  0  0  0  0  0  0
    0.7886   -3.1071    0.3922 H   0  0  0  0  0  0  0  0  0  0  0  0
    1.1001   -0.7624    2.1076 H   0  0  0  0  0  0  0  0  0  0  0  0
   -0.1799   -1.9834    2.0685 H   0  0  0  0  0  0  0  0  0  0  0  0
    1.0608   -0.6675   -1.3979 H   0  0  0  0  0  0  0  0  0  0  0  0
    0.3223   -2.2468   -1.7385 H   0  0  0  0  0  0  0  0  0  0  0  0
   -1.4451   -0.1291    1.3708 H   0  0  0  0  0  0  0  0  0  0  0  0
   -0.0372    0.6591    0.6163 H   0  0  0  0  0  0  0  0  0  0  0  0
   -0.9707    0.9039   -1.5131 H   0  0  0  0  0  0  0  0  0  0  0  0
   -1.3830   -0.4904   -2.4769 H   0  0  0  0  0  0  0  0  0  0  0  0
   -3.4828   -1.8329   -2.0160 H   0  0  0  0  0  0  0  0  0  0  0  0
   -2.7334    2.0583   -0.3164 H   0  0  0  0  0  0  0  0  0  0  0  0
   -5.8919   -1.5575   -1.5741 H   0  0  0  0  0  0  0  0  0  0  0  0
   -5.1360    2.3325    0.1165 H   0  0  0  0  0  0  0  0  0  0  0  0
    7.1596   -1.1839    0.2451 H   0  0  0  0  0  0  0  0  0  0  0  0
    3.8175    1.5605    0.0159 H   0  0  0  0  0  0  0  0  0  0  0  0
    8.7065    0.7098    0.0938 H   0  0  0  0  0  0  0  0  0  0  0  0
    5.3703    3.4307   -0.1333 H   0  0  0  0  0  0  0  0  0  0  0  0
    9.0172    3.1399    0.4219 H   0  0  0  0  0  0  0  0  0  0  0  0
    7.6547    4.2511    0.3256 H   0  0  0  0  0  0  0  0  0  0  0  0
    8.3294    3.5541   -1.1661 H   0  0  0  0  0  0  0  0  0  0  0  0
  1 29  1  0  0  0  0
  2 29  1  0  0  0  0
  3 29  1  0  0  0  0
  4 14  1  0  0  0  0
  4 18  1  0  0  0  0
  5 22  1  0  0  0  0
  5 29  1  0  0  0  0
  6 11  1  0  0  0  0
  6 12  1  0  0  0  0
  6 13  1  0  0  0  0
  7  8  1  0  0  0  0
  7 14  2  0  0  0  0
  8 18  2  0  0  0  0
  9 10  1  0  0  0  0
  9 11  1  0  0  0  0
  9 14  1  0  0  0  0
  9 30  1  0  0  0  0
 10 12  1  0  0  0  0
 10 31  1  0  0  0  0
 10 32  1  0  0  0  0
 11 33  1  0  0  0  0
 11 34  1  0  0  0  0
 12 35  1  0  0  0  0
 12 36  1  0  0  0  0
 13 15  1  0  0  0  0
 13 37  1  0  0  0  0
 13 38  1  0  0  0  0
 15 16  2  0  0  0  0
 15 17  1  0  0  0  0
 16 20  1  0  0  0  0
 16 39  1  0  0  0  0
 17 21  2  0  0  0  0
 17 40  1  0  0  0  0
 18 19  1  0  0  0  0
 19 23  2  0  0  0  0
 19 24  1  0  0  0  0
 20 22  2  0  0  0  0
 20 41  1  0  0  0  0
 21 22  1  0  0  0  0
 21 42  1  0  0  0  0
 23 25  1  0  0  0  0
 23 43  1  0  0  0  0
 24 26  2  0  0  0  0
 24 44  1  0  0  0  0
 25 27  2  0  0  0  0
 25 45  1  0  0  0  0
 26 27  1  0  0  0  0
 26 46  1  0  0  0  0
 27 28  1  0  0  0  0
 28 47  1  0  0  0  0
 28 48  1  0  0  0  0
 28 49  1  0  0  0  0
M  END
> <PUBCHEM_COMPOUND_CID>
51137411

> <PUBCHEM_CONFORMER_RMSD>
0.8

> <PUBCHEM_CONFORMER_DIVERSEORDER>
1
156
131
108
180
85
150
188
46
13
115
89
192
112
193
4
66
164
12
81
189
34
133
175
72
19
71
178
183
155
173
161
123
41
170
74
73
147
203
163
169
113
130
136
194
80
21
117
2
7
202
171
31
118
61
96
84
165
67
27
177
100
122
39
140
198
179
10
135
187
184
49
8
148
143
45
186
76
168
92
167
157
200
90
65
54
50
195
93
158
20
103
154
104
42
44
141
3
32
176
172
68
18
116
174
191
101
128
63
87
59
166
24
127
137
152
64
145
124
17
37
197
52
48
102
201
111
55
153
33
88
25
199
196
23
62
146
97
6
144
15
110
5
125
129
159
105
190
109
132
185
51
121
30
107
151
26
95
142
160
114
78
28
77
43
181
94
9
58
98
38
70
162
138
40
134
86
82
35
22
11
120
149
91
182
36
16
47
14
106
139
79
99
75
83
69
119
56
57
29
126
60
53

> <PUBCHEM_MMFF94_PARTIAL_CHARGES>
36
1 -0.34
11 0.27
12 0.27
13 0.41
14 0.3
15 -0.14
16 -0.15
17 -0.15
18 0.43
19 0.05
2 -0.34
20 -0.15
21 -0.15
22 0.08
23 -0.15
24 -0.15
25 -0.15
26 -0.15
27 -0.14
28 0.14
29 1.3
3 -0.34
39 0.15
4 -0.28
40 0.15
41 0.15
42 0.15
43 0.15
44 0.15
45 0.15
46 0.15
5 -0.36
6 -0.81
7 -0.34
8 -0.34
9 0.18

> <PUBCHEM_EFFECTIVE_ROTOR_COUNT>
7

> <PUBCHEM_PHARMACOPHORE_FEATURES>
6
1 5 acceptor
1 6 cation
5 4 7 8 14 18 rings
5 6 9 10 11 12 rings
6 15 16 17 20 21 22 rings
6 19 23 24 25 26 27 rings

> <PUBCHEM_HEAVY_ATOM_COUNT>
29

> <PUBCHEM_ATOM_DEF_STEREO_COUNT>
1

> <PUBCHEM_ATOM_UDEF_STEREO_COUNT>
0

> <PUBCHEM_BOND_DEF_STEREO_COUNT>
0

> <PUBCHEM_BOND_UDEF_STEREO_COUNT>
0

> <PUBCHEM_ISOTOPIC_ATOM_COUNT>
0

> <PUBCHEM_COMPONENT_COUNT>
1

> <PUBCHEM_CACTVS_TAUTO_COUNT>
1

> <PUBCHEM_CONFORMER_ID>
030C4B8300000001

> <PUBCHEM_MMFF94_ENERGY>
69.5488

> <PUBCHEM_FEATURE_SELFOVERLAP>
30.448

> <PUBCHEM_SHAPE_FINGERPRINT>
10 15 17821728338194151979
10319688 67 16153708751657236688
10391435 84 17385729115120755891
10595046 47 18412252935149456718
10906281 52 17846503612819362175
10917259 69 10663009311052507587
11273773 42 18271809055359431348
11374522 155 17968382367750503236
11456790 92 18113887231644823408
11646440 116 17603866702358056892
1200032 147 18260264188327349760
12035758 1 16805322210287742558
12539765 74 18130793360808813678
12730499 353 18113616738588635066
12760667 363 10447656820140845878
13914758 101 9511465524653212119
14216079 64 10231761089340431876
14394314 77 18412827988769799309
14461889 52 16950288394461980667
14849402 71 18411699928304158345
14856354 85 17489582381909644199
14918687 75 11963387467301497304
15064981 194 18124326153794261356
15183329 4 17132116857230021016
15188451 53 11963386341212483038
15276724 80 18340764841180285205
15475509 8 14764348232274812075
15519825 34 15213586766039425920
15685185 35 18266462195171030952
1577012 14 18201712959694379215
15840311 113 18410014299547255319
16126227 98 18410572933111498934
16992752 21 17915168238892146127
16994733 274 18272366477373211280
1768 4 18261392290713995644
18393751 57 17603581959048279422
18608769 82 18261673774216934747
19302320 297 18041275574220975228
20157964 124 18409728440068688034
2026 5 9511472116790325125
21033648 29 18190451857247414896
21095123 293 17988932137336929521
21298829 104 18339358669378328036
21304303 64 18335134323606947684
21307412 95 13110964274958667956
21344244 78 13623524654931642406
21521721 280 18335702723905516179
21585481 104 17346612863417649860
21781055 127 16988284171277542514
22224240 67 17821446859355328619
23081809 10 17846201238405130375
23522609 53 17917436397839888081
23576562 1 15983954091105240641
23729398 52 18191025596222941930
24771293 8 18187643652282422212
2747138 104 17385731261702154629
2838139 119 18261660524939087510
3004659 81 11600003267587451750
3092352 35 17988922271380306031
34797466 226 18272934886367410726
3711267 37 17847065475602843265
397830 11 18041003959665749667
4073 2 18260546757592903474
4093350 32 18131637759810593662
4112364 45 16805894008754717068
437795 51 18334577953506156505
437815 12 11815897872626717202
445580 126 18410844474556653096
474113 269 7853583395703957585
48014 12 17059506132283283569
5085150 59 13551196589153782665
5104073 3 17532363163211228185
54076057 127 18411704249141582434
54076057 255 17775562039835605018
5718773 13 9439413436626038780
5758199 1 18408321098742877030
58083652 198 18189319204881550749
5911458 16 18059862757114182769
59682541 35 17821733853517657721
59682541 52 17489318473686784678
6328613 192 18202562869951758617
9689198 14 18343869917603305333
9953998 17 17603588539307137041

> <PUBCHEM_SHAPE_MULTIPOLES>
548.3
26.45
2.77
1.24
10.11
0.29
-0.04
20.2
-4.95
-5.84
-0.27
2.51
-0.1
-1.51

> <PUBCHEM_SHAPE_SELFOVERLAP>
1192.544

> <PUBCHEM_SHAPE_VOLUME>
303.1

> <PUBCHEM_COORDINATE_TYPE>
2
5
10

$$$$
