75367089
  -OEChem-12032416393D

 48 50  0     1  0  0  0  0  0999 V2000
    7.7085    2.0141    0.0374 F   0  0  0  0  0  0  0  0  0  0  0  0
   -0.4083    0.4385   -0.9105 O   0  0  0  0  0  0  0  0  0  0  0  0
   -1.7487   -2.4383    0.7726 O   0  0  0  0  0  0  0  0  0  0  0  0
    2.8268   -1.7989    1.2190 O   0  0  0  0  0  0  0  0  0  0  0  0
   -3.8788   -0.6201   -0.6534 N   0  0  0  0  0  0  0  0  0  0  0  0
   -7.4515    1.1633    0.8152 N   0  0  0  0  0  0  0  0  0  0  0  0
    2.1308   -0.9085   -0.8072 N   0  0  0  0  0  0  0  0  0  0  0  0
   -2.5335   -0.3331   -0.1827 C   0  0  1  0  0  0  0  0  0  0  0  0
   -1.5870   -1.5147   -0.2863 C   0  0  1  0  0  0  0  0  0  0  0  0
   -4.8126    0.4153   -0.2171 C   0  0  0  0  0  0  0  0  0  0  0  0
   -0.2362   -0.8144   -0.2274 C   0  0  1  0  0  0  0  0  0  0  0  0
   -1.8169    0.7019   -1.0345 C   0  0  0  0  0  0  0  0  0  0  0  0
   -5.1988    0.2223    1.2538 C   0  0  0  0  0  0  0  0  0  0  0  0
   -6.0667    0.4038   -1.0975 C   0  0  0  0  0  0  0  0  0  0  0  0
   -6.2663    1.2338    1.6735 C   0  0  0  0  0  0  0  0  0  0  0  0
   -7.1004    1.4082   -0.5860 C   0  0  0  0  0  0  0  0  0  0  0  0
    0.8803   -1.6074   -0.8831 C   0  0  0  0  0  0  0  0  0  0  0  0
    3.0172   -1.0631    0.2543 C   0  0  0  0  0  0  0  0  0  0  0  0
    4.2582   -0.2483    0.1969 C   0  0  0  0  0  0  0  0  0  0  0  0
    4.9095    0.1142    1.3760 C   0  0  0  0  0  0  0  0  0  0  0  0
    4.7726    0.1536   -1.0358 C   0  0  0  0  0  0  0  0  0  0  0  0
    6.0747    0.8788    1.3224 C   0  0  0  0  0  0  0  0  0  0  0  0
    5.9379    0.9181   -1.0894 C   0  0  0  0  0  0  0  0  0  0  0  0
    6.5890    1.2808    0.0896 C   0  0  0  0  0  0  0  0  0  0  0  0
   -2.5346   -0.0108    0.8656 H   0  0  0  0  0  0  0  0  0  0  0  0
   -1.7175   -2.0426   -1.2392 H   0  0  0  0  0  0  0  0  0  0  0  0
   -4.3590    1.4087   -0.3342 H   0  0  0  0  0  0  0  0  0  0  0  0
    0.0375   -0.5852    0.8110 H   0  0  0  0  0  0  0  0  0  0  0  0
   -4.1850   -1.5287   -0.3067 H   0  0  0  0  0  0  0  0  0  0  0  0
   -2.0691    0.6134   -2.0975 H   0  0  0  0  0  0  0  0  0  0  0  0
   -2.0201    1.7288   -0.7163 H   0  0  0  0  0  0  0  0  0  0  0  0
   -4.3364    0.3402    1.9182 H   0  0  0  0  0  0  0  0  0  0  0  0
   -5.5859   -0.7932    1.4143 H   0  0  0  0  0  0  0  0  0  0  0  0
   -6.5133   -0.5998   -1.1082 H   0  0  0  0  0  0  0  0  0  0  0  0
   -5.8040    0.6466   -2.1345 H   0  0  0  0  0  0  0  0  0  0  0  0
   -6.5685    1.0264    2.7059 H   0  0  0  0  0  0  0  0  0  0  0  0
   -5.8520    2.2495    1.6601 H   0  0  0  0  0  0  0  0  0  0  0  0
   -8.0077    1.3276   -1.1946 H   0  0  0  0  0  0  0  0  0  0  0  0
   -6.7255    2.4321   -0.7061 H   0  0  0  0  0  0  0  0  0  0  0  0
    0.6745   -1.7526   -1.9493 H   0  0  0  0  0  0  0  0  0  0  0  0
    0.9840   -2.5907   -0.4121 H   0  0  0  0  0  0  0  0  0  0  0  0
   -8.1288    1.8623    1.1191 H   0  0  0  0  0  0  0  0  0  0  0  0
   -1.6341   -1.9633    1.6131 H   0  0  0  0  0  0  0  0  0  0  0  0
    2.3174   -0.2305   -1.5382 H   0  0  0  0  0  0  0  0  0  0  0  0
    4.5223   -0.1854    2.3463 H   0  0  0  0  0  0  0  0  0  0  0  0
    4.3145   -0.1328   -1.9777 H   0  0  0  0  0  0  0  0  0  0  0  0
    6.5817    1.1621    2.2401 H   0  0  0  0  0  0  0  0  0  0  0  0
    6.3429    1.2257   -2.0490 H   0  0  0  0  0  0  0  0  0  0  0  0
  1 24  1  0  0  0  0
  2 11  1  0  0  0  0
  2 12  1  0  0  0  0
  3  9  1  0  0  0  0
  3 43  1  0  0  0  0
  4 18  2  0  0  0  0
  5  8  1  0  0  0  0
  5 10  1  0  0  0  0
  5 29  1  0  0  0  0
  6 15  1  0  0  0  0
  6 16  1  0  0  0  0
  6 42  1  0  0  0  0
  7 17  1  0  0  0  0
  7 18  1  0  0  0  0
  7 44  1  0  0  0  0
  8  9  1  0  0  0  0
  8 12  1  0  0  0  0
  8 25  1  0  0  0  0
  9 11  1  0  0  0  0
  9 26  1  0  0  0  0
 10 13  1  0  0  0  0
 10 14  1  0  0  0  0
 10 27  1  0  0  0  0
 11 17  1  0  0  0  0
 11 28  1  0  0  0  0
 12 30  1  0  0  0  0
 12 31  1  0  0  0  0
 13 15  1  0  0  0  0
 13 32  1  0  0  0  0
 13 33  1  0  0  0  0
 14 16  1  0  0  0  0
 14 34  1  0  0  0  0
 14 35  1  0  0  0  0
 15 36  1  0  0  0  0
 15 37  1  0  0  0  0
 16 38  1  0  0  0  0
 16 39  1  0  0  0  0
 17 40  1  0  0  0  0
 17 41  1  0  0  0  0
 18 19  1  0  0  0  0
 19 20  2  0  0  0  0
 19 21  1  0  0  0  0
 20 22  1  0  0  0  0
 20 45  1  0  0  0  0
 21 23  2  0  0  0  0
 21 46  1  0  0  0  0
 22 24  2  0  0  0  0
 22 47  1  0  0  0  0
 23 24  1  0  0  0  0
 23 48  1  0  0  0  0
M  END
> <PUBCHEM_COMPOUND_CID>
75367089

> <PUBCHEM_CONFORMER_RMSD>
0.8

> <PUBCHEM_CONFORMER_DIVERSEORDER>
1
117
92
6
14
101
142
106
98
123
85
36
31
34
89
140
77
119
83
110
7
127
132
118
44
130
39
126
74
93
102
37
116
120
62
109
42
55
41
13
30
108
139
66
138
47
121
45
87
96
5
23
54
67
70
103
12
111
50
90
124
48
60
97
82
128
61
63
113
51
129
53
144
105
133
131
79
58
137
69
112
26
32
64
125
81
122
86
76
57
33
135
94
143
88
20
52
100
38
8
107
84
72
73
99
56
115
17
134
65
4
68
59
46
71
16
2
29
27
35
43
28
10
114
21
24
18
141
11
91
22
3
95
40
136
75
19
78
15
9
80
104
25
49

> <PUBCHEM_MMFF94_PARTIAL_CHARGES>
30
1 -0.19
10 0.27
11 0.28
12 0.28
15 0.27
16 0.27
17 0.3
18 0.54
19 0.09
2 -0.56
20 -0.15
21 -0.15
22 -0.15
23 -0.15
24 0.19
29 0.36
3 -0.68
4 -0.57
42 0.36
43 0.4
44 0.37
45 0.15
46 0.15
47 0.15
48 0.15
5 -0.9
6 -0.9
7 -0.73
8 0.27
9 0.28

> <PUBCHEM_EFFECTIVE_ROTOR_COUNT>
8.2

> <PUBCHEM_PHARMACOPHORE_FEATURES>
12
1 2 acceptor
1 3 acceptor
1 3 donor
1 4 acceptor
1 5 cation
1 5 donor
1 6 cation
1 6 donor
1 7 donor
5 2 8 9 11 12 rings
6 19 20 21 22 23 24 rings
6 6 10 13 14 15 16 rings

> <PUBCHEM_HEAVY_ATOM_COUNT>
24

> <PUBCHEM_ATOM_DEF_STEREO_COUNT>
3

> <PUBCHEM_ATOM_UDEF_STEREO_COUNT>
0

> <PUBCHEM_BOND_DEF_STEREO_COUNT>
0

> <PUBCHEM_BOND_UDEF_STEREO_COUNT>
0

> <PUBCHEM_ISOTOPIC_ATOM_COUNT>
0

> <PUBCHEM_COMPONENT_COUNT>
1

> <PUBCHEM_CACTVS_TAUTO_COUNT>
2

> <PUBCHEM_CONFORMER_ID>
047E02B100000001

> <PUBCHEM_MMFF94_ENERGY>
37.4562

> <PUBCHEM_FEATURE_SELFOVERLAP>
60.897

> <PUBCHEM_SHAPE_FINGERPRINT>
10 15 17603587430293042325
10554248 39 17844797088936235919
106641 1 18260554442127425611
10670039 82 14189584009417904731
10753850 27 10737285744669988838
10906281 52 18340497715588778407
11315181 36 18272650152686382493
11991303 11 13614226101764181189
12166972 35 13182732671747788731
125118 31 18262797363632358325
12596602 18 15936410030808070933
12616971 3 16588023563112502062
12670543 26 13039188083099043323
12760667 363 8646772200984245383
12954195 1 11095899146109158371
13533116 47 18268991994868563294
13668630 136 10375869671392700053
13685833 64 11674878892304154662
13782708 43 7925910374570248151
13862211 1 8358257042641210623
14251752 14 13758355548840496669
14251764 18 18260830419255924679
14341114 176 17676481744944412874
14347332 77 10159711178492782586
15048467 5 18272651242553112019
15183329 4 13901914396695930178
15188451 53 11602816913262827444
15348495 7 16298396794044666957
15510800 12 8285924635459309472
15706992 2 18060153045964781825
16994733 274 18272368629827137937
1768 124 13045936902724503648
17980427 23 18188208813722319807
190975 80 16660652885800265129
2026 5 10953458544618744665
20281389 69 18341330007331172945
20526848 3 18343866627890633888
21033648 29 17988350581631939770
21150785 3 15626220225991050789
21267235 1 10807932687281294647
21424621 283 18200320922861635387
21637258 2 11602823510164107351
221357 26 14979958069109859162
2215653 11 12391511992581419108
22224240 67 18260268534612882307
23081809 10 17846207822663731119
3004659 81 12175620685792648534
3383291 50 8070024467425032845
4058900 60 16056613014750131591
4073 2 18272373079313568631
4340502 62 16588023498418700914
445580 37 16559034874700442249
465052 167 8214133088400051043
5104073 3 17677332869638366088
5718773 13 8069758381806208432
5758199 1 18342460322954973771
59682541 35 17822016436575072257
59682541 52 14333131862668646100
59755656 215 11384119630523789716
6438161 24 11600006523130425300

> <PUBCHEM_SHAPE_MULTIPOLES>
454.08
22.47
1.76
1.37
2.62
0.4
0.27
-16.03
2.49
-0.53
0.27
0.21
-0.17
-0.51

> <PUBCHEM_SHAPE_SELFOVERLAP>
948.947

> <PUBCHEM_SHAPE_VOLUME>
257.7

> <PUBCHEM_COORDINATE_TYPE>
2
5
10

$$$$
