75536509
  -OEChem-12032416393D

 36 37  0     1  0  0  0  0  0999 V2000
    1.6619    1.3253   -0.0096 O   0  0  0  0  0  0  0  0  0  0  0  0
    0.8333   -2.1656    0.1719 O   0  0  0  0  0  0  0  0  0  0  0  0
    5.3793   -1.1190    0.6369 O   0  0  0  0  0  0  0  0  0  0  0  0
   -1.6259   -0.2282   -0.1022 N   0  0  0  0  0  0  0  0  0  0  0  0
    4.3221    0.4734   -0.6947 N   0  0  0  0  0  0  0  0  0  0  0  0
   -4.8802    1.1564    0.0812 N   0  0  0  0  0  0  0  0  0  0  0  0
   -6.0044   -0.7004   -0.3881 N   0  0  0  0  0  0  0  0  0  0  0  0
   -0.2722    0.0015    0.3759 C   0  0  1  0  0  0  0  0  0  0  0  0
    0.7737   -0.8436   -0.3274 C   0  0  1  0  0  0  0  0  0  0  0  0
    2.0419   -0.0609   -0.0147 C   0  0  1  0  0  0  0  0  0  0  0  0
    0.2287    1.4061    0.0819 C   0  0  0  0  0  0  0  0  0  0  0  0
    3.1510   -0.2855   -1.0270 C   0  0  0  0  0  0  0  0  0  0  0  0
   -2.6093    0.3390    0.8127 C   0  0  0  0  0  0  0  0  0  0  0  0
   -4.0175    0.1250    0.3250 C   0  0  0  0  0  0  0  0  0  0  0  0
    5.3453   -0.0081    0.1140 C   0  0  0  0  0  0  0  0  0  0  0  0
   -4.7339   -1.0105    0.0283 C   0  0  0  0  0  0  0  0  0  0  0  0
    6.4661    0.9828    0.2806 C   0  0  0  0  0  0  0  0  0  0  0  0
   -6.0598    0.6122   -0.3446 C   0  0  0  0  0  0  0  0  0  0  0  0
   -0.2101   -0.2077    1.4533 H   0  0  0  0  0  0  0  0  0  0  0  0
    0.5888   -0.8818   -1.4082 H   0  0  0  0  0  0  0  0  0  0  0  0
    2.4092   -0.3025    0.9915 H   0  0  0  0  0  0  0  0  0  0  0  0
   -0.1350    1.7856   -0.8800 H   0  0  0  0  0  0  0  0  0  0  0  0
   -0.0441    2.1241    0.8613 H   0  0  0  0  0  0  0  0  0  0  0  0
    2.8389    0.0502   -2.0220 H   0  0  0  0  0  0  0  0  0  0  0  0
    3.4129   -1.3474   -1.0833 H   0  0  0  0  0  0  0  0  0  0  0  0
   -1.7847   -1.2332   -0.1786 H   0  0  0  0  0  0  0  0  0  0  0  0
   -2.4384    1.4151    0.9375 H   0  0  0  0  0  0  0  0  0  0  0  0
   -2.5231   -0.1245    1.8037 H   0  0  0  0  0  0  0  0  0  0  0  0
    0.9958   -2.1238    1.1294 H   0  0  0  0  0  0  0  0  0  0  0  0
    4.3978    1.4132   -1.0733 H   0  0  0  0  0  0  0  0  0  0  0  0
   -4.6854    2.1425    0.1939 H   0  0  0  0  0  0  0  0  0  0  0  0
   -4.4019   -2.0367    0.0930 H   0  0  0  0  0  0  0  0  0  0  0  0
    7.1171    0.6677    1.1007 H   0  0  0  0  0  0  0  0  0  0  0  0
    7.0479    1.0322   -0.6438 H   0  0  0  0  0  0  0  0  0  0  0  0
    6.0662    1.9739    0.5130 H   0  0  0  0  0  0  0  0  0  0  0  0
   -6.9128    1.2225   -0.6051 H   0  0  0  0  0  0  0  0  0  0  0  0
  1 10  1  0  0  0  0
  1 11  1  0  0  0  0
  2  9  1  0  0  0  0
  2 29  1  0  0  0  0
  3 15  2  0  0  0  0
  4  8  1  0  0  0  0
  4 13  1  0  0  0  0
  4 26  1  0  0  0  0
  5 12  1  0  0  0  0
  5 15  1  0  0  0  0
  5 30  1  0  0  0  0
  6 14  1  0  0  0  0
  6 18  1  0  0  0  0
  6 31  1  0  0  0  0
  7 16  1  0  0  0  0
  7 18  2  0  0  0  0
  8  9  1  0  0  0  0
  8 11  1  0  0  0  0
  8 19  1  0  0  0  0
  9 10  1  0  0  0  0
  9 20  1  0  0  0  0
 10 12  1  0  0  0  0
 10 21  1  0  0  0  0
 11 22  1  0  0  0  0
 11 23  1  0  0  0  0
 12 24  1  0  0  0  0
 12 25  1  0  0  0  0
 13 14  1  0  0  0  0
 13 27  1  0  0  0  0
 13 28  1  0  0  0  0
 14 16  2  0  0  0  0
 15 17  1  0  0  0  0
 16 32  1  0  0  0  0
 17 33  1  0  0  0  0
 17 34  1  0  0  0  0
 17 35  1  0  0  0  0
 18 36  1  0  0  0  0
M  END
> <PUBCHEM_COMPOUND_CID>
75536509

> <PUBCHEM_CONFORMER_RMSD>
0.8

> <PUBCHEM_CONFORMER_DIVERSEORDER>
1
211
92
155
217
160
185
152
238
3
120
79
28
208
96
105
225
7
161
52
223
16
169
76
194
49
213
117
151
111
139
166
142
2
144
58
229
94
129
114
130
13
163
234
35
207
77
187
233
201
61
138
146
226
182
10
162
5
70
165
124
239
141
128
219
107
131
197
172
134
55
221
18
27
192
137
9
167
236
168
91
205
170
148
123
186
106
25
212
31
154
132
40
127
116
178
97
69
26
235
157
34
189
196
88
53
140
71
41
218
98
15
156
121
65
110
84
216
153
204
232
222
62
149
227
230
60
89
210
14
11
135
209
36
191
112
32
202
101
147
20
108
173
126
6
87
203
81
50
220
57
198
237
54
180
38
133
119
100
143
74
176
231
177
63
56
175
22
68
179
103
214
19
183
45
199
99
190
72
46
115
145
150
75
224
8
4
95
200
118
193
164
93
48
122
82
125
24
136
171
102
83
215
64
104
184
78
33
67
181
29
109
113
30
188
23
90
12
206
80
37
43
66
85
174
21
44
159
17
51
47
59
42
86
39
228
195
158
73

> <PUBCHEM_MMFF94_PARTIAL_CHARGES>
24
1 -0.56
10 0.28
11 0.28
12 0.3
13 0.45
14 -0.33
15 0.57
16 0.08
17 0.06
18 0.04
2 -0.68
26 0.36
29 0.4
3 -0.57
30 0.37
31 0.27
32 0.15
36 0.15
4 -0.9
5 -0.73
6 0.03
7 -0.57
8 0.27
9 0.28

> <PUBCHEM_EFFECTIVE_ROTOR_COUNT>
7

> <PUBCHEM_PHARMACOPHORE_FEATURES>
11
1 1 acceptor
1 2 acceptor
1 2 donor
1 3 acceptor
1 4 cation
1 4 donor
1 5 donor
1 6 donor
3 6 7 18 cation
5 1 8 9 10 11 rings
5 6 7 14 16 18 rings

> <PUBCHEM_HEAVY_ATOM_COUNT>
18

> <PUBCHEM_ATOM_DEF_STEREO_COUNT>
3

> <PUBCHEM_ATOM_UDEF_STEREO_COUNT>
0

> <PUBCHEM_BOND_DEF_STEREO_COUNT>
0

> <PUBCHEM_BOND_UDEF_STEREO_COUNT>
0

> <PUBCHEM_ISOTOPIC_ATOM_COUNT>
0

> <PUBCHEM_COMPONENT_COUNT>
1

> <PUBCHEM_CACTVS_TAUTO_COUNT>
4

> <PUBCHEM_CONFORMER_ID>
0480987D00000001

> <PUBCHEM_MMFF94_ENERGY>
22.9938

> <PUBCHEM_FEATURE_SELFOVERLAP>
55.822

> <PUBCHEM_SHAPE_FINGERPRINT>
10968037 39 17703791431708018685
11089746 13 14996282552364399343
11287383 113 16056878048317420386
11315181 36 17917713522320832361
11401426 45 18411421712911433736
11796584 16 16732988639131832762
12091667 2 18334579049202715017
12236239 1 18060701671547986871
13533116 47 18113897110074937322
13862211 1 18411138026280000634
14123238 8 15841555162737402828
1420 363 16200436874734947327
14251718 22 17846499235898949469
17834072 33 17775565368298322997
17834076 25 9007060162230496277
19489759 90 17967251992508030737
200 152 18131634478703310425
21054139 6 18341607161771796447
21150785 3 17561357396847891549
21709351 56 18408879668436292349
22079108 93 15482663581443056534
23035841 295 10375875168961395028
23218964 4 13551188896497524344
23402539 116 17312821593566002495
23402655 69 18411700946701303429
23536379 177 17748826306341287520
23559900 14 18341606066808031793
300161 21 18334856083330889079
34797466 226 15841557409506874496
3545911 37 18408887335290330393
4072396 5 18334571318172112954
42630746 31 18340488876947392998
42788 4 18410856559645090317
4340502 62 16660646254455338386
4463277 17 18411418418983026880
474229 33 18413109463455521598
59755656 215 18335989662566125318

> <PUBCHEM_SHAPE_MULTIPOLES>
332.9
16.16
1.34
0.77
0.9
0.23
-0.03
-1.36
-0.25
-0.18
0.07
-0.22
0.02
-0.13

> <PUBCHEM_SHAPE_SELFOVERLAP>
682.173

> <PUBCHEM_SHAPE_VOLUME>
194.3

> <PUBCHEM_COORDINATE_TYPE>
2
5
10

$$$$
