45784337
  -OEChem-12032416283D

 39 42  0     1  0  0  0  0  0999 V2000
    6.9038    1.5750   -0.5187 F   0  0  0  0  0  0  0  0  0  0  0  0
    2.5228   -1.5033    0.3263 O   0  0  0  0  0  0  0  0  0  0  0  0
   -2.0124   -0.2617   -0.1205 N   0  0  1  0  0  0  0  0  0  0  0  0
    2.1309    0.7137    0.0656 N   0  0  0  0  0  0  0  0  0  0  0  0
    0.1751   -0.8657    0.4704 C   0  0  1  0  0  0  0  0  0  0  0  0
   -0.5163   -0.1967    1.6712 C   0  0  0  0  0  0  0  0  0  0  0  0
   -0.7056   -0.5075   -0.7341 C   0  0  0  0  0  0  0  0  0  0  0  0
   -1.7235    0.5208    1.0812 C   0  0  0  0  0  0  0  0  0  0  0  0
   -2.9285    0.4230   -1.0207 C   0  0  0  0  0  0  0  0  0  0  0  0
    1.6236   -0.4809    0.2764 C   0  0  0  0  0  0  0  0  0  0  0  0
   -4.3600    0.2864   -0.5743 C   0  0  0  0  0  0  0  0  0  0  0  0
    3.4796    0.4717   -0.0338 C   0  0  0  0  0  0  0  0  0  0  0  0
    3.7233   -0.8845    0.1252 C   0  0  0  0  0  0  0  0  0  0  0  0
   -5.1317   -0.7850   -1.0240 C   0  0  0  0  0  0  0  0  0  0  0  0
   -4.9144    1.2313    0.2888 C   0  0  0  0  0  0  0  0  0  0  0  0
    4.5632    1.3334   -0.2563 C   0  0  0  0  0  0  0  0  0  0  0  0
    4.9810   -1.4734    0.0815 C   0  0  0  0  0  0  0  0  0  0  0  0
   -6.4580   -0.9113   -0.6106 C   0  0  0  0  0  0  0  0  0  0  0  0
   -6.2405    1.1051    0.7023 C   0  0  0  0  0  0  0  0  0  0  0  0
    5.8489    0.7758   -0.3070 C   0  0  0  0  0  0  0  0  0  0  0  0
    6.0511   -0.6000   -0.1412 C   0  0  0  0  0  0  0  0  0  0  0  0
   -7.0123    0.0337    0.2525 C   0  0  0  0  0  0  0  0  0  0  0  0
    0.1290   -1.9531    0.6257 H   0  0  0  0  0  0  0  0  0  0  0  0
   -0.8449   -0.9690    2.3780 H   0  0  0  0  0  0  0  0  0  0  0  0
    0.1331    0.4972    2.2153 H   0  0  0  0  0  0  0  0  0  0  0  0
   -0.7443   -1.3302   -1.4564 H   0  0  0  0  0  0  0  0  0  0  0  0
   -0.3313    0.3864   -1.2509 H   0  0  0  0  0  0  0  0  0  0  0  0
   -2.5524    0.5265    1.7953 H   0  0  0  0  0  0  0  0  0  0  0  0
   -1.4550    1.5580    0.8425 H   0  0  0  0  0  0  0  0  0  0  0  0
   -2.6681    1.4820   -1.1548 H   0  0  0  0  0  0  0  0  0  0  0  0
   -2.8564   -0.0161   -2.0257 H   0  0  0  0  0  0  0  0  0  0  0  0
   -4.7116   -1.5296   -1.6950 H   0  0  0  0  0  0  0  0  0  0  0  0
   -4.3269    2.0744    0.6425 H   0  0  0  0  0  0  0  0  0  0  0  0
    4.4185    2.4007   -0.3863 H   0  0  0  0  0  0  0  0  0  0  0  0
    5.1266   -2.5385    0.2109 H   0  0  0  0  0  0  0  0  0  0  0  0
   -7.0588   -1.7458   -0.9603 H   0  0  0  0  0  0  0  0  0  0  0  0
   -6.6726    1.8416    1.3735 H   0  0  0  0  0  0  0  0  0  0  0  0
    7.0618   -0.9982   -0.1866 H   0  0  0  0  0  0  0  0  0  0  0  0
   -8.0450   -0.0644    0.5743 H   0  0  0  0  0  0  0  0  0  0  0  0
  1 20  1  0  0  0  0
  2 10  1  0  0  0  0
  2 13  1  0  0  0  0
  3  7  1  0  0  0  0
  3  8  1  0  0  0  0
  3  9  1  0  0  0  0
  4 10  2  0  0  0  0
  4 12  1  0  0  0  0
  5  6  1  0  0  0  0
  5  7  1  0  0  0  0
  5 10  1  0  0  0  0
  5 23  1  0  0  0  0
  6  8  1  0  0  0  0
  6 24  1  0  0  0  0
  6 25  1  0  0  0  0
  7 26  1  0  0  0  0
  7 27  1  0  0  0  0
  8 28  1  0  0  0  0
  8 29  1  0  0  0  0
  9 11  1  0  0  0  0
  9 30  1  0  0  0  0
  9 31  1  0  0  0  0
 11 14  2  0  0  0  0
 11 15  1  0  0  0  0
 12 13  2  0  0  0  0
 12 16  1  0  0  0  0
 13 17  1  0  0  0  0
 14 18  1  0  0  0  0
 14 32  1  0  0  0  0
 15 19  2  0  0  0  0
 15 33  1  0  0  0  0
 16 20  2  0  0  0  0
 16 34  1  0  0  0  0
 17 21  2  0  0  0  0
 17 35  1  0  0  0  0
 18 22  2  0  0  0  0
 18 36  1  0  0  0  0
 19 22  1  0  0  0  0
 19 37  1  0  0  0  0
 20 21  1  0  0  0  0
 21 38  1  0  0  0  0
 22 39  1  0  0  0  0
M  END
> <PUBCHEM_COMPOUND_CID>
45784337

> <PUBCHEM_CONFORMER_RMSD>
0.6

> <PUBCHEM_CONFORMER_DIVERSEORDER>
1
122
70
99
117
82
88
39
119
32
51
91
118
78
89
42
124
25
105
94
81
80
40
31
62
101
77
34
103
123
96
30
29
120
84
86
47
93
41
26
111
114
92
23
79
97
69
16
115
50
87
20
83
90
46
73
102
121
100
18
98
35
24
113
112
95
36
12
37
28
21
116
8
85
58
10
66
33
53
44
74
49
72
7
76
71
67
38
2
63
108
15
60
14
11
54
75
59
19
61
4
68
48
27
57
43
13
110
3
22
65
55
64
6
109
9
104
17
45
52
106
5
107
56

> <PUBCHEM_MMFF94_PARTIAL_CHARGES>
29
1 -0.19
10 0.3
11 -0.14
12 0.23
13 0.14
14 -0.15
15 -0.15
16 -0.15
17 -0.15
18 -0.15
19 -0.15
2 -0.28
20 0.19
21 -0.15
22 -0.15
3 -0.81
32 0.15
33 0.15
34 0.15
35 0.15
36 0.15
37 0.15
38 0.15
39 0.15
4 -0.57
5 0.18
7 0.27
8 0.27
9 0.41

> <PUBCHEM_EFFECTIVE_ROTOR_COUNT>
4

> <PUBCHEM_PHARMACOPHORE_FEATURES>
5
1 3 cation
5 2 4 10 12 13 rings
5 3 5 6 7 8 rings
6 11 14 15 18 19 22 rings
6 12 13 16 17 20 21 rings

> <PUBCHEM_HEAVY_ATOM_COUNT>
22

> <PUBCHEM_ATOM_DEF_STEREO_COUNT>
1

> <PUBCHEM_ATOM_UDEF_STEREO_COUNT>
0

> <PUBCHEM_BOND_DEF_STEREO_COUNT>
0

> <PUBCHEM_BOND_UDEF_STEREO_COUNT>
0

> <PUBCHEM_ISOTOPIC_ATOM_COUNT>
0

> <PUBCHEM_COMPONENT_COUNT>
1

> <PUBCHEM_CACTVS_TAUTO_COUNT>
1

> <PUBCHEM_CONFORMER_ID>
02BA9D1100000001

> <PUBCHEM_MMFF94_ENERGY>
44.4382

> <PUBCHEM_FEATURE_SELFOVERLAP>
25.492

> <PUBCHEM_SHAPE_FINGERPRINT>
10 15 15285360652308375548
10299344 5 18273495680827341775
10411042 1 17903072236913890922
10595046 47 18412261710141746787
106641 1 14345801573351382532
11315181 36 18411136949218824109
11646440 116 17023191513031540325
11796584 16 14908172071523621494
12166972 35 18409731763756579884
12236239 1 18201719535268151426
12730499 353 17822011982541226330
12788726 201 16916791730130918403
12916748 109 17022620853885765204
13167372 99 18339644434320277696
13533116 47 18272087159098083546
14123256 10 17385441021245604235
14170010 4 18186239546000985884
1420 363 17240204313918635539
14251752 14 17346598556316558185
14251764 18 18411417323497159380
14617045 38 14692575420338380420
14849402 71 18336552727951225357
14856354 85 17703792548747656199
14933364 13 18413389830504665261
15183329 4 17918275337827991249
15537594 2 15913323581164949799
15716309 27 18410011023051859599
18006028 8 11384116344952650123
18335252 98 18335144228054765763
19489759 90 11891332046147145391
200 152 18202280294788310418
20157964 124 18333450946157062482
20281389 69 17603581924282326916
20645477 70 18336825287240038894
21150785 3 18131635608042436252
220451 1 17775282759782750671
221357 26 18335135380306091412
22224240 67 16515684467747330136
23035841 295 17847059978624438911
23081809 10 18201430368327007543
23198884 109 18411139134734731219
23402539 116 17775279452573237765
23424782 7 18188494687251865067
23522609 53 18128840623525649905
23536379 177 18343019969598431635
23559900 14 18262796388605710281
23569943 247 17533771598725845291
23622692 88 14273460287980644754
2916195 48 17458340827604172813
29717793 49 17846504708293946318
3004659 81 16988561325173593032
335352 9 18334581236048255902
3545911 37 18040154015454423354
397830 11 16226910993187338945
4073 2 18113904900423185522
4325135 7 18410292519497917861
4340502 62 16153425035024011066
445580 37 17060066917235336457
4463277 17 17060615603459630875
5283156 175 17203332178733539110
542803 24 18272929414615621615
559249 180 8574710196521670073
5758199 1 18260551125668887419
59682541 35 16877951563979929689
59755656 520 18113614607889295251
9996256 80 18409445873600247269

> <PUBCHEM_SHAPE_MULTIPOLES>
429.64
19.67
1.35
1.02
3.99
0.06
-0.17
2.69
2.79
-0.91
0.04
0.67
0.01
-1.17

> <PUBCHEM_SHAPE_SELFOVERLAP>
945.988

> <PUBCHEM_SHAPE_VOLUME>
234.8

> <PUBCHEM_COORDINATE_TYPE>
2
5
10

$$$$
