45361026
  -OEChem-12032416283D

 63 66  0     1  0  0  0  0  0999 V2000
   -8.0304   -1.5549   -1.3979 S   0  0  0  0  0  0  0  0  0  0  0  0
    1.8636   -1.5274   -0.4612 O   0  0  0  0  0  0  0  0  0  0  0  0
   -4.7208    0.6362   -1.5886 O   0  0  0  0  0  0  0  0  0  0  0  0
    3.4165    0.5396    0.3190 N   0  0  1  0  0  0  0  0  0  0  0  0
    0.1071    1.9225   -0.4064 N   0  0  1  0  0  0  0  0  0  0  0  0
   -0.0189   -0.7776    0.6019 N   0  0  0  0  0  0  0  0  0  0  0  0
   -5.9281    1.0867    0.3422 N   0  0  0  0  0  0  0  0  0  0  0  0
    1.4259    1.9274    0.2647 C   0  0  1  0  0  0  0  0  0  0  0  0
    2.0099    0.5722    0.7615 C   0  0  1  0  0  0  0  0  0  0  0  0
    2.5711    2.4680   -0.6118 C   0  0  0  0  0  0  0  0  0  0  0  0
    3.8144    1.9177    0.0543 C   0  0  0  0  0  0  0  0  0  0  0  0
   -1.0229    1.4822    0.4586 C   0  0  2  0  0  0  0  0  0  0  0  0
    1.3058   -0.6705    0.2231 C   0  0  0  0  0  0  0  0  0  0  0  0
   -0.7258    0.2517    1.3379 C   0  0  0  0  0  0  0  0  0  0  0  0
    4.3059   -0.1151    1.2698 C   0  0  0  0  0  0  0  0  0  0  0  0
   -2.2620    1.1510   -0.3995 C   0  0  0  0  0  0  0  0  0  0  0  0
   -0.1854    3.2400   -0.9962 C   0  0  0  0  0  0  0  0  0  0  0  0
   -3.5330    1.2860    0.4186 C   0  0  0  0  0  0  0  0  0  0  0  0
    5.5743   -0.5925    0.6141 C   0  0  0  0  0  0  0  0  0  0  0  0
   -4.7664    0.9633   -0.4058 C   0  0  0  0  0  0  0  0  0  0  0  0
    5.5611   -1.7435   -0.1739 C   0  0  0  0  0  0  0  0  0  0  0  0
    6.7629    0.1142    0.7968 C   0  0  0  0  0  0  0  0  0  0  0  0
    6.7367   -2.1876   -0.7791 C   0  0  0  0  0  0  0  0  0  0  0  0
    7.9385   -0.3300    0.1916 C   0  0  0  0  0  0  0  0  0  0  0  0
    7.9254   -1.4809   -0.5966 C   0  0  0  0  0  0  0  0  0  0  0  0
   -7.2352    0.8343   -0.2166 C   0  0  0  0  0  0  0  0  0  0  0  0
    9.1822   -1.9564   -1.2436 C   0  0  0  0  0  0  0  0  0  0  0  0
   -7.6587   -0.5981   -0.0273 C   0  0  0  0  0  0  0  0  0  0  0  0
   -7.8032   -1.3011    1.1486 C   0  0  0  0  0  0  0  0  0  0  0  0
   -8.2245   -2.6431    0.9213 C   0  0  0  0  0  0  0  0  0  0  0  0
   -8.3859   -2.9145   -0.4195 C   0  0  0  0  0  0  0  0  0  0  0  0
    1.3638    2.5920    1.1405 H   0  0  0  0  0  0  0  0  0  0  0  0
    1.9626    0.5501    1.8584 H   0  0  0  0  0  0  0  0  0  0  0  0
    2.4951    2.0875   -1.6392 H   0  0  0  0  0  0  0  0  0  0  0  0
    2.5909    3.5621   -0.6472 H   0  0  0  0  0  0  0  0  0  0  0  0
    4.0274    2.4763    0.9746 H   0  0  0  0  0  0  0  0  0  0  0  0
    4.6804    1.9831   -0.6113 H   0  0  0  0  0  0  0  0  0  0  0  0
   -1.2729    2.3069    1.1409 H   0  0  0  0  0  0  0  0  0  0  0  0
   -1.6313   -0.2132    1.7368 H   0  0  0  0  0  0  0  0  0  0  0  0
   -0.1313    0.5423    2.2100 H   0  0  0  0  0  0  0  0  0  0  0  0
    3.8198   -1.0058    1.6925 H   0  0  0  0  0  0  0  0  0  0  0  0
    4.5251    0.5247    2.1354 H   0  0  0  0  0  0  0  0  0  0  0  0
   -2.3671    1.8011   -1.2713 H   0  0  0  0  0  0  0  0  0  0  0  0
   -2.1817    0.1384   -0.8168 H   0  0  0  0  0  0  0  0  0  0  0  0
   -0.5396   -1.5940    0.2960 H   0  0  0  0  0  0  0  0  0  0  0  0
   -1.1437    3.2920   -1.5157 H   0  0  0  0  0  0  0  0  0  0  0  0
    0.5493    3.5000   -1.7652 H   0  0  0  0  0  0  0  0  0  0  0  0
   -0.1794    4.0282   -0.2341 H   0  0  0  0  0  0  0  0  0  0  0  0
   -3.5338    0.6161    1.2841 H   0  0  0  0  0  0  0  0  0  0  0  0
   -3.6363    2.3133    0.7889 H   0  0  0  0  0  0  0  0  0  0  0  0
    4.6427   -2.3047   -0.3228 H   0  0  0  0  0  0  0  0  0  0  0  0
    6.7863    1.0131    1.4070 H   0  0  0  0  0  0  0  0  0  0  0  0
    6.7135   -3.0850   -1.3917 H   0  0  0  0  0  0  0  0  0  0  0  0
    8.8578    0.2303    0.3397 H   0  0  0  0  0  0  0  0  0  0  0  0
   -5.8676    1.3480    1.3222 H   0  0  0  0  0  0  0  0  0  0  0  0
   -7.9407    1.4902    0.3056 H   0  0  0  0  0  0  0  0  0  0  0  0
   -7.2348    1.1234   -1.2735 H   0  0  0  0  0  0  0  0  0  0  0  0
   10.0602   -1.6890   -0.6458 H   0  0  0  0  0  0  0  0  0  0  0  0
    9.2853   -1.5097   -2.2375 H   0  0  0  0  0  0  0  0  0  0  0  0
    9.1853   -3.0469   -1.3467 H   0  0  0  0  0  0  0  0  0  0  0  0
   -7.6178   -0.8772    2.1274 H   0  0  0  0  0  0  0  0  0  0  0  0
   -8.4003   -3.3722    1.7015 H   0  0  0  0  0  0  0  0  0  0  0  0
   -8.6957   -3.8463   -0.8714 H   0  0  0  0  0  0  0  0  0  0  0  0
  1 28  1  0  0  0  0
  1 31  1  0  0  0  0
  2 13  2  0  0  0  0
  3 20  2  0  0  0  0
  4  9  1  0  0  0  0
  4 11  1  0  0  0  0
  4 15  1  0  0  0  0
  5  8  1  0  0  0  0
  5 12  1  0  0  0  0
  5 17  1  0  0  0  0
  6 13  1  0  0  0  0
  6 14  1  0  0  0  0
  6 45  1  0  0  0  0
  7 20  1  0  0  0  0
  7 26  1  0  0  0  0
  7 55  1  0  0  0  0
  8  9  1  0  0  0  0
  8 10  1  0  0  0  0
  8 32  1  0  0  0  0
  9 13  1  0  0  0  0
  9 33  1  0  0  0  0
 10 11  1  0  0  0  0
 10 34  1  0  0  0  0
 10 35  1  0  0  0  0
 11 36  1  0  0  0  0
 11 37  1  0  0  0  0
 12 14  1  0  0  0  0
 12 16  1  0  0  0  0
 12 38  1  0  0  0  0
 14 39  1  0  0  0  0
 14 40  1  0  0  0  0
 15 19  1  0  0  0  0
 15 41  1  0  0  0  0
 15 42  1  0  0  0  0
 16 18  1  0  0  0  0
 16 43  1  0  0  0  0
 16 44  1  0  0  0  0
 17 46  1  0  0  0  0
 17 47  1  0  0  0  0
 17 48  1  0  0  0  0
 18 20  1  0  0  0  0
 18 49  1  0  0  0  0
 18 50  1  0  0  0  0
 19 21  2  0  0  0  0
 19 22  1  0  0  0  0
 21 23  1  0  0  0  0
 21 51  1  0  0  0  0
 22 24  2  0  0  0  0
 22 52  1  0  0  0  0
 23 25  2  0  0  0  0
 23 53  1  0  0  0  0
 24 25  1  0  0  0  0
 24 54  1  0  0  0  0
 25 27  1  0  0  0  0
 26 28  1  0  0  0  0
 26 56  1  0  0  0  0
 26 57  1  0  0  0  0
 27 58  1  0  0  0  0
 27 59  1  0  0  0  0
 27 60  1  0  0  0  0
 28 29  2  0  0  0  0
 29 30  1  0  0  0  0
 29 61  1  0  0  0  0
 30 31  2  0  0  0  0
 30 62  1  0  0  0  0
 31 63  1  0  0  0  0
M  END
> <PUBCHEM_COMPOUND_CID>
45361026

> <PUBCHEM_CONFORMER_RMSD>
1.2

> <PUBCHEM_CONFORMER_DIVERSEORDER>
2
124
91
168
142
162
161
167
37
116
12
67
160
78
62
71
25
32
90
145
119
144
3
89
111
122
101
166
134
164
139
41
115
46
93
60
50
131
152
114
75
148
97
149
5
27
135
59
138
18
99
165
151
147
11
85
38
83
96
39
65
84
52
117
94
133
55
128
79
137
80
118
76
146
36
103
154
163
109
126
110
130
121
40
7
157
68
20
87
155
127
106
6
35
73
34
45
72
107
10
17
19
136
77
156
44
33
16
66
21
141
129
104
102
86
26
69
153
53
9
108
13
113
47
58
140
158
123
22
170
132
64
70
169
8
159
31
48
56
100
57
88
125
120
150
23
82
92
1
98
51
112
29
49
143
63
54
61
15
105
42
81
14
30
95
4
43
28
24
74

> <PUBCHEM_MMFF94_PARTIAL_CHARGES>
38
1 -0.08
11 0.27
12 0.27
13 0.57
14 0.3
15 0.41
17 0.27
18 0.06
19 -0.14
2 -0.57
20 0.57
21 -0.15
22 -0.15
23 -0.15
24 -0.15
25 -0.14
26 0.48
27 0.14
28 -0.14
29 -0.15
3 -0.57
30 -0.15
31 -0.11
4 -0.81
45 0.37
5 -0.81
51 0.15
52 0.15
53 0.15
54 0.15
55 0.37
6 -0.73
61 0.15
62 0.15
63 0.15
7 -0.73
8 0.27
9 0.33

> <PUBCHEM_EFFECTIVE_ROTOR_COUNT>
9.4

> <PUBCHEM_PHARMACOPHORE_FEATURES>
10
1 2 acceptor
1 3 acceptor
1 4 cation
1 5 cation
1 6 donor
1 7 donor
5 1 28 29 30 31 rings
5 4 8 9 10 11 rings
6 19 21 22 23 24 25 rings
7 5 6 8 9 12 13 14 rings

> <PUBCHEM_HEAVY_ATOM_COUNT>
31

> <PUBCHEM_ATOM_DEF_STEREO_COUNT>
3

> <PUBCHEM_ATOM_UDEF_STEREO_COUNT>
0

> <PUBCHEM_BOND_DEF_STEREO_COUNT>
0

> <PUBCHEM_BOND_UDEF_STEREO_COUNT>
0

> <PUBCHEM_ISOTOPIC_ATOM_COUNT>
0

> <PUBCHEM_COMPONENT_COUNT>
1

> <PUBCHEM_CACTVS_TAUTO_COUNT>
6

> <PUBCHEM_CONFORMER_ID>
02B4278200000002

> <PUBCHEM_MMFF94_ENERGY>
72.405

> <PUBCHEM_FEATURE_SELFOVERLAP>
50.783

> <PUBCHEM_SHAPE_FINGERPRINT>
11135609 99 18342739650084208879
11386260 185 17022907899409160292
11456790 92 15267342924745870682
11607047 74 18194962078987303708
11621639 148 18339916121947800984
11963148 33 18261664892330997291
12539765 74 8142087593354224568
12592606 108 18411138034621781479
12645989 146 18186802500513300341
13668630 136 18409164402955628545
13782708 43 18187076300525676473
13811026 1 18334574663492518808
14178184 131 17988356087802067543
14202775 3 18200317607575294286
15350500 55 9655580699559024203
15461852 350 17095522898982513191
16991971 28 18335140899011616181
16994733 274 10087639295515113541
1754908 1 16773791519812663323
1818759 1 18202286896438030470
2026 5 18410576154337646515
21150785 3 16298390136686888232
21267235 1 18411138021768917937
21403212 168 9007051362575697428
21585481 151 18341897368379531091
21781051 124 18342185491591414214
21781055 127 11959734915137426192
21792965 169 18340766069688495727
23569917 315 18342464741759786758
23569943 247 17907582424340521042
23576562 1 16660942087027677942
2747138 104 18341607109831093529
335352 9 18261114076017934368
4340502 62 14979952558630284700
437795 83 13262667124760261087
4461854 278 17988927799188248351
45377200 153 18413108380976836866
4625314 4 18334853936100923149
484989 97 17968664925200507083
54039377 194 18341895199516167847
5937810 71 12252173045143184591
636775 72 9655576314746146155
636775 8 18410580556778624350
999808 66 18272367586403291999

> <PUBCHEM_SHAPE_MULTIPOLES>
610.15
30.72
3.05
1.18
18.12
0.09
0.06
-29.12
4.05
1.35
0.8
0.46
-0.19
1.52

> <PUBCHEM_SHAPE_SELFOVERLAP>
1272.871

> <PUBCHEM_SHAPE_VOLUME>
347.5

> <PUBCHEM_COORDINATE_TYPE>
2
5
10

$$$$
