75536789
  -OEChem-12032416343D

 46 48  0     1  0  0  0  0  0999 V2000
   -0.0913    0.5510   -0.8877 O   0  0  0  0  0  0  0  0  0  0  0  0
   -1.3258   -2.4190    0.7125 O   0  0  0  0  0  0  0  0  0  0  0  0
   -7.1268    0.9298    0.8106 O   0  0  0  0  0  0  0  0  0  0  0  0
    3.2242   -1.6284    1.1772 O   0  0  0  0  0  0  0  0  0  0  0  0
   -3.5213   -0.6388   -0.6611 N   0  0  0  0  0  0  0  0  0  0  0  0
    2.4947   -0.7061   -0.8228 N   0  0  0  0  0  0  0  0  0  0  0  0
    6.8732    1.6238    0.1360 N   0  0  0  0  0  0  0  0  0  0  0  0
   -2.1867   -0.3171   -0.1823 C   0  0  1  0  0  0  0  0  0  0  0  0
   -1.1984   -1.4604   -0.3196 C   0  0  1  0  0  0  0  0  0  0  0  0
    0.1264   -0.7139   -0.2407 C   0  0  1  0  0  0  0  0  0  0  0  0
   -4.4960    0.3488   -0.2043 C   0  0  0  0  0  0  0  0  0  0  0  0
   -1.5087    0.7669   -1.0041 C   0  0  0  0  0  0  0  0  0  0  0  0
   -4.8848    0.1047    1.2571 C   0  0  0  0  0  0  0  0  0  0  0  0
   -5.7439    0.3151   -1.0912 C   0  0  0  0  0  0  0  0  0  0  0  0
    1.2701   -1.4471   -0.9186 C   0  0  0  0  0  0  0  0  0  0  0  0
   -5.9984    1.0584    1.6756 C   0  0  0  0  0  0  0  0  0  0  0  0
   -6.8100    1.2570   -0.5425 C   0  0  0  0  0  0  0  0  0  0  0  0
    3.3871   -0.8589    0.2339 C   0  0  0  0  0  0  0  0  0  0  0  0
    4.5979    0.0013    0.1999 C   0  0  0  0  0  0  0  0  0  0  0  0
    5.2354    0.3564    1.3835 C   0  0  0  0  0  0  0  0  0  0  0  0
    5.0968    0.4563   -1.0157 C   0  0  0  0  0  0  0  0  0  0  0  0
    6.3592    1.1624    1.2982 C   0  0  0  0  0  0  0  0  0  0  0  0
    6.2269    1.2578   -0.9937 C   0  0  0  0  0  0  0  0  0  0  0  0
   -2.2012   -0.0250    0.8748 H   0  0  0  0  0  0  0  0  0  0  0  0
   -1.3107   -1.9653   -1.2872 H   0  0  0  0  0  0  0  0  0  0  0  0
    0.3927   -0.5048    0.8039 H   0  0  0  0  0  0  0  0  0  0  0  0
   -4.0787    1.3609   -0.2925 H   0  0  0  0  0  0  0  0  0  0  0  0
   -1.7586    0.6999   -2.0693 H   0  0  0  0  0  0  0  0  0  0  0  0
   -1.7484    1.7763   -0.6567 H   0  0  0  0  0  0  0  0  0  0  0  0
   -3.7944   -1.5671   -0.3398 H   0  0  0  0  0  0  0  0  0  0  0  0
   -4.0367    0.2328    1.9368 H   0  0  0  0  0  0  0  0  0  0  0  0
   -5.2461   -0.9259    1.3722 H   0  0  0  0  0  0  0  0  0  0  0  0
   -6.1506   -0.7047   -1.1104 H   0  0  0  0  0  0  0  0  0  0  0  0
   -5.4955    0.5909   -2.1226 H   0  0  0  0  0  0  0  0  0  0  0  0
    1.0685   -1.5692   -1.9886 H   0  0  0  0  0  0  0  0  0  0  0  0
    1.4095   -2.4392   -0.4760 H   0  0  0  0  0  0  0  0  0  0  0  0
   -5.6542    2.0994    1.6747 H   0  0  0  0  0  0  0  0  0  0  0  0
   -6.3295    0.8207    2.6915 H   0  0  0  0  0  0  0  0  0  0  0  0
   -7.7278    1.1630   -1.1315 H   0  0  0  0  0  0  0  0  0  0  0  0
   -6.4863    2.3030   -0.5989 H   0  0  0  0  0  0  0  0  0  0  0  0
   -1.2276   -1.9644    1.5662 H   0  0  0  0  0  0  0  0  0  0  0  0
    2.6582   -0.0031   -1.5356 H   0  0  0  0  0  0  0  0  0  0  0  0
    4.8762    0.0266    2.3524 H   0  0  0  0  0  0  0  0  0  0  0  0
    4.6626    0.1920   -1.9730 H   0  0  0  0  0  0  0  0  0  0  0  0
    6.8922    1.4688    2.1923 H   0  0  0  0  0  0  0  0  0  0  0  0
    6.6601    1.6331   -1.9150 H   0  0  0  0  0  0  0  0  0  0  0  0
  1 10  1  0  0  0  0
  1 12  1  0  0  0  0
  2  9  1  0  0  0  0
  2 41  1  0  0  0  0
  3 16  1  0  0  0  0
  3 17  1  0  0  0  0
  4 18  2  0  0  0  0
  5  8  1  0  0  0  0
  5 11  1  0  0  0  0
  5 30  1  0  0  0  0
  6 15  1  0  0  0  0
  6 18  1  0  0  0  0
  6 42  1  0  0  0  0
  7 22  2  0  0  0  0
  7 23  1  0  0  0  0
  8  9  1  0  0  0  0
  8 12  1  0  0  0  0
  8 24  1  0  0  0  0
  9 10  1  0  0  0  0
  9 25  1  0  0  0  0
 10 15  1  0  0  0  0
 10 26  1  0  0  0  0
 11 13  1  0  0  0  0
 11 14  1  0  0  0  0
 11 27  1  0  0  0  0
 12 28  1  0  0  0  0
 12 29  1  0  0  0  0
 13 16  1  0  0  0  0
 13 31  1  0  0  0  0
 13 32  1  0  0  0  0
 14 17  1  0  0  0  0
 14 33  1  0  0  0  0
 14 34  1  0  0  0  0
 15 35  1  0  0  0  0
 15 36  1  0  0  0  0
 16 37  1  0  0  0  0
 16 38  1  0  0  0  0
 17 39  1  0  0  0  0
 17 40  1  0  0  0  0
 18 19  1  0  0  0  0
 19 20  2  0  0  0  0
 19 21  1  0  0  0  0
 20 22  1  0  0  0  0
 20 43  1  0  0  0  0
 21 23  2  0  0  0  0
 21 44  1  0  0  0  0
 22 45  1  0  0  0  0
 23 46  1  0  0  0  0
M  END
> <PUBCHEM_COMPOUND_CID>
75536789

> <PUBCHEM_CONFORMER_RMSD>
0.8

> <PUBCHEM_CONFORMER_DIVERSEORDER>
1
12
8
125
112
22
82
132
117
60
111
25
48
95
49
119
122
131
58
13
114
70
123
78
130
94
85
103
39
93
31
29
113
76
120
129
127
46
11
17
63
45
107
98
124
54
84
61
106
121
126
118
30
105
21
87
2
59
47
108
77
72
74
92
64
80
115
67
86
51
7
128
20
19
44
83
109
96
69
89
99
102
110
91
33
37
90
56
14
18
116
38
88
71
40
9
10
57
79
26
100
28
81
36
34
43
104
73
52
27
42
35
41
62
16
65
55
3
4
75
23
101
68
53
15
5
24
97
6
66
32
50

> <PUBCHEM_MMFF94_PARTIAL_CHARGES>
28
1 -0.56
10 0.28
11 0.27
12 0.28
15 0.3
16 0.28
17 0.28
18 0.54
19 0.09
2 -0.68
20 -0.15
21 -0.15
22 0.16
23 0.16
3 -0.56
30 0.36
4 -0.57
41 0.4
42 0.37
43 0.15
44 0.15
45 0.15
46 0.15
5 -0.9
6 -0.73
7 -0.62
8 0.27
9 0.28

> <PUBCHEM_EFFECTIVE_ROTOR_COUNT>
8.2

> <PUBCHEM_PHARMACOPHORE_FEATURES>
12
1 1 acceptor
1 2 acceptor
1 2 donor
1 3 acceptor
1 4 acceptor
1 5 cation
1 5 donor
1 6 donor
1 7 acceptor
5 1 8 9 10 12 rings
6 3 11 13 14 16 17 rings
6 7 19 20 21 22 23 rings

> <PUBCHEM_HEAVY_ATOM_COUNT>
23

> <PUBCHEM_ATOM_DEF_STEREO_COUNT>
3

> <PUBCHEM_ATOM_UDEF_STEREO_COUNT>
0

> <PUBCHEM_BOND_DEF_STEREO_COUNT>
0

> <PUBCHEM_BOND_UDEF_STEREO_COUNT>
0

> <PUBCHEM_ISOTOPIC_ATOM_COUNT>
0

> <PUBCHEM_COMPONENT_COUNT>
1

> <PUBCHEM_CACTVS_TAUTO_COUNT>
2

> <PUBCHEM_CONFORMER_ID>
0480999500000001

> <PUBCHEM_MMFF94_ENERGY>
47.1573

> <PUBCHEM_FEATURE_SELFOVERLAP>
60.898

> <PUBCHEM_SHAPE_FINGERPRINT>
10 15 17458347450422475229
10554248 39 17701808900220659271
106641 1 18260554450617120427
10670039 82 14117527514701706995
10906281 52 18340781397988664727
117890 112 18343019990862388502
11991303 11 13326559779272317405
12166972 35 12895067444330115227
125118 31 18262516992393716493
12555020 224 10447923971254054573
12596602 18 16081085978578158884
12616971 3 16950279659152680062
12670543 26 12895075098177834515
12760667 363 8358261449272459711
12954195 1 10591779665969778211
13533116 47 18269837528132275286
13668630 136 9583515417345318797
13673619 4 7925914776806673318
13685833 64 11818994080438019788
13782708 43 10881400945593790887
13862211 1 8646769988880798517
14251752 14 13326856612740009997
14251764 18 18333732446740066135
14347332 77 10015598189624733618
14528608 73 16558746814890078534
14933364 13 16487538048419172937
15048467 5 18202282502549122017
15183329 4 13902196975632171234
15188451 53 13045941317422810262
15348495 7 16588314924718708297
15706992 2 17988378030588859833
15716309 27 13695871432863417525
1768 124 13695863723408184768
17980427 23 18188490297346922374
190975 80 16950571020806197081
2026 5 11602818017270909929
20281389 69 18343018865575727649
21033648 29 17917418891843275040
21150785 3 15626501705220595709
21424621 283 18201165356302554707
21637258 2 11818995196982037943
22061861 79 12103844553239900273
221357 26 14764630811516936882
2215653 11 12247679379110043628
22224240 67 18260550018121485819
23081809 10 17774995757272800991
23198884 109 16559034883110898565
29717793 49 9799690407024716226
300161 21 18410852165957181583
3004659 81 11024106560348497766
3472631 163 17775001340920072788
4058900 60 15913061880344530383
4340502 62 16588023502771632026
445580 37 16415484839843496049
465052 167 7997679926431193594
5104073 3 17678175099972169600
543368 44 17989487403777817713
559249 180 12901545741946353681
5758199 1 18343023277171713915
59682541 35 17676492782261537649
59682541 52 14117524229542166644
59755656 215 11240004446800968876
6438161 24 11743842431021233812

> <PUBCHEM_SHAPE_MULTIPOLES>
434.91
20.92
1.63
1.38
2.35
0.43
0.25
-13.4
2.53
-0.53
0.28
0.02
-0.22
-0.4

> <PUBCHEM_SHAPE_SELFOVERLAP>
907.771

> <PUBCHEM_SHAPE_VOLUME>
244.8

> <PUBCHEM_COORDINATE_TYPE>
2
5
10

$$$$
