51136669
  -OEChem-12032416143D

 57 59  0     1  0  0  0  0  0999 V2000
    5.5097    2.6888   -1.7312 O   0  0  0  0  0  0  0  0  0  0  0  0
    0.8511   -3.9326   -0.4042 O   0  0  0  0  0  0  0  0  0  0  0  0
    6.0635    0.8193   -0.5570 O   0  0  0  0  0  0  0  0  0  0  0  0
   -5.6312    0.6099   -1.1720 O   0  0  0  0  0  0  0  0  0  0  0  0
    1.7340   -2.0559    0.6327 N   0  0  0  0  0  0  0  0  0  0  0  0
   -0.0477    2.0102    1.6340 N   0  0  0  0  0  0  0  0  0  0  0  0
   -0.5162   -2.7011    0.9642 N   0  0  0  0  0  0  0  0  0  0  0  0
    1.9721    0.4093    0.7392 C   0  0  2  0  0  0  0  0  0  0  0  0
    3.3548    0.2702    0.0488 C   0  0  1  0  0  0  0  0  0  0  0  0
    3.4468   -1.0160   -0.7922 C   0  0  0  0  0  0  0  0  0  0  0  0
    1.6500   -0.8811    1.5125 C   0  0  0  0  0  0  0  0  0  0  0  0
    0.8278    0.7587   -0.2194 C   0  0  0  0  0  0  0  0  0  0  0  0
    3.0503   -2.2466    0.0221 C   0  0  0  0  0  0  0  0  0  0  0  0
    3.7319    1.4908   -0.7903 C   0  0  0  0  0  0  0  0  0  0  0  0
   -0.3226    1.3595    0.5519 C   0  0  0  0  0  0  0  0  0  0  0  0
    0.7015   -2.9642    0.3484 C   0  0  0  0  0  0  0  0  0  0  0  0
   -1.7037    1.1702    0.0396 C   0  0  0  0  0  0  0  0  0  0  0  0
    5.2193    1.5909   -0.9871 C   0  0  0  0  0  0  0  0  0  0  0  0
   -2.7485    1.3881    0.9466 C   0  0  0  0  0  0  0  0  0  0  0  0
   -2.4106    1.7771    2.3551 C   0  0  0  0  0  0  0  0  0  0  0  0
   -1.1590    2.6452    2.3505 C   0  0  0  0  0  0  0  0  0  0  0  0
   -1.9752    0.7802   -1.2732 C   0  0  0  0  0  0  0  0  0  0  0  0
   -4.0700    1.1875    0.5380 C   0  0  0  0  0  0  0  0  0  0  0  0
   -1.6766   -3.5399    0.7634 C   0  0  0  0  0  0  0  0  0  0  0  0
   -3.2987    0.5976   -1.6763 C   0  0  0  0  0  0  0  0  0  0  0  0
   -4.3431    0.7977   -0.7732 C   0  0  0  0  0  0  0  0  0  0  0  0
   -2.3702   -3.2229   -0.5452 C   0  0  0  0  0  0  0  0  0  0  0  0
   -5.8395    0.2093   -2.5254 C   0  0  0  0  0  0  0  0  0  0  0  0
    2.1071    1.2072    1.4801 H   0  0  0  0  0  0  0  0  0  0  0  0
    4.0885    0.1705    0.8627 H   0  0  0  0  0  0  0  0  0  0  0  0
    2.7826   -0.9351   -1.6623 H   0  0  0  0  0  0  0  0  0  0  0  0
    4.4609   -1.1599   -1.1803 H   0  0  0  0  0  0  0  0  0  0  0  0
    2.3990   -1.0313    2.3012 H   0  0  0  0  0  0  0  0  0  0  0  0
    0.6964   -0.7926    2.0305 H   0  0  0  0  0  0  0  0  0  0  0  0
    0.5129   -0.1238   -0.7825 H   0  0  0  0  0  0  0  0  0  0  0  0
    1.1309    1.5229   -0.9424 H   0  0  0  0  0  0  0  0  0  0  0  0
    3.0631   -3.1321   -0.6208 H   0  0  0  0  0  0  0  0  0  0  0  0
    3.7693   -2.4206    0.8314 H   0  0  0  0  0  0  0  0  0  0  0  0
    3.2561    1.4546   -1.7764 H   0  0  0  0  0  0  0  0  0  0  0  0
    3.4167    2.4057   -0.2746 H   0  0  0  0  0  0  0  0  0  0  0  0
   -2.2427    0.8655    2.9412 H   0  0  0  0  0  0  0  0  0  0  0  0
   -3.2355    2.3314    2.8164 H   0  0  0  0  0  0  0  0  0  0  0  0
   -0.8475    2.8306    3.3842 H   0  0  0  0  0  0  0  0  0  0  0  0
   -1.3620    3.6237    1.8975 H   0  0  0  0  0  0  0  0  0  0  0  0
   -0.6610   -1.8720    1.5221 H   0  0  0  0  0  0  0  0  0  0  0  0
   -1.1854    0.6263   -2.0015 H   0  0  0  0  0  0  0  0  0  0  0  0
   -4.8874    1.3357    1.2392 H   0  0  0  0  0  0  0  0  0  0  0  0
   -2.3554   -3.3689    1.6048 H   0  0  0  0  0  0  0  0  0  0  0  0
   -1.3650   -4.5896    0.7807 H   0  0  0  0  0  0  0  0  0  0  0  0
    6.4745    2.7852   -1.8798 H   0  0  0  0  0  0  0  0  0  0  0  0
   -3.4439    0.2976   -2.7087 H   0  0  0  0  0  0  0  0  0  0  0  0
   -3.2442   -3.8677   -0.6789 H   0  0  0  0  0  0  0  0  0  0  0  0
   -1.7037   -3.3696   -1.4011 H   0  0  0  0  0  0  0  0  0  0  0  0
   -2.7098   -2.1837   -0.5613 H   0  0  0  0  0  0  0  0  0  0  0  0
   -6.9200    0.1053   -2.6689 H   0  0  0  0  0  0  0  0  0  0  0  0
   -5.3947   -0.7710   -2.7280 H   0  0  0  0  0  0  0  0  0  0  0  0
   -5.4961    0.9750   -3.2293 H   0  0  0  0  0  0  0  0  0  0  0  0
  1 18  1  0  0  0  0
  1 50  1  0  0  0  0
  2 16  2  0  0  0  0
  3 18  2  0  0  0  0
  4 26  1  0  0  0  0
  4 28  1  0  0  0  0
  5 11  1  0  0  0  0
  5 13  1  0  0  0  0
  5 16  1  0  0  0  0
  6 15  2  0  0  0  0
  6 21  1  0  0  0  0
  7 16  1  0  0  0  0
  7 24  1  0  0  0  0
  7 45  1  0  0  0  0
  8  9  1  0  0  0  0
  8 11  1  0  0  0  0
  8 12  1  0  0  0  0
  8 29  1  0  0  0  0
  9 10  1  0  0  0  0
  9 14  1  0  0  0  0
  9 30  1  0  0  0  0
 10 13  1  0  0  0  0
 10 31  1  0  0  0  0
 10 32  1  0  0  0  0
 11 33  1  0  0  0  0
 11 34  1  0  0  0  0
 12 15  1  0  0  0  0
 12 35  1  0  0  0  0
 12 36  1  0  0  0  0
 13 37  1  0  0  0  0
 13 38  1  0  0  0  0
 14 18  1  0  0  0  0
 14 39  1  0  0  0  0
 14 40  1  0  0  0  0
 15 17  1  0  0  0  0
 17 19  2  0  0  0  0
 17 22  1  0  0  0  0
 19 20  1  0  0  0  0
 19 23  1  0  0  0  0
 20 21  1  0  0  0  0
 20 41  1  0  0  0  0
 20 42  1  0  0  0  0
 21 43  1  0  0  0  0
 21 44  1  0  0  0  0
 22 25  2  0  0  0  0
 22 46  1  0  0  0  0
 23 26  2  0  0  0  0
 23 47  1  0  0  0  0
 24 27  1  0  0  0  0
 24 48  1  0  0  0  0
 24 49  1  0  0  0  0
 25 26  1  0  0  0  0
 25 51  1  0  0  0  0
 27 52  1  0  0  0  0
 27 53  1  0  0  0  0
 27 54  1  0  0  0  0
 28 55  1  0  0  0  0
 28 56  1  0  0  0  0
 28 57  1  0  0  0  0
M  END
> <PUBCHEM_COMPOUND_CID>
51136669

> <PUBCHEM_CONFORMER_RMSD>
1

> <PUBCHEM_CONFORMER_DIVERSEORDER>
1
66
40
41
48
12
69
32
44
11
62
53
31
39
49
27
60
63
24
19
54
67
68
38
8
71
50
37
3
45
57
75
52
22
55
7
20
29
64
59
76
65
21
26
10
34
28
56
77
43
78
2
25
74
14
33
13
4
18
36
16
46
72
6
73
5
23
42
70
51
15
35
47
9
30
61
58
17

> <PUBCHEM_MMFF94_PARTIAL_CHARGES>
29
1 -0.65
11 0.3
12 0.06
13 0.3
14 0.06
15 0.3
16 0.69
17 0.09
18 0.66
19 -0.14
2 -0.57
20 0.14
21 0.25
22 -0.15
23 -0.15
24 0.3
25 -0.15
26 0.08
28 0.28
3 -0.57
4 -0.36
45 0.37
46 0.15
47 0.15
5 -0.66
50 0.5
51 0.15
6 -0.7
7 -0.73

> <PUBCHEM_EFFECTIVE_ROTOR_COUNT>
9.6

> <PUBCHEM_PHARMACOPHORE_FEATURES>
10
1 1 acceptor
1 2 acceptor
1 3 acceptor
1 4 acceptor
1 6 acceptor
1 7 donor
3 1 3 18 anion
6 17 19 22 23 25 26 rings
6 5 8 9 10 11 13 rings
6 6 15 17 19 20 21 rings

> <PUBCHEM_HEAVY_ATOM_COUNT>
28

> <PUBCHEM_ATOM_DEF_STEREO_COUNT>
2

> <PUBCHEM_ATOM_UDEF_STEREO_COUNT>
0

> <PUBCHEM_BOND_DEF_STEREO_COUNT>
0

> <PUBCHEM_BOND_UDEF_STEREO_COUNT>
0

> <PUBCHEM_ISOTOPIC_ATOM_COUNT>
0

> <PUBCHEM_COMPONENT_COUNT>
1

> <PUBCHEM_CACTVS_TAUTO_COUNT>
2

> <PUBCHEM_CONFORMER_ID>
030C489D00000001

> <PUBCHEM_MMFF94_ENERGY>
71.3398

> <PUBCHEM_FEATURE_SELFOVERLAP>
50.83

> <PUBCHEM_SHAPE_FINGERPRINT>
11069576 57 18125987287687648455
11135609 187 18410571778050574585
12553582 1 17131250416661728237
12788726 201 17775287119274730993
13583140 156 17023189297429354256
1361 2 18113611275347549821
13911987 19 18188223086400115732
14114206 34 18059274501651348877
14251757 5 18194969766556140178
14767858 380 18343300383396824268
14787075 74 18272366452056827853
14931854 50 18343010095706021655
15537594 2 17989209218424555953
17138139 8 18128232653872263855
17492 54 18336536175531407319
19319366 153 18340754975371569567
21033650 10 17272324317427176672
21236236 1 18264215888582749582
23419403 2 16986038070705156808
238 59 17971185937352922179
4409770 3 18195536006850136170
463206 1 18200010886526830191
469060 322 17314809591988035819
5171179 24 17554325100258607680
6287921 2 17411336521292617015
7097593 13 17264693508332954851

> <PUBCHEM_SHAPE_MULTIPOLES>
537.81
10.75
4.08
1.99
2.69
4.68
-0.11
-6.05
8.24
0.88
-1.11
-1.83
-1.28
-1.88

> <PUBCHEM_SHAPE_SELFOVERLAP>
1125.382

> <PUBCHEM_SHAPE_VOLUME>
301.8

> <PUBCHEM_COORDINATE_TYPE>
2
5
10

$$$$
