75368618
  -OEChem-12032416383D

 52 55  0     1  0  0  0  0  0999 V2000
    2.5323    3.2492   -0.0627 O   0  0  0  0  0  0  0  0  0  0  0  0
    5.9605   -2.8248    1.1924 O   0  0  0  0  0  0  0  0  0  0  0  0
    0.3561    2.3659   -0.1178 N   0  0  0  0  0  0  0  0  0  0  0  0
   -2.1396    1.4745    0.8244 N   0  0  2  0  0  0  0  0  0  0  0  0
    1.9427    1.3635   -1.3514 N   0  0  0  0  0  0  0  0  0  0  0  0
   -5.3408   -4.2780   -0.7085 N   0  0  0  0  0  0  0  0  0  0  0  0
   -0.3533    1.3477   -0.8639 C   0  0  2  0  0  0  0  0  0  0  0  0
   -1.2725    0.5527    0.0627 C   0  0  0  0  0  0  0  0  0  0  0  0
    0.7622    0.5327   -1.5154 C   0  0  0  0  0  0  0  0  0  0  0  0
   -0.3821    3.2317    0.7780 C   0  0  0  0  0  0  0  0  0  0  0  0
   -1.3321    2.4006    1.6440 C   0  0  0  0  0  0  0  0  0  0  0  0
    1.7126    2.4330   -0.4627 C   0  0  0  0  0  0  0  0  0  0  0  0
   -3.0652    0.7210    1.6700 C   0  0  0  0  0  0  0  0  0  0  0  0
    3.2183    1.0057   -1.9313 C   0  0  0  0  0  0  0  0  0  0  0  0
   -4.2056    0.1457    0.8808 C   0  0  0  0  0  0  0  0  0  0  0  0
    3.9471   -0.0117   -1.1018 C   0  0  0  0  0  0  0  0  0  0  0  0
   -4.2308   -1.2163    0.5807 C   0  0  0  0  0  0  0  0  0  0  0  0
   -5.2413    0.9743    0.4488 C   0  0  0  0  0  0  0  0  0  0  0  0
    4.5713    0.3735    0.0847 C   0  0  0  0  0  0  0  0  0  0  0  0
    3.9999   -1.3422   -1.5177 C   0  0  0  0  0  0  0  0  0  0  0  0
   -5.2917   -1.7497   -0.1514 C   0  0  0  0  0  0  0  0  0  0  0  0
   -6.3023    0.4409   -0.2830 C   0  0  0  0  0  0  0  0  0  0  0  0
    5.2478   -0.5718    0.8557 C   0  0  0  0  0  0  0  0  0  0  0  0
    4.6768   -2.2875   -0.7467 C   0  0  0  0  0  0  0  0  0  0  0  0
    5.3006   -1.9023    0.4399 C   0  0  0  0  0  0  0  0  0  0  0  0
   -6.3274   -0.9211   -0.5833 C   0  0  0  0  0  0  0  0  0  0  0  0
   -5.3187   -3.1448   -0.4588 C   0  0  0  0  0  0  0  0  0  0  0  0
    6.5754   -2.3624    2.3941 C   0  0  0  0  0  0  0  0  0  0  0  0
   -0.9398    1.8652   -1.6345 H   0  0  0  0  0  0  0  0  0  0  0  0
   -1.8641   -0.1269   -0.5601 H   0  0  0  0  0  0  0  0  0  0  0  0
   -0.6782   -0.0631    0.7515 H   0  0  0  0  0  0  0  0  0  0  0  0
    0.5729    0.3550   -2.5783 H   0  0  0  0  0  0  0  0  0  0  0  0
    0.9356   -0.4227   -1.0099 H   0  0  0  0  0  0  0  0  0  0  0  0
   -0.9452    3.9380    0.1571 H   0  0  0  0  0  0  0  0  0  0  0  0
    0.3178    3.8048    1.3942 H   0  0  0  0  0  0  0  0  0  0  0  0
   -0.7500    1.8371    2.3855 H   0  0  0  0  0  0  0  0  0  0  0  0
   -1.9850    3.0900    2.1925 H   0  0  0  0  0  0  0  0  0  0  0  0
   -3.5125    1.3813    2.4265 H   0  0  0  0  0  0  0  0  0  0  0  0
   -2.5471   -0.0595    2.2440 H   0  0  0  0  0  0  0  0  0  0  0  0
    3.8351    1.9097   -2.0053 H   0  0  0  0  0  0  0  0  0  0  0  0
    3.0492    0.6506   -2.9542 H   0  0  0  0  0  0  0  0  0  0  0  0
   -3.4222   -1.8615    0.9183 H   0  0  0  0  0  0  0  0  0  0  0  0
   -5.2335    2.0371    0.6764 H   0  0  0  0  0  0  0  0  0  0  0  0
    4.5444    1.4070    0.4181 H   0  0  0  0  0  0  0  0  0  0  0  0
    3.5161   -1.6560   -2.4388 H   0  0  0  0  0  0  0  0  0  0  0  0
   -7.1087    1.0861   -0.6192 H   0  0  0  0  0  0  0  0  0  0  0  0
    5.7110   -0.2043    1.7650 H   0  0  0  0  0  0  0  0  0  0  0  0
    4.7139   -3.3225   -1.0753 H   0  0  0  0  0  0  0  0  0  0  0  0
   -7.1612   -1.3219   -1.1547 H   0  0  0  0  0  0  0  0  0  0  0  0
    7.0536   -3.2270    2.8659 H   0  0  0  0  0  0  0  0  0  0  0  0
    5.8341   -1.9802    3.1042 H   0  0  0  0  0  0  0  0  0  0  0  0
    7.3662   -1.6334    2.1868 H   0  0  0  0  0  0  0  0  0  0  0  0
  1 12  2  0  0  0  0
  2 25  1  0  0  0  0
  2 28  1  0  0  0  0
  3  7  1  0  0  0  0
  3 10  1  0  0  0  0
  3 12  1  0  0  0  0
  4  8  1  0  0  0  0
  4 11  1  0  0  0  0
  4 13  1  0  0  0  0
  5  9  1  0  0  0  0
  5 12  1  0  0  0  0
  5 14  1  0  0  0  0
  6 27  3  0  0  0  0
  7  8  1  0  0  0  0
  7  9  1  0  0  0  0
  7 29  1  0  0  0  0
  8 30  1  0  0  0  0
  8 31  1  0  0  0  0
  9 32  1  0  0  0  0
  9 33  1  0  0  0  0
 10 11  1  0  0  0  0
 10 34  1  0  0  0  0
 10 35  1  0  0  0  0
 11 36  1  0  0  0  0
 11 37  1  0  0  0  0
 13 15  1  0  0  0  0
 13 38  1  0  0  0  0
 13 39  1  0  0  0  0
 14 16  1  0  0  0  0
 14 40  1  0  0  0  0
 14 41  1  0  0  0  0
 15 17  2  0  0  0  0
 15 18  1  0  0  0  0
 16 19  2  0  0  0  0
 16 20  1  0  0  0  0
 17 21  1  0  0  0  0
 17 42  1  0  0  0  0
 18 22  2  0  0  0  0
 18 43  1  0  0  0  0
 19 23  1  0  0  0  0
 19 44  1  0  0  0  0
 20 24  2  0  0  0  0
 20 45  1  0  0  0  0
 21 26  2  0  0  0  0
 21 27  1  0  0  0  0
 22 26  1  0  0  0  0
 22 46  1  0  0  0  0
 23 25  2  0  0  0  0
 23 47  1  0  0  0  0
 24 25  1  0  0  0  0
 24 48  1  0  0  0  0
 26 49  1  0  0  0  0
 28 50  1  0  0  0  0
 28 51  1  0  0  0  0
 28 52  1  0  0  0  0
M  END
> <PUBCHEM_COMPOUND_CID>
75368618

> <PUBCHEM_CONFORMER_RMSD>
0.8

> <PUBCHEM_CONFORMER_DIVERSEORDER>
1
83
125
72
214
204
165
5
152
54
102
56
183
76
121
200
92
191
139
90
189
65
87
77
96
66
95
211
166
150
153
70
195
140
196
167
23
201
202
149
69
187
55
58
106
116
178
192
21
161
81
172
131
198
32
29
154
156
138
103
190
134
147
180
107
193
18
162
194
109
119
118
158
151
98
110
6
129
34
73
74
127
75
173
208
91
174
45
199
94
39
203
212
20
132
207
197
186
104
137
145
89
144
13
105
128
163
168
47
27
176
71
78
61
181
179
93
38
68
142
41
135
146
12
124
122
164
99
57
133
184
126
49
48
155
136
9
120
44
210
50
108
17
185
160
141
206
97
112
111
36
53
59
79
171
209
188
80
28
115
40
30
51
159
15
148
101
26
31
182
85
35
42
10
205
24
170
2
60
52
113
62
64
67
63
100
213
43
37
86
22
82
123
130
157
14
117
16
4
177
175
143
88
8
169
11
84
46
114
25
19
33
3
7

> <PUBCHEM_MMFF94_PARTIAL_CHARGES>
36
1 -0.57
10 0.3
11 0.27
12 0.69
13 0.41
14 0.44
15 -0.14
16 -0.14
17 -0.15
18 -0.15
19 -0.15
2 -0.36
20 -0.15
21 0.07
22 -0.15
23 -0.15
24 -0.15
25 0.08
26 -0.15
27 0.48
28 0.28
3 -0.66
4 -0.81
42 0.15
43 0.15
44 0.15
45 0.15
46 0.15
47 0.15
48 0.15
49 0.15
5 -0.66
6 -0.56
7 0.3
8 0.27
9 0.3

> <PUBCHEM_EFFECTIVE_ROTOR_COUNT>
6.2

> <PUBCHEM_PHARMACOPHORE_FEATURES>
8
1 1 acceptor
1 2 acceptor
1 4 cation
1 6 acceptor
5 3 5 7 9 12 rings
6 15 17 18 21 22 26 rings
6 16 19 20 23 24 25 rings
6 3 4 7 8 10 11 rings

> <PUBCHEM_HEAVY_ATOM_COUNT>
28

> <PUBCHEM_ATOM_DEF_STEREO_COUNT>
1

> <PUBCHEM_ATOM_UDEF_STEREO_COUNT>
0

> <PUBCHEM_BOND_DEF_STEREO_COUNT>
0

> <PUBCHEM_BOND_UDEF_STEREO_COUNT>
0

> <PUBCHEM_ISOTOPIC_ATOM_COUNT>
0

> <PUBCHEM_COMPONENT_COUNT>
1

> <PUBCHEM_CACTVS_TAUTO_COUNT>
1

> <PUBCHEM_CONFORMER_ID>
047E08AA00000001

> <PUBCHEM_MMFF94_ENERGY>
75.4219

> <PUBCHEM_FEATURE_SELFOVERLAP>
40.693

> <PUBCHEM_SHAPE_FINGERPRINT>
10074138 170 17344089385268289705
10721379 63 8141821499330717720
11211813 140 18188476987180390282
11963148 33 17551224503813693775
1200032 147 12103555417028022558
12422481 6 17060346192940683677
13165053 182 11380968534154434762
13533116 47 18335424569260278400
13782708 43 18041288776628092123
13885169 86 12247094451867498210
14068700 675 18409164385665035320
14211702 104 18339086015942572931
14251751 18 18409446998934556317
14347332 77 18269279131281888319
14848178 5 18341899584308329781
15163728 17 10159684803715952576
15183329 4 15502376712126596053
15188451 53 18338513037155534760
15475509 8 15357701838451812573
15728490 51 18343302604807039246
16120349 67 9655286082077443706
17857418 61 18409737261292996333
18222031 100 18341346508711867948
19438510 23 11743254218149376438
20028762 73 18410857621083274646
20567600 234 15626216927071181841
20567600 70 18271811267182796517
21033648 29 15625949694812537065
21302155 148 8574444110275637447
21458453 9 15840688820510571058
21585480 29 16916769816975945342
23559900 14 18271802480413302481
23572383 38 18059866030306199183
260245 28 18335974294535649019
2838139 119 10665233691335012468
3004659 81 18336277798503803804
312425 54 17416700045927667947
376196 1 14566788176549644132
3886686 26 17192079557385605234
4258327 124 9078848368527735451
437795 139 18272369827975554011
50009960 94 18265876111990945290
5085150 59 18060138713849072567
5104073 3 17774173417391468497
531348 171 18187364312479353085
613672 6 17775015578810460381
6201320 77 17245014841085366699
7808743 9 8069739655495590061
7970288 3 18339929203721683318
96874 4 18334569135949457682

> <PUBCHEM_SHAPE_MULTIPOLES>
544.56
17.88
4.14
1.7
2.76
1.51
0.31
18.44
3.18
0.89
0.39
-2.25
0.18
-3.41

> <PUBCHEM_SHAPE_SELFOVERLAP>
1169.325

> <PUBCHEM_SHAPE_VOLUME>
300.1

> <PUBCHEM_COORDINATE_TYPE>
2
5
10

$$$$
