9420609
  -OEChem-12032416213D

 74 79  0     1  0  0  0  0  0999 V2000
   -2.3268   -0.8682    1.7698 O   0  0  0  0  0  0  0  0  0  0  0  0
    5.2433    3.4246    0.3123 O   0  0  0  0  0  0  0  0  0  0  0  0
   -0.4410    4.1653    1.7993 O   0  0  0  0  0  0  0  0  0  0  0  0
    2.3027   -1.9589    0.1805 N   0  0  2  0  0  0  0  0  0  0  0  0
   -0.8387   -2.2641    0.6408 N   0  0  0  0  0  0  0  0  0  0  0  0
    4.8829    1.3040   -0.5660 N   0  0  0  0  0  0  0  0  0  0  0  0
   -1.6453    2.1855    0.1467 N   0  0  0  0  0  0  0  0  0  0  0  0
    1.1117   -3.4444    1.8119 C   0  0  1  0  0  0  0  0  0  0  0  0
    0.7613   -3.7683   -0.5897 C   0  0  2  0  0  0  0  0  0  0  0  0
    0.9214   -4.5060    0.7366 C   0  0  0  0  0  0  0  0  0  0  0  0
    2.3631   -2.5959    1.5018 C   0  0  0  0  0  0  0  0  0  0  0  0
    2.0363   -2.9434   -0.8790 C   0  0  0  0  0  0  0  0  0  0  0  0
    3.5259   -1.2099   -0.0968 C   0  0  0  0  0  0  0  0  0  0  0  0
   -0.1658   -2.5992    1.9040 C   0  0  0  0  0  0  0  0  0  0  0  0
   -0.4587   -2.8664   -0.5608 C   0  0  0  0  0  0  0  0  0  0  0  0
    3.3946   -0.4628   -1.4305 C   0  0  0  0  0  0  0  0  0  0  0  0
    3.8099   -0.2244    1.0439 C   0  0  0  0  0  0  0  0  0  0  0  0
    4.6258    0.4032   -1.6966 C   0  0  0  0  0  0  0  0  0  0  0  0
    5.0321    0.6365    0.7289 C   0  0  0  0  0  0  0  0  0  0  0  0
   -1.1581   -2.6323   -1.6825 C   0  0  0  0  0  0  0  0  0  0  0  0
   -1.9417   -1.3915    0.7228 C   0  0  0  0  0  0  0  0  0  0  0  0
   -2.6853   -1.1211   -0.5577 C   0  0  0  0  0  0  0  0  0  0  0  0
   -2.2835   -1.7412   -1.6774 C   0  0  0  0  0  0  0  0  0  0  0  0
    5.0272    2.6882   -0.6539 C   0  0  0  0  0  0  0  0  0  0  0  0
   -3.8267   -0.1903   -0.5959 C   0  0  0  0  0  0  0  0  0  0  0  0
   -3.6478    1.1720   -0.8476 C   0  0  0  0  0  0  0  0  0  0  0  0
    4.9042    3.2945   -2.0288 C   0  0  0  0  0  0  0  0  0  0  0  0
   -5.1116   -0.6910   -0.3743 C   0  0  0  0  0  0  0  0  0  0  0  0
   -2.2889    1.7462   -1.0896 C   0  0  0  0  0  0  0  0  0  0  0  0
   -4.7482    2.0287   -0.8777 C   0  0  0  0  0  0  0  0  0  0  0  0
   -6.2119    0.1659   -0.4042 C   0  0  0  0  0  0  0  0  0  0  0  0
   -2.4467    3.2221    0.8122 C   0  0  0  0  0  0  0  0  0  0  0  0
   -0.2913    2.6902   -0.1208 C   0  0  0  0  0  0  0  0  0  0  0  0
   -6.0302    1.5257   -0.6558 C   0  0  0  0  0  0  0  0  0  0  0  0
   -1.7494    3.6737    2.0923 C   0  0  0  0  0  0  0  0  0  0  0  0
    0.3550    3.1533    1.1818 C   0  0  0  0  0  0  0  0  0  0  0  0
    1.2735   -3.9311    2.7819 H   0  0  0  0  0  0  0  0  0  0  0  0
    0.6473   -4.5180   -1.3839 H   0  0  0  0  0  0  0  0  0  0  0  0
    1.7887   -5.1766    0.7012 H   0  0  0  0  0  0  0  0  0  0  0  0
    0.0424   -5.1264    0.9513 H   0  0  0  0  0  0  0  0  0  0  0  0
    2.4082   -1.8530    2.3041 H   0  0  0  0  0  0  0  0  0  0  0  0
    3.2543   -3.2326    1.5845 H   0  0  0  0  0  0  0  0  0  0  0  0
    1.8707   -2.4597   -1.8464 H   0  0  0  0  0  0  0  0  0  0  0  0
    2.8880   -3.6272   -0.9958 H   0  0  0  0  0  0  0  0  0  0  0  0
    4.3788   -1.9004   -0.1697 H   0  0  0  0  0  0  0  0  0  0  0  0
   -0.9081   -3.1529    2.4953 H   0  0  0  0  0  0  0  0  0  0  0  0
    0.0238   -1.6694    2.4551 H   0  0  0  0  0  0  0  0  0  0  0  0
    3.3115   -1.1436   -2.2829 H   0  0  0  0  0  0  0  0  0  0  0  0
    2.4998    0.1738   -1.4216 H   0  0  0  0  0  0  0  0  0  0  0  0
    2.9419    0.4274    1.2102 H   0  0  0  0  0  0  0  0  0  0  0  0
    4.0389   -0.7315    1.9864 H   0  0  0  0  0  0  0  0  0  0  0  0
    5.5165   -0.2248   -1.8184 H   0  0  0  0  0  0  0  0  0  0  0  0
    4.4865    0.9499   -2.6308 H   0  0  0  0  0  0  0  0  0  0  0  0
    5.1850    1.3677    1.5290 H   0  0  0  0  0  0  0  0  0  0  0  0
    5.9356    0.0172    0.6748 H   0  0  0  0  0  0  0  0  0  0  0  0
   -0.8804   -3.0822   -2.6299 H   0  0  0  0  0  0  0  0  0  0  0  0
   -2.7838   -1.5797   -2.6279 H   0  0  0  0  0  0  0  0  0  0  0  0
    5.6644    2.8795   -2.6959 H   0  0  0  0  0  0  0  0  0  0  0  0
    3.9025    3.1185   -2.4301 H   0  0  0  0  0  0  0  0  0  0  0  0
    5.0612    4.3757   -1.9651 H   0  0  0  0  0  0  0  0  0  0  0  0
   -5.2718   -1.7482   -0.1757 H   0  0  0  0  0  0  0  0  0  0  0  0
   -1.6525    1.0209   -1.6095 H   0  0  0  0  0  0  0  0  0  0  0  0
   -2.3743    2.5832   -1.7985 H   0  0  0  0  0  0  0  0  0  0  0  0
   -4.6308    3.0887   -1.0874 H   0  0  0  0  0  0  0  0  0  0  0  0
   -7.2102   -0.2256   -0.2321 H   0  0  0  0  0  0  0  0  0  0  0  0
   -3.4233    2.8492    1.1311 H   0  0  0  0  0  0  0  0  0  0  0  0
   -2.5903    4.0868    0.1515 H   0  0  0  0  0  0  0  0  0  0  0  0
   -0.3297    3.5295   -0.8273 H   0  0  0  0  0  0  0  0  0  0  0  0
    0.3285    1.9013   -0.5623 H   0  0  0  0  0  0  0  0  0  0  0  0
   -6.8873    2.1922   -0.6825 H   0  0  0  0  0  0  0  0  0  0  0  0
   -2.3137    4.4882    2.5578 H   0  0  0  0  0  0  0  0  0  0  0  0
   -1.6784    2.8592    2.8238 H   0  0  0  0  0  0  0  0  0  0  0  0
    0.4965    2.3201    1.8812 H   0  0  0  0  0  0  0  0  0  0  0  0
    1.3407    3.5832    0.9762 H   0  0  0  0  0  0  0  0  0  0  0  0
  1 21  2  0  0  0  0
  2 24  2  0  0  0  0
  3 35  1  0  0  0  0
  3 36  1  0  0  0  0
  4 11  1  0  0  0  0
  4 12  1  0  0  0  0
  4 13  1  0  0  0  0
  5 14  1  0  0  0  0
  5 15  1  0  0  0  0
  5 21  1  0  0  0  0
  6 18  1  0  0  0  0
  6 19  1  0  0  0  0
  6 24  1  0  0  0  0
  7 29  1  0  0  0  0
  7 32  1  0  0  0  0
  7 33  1  0  0  0  0
  8 10  1  0  0  0  0
  8 11  1  0  0  0  0
  8 14  1  0  0  0  0
  8 37  1  0  0  0  0
  9 10  1  0  0  0  0
  9 12  1  0  0  0  0
  9 15  1  0  0  0  0
  9 38  1  0  0  0  0
 10 39  1  0  0  0  0
 10 40  1  0  0  0  0
 11 41  1  0  0  0  0
 11 42  1  0  0  0  0
 12 43  1  0  0  0  0
 12 44  1  0  0  0  0
 13 16  1  0  0  0  0
 13 17  1  0  0  0  0
 13 45  1  0  0  0  0
 14 46  1  0  0  0  0
 14 47  1  0  0  0  0
 15 20  2  0  0  0  0
 16 18  1  0  0  0  0
 16 48  1  0  0  0  0
 16 49  1  0  0  0  0
 17 19  1  0  0  0  0
 17 50  1  0  0  0  0
 17 51  1  0  0  0  0
 18 52  1  0  0  0  0
 18 53  1  0  0  0  0
 19 54  1  0  0  0  0
 19 55  1  0  0  0  0
 20 23  1  0  0  0  0
 20 56  1  0  0  0  0
 21 22  1  0  0  0  0
 22 23  2  0  0  0  0
 22 25  1  0  0  0  0
 23 57  1  0  0  0  0
 24 27  1  0  0  0  0
 25 26  1  0  0  0  0
 25 28  2  0  0  0  0
 26 29  1  0  0  0  0
 26 30  2  0  0  0  0
 27 58  1  0  0  0  0
 27 59  1  0  0  0  0
 27 60  1  0  0  0  0
 28 31  1  0  0  0  0
 28 61  1  0  0  0  0
 29 62  1  0  0  0  0
 29 63  1  0  0  0  0
 30 34  1  0  0  0  0
 30 64  1  0  0  0  0
 31 34  2  0  0  0  0
 31 65  1  0  0  0  0
 32 35  1  0  0  0  0
 32 66  1  0  0  0  0
 32 67  1  0  0  0  0
 33 36  1  0  0  0  0
 33 68  1  0  0  0  0
 33 69  1  0  0  0  0
 34 70  1  0  0  0  0
 35 71  1  0  0  0  0
 35 72  1  0  0  0  0
 36 73  1  0  0  0  0
 36 74  1  0  0  0  0
M  END
> <PUBCHEM_COMPOUND_CID>
9420609

> <PUBCHEM_CONFORMER_RMSD>
1

> <PUBCHEM_CONFORMER_DIVERSEORDER>
1
16
4
8
19
18
12
15
6
17
10
11
14
13
3
9
2
7
5

> <PUBCHEM_MMFF94_PARTIAL_CHARGES>
38
1 -0.57
11 0.27
12 0.27
13 0.27
14 0.3
15 -0.03
18 0.3
19 0.3
2 -0.57
20 -0.15
21 0.62
22 -0.01
23 -0.15
24 0.57
25 0.03
26 -0.14
27 0.06
28 -0.15
29 0.41
3 -0.56
30 -0.15
31 -0.15
32 0.27
33 0.27
34 -0.15
35 0.28
36 0.28
4 -0.81
5 -0.47
56 0.15
57 0.15
6 -0.66
61 0.15
64 0.15
65 0.15
7 -0.81
70 0.15
9 0.14

> <PUBCHEM_EFFECTIVE_ROTOR_COUNT>
8.4

> <PUBCHEM_PHARMACOPHORE_FEATURES>
11
1 1 acceptor
1 2 acceptor
1 3 acceptor
1 4 cation
1 7 cation
6 25 26 28 30 31 34 rings
6 3 7 32 33 35 36 rings
6 4 8 9 10 11 12 rings
6 5 15 20 21 22 23 rings
6 5 8 9 10 14 15 rings
6 6 13 16 17 18 19 rings

> <PUBCHEM_HEAVY_ATOM_COUNT>
36

> <PUBCHEM_ATOM_DEF_STEREO_COUNT>
2

> <PUBCHEM_ATOM_UDEF_STEREO_COUNT>
0

> <PUBCHEM_BOND_DEF_STEREO_COUNT>
0

> <PUBCHEM_BOND_UDEF_STEREO_COUNT>
0

> <PUBCHEM_ISOTOPIC_ATOM_COUNT>
0

> <PUBCHEM_COMPONENT_COUNT>
1

> <PUBCHEM_CACTVS_TAUTO_COUNT>
1

> <PUBCHEM_CONFORMER_ID>
008FBF4100000001

> <PUBCHEM_MMFF94_ENERGY>
92.4969

> <PUBCHEM_FEATURE_SELFOVERLAP>
57.377

> <PUBCHEM_SHAPE_FINGERPRINT>
10675989 125 18410291372172736364
11135609 187 18408885139998585593
12107698 1 18122621660993913214
12788726 201 18201722820923992585
13560911 43 17898001339854582570
1361 2 18259988179974250900
13617811 41 18337941342855473085
13761468 95 17761534595712701820
14114211 80 18272381900864664195
14251757 5 18121787385498327836
14725015 67 17617370027823188202
14790565 3 18410009953072454485
14840074 17 18201446844269746793
14849402 71 18114740413755315282
14932702 115 17907033007850212748
15001296 14 18267022756811087505
15890870 6 18409165545517091364
19319366 153 18335410266528669735
20764821 26 18197471069862848368
21133410 221 17266923782436159512
23559900 14 17764582119775598023
3298306 158 18409440397612098269
463206 1 17980765157796212204
50150288 127 17343533048899859441
508706 21 17764019564773791256
5171179 24 17481703478578879736
5265222 85 18118687853461492173
56638632 10 18126019380078468361
5895379 119 17622999093460306746
6036956 94 17324364498368334228
6287921 2 17336466342023726127
6371009 1 18338230467220724146
7288768 16 17749387126218205754

> <PUBCHEM_SHAPE_MULTIPOLES>
703.33
11.69
6.32
1.89
0.76
0.57
-0.32
9.45
4.37
-3.58
-1.88
-0.65
0.21
-1.97

> <PUBCHEM_SHAPE_SELFOVERLAP>
1518.584

> <PUBCHEM_SHAPE_VOLUME>
377.7

> <PUBCHEM_COORDINATE_TYPE>
2
5
10

$$$$
