11867502
  -OEChem-12032416373D

 62 67  0     1  0  0  0  0  0999 V2000
    0.2953    0.2834   -1.0716 O   0  0  0  0  0  0  0  0  0  0  0  0
   -1.5955   -1.7527    0.2829 O   0  0  0  0  0  0  0  0  0  0  0  0
    1.9666   -1.3873    0.3724 O   0  0  0  0  0  0  0  0  0  0  0  0
    2.5582    0.5073    1.5085 O   0  0  0  0  0  0  0  0  0  0  0  0
   -2.6755    1.6269   -0.6281 N   0  0  0  0  0  0  0  0  0  0  0  0
   -1.9249    2.7312   -0.6988 N   0  0  0  0  0  0  0  0  0  0  0  0
   -4.0275    3.2516   -0.1709 N   0  0  0  0  0  0  0  0  0  0  0  0
   -2.7588    3.7251   -0.4179 N   0  0  0  0  0  0  0  0  0  0  0  0
    4.1225   -0.7303    0.2833 N   0  0  0  0  0  0  0  0  0  0  0  0
   -8.1403   -1.7819    0.3110 N   0  0  0  0  0  0  0  0  0  0  0  0
   -1.4979   -0.3138    0.3684 C   0  0  1  0  0  0  0  0  0  0  0  0
   -0.0227    0.0295    0.3056 C   0  0  1  0  0  0  0  0  0  0  0  0
   -2.0870    0.3098   -0.8820 C   0  0  2  0  0  0  0  0  0  0  0  0
    0.6344   -1.2347    0.8065 C   0  0  1  0  0  0  0  0  0  0  0  0
   -0.9093    0.2961   -1.8512 C   0  0  0  0  0  0  0  0  0  0  0  0
   -0.2728   -2.3063    0.2484 C   0  0  0  0  0  0  0  0  0  0  0  0
   -3.9517    1.9478   -0.3074 C   0  0  0  0  0  0  0  0  0  0  0  0
    2.8726   -0.4353    0.7922 C   0  0  0  0  0  0  0  0  0  0  0  0
   -5.0218    0.9964   -0.1496 C   0  0  0  0  0  0  0  0  0  0  0  0
   -5.2718    0.4262    1.0997 C   0  0  0  0  0  0  0  0  0  0  0  0
   -5.8097    0.6416   -1.2457 C   0  0  0  0  0  0  0  0  0  0  0  0
    5.3283   -0.0161    0.4679 C   0  0  0  0  0  0  0  0  0  0  0  0
   -6.3070   -0.4963    1.2526 C   0  0  0  0  0  0  0  0  0  0  0  0
   -6.8449   -0.2808   -1.0929 C   0  0  0  0  0  0  0  0  0  0  0  0
   -7.0936   -0.8499    0.1562 C   0  0  0  0  0  0  0  0  0  0  0  0
    6.5232   -0.4445   -0.1164 C   0  0  0  0  0  0  0  0  0  0  0  0
    5.2708    1.1268    1.2553 C   0  0  0  0  0  0  0  0  0  0  0  0
    7.6993    0.3110    0.1042 C   0  0  0  0  0  0  0  0  0  0  0  0
    6.5880   -1.5991   -0.9134 C   0  0  0  0  0  0  0  0  0  0  0  0
    6.4274    1.8699    1.4720 C   0  0  0  0  0  0  0  0  0  0  0  0
    7.6345    1.4659    0.9009 C   0  0  0  0  0  0  0  0  0  0  0  0
   -8.8294   -1.9078    1.5802 C   0  0  0  0  0  0  0  0  0  0  0  0
   -8.5319   -2.6362   -0.7926 C   0  0  0  0  0  0  0  0  0  0  0  0
    8.9056   -0.1102   -0.4784 C   0  0  0  0  0  0  0  0  0  0  0  0
    7.7953   -2.0031   -1.4842 C   0  0  0  0  0  0  0  0  0  0  0  0
    8.9520   -1.2602   -1.2671 C   0  0  0  0  0  0  0  0  0  0  0  0
   -1.9726   -0.0079    1.3059 H   0  0  0  0  0  0  0  0  0  0  0  0
    0.2214    0.9307    0.8742 H   0  0  0  0  0  0  0  0  0  0  0  0
   -2.8925   -0.2985   -1.3093 H   0  0  0  0  0  0  0  0  0  0  0  0
    0.5883   -1.2740    1.9033 H   0  0  0  0  0  0  0  0  0  0  0  0
   -0.8853    1.1375   -2.5499 H   0  0  0  0  0  0  0  0  0  0  0  0
   -0.9126   -0.6273   -2.4414 H   0  0  0  0  0  0  0  0  0  0  0  0
   -0.0232   -2.5668   -0.7863 H   0  0  0  0  0  0  0  0  0  0  0  0
   -0.2436   -3.2264    0.8397 H   0  0  0  0  0  0  0  0  0  0  0  0
    4.1519   -1.5656   -0.2893 H   0  0  0  0  0  0  0  0  0  0  0  0
   -4.6653    0.6892    1.9633 H   0  0  0  0  0  0  0  0  0  0  0  0
   -5.6296    1.0778   -2.2255 H   0  0  0  0  0  0  0  0  0  0  0  0
   -6.4655   -0.9295    2.2361 H   0  0  0  0  0  0  0  0  0  0  0  0
   -7.4459   -0.5253   -1.9642 H   0  0  0  0  0  0  0  0  0  0  0  0
    4.3897    1.5191    1.7377 H   0  0  0  0  0  0  0  0  0  0  0  0
    5.7258   -2.2236   -1.1232 H   0  0  0  0  0  0  0  0  0  0  0  0
    6.3928    2.7655    2.0859 H   0  0  0  0  0  0  0  0  0  0  0  0
    8.5261    2.0621    1.0838 H   0  0  0  0  0  0  0  0  0  0  0  0
   -8.2415   -2.5071    2.2832 H   0  0  0  0  0  0  0  0  0  0  0  0
   -9.0328   -0.9275    2.0257 H   0  0  0  0  0  0  0  0  0  0  0  0
   -9.7989   -2.4034    1.4556 H   0  0  0  0  0  0  0  0  0  0  0  0
   -7.6585   -3.0288   -1.3255 H   0  0  0  0  0  0  0  0  0  0  0  0
   -9.1007   -3.5036   -0.4389 H   0  0  0  0  0  0  0  0  0  0  0  0
   -9.1680   -2.0916   -1.4982 H   0  0  0  0  0  0  0  0  0  0  0  0
    9.8221    0.4552   -0.3223 H   0  0  0  0  0  0  0  0  0  0  0  0
    7.8328   -2.8981   -2.0987 H   0  0  0  0  0  0  0  0  0  0  0  0
    9.8914   -1.5752   -1.7118 H   0  0  0  0  0  0  0  0  0  0  0  0
  1 12  1  0  0  0  0
  1 15  1  0  0  0  0
  2 11  1  0  0  0  0
  2 16  1  0  0  0  0
  3 14  1  0  0  0  0
  3 18  1  0  0  0  0
  4 18  2  0  0  0  0
  5  6  1  0  0  0  0
  5 13  1  0  0  0  0
  5 17  1  0  0  0  0
  6  8  2  0  0  0  0
  7  8  1  0  0  0  0
  7 17  2  0  0  0  0
  9 18  1  0  0  0  0
  9 22  1  0  0  0  0
  9 45  1  0  0  0  0
 10 25  1  0  0  0  0
 10 32  1  0  0  0  0
 10 33  1  0  0  0  0
 11 12  1  0  0  0  0
 11 13  1  0  0  0  0
 11 37  1  0  0  0  0
 12 14  1  0  0  0  0
 12 38  1  0  0  0  0
 13 15  1  0  0  0  0
 13 39  1  0  0  0  0
 14 16  1  0  0  0  0
 14 40  1  0  0  0  0
 15 41  1  0  0  0  0
 15 42  1  0  0  0  0
 16 43  1  0  0  0  0
 16 44  1  0  0  0  0
 17 19  1  0  0  0  0
 19 20  2  0  0  0  0
 19 21  1  0  0  0  0
 20 23  1  0  0  0  0
 20 46  1  0  0  0  0
 21 24  2  0  0  0  0
 21 47  1  0  0  0  0
 22 26  1  0  0  0  0
 22 27  2  0  0  0  0
 23 25  2  0  0  0  0
 23 48  1  0  0  0  0
 24 25  1  0  0  0  0
 24 49  1  0  0  0  0
 26 28  1  0  0  0  0
 26 29  2  0  0  0  0
 27 30  1  0  0  0  0
 27 50  1  0  0  0  0
 28 31  1  0  0  0  0
 28 34  2  0  0  0  0
 29 35  1  0  0  0  0
 29 51  1  0  0  0  0
 30 31  2  0  0  0  0
 30 52  1  0  0  0  0
 31 53  1  0  0  0  0
 32 54  1  0  0  0  0
 32 55  1  0  0  0  0
 32 56  1  0  0  0  0
 33 57  1  0  0  0  0
 33 58  1  0  0  0  0
 33 59  1  0  0  0  0
 34 36  1  0  0  0  0
 34 60  1  0  0  0  0
 35 36  2  0  0  0  0
 35 61  1  0  0  0  0
 36 62  1  0  0  0  0
M  END
> <PUBCHEM_COMPOUND_CID>
11867502

> <PUBCHEM_CONFORMER_RMSD>
1

> <PUBCHEM_CONFORMER_DIVERSEORDER>
1
85
36
38
92
140
32
100
136
21
62
41
12
123
19
147
29
33
47
121
107
58
104
65
146
45
139
93
126
103
82
87
60
114
109
11
72
52
77
89
134
81
138
46
2
43
120
137
23
124
15
119
129
22
71
9
63
48
80
55
108
8
69
5
39
30
135
16
78
116
132
27
50
44
31
143
127
141
122
130
42
112
88
133
145
101
113
3
53
118
67
57
13
98
142
70
40
128
28
25
91
35
64
125
106
83
56
86
110
54
75
105
95
111
59
37
6
10
76
94
66
34
99
4
84
115
144
61
20
97
73
68
51
18
17
79
7
117
14
102
26
49
90
74
24
131
96

> <PUBCHEM_MMFF94_PARTIAL_CHARGES>
45
1 -0.56
10 -0.84
11 0.28
12 0.28
13 0.26
14 0.28
15 0.28
16 0.28
17 0.13
18 0.78
19 0.05
2 -0.56
20 -0.15
21 -0.15
22 0.12
23 -0.15
24 -0.15
25 0.1
27 -0.15
29 -0.15
3 -0.43
30 -0.15
31 -0.15
32 0.37
33 0.37
34 -0.15
35 -0.15
36 -0.15
4 -0.57
45 0.37
46 0.15
47 0.15
48 0.15
49 0.15
5 0.31
50 0.15
51 0.15
52 0.15
53 0.15
6 -0.42
60 0.15
61 0.15
62 0.15
7 -0.34
9 -0.55

> <PUBCHEM_EFFECTIVE_ROTOR_COUNT>
8.2

> <PUBCHEM_PHARMACOPHORE_FEATURES>
12
1 1 acceptor
1 10 cation
1 2 acceptor
1 4 acceptor
1 9 donor
3 5 7 17 cation
5 1 11 12 13 15 rings
5 2 11 12 14 16 rings
5 5 6 7 8 17 rings
6 19 20 21 23 24 25 rings
6 22 26 27 28 30 31 rings
6 26 28 29 34 35 36 rings

> <PUBCHEM_HEAVY_ATOM_COUNT>
36

> <PUBCHEM_ATOM_DEF_STEREO_COUNT>
4

> <PUBCHEM_ATOM_UDEF_STEREO_COUNT>
0

> <PUBCHEM_BOND_DEF_STEREO_COUNT>
0

> <PUBCHEM_BOND_UDEF_STEREO_COUNT>
0

> <PUBCHEM_ISOTOPIC_ATOM_COUNT>
0

> <PUBCHEM_COMPONENT_COUNT>
1

> <PUBCHEM_CACTVS_TAUTO_COUNT>
2

> <PUBCHEM_CONFORMER_ID>
00B5156E00000001

> <PUBCHEM_MMFF94_ENERGY>
127.9123

> <PUBCHEM_FEATURE_SELFOVERLAP>
61.626

> <PUBCHEM_SHAPE_FINGERPRINT>
10076449 9 18273218603163718145
10258705 36 18201446865075892006
10299344 5 16917348138880406102
10674148 151 12679459790003021158
10842051 180 16443063893791852408
11007060 377 18334581213249041409
11135926 11 12247679331618087565
11146851 88 17385447648417266963
11211813 128 18412546526809352579
11497681 19 18272930527360850223
11973863 73 13542466427794090686
12082328 90 17275107201907962233
12144600 37 18342460283910404550
12373685 5 14851873739144940329
12643181 29 10303808778772532873
12664476 115 18409728470397248776
12758862 11 18339363075265694795
13692115 27 16952548037350776579
14118638 360 17822287942758615538
14394314 77 10735871760037599524
1454969 45 17530965778284721615
14856354 85 18410009957815886503
150020 25 18411413995113997093
15131766 46 16125259021675326912
15183329 4 16630237022911834124
15328829 1 16733274524919182118
15461852 350 17603305951295865919
1577012 14 17895755076275210776
16628084 112 13757533092736883396
18335252 98 18410576179933013242
18608769 82 18412260657574377811
19611394 137 18260837046179343081
20105231 36 18342458148974171606
21365058 27 17346878966405741639
21792965 169 17417821626121147600
23424782 7 18411700980718130898
25019877 29 18273495680168102735
2747138 104 18335140912434666633
3383291 50 18260550043168570858
3552219 110 18130795572790882457
4098825 35 18060415790536107030
444769 64 11312052162872603645
4516262 110 13768222605972070502
45377200 153 18271242832683888675
4625314 4 18342735234968455045
4874694 18 11025798713028504600
550186 72 18188484666787929765
58260988 521 17703794730259019223
6673363 416 18410578379494703004
6691757 9 16153718613593225553
6703917 75 18261684705304562642

> <PUBCHEM_SHAPE_MULTIPOLES>
687.5
31.3
2.76
1.42
14.33
1.43
-0.03
-12.73
-0.52
-3
-0.36
-0.08
-0.06
3.49

> <PUBCHEM_SHAPE_SELFOVERLAP>
1522.879

> <PUBCHEM_SHAPE_VOLUME>
371

> <PUBCHEM_COORDINATE_TYPE>
2
5
10

$$$$
