75536823
  -OEChem-12032416343D

 41 43  0     1  0  0  0  0  0999 V2000
    7.2517   -1.4645   -0.5603 F   0  0  0  0  0  0  0  0  0  0  0  0
   -0.9871   -1.0331    0.5347 O   0  0  0  0  0  0  0  0  0  0  0  0
   -7.1585    0.0035   -0.8531 O   0  0  0  0  0  0  0  0  0  0  0  0
   -2.5762    2.1351   -0.0510 O   0  0  0  0  0  0  0  0  0  0  0  0
    2.0437    2.0907   -0.4963 O   0  0  0  0  0  0  0  0  0  0  0  0
   -4.5394   -0.2503    0.5253 N   0  0  0  0  0  0  0  0  0  0  0  0
    1.4141    0.4679    1.0377 N   0  0  0  0  0  0  0  0  0  0  0  0
   -3.1682   -0.2316    0.0424 C   0  0  1  0  0  0  0  0  0  0  0  0
   -2.3388    0.9063    0.6081 C   0  0  1  0  0  0  0  0  0  0  0  0
   -0.9272    0.3922    0.3594 C   0  0  1  0  0  0  0  0  0  0  0  0
   -5.3681   -1.0573   -0.3793 C   0  0  0  0  0  0  0  0  0  0  0  0
   -2.3657   -1.4413    0.4928 C   0  0  0  0  0  0  0  0  0  0  0  0
   -6.8156   -1.0249    0.1111 C   0  0  0  0  0  0  0  0  0  0  0  0
   -5.8797   -0.1723   -1.5158 C   0  0  0  0  0  0  0  0  0  0  0  0
    0.1024    0.9830    1.3061 C   0  0  0  0  0  0  0  0  0  0  0  0
    2.2929    1.0728    0.1442 C   0  0  0  0  0  0  0  0  0  0  0  0
    3.6047    0.4009   -0.0424 C   0  0  0  0  0  0  0  0  0  0  0  0
    4.2995    0.5492   -1.2429 C   0  0  0  0  0  0  0  0  0  0  0  0
    4.1420   -0.3775    0.9828 C   0  0  0  0  0  0  0  0  0  0  0  0
    5.5313   -0.0812   -1.4182 C   0  0  0  0  0  0  0  0  0  0  0  0
    5.3738   -1.0079    0.8075 C   0  0  0  0  0  0  0  0  0  0  0  0
    6.0685   -0.8598   -0.3929 C   0  0  0  0  0  0  0  0  0  0  0  0
   -3.1426   -0.1545   -1.0537 H   0  0  0  0  0  0  0  0  0  0  0  0
   -2.5282    1.0383    1.6807 H   0  0  0  0  0  0  0  0  0  0  0  0
   -0.6225    0.5811   -0.6784 H   0  0  0  0  0  0  0  0  0  0  0  0
   -4.9918   -2.0474   -0.6487 H   0  0  0  0  0  0  0  0  0  0  0  0
   -2.6319   -1.7720    1.5032 H   0  0  0  0  0  0  0  0  0  0  0  0
   -2.4714   -2.2933   -0.1857 H   0  0  0  0  0  0  0  0  0  0  0  0
   -4.5626   -0.5555    1.4977 H   0  0  0  0  0  0  0  0  0  0  0  0
   -7.3878   -1.9391   -0.0792 H   0  0  0  0  0  0  0  0  0  0  0  0
   -6.9957   -0.6965    1.1394 H   0  0  0  0  0  0  0  0  0  0  0  0
   -5.3785    0.7858   -1.6850 H   0  0  0  0  0  0  0  0  0  0  0  0
   -6.0081   -0.6840   -2.4754 H   0  0  0  0  0  0  0  0  0  0  0  0
   -0.1273    0.7120    2.3424 H   0  0  0  0  0  0  0  0  0  0  0  0
    0.1174    2.0754    1.2278 H   0  0  0  0  0  0  0  0  0  0  0  0
   -2.4104    2.0097   -1.0007 H   0  0  0  0  0  0  0  0  0  0  0  0
    1.6564   -0.4114    1.4814 H   0  0  0  0  0  0  0  0  0  0  0  0
    3.8958    1.1478   -2.0551 H   0  0  0  0  0  0  0  0  0  0  0  0
    3.6491   -0.4937    1.9434 H   0  0  0  0  0  0  0  0  0  0  0  0
    6.0722    0.0331   -2.3529 H   0  0  0  0  0  0  0  0  0  0  0  0
    5.7961   -1.6085    1.6077 H   0  0  0  0  0  0  0  0  0  0  0  0
  1 22  1  0  0  0  0
  2 10  1  0  0  0  0
  2 12  1  0  0  0  0
  3 13  1  0  0  0  0
  3 14  1  0  0  0  0
  4  9  1  0  0  0  0
  4 36  1  0  0  0  0
  5 16  2  0  0  0  0
  6  8  1  0  0  0  0
  6 11  1  0  0  0  0
  6 29  1  0  0  0  0
  7 15  1  0  0  0  0
  7 16  1  0  0  0  0
  7 37  1  0  0  0  0
  8  9  1  0  0  0  0
  8 12  1  0  0  0  0
  8 23  1  0  0  0  0
  9 10  1  0  0  0  0
  9 24  1  0  0  0  0
 10 15  1  0  0  0  0
 10 25  1  0  0  0  0
 11 13  1  0  0  0  0
 11 14  1  0  0  0  0
 11 26  1  0  0  0  0
 12 27  1  0  0  0  0
 12 28  1  0  0  0  0
 13 30  1  0  0  0  0
 13 31  1  0  0  0  0
 14 32  1  0  0  0  0
 14 33  1  0  0  0  0
 15 34  1  0  0  0  0
 15 35  1  0  0  0  0
 16 17  1  0  0  0  0
 17 18  2  0  0  0  0
 17 19  1  0  0  0  0
 18 20  1  0  0  0  0
 18 38  1  0  0  0  0
 19 21  2  0  0  0  0
 19 39  1  0  0  0  0
 20 22  2  0  0  0  0
 20 40  1  0  0  0  0
 21 22  1  0  0  0  0
 21 41  1  0  0  0  0
M  END
> <PUBCHEM_COMPOUND_CID>
75536823

> <PUBCHEM_CONFORMER_RMSD>
0.8

> <PUBCHEM_CONFORMER_DIVERSEORDER>
1
45
16
13
23
78
74
11
81
77
75
56
6
19
34
59
51
57
25
15
38
58
52
29
70
82
76
22
28
40
39
21
80
62
61
71
64
36
72
43
3
20
41
30
69
54
49
8
37
65
27
46
48
66
63
35
79
73
42
18
9
55
33
24
4
50
60
10
26
31
67
2
14
32
5
7
68
17
53
44
47
12

> <PUBCHEM_MMFF94_PARTIAL_CHARGES>
29
1 -0.19
10 0.28
11 0.21
12 0.28
13 0.26
14 0.26
15 0.3
16 0.54
17 0.09
18 -0.15
19 -0.15
2 -0.56
20 -0.15
21 -0.15
22 0.19
29 0.36
3 -0.52
36 0.4
37 0.37
38 0.15
39 0.15
4 -0.68
40 0.15
41 0.15
5 -0.57
6 -0.84
7 -0.73
8 0.27
9 0.28

> <PUBCHEM_EFFECTIVE_ROTOR_COUNT>
7.8

> <PUBCHEM_PHARMACOPHORE_FEATURES>
11
1 2 acceptor
1 3 acceptor
1 4 acceptor
1 4 donor
1 5 acceptor
1 6 cation
1 6 donor
1 7 donor
4 3 11 13 14 rings
5 2 8 9 10 12 rings
6 17 18 19 20 21 22 rings

> <PUBCHEM_HEAVY_ATOM_COUNT>
22

> <PUBCHEM_ATOM_DEF_STEREO_COUNT>
3

> <PUBCHEM_ATOM_UDEF_STEREO_COUNT>
0

> <PUBCHEM_BOND_DEF_STEREO_COUNT>
0

> <PUBCHEM_BOND_UDEF_STEREO_COUNT>
0

> <PUBCHEM_ISOTOPIC_ATOM_COUNT>
0

> <PUBCHEM_COMPONENT_COUNT>
1

> <PUBCHEM_CACTVS_TAUTO_COUNT>
2

> <PUBCHEM_CONFORMER_ID>
048099B700000001

> <PUBCHEM_MMFF94_ENERGY>
51.0606

> <PUBCHEM_FEATURE_SELFOVERLAP>
55.822

> <PUBCHEM_SHAPE_FINGERPRINT>
10 15 11167940264382941694
10354089 29 11600004354303731274
106641 1 14620788315204441362
10670039 82 17385716963888174765
11524674 6 16415478272917849727
11724838 91 10879985861365306152
12166972 35 18202284714568602000
12516196 113 17275103938318509912
12555020 224 18412261766071715295
12616971 3 13470396777988983328
12670543 26 18186235130689942885
12730499 353 14056715725582135416
12760667 363 18131633391897210643
12954195 1 18340202995445025825
13177829 20 12823289113524062414
13533116 47 17703789249674923560
13668630 136 18413389843073296535
13685833 64 17489588961356494490
13862211 1 17989486346788685887
13885169 127 17203332170286107697
14251752 14 17894624846909127175
14251764 18 17846501443833990544
14294032 229 18192714432802665009
14341114 328 10519987058649833156
14347332 77 18411697651897157777
14528608 73 15864067693438890497
14848160 23 16128657444185411963
14933364 13 16008748009401799471
15048467 5 11891330954592559679
15183329 4 18113617867647425877
15188451 53 17275105011822852682
15475509 35 16988278656929768838
15706992 2 14057005958740519391
17834072 8 18260266360478280483
18222031 100 18344150302143885712
19377110 9 10879995744037665885
19784866 240 18201444683168038784
2026 5 17916032248878825206
20281389 69 10737278052431190383
21033648 29 13046237134033885508
21150785 3 16587744252693520779
21267235 1 18408608080653475987
21315764 119 17530966873422540110
21637258 2 17346876758575798489
21781051 124 18263087759562312563
221357 26 17313099757049393668
2215653 11 18408603677520946922
22224240 67 12175617374103909548
22956985 138 17484821320510862214
23035841 295 18341612642613815251
23198884 109 16225761909489520415
23402539 116 18343864403424875569
23522609 53 17984173506155847945
23559900 14 18266456684189537057
29717793 49 18408044009381319932
3004659 81 18260829306706303856
3472631 163 11963684326265324434
4058900 60 16878214252737721235
4340502 62 12607409896635648596
542803 24 14634862063770780033
5758199 1 12324236145207476213
59682541 35 10375861987843764631
59682541 52 17749107777608632402
59755656 215 18342173345518956863
6138700 20 18341895182220325231
6438161 24 18187356611445106362
8988823 20 17060052692345700680

> <PUBCHEM_SHAPE_MULTIPOLES>
412.04
19.48
1.51
1.2
5.45
0.38
0.2
-8.41
6.59
-0.25
-0.05
-0.44
0.04
-0.15

> <PUBCHEM_SHAPE_SELFOVERLAP>
868.639

> <PUBCHEM_SHAPE_VOLUME>
233.6

> <PUBCHEM_COORDINATE_TYPE>
2
5
10

$$$$
