40777113
  -OEChem-12032416183D

 56 60  0     1  0  0  0  0  0999 V2000
   -3.1916   -2.3517    1.9265 Br  0  0  0  0  0  0  0  0  0  0  0  0
    5.1909    0.4631    1.9350 O   0  0  0  0  0  0  0  0  0  0  0  0
    5.1546   -2.0991   -0.5154 O   0  0  0  0  0  0  0  0  0  0  0  0
    1.1950    2.5668    1.2059 N   0  0  2  0  0  0  0  0  0  0  0  0
    3.3935   -0.4536    0.7884 N   0  0  0  0  0  0  0  0  0  0  0  0
   -1.1831    0.2020   -1.8883 N   0  0  0  0  0  0  0  0  0  0  0  0
   -3.1743   -1.1124   -1.5494 N   0  0  0  0  0  0  0  0  0  0  0  0
    0.6478    2.3360   -1.3299 C   0  0  2  0  0  0  0  0  0  0  0  0
   -0.6322    2.1212   -0.4756 C   0  0  2  0  0  0  0  0  0  0  0  0
    2.1599    1.6382    0.5601 C   0  0  2  0  0  0  0  0  0  0  0  0
    1.7300    1.3277   -0.8898 C   0  0  0  0  0  0  0  0  0  0  0  0
    1.1772    3.7462   -0.9916 C   0  0  0  0  0  0  0  0  0  0  0  0
   -0.1915    2.0725    1.0153 C   0  0  0  0  0  0  0  0  0  0  0  0
    1.3132    3.8836    0.5349 C   0  0  0  0  0  0  0  0  0  0  0  0
    2.3763    0.3622    1.3764 C   0  0  0  0  0  0  0  0  0  0  0  0
   -1.5559    0.9685   -0.8425 C   0  0  0  0  0  0  0  0  0  0  0  0
   -2.7076    0.7604   -0.1113 C   0  0  0  0  0  0  0  0  0  0  0  0
   -3.4862   -0.3055   -0.5141 C   0  0  0  0  0  0  0  0  0  0  0  0
   -2.0261   -0.8060   -2.1829 C   0  0  0  0  0  0  0  0  0  0  0  0
    4.7427   -0.3378    1.1187 C   0  0  0  0  0  0  0  0  0  0  0  0
   -4.7169   -0.6289    0.1672 C   0  0  0  0  0  0  0  0  0  0  0  0
   -1.6487   -1.6748   -3.3347 C   0  0  0  0  0  0  0  0  0  0  0  0
    5.6776   -1.2409    0.3994 C   0  0  0  0  0  0  0  0  0  0  0  0
   -4.7542   -1.5058    1.2512 C   0  0  0  0  0  0  0  0  0  0  0  0
   -5.8931   -0.0344   -0.2898 C   0  0  0  0  0  0  0  0  0  0  0  0
    7.0429   -1.3901    0.4767 C   0  0  0  0  0  0  0  0  0  0  0  0
   -5.9676   -1.7882    1.8785 C   0  0  0  0  0  0  0  0  0  0  0  0
   -7.1066   -0.3168    0.3374 C   0  0  0  0  0  0  0  0  0  0  0  0
    7.3805   -2.4049   -0.4502 C   0  0  0  0  0  0  0  0  0  0  0  0
    6.1973   -2.8037   -1.0278 C   0  0  0  0  0  0  0  0  0  0  0  0
   -7.1439   -1.1937    1.4216 C   0  0  0  0  0  0  0  0  0  0  0  0
    0.4452    2.2512   -2.4027 H   0  0  0  0  0  0  0  0  0  0  0  0
   -1.2503    3.0221   -0.6133 H   0  0  0  0  0  0  0  0  0  0  0  0
    3.1346    2.1473    0.5213 H   0  0  0  0  0  0  0  0  0  0  0  0
    1.3477    0.3058   -0.9895 H   0  0  0  0  0  0  0  0  0  0  0  0
    2.6001    1.4095   -1.5532 H   0  0  0  0  0  0  0  0  0  0  0  0
    0.4947    4.5136   -1.3750 H   0  0  0  0  0  0  0  0  0  0  0  0
    2.1492    3.9053   -1.4743 H   0  0  0  0  0  0  0  0  0  0  0  0
   -0.8729    2.6935    1.6123 H   0  0  0  0  0  0  0  0  0  0  0  0
   -0.2884    1.0653    1.4370 H   0  0  0  0  0  0  0  0  0  0  0  0
    2.2766    4.3457    0.7832 H   0  0  0  0  0  0  0  0  0  0  0  0
    0.5498    4.5690    0.9246 H   0  0  0  0  0  0  0  0  0  0  0  0
    1.4714   -0.2517    1.4251 H   0  0  0  0  0  0  0  0  0  0  0  0
    2.6657    0.6127    2.4036 H   0  0  0  0  0  0  0  0  0  0  0  0
    3.1157   -1.1401    0.0927 H   0  0  0  0  0  0  0  0  0  0  0  0
   -2.9861    1.3963    0.7207 H   0  0  0  0  0  0  0  0  0  0  0  0
   -2.1413   -1.3174   -4.2437 H   0  0  0  0  0  0  0  0  0  0  0  0
   -0.5660   -1.6627   -3.4950 H   0  0  0  0  0  0  0  0  0  0  0  0
   -1.9531   -2.7103   -3.1533 H   0  0  0  0  0  0  0  0  0  0  0  0
   -5.8846    0.6514   -1.1339 H   0  0  0  0  0  0  0  0  0  0  0  0
    7.7151   -0.8386    1.1186 H   0  0  0  0  0  0  0  0  0  0  0  0
   -6.0178   -2.4687    2.7247 H   0  0  0  0  0  0  0  0  0  0  0  0
   -8.0225    0.1459   -0.0183 H   0  0  0  0  0  0  0  0  0  0  0  0
    8.3630   -2.7968   -0.6700 H   0  0  0  0  0  0  0  0  0  0  0  0
    5.9418   -3.5370   -1.7786 H   0  0  0  0  0  0  0  0  0  0  0  0
   -8.0889   -1.4134    1.9097 H   0  0  0  0  0  0  0  0  0  0  0  0
  1 24  1  0  0  0  0
  2 20  2  0  0  0  0
  3 23  1  0  0  0  0
  3 30  1  0  0  0  0
  4 10  1  0  0  0  0
  4 13  1  0  0  0  0
  4 14  1  0  0  0  0
  5 15  1  0  0  0  0
  5 20  1  0  0  0  0
  5 45  1  0  0  0  0
  6 16  2  0  0  0  0
  6 19  1  0  0  0  0
  7 18  1  0  0  0  0
  7 19  2  0  0  0  0
  8  9  1  0  0  0  0
  8 11  1  0  0  0  0
  8 12  1  0  0  0  0
  8 32  1  0  0  0  0
  9 13  1  0  0  0  0
  9 16  1  0  0  0  0
  9 33  1  0  0  0  0
 10 11  1  0  0  0  0
 10 15  1  0  0  0  0
 10 34  1  0  0  0  0
 11 35  1  0  0  0  0
 11 36  1  0  0  0  0
 12 14  1  0  0  0  0
 12 37  1  0  0  0  0
 12 38  1  0  0  0  0
 13 39  1  0  0  0  0
 13 40  1  0  0  0  0
 14 41  1  0  0  0  0
 14 42  1  0  0  0  0
 15 43  1  0  0  0  0
 15 44  1  0  0  0  0
 16 17  1  0  0  0  0
 17 18  2  0  0  0  0
 17 46  1  0  0  0  0
 18 21  1  0  0  0  0
 19 22  1  0  0  0  0
 20 23  1  0  0  0  0
 21 24  1  0  0  0  0
 21 25  2  0  0  0  0
 22 47  1  0  0  0  0
 22 48  1  0  0  0  0
 22 49  1  0  0  0  0
 23 26  2  0  0  0  0
 24 27  2  0  0  0  0
 25 28  1  0  0  0  0
 25 50  1  0  0  0  0
 26 29  1  0  0  0  0
 26 51  1  0  0  0  0
 27 31  1  0  0  0  0
 27 52  1  0  0  0  0
 28 31  2  0  0  0  0
 28 53  1  0  0  0  0
 29 30  2  0  0  0  0
 29 54  1  0  0  0  0
 30 55  1  0  0  0  0
 31 56  1  0  0  0  0
M  END
> <PUBCHEM_COMPOUND_CID>
40777113

> <PUBCHEM_CONFORMER_RMSD>
1

> <PUBCHEM_CONFORMER_DIVERSEORDER>
1
106
91
115
24
83
130
101
45
58
56
110
126
97
99
137
68
92
93
108
61
59
90
135
67
129
62
46
131
123
53
132
134
78
63
50
41
30
39
125
138
23
124
57
140
82
76
35
118
85
84
120
21
100
44
86
66
103
136
114
109
121
54
29
80
77
11
52
104
33
19
107
79
42
112
75
74
22
60
71
49
122
55
43
94
65
139
111
38
117
17
37
113
116
119
40
18
98
105
31
73
87
48
20
102
12
96
89
8
127
26
72
81
88
64
133
70
15
69
32
13
27
9
128
2
51
7
3
47
95
34
28
25
36
14
4
10
16
6
5

> <PUBCHEM_MMFF94_PARTIAL_CHARGES>
36
1 -0.11
10 0.27
13 0.27
14 0.27
15 0.3
16 0.17
17 -0.15
18 0.31
19 0.48
2 -0.57
20 0.71
22 0.14
23 0.05
24 0.11
25 -0.15
26 -0.15
27 -0.15
28 -0.15
29 -0.15
3 -0.28
30 -0.01
31 -0.15
4 -0.81
45 0.37
46 0.15
5 -0.73
50 0.15
51 0.15
52 0.15
53 0.15
54 0.15
55 0.15
56 0.15
6 -0.62
7 -0.62
9 0.14

> <PUBCHEM_EFFECTIVE_ROTOR_COUNT>
7.2

> <PUBCHEM_PHARMACOPHORE_FEATURES>
11
1 1 hydrophobe
1 2 acceptor
1 3 acceptor
1 4 cation
1 5 donor
1 6 acceptor
3 6 7 19 cation
5 3 23 26 29 30 rings
6 21 24 25 27 28 31 rings
6 6 7 16 17 18 19 rings
8 4 8 9 10 11 12 13 14 rings

> <PUBCHEM_HEAVY_ATOM_COUNT>
31

> <PUBCHEM_ATOM_DEF_STEREO_COUNT>
3

> <PUBCHEM_ATOM_UDEF_STEREO_COUNT>
0

> <PUBCHEM_BOND_DEF_STEREO_COUNT>
0

> <PUBCHEM_BOND_UDEF_STEREO_COUNT>
0

> <PUBCHEM_ISOTOPIC_ATOM_COUNT>
0

> <PUBCHEM_COMPONENT_COUNT>
1

> <PUBCHEM_CACTVS_TAUTO_COUNT>
2

> <PUBCHEM_CONFORMER_ID>
026E359900000001

> <PUBCHEM_MMFF94_ENERGY>
77.1467

> <PUBCHEM_FEATURE_SELFOVERLAP>
55.821

> <PUBCHEM_SHAPE_FINGERPRINT>
10010297 198 17830463035249857189
10692045 39 16702312234446668463
11135609 127 10518888591205597267
11135926 11 18120644997455084228
11211813 15 10809643523000558038
11505856 67 13552568698256112799
11513181 2 17465396595552030363
117089 54 18125168143584276006
11961588 58 10953461829698415476
12107183 9 17704351091363056791
12422481 6 17989203733207701318
12522641 68 15366183763074488901
12633257 1 16558744654468904753
12677640 9 16772652473100917623
13103583 49 16773788225804374934
131258 43 16371309821319589541
13150687 139 11530482195287866024
13402501 40 17967811665296222691
13540713 5 17557974323896676821
13583140 156 17835806670730805449
13673619 4 17749108902705350205
13690498 29 17385438804667953127
13782708 43 17386278887328405931
13947930 73 18187655755094885443
14202776 33 14996554033427265607
14251764 30 18333450928571349298
14420673 8 18186524319718464291
14767858 380 12973603343730372887
14955137 171 18413388747930281120
15669420 48 16298674958070857094
15684393 108 18335711503736814358
15721738 202 18260556611006847638
16110190 28 17846490448723091790
16120349 189 10375575015572555298
16991981 162 15070562126094865686
16992787 43 18267027331584617900
1813 80 18410003339192161980
19246450 95 17488751051960394417
20501277 279 18201710796386883120
20567600 254 9727631713532916344
20775530 9 18338783538649098582
208703 8 18261116228034057038
21365058 113 18040439905626386197
21403212 168 16988562369161823783
21716022 299 17969241047856308996
22122407 14 13757777278965999890
23559900 14 17968382372329526845
2838139 119 11455882546913145763
312425 54 16845276277198958874
3737641 26 18199744735788047734
3862424 121 15503520307873972211
4107672 100 16805878482141817509
437815 12 18335424568874897067
474113 269 18271235141198886527
513202 73 18129661885791346082
5372103 7 9223228525002976010
54039377 194 18411142399258542686
56633871 153 18060131042156409974
57816373 69 18189335835306566391
6009941 240 18189330169690782813
6058803 2 17270868778220853149
6371380 46 17968367992989808353
6679774 75 18272103728502261519
7918774 8 18407763625368643386
9896288 288 17913494540800548736
999808 66 18341333305898029554

> <PUBCHEM_SHAPE_MULTIPOLES>
612.25
18.4
3.77
2.21
7.56
2.79
-1.25
-20.02
5.45
3.99
0.15
-1.25
-0.94
2.32

> <PUBCHEM_SHAPE_SELFOVERLAP>
1324.344

> <PUBCHEM_SHAPE_VOLUME>
344.4

> <PUBCHEM_COORDINATE_TYPE>
2
5
10

$$$$
