11884109
  -OEChem-12032416153D

 54 57  0     1  0  0  0  0  0999 V2000
    5.1488   -0.6675    1.5135 S   0  0  0  0  0  0  0  0  0  0  0  0
    5.3841   -2.7584   -0.5164 S   0  0  0  0  0  0  0  0  0  0  0  0
    1.0052    0.2835   -0.6075 O   0  0  0  0  0  0  0  0  0  0  0  0
    2.3978    2.9702   -0.0567 O   0  0  0  0  0  0  0  0  0  0  0  0
   -1.0466    2.1499   -0.6024 O   0  0  0  0  0  0  0  0  0  0  0  0
    5.2256   -1.7964    2.4204 O   0  0  0  0  0  0  0  0  0  0  0  0
    5.8325    0.5782    1.8008 O   0  0  0  0  0  0  0  0  0  0  0  0
   -1.8856    0.9469    1.1522 O   0  0  0  0  0  0  0  0  0  0  0  0
    3.5092   -0.3290    1.1641 N   0  0  0  0  0  0  0  0  0  0  0  0
   -3.0787    1.2019   -0.8457 N   0  0  0  0  0  0  0  0  0  0  0  0
    2.3057    1.7583    0.7208 C   0  0  1  0  0  0  0  0  0  0  0  0
    0.9152    1.1973    0.4981 C   0  0  1  0  0  0  0  0  0  0  0  0
    3.2199    0.7064    0.1434 C   0  0  2  0  0  0  0  0  0  0  0  0
    0.1174    2.4288    0.1423 C   0  0  1  0  0  0  0  0  0  0  0  0
    2.3832    0.1080   -0.9706 C   0  0  0  0  0  0  0  0  0  0  0  0
    1.1189    3.2390   -0.6492 C   0  0  0  0  0  0  0  0  0  0  0  0
   -2.0114    1.3795    0.0132 C   0  0  0  0  0  0  0  0  0  0  0  0
    5.9113   -1.2256   -0.0099 C   0  0  0  0  0  0  0  0  0  0  0  0
    6.8262   -0.6554   -0.8295 C   0  0  0  0  0  0  0  0  0  0  0  0
   -4.2720    0.4808   -0.6136 C   0  0  0  0  0  0  0  0  0  0  0  0
    7.1214   -1.5050   -1.9344 C   0  0  0  0  0  0  0  0  0  0  0  0
    6.4064   -2.6815   -1.8879 C   0  0  0  0  0  0  0  0  0  0  0  0
   -7.8716   -1.6934    0.0861 C   0  0  0  0  0  0  0  0  0  0  0  0
   -6.6122   -0.9327   -0.1589 C   0  0  0  0  0  0  0  0  0  0  0  0
   -5.2327    0.4188   -1.6105 C   0  0  0  0  0  0  0  0  0  0  0  0
   -4.4584   -0.1499    0.6062 C   0  0  0  0  0  0  0  0  0  0  0  0
   -6.4105   -0.2925   -1.3817 C   0  0  0  0  0  0  0  0  0  0  0  0
   -5.6361   -0.8614    0.8351 C   0  0  0  0  0  0  0  0  0  0  0  0
   -7.6155   -3.1922    0.3327 C   0  0  0  0  0  0  0  0  0  0  0  0
   -8.6976   -1.1066    1.2462 C   0  0  0  0  0  0  0  0  0  0  0  0
    2.5083    2.0164    1.7651 H   0  0  0  0  0  0  0  0  0  0  0  0
    0.5432    0.6397    1.3615 H   0  0  0  0  0  0  0  0  0  0  0  0
    4.1453    1.1330   -0.2550 H   0  0  0  0  0  0  0  0  0  0  0  0
   -0.1420    2.9863    1.0524 H   0  0  0  0  0  0  0  0  0  0  0  0
    2.5748   -0.9532   -1.1543 H   0  0  0  0  0  0  0  0  0  0  0  0
    2.5399    0.6507   -1.9092 H   0  0  0  0  0  0  0  0  0  0  0  0
    0.9125    4.3127   -0.6059 H   0  0  0  0  0  0  0  0  0  0  0  0
    1.1490    2.9478   -1.7052 H   0  0  0  0  0  0  0  0  0  0  0  0
    2.8268   -1.0948    1.2316 H   0  0  0  0  0  0  0  0  0  0  0  0
   -2.9981    1.6432   -1.7586 H   0  0  0  0  0  0  0  0  0  0  0  0
    7.2739    0.3166   -0.6693 H   0  0  0  0  0  0  0  0  0  0  0  0
    7.8222   -1.2653   -2.7235 H   0  0  0  0  0  0  0  0  0  0  0  0
    6.4354   -3.4995   -2.5940 H   0  0  0  0  0  0  0  0  0  0  0  0
   -8.5044   -1.6293   -0.8097 H   0  0  0  0  0  0  0  0  0  0  0  0
   -5.0855    0.9137   -2.5664 H   0  0  0  0  0  0  0  0  0  0  0  0
   -3.7500   -0.1395    1.4217 H   0  0  0  0  0  0  0  0  0  0  0  0
   -7.1606   -0.3379   -2.1668 H   0  0  0  0  0  0  0  0  0  0  0  0
   -5.7734   -1.3528    1.7945 H   0  0  0  0  0  0  0  0  0  0  0  0
   -7.0524   -3.3652    1.2561 H   0  0  0  0  0  0  0  0  0  0  0  0
   -8.5635   -3.7352    0.4139 H   0  0  0  0  0  0  0  0  0  0  0  0
   -7.0465   -3.6309   -0.4946 H   0  0  0  0  0  0  0  0  0  0  0  0
   -8.9071   -0.0447    1.0764 H   0  0  0  0  0  0  0  0  0  0  0  0
   -9.6566   -1.6283    1.3366 H   0  0  0  0  0  0  0  0  0  0  0  0
   -8.1776   -1.1966    2.2060 H   0  0  0  0  0  0  0  0  0  0  0  0
  1  6  2  0  0  0  0
  1  7  2  0  0  0  0
  1  9  1  0  0  0  0
  1 18  1  0  0  0  0
  2 18  1  0  0  0  0
  2 22  1  0  0  0  0
  3 12  1  0  0  0  0
  3 15  1  0  0  0  0
  4 11  1  0  0  0  0
  4 16  1  0  0  0  0
  5 14  1  0  0  0  0
  5 17  1  0  0  0  0
  8 17  2  0  0  0  0
  9 13  1  0  0  0  0
  9 39  1  0  0  0  0
 10 17  1  0  0  0  0
 10 20  1  0  0  0  0
 10 40  1  0  0  0  0
 11 12  1  0  0  0  0
 11 13  1  0  0  0  0
 11 31  1  0  0  0  0
 12 14  1  0  0  0  0
 12 32  1  0  0  0  0
 13 15  1  0  0  0  0
 13 33  1  0  0  0  0
 14 16  1  0  0  0  0
 14 34  1  0  0  0  0
 15 35  1  0  0  0  0
 15 36  1  0  0  0  0
 16 37  1  0  0  0  0
 16 38  1  0  0  0  0
 18 19  2  0  0  0  0
 19 21  1  0  0  0  0
 19 41  1  0  0  0  0
 20 25  2  0  0  0  0
 20 26  1  0  0  0  0
 21 22  2  0  0  0  0
 21 42  1  0  0  0  0
 22 43  1  0  0  0  0
 23 24  1  0  0  0  0
 23 29  1  0  0  0  0
 23 30  1  0  0  0  0
 23 44  1  0  0  0  0
 24 27  2  0  0  0  0
 24 28  1  0  0  0  0
 25 27  1  0  0  0  0
 25 45  1  0  0  0  0
 26 28  2  0  0  0  0
 26 46  1  0  0  0  0
 27 47  1  0  0  0  0
 28 48  1  0  0  0  0
 29 49  1  0  0  0  0
 29 50  1  0  0  0  0
 29 51  1  0  0  0  0
 30 52  1  0  0  0  0
 30 53  1  0  0  0  0
 30 54  1  0  0  0  0
M  END
> <PUBCHEM_COMPOUND_CID>
11884109

> <PUBCHEM_CONFORMER_RMSD>
1

> <PUBCHEM_CONFORMER_DIVERSEORDER>
1
125
6
143
168
34
169
171
141
21
119
127
45
99
100
113
162
79
49
46
140
126
149
58
38
65
73
165
124
24
51
172
156
63
16
98
20
68
42
134
30
135
114
89
159
170
62
57
102
116
139
153
8
27
121
83
111
154
76
91
142
9
167
72
137
93
147
136
152
145
43
19
37
128
81
33
52
13
44
112
161
75
11
150
158
59
32
164
15
3
151
144
86
55
80
117
131
95
41
25
60
110
82
118
85
146
54
104
5
67
88
74
29
157
7
122
35
23
92
61
77
50
160
130
120
56
87
109
97
148
18
108
90
10
107
78
133
2
101
14
17
163
129
4
31
70
26
105
40
69
106
115
166
96
94
64
28
47
36
103
22
53
66
123
138
173
71
132
48
155
84
39
12

> <PUBCHEM_MMFF94_PARTIAL_CHARGES>
37
1 1.5
10 -0.55
11 0.28
12 0.28
13 0.36
14 0.28
15 0.28
16 0.28
17 0.78
18 -0.02
19 -0.15
2 -0.08
20 0.12
21 -0.15
22 -0.11
23 0.14
24 -0.14
25 -0.15
26 -0.15
27 -0.15
28 -0.15
3 -0.56
39 0.42
4 -0.56
40 0.37
41 0.15
42 0.15
43 0.15
45 0.15
46 0.15
47 0.15
48 0.15
5 -0.43
6 -0.65
7 -0.65
8 -0.57
9 -0.91

> <PUBCHEM_EFFECTIVE_ROTOR_COUNT>
9.2

> <PUBCHEM_PHARMACOPHORE_FEATURES>
12
1 10 donor
1 3 acceptor
1 4 acceptor
1 6 acceptor
1 7 acceptor
1 8 acceptor
1 9 donor
3 23 29 30 hydrophobe
5 2 18 19 21 22 rings
5 3 11 12 13 15 rings
5 4 11 12 14 16 rings
6 20 24 25 26 27 28 rings

> <PUBCHEM_HEAVY_ATOM_COUNT>
30

> <PUBCHEM_ATOM_DEF_STEREO_COUNT>
4

> <PUBCHEM_ATOM_UDEF_STEREO_COUNT>
0

> <PUBCHEM_BOND_DEF_STEREO_COUNT>
0

> <PUBCHEM_BOND_UDEF_STEREO_COUNT>
0

> <PUBCHEM_ISOTOPIC_ATOM_COUNT>
0

> <PUBCHEM_COMPONENT_COUNT>
1

> <PUBCHEM_CACTVS_TAUTO_COUNT>
2

> <PUBCHEM_CONFORMER_ID>
00B5564D00000001

> <PUBCHEM_MMFF94_ENERGY>
73.7708

> <PUBCHEM_FEATURE_SELFOVERLAP>
61.627

> <PUBCHEM_SHAPE_FINGERPRINT>
10 15 13830127321431506529
10669705 251 18343308101933733455
10883706 89 14116971110415237196
10981352 41 18131064939706067982
11478447 147 15286217214273138582
12166972 35 17917992772082646712
12623949 98 17703514273458440262
13533116 47 17775559858519972864
1361 4 18118964943798365075
1361 87 17459205117285602779
13668630 136 18410291419743761771
13673619 4 18113616798733748277
13782708 43 18187356628139158967
14123256 34 18412263926133894533
15183329 4 16588024589039505431
15510800 12 18410863178807456591
15840311 113 9079123220295344548
16992779 147 15481519046037602082
17134984 74 17822012008553577578
18222031 100 18410852123709180392
18335252 98 18272370867895124852
19301679 30 18059864939273923953
19302320 297 12391505416913461562
20028762 73 18342175583197119275
2026 5 18408316684308619155
20691028 202 9799692610495848499
21033650 10 16660641800933442237
21150785 3 16515407365084412238
21267235 1 18412547608687105877
21585481 104 15069172373831457071
21585481 151 18201726154340912023
21585482 310 18411422817129908287
21647283 7 12823003257776200943
22149856 69 18059861640580642632
22864921 267 16845025523843742127
229767 8 17699014985720707742
23559900 14 17458624544744112221
255183 451 18334862740019294637
2748736 6 9511450122172514482
2838139 119 8286197236700484440
3004659 81 18040152924395690677
312425 54 16271913939608287934
3383291 50 18411135853296302099
3504750 166 18131631206470916101
3862424 121 18341626875782280086
397638 26 11023822855982924636
445580 126 10519990343930549399
4461854 278 17704077304204721383
465052 167 18412823603232890420
5385378 56 10591768662722443452
563151 248 16271918316058436078
5718773 13 18409445903971239731
59682541 52 15574433211327431146
636775 8 18339933636533959134
6712543 237 16343695539353821327
9831232 110 18261386724167003927
9980921 177 13542197060456970054

> <PUBCHEM_SHAPE_MULTIPOLES>
579.91
25.9
3.24
1.67
25.06
0.24
-0.22
-25.9
0.31
-1.62
0.51
-2.06
-0.62
2.47

> <PUBCHEM_SHAPE_SELFOVERLAP>
1216.763

> <PUBCHEM_SHAPE_VOLUME>
328.6

> <PUBCHEM_COORDINATE_TYPE>
2
5
10

$$$$
