75536512
  -OEChem-12032416303D

 44 44  0     1  0  0  0  0  0999 V2000
   -0.5516    0.5756   -0.1886 O   0  0  0  0  0  0  0  0  0  0  0  0
   -2.8901   -1.8812    0.9950 O   0  0  0  0  0  0  0  0  0  0  0  0
    1.8217   -0.1353   -1.9463 O   0  0  0  0  0  0  0  0  0  0  0  0
   -4.1862    0.6805   -0.2829 N   0  0  0  0  0  0  0  0  0  0  0  0
    1.4222   -1.5271   -0.1287 N   0  0  0  0  0  0  0  0  0  0  0  0
   -2.8729    0.4590    0.3002 C   0  0  1  0  0  0  0  0  0  0  0  0
   -2.3411   -0.9460    0.0870 C   0  0  1  0  0  0  0  0  0  0  0  0
   -0.8515   -0.7344    0.3212 C   0  0  1  0  0  0  0  0  0  0  0  0
   -1.7860    1.2948   -0.3553 C   0  0  0  0  0  0  0  0  0  0  0  0
    0.0182   -1.7670   -0.3735 C   0  0  0  0  0  0  0  0  0  0  0  0
    3.9577    0.5452    0.4700 C   0  0  0  0  0  0  0  0  0  0  0  0
    3.6522   -0.6426   -0.4733 C   0  0  0  0  0  0  0  0  0  0  0  0
   -5.1871   -0.1895    0.3421 C   0  0  0  0  0  0  0  0  0  0  0  0
   -4.5859    2.0844   -0.1485 C   0  0  0  0  0  0  0  0  0  0  0  0
    2.2083   -0.7273   -0.9406 C   0  0  0  0  0  0  0  0  0  0  0  0
    5.4400    0.5600    0.8795 C   0  0  0  0  0  0  0  0  0  0  0  0
    3.6495    1.8500   -0.2905 C   0  0  0  0  0  0  0  0  0  0  0  0
    3.0825    0.5009    1.7331 C   0  0  0  0  0  0  0  0  0  0  0  0
   -2.8933    0.6777    1.3785 H   0  0  0  0  0  0  0  0  0  0  0  0
   -2.5331   -1.2912   -0.9368 H   0  0  0  0  0  0  0  0  0  0  0  0
   -0.6205   -0.7279    1.3946 H   0  0  0  0  0  0  0  0  0  0  0  0
   -1.9399    1.4132   -1.4342 H   0  0  0  0  0  0  0  0  0  0  0  0
   -1.6828    2.2878    0.0929 H   0  0  0  0  0  0  0  0  0  0  0  0
   -0.1465   -1.7420   -1.4567 H   0  0  0  0  0  0  0  0  0  0  0  0
   -0.2091   -2.7744   -0.0103 H   0  0  0  0  0  0  0  0  0  0  0  0
    1.8365   -1.9660    0.6881 H   0  0  0  0  0  0  0  0  0  0  0  0
    3.9215   -1.5849    0.0215 H   0  0  0  0  0  0  0  0  0  0  0  0
    4.2816   -0.5875   -1.3712 H   0  0  0  0  0  0  0  0  0  0  0  0
   -2.7218   -1.5643    1.8985 H   0  0  0  0  0  0  0  0  0  0  0  0
   -6.1918    0.0652   -0.0164 H   0  0  0  0  0  0  0  0  0  0  0  0
   -5.1919   -0.1058    1.4349 H   0  0  0  0  0  0  0  0  0  0  0  0
   -5.0426   -1.2358    0.0576 H   0  0  0  0  0  0  0  0  0  0  0  0
   -5.5857    2.2393   -0.5707 H   0  0  0  0  0  0  0  0  0  0  0  0
   -3.9224    2.7502   -0.7098 H   0  0  0  0  0  0  0  0  0  0  0  0
   -4.6054    2.4097    0.8982 H   0  0  0  0  0  0  0  0  0  0  0  0
    5.6696    1.4159    1.5240 H   0  0  0  0  0  0  0  0  0  0  0  0
    6.0912    0.6191    0.0003 H   0  0  0  0  0  0  0  0  0  0  0  0
    5.7022   -0.3517    1.4278 H   0  0  0  0  0  0  0  0  0  0  0  0
    3.9372    2.7249    0.3046 H   0  0  0  0  0  0  0  0  0  0  0  0
    4.2021    1.9001   -1.2355 H   0  0  0  0  0  0  0  0  0  0  0  0
    2.5828    1.9565   -0.5143 H   0  0  0  0  0  0  0  0  0  0  0  0
    3.2100   -0.4482    2.2654 H   0  0  0  0  0  0  0  0  0  0  0  0
    3.3530    1.3066    2.4256 H   0  0  0  0  0  0  0  0  0  0  0  0
    2.0191    0.6226    1.5036 H   0  0  0  0  0  0  0  0  0  0  0  0
  1  8  1  0  0  0  0
  1  9  1  0  0  0  0
  2  7  1  0  0  0  0
  2 29  1  0  0  0  0
  3 15  2  0  0  0  0
  4  6  1  0  0  0  0
  4 13  1  0  0  0  0
  4 14  1  0  0  0  0
  5 10  1  0  0  0  0
  5 15  1  0  0  0  0
  5 26  1  0  0  0  0
  6  7  1  0  0  0  0
  6  9  1  0  0  0  0
  6 19  1  0  0  0  0
  7  8  1  0  0  0  0
  7 20  1  0  0  0  0
  8 10  1  0  0  0  0
  8 21  1  0  0  0  0
  9 22  1  0  0  0  0
  9 23  1  0  0  0  0
 10 24  1  0  0  0  0
 10 25  1  0  0  0  0
 11 12  1  0  0  0  0
 11 16  1  0  0  0  0
 11 17  1  0  0  0  0
 11 18  1  0  0  0  0
 12 15  1  0  0  0  0
 12 27  1  0  0  0  0
 12 28  1  0  0  0  0
 13 30  1  0  0  0  0
 13 31  1  0  0  0  0
 13 32  1  0  0  0  0
 14 33  1  0  0  0  0
 14 34  1  0  0  0  0
 14 35  1  0  0  0  0
 16 36  1  0  0  0  0
 16 37  1  0  0  0  0
 16 38  1  0  0  0  0
 17 39  1  0  0  0  0
 17 40  1  0  0  0  0
 17 41  1  0  0  0  0
 18 42  1  0  0  0  0
 18 43  1  0  0  0  0
 18 44  1  0  0  0  0
M  END
> <PUBCHEM_COMPOUND_CID>
75536512

> <PUBCHEM_CONFORMER_RMSD>
0.8

> <PUBCHEM_CONFORMER_DIVERSEORDER>
1
18
48
123
41
23
28
16
77
11
100
126
65
49
19
117
24
97
107
73
21
36
80
69
27
98
125
76
130
51
112
122
50
4
87
43
110
113
83
35
92
118
15
45
53
7
121
89
133
9
44
103
2
81
72
85
86
116
91
74
120
84
6
39
25
93
127
57
56
62
22
131
102
13
134
101
32
31
30
71
20
90
106
79
14
129
114
96
42
59
128
17
37
108
95
119
58
67
12
75
68
111
40
33
99
104
29
82
78
64
115
8
34
61
88
105
55
132
63
10
109
54
124
60
94
70
46
52
5
66
3
26
38
47

> <PUBCHEM_MMFF94_PARTIAL_CHARGES>
16
1 -0.56
10 0.3
12 0.06
13 0.27
14 0.27
15 0.57
2 -0.68
26 0.37
29 0.4
3 -0.57
4 -0.81
5 -0.73
6 0.27
7 0.28
8 0.28
9 0.28

> <PUBCHEM_EFFECTIVE_ROTOR_COUNT>
7

> <PUBCHEM_PHARMACOPHORE_FEATURES>
8
1 1 acceptor
1 2 acceptor
1 2 donor
1 3 acceptor
1 4 cation
1 5 donor
4 11 16 17 18 hydrophobe
5 1 6 7 8 9 rings

> <PUBCHEM_HEAVY_ATOM_COUNT>
18

> <PUBCHEM_ATOM_DEF_STEREO_COUNT>
3

> <PUBCHEM_ATOM_UDEF_STEREO_COUNT>
0

> <PUBCHEM_BOND_DEF_STEREO_COUNT>
0

> <PUBCHEM_BOND_UDEF_STEREO_COUNT>
0

> <PUBCHEM_ISOTOPIC_ATOM_COUNT>
0

> <PUBCHEM_COMPONENT_COUNT>
1

> <PUBCHEM_CACTVS_TAUTO_COUNT>
2

> <PUBCHEM_CONFORMER_ID>
0480988000000001

> <PUBCHEM_MMFF94_ENERGY>
43.2948

> <PUBCHEM_FEATURE_SELFOVERLAP>
40.596

> <PUBCHEM_SHAPE_FINGERPRINT>
11128504 68 13758067524043733160
11132069 177 18261118460831468615
11543360 7 16486964077764163253
12236239 1 17095241419293850568
12403259 415 18339084778659201805
12596602 18 16878228652972182696
12616999 72 14836403601609078670
12633257 1 18114167654011687232
12670546 56 16225761917720986589
12788726 201 17100053045223083482
12969540 114 18059561461295463141
13214271 11 18411980290889094607
13675066 3 17822017484235797219
14341114 176 18334294249984607984
14341114 328 17676485090418202440
15375358 24 18413108351143108679
17834072 33 16702013193422650597
1813 80 15357976695353684054
18186145 218 18059310789481476486
20279233 1 18341338837615199883
20645477 56 18334582313277672135
20645477 70 17417819387604183094
21150785 3 17774991377171141181
21452121 103 18340484461377776882
22094290 60 11600008747512059963
22854114 59 18413671296553681781
231179 274 17989767804564363466
23227448 37 18058444468570465629
23402539 116 18272359902126199974
23402655 69 17203608177220596432
23557571 272 18271533094925510983
23559900 14 18338521824574700702
23590187 173 18343300331957293852
2838139 119 17917135174656791448
3060560 45 15985103016331419612
328317 168 18272082807710176125
351380 180 18412822478241277588
3545911 37 18342460335428393030
42 15 13262681417635227343
4325135 7 18060131077006440343
465052 167 11891339724889697080
474 4 18343301474539920392
5104073 3 18262807238035985339
548570 60 18343862221211957776
6333272 397 18410856568467211460
7364860 26 18196373615593543782
90316 7 17168141221985154253
94968 8 8142085373340791708

> <PUBCHEM_SHAPE_MULTIPOLES>
342.86
11.11
1.85
1.15
1.13
0.1
0.02
4.45
-2.01
0.8
0.07
-1
-0.04
0.92

> <PUBCHEM_SHAPE_SELFOVERLAP>
674.75

> <PUBCHEM_SHAPE_VOLUME>
208.6

> <PUBCHEM_COORDINATE_TYPE>
2
5
10

$$$$
