75536090
  -OEChem-12032416293D

 59 63  0     1  0  0  0  0  0999 V2000
    1.2508   -4.4497   -1.3356 O   0  0  0  0  0  0  0  0  0  0  0  0
   -1.4195   -4.7656   -0.7798 O   0  0  0  0  0  0  0  0  0  0  0  0
    0.5082    0.1010   -1.4926 O   0  0  0  0  0  0  0  0  0  0  0  0
   -6.7131    3.4610   -0.1014 O   0  0  0  0  0  0  0  0  0  0  0  0
    5.4611    0.8600    1.6135 O   0  0  0  0  0  0  0  0  0  0  0  0
    6.1863    2.7019   -0.4821 O   0  0  0  0  0  0  0  0  0  0  0  0
    1.4519   -1.5713   -0.1918 N   0  0  0  0  0  0  0  0  0  0  0  0
   -2.7928    0.8089    1.3188 N   0  0  0  0  0  0  0  0  0  0  0  0
   -4.6729    1.5364    0.0792 N   0  0  0  0  0  0  0  0  0  0  0  0
   -0.6146   -2.2778    0.9766 C   0  0  2  0  0  0  0  0  0  0  0  0
    0.3284   -2.4728   -0.2321 C   0  0  2  0  0  0  0  0  0  0  0  0
    0.7637   -3.9325   -0.1118 C   0  0  1  0  0  0  0  0  0  0  0  0
   -1.1257   -3.6942    1.3465 C   0  0  0  0  0  0  0  0  0  0  0  0
   -0.5164   -4.6411    0.3146 C   0  0  1  0  0  0  0  0  0  0  0  0
   -1.7115   -1.2674    0.7149 C   0  0  0  0  0  0  0  0  0  0  0  0
   -2.6258   -1.4521   -0.3163 C   0  0  0  0  0  0  0  0  0  0  0  0
   -1.8370   -0.1305    1.4970 C   0  0  0  0  0  0  0  0  0  0  0  0
    1.4469   -0.3411   -0.8356 C   0  0  0  0  0  0  0  0  0  0  0  0
   -3.6234   -0.5075   -0.5309 C   0  0  0  0  0  0  0  0  0  0  0  0
   -3.6634    0.5954    0.3068 C   0  0  0  0  0  0  0  0  0  0  0  0
    2.6928    0.4596   -0.7200 C   0  0  0  0  0  0  0  0  0  0  0  0
   -4.4021    2.9400    0.4190 C   0  0  0  0  0  0  0  0  0  0  0  0
   -6.0810    1.1337    0.1642 C   0  0  0  0  0  0  0  0  0  0  0  0
   -5.3606    3.8483   -0.3429 C   0  0  0  0  0  0  0  0  0  0  0  0
   -6.9503    2.1388   -0.5834 C   0  0  0  0  0  0  0  0  0  0  0  0
    3.5273    0.2939    0.3857 C   0  0  0  0  0  0  0  0  0  0  0  0
    3.0245    1.3792   -1.7156 C   0  0  0  0  0  0  0  0  0  0  0  0
    4.6931    1.0523    0.4949 C   0  0  0  0  0  0  0  0  0  0  0  0
    4.1971    2.1282   -1.6138 C   0  0  0  0  0  0  0  0  0  0  0  0
    5.0390    1.9533   -0.5153 C   0  0  0  0  0  0  0  0  0  0  0  0
    6.4183    1.9078    1.7900 C   0  0  0  0  0  0  0  0  0  0  0  0
    7.1208    2.2037    0.4793 C   0  0  0  0  0  0  0  0  0  0  0  0
   -0.0241   -1.9209    1.8334 H   0  0  0  0  0  0  0  0  0  0  0  0
   -0.1822   -2.3234   -1.1915 H   0  0  0  0  0  0  0  0  0  0  0  0
    1.5412   -4.0488    0.6539 H   0  0  0  0  0  0  0  0  0  0  0  0
   -0.7412   -3.9508    2.3417 H   0  0  0  0  0  0  0  0  0  0  0  0
   -2.2182   -3.7606    1.3861 H   0  0  0  0  0  0  0  0  0  0  0  0
   -0.3252   -5.6432    0.7097 H   0  0  0  0  0  0  0  0  0  0  0  0
    2.2735   -1.8845    0.3134 H   0  0  0  0  0  0  0  0  0  0  0  0
    1.4164   -5.3991   -1.2060 H   0  0  0  0  0  0  0  0  0  0  0  0
   -2.2294   -5.1860   -0.4437 H   0  0  0  0  0  0  0  0  0  0  0  0
   -2.5797   -2.3226   -0.9629 H   0  0  0  0  0  0  0  0  0  0  0  0
   -1.1550    0.0723    2.3168 H   0  0  0  0  0  0  0  0  0  0  0  0
   -4.3276   -0.6457   -1.3448 H   0  0  0  0  0  0  0  0  0  0  0  0
   -3.3727    3.2174    0.1627 H   0  0  0  0  0  0  0  0  0  0  0  0
   -4.5390    3.0772    1.4987 H   0  0  0  0  0  0  0  0  0  0  0  0
   -6.3712    1.1064    1.2218 H   0  0  0  0  0  0  0  0  0  0  0  0
   -6.2532    0.1367   -0.2552 H   0  0  0  0  0  0  0  0  0  0  0  0
   -5.1618    3.8244   -1.4212 H   0  0  0  0  0  0  0  0  0  0  0  0
   -5.2413    4.8831   -0.0066 H   0  0  0  0  0  0  0  0  0  0  0  0
   -8.0084    1.9078   -0.4243 H   0  0  0  0  0  0  0  0  0  0  0  0
   -6.7616    2.1047   -1.6633 H   0  0  0  0  0  0  0  0  0  0  0  0
    3.2791   -0.3822    1.1990 H   0  0  0  0  0  0  0  0  0  0  0  0
    2.3861    1.5204   -2.5838 H   0  0  0  0  0  0  0  0  0  0  0  0
    4.4528    2.8352   -2.3984 H   0  0  0  0  0  0  0  0  0  0  0  0
    7.1408    1.5755    2.5419 H   0  0  0  0  0  0  0  0  0  0  0  0
    5.9008    2.7930    2.1800 H   0  0  0  0  0  0  0  0  0  0  0  0
    7.8892    2.9693    0.6242 H   0  0  0  0  0  0  0  0  0  0  0  0
    7.6027    1.3081    0.0678 H   0  0  0  0  0  0  0  0  0  0  0  0
  1 12  1  0  0  0  0
  1 40  1  0  0  0  0
  2 14  1  0  0  0  0
  2 41  1  0  0  0  0
  3 18  2  0  0  0  0
  4 24  1  0  0  0  0
  4 25  1  0  0  0  0
  5 28  1  0  0  0  0
  5 31  1  0  0  0  0
  6 30  1  0  0  0  0
  6 32  1  0  0  0  0
  7 11  1  0  0  0  0
  7 18  1  0  0  0  0
  7 39  1  0  0  0  0
  8 17  1  0  0  0  0
  8 20  2  0  0  0  0
  9 20  1  0  0  0  0
  9 22  1  0  0  0  0
  9 23  1  0  0  0  0
 10 11  1  0  0  0  0
 10 13  1  0  0  0  0
 10 15  1  0  0  0  0
 10 33  1  0  0  0  0
 11 12  1  0  0  0  0
 11 34  1  0  0  0  0
 12 14  1  0  0  0  0
 12 35  1  0  0  0  0
 13 14  1  0  0  0  0
 13 36  1  0  0  0  0
 13 37  1  0  0  0  0
 14 38  1  0  0  0  0
 15 16  1  0  0  0  0
 15 17  2  0  0  0  0
 16 19  2  0  0  0  0
 16 42  1  0  0  0  0
 17 43  1  0  0  0  0
 18 21  1  0  0  0  0
 19 20  1  0  0  0  0
 19 44  1  0  0  0  0
 21 26  2  0  0  0  0
 21 27  1  0  0  0  0
 22 24  1  0  0  0  0
 22 45  1  0  0  0  0
 22 46  1  0  0  0  0
 23 25  1  0  0  0  0
 23 47  1  0  0  0  0
 23 48  1  0  0  0  0
 24 49  1  0  0  0  0
 24 50  1  0  0  0  0
 25 51  1  0  0  0  0
 25 52  1  0  0  0  0
 26 28  1  0  0  0  0
 26 53  1  0  0  0  0
 27 29  2  0  0  0  0
 27 54  1  0  0  0  0
 28 30  2  0  0  0  0
 29 30  1  0  0  0  0
 29 55  1  0  0  0  0
 31 32  1  0  0  0  0
 31 56  1  0  0  0  0
 31 57  1  0  0  0  0
 32 58  1  0  0  0  0
 32 59  1  0  0  0  0
M  END
> <PUBCHEM_COMPOUND_CID>
75536090

> <PUBCHEM_CONFORMER_RMSD>
1

> <PUBCHEM_CONFORMER_DIVERSEORDER>
1
16
29
43
42
13
12
27
38
35
49
34
21
10
19
4
41
39
23
22
32
47
30
48
11
5
24
14
45
37
2
7
40
25
17
3
26
6
8
44
9
20
33
28
36
15
18
46
31

> <PUBCHEM_MMFF94_PARTIAL_CHARGES>
40
1 -0.68
10 0.14
11 0.3
12 0.28
14 0.28
15 -0.14
16 -0.15
17 0.16
18 0.54
19 -0.15
2 -0.68
20 0.41
21 0.09
22 0.37
23 0.37
24 0.28
25 0.28
26 -0.15
27 -0.15
28 0.08
29 -0.15
3 -0.57
30 0.08
31 0.28
32 0.28
39 0.37
4 -0.56
40 0.4
41 0.4
42 0.15
43 0.15
44 0.15
5 -0.36
53 0.15
54 0.15
55 0.15
6 -0.36
7 -0.73
8 -0.62
9 -0.84

> <PUBCHEM_EFFECTIVE_ROTOR_COUNT>
8

> <PUBCHEM_PHARMACOPHORE_FEATURES>
15
1 1 acceptor
1 1 donor
1 2 acceptor
1 2 donor
1 3 acceptor
1 4 acceptor
1 5 acceptor
1 6 acceptor
1 7 donor
3 8 9 20 cation
5 10 11 12 13 14 rings
6 21 26 27 28 29 30 rings
6 4 9 22 23 24 25 rings
6 5 6 28 30 31 32 rings
6 8 15 16 17 19 20 rings

> <PUBCHEM_HEAVY_ATOM_COUNT>
32

> <PUBCHEM_ATOM_DEF_STEREO_COUNT>
4

> <PUBCHEM_ATOM_UDEF_STEREO_COUNT>
0

> <PUBCHEM_BOND_DEF_STEREO_COUNT>
0

> <PUBCHEM_BOND_UDEF_STEREO_COUNT>
0

> <PUBCHEM_ISOTOPIC_ATOM_COUNT>
0

> <PUBCHEM_COMPONENT_COUNT>
1

> <PUBCHEM_CACTVS_TAUTO_COUNT>
2

> <PUBCHEM_CONFORMER_ID>
048096DA00000001

> <PUBCHEM_MMFF94_ENERGY>
111.399

> <PUBCHEM_FEATURE_SELFOVERLAP>
76.178

> <PUBCHEM_SHAPE_FINGERPRINT>
10439779 11 18336263552387894012
10673678 19 18339079277212173739
10675989 125 18124321505912166657
10937287 8 18410860928133635423
11059845 2 18336816585762560416
11135609 127 18122052110598547333
12107183 9 18260819385674923842
12293681 160 17917713487417691201
12422481 6 17531245011214865380
12788726 201 17902791100168763642
12988421 55 18114166541245684695
13540713 4 18263949682062705195
13583140 156 17344355695042342622
14294032 229 18268720574684489059
15198563 99 17910389816775804719
15420108 30 18336255791002162358
15439362 3 18339082588595574574
15513586 35 16809278412091447396
16120349 189 18408887351542187812
16988056 13 17760369885679545334
19053607 189 18115037290178976725
19304144 158 18187077309985831741
19304671 126 17774171076149560189
20238998 120 17401766324570912426
20554085 129 18272639147693338992
20587220 17 18123460589093888093
20715895 44 18408886205012740496
21033648 29 18336838540791449308
21133410 221 17342637179384621968
21133410 32 15122650596260517084
21304303 282 18270389607307375055
21792938 324 16964895148775759938
22950370 63 9655576318249296513
23522609 53 17459762613253453020
23569914 2 16954188251354945205
23929065 36 18054776557962871194
2748736 6 18408880724666586925
3411729 13 18261952934259111467
376196 1 18411986827645215894
4366758 6 18409438185640845221
4394409 98 18410011043857536936
4938544 92 18196370540976740920
5171179 24 17831861248398254406
5219985 13 18411134727496957079
6058803 2 17607528231118989804
6201320 77 14563913774234587448
6327066 14 18409166627474381205
6371009 1 18262233434568701781
6371380 46 18338527335624396718
6695519 79 18196121922484365835
9849439 229 18408889516442977653
9896288 288 18116438235723256882
9961470 85 18411420583852512994
9981440 41 18408610270649298227

> <PUBCHEM_SHAPE_MULTIPOLES>
608.39
16.53
6.16
1.41
3.42
7.06
-0.08
-27.7
-2.19
-4.36
0.7
1.51
-0.08
0.63

> <PUBCHEM_SHAPE_SELFOVERLAP>
1322.099

> <PUBCHEM_SHAPE_VOLUME>
329.3

> <PUBCHEM_COORDINATE_TYPE>
2
5
10

$$$$
