11865971
  -OEChem-12032416343D

 60 63  0     1  0  0  0  0  0999 V2000
   -5.1470   -4.1104    1.3755 S   0  0  0  0  0  0  0  0  0  0  0  0
    0.0622    0.5441   -1.8991 O   0  0  0  0  0  0  0  0  0  0  0  0
   -3.8221    3.0382    1.4857 O   0  0  0  0  0  0  0  0  0  0  0  0
    1.8215   -0.6463    0.2425 O   0  0  0  0  0  0  0  0  0  0  0  0
   -5.9852   -2.2265   -0.9522 O   0  0  0  0  0  0  0  0  0  0  0  0
    4.8070   -0.5556   -1.8197 O   0  0  0  0  0  0  0  0  0  0  0  0
   -1.9942    0.9890   -0.9194 N   0  0  0  0  0  0  0  0  0  0  0  0
    1.4878    1.6432    0.2041 N   0  0  0  0  0  0  0  0  0  0  0  0
   -1.6333    3.3187    0.9972 N   0  0  0  0  0  0  0  0  0  0  0  0
   -3.7870   -1.4763   -0.8572 N   0  0  0  0  0  0  0  0  0  0  0  0
    0.0283    1.6002    0.2709 C   0  0  1  0  0  0  0  0  0  0  0  0
   -0.4036    3.0694    0.2766 C   0  0  2  0  0  0  0  0  0  0  0  0
   -2.8136    1.2201    0.2750 C   0  0  2  0  0  0  0  0  0  0  0  0
   -4.2376    0.8389   -0.1764 C   0  0  0  0  0  0  0  0  0  0  0  0
   -4.0217   -0.1335   -1.3322 C   0  0  1  0  0  0  0  0  0  0  0  0
    0.8035    3.7857    0.8759 C   0  0  0  0  0  0  0  0  0  0  0  0
   -2.7882    0.4417   -2.0130 C   0  0  0  0  0  0  0  0  0  0  0  0
   -0.6038    0.9731   -0.9585 C   0  0  0  0  0  0  0  0  0  0  0  0
    1.9717    3.0190    0.2742 C   0  0  0  0  0  0  0  0  0  0  0  0
   -2.8153    2.6207    0.9010 C   0  0  0  0  0  0  0  0  0  0  0  0
    2.2673    0.5009    0.3066 C   0  0  0  0  0  0  0  0  0  0  0  0
    3.7449    0.7305    0.5001 C   0  0  0  0  0  0  0  0  0  0  0  0
   -4.7953   -2.4164   -0.7060 C   0  0  0  0  0  0  0  0  0  0  0  0
    4.4780   -0.5733    0.5547 C   0  0  0  0  0  0  0  0  0  0  0  0
   -4.2950   -3.7396   -0.1765 C   0  0  0  0  0  0  0  0  0  0  0  0
    4.9756   -1.1564   -0.6084 C   0  0  0  0  0  0  0  0  0  0  0  0
    4.6577   -1.1993    1.7862 C   0  0  0  0  0  0  0  0  0  0  0  0
    5.6566   -2.3718   -0.5397 C   0  0  0  0  0  0  0  0  0  0  0  0
    5.3386   -2.4148    1.8547 C   0  0  0  0  0  0  0  0  0  0  0  0
    5.8379   -3.0011    0.6919 C   0  0  0  0  0  0  0  0  0  0  0  0
   -4.6183   -2.6650    2.3248 C   0  0  0  0  0  0  0  0  0  0  0  0
    5.8228    0.3532   -2.2392 C   0  0  0  0  0  0  0  0  0  0  0  0
   -0.2474    1.0460    1.1747 H   0  0  0  0  0  0  0  0  0  0  0  0
   -0.5620    3.4441   -0.7444 H   0  0  0  0  0  0  0  0  0  0  0  0
   -2.4705    0.5183    1.0456 H   0  0  0  0  0  0  0  0  0  0  0  0
   -4.7717    1.7225   -0.5504 H   0  0  0  0  0  0  0  0  0  0  0  0
   -4.8268    0.4189    0.6455 H   0  0  0  0  0  0  0  0  0  0  0  0
   -4.8822   -0.1504   -2.0092 H   0  0  0  0  0  0  0  0  0  0  0  0
    0.8305    4.8523    0.6342 H   0  0  0  0  0  0  0  0  0  0  0  0
    0.8064    3.6860    1.9688 H   0  0  0  0  0  0  0  0  0  0  0  0
   -3.0549    1.2838   -2.6617 H   0  0  0  0  0  0  0  0  0  0  0  0
   -2.2230   -0.2913   -2.5968 H   0  0  0  0  0  0  0  0  0  0  0  0
    2.8776    3.1249    0.8735 H   0  0  0  0  0  0  0  0  0  0  0  0
    2.1785    3.3465   -0.7504 H   0  0  0  0  0  0  0  0  0  0  0  0
   -1.6952    4.2131    1.4746 H   0  0  0  0  0  0  0  0  0  0  0  0
   -2.8423   -1.7152   -0.5699 H   0  0  0  0  0  0  0  0  0  0  0  0
    4.1244    1.3767   -0.2966 H   0  0  0  0  0  0  0  0  0  0  0  0
    3.8997    1.2673    1.4440 H   0  0  0  0  0  0  0  0  0  0  0  0
   -4.5267   -4.5144   -0.9137 H   0  0  0  0  0  0  0  0  0  0  0  0
   -3.2133   -3.7434   -0.0148 H   0  0  0  0  0  0  0  0  0  0  0  0
    4.2718   -0.7552    2.6998 H   0  0  0  0  0  0  0  0  0  0  0  0
    6.0477   -2.8350   -1.4416 H   0  0  0  0  0  0  0  0  0  0  0  0
    5.4792   -2.9051    2.8136 H   0  0  0  0  0  0  0  0  0  0  0  0
    6.3677   -3.9477    0.7453 H   0  0  0  0  0  0  0  0  0  0  0  0
   -5.1106   -1.7586    1.9647 H   0  0  0  0  0  0  0  0  0  0  0  0
   -4.9010   -2.8077    3.3715 H   0  0  0  0  0  0  0  0  0  0  0  0
   -3.5328   -2.5443    2.2774 H   0  0  0  0  0  0  0  0  0  0  0  0
    6.1322    1.0213   -1.4292 H   0  0  0  0  0  0  0  0  0  0  0  0
    6.6891   -0.2069   -2.6043 H   0  0  0  0  0  0  0  0  0  0  0  0
    5.4255    0.9568   -3.0598 H   0  0  0  0  0  0  0  0  0  0  0  0
  1 25  1  0  0  0  0
  1 31  1  0  0  0  0
  2 18  2  0  0  0  0
  3 20  2  0  0  0  0
  4 21  2  0  0  0  0
  5 23  2  0  0  0  0
  6 26  1  0  0  0  0
  6 32  1  0  0  0  0
  7 13  1  0  0  0  0
  7 17  1  0  0  0  0
  7 18  1  0  0  0  0
  8 11  1  0  0  0  0
  8 19  1  0  0  0  0
  8 21  1  0  0  0  0
  9 12  1  0  0  0  0
  9 20  1  0  0  0  0
  9 45  1  0  0  0  0
 10 15  1  0  0  0  0
 10 23  1  0  0  0  0
 10 46  1  0  0  0  0
 11 12  1  0  0  0  0
 11 18  1  0  0  0  0
 11 33  1  0  0  0  0
 12 16  1  0  0  0  0
 12 34  1  0  0  0  0
 13 14  1  0  0  0  0
 13 20  1  0  0  0  0
 13 35  1  0  0  0  0
 14 15  1  0  0  0  0
 14 36  1  0  0  0  0
 14 37  1  0  0  0  0
 15 17  1  0  0  0  0
 15 38  1  0  0  0  0
 16 19  1  0  0  0  0
 16 39  1  0  0  0  0
 16 40  1  0  0  0  0
 17 41  1  0  0  0  0
 17 42  1  0  0  0  0
 19 43  1  0  0  0  0
 19 44  1  0  0  0  0
 21 22  1  0  0  0  0
 22 24  1  0  0  0  0
 22 47  1  0  0  0  0
 22 48  1  0  0  0  0
 23 25  1  0  0  0  0
 24 26  1  0  0  0  0
 24 27  2  0  0  0  0
 25 49  1  0  0  0  0
 25 50  1  0  0  0  0
 26 28  2  0  0  0  0
 27 29  1  0  0  0  0
 27 51  1  0  0  0  0
 28 30  1  0  0  0  0
 28 52  1  0  0  0  0
 29 30  2  0  0  0  0
 29 53  1  0  0  0  0
 30 54  1  0  0  0  0
 31 55  1  0  0  0  0
 31 56  1  0  0  0  0
 31 57  1  0  0  0  0
 32 58  1  0  0  0  0
 32 59  1  0  0  0  0
 32 60  1  0  0  0  0
M  END
> <PUBCHEM_COMPOUND_CID>
11865971

> <PUBCHEM_CONFORMER_RMSD>
1

> <PUBCHEM_CONFORMER_DIVERSEORDER>
2
78
115
118
83
103
20
212
130
35
37
59
85
21
34
151
160
128
182
41
79
93
100
55
87
65
155
140
120
23
49
161
58
198
97
209
179
75
211
32
82
181
169
134
102
73
187
197
64
162
81
176
163
141
154
147
189
38
208
168
60
80
36
108
96
8
68
30
10
165
119
11
138
178
52
175
139
166
142
13
29
125
46
14
203
144
174
123
129
146
112
184
16
157
156
5
43
113
190
76
111
149
31
84
101
89
50
69
57
6
9
167
196
27
116
45
137
193
105
15
195
164
25
192
135
99
63
159
62
186
91
3
170
67
53
207
7
121
51
148
117
17
98
107
72
95
56
94
136
19
26
145
131
4
158
24
177
66
194
133
104
210
70
153
92
143
86
172
48
191
114
54
185
47
39
74
88
124
150
126
28
183
206
40
22
106
132
12
109
42
1
110
201
90
173
61
33
188
180
71
200
127
77
204
122
199
171
202
18
44
152
205

> <PUBCHEM_MMFF94_PARTIAL_CHARGES>
36
1 -0.46
10 -0.73
11 0.36
12 0.3
13 0.36
15 0.3
17 0.3
18 0.57
19 0.3
2 -0.57
20 0.57
21 0.57
22 0.2
23 0.57
24 -0.14
25 0.29
26 0.08
27 -0.15
28 -0.15
29 -0.15
3 -0.57
30 -0.15
31 0.23
32 0.28
4 -0.57
45 0.37
46 0.37
5 -0.57
51 0.15
52 0.15
53 0.15
54 0.15
6 -0.36
7 -0.66
8 -0.66
9 -0.73

> <PUBCHEM_EFFECTIVE_ROTOR_COUNT>
9.4

> <PUBCHEM_PHARMACOPHORE_FEATURES>
12
1 10 donor
1 2 acceptor
1 3 acceptor
1 31 hydrophobe
1 4 acceptor
1 5 acceptor
1 6 acceptor
1 9 donor
5 7 13 14 15 17 rings
5 8 11 12 16 19 rings
6 24 26 27 28 29 30 rings
7 7 9 11 12 13 18 20 rings

> <PUBCHEM_HEAVY_ATOM_COUNT>
32

> <PUBCHEM_ATOM_DEF_STEREO_COUNT>
4

> <PUBCHEM_ATOM_UDEF_STEREO_COUNT>
0

> <PUBCHEM_BOND_DEF_STEREO_COUNT>
0

> <PUBCHEM_BOND_UDEF_STEREO_COUNT>
0

> <PUBCHEM_ISOTOPIC_ATOM_COUNT>
0

> <PUBCHEM_COMPONENT_COUNT>
1

> <PUBCHEM_CACTVS_TAUTO_COUNT>
4

> <PUBCHEM_CONFORMER_ID>
00B50F7300000002

> <PUBCHEM_MMFF94_ENERGY>
107.7142

> <PUBCHEM_FEATURE_SELFOVERLAP>
60.98

> <PUBCHEM_SHAPE_FINGERPRINT>
10169797 241 18200594825874560010
10928967 22 18115300060577530514
11387372 6 18196379104440214527
117089 54 18341900649777724630
12422481 6 17060071349488273647
13383661 66 17390243846707512707
1361 4 18268708313012151974
1361 87 17896320388714320563
13782708 43 18187352277690982167
14739800 52 12750425573627145191
14866123 147 18341895148313904049
15250474 111 18263923237959158266
15728490 83 18408606929228565147
15799311 1 18268442247881668414
17138139 8 17894903023678503098
17349148 13 17970632879489671424
17492 89 18269829968920820797
1813 80 18339074896504592804
18603816 31 17969220040569247219
19246450 95 11670400465970853526
20775530 9 18189897694058686995
21033648 29 16415189027870500428
22122407 14 14620214309398539928
23559900 14 18267567152748389813
3383291 50 17916855847516767351
3737641 26 18050291659139656315
463206 1 18263357006254960834
484985 159 18337106770737703227
50009960 94 18119494787943474362
5104073 3 17988915657130449456
5486654 36 18410857642441170241
57724786 102 12391503227038445282
7918774 8 18341900705289915758
7970288 3 18339070502351855762

> <PUBCHEM_SHAPE_MULTIPOLES>
613.12
15.49
5.32
1.91
7.27
0.86
0.23
18.71
0.57
-4.83
-2.84
0.19
0.52
-0.56

> <PUBCHEM_SHAPE_SELFOVERLAP>
1291.724

> <PUBCHEM_SHAPE_VOLUME>
346.4

> <PUBCHEM_COORDINATE_TYPE>
2
5
10

$$$$
