45784205
  -OEChem-12032416283D

 39 42  0     1  0  0  0  0  0999 V2000
   -3.9328   -2.0852   -0.7507 F   0  0  0  0  0  0  0  0  0  0  0  0
    3.0626   -1.1948    0.6073 O   0  0  0  0  0  0  0  0  0  0  0  0
   -1.4969   -0.1283   -0.0150 N   0  0  1  0  0  0  0  0  0  0  0  0
    2.6369    0.8863   -0.1831 N   0  0  0  0  0  0  0  0  0  0  0  0
    0.7109   -0.5551    0.6503 C   0  0  1  0  0  0  0  0  0  0  0  0
    0.0403    0.3865    1.6657 C   0  0  0  0  0  0  0  0  0  0  0  0
   -0.2022   -0.5111   -0.5823 C   0  0  0  0  0  0  0  0  0  0  0  0
   -1.1889    0.9289    0.9480 C   0  0  0  0  0  0  0  0  0  0  0  0
   -2.4421    0.3071   -1.0326 C   0  0  0  0  0  0  0  0  0  0  0  0
    2.1498   -0.2222    0.3298 C   0  0  0  0  0  0  0  0  0  0  0  0
   -3.8608    0.2772   -0.5295 C   0  0  0  0  0  0  0  0  0  0  0  0
    4.2501   -0.6376    0.2282 C   0  0  0  0  0  0  0  0  0  0  0  0
    3.9857    0.6356   -0.2549 C   0  0  0  0  0  0  0  0  0  0  0  0
   -4.5374   -0.9370   -0.4151 C   0  0  0  0  0  0  0  0  0  0  0  0
   -4.4985    1.4668   -0.1775 C   0  0  0  0  0  0  0  0  0  0  0  0
    5.5138   -1.2110    0.2982 C   0  0  0  0  0  0  0  0  0  0  0  0
    5.0527    1.4222   -0.7119 C   0  0  0  0  0  0  0  0  0  0  0  0
   -5.8517   -0.9620    0.0514 C   0  0  0  0  0  0  0  0  0  0  0  0
   -5.8129    1.4420    0.2890 C   0  0  0  0  0  0  0  0  0  0  0  0
    6.5671   -0.4133   -0.1618 C   0  0  0  0  0  0  0  0  0  0  0  0
    6.3438    0.8774   -0.6571 C   0  0  0  0  0  0  0  0  0  0  0  0
   -6.4895    0.2277    0.4035 C   0  0  0  0  0  0  0  0  0  0  0  0
    0.6814   -1.5704    1.0708 H   0  0  0  0  0  0  0  0  0  0  0  0
   -0.2628   -0.1885    2.5497 H   0  0  0  0  0  0  0  0  0  0  0  0
    0.6941    1.1970    2.0045 H   0  0  0  0  0  0  0  0  0  0  0  0
    0.1493    0.2289   -1.3137 H   0  0  0  0  0  0  0  0  0  0  0  0
   -0.2485   -1.4873   -1.0773 H   0  0  0  0  0  0  0  0  0  0  0  0
   -2.0066    1.1089    1.6528 H   0  0  0  0  0  0  0  0  0  0  0  0
   -0.9375    1.8754    0.4521 H   0  0  0  0  0  0  0  0  0  0  0  0
   -2.1887    1.2974   -1.4350 H   0  0  0  0  0  0  0  0  0  0  0  0
   -2.3980   -0.3708   -1.8968 H   0  0  0  0  0  0  0  0  0  0  0  0
   -3.9824    2.4196   -0.2603 H   0  0  0  0  0  0  0  0  0  0  0  0
    5.6758   -2.2100    0.6831 H   0  0  0  0  0  0  0  0  0  0  0  0
    4.8913    2.4233   -1.0977 H   0  0  0  0  0  0  0  0  0  0  0  0
   -6.3782   -1.9076    0.1406 H   0  0  0  0  0  0  0  0  0  0  0  0
   -6.3093    2.3681    0.5635 H   0  0  0  0  0  0  0  0  0  0  0  0
    7.5814   -0.8044   -0.1338 H   0  0  0  0  0  0  0  0  0  0  0  0
    7.1867    1.4688   -1.0060 H   0  0  0  0  0  0  0  0  0  0  0  0
   -7.5128    0.2083    0.7669 H   0  0  0  0  0  0  0  0  0  0  0  0
  1 14  1  0  0  0  0
  2 10  1  0  0  0  0
  2 12  1  0  0  0  0
  3  7  1  0  0  0  0
  3  8  1  0  0  0  0
  3  9  1  0  0  0  0
  4 10  2  0  0  0  0
  4 13  1  0  0  0  0
  5  6  1  0  0  0  0
  5  7  1  0  0  0  0
  5 10  1  0  0  0  0
  5 23  1  0  0  0  0
  6  8  1  0  0  0  0
  6 24  1  0  0  0  0
  6 25  1  0  0  0  0
  7 26  1  0  0  0  0
  7 27  1  0  0  0  0
  8 28  1  0  0  0  0
  8 29  1  0  0  0  0
  9 11  1  0  0  0  0
  9 30  1  0  0  0  0
  9 31  1  0  0  0  0
 11 14  1  0  0  0  0
 11 15  2  0  0  0  0
 12 13  1  0  0  0  0
 12 16  2  0  0  0  0
 13 17  2  0  0  0  0
 14 18  2  0  0  0  0
 15 19  1  0  0  0  0
 15 32  1  0  0  0  0
 16 20  1  0  0  0  0
 16 33  1  0  0  0  0
 17 21  1  0  0  0  0
 17 34  1  0  0  0  0
 18 22  1  0  0  0  0
 18 35  1  0  0  0  0
 19 22  2  0  0  0  0
 19 36  1  0  0  0  0
 20 21  2  0  0  0  0
 20 37  1  0  0  0  0
 21 38  1  0  0  0  0
 22 39  1  0  0  0  0
M  END
> <PUBCHEM_COMPOUND_CID>
45784205

> <PUBCHEM_CONFORMER_RMSD>
0.6

> <PUBCHEM_CONFORMER_DIVERSEORDER>
1
119
68
182
174
118
105
22
164
54
142
96
60
52
117
59
181
183
120
193
78
156
165
177
122
32
128
106
74
197
111
41
79
92
127
40
186
157
55
161
154
25
46
53
98
189
97
84
108
137
179
185
20
150
187
135
147
88
94
124
160
184
47
109
116
16
30
83
130
172
141
191
103
11
168
102
115
57
195
89
133
163
132
36
145
129
69
44
95
125
153
75
192
131
151
167
71
100
14
110
112
178
70
27
17
104
51
190
175
81
188
12
48
144
107
4
146
196
143
63
19
39
62
50
140
42
126
10
194
149
85
3
8
67
2
166
134
6
15
66
9
61
101
37
136
38
18
180
121
91
45
73
158
155
33
86
114
170
162
77
138
169
23
35
28
58
176
26
80
7
87
43
139
123
113
159
21
99
82
173
34
49
13
24
90
5
152
76
29
93
65
72
31
148
56
198
171
64

> <PUBCHEM_MMFF94_PARTIAL_CHARGES>
29
1 -0.19
10 0.3
11 -0.14
12 0.14
13 0.23
14 0.19
15 -0.15
16 -0.15
17 -0.15
18 -0.15
19 -0.15
2 -0.28
20 -0.15
21 -0.15
22 -0.15
3 -0.81
32 0.15
33 0.15
34 0.15
35 0.15
36 0.15
37 0.15
38 0.15
39 0.15
4 -0.57
5 0.18
7 0.27
8 0.27
9 0.41

> <PUBCHEM_EFFECTIVE_ROTOR_COUNT>
4

> <PUBCHEM_PHARMACOPHORE_FEATURES>
5
1 3 cation
5 2 4 10 12 13 rings
5 3 5 6 7 8 rings
6 11 14 15 18 19 22 rings
6 12 13 16 17 20 21 rings

> <PUBCHEM_HEAVY_ATOM_COUNT>
22

> <PUBCHEM_ATOM_DEF_STEREO_COUNT>
1

> <PUBCHEM_ATOM_UDEF_STEREO_COUNT>
0

> <PUBCHEM_BOND_DEF_STEREO_COUNT>
0

> <PUBCHEM_BOND_UDEF_STEREO_COUNT>
0

> <PUBCHEM_ISOTOPIC_ATOM_COUNT>
0

> <PUBCHEM_COMPONENT_COUNT>
1

> <PUBCHEM_CACTVS_TAUTO_COUNT>
1

> <PUBCHEM_CONFORMER_ID>
02BA9C8D00000001

> <PUBCHEM_MMFF94_ENERGY>
44.1065

> <PUBCHEM_FEATURE_SELFOVERLAP>
25.492

> <PUBCHEM_SHAPE_FINGERPRINT>
10299344 5 18411702093273104491
10595046 47 18334856108346448833
106641 1 12396310278689727076
11287383 113 18259985976497031610
11315181 36 17275103942792669209
11524674 6 16558749035973928895
11646440 116 15936415528513786452
12107183 9 17615401459395255081
12166972 35 18114185237571224748
12236239 1 18412262826748847612
12730499 353 17312824853662601322
12788726 201 17560522789854328459
12916748 109 16081085961751321484
13167372 99 18334858269047775812
13533116 47 16370996361805945128
1420 363 16587745326171405779
14251752 14 18202001005997458672
14294032 229 17415864404243243128
14849402 71 18041852834034911844
14856354 85 18201162130929905943
14933364 13 18408605855053574300
15048467 5 18409167697427666093
15183329 4 18410571773243300205
15537594 2 16845570907032529543
17093844 174 16486966302589026731
17834072 33 18408321094864452718
17844677 252 18342460356792849625
19489759 90 8935002573120473607
200 152 18411699885380086322
21150785 3 18411144645642008860
220451 1 18411699880826980826
221357 26 18113615677726217532
22224240 67 15936413338639491665
23035841 295 18343019991094477563
23081809 10 18412256237984380471
23198884 109 18259705597090428985
23402539 116 18412822482156482405
23522609 53 18267047040229534233
23536379 177 18408885122459097880
23559900 14 17989197183314217776
23569943 247 16807560678829241450
23622692 88 12757155688263049258
29717793 49 18202570558201636044
3004659 81 18413108343043920810
3545911 37 17603587426414734906
4073 2 17894918476933806546
4325135 7 18260830406059689157
4340502 62 15429752874317090672
4463277 17 17917991685017921208
5283156 175 17917996040906030290
5385378 56 16629979737375707463
542803 24 18408601461407265622
59682541 35 14996294638698275897
59755656 215 16415205542330665860
59755656 520 17167861975954240323
7495541 125 18201434826207583857
9996256 80 18186800270686334124
999808 66 18114191878070556707

> <PUBCHEM_SHAPE_MULTIPOLES>
429.64
18.58
1.44
0.99
1.77
0.06
-0.18
-0.92
2.05
-0.47
0.13
-0.13
-0.06
-1.02

> <PUBCHEM_SHAPE_SELFOVERLAP>
946.703

> <PUBCHEM_SHAPE_VOLUME>
234.4

> <PUBCHEM_COORDINATE_TYPE>
2
5
10

$$$$
