11884188
  -OEChem-12032416133D

 53 57  0     1  0  0  0  0  0999 V2000
    6.8141   -2.6784   -1.8758 Cl  0  0  0  0  0  0  0  0  0  0  0  0
   -6.1852   -1.8496   -0.5061 O   0  0  0  0  0  0  0  0  0  0  0  0
   -3.2609   -0.6642    1.9132 O   0  0  0  0  0  0  0  0  0  0  0  0
    0.0450    1.9102   -1.3078 O   0  0  0  0  0  0  0  0  0  0  0  0
    4.6689    1.9933    0.9671 O   0  0  0  0  0  0  0  0  0  0  0  0
   -4.4814   -0.2883   -0.7954 N   0  0  0  0  0  0  0  0  0  0  0  0
   -1.6845    0.4808   -0.7439 N   0  0  0  0  0  0  0  0  0  0  0  0
   -0.9943   -0.4662    1.9728 N   0  0  0  0  0  0  0  0  0  0  0  0
   -6.8520    0.3891   -0.6617 C   0  0  0  0  0  0  0  0  0  0  0  0
   -7.1629    1.0931    0.6128 C   0  0  0  0  0  0  0  0  0  0  0  0
   -8.1500    0.1305    0.0203 C   0  0  0  0  0  0  0  0  0  0  0  0
   -5.8131   -0.6870   -0.6417 C   0  0  0  0  0  0  0  0  0  0  0  0
   -3.4228   -1.3000   -0.8122 C   0  0  0  0  0  0  0  0  0  0  0  0
   -2.1060   -0.8037   -0.2021 C   0  0  2  0  0  0  0  0  0  0  0  0
   -4.0685    1.1079   -0.9552 C   0  0  0  0  0  0  0  0  0  0  0  0
   -2.6646    1.2337   -1.5281 C   0  0  0  0  0  0  0  0  0  0  0  0
   -2.1908   -0.6107    1.3037 C   0  0  0  0  0  0  0  0  0  0  0  0
   -0.3661    0.9242   -0.6939 C   0  0  0  0  0  0  0  0  0  0  0  0
    0.6059    0.1974    0.1660 C   0  0  0  0  0  0  0  0  0  0  0  0
    0.3003   -0.3384    1.4277 C   0  0  0  0  0  0  0  0  0  0  0  0
    1.9453    0.2246   -0.2650 C   0  0  0  0  0  0  0  0  0  0  0  0
    1.3512   -0.7691    2.2565 C   0  0  0  0  0  0  0  0  0  0  0  0
    2.9702   -0.2523    0.5510 C   0  0  0  0  0  0  0  0  0  0  0  0
    2.6745   -0.7367    1.8184 C   0  0  0  0  0  0  0  0  0  0  0  0
    4.3407   -0.2203    0.0886 C   0  0  0  0  0  0  0  0  0  0  0  0
    5.1468    0.8981    0.3100 C   0  0  0  0  0  0  0  0  0  0  0  0
    4.8581   -1.3263   -0.5880 C   0  0  0  0  0  0  0  0  0  0  0  0
    6.4656    0.9102   -0.1436 C   0  0  0  0  0  0  0  0  0  0  0  0
    6.1773   -1.3143   -1.0417 C   0  0  0  0  0  0  0  0  0  0  0  0
    6.9809   -0.1958   -0.8195 C   0  0  0  0  0  0  0  0  0  0  0  0
    4.0584    3.0081    0.1737 C   0  0  0  0  0  0  0  0  0  0  0  0
   -6.9190    0.9529   -1.5867 H   0  0  0  0  0  0  0  0  0  0  0  0
   -7.3947    2.1499    0.5626 H   0  0  0  0  0  0  0  0  0  0  0  0
   -6.6460    0.7920    1.5158 H   0  0  0  0  0  0  0  0  0  0  0  0
   -8.3098   -0.8024    0.5464 H   0  0  0  0  0  0  0  0  0  0  0  0
   -9.0473    0.5430   -0.4260 H   0  0  0  0  0  0  0  0  0  0  0  0
   -3.2670   -1.5602   -1.8667 H   0  0  0  0  0  0  0  0  0  0  0  0
   -3.7660   -2.2085   -0.3045 H   0  0  0  0  0  0  0  0  0  0  0  0
   -1.3357   -1.5569   -0.4094 H   0  0  0  0  0  0  0  0  0  0  0  0
   -4.1176    1.5688    0.0384 H   0  0  0  0  0  0  0  0  0  0  0  0
   -4.7777    1.6339   -1.6006 H   0  0  0  0  0  0  0  0  0  0  0  0
   -2.6282    0.8355   -2.5496 H   0  0  0  0  0  0  0  0  0  0  0  0
   -2.3721    2.2880   -1.5788 H   0  0  0  0  0  0  0  0  0  0  0  0
   -1.0450   -0.5613    2.9844 H   0  0  0  0  0  0  0  0  0  0  0  0
    2.1927    0.6320   -1.2445 H   0  0  0  0  0  0  0  0  0  0  0  0
    1.1436   -1.1651    3.2490 H   0  0  0  0  0  0  0  0  0  0  0  0
    3.4591   -1.0978    2.4789 H   0  0  0  0  0  0  0  0  0  0  0  0
    4.2341   -2.2009   -0.7636 H   0  0  0  0  0  0  0  0  0  0  0  0
    7.0978    1.7776    0.0260 H   0  0  0  0  0  0  0  0  0  0  0  0
    8.0104   -0.1722   -1.1673 H   0  0  0  0  0  0  0  0  0  0  0  0
    4.7890    3.8009   -0.0122 H   0  0  0  0  0  0  0  0  0  0  0  0
    3.2196    3.4284    0.7354 H   0  0  0  0  0  0  0  0  0  0  0  0
    3.6886    2.6287   -0.7844 H   0  0  0  0  0  0  0  0  0  0  0  0
  1 29  1  0  0  0  0
  2 12  2  0  0  0  0
  3 17  2  0  0  0  0
  4 18  2  0  0  0  0
  5 26  1  0  0  0  0
  5 31  1  0  0  0  0
  6 12  1  0  0  0  0
  6 13  1  0  0  0  0
  6 15  1  0  0  0  0
  7 14  1  0  0  0  0
  7 16  1  0  0  0  0
  7 18  1  0  0  0  0
  8 17  1  0  0  0  0
  8 20  1  0  0  0  0
  8 44  1  0  0  0  0
  9 10  1  0  0  0  0
  9 11  1  0  0  0  0
  9 12  1  0  0  0  0
  9 32  1  0  0  0  0
 10 11  1  0  0  0  0
 10 33  1  0  0  0  0
 10 34  1  0  0  0  0
 11 35  1  0  0  0  0
 11 36  1  0  0  0  0
 13 14  1  0  0  0  0
 13 37  1  0  0  0  0
 13 38  1  0  0  0  0
 14 17  1  0  0  0  0
 14 39  1  0  0  0  0
 15 16  1  0  0  0  0
 15 40  1  0  0  0  0
 15 41  1  0  0  0  0
 16 42  1  0  0  0  0
 16 43  1  0  0  0  0
 18 19  1  0  0  0  0
 19 20  2  0  0  0  0
 19 21  1  0  0  0  0
 20 22  1  0  0  0  0
 21 23  2  0  0  0  0
 21 45  1  0  0  0  0
 22 24  2  0  0  0  0
 22 46  1  0  0  0  0
 23 24  1  0  0  0  0
 23 25  1  0  0  0  0
 24 47  1  0  0  0  0
 25 26  2  0  0  0  0
 25 27  1  0  0  0  0
 26 28  1  0  0  0  0
 27 29  2  0  0  0  0
 27 48  1  0  0  0  0
 28 30  2  0  0  0  0
 28 49  1  0  0  0  0
 29 30  1  0  0  0  0
 30 50  1  0  0  0  0
 31 51  1  0  0  0  0
 31 52  1  0  0  0  0
 31 53  1  0  0  0  0
M  END
> <PUBCHEM_COMPOUND_CID>
11884188

> <PUBCHEM_CONFORMER_RMSD>
0.8

> <PUBCHEM_CONFORMER_DIVERSEORDER>
1
17
6
28
23
16
5
26
13
11
30
12
21
7
19
20
29
10
25
4
2
24
18
27
9
22
14
8
15
3

> <PUBCHEM_MMFF94_PARTIAL_CHARGES>
41
1 -0.18
10 -0.2
11 -0.2
12 0.63
13 0.3
14 0.36
15 0.3
16 0.3
17 0.57
18 0.54
19 0.09
2 -0.57
20 0.12
21 -0.15
22 -0.15
24 -0.15
26 0.08
27 -0.15
28 -0.15
29 0.18
3 -0.57
30 -0.15
31 0.28
32 0.1
33 0.1
34 0.1
35 0.1
36 0.1
4 -0.57
44 0.37
45 0.15
46 0.15
47 0.15
48 0.15
49 0.15
5 -0.36
50 0.15
6 -0.66
7 -0.66
8 -0.55
9 -0.1

> <PUBCHEM_EFFECTIVE_ROTOR_COUNT>
5.6

> <PUBCHEM_PHARMACOPHORE_FEATURES>
9
1 2 acceptor
1 3 acceptor
1 4 acceptor
1 5 acceptor
1 8 donor
6 19 20 21 22 23 24 rings
6 25 26 27 28 29 30 rings
6 6 7 13 14 15 16 rings
7 7 8 14 17 18 19 20 rings

> <PUBCHEM_HEAVY_ATOM_COUNT>
31

> <PUBCHEM_ATOM_DEF_STEREO_COUNT>
1

> <PUBCHEM_ATOM_UDEF_STEREO_COUNT>
0

> <PUBCHEM_BOND_DEF_STEREO_COUNT>
0

> <PUBCHEM_BOND_UDEF_STEREO_COUNT>
0

> <PUBCHEM_ISOTOPIC_ATOM_COUNT>
0

> <PUBCHEM_COMPONENT_COUNT>
1

> <PUBCHEM_CACTVS_TAUTO_COUNT>
3

> <PUBCHEM_CONFORMER_ID>
00B5569C00000001

> <PUBCHEM_MMFF94_ENERGY>
118.0027

> <PUBCHEM_FEATURE_SELFOVERLAP>
45.701

> <PUBCHEM_SHAPE_FINGERPRINT>
10 15 14129061413410077235
10299344 5 17989487415987603639
10670039 82 16733264539705275110
10906281 52 16950568744515858387
11409948 35 17702386148542799751
12166972 35 17775001314649349568
12236239 1 17846779632912689359
13782708 43 17560226037916692991
13914758 101 17775010055165960753
14114211 68 16515972467338877258
14251752 14 17132115723759367057
14294032 229 16371004040880448917
14617045 38 17530682104289770475
14767858 380 16877944923195443255
14856354 85 18343580760048447103
15131766 46 17200775977081540728
15183329 4 18273214171158544491
15320294 125 16128086746944537164
15475509 8 18335987493079574389
15840311 113 18411136970182750485
15849732 13 18409730673314226975
16728300 4 16055481522669184742
18608769 82 16732989756113401763
19301679 30 15553616084917772366
19319366 153 15936397932180390443
19841028 212 17632298913844353870
20105231 36 18113626672874299715
21033648 29 17750231577450820296
21344244 181 18408890607644921314
21792961 116 16845575257987406500
221357 26 18409166598179957804
22224240 67 10375867463647511381
23198884 109 18343021082364155185
23516275 100 17897436422960686740
23516275 137 17845394188144115743
23559900 14 17631721777038147883
23569914 152 17399212172181667182
23569917 315 16226043345716873722
23569943 247 18044934567479905754
24771293 8 17896591976380819220
2747138 104 17675930911015047705
3004659 81 17917990568880539330
34797466 226 18408603673885284972
3633792 109 18202286870768310475
4073 2 18263924500357770402
4093350 32 18343017835247969088
4098825 35 18201721704506275733
4340502 62 13117994479302649713
439807 62 17346601850493514918
44317340 157 18059570342971651296
46194498 28 18411979174799069148
5104073 3 17024007286773034201
53794403 172 17313954167979365036
57527295 17 17974018246085934410
5758199 1 17240482486313428777
59755656 215 17821445755522223282
6081469 158 17489868211814614793

> <PUBCHEM_SHAPE_MULTIPOLES>
601.41
21.07
1.97
1.72
11.57
0.29
-0.79
-3.72
6.39
-3.19
0.72
-0.17
-0.26
1.41

> <PUBCHEM_SHAPE_SELFOVERLAP>
1310.962

> <PUBCHEM_SHAPE_VOLUME>
325.9

> <PUBCHEM_COORDINATE_TYPE>
2
5
10

$$$$
