45361093
  -OEChem-12032416253D

 56 59  0     1  0  0  0  0  0999 V2000
   -6.8320   -2.4958    0.0293 S   0  0  0  0  0  0  0  0  0  0  0  0
   -1.1641   -0.8357   -1.3318 O   0  0  0  0  0  0  0  0  0  0  0  0
    4.9421    1.4425   -0.4017 O   0  0  0  0  0  0  0  0  0  0  0  0
    5.2401   -3.4033    0.5416 O   0  0  0  0  0  0  0  0  0  0  0  0
    0.2565    1.9946    0.8955 N   0  0  1  0  0  0  0  0  0  0  0  0
   -2.9848    0.4472    0.1952 N   0  0  1  0  0  0  0  0  0  0  0  0
    0.0488    1.0423   -1.8199 N   0  0  0  0  0  0  0  0  0  0  0  0
    4.4518   -0.8232   -0.2721 N   0  0  0  0  0  0  0  0  0  0  0  0
   -4.3822   -1.9777    0.1153 N   0  0  0  0  0  0  0  0  0  0  0  0
   -5.2512   -2.9484    0.3487 N   0  0  0  0  0  0  0  0  0  0  0  0
   -1.2217    1.9912    0.8266 C   0  0  1  0  0  0  0  0  0  0  0  0
   -1.9061    1.2759   -0.3751 C   0  0  1  0  0  0  0  0  0  0  0  0
   -1.9019    1.3155    2.0318 C   0  0  0  0  0  0  0  0  0  0  0  0
   -3.2871    0.9871    1.5161 C   0  0  0  0  0  0  0  0  0  0  0  0
    0.9239    2.7199   -0.2214 C   0  0  2  0  0  0  0  0  0  0  0  0
   -0.9890    0.3746   -1.1978 C   0  0  0  0  0  0  0  0  0  0  0  0
    0.3293    2.4499   -1.6175 C   0  0  0  0  0  0  0  0  0  0  0  0
    2.4235    2.3606   -0.2784 C   0  0  0  0  0  0  0  0  0  0  0  0
   -4.1683    0.3767   -0.6524 C   0  0  0  0  0  0  0  0  0  0  0  0
    0.7191    2.5179    2.1921 C   0  0  0  0  0  0  0  0  0  0  0  0
    2.6501    0.8622   -0.2269 C   0  0  0  0  0  0  0  0  0  0  0  0
   -5.0125   -0.8294   -0.3372 C   0  0  0  0  0  0  0  0  0  0  0  0
    4.1183    0.5290   -0.3100 C   0  0  0  0  0  0  0  0  0  0  0  0
   -6.3856   -0.9117   -0.4551 C   0  0  0  0  0  0  0  0  0  0  0  0
    5.8539   -1.2339   -0.3426 C   0  0  0  0  0  0  0  0  0  0  0  0
    3.4965   -1.9362   -0.2916 C   0  0  0  0  0  0  0  0  0  0  0  0
    6.1452   -2.3069    0.6968 C   0  0  0  0  0  0  0  0  0  0  0  0
    3.8875   -2.9847    0.7425 C   0  0  0  0  0  0  0  0  0  0  0  0
   -1.5677    3.0366    0.8193 H   0  0  0  0  0  0  0  0  0  0  0  0
   -2.3324    2.0378   -1.0413 H   0  0  0  0  0  0  0  0  0  0  0  0
   -1.9500    1.9708    2.9076 H   0  0  0  0  0  0  0  0  0  0  0  0
   -1.3774    0.3930    2.3149 H   0  0  0  0  0  0  0  0  0  0  0  0
    0.8457    3.8035   -0.0557 H   0  0  0  0  0  0  0  0  0  0  0  0
   -3.7897    0.2590    2.1601 H   0  0  0  0  0  0  0  0  0  0  0  0
   -3.8959    1.8988    1.4659 H   0  0  0  0  0  0  0  0  0  0  0  0
   -0.5903    3.0257   -1.7620 H   0  0  0  0  0  0  0  0  0  0  0  0
    1.0125    2.7625   -2.4152 H   0  0  0  0  0  0  0  0  0  0  0  0
    2.8737    2.7822   -1.1871 H   0  0  0  0  0  0  0  0  0  0  0  0
    2.9579    2.8469    0.5470 H   0  0  0  0  0  0  0  0  0  0  0  0
   -4.7654    1.2960   -0.5995 H   0  0  0  0  0  0  0  0  0  0  0  0
   -3.8682    0.2609   -1.7027 H   0  0  0  0  0  0  0  0  0  0  0  0
    0.6486    0.5134   -2.4454 H   0  0  0  0  0  0  0  0  0  0  0  0
    0.3610    1.9040    3.0245 H   0  0  0  0  0  0  0  0  0  0  0  0
    1.8081    2.4902    2.2859 H   0  0  0  0  0  0  0  0  0  0  0  0
    0.3885    3.5504    2.3527 H   0  0  0  0  0  0  0  0  0  0  0  0
    2.2694    0.4358    0.7066 H   0  0  0  0  0  0  0  0  0  0  0  0
    2.1890    0.3573   -1.0734 H   0  0  0  0  0  0  0  0  0  0  0  0
   -7.0995   -0.1685   -0.7802 H   0  0  0  0  0  0  0  0  0  0  0  0
    6.5230   -0.3789   -0.2068 H   0  0  0  0  0  0  0  0  0  0  0  0
    6.0108   -1.6320   -1.3520 H   0  0  0  0  0  0  0  0  0  0  0  0
    3.5466   -2.3652   -1.2993 H   0  0  0  0  0  0  0  0  0  0  0  0
    2.4699   -1.6111   -0.1172 H   0  0  0  0  0  0  0  0  0  0  0  0
    6.0615   -1.9106    1.7157 H   0  0  0  0  0  0  0  0  0  0  0  0
    7.1624   -2.6894    0.5680 H   0  0  0  0  0  0  0  0  0  0  0  0
    3.2453   -3.8656    0.6455 H   0  0  0  0  0  0  0  0  0  0  0  0
    3.7766   -2.5991    1.7630 H   0  0  0  0  0  0  0  0  0  0  0  0
  1 10  1  0  0  0  0
  1 24  1  0  0  0  0
  2 16  2  0  0  0  0
  3 23  2  0  0  0  0
  4 27  1  0  0  0  0
  4 28  1  0  0  0  0
  5 11  1  0  0  0  0
  5 15  1  0  0  0  0
  5 20  1  0  0  0  0
  6 12  1  0  0  0  0
  6 14  1  0  0  0  0
  6 19  1  0  0  0  0
  7 16  1  0  0  0  0
  7 17  1  0  0  0  0
  7 42  1  0  0  0  0
  8 23  1  0  0  0  0
  8 25  1  0  0  0  0
  8 26  1  0  0  0  0
  9 10  2  0  0  0  0
  9 22  1  0  0  0  0
 11 12  1  0  0  0  0
 11 13  1  0  0  0  0
 11 29  1  0  0  0  0
 12 16  1  0  0  0  0
 12 30  1  0  0  0  0
 13 14  1  0  0  0  0
 13 31  1  0  0  0  0
 13 32  1  0  0  0  0
 14 34  1  0  0  0  0
 14 35  1  0  0  0  0
 15 17  1  0  0  0  0
 15 18  1  0  0  0  0
 15 33  1  0  0  0  0
 17 36  1  0  0  0  0
 17 37  1  0  0  0  0
 18 21  1  0  0  0  0
 18 38  1  0  0  0  0
 18 39  1  0  0  0  0
 19 22  1  0  0  0  0
 19 40  1  0  0  0  0
 19 41  1  0  0  0  0
 20 43  1  0  0  0  0
 20 44  1  0  0  0  0
 20 45  1  0  0  0  0
 21 23  1  0  0  0  0
 21 46  1  0  0  0  0
 21 47  1  0  0  0  0
 22 24  2  0  0  0  0
 24 48  1  0  0  0  0
 25 27  1  0  0  0  0
 25 49  1  0  0  0  0
 25 50  1  0  0  0  0
 26 28  1  0  0  0  0
 26 51  1  0  0  0  0
 26 52  1  0  0  0  0
 27 53  1  0  0  0  0
 27 54  1  0  0  0  0
 28 55  1  0  0  0  0
 28 56  1  0  0  0  0
M  END
> <PUBCHEM_COMPOUND_CID>
45361093

> <PUBCHEM_CONFORMER_RMSD>
1

> <PUBCHEM_CONFORMER_DIVERSEORDER>
1
57
100
145
60
77
182
161
151
12
169
126
80
52
153
164
188
9
130
139
90
105
159
87
26
96
168
73
92
86
184
141
84
107
140
54
200
187
91
138
191
98
131
2
136
183
50
144
193
181
79
28
201
99
204
53
116
149
22
112
72
125
186
162
17
70
21
31
114
61
172
16
197
20
46
68
170
32
152
82
66
195
58
23
203
14
18
171
173
146
179
154
199
85
115
93
118
51
38
49
67
129
113
37
167
160
88
25
83
128
81
133
59
102
157
41
33
202
135
45
122
123
8
155
150
15
185
97
95
47
143
190
101
189
64
165
156
194
163
40
43
127
74
177
137
158
110
111
103
36
120
132
6
178
166
124
44
94
176
39
30
109
196
69
48
5
89
75
63
4
175
180
117
78
13
35
174
104
3
56
42
142
11
10
106
7
24
19
192
119
121
65
148
29
108
55
34
71
27
62
198
134
147
76

> <PUBCHEM_MMFF94_PARTIAL_CHARGES>
28
1 0.18
10 -0.22
11 0.27
12 0.33
14 0.27
15 0.27
16 0.57
17 0.3
19 0.45
2 -0.57
20 0.27
21 0.06
22 0.05
23 0.57
24 -0.11
25 0.3
26 0.3
27 0.28
28 0.28
3 -0.57
4 -0.56
42 0.37
48 0.15
5 -0.81
6 -0.81
7 -0.73
8 -0.66
9 -0.23

> <PUBCHEM_EFFECTIVE_ROTOR_COUNT>
8.6

> <PUBCHEM_PHARMACOPHORE_FEATURES>
10
1 2 acceptor
1 3 acceptor
1 4 acceptor
1 5 cation
1 6 cation
1 7 donor
5 1 9 10 22 24 rings
5 6 11 12 13 14 rings
6 4 8 25 26 27 28 rings
7 5 7 11 12 15 16 17 rings

> <PUBCHEM_HEAVY_ATOM_COUNT>
28

> <PUBCHEM_ATOM_DEF_STEREO_COUNT>
3

> <PUBCHEM_ATOM_UDEF_STEREO_COUNT>
0

> <PUBCHEM_BOND_DEF_STEREO_COUNT>
0

> <PUBCHEM_BOND_UDEF_STEREO_COUNT>
0

> <PUBCHEM_ISOTOPIC_ATOM_COUNT>
0

> <PUBCHEM_COMPONENT_COUNT>
1

> <PUBCHEM_CACTVS_TAUTO_COUNT>
3

> <PUBCHEM_CONFORMER_ID>
02B427C500000001

> <PUBCHEM_MMFF94_ENERGY>
65.3071

> <PUBCHEM_FEATURE_SELFOVERLAP>
50.783

> <PUBCHEM_SHAPE_FINGERPRINT>
10074138 170 17201370546451891641
10928967 22 17542806217711120970
117089 54 17914349995787569646
11963148 33 17764304342744779671
12107183 9 18267874874054254649
12166972 35 18187368731146223566
12422481 6 16128388068717461509
12596602 18 17989490710544102344
12895836 83 11746942013849032245
13383661 66 17463714321803519243
13533116 47 18341614888137970945
13911852 28 18335980895862121263
13955234 65 18054787557474901889
14251764 30 18334852805574808950
14251764 75 9799397936932020258
14705955 166 14548471192898166690
14848178 5 18410569570120321336
15019793 15 17908139129322173199
15064981 113 13190625967667611498
15163728 17 9906394145045855660
15475509 35 18199465635363158409
15475509 8 16877940491396070021
15927050 60 17624410175068850414
16728300 4 18271803480550014343
17959699 21 8862946065086935340
19319366 153 17983014754439517340
19841028 212 18335699429908375186
20028762 73 18341332206597963686
20567600 247 18339641256445171283
20775530 9 18339626898253748694
21033648 29 14979680948913546657
21033650 10 16226320396513375853
21315764 119 18113893893180887999
21475661 188 10592049067655646108
23559900 14 18262794194373241949
23569914 2 12893114514491076331
2838139 119 9367342618040720152
33382 64 18337956795946512393
345986 75 17917711292446867856
3472631 163 8214142958145304737
3886686 26 17410230407856384703
404807 14 18118403934642718859
439807 62 18408605881535677379
46194498 28 17386846282420128117
465052 167 18201162160504261485
474113 269 17917419909708462991
484985 159 17831575380034081004
5104073 3 17775574160487041689
70251023 43 18261394507170737057
7288768 16 12031490095510440900
7970288 3 18337669694700294338
9896288 288 17486782874596374984

> <PUBCHEM_SHAPE_MULTIPOLES>
532.58
15.47
3.98
1.49
4.32
1.67
0.39
18.76
0.24
-2.29
0.89
0.34
-1.03
-1.24

> <PUBCHEM_SHAPE_SELFOVERLAP>
1099.139

> <PUBCHEM_SHAPE_VOLUME>
306.3

> <PUBCHEM_COORDINATE_TYPE>
2
5
10

$$$$
