45784327
  -OEChem-12032416313D

 44 47  0     1  0  0  0  0  0999 V2000
   -7.7068   -0.0425    1.6554 F   0  0  0  0  0  0  0  0  0  0  0  0
   -7.9668   -1.4135   -0.0122 F   0  0  0  0  0  0  0  0  0  0  0  0
   -8.3283    0.7139   -0.2799 F   0  0  0  0  0  0  0  0  0  0  0  0
   -1.0404   -0.1844   -0.2739 N   0  0  1  0  0  0  0  0  0  0  0  0
    3.5948   -1.2609    0.2884 N   0  0  0  0  0  0  0  0  0  0  0  0
    3.0357    0.8812    0.0910 N   0  0  0  0  0  0  0  0  0  0  0  0
    9.5803   -0.7132   -0.1234 N   0  0  0  0  0  0  0  0  0  0  0  0
    1.1367   -0.7614    0.3794 C   0  0  1  0  0  0  0  0  0  0  0  0
    0.3888   -0.1409    1.5723 C   0  0  0  0  0  0  0  0  0  0  0  0
    0.2925   -0.3865   -0.8461 C   0  0  0  0  0  0  0  0  0  0  0  0
   -0.8112    0.5690    0.9589 C   0  0  0  0  0  0  0  0  0  0  0  0
    2.5829   -0.3424    0.2491 C   0  0  0  0  0  0  0  0  0  0  0  0
   -1.9377    0.5074   -1.1875 C   0  0  0  0  0  0  0  0  0  0  0  0
   -3.3811    0.3295   -0.7976 C   0  0  0  0  0  0  0  0  0  0  0  0
    4.7793   -0.5851    0.1458 C   0  0  0  0  0  0  0  0  0  0  0  0
    4.4038    0.7498    0.0245 C   0  0  0  0  0  0  0  0  0  0  0  0
   -4.0314   -0.8756   -1.0630 C   0  0  0  0  0  0  0  0  0  0  0  0
   -4.0678    1.3691   -0.1704 C   0  0  0  0  0  0  0  0  0  0  0  0
    6.1067   -1.0139    0.1136 C   0  0  0  0  0  0  0  0  0  0  0  0
    5.3983    1.7288   -0.1393 C   0  0  0  0  0  0  0  0  0  0  0  0
   -5.3683   -1.0412   -0.7016 C   0  0  0  0  0  0  0  0  0  0  0  0
   -5.4047    1.2037    0.1911 C   0  0  0  0  0  0  0  0  0  0  0  0
   -6.0550   -0.0013   -0.0744 C   0  0  0  0  0  0  0  0  0  0  0  0
    7.0835   -0.0261   -0.0501 C   0  0  0  0  0  0  0  0  0  0  0  0
    6.7378    1.3215   -0.1744 C   0  0  0  0  0  0  0  0  0  0  0  0
   -7.4835   -0.1796    0.3149 C   0  0  0  0  0  0  0  0  0  0  0  0
    8.4618   -0.4054   -0.0906 C   0  0  0  0  0  0  0  0  0  0  0  0
    1.1005   -1.8536    0.5027 H   0  0  0  0  0  0  0  0  0  0  0  0
    0.0509   -0.9392    2.2450 H   0  0  0  0  0  0  0  0  0  0  0  0
    1.0032    0.5500    2.1593 H   0  0  0  0  0  0  0  0  0  0  0  0
    0.2968   -1.1889   -1.5918 H   0  0  0  0  0  0  0  0  0  0  0  0
    0.6657    0.5290   -1.3243 H   0  0  0  0  0  0  0  0  0  0  0  0
   -1.6708    0.5419    1.6359 H   0  0  0  0  0  0  0  0  0  0  0  0
   -0.5551    1.6173    0.7578 H   0  0  0  0  0  0  0  0  0  0  0  0
   -1.6860    1.5719   -1.2877 H   0  0  0  0  0  0  0  0  0  0  0  0
   -1.8307    0.0920   -2.1996 H   0  0  0  0  0  0  0  0  0  0  0  0
    3.4921   -2.2607    0.4019 H   0  0  0  0  0  0  0  0  0  0  0  0
   -3.5070   -1.6931   -1.5509 H   0  0  0  0  0  0  0  0  0  0  0  0
   -3.5723    2.3124    0.0438 H   0  0  0  0  0  0  0  0  0  0  0  0
    6.3590   -2.0648    0.2117 H   0  0  0  0  0  0  0  0  0  0  0  0
    5.1396    2.7784   -0.2368 H   0  0  0  0  0  0  0  0  0  0  0  0
   -5.8562   -1.9877   -0.9168 H   0  0  0  0  0  0  0  0  0  0  0  0
   -5.9312    2.0190    0.6802 H   0  0  0  0  0  0  0  0  0  0  0  0
    7.5084    2.0795   -0.3012 H   0  0  0  0  0  0  0  0  0  0  0  0
  1 26  1  0  0  0  0
  2 26  1  0  0  0  0
  3 26  1  0  0  0  0
  4 10  1  0  0  0  0
  4 11  1  0  0  0  0
  4 13  1  0  0  0  0
  5 12  1  0  0  0  0
  5 15  1  0  0  0  0
  5 37  1  0  0  0  0
  6 12  2  0  0  0  0
  6 16  1  0  0  0  0
  7 27  3  0  0  0  0
  8  9  1  0  0  0  0
  8 10  1  0  0  0  0
  8 12  1  0  0  0  0
  8 28  1  0  0  0  0
  9 11  1  0  0  0  0
  9 29  1  0  0  0  0
  9 30  1  0  0  0  0
 10 31  1  0  0  0  0
 10 32  1  0  0  0  0
 11 33  1  0  0  0  0
 11 34  1  0  0  0  0
 13 14  1  0  0  0  0
 13 35  1  0  0  0  0
 13 36  1  0  0  0  0
 14 17  2  0  0  0  0
 14 18  1  0  0  0  0
 15 16  2  0  0  0  0
 15 19  1  0  0  0  0
 16 20  1  0  0  0  0
 17 21  1  0  0  0  0
 17 38  1  0  0  0  0
 18 22  2  0  0  0  0
 18 39  1  0  0  0  0
 19 24  2  0  0  0  0
 19 40  1  0  0  0  0
 20 25  2  0  0  0  0
 20 41  1  0  0  0  0
 21 23  2  0  0  0  0
 21 42  1  0  0  0  0
 22 23  1  0  0  0  0
 22 43  1  0  0  0  0
 23 26  1  0  0  0  0
 24 25  1  0  0  0  0
 24 27  1  0  0  0  0
 25 44  1  0  0  0  0
M  END
> <PUBCHEM_COMPOUND_CID>
45784327

> <PUBCHEM_CONFORMER_RMSD>
0.8

> <PUBCHEM_CONFORMER_DIVERSEORDER>
1
50
39
44
54
21
49
31
40
12
4
38
41
43
30
22
52
35
6
23
18
42
7
34
37
47
17
53
16
48
36
9
11
5
15
13
46
10
14
27
45
2
3
25
33
51
29
19
26
32
8
28
20
24

> <PUBCHEM_MMFF94_PARTIAL_CHARGES>
34
1 -0.34
10 0.27
11 0.27
12 0.01
13 0.41
14 -0.14
15 -0.15
16 0.23
17 -0.15
18 -0.15
19 -0.15
2 -0.34
20 -0.15
21 -0.15
22 -0.15
23 -0.14
24 0.07
25 -0.15
26 1.16
27 0.48
3 -0.34
37 0.27
38 0.15
39 0.15
4 -0.81
40 0.15
41 0.15
42 0.15
43 0.15
44 0.15
5 0.03
6 -0.57
7 -0.56
8 0.18

> <PUBCHEM_EFFECTIVE_ROTOR_COUNT>
5

> <PUBCHEM_PHARMACOPHORE_FEATURES>
8
1 4 cation
1 5 donor
1 7 acceptor
3 5 6 12 cation
5 4 8 9 10 11 rings
5 5 6 12 15 16 rings
6 14 17 18 21 22 23 rings
6 15 16 19 20 24 25 rings

> <PUBCHEM_HEAVY_ATOM_COUNT>
27

> <PUBCHEM_ATOM_DEF_STEREO_COUNT>
1

> <PUBCHEM_ATOM_UDEF_STEREO_COUNT>
0

> <PUBCHEM_BOND_DEF_STEREO_COUNT>
0

> <PUBCHEM_BOND_UDEF_STEREO_COUNT>
0

> <PUBCHEM_ISOTOPIC_ATOM_COUNT>
0

> <PUBCHEM_COMPONENT_COUNT>
1

> <PUBCHEM_CACTVS_TAUTO_COUNT>
2

> <PUBCHEM_CONFORMER_ID>
02BA9D0700000001

> <PUBCHEM_MMFF94_ENERGY>
48.4276

> <PUBCHEM_FEATURE_SELFOVERLAP>
40.704

> <PUBCHEM_SHAPE_FINGERPRINT>
10 15 18413672405467601551
10299344 5 18272650155979380639
106641 1 13623533467839945028
11135926 11 17632569427177515910
11315181 36 11169913871165573165
11524674 6 15841549708767300047
12089408 11 18060699507106028908
12104220 1 17967258581499761137
12166972 35 18334294280092376076
12236239 1 18202561783377825716
12643181 29 14764623127287701036
12730499 353 17967811631273840698
13533116 47 17168412767709327850
14123256 10 17167861958911072187
14251764 18 17918273164896091543
14251764 46 17168144533536586683
14849402 71 18336832016668308549
14856354 85 17847062212212940725
14933364 13 18412261735521420301
15183329 4 18343858909581039460
15419008 47 16081361973155261789
15461852 350 14345800461123476339
15716309 27 18409446986281704503
15849732 13 12757151277405703698
17093844 174 13470684858888820887
18006028 8 10879993562273641146
18335252 98 18410858745794402738
21095086 128 18335419075448318175
21150785 3 13623531255262017367
21267235 1 18411138022581125964
21315763 28 18409729552006216828
21521721 280 18334295396181745963
21792934 111 15482664676707424490
21792961 116 17632577106584204429
22224240 67 16370443366863970464
23035841 295 18131349713533731063
232437 2 18409729573860919919
23536379 177 18341891879263549260
23569943 247 17098607973653946042
249057 3 18413387657293275302
2747138 104 17313108566027570661
28498 318 12175627269782301788
335352 9 15769770269353593869
33684 2 18410854352026605934
4017518 198 11891334219375361120
4073 2 18041563650023921026
4325135 7 18409166610473697837
4339292 15 12607105354645444077
5283156 175 17275388690703316110
5758199 1 17458344126418436265
59682541 35 16877947169526817545
59755656 520 17749383789445426218
6009941 240 11887667394697107485
6691757 9 11530770267366400613
67123 10 18334858324628675366
9663363 56 15339115732218016619

> <PUBCHEM_SHAPE_MULTIPOLES>
513.9
28.38
1.29
1
2.45
0.21
0.16
-1.98
0.55
0.37
-0.07
-1.04
-0.03
-0.38

> <PUBCHEM_SHAPE_SELFOVERLAP>
1130.205

> <PUBCHEM_SHAPE_VOLUME>
281.1

> <PUBCHEM_COORDINATE_TYPE>
2
5
10

$$$$
