75367767
  -OEChem-12032416393D

 52 55  0     1  0  0  0  0  0999 V2000
   -0.9336    0.8433   -0.3568 S   0  0  0  0  0  0  0  0  0  0  0  0
   -4.0564   -3.1624   -0.0483 O   0  0  0  0  0  0  0  0  0  0  0  0
   -0.7064   -2.0413    0.9071 O   0  0  0  0  0  0  0  0  0  0  0  0
    0.9814   -3.3150    0.0109 O   0  0  0  0  0  0  0  0  0  0  0  0
    5.7566    1.4297   -1.6011 O   0  0  0  0  0  0  0  0  0  0  0  0
   -2.7349   -0.8944   -1.3250 N   0  0  0  0  0  0  0  0  0  0  0  0
   -3.4720    1.2503   -0.5634 N   0  0  0  0  0  0  0  0  0  0  0  0
    1.3848   -1.7644    1.6889 N   0  0  0  0  0  0  0  0  0  0  0  0
   -1.6430   -2.6748    0.0374 C   0  0  2  0  0  0  0  0  0  0  0  0
   -1.7023   -1.9406   -1.3085 C   0  0  0  0  0  0  0  0  0  0  0  0
   -4.0722   -1.3644   -1.7109 C   0  0  0  0  0  0  0  0  0  0  0  0
   -2.9658   -2.8039    0.7946 C   0  0  0  0  0  0  0  0  0  0  0  0
   -4.7825   -2.0321   -0.5379 C   0  0  0  0  0  0  0  0  0  0  0  0
   -2.5219    0.3712   -0.7809 C   0  0  0  0  0  0  0  0  0  0  0  0
   -1.5390    2.3683    0.1731 C   0  0  0  0  0  0  0  0  0  0  0  0
   -2.9239    2.4012   -0.0162 C   0  0  0  0  0  0  0  0  0  0  0  0
    0.5938   -2.4552    0.7952 C   0  0  0  0  0  0  0  0  0  0  0  0
   -0.8389    3.4572    0.7171 C   0  0  0  0  0  0  0  0  0  0  0  0
   -3.6306    3.5663    0.3528 C   0  0  0  0  0  0  0  0  0  0  0  0
    2.8091   -1.9669    1.8224 C   0  0  0  0  0  0  0  0  0  0  0  0
    3.5925   -1.0649    0.9131 C   0  0  0  0  0  0  0  0  0  0  0  0
   -1.5623    4.5980    1.0738 C   0  0  0  0  0  0  0  0  0  0  0  0
   -2.9401    4.6540    0.8950 C   0  0  0  0  0  0  0  0  0  0  0  0
    4.4455   -1.6111   -0.0460 C   0  0  0  0  0  0  0  0  0  0  0  0
    3.4669    0.3196    1.0274 C   0  0  0  0  0  0  0  0  0  0  0  0
    5.1730   -0.7727   -0.8907 C   0  0  0  0  0  0  0  0  0  0  0  0
    4.1944    1.1579    0.1828 C   0  0  0  0  0  0  0  0  0  0  0  0
    5.0474    0.6118   -0.7763 C   0  0  0  0  0  0  0  0  0  0  0  0
    5.5806    2.8353   -1.4296 C   0  0  0  0  0  0  0  0  0  0  0  0
   -1.3148   -3.7013   -0.1768 H   0  0  0  0  0  0  0  0  0  0  0  0
   -0.7219   -1.5545   -1.6091 H   0  0  0  0  0  0  0  0  0  0  0  0
   -1.9485   -2.6801   -2.0824 H   0  0  0  0  0  0  0  0  0  0  0  0
   -3.9856   -2.0763   -2.5407 H   0  0  0  0  0  0  0  0  0  0  0  0
   -4.6783   -0.5310   -2.0856 H   0  0  0  0  0  0  0  0  0  0  0  0
   -2.8574   -3.6008    1.5406 H   0  0  0  0  0  0  0  0  0  0  0  0
   -3.1882   -1.9005    1.3775 H   0  0  0  0  0  0  0  0  0  0  0  0
   -5.7532   -2.4041   -0.8828 H   0  0  0  0  0  0  0  0  0  0  0  0
   -4.9835   -1.3241    0.2749 H   0  0  0  0  0  0  0  0  0  0  0  0
    0.9408   -1.0666    2.2784 H   0  0  0  0  0  0  0  0  0  0  0  0
    0.2368    3.4203    0.8596 H   0  0  0  0  0  0  0  0  0  0  0  0
   -4.7071    3.6207    0.2174 H   0  0  0  0  0  0  0  0  0  0  0  0
    3.0336   -3.0211    1.6236 H   0  0  0  0  0  0  0  0  0  0  0  0
    3.0790   -1.7632    2.8646 H   0  0  0  0  0  0  0  0  0  0  0  0
   -1.0396    5.4520    1.4965 H   0  0  0  0  0  0  0  0  0  0  0  0
   -3.4860    5.5497    1.1783 H   0  0  0  0  0  0  0  0  0  0  0  0
    4.5528   -2.6877   -0.1475 H   0  0  0  0  0  0  0  0  0  0  0  0
    2.8083    0.7580    1.7727 H   0  0  0  0  0  0  0  0  0  0  0  0
    5.8355   -1.2038   -1.6363 H   0  0  0  0  0  0  0  0  0  0  0  0
    4.0496    2.2232    0.3260 H   0  0  0  0  0  0  0  0  0  0  0  0
    6.2189    3.3333   -2.1668 H   0  0  0  0  0  0  0  0  0  0  0  0
    5.9169    3.1653   -0.4408 H   0  0  0  0  0  0  0  0  0  0  0  0
    4.5501    3.1405   -1.6410 H   0  0  0  0  0  0  0  0  0  0  0  0
  1 14  1  0  0  0  0
  1 15  1  0  0  0  0
  2 12  1  0  0  0  0
  2 13  1  0  0  0  0
  3  9  1  0  0  0  0
  3 17  1  0  0  0  0
  4 17  2  0  0  0  0
  5 28  1  0  0  0  0
  5 29  1  0  0  0  0
  6 10  1  0  0  0  0
  6 11  1  0  0  0  0
  6 14  1  0  0  0  0
  7 14  2  0  0  0  0
  7 16  1  0  0  0  0
  8 17  1  0  0  0  0
  8 20  1  0  0  0  0
  8 39  1  0  0  0  0
  9 10  1  0  0  0  0
  9 12  1  0  0  0  0
  9 30  1  0  0  0  0
 10 31  1  0  0  0  0
 10 32  1  0  0  0  0
 11 13  1  0  0  0  0
 11 33  1  0  0  0  0
 11 34  1  0  0  0  0
 12 35  1  0  0  0  0
 12 36  1  0  0  0  0
 13 37  1  0  0  0  0
 13 38  1  0  0  0  0
 15 16  1  0  0  0  0
 15 18  2  0  0  0  0
 16 19  2  0  0  0  0
 18 22  1  0  0  0  0
 18 40  1  0  0  0  0
 19 23  1  0  0  0  0
 19 41  1  0  0  0  0
 20 21  1  0  0  0  0
 20 42  1  0  0  0  0
 20 43  1  0  0  0  0
 21 24  2  0  0  0  0
 21 25  1  0  0  0  0
 22 23  2  0  0  0  0
 22 44  1  0  0  0  0
 23 45  1  0  0  0  0
 24 26  1  0  0  0  0
 24 46  1  0  0  0  0
 25 27  2  0  0  0  0
 25 47  1  0  0  0  0
 26 28  2  0  0  0  0
 26 48  1  0  0  0  0
 27 28  1  0  0  0  0
 27 49  1  0  0  0  0
 29 50  1  0  0  0  0
 29 51  1  0  0  0  0
 29 52  1  0  0  0  0
M  END
> <PUBCHEM_COMPOUND_CID>
75367767

> <PUBCHEM_CONFORMER_RMSD>
1.2

> <PUBCHEM_CONFORMER_DIVERSEORDER>
1
109
20
13
98
91
23
47
76
89
73
85
46
25
81
59
100
50
8
45
48
63
2
65
101
21
18
42
96
93
22
39
38
43
68
31
74
90
72
11
30
80
54
6
9
40
83
99
105
44
3
10
24
84
64
86
95
34
35
79
58
82
112
36
66
103
33
60
92
107
37
29
15
108
97
27
4
77
57
7
17
69
78
88
55
52
94
51
32
87
19
53
16
75
102
111
49
62
61
12
104
56
110
67
41
71
70
106
28
5
14
26

> <PUBCHEM_MMFF94_PARTIAL_CHARGES>
38
1 -0.08
10 0.37
11 0.37
12 0.28
13 0.28
14 0.46
15 0.04
16 0.23
17 0.78
18 -0.15
19 -0.15
2 -0.56
20 0.44
21 -0.14
22 -0.15
23 -0.15
24 -0.15
25 -0.15
26 -0.15
27 -0.15
28 0.08
29 0.28
3 -0.43
39 0.37
4 -0.57
40 0.15
41 0.15
44 0.15
45 0.15
46 0.15
47 0.15
48 0.15
49 0.15
5 -0.36
6 -0.82
7 -0.57
8 -0.73
9 0.28

> <PUBCHEM_EFFECTIVE_ROTOR_COUNT>
8.4

> <PUBCHEM_PHARMACOPHORE_FEATURES>
9
1 2 acceptor
1 4 acceptor
1 5 acceptor
1 8 donor
3 6 7 14 cation
5 1 7 14 15 16 rings
6 15 16 18 19 22 23 rings
6 21 24 25 26 27 28 rings
7 2 6 9 10 11 12 13 rings

> <PUBCHEM_HEAVY_ATOM_COUNT>
29

> <PUBCHEM_ATOM_DEF_STEREO_COUNT>
1

> <PUBCHEM_ATOM_UDEF_STEREO_COUNT>
0

> <PUBCHEM_BOND_DEF_STEREO_COUNT>
0

> <PUBCHEM_BOND_UDEF_STEREO_COUNT>
0

> <PUBCHEM_ISOTOPIC_ATOM_COUNT>
0

> <PUBCHEM_COMPONENT_COUNT>
1

> <PUBCHEM_CACTVS_TAUTO_COUNT>
2

> <PUBCHEM_CONFORMER_ID>
047E055700000001

> <PUBCHEM_MMFF94_ENERGY>
83.4677

> <PUBCHEM_FEATURE_SELFOVERLAP>
45.743

> <PUBCHEM_SHAPE_FINGERPRINT>
10670039 82 18408321086580681206
10906281 52 18341045221705148735
11059048 146 18338802187254608034
11374522 363 17610056768477388020
11578080 2 16915687820804777551
12788726 201 18411134779242286448
12978246 48 17834948681391976736
13398642 44 17694515740789164009
14187579 7 18339928211937503196
14363568 33 17760095407452512179
14790565 3 17980199678265335233
14931854 50 18262514909539631180
14932702 115 18201710709274448096
14955137 171 18194688292254896795
15351339 4 18189605219274865377
15419009 47 17767406782379705062
15444296 121 17688868636025989298
15968369 153 18058711598847160793
16067690 210 18341339946065351404
161222 10 18189359934315402012
16991981 162 18272378533330859529
16994733 274 15575254538277257559
21049683 271 18043526338736155967
21120745 212 18412830213725875737
22907989 373 18409727374114789635
23558518 356 17979058406712835535
245318 6 17974023759742904564
338550 245 17979912705766694584
3534868 343 18050532246002563415
3610482 184 18118147817669388854
38570 142 17825127925912487190
469060 322 14490773281043240475
50150288 127 18267602237856047513
5048184 11 18123468285089219016
5171179 24 17181662199824472811
532947 4 17690543609273154403
57527585 21 18271228470259588199
5895379 119 18338787928475109626
6700243 42 17988372579959415702
9980921 221 18118995653241956228

> <PUBCHEM_SHAPE_MULTIPOLES>
562.24
11.72
6.16
1.49
14.69
5.1
-0.06
2.22
-4.43
-6.77
1.72
0.8
-0.22
-3.21

> <PUBCHEM_SHAPE_SELFOVERLAP>
1193.809

> <PUBCHEM_SHAPE_VOLUME>
313.8

> <PUBCHEM_COORDINATE_TYPE>
2
5
10

$$$$
