26743300
  -OEChem-12032416183D

 70 73  0     1  0  0  0  0  0999 V2000
    5.1775    1.5546   -1.3889 O   0  0  0  0  0  0  0  0  0  0  0  0
   -2.6257    0.6735   -1.8420 O   0  0  0  0  0  0  0  0  0  0  0  0
    1.4266    2.3502    2.2842 N   0  0  0  0  0  0  0  0  0  0  0  0
    5.9265   -0.4912   -0.5834 N   0  0  0  0  0  0  0  0  0  0  0  0
    8.1304   -2.1183    0.2553 N   0  0  0  0  0  0  0  0  0  0  0  0
   -1.2485    0.7833   -1.9916 N   0  0  0  0  0  0  0  0  0  0  0  0
    2.7888    1.5808   -0.2176 C   0  0  1  0  0  0  0  0  0  0  0  0
    1.2848    1.3156    0.0313 C   0  0  2  0  0  0  0  0  0  0  0  0
    3.2426    2.7591    0.6604 C   0  0  0  0  0  0  0  0  0  0  0  0
    0.9724    1.1806    1.5312 C   0  0  0  0  0  0  0  0  0  0  0  0
    3.6838    0.3563    0.0075 C   0  0  0  0  0  0  0  0  0  0  0  0
    2.8625    2.5727    2.1287 C   0  0  0  0  0  0  0  0  0  0  0  0
    0.7542    0.1057   -0.7389 C   0  0  0  0  0  0  0  0  0  0  0  0
    4.9919    0.5340   -0.7213 C   0  0  0  0  0  0  0  0  0  0  0  0
   -0.7348    0.1800   -0.9159 C   0  0  0  0  0  0  0  0  0  0  0  0
    7.2213   -0.3917   -1.2552 C   0  0  0  0  0  0  0  0  0  0  0  0
    5.6879   -1.7710    0.0904 C   0  0  0  0  0  0  0  0  0  0  0  0
    8.3636   -0.7853   -0.3191 C   0  0  0  0  0  0  0  0  0  0  0  0
    6.8618   -2.1433    0.9980 C   0  0  0  0  0  0  0  0  0  0  0  0
   -1.7298   -0.3247   -0.0609 C   0  0  0  0  0  0  0  0  0  0  0  0
   -2.8998    0.0118   -0.6887 C   0  0  0  0  0  0  0  0  0  0  0  0
    9.2417   -2.5047    1.1237 C   0  0  0  0  0  0  0  0  0  0  0  0
   -4.2910   -0.1788   -0.3975 C   0  0  0  0  0  0  0  0  0  0  0  0
   -8.4440   -0.7467    0.4732 C   0  0  0  0  0  0  0  0  0  0  0  0
   -6.9972   -0.5485    0.1699 C   0  0  0  0  0  0  0  0  0  0  0  0
   -4.6750   -0.8476    0.7648 C   0  0  0  0  0  0  0  0  0  0  0  0
   -5.2604    0.3053   -1.2761 C   0  0  0  0  0  0  0  0  0  0  0  0
   -6.0280   -1.0325    1.0485 C   0  0  0  0  0  0  0  0  0  0  0  0
   -6.6135    0.1205   -0.9925 C   0  0  0  0  0  0  0  0  0  0  0  0
   -8.8354   -0.0750    1.8259 C   0  0  0  0  0  0  0  0  0  0  0  0
   -8.7971   -2.2626    0.5813 C   0  0  0  0  0  0  0  0  0  0  0  0
   -9.4380   -0.1623   -0.5847 C   0  0  0  0  0  0  0  0  0  0  0  0
    2.8667    1.8957   -1.2675 H   0  0  0  0  0  0  0  0  0  0  0  0
    0.7536    2.2108   -0.3290 H   0  0  0  0  0  0  0  0  0  0  0  0
    2.7688    3.6772    0.2873 H   0  0  0  0  0  0  0  0  0  0  0  0
    4.3228    2.9247    0.5866 H   0  0  0  0  0  0  0  0  0  0  0  0
   -0.1063    1.0969    1.6913 H   0  0  0  0  0  0  0  0  0  0  0  0
    1.4267    0.2715    1.9445 H   0  0  0  0  0  0  0  0  0  0  0  0
    3.2208   -0.5433   -0.4084 H   0  0  0  0  0  0  0  0  0  0  0  0
    3.8738    0.1866    1.0706 H   0  0  0  0  0  0  0  0  0  0  0  0
    3.4265    1.7517    2.5845 H   0  0  0  0  0  0  0  0  0  0  0  0
    3.1344    3.4798    2.6801 H   0  0  0  0  0  0  0  0  0  0  0  0
    1.0049   -0.8326   -0.2291 H   0  0  0  0  0  0  0  0  0  0  0  0
    1.2166    0.0591   -1.7336 H   0  0  0  0  0  0  0  0  0  0  0  0
    1.2106    2.2203    3.2721 H   0  0  0  0  0  0  0  0  0  0  0  0
    7.3849    0.6237   -1.6307 H   0  0  0  0  0  0  0  0  0  0  0  0
    7.1874   -1.0603   -2.1243 H   0  0  0  0  0  0  0  0  0  0  0  0
    5.5591   -2.5253   -0.6957 H   0  0  0  0  0  0  0  0  0  0  0  0
    4.7685   -1.7616    0.6782 H   0  0  0  0  0  0  0  0  0  0  0  0
    9.2980   -0.7820   -0.8929 H   0  0  0  0  0  0  0  0  0  0  0  0
    8.4612   -0.0342    0.4761 H   0  0  0  0  0  0  0  0  0  0  0  0
    6.8995   -1.4497    1.8486 H   0  0  0  0  0  0  0  0  0  0  0  0
    6.6829   -3.1480    1.3994 H   0  0  0  0  0  0  0  0  0  0  0  0
   -1.6043   -0.8563    0.8711 H   0  0  0  0  0  0  0  0  0  0  0  0
    9.0880   -3.5154    1.5177 H   0  0  0  0  0  0  0  0  0  0  0  0
    9.3647   -1.8194    1.9703 H   0  0  0  0  0  0  0  0  0  0  0  0
   10.1805   -2.5275    0.5592 H   0  0  0  0  0  0  0  0  0  0  0  0
   -3.9430   -1.2357    1.4683 H   0  0  0  0  0  0  0  0  0  0  0  0
   -5.0004    0.8314   -2.1912 H   0  0  0  0  0  0  0  0  0  0  0  0
   -6.2991   -1.5567    1.9604 H   0  0  0  0  0  0  0  0  0  0  0  0
   -7.3247    0.5166   -1.7089 H   0  0  0  0  0  0  0  0  0  0  0  0
   -8.6150    0.9989    1.8054 H   0  0  0  0  0  0  0  0  0  0  0  0
   -8.2893   -0.5082    2.6710 H   0  0  0  0  0  0  0  0  0  0  0  0
   -9.9045   -0.1952    2.0362 H   0  0  0  0  0  0  0  0  0  0  0  0
   -9.8658   -2.4103    0.7756 H   0  0  0  0  0  0  0  0  0  0  0  0
   -8.5484   -2.7873   -0.3488 H   0  0  0  0  0  0  0  0  0  0  0  0
   -8.2503   -2.7532    1.3939 H   0  0  0  0  0  0  0  0  0  0  0  0
   -9.2949   -0.6241   -1.5686 H   0  0  0  0  0  0  0  0  0  0  0  0
   -9.3225    0.9230   -0.6880 H   0  0  0  0  0  0  0  0  0  0  0  0
  -10.4790   -0.3470   -0.2926 H   0  0  0  0  0  0  0  0  0  0  0  0
  1 14  2  0  0  0  0
  2  6  1  0  0  0  0
  2 21  1  0  0  0  0
  3 10  1  0  0  0  0
  3 12  1  0  0  0  0
  3 45  1  0  0  0  0
  4 14  1  0  0  0  0
  4 16  1  0  0  0  0
  4 17  1  0  0  0  0
  5 18  1  0  0  0  0
  5 19  1  0  0  0  0
  5 22  1  0  0  0  0
  6 15  2  0  0  0  0
  7  8  1  0  0  0  0
  7  9  1  0  0  0  0
  7 11  1  0  0  0  0
  7 33  1  0  0  0  0
  8 10  1  0  0  0  0
  8 13  1  0  0  0  0
  8 34  1  0  0  0  0
  9 12  1  0  0  0  0
  9 35  1  0  0  0  0
  9 36  1  0  0  0  0
 10 37  1  0  0  0  0
 10 38  1  0  0  0  0
 11 14  1  0  0  0  0
 11 39  1  0  0  0  0
 11 40  1  0  0  0  0
 12 41  1  0  0  0  0
 12 42  1  0  0  0  0
 13 15  1  0  0  0  0
 13 43  1  0  0  0  0
 13 44  1  0  0  0  0
 15 20  1  0  0  0  0
 16 18  1  0  0  0  0
 16 46  1  0  0  0  0
 16 47  1  0  0  0  0
 17 19  1  0  0  0  0
 17 48  1  0  0  0  0
 17 49  1  0  0  0  0
 18 50  1  0  0  0  0
 18 51  1  0  0  0  0
 19 52  1  0  0  0  0
 19 53  1  0  0  0  0
 20 21  2  0  0  0  0
 20 54  1  0  0  0  0
 21 23  1  0  0  0  0
 22 55  1  0  0  0  0
 22 56  1  0  0  0  0
 22 57  1  0  0  0  0
 23 26  2  0  0  0  0
 23 27  1  0  0  0  0
 24 25  1  0  0  0  0
 24 30  1  0  0  0  0
 24 31  1  0  0  0  0
 24 32  1  0  0  0  0
 25 28  2  0  0  0  0
 25 29  1  0  0  0  0
 26 28  1  0  0  0  0
 26 58  1  0  0  0  0
 27 29  2  0  0  0  0
 27 59  1  0  0  0  0
 28 60  1  0  0  0  0
 29 61  1  0  0  0  0
 30 62  1  0  0  0  0
 30 63  1  0  0  0  0
 30 64  1  0  0  0  0
 31 65  1  0  0  0  0
 31 66  1  0  0  0  0
 31 67  1  0  0  0  0
 32 68  1  0  0  0  0
 32 69  1  0  0  0  0
 32 70  1  0  0  0  0
M  END
> <PUBCHEM_COMPOUND_CID>
26743300

> <PUBCHEM_CONFORMER_RMSD>
1.2

> <PUBCHEM_CONFORMER_DIVERSEORDER>
1
42
64
63
17
101
102
3
82
86
72
53
92
70
14
89
54
71
23
123
11
56
57
16
113
130
47
129
32
97
28
69
114
118
122
87
59
80
66
73
131
30
29
43
121
49
90
31
9
110
116
100
85
13
41
15
84
106
10
8
105
44
2
124
117
20
61
120
127
111
60
50
48
39
94
33
34
22
76
107
36
95
119
40
93
62
25
125
27
6
67
58
96
115
24
112
51
99
26
74
7
98
18
104
81
79
77
126
35
19
21
55
83
45
38
103
46
109
78
91
75
108
128
4
88
37
65
5
52
68
12

> <PUBCHEM_MMFF94_PARTIAL_CHARGES>
32
1 -0.57
10 0.27
11 0.06
12 0.27
13 0.18
14 0.57
15 0.11
16 0.3
17 0.3
18 0.27
19 0.27
2 -0.02
20 -0.15
21 0.09
22 0.27
23 0.05
24 0.14
25 -0.14
26 -0.15
27 -0.15
28 -0.15
29 -0.15
3 -0.9
4 -0.66
45 0.36
5 -0.81
54 0.15
58 0.15
59 0.15
6 -0.41
60 0.15
61 0.15

> <PUBCHEM_EFFECTIVE_ROTOR_COUNT>
9.4

> <PUBCHEM_PHARMACOPHORE_FEATURES>
10
1 1 acceptor
1 3 cation
1 3 donor
1 5 cation
1 6 acceptor
4 24 30 31 32 hydrophobe
5 2 6 15 20 21 rings
6 23 25 26 27 28 29 rings
6 3 7 8 9 10 12 rings
6 4 5 16 17 18 19 rings

> <PUBCHEM_HEAVY_ATOM_COUNT>
32

> <PUBCHEM_ATOM_DEF_STEREO_COUNT>
2

> <PUBCHEM_ATOM_UDEF_STEREO_COUNT>
0

> <PUBCHEM_BOND_DEF_STEREO_COUNT>
0

> <PUBCHEM_BOND_UDEF_STEREO_COUNT>
0

> <PUBCHEM_ISOTOPIC_ATOM_COUNT>
0

> <PUBCHEM_COMPONENT_COUNT>
1

> <PUBCHEM_CACTVS_TAUTO_COUNT>
1

> <PUBCHEM_CONFORMER_ID>
0198120400000001

> <PUBCHEM_MMFF94_ENERGY>
71.7434

> <PUBCHEM_FEATURE_SELFOVERLAP>
50.746

> <PUBCHEM_SHAPE_FINGERPRINT>
10 15 12175618477873399318
10162869 55 16845567630985267565
10299344 5 18261115170585904559
11315181 36 9799694801704610271
11409948 35 18261951839401698915
11411753 29 18114173138231815797
11456790 92 17704357684369997939
12013929 2 18259701178307566253
12539745 222 18339643330450632296
13150687 139 12829491399230551992
13673619 4 18408319973857350988
13782708 43 18409163346124765494
14347424 109 17917991723789139392
14395042 70 17202186608256576248
1454969 45 12468637231189991487
150020 25 15864075377082745827
15131766 46 17556007336376742297
15183329 4 16588304943979259312
15301273 46 18040996267822128797
15352257 5 18113620096646281955
15419008 145 17703515398539801713
15510794 2 17967812764554142078
1577012 14 16415196849444036709
16991971 28 16371011827951431623
17134984 74 17531242821921021082
1754911 235 12829491450005605455
19301679 30 17773887398360483406
20105231 36 16950290620156977267
2026 5 17968934176906859378
20771845 171 10737276936615711656
20771845 65 18411698782434243580
21095086 128 18186522120431204383
21150785 3 11746934309257848207
21267235 1 16950568805225551613
21344244 181 17385446527214441018
21360443 126 11602826804293656896
21781051 124 17748826323785044418
21792934 111 16415479337352223112
21792938 324 16702009855875094408
21792938 703 14924240304524247561
21792961 116 18335414635232823853
23569917 315 17823145700244083867
23576562 1 12830075333756319127
3178227 256 18273215300787742958
34797466 226 17240766228458216372
4258327 124 8142075472771313648
437795 160 14692561144494628207
439807 62 18040719156506135166
4403749 210 10303510837123708420
44880168 125 18334566988781833887
45377200 153 17241336897085164619
504579 68 14418134028316812967
5104073 3 17130981138964486671
5219985 9 18059852857894910816
54039377 194 18335983082902814814
5937810 71 9222966867960436799
6058803 2 16626843027394770252
6081469 158 18408886244284682877
636775 8 14779560006748737137
9663363 56 18060698382563069116
9962374 69 18060127782202073910

> <PUBCHEM_SHAPE_MULTIPOLES>
626.88
32.86
2.35
1.7
15.09
0.3
-0.35
-24.26
-4.65
-5.22
-1.38
0.21
0.76
0.33

> <PUBCHEM_SHAPE_SELFOVERLAP>
1317.401

> <PUBCHEM_SHAPE_VOLUME>
353.2

> <PUBCHEM_COORDINATE_TYPE>
2
5
10

$$$$
