56774186
  -OEChem-12032416403D

 55 58  0     1  0  0  0  0  0999 V2000
    3.5964    2.1787    0.0746 O   0  0  0  0  0  0  0  0  0  0  0  0
   -5.2987    1.2115    0.9317 O   0  0  0  0  0  0  0  0  0  0  0  0
    8.0256   -2.2881    0.4511 O   0  0  0  0  0  0  0  0  0  0  0  0
   -3.3976   -0.0681    0.5882 N   0  0  0  0  0  0  0  0  0  0  0  0
    2.3940    2.8352   -0.1583 N   0  0  0  0  0  0  0  0  0  0  0  0
   -2.2707    2.1105   -0.1078 C   0  0  0  0  0  0  0  0  0  0  0  0
   -0.7559    2.0605    0.1817 C   0  0  1  0  0  0  0  0  0  0  0  0
   -2.4288    0.9808    0.9310 C   0  0  2  0  0  0  0  0  0  0  0  0
   -0.9665    0.5970    0.6228 C   0  0  0  0  0  0  0  0  0  0  0  0
    0.1938    2.2445   -1.0094 C   0  0  0  0  0  0  0  0  0  0  0  0
   -2.9099    3.4358    0.2439 C   0  0  0  0  0  0  0  0  0  0  0  0
   -2.6903    1.6864   -1.5033 C   0  0  0  0  0  0  0  0  0  0  0  0
    1.5766    1.8970   -0.6449 C   0  0  0  0  0  0  0  0  0  0  0  0
   -4.7723    0.1462    0.6202 C   0  0  0  0  0  0  0  0  0  0  0  0
    2.2019    0.6418   -0.7404 C   0  0  0  0  0  0  0  0  0  0  0  0
   -5.6268   -1.0024    0.2264 C   0  0  0  0  0  0  0  0  0  0  0  0
    3.4696    0.8733   -0.2759 C   0  0  0  0  0  0  0  0  0  0  0  0
   -6.9222   -1.1148    0.7315 C   0  0  0  0  0  0  0  0  0  0  0  0
   -5.1334   -1.9697   -0.6490 C   0  0  0  0  0  0  0  0  0  0  0  0
    4.6441    0.0577   -0.0872 C   0  0  0  0  0  0  0  0  0  0  0  0
   -7.7242   -2.1943    0.3611 C   0  0  0  0  0  0  0  0  0  0  0  0
   -5.9354   -3.0493   -1.0196 C   0  0  0  0  0  0  0  0  0  0  0  0
    4.6123   -1.2976   -0.4158 C   0  0  0  0  0  0  0  0  0  0  0  0
    5.8122    0.6244    0.4229 C   0  0  0  0  0  0  0  0  0  0  0  0
   -7.2307   -3.1615   -0.5144 C   0  0  0  0  0  0  0  0  0  0  0  0
    5.7482   -2.0862   -0.2340 C   0  0  0  0  0  0  0  0  0  0  0  0
    6.9482   -0.1642    0.6047 C   0  0  0  0  0  0  0  0  0  0  0  0
    6.9162   -1.5194    0.2763 C   0  0  0  0  0  0  0  0  0  0  0  0
    7.9244   -3.6654    0.0918 C   0  0  0  0  0  0  0  0  0  0  0  0
   -0.4629    2.7055    1.0246 H   0  0  0  0  0  0  0  0  0  0  0  0
   -2.5634    1.3292    1.9636 H   0  0  0  0  0  0  0  0  0  0  0  0
   -0.8419   -0.1538   -0.1669 H   0  0  0  0  0  0  0  0  0  0  0  0
   -0.3776    0.2826    1.4899 H   0  0  0  0  0  0  0  0  0  0  0  0
    0.1417    3.2842   -1.3560 H   0  0  0  0  0  0  0  0  0  0  0  0
   -0.1040    1.6211   -1.8603 H   0  0  0  0  0  0  0  0  0  0  0  0
   -4.0007    3.3930    0.1631 H   0  0  0  0  0  0  0  0  0  0  0  0
   -2.5596    4.2310   -0.4237 H   0  0  0  0  0  0  0  0  0  0  0  0
   -2.6711    3.7410    1.2688 H   0  0  0  0  0  0  0  0  0  0  0  0
   -3.7805    1.6210   -1.5941 H   0  0  0  0  0  0  0  0  0  0  0  0
   -2.2811    0.7166   -1.8063 H   0  0  0  0  0  0  0  0  0  0  0  0
   -2.3651    2.4213   -2.2494 H   0  0  0  0  0  0  0  0  0  0  0  0
   -3.0484   -0.9989    0.3785 H   0  0  0  0  0  0  0  0  0  0  0  0
    1.7838   -0.2886   -1.0962 H   0  0  0  0  0  0  0  0  0  0  0  0
   -7.3226   -0.3735    1.4180 H   0  0  0  0  0  0  0  0  0  0  0  0
   -4.1432   -1.9033   -1.0900 H   0  0  0  0  0  0  0  0  0  0  0  0
   -8.7326   -2.2823    0.7548 H   0  0  0  0  0  0  0  0  0  0  0  0
   -5.5544   -3.7988   -1.7072 H   0  0  0  0  0  0  0  0  0  0  0  0
    3.7162   -1.7659   -0.8152 H   0  0  0  0  0  0  0  0  0  0  0  0
    5.8757    1.6762    0.6899 H   0  0  0  0  0  0  0  0  0  0  0  0
   -7.8556   -4.0012   -0.8040 H   0  0  0  0  0  0  0  0  0  0  0  0
    5.6546   -3.1311   -0.5097 H   0  0  0  0  0  0  0  0  0  0  0  0
    7.8556    0.2825    1.0020 H   0  0  0  0  0  0  0  0  0  0  0  0
    8.8972   -4.1248    0.2954 H   0  0  0  0  0  0  0  0  0  0  0  0
    7.7305   -3.7887   -0.9791 H   0  0  0  0  0  0  0  0  0  0  0  0
    7.1878   -4.1894    0.7102 H   0  0  0  0  0  0  0  0  0  0  0  0
  1  5  1  0  0  0  0
  1 17  1  0  0  0  0
  2 14  2  0  0  0  0
  3 28  1  0  0  0  0
  3 29  1  0  0  0  0
  4  8  1  0  0  0  0
  4 14  1  0  0  0  0
  4 42  1  0  0  0  0
  5 13  2  0  0  0  0
  6  7  1  0  0  0  0
  6  8  1  0  0  0  0
  6 11  1  0  0  0  0
  6 12  1  0  0  0  0
  7  9  1  0  0  0  0
  7 10  1  0  0  0  0
  7 30  1  0  0  0  0
  8  9  1  0  0  0  0
  8 31  1  0  0  0  0
  9 32  1  0  0  0  0
  9 33  1  0  0  0  0
 10 13  1  0  0  0  0
 10 34  1  0  0  0  0
 10 35  1  0  0  0  0
 11 36  1  0  0  0  0
 11 37  1  0  0  0  0
 11 38  1  0  0  0  0
 12 39  1  0  0  0  0
 12 40  1  0  0  0  0
 12 41  1  0  0  0  0
 13 15  1  0  0  0  0
 14 16  1  0  0  0  0
 15 17  2  0  0  0  0
 15 43  1  0  0  0  0
 16 18  2  0  0  0  0
 16 19  1  0  0  0  0
 17 20  1  0  0  0  0
 18 21  1  0  0  0  0
 18 44  1  0  0  0  0
 19 22  2  0  0  0  0
 19 45  1  0  0  0  0
 20 23  2  0  0  0  0
 20 24  1  0  0  0  0
 21 25  2  0  0  0  0
 21 46  1  0  0  0  0
 22 25  1  0  0  0  0
 22 47  1  0  0  0  0
 23 26  1  0  0  0  0
 23 48  1  0  0  0  0
 24 27  2  0  0  0  0
 24 49  1  0  0  0  0
 25 50  1  0  0  0  0
 26 28  2  0  0  0  0
 26 51  1  0  0  0  0
 27 28  1  0  0  0  0
 27 52  1  0  0  0  0
 29 53  1  0  0  0  0
 29 54  1  0  0  0  0
 29 55  1  0  0  0  0
M  END
> <PUBCHEM_COMPOUND_CID>
56774186

> <PUBCHEM_CONFORMER_RMSD>
1

> <PUBCHEM_CONFORMER_DIVERSEORDER>
1
14
15
8
17
16
3
21
22
12
4
18
2
19
5
7
10
6
20
9
13
11

> <PUBCHEM_MMFF94_PARTIAL_CHARGES>
35
1 -0.02
10 0.18
13 0.11
14 0.54
15 -0.15
16 0.09
17 0.09
18 -0.15
19 -0.15
2 -0.57
20 0.05
21 -0.15
22 -0.15
23 -0.15
24 -0.15
25 -0.15
26 -0.15
27 -0.15
28 0.08
29 0.28
3 -0.36
4 -0.65
42 0.37
43 0.15
44 0.15
45 0.15
46 0.15
47 0.15
48 0.15
49 0.15
5 -0.41
50 0.15
51 0.15
52 0.15
8 0.22

> <PUBCHEM_EFFECTIVE_ROTOR_COUNT>
7.8

> <PUBCHEM_PHARMACOPHORE_FEATURES>
9
1 2 acceptor
1 3 acceptor
1 4 donor
1 5 acceptor
3 6 11 12 hydrophobe
4 6 7 8 9 rings
5 1 5 13 15 17 rings
6 16 18 19 21 22 25 rings
6 20 23 24 26 27 28 rings

> <PUBCHEM_HEAVY_ATOM_COUNT>
29

> <PUBCHEM_ATOM_DEF_STEREO_COUNT>
2

> <PUBCHEM_ATOM_UDEF_STEREO_COUNT>
0

> <PUBCHEM_BOND_DEF_STEREO_COUNT>
0

> <PUBCHEM_BOND_UDEF_STEREO_COUNT>
0

> <PUBCHEM_ISOTOPIC_ATOM_COUNT>
0

> <PUBCHEM_COMPONENT_COUNT>
1

> <PUBCHEM_CACTVS_TAUTO_COUNT>
2

> <PUBCHEM_CONFORMER_ID>
03624E2A00000001

> <PUBCHEM_MMFF94_ENERGY>
80.9784

> <PUBCHEM_FEATURE_SELFOVERLAP>
45.672

> <PUBCHEM_SHAPE_FINGERPRINT>
10 15 15913330225221192264
10100884 174 18409165532664689210
10533779 1 10159694642974837994
10669705 251 18129951079226085534
10693767 8 18194394714123279099
10939801 23 18058448892956603100
11410812 94 16298932191999007380
11963148 33 18118682124587094178
11991303 11 15068631529900408443
1200032 147 11167945766689735644
12013929 27 18042685195013637535
12645989 146 18408327687507733970
12760667 363 18334297591442894433
13248334 5 18049162468830293212
13533116 47 18337675333575531544
1361 4 18121782991826022247
13782708 43 18412262835307523656
13885169 86 10303815401807230203
13944108 23 8213603098411008534
14068700 675 18411140237982702769
14344974 204 18342178851588253774
14347332 77 18407760335223559277
14428016 167 18336825304140508754
14565420 104 12031521981295288877
14671636 106 18411702080868322102
14931854 50 17095520673777880994
15064981 194 10663232575761955561
15152005 304 18338811047784046890
15183329 4 14490463193068223645
15188451 53 18411699893685482968
15198563 99 16588289593639505287
15347591 1 18410292501971110220
15510800 12 18040722510321537283
15728490 51 18343018943523241156
16114785 44 11383825005217530317
16126227 98 9511460031015286223
16992779 147 16772368829787877280
16993427 108 18059571451663732291
16994733 274 10663810872013099878
17492 89 18410854373734356612
1768 124 18343586248405169806
19301676 85 18262237832462985611
19841028 212 18335700598070790955
20028762 73 18413673521674503502
2026 5 18333730186965660194
20691028 202 9799394625886631810
208703 8 18409722980479809887
21130935 74 18342458119531314816
21197605 99 18342176666283239102
21424621 283 10159700196187508549
21585481 151 18129389203093212590
21585483 132 18187072949855743354
22002106 203 18335691738133859074
229767 44 18060135483269080671
23389318 12 17967819384032487244
23522609 53 18048916032107073612
23569943 247 18410858781077717251
24983565 74 18118392961355427138
255183 313 16415477181806161509
255183 451 18260269663973393604
270888 7 9799691493545882036
3014063 24 18410011061036496342
3383291 50 18260829327675602907
3504750 166 18341614802850710737
397830 11 18130496505469910600
406291 66 18409728469305660875
439807 62 18342177812812049667
44880568 143 16950552307686846197
474113 269 18341604950269457359
4756088 132 17688020917077889634
5718773 13 18409166619000400186
5758199 1 11240003356058149185
5874358 3 17096628943609144554
6201320 221 16444725192154520218
636775 8 18195817268075605630
6691757 9 15984809437435373013
6712543 237 16343710941191090519
96874 4 18342173414486418439
9689198 14 9079119981377864753
99344 41 18343304734541872035
9962374 69 18334013913443431272

> <PUBCHEM_SHAPE_MULTIPOLES>
569.24
25.2
4.26
0.98
11.16
1.19
0.13
31.5
-3.14
-0.84
0.64
-0.77
-0.12
-1.29

> <PUBCHEM_SHAPE_SELFOVERLAP>
1233.363

> <PUBCHEM_SHAPE_VOLUME>
313.1

> <PUBCHEM_COORDINATE_TYPE>
2
5
10

$$$$
