7164894
  -OEChem-12032416133D

 73 76  0     1  0  0  0  0  0999 V2000
    3.9740   -1.2351   -1.0586 S   0  0  0  0  0  0  0  0  0  0  0  0
    4.1556    0.1859   -1.2668 O   0  0  0  0  0  0  0  0  0  0  0  0
    4.5188   -2.2001   -1.9899 O   0  0  0  0  0  0  0  0  0  0  0  0
    0.6308   -0.1923   -2.3450 O   0  0  0  0  0  0  0  0  0  0  0  0
   -2.3743   -1.3653    0.8640 O   0  0  0  0  0  0  0  0  0  0  0  0
    0.6695    4.9060   -2.6252 O   0  0  0  0  0  0  0  0  0  0  0  0
    1.8938    4.1984   -0.8117 O   0  0  0  0  0  0  0  0  0  0  0  0
   -3.0403    4.6709    3.2478 O   0  0  0  0  0  0  0  0  0  0  0  0
    2.3103   -1.5591   -0.8314 N   0  0  2  0  0  0  0  0  0  0  0  0
   -0.3397   -2.1600    0.0982 N   0  0  0  0  0  0  0  0  0  0  0  0
    0.8500    1.6540   -0.9443 N   0  0  0  0  0  0  0  0  0  0  0  0
   -2.3273   -3.3389   -0.3707 N   0  0  0  0  0  0  0  0  0  0  0  0
    1.5092   -0.5039   -0.1507 C   0  0  2  0  0  0  0  0  0  0  0  0
    0.4009   -1.0679    0.7355 C   0  0  0  0  0  0  0  0  0  0  0  0
    1.9610   -2.9490   -0.4423 C   0  0  0  0  0  0  0  0  0  0  0  0
    0.4630   -3.1547   -0.6238 C   0  0  0  0  0  0  0  0  0  0  0  0
    0.9437    0.3117   -1.2696 C   0  0  0  0  0  0  0  0  0  0  0  0
   -1.7461   -2.2281    0.2469 C   0  0  0  0  0  0  0  0  0  0  0  0
    4.5877   -1.6269    0.5500 C   0  0  0  0  0  0  0  0  0  0  0  0
    0.3565    2.6568   -1.8605 C   0  0  1  0  0  0  0  0  0  0  0  0
   -1.1690    2.8030   -1.7598 C   0  0  0  0  0  0  0  0  0  0  0  0
    4.6532   -0.6381    1.5315 C   0  0  0  0  0  0  0  0  0  0  0  0
    5.0058   -2.9258    0.8395 C   0  0  0  0  0  0  0  0  0  0  0  0
    1.0699    3.9926   -1.6970 C   0  0  0  0  0  0  0  0  0  0  0  0
   -1.6690    3.3013   -0.4225 C   0  0  0  0  0  0  0  0  0  0  0  0
    5.1368   -0.9481    2.8026 C   0  0  0  0  0  0  0  0  0  0  0  0
    5.4892   -3.2359    2.1106 C   0  0  0  0  0  0  0  0  0  0  0  0
   -3.6993   -3.6936   -0.4064 C   0  0  0  0  0  0  0  0  0  0  0  0
    5.5547   -2.2470    3.0921 C   0  0  0  0  0  0  0  0  0  0  0  0
   -1.9827    2.3925    0.5882 C   0  0  0  0  0  0  0  0  0  0  0  0
   -1.8162    4.6704   -0.1998 C   0  0  0  0  0  0  0  0  0  0  0  0
   -4.1042   -4.8484   -1.0758 C   0  0  0  0  0  0  0  0  0  0  0  0
   -4.6443   -2.8881    0.2288 C   0  0  0  0  0  0  0  0  0  0  0  0
   -2.4437    2.8528    1.8215 C   0  0  0  0  0  0  0  0  0  0  0  0
   -2.2772    5.1307    1.0335 C   0  0  0  0  0  0  0  0  0  0  0  0
   -2.5910    4.2220    2.0442 C   0  0  0  0  0  0  0  0  0  0  0  0
   -5.4542   -5.1977   -1.1100 C   0  0  0  0  0  0  0  0  0  0  0  0
   -5.9943   -3.2374    0.1947 C   0  0  0  0  0  0  0  0  0  0  0  0
    1.2793    6.1972   -2.5295 C   0  0  0  0  0  0  0  0  0  0  0  0
   -6.3992   -4.3922   -0.4747 C   0  0  0  0  0  0  0  0  0  0  0  0
   -3.3419    3.6872    4.2364 C   0  0  0  0  0  0  0  0  0  0  0  0
    2.1488    0.1234    0.4766 H   0  0  0  0  0  0  0  0  0  0  0  0
   -0.2814   -0.2742    1.0527 H   0  0  0  0  0  0  0  0  0  0  0  0
    0.8354   -1.4884    1.6514 H   0  0  0  0  0  0  0  0  0  0  0  0
    2.2299   -3.1347    0.6026 H   0  0  0  0  0  0  0  0  0  0  0  0
    2.4926   -3.6671   -1.0747 H   0  0  0  0  0  0  0  0  0  0  0  0
    0.1898   -3.0849   -1.6834 H   0  0  0  0  0  0  0  0  0  0  0  0
    0.1946   -4.1547   -0.2665 H   0  0  0  0  0  0  0  0  0  0  0  0
    1.1192    1.9600   -0.0136 H   0  0  0  0  0  0  0  0  0  0  0  0
    0.6011    2.3091   -2.8728 H   0  0  0  0  0  0  0  0  0  0  0  0
   -1.6457    1.8365   -1.9737 H   0  0  0  0  0  0  0  0  0  0  0  0
   -1.5336    3.4800   -2.5438 H   0  0  0  0  0  0  0  0  0  0  0  0
   -1.7255   -3.9797   -0.8765 H   0  0  0  0  0  0  0  0  0  0  0  0
    4.3388    0.3816    1.3298 H   0  0  0  0  0  0  0  0  0  0  0  0
    4.9621   -3.7126    0.0917 H   0  0  0  0  0  0  0  0  0  0  0  0
    5.1889   -0.1781    3.5668 H   0  0  0  0  0  0  0  0  0  0  0  0
    5.8140   -4.2474    2.3364 H   0  0  0  0  0  0  0  0  0  0  0  0
    5.9312   -2.4884    4.0819 H   0  0  0  0  0  0  0  0  0  0  0  0
   -1.8830    1.3252    0.4205 H   0  0  0  0  0  0  0  0  0  0  0  0
   -1.5834    5.3907   -0.9790 H   0  0  0  0  0  0  0  0  0  0  0  0
   -3.3781   -5.4851   -1.5748 H   0  0  0  0  0  0  0  0  0  0  0  0
   -4.4179   -1.9804    0.7684 H   0  0  0  0  0  0  0  0  0  0  0  0
   -2.6710    2.0923    2.5607 H   0  0  0  0  0  0  0  0  0  0  0  0
   -2.3914    6.1983    1.2006 H   0  0  0  0  0  0  0  0  0  0  0  0
   -5.7696   -6.0970   -1.6310 H   0  0  0  0  0  0  0  0  0  0  0  0
   -6.7316   -2.6112    0.6892 H   0  0  0  0  0  0  0  0  0  0  0  0
    1.0464    6.6552   -1.5634 H   0  0  0  0  0  0  0  0  0  0  0  0
    2.3615    6.1162   -2.6690 H   0  0  0  0  0  0  0  0  0  0  0  0
    0.8690    6.8265   -3.3237 H   0  0  0  0  0  0  0  0  0  0  0  0
   -7.4504   -4.6642   -0.5012 H   0  0  0  0  0  0  0  0  0  0  0  0
   -4.1631    3.0359    3.9185 H   0  0  0  0  0  0  0  0  0  0  0  0
   -2.4503    3.1204    4.5251 H   0  0  0  0  0  0  0  0  0  0  0  0
   -3.6843    4.2207    5.1292 H   0  0  0  0  0  0  0  0  0  0  0  0
  1  2  2  0  0  0  0
  1  3  2  0  0  0  0
  1  9  1  0  0  0  0
  1 19  1  0  0  0  0
  4 17  2  0  0  0  0
  5 18  2  0  0  0  0
  6 24  1  0  0  0  0
  6 39  1  0  0  0  0
  7 24  2  0  0  0  0
  8 36  1  0  0  0  0
  8 41  1  0  0  0  0
  9 13  1  0  0  0  0
  9 15  1  0  0  0  0
 10 14  1  0  0  0  0
 10 16  1  0  0  0  0
 10 18  1  0  0  0  0
 11 17  1  0  0  0  0
 11 20  1  0  0  0  0
 11 49  1  0  0  0  0
 12 18  1  0  0  0  0
 12 28  1  0  0  0  0
 12 53  1  0  0  0  0
 13 14  1  0  0  0  0
 13 17  1  0  0  0  0
 13 42  1  0  0  0  0
 14 43  1  0  0  0  0
 14 44  1  0  0  0  0
 15 16  1  0  0  0  0
 15 45  1  0  0  0  0
 15 46  1  0  0  0  0
 16 47  1  0  0  0  0
 16 48  1  0  0  0  0
 19 22  2  0  0  0  0
 19 23  1  0  0  0  0
 20 21  1  0  0  0  0
 20 24  1  0  0  0  0
 20 50  1  0  0  0  0
 21 25  1  0  0  0  0
 21 51  1  0  0  0  0
 21 52  1  0  0  0  0
 22 26  1  0  0  0  0
 22 54  1  0  0  0  0
 23 27  2  0  0  0  0
 23 55  1  0  0  0  0
 25 30  2  0  0  0  0
 25 31  1  0  0  0  0
 26 29  2  0  0  0  0
 26 56  1  0  0  0  0
 27 29  1  0  0  0  0
 27 57  1  0  0  0  0
 28 32  2  0  0  0  0
 28 33  1  0  0  0  0
 29 58  1  0  0  0  0
 30 34  1  0  0  0  0
 30 59  1  0  0  0  0
 31 35  2  0  0  0  0
 31 60  1  0  0  0  0
 32 37  1  0  0  0  0
 32 61  1  0  0  0  0
 33 38  2  0  0  0  0
 33 62  1  0  0  0  0
 34 36  2  0  0  0  0
 34 63  1  0  0  0  0
 35 36  1  0  0  0  0
 35 64  1  0  0  0  0
 37 40  2  0  0  0  0
 37 65  1  0  0  0  0
 38 40  1  0  0  0  0
 38 66  1  0  0  0  0
 39 67  1  0  0  0  0
 39 68  1  0  0  0  0
 39 69  1  0  0  0  0
 40 70  1  0  0  0  0
 41 71  1  0  0  0  0
 41 72  1  0  0  0  0
 41 73  1  0  0  0  0
M  END
> <PUBCHEM_COMPOUND_CID>
7164894

> <PUBCHEM_CONFORMER_RMSD>
1.2

> <PUBCHEM_CONFORMER_DIVERSEORDER>
1
165
143
62
90
142
56
184
54
33
69
219
30
76
83
152
189
77
16
158
10
72
202
100
53
195
209
46
85
21
115
55
176
223
105
181
149
87
37
129
124
183
18
190
92
215
196
136
26
74
27
116
171
213
169
70
98
13
65
71
126
110
153
80
11
111
170
187
14
166
75
121
159
38
117
20
208
106
12
157
154
207
32
151
204
130
61
123
34
22
174
79
112
210
120
140
200
95
182
31
173
73
155
224
15
199
51
81
86
134
89
88
167
43
25
212
145
44
214
146
40
141
99
133
180
101
36
94
148
161
58
103
198
59
64
17
42
194
96
57
177
119
128
203
114
109
188
138
205
93
5
156
48
118
137
52
60
144
19
139
24
168
41
193
178
217
97
29
122
50
206
35
197
63
28
162
113
191
125
39
6
9
218
45
132
47
23
216
3
82
107
175
211
104
172
147
68
164
163
221
84
49
91
7
222
160
201
8
127
185
2
4
66
131
186
192
220
108
67
78
135
102
179
150

> <PUBCHEM_MMFF94_PARTIAL_CHARGES>
57
1 1.45
10 -0.66
11 -0.73
12 -0.55
13 0.42
14 0.3
15 0.36
16 0.3
17 0.57
18 0.69
19 -0.01
2 -0.65
20 0.36
21 0.14
22 -0.15
23 -0.15
24 0.66
25 -0.14
26 -0.15
27 -0.15
28 0.12
29 -0.15
3 -0.65
30 -0.15
31 -0.15
32 -0.15
33 -0.15
34 -0.15
35 -0.15
36 0.08
37 -0.15
38 -0.15
39 0.28
4 -0.57
40 -0.15
41 0.28
49 0.37
5 -0.57
53 0.37
54 0.15
55 0.15
56 0.15
57 0.15
58 0.15
59 0.15
6 -0.43
60 0.15
61 0.15
62 0.15
63 0.15
64 0.15
65 0.15
66 0.15
7 -0.57
70 0.15
8 -0.36
9 -0.85

> <PUBCHEM_EFFECTIVE_ROTOR_COUNT>
14.2

> <PUBCHEM_PHARMACOPHORE_FEATURES>
12
1 11 donor
1 12 donor
1 2 acceptor
1 3 acceptor
1 4 acceptor
1 5 acceptor
1 7 acceptor
1 8 acceptor
6 19 22 23 26 27 29 rings
6 25 30 31 34 35 36 rings
6 28 32 33 37 38 40 rings
6 9 10 13 14 15 16 rings

> <PUBCHEM_HEAVY_ATOM_COUNT>
41

> <PUBCHEM_ATOM_DEF_STEREO_COUNT>
2

> <PUBCHEM_ATOM_UDEF_STEREO_COUNT>
0

> <PUBCHEM_BOND_DEF_STEREO_COUNT>
0

> <PUBCHEM_BOND_UDEF_STEREO_COUNT>
0

> <PUBCHEM_ISOTOPIC_ATOM_COUNT>
0

> <PUBCHEM_COMPONENT_COUNT>
1

> <PUBCHEM_CACTVS_TAUTO_COUNT>
4

> <PUBCHEM_CONFORMER_ID>
006D53DE00000001

> <PUBCHEM_MMFF94_ENERGY>
111.0287

> <PUBCHEM_FEATURE_SELFOVERLAP>
60.918

> <PUBCHEM_SHAPE_FINGERPRINT>
10675989 125 17758973896918155580
11331351 85 18340759420684086007
12422481 6 17465112539652616546
13692114 37 18051963732657546519
14068700 675 18409727395864218343
14150022 121 18341597232033833146
14150023 79 17324640475665313446
14705955 166 18197472139663608034
15082195 135 17622716940733812535
15200665 1 17974548230999697282
15351339 4 17835253611396262565
19319366 153 17049635618462580617
1979834 28 17255719320519357777
21344244 78 18269831089612327915
21968339 14 17834393806456912007
22223350 30 18054226532183572746
24180151 40 18197229254467034104
6376802 137 17915148339959886285
6695519 79 17404861453971131552
9777508 108 18125158238719368962
9981440 41 17179663876369754764

> <PUBCHEM_SHAPE_MULTIPOLES>
786.6
12
10.98
3.15
1.75
10.62
2.56
-22.08
6.1
-13.92
-1.75
1.24
4.64
-7.63

> <PUBCHEM_SHAPE_SELFOVERLAP>
1659.795

> <PUBCHEM_SHAPE_VOLUME>
440.4

> <PUBCHEM_COORDINATE_TYPE>
2
5
10

$$$$
