75536809
  -OEChem-12032416313D

 50 51  0     1  0  0  0  0  0999 V2000
    1.1473    0.1924    0.0153 O   0  0  0  0  0  0  0  0  0  0  0  0
   -0.5374   -2.9391    0.5262 O   0  0  0  0  0  0  0  0  0  0  0  0
    3.4695    0.5065   -1.9176 O   0  0  0  0  0  0  0  0  0  0  0  0
   -2.4277   -0.4787    0.0265 N   0  0  0  0  0  0  0  0  0  0  0  0
    3.5083   -1.3676   -0.5438 N   0  0  0  0  0  0  0  0  0  0  0  0
   -7.2865    0.7003   -0.5188 N   0  0  0  0  0  0  0  0  0  0  0  0
   -1.0551   -0.5534    0.4999 C   0  0  1  0  0  0  0  0  0  0  0  0
   -0.2651   -1.7011   -0.1013 C   0  0  1  0  0  0  0  0  0  0  0  0
    1.1633   -1.2383    0.1520 C   0  0  1  0  0  0  0  0  0  0  0  0
   -0.2175    0.6423    0.0770 C   0  0  0  0  0  0  0  0  0  0  0  0
    2.1685   -1.8354   -0.8167 C   0  0  0  0  0  0  0  0  0  0  0  0
    5.6047    0.9761    0.5491 C   0  0  0  0  0  0  0  0  0  0  0  0
    5.4755    0.0419   -0.6774 C   0  0  0  0  0  0  0  0  0  0  0  0
   -3.2255    0.4066    0.8666 C   0  0  0  0  0  0  0  0  0  0  0  0
    4.0473   -0.2303   -1.1208 C   0  0  0  0  0  0  0  0  0  0  0  0
    7.0801    1.2061    0.9171 C   0  0  0  0  0  0  0  0  0  0  0  0
    4.9768    2.3350    0.1822 C   0  0  0  0  0  0  0  0  0  0  0  0
    4.8596    0.4103    1.7691 C   0  0  0  0  0  0  0  0  0  0  0  0
   -4.6470    0.5093    0.3813 C   0  0  0  0  0  0  0  0  0  0  0  0
   -4.9505    1.2858   -0.7315 C   0  0  0  0  0  0  0  0  0  0  0  0
   -5.6617   -0.1719    1.0444 C   0  0  0  0  0  0  0  0  0  0  0  0
   -6.2738    1.3479   -1.1376 C   0  0  0  0  0  0  0  0  0  0  0  0
   -6.9532   -0.0447    0.5588 C   0  0  0  0  0  0  0  0  0  0  0  0
   -1.0361   -0.6643    1.5934 H   0  0  0  0  0  0  0  0  0  0  0  0
   -0.4654   -1.7977   -1.1757 H   0  0  0  0  0  0  0  0  0  0  0  0
    1.4722   -1.4646    1.1811 H   0  0  0  0  0  0  0  0  0  0  0  0
   -0.4830    1.0046   -0.9229 H   0  0  0  0  0  0  0  0  0  0  0  0
   -0.2912    1.4793    0.7779 H   0  0  0  0  0  0  0  0  0  0  0  0
    2.1818   -2.9272   -0.7394 H   0  0  0  0  0  0  0  0  0  0  0  0
    1.9171   -1.5623   -1.8479 H   0  0  0  0  0  0  0  0  0  0  0  0
   -2.8384   -1.4126    0.0479 H   0  0  0  0  0  0  0  0  0  0  0  0
    4.0669   -1.9046    0.1128 H   0  0  0  0  0  0  0  0  0  0  0  0
    5.9704   -0.9150   -0.4656 H   0  0  0  0  0  0  0  0  0  0  0  0
    6.0075    0.4679   -1.5383 H   0  0  0  0  0  0  0  0  0  0  0  0
   -0.3588   -2.8456    1.4773 H   0  0  0  0  0  0  0  0  0  0  0  0
   -2.8001    1.4182    0.8821 H   0  0  0  0  0  0  0  0  0  0  0  0
   -3.2214    0.0540    1.9063 H   0  0  0  0  0  0  0  0  0  0  0  0
    7.1796    1.8907    1.7669 H   0  0  0  0  0  0  0  0  0  0  0  0
    7.6340    1.6357    0.0749 H   0  0  0  0  0  0  0  0  0  0  0  0
    7.5659    0.2624    1.1889 H   0  0  0  0  0  0  0  0  0  0  0  0
    5.1252    3.0631    0.9886 H   0  0  0  0  0  0  0  0  0  0  0  0
    5.4310    2.7519   -0.7238 H   0  0  0  0  0  0  0  0  0  0  0  0
    3.8967    2.2608    0.0177 H   0  0  0  0  0  0  0  0  0  0  0  0
    3.7791    0.3526    1.6032 H   0  0  0  0  0  0  0  0  0  0  0  0
    5.2204   -0.5938    2.0179 H   0  0  0  0  0  0  0  0  0  0  0  0
    5.0131    1.0440    2.6504 H   0  0  0  0  0  0  0  0  0  0  0  0
   -4.1837    1.8305   -1.2717 H   0  0  0  0  0  0  0  0  0  0  0  0
   -5.4620   -0.7883    1.9142 H   0  0  0  0  0  0  0  0  0  0  0  0
   -6.5630    1.9399   -1.9997 H   0  0  0  0  0  0  0  0  0  0  0  0
   -7.7803   -0.5563    1.0400 H   0  0  0  0  0  0  0  0  0  0  0  0
  1  9  1  0  0  0  0
  1 10  1  0  0  0  0
  2  8  1  0  0  0  0
  2 35  1  0  0  0  0
  3 15  2  0  0  0  0
  4  7  1  0  0  0  0
  4 14  1  0  0  0  0
  4 31  1  0  0  0  0
  5 11  1  0  0  0  0
  5 15  1  0  0  0  0
  5 32  1  0  0  0  0
  6 22  2  0  0  0  0
  6 23  1  0  0  0  0
  7  8  1  0  0  0  0
  7 10  1  0  0  0  0
  7 24  1  0  0  0  0
  8  9  1  0  0  0  0
  8 25  1  0  0  0  0
  9 11  1  0  0  0  0
  9 26  1  0  0  0  0
 10 27  1  0  0  0  0
 10 28  1  0  0  0  0
 11 29  1  0  0  0  0
 11 30  1  0  0  0  0
 12 13  1  0  0  0  0
 12 16  1  0  0  0  0
 12 17  1  0  0  0  0
 12 18  1  0  0  0  0
 13 15  1  0  0  0  0
 13 33  1  0  0  0  0
 13 34  1  0  0  0  0
 14 19  1  0  0  0  0
 14 36  1  0  0  0  0
 14 37  1  0  0  0  0
 16 38  1  0  0  0  0
 16 39  1  0  0  0  0
 16 40  1  0  0  0  0
 17 41  1  0  0  0  0
 17 42  1  0  0  0  0
 17 43  1  0  0  0  0
 18 44  1  0  0  0  0
 18 45  1  0  0  0  0
 18 46  1  0  0  0  0
 19 20  2  0  0  0  0
 19 21  1  0  0  0  0
 20 22  1  0  0  0  0
 20 47  1  0  0  0  0
 21 23  2  0  0  0  0
 21 48  1  0  0  0  0
 22 49  1  0  0  0  0
 23 50  1  0  0  0  0
M  END
> <PUBCHEM_COMPOUND_CID>
75536809

> <PUBCHEM_CONFORMER_RMSD>
1

> <PUBCHEM_CONFORMER_DIVERSEORDER>
1
16
110
57
37
49
121
3
116
107
43
7
124
120
85
100
38
55
60
6
58
122
40
90
78
17
13
92
66
67
113
111
95
10
101
125
109
79
25
114
62
39
68
102
72
23
5
82
8
44
30
94
106
41
34
24
27
54
105
21
84
47
63
45
59
99
51
87
28
127
86
98
36
70
20
11
96
81
64
14
69
71
65
18
73
123
33
61
117
108
91
9
88
50
76
56
128
126
112
74
15
19
118
97
35
52
22
93
103
48
32
42
119
29
104
26
80
89
53
77
115
2
31
12
4
46
75
83

> <PUBCHEM_MMFF94_PARTIAL_CHARGES>
26
1 -0.56
10 0.28
11 0.3
13 0.06
14 0.41
15 0.57
19 -0.14
2 -0.68
20 -0.15
21 -0.15
22 0.16
23 0.16
3 -0.57
31 0.36
32 0.37
35 0.4
4 -0.9
47 0.15
48 0.15
49 0.15
5 -0.73
50 0.15
6 -0.62
7 0.27
8 0.28
9 0.28

> <PUBCHEM_EFFECTIVE_ROTOR_COUNT>
9

> <PUBCHEM_PHARMACOPHORE_FEATURES>
11
1 1 acceptor
1 2 acceptor
1 2 donor
1 3 acceptor
1 4 cation
1 4 donor
1 5 donor
1 6 acceptor
4 12 16 17 18 hydrophobe
5 1 7 8 9 10 rings
6 6 19 20 21 22 23 rings

> <PUBCHEM_HEAVY_ATOM_COUNT>
23

> <PUBCHEM_ATOM_DEF_STEREO_COUNT>
3

> <PUBCHEM_ATOM_UDEF_STEREO_COUNT>
0

> <PUBCHEM_BOND_DEF_STEREO_COUNT>
0

> <PUBCHEM_BOND_UDEF_STEREO_COUNT>
0

> <PUBCHEM_ISOTOPIC_ATOM_COUNT>
0

> <PUBCHEM_COMPONENT_COUNT>
1

> <PUBCHEM_CACTVS_TAUTO_COUNT>
2

> <PUBCHEM_CONFORMER_ID>
048099A900000001

> <PUBCHEM_MMFF94_ENERGY>
51.1794

> <PUBCHEM_FEATURE_SELFOVERLAP>
55.822

> <PUBCHEM_SHAPE_FINGERPRINT>
10 15 18113339742745297249
10299344 5 14620797093943508333
10638233 991 16917066659666906977
10666366 153 9583524196817349299
10835480 77 18335978659028555533
11524674 6 8358251545695904521
11646440 116 18341059574431024737
11719270 70 18113899334161309563
12236239 1 17274827913718386619
12778500 126 15502370097945727068
13533116 47 18271249305541903902
13673619 4 11602813597838550222
13685833 64 7925914781560056564
13914758 101 12757141378007058087
14123256 34 9583518737069844821
14216079 64 7853581205381529809
14251764 18 15068343419341441204
14347424 109 14779547902993034460
14461889 52 18187373155195075971
14528608 73 17203609276668888304
14681490 219 16917067754451382513
14767858 380 17275102829789594929
15183329 4 15339120143339391985
16079462 125 18260827086086944461
173720 79 17822009809013162242
20157964 124 18131917044638787102
20554085 129 17603578626206315145
20567600 254 18410573981310320466
20715895 44 18411701015283961376
21150785 3 16272205301683960149
21521721 280 18202569475400820875
220451 1 14333130750271993007
2297311 6 12751239195120141923
23016692 55 11240000053017230570
23035841 295 12967129402513342013
23081809 10 16630250212545351731
23424782 7 17846213414927441103
23559900 14 17846210107396097481
249999 5 18188205378002196922
2767999 5 18408323284923448141
2916195 48 18408041810194462387
300161 21 18411699885306622983
312425 54 14129348432852411448
335352 9 18272377465065222550
3472631 163 18341895242565872444
34797466 226 17060346209972852597
4072396 5 17385443206830277858
4325135 7 16487255469477878012
4340502 62 18334860510878227518
439807 62 10159714490413831720
465052 167 8790884086314600968
5104073 3 18041848286159475641
53917941 68 18411694417987653479
54039377 194 11747478525076407456
543368 44 18060138726617552721
8863177 126 11671194454963099197

> <PUBCHEM_SHAPE_MULTIPOLES>
440.78
20.37
1.94
1.26
12.5
0.73
-0.09
-11.15
0.91
-1.42
-0.03
-0.68
-0.17
1.62

> <PUBCHEM_SHAPE_SELFOVERLAP>
898.912

> <PUBCHEM_SHAPE_VOLUME>
255.7

> <PUBCHEM_COORDINATE_TYPE>
2
5
10

$$$$
