25389733
  -OEChem-12032416163D

 66 70  0     1  0  0  0  0  0999 V2000
    1.5141   -3.3864   -1.5150 F   0  0  0  0  0  0  0  0  0  0  0  0
   -2.7736   -2.7045   -1.7004 O   0  0  0  0  0  0  0  0  0  0  0  0
   -1.0582   -1.2959   -2.3406 O   0  0  0  0  0  0  0  0  0  0  0  0
    7.1119    1.4288    0.8561 O   0  0  0  0  0  0  0  0  0  0  0  0
   -0.5626   -0.5451    0.2431 N   0  0  2  0  0  0  0  0  0  0  0  0
    2.6173    2.3179    0.2657 N   0  0  0  0  0  0  0  0  0  0  0  0
   -2.7186    2.4962   -0.2157 N   0  0  0  0  0  0  0  0  0  0  0  0
    6.1707    3.0199   -0.5606 N   0  0  0  0  0  0  0  0  0  0  0  0
   -0.8135    0.7932   -0.3753 C   0  0  2  0  0  0  0  0  0  0  0  0
    0.8010   -1.0493   -0.0590 C   0  0  1  0  0  0  0  0  0  0  0  0
    0.2222    1.8192    0.1106 C   0  0  0  0  0  0  0  0  0  0  0  0
    1.6374    1.3524   -0.2289 C   0  0  2  0  0  0  0  0  0  0  0  0
    1.8805   -0.0291    0.3768 C   0  0  0  0  0  0  0  0  0  0  0  0
   -1.6594   -1.5177   -0.0160 C   0  0  1  0  0  0  0  0  0  0  0  0
   -2.2141    1.2340   -0.0711 C   0  0  0  0  0  0  0  0  0  0  0  0
   -3.0191   -1.0479    0.5611 C   0  0  0  0  0  0  0  0  0  0  0  0
   -3.2376    0.4075    0.3386 C   0  0  0  0  0  0  0  0  0  0  0  0
    1.1330   -2.3844    0.6030 C   0  0  0  0  0  0  0  0  0  0  0  0
   -4.4064    1.2029    0.4847 C   0  0  0  0  0  0  0  0  0  0  0  0
   -4.0530    2.5091    0.1316 C   0  0  0  0  0  0  0  0  0  0  0  0
   -1.7714   -1.8052   -1.4867 C   0  0  0  0  0  0  0  0  0  0  0  0
    3.8807    2.1787   -0.4420 C   0  0  0  0  0  0  0  0  0  0  0  0
    1.4743   -3.4876   -0.1791 C   0  0  0  0  0  0  0  0  0  0  0  0
    1.0947   -2.4995    1.9925 C   0  0  0  0  0  0  0  0  0  0  0  0
   -5.7346    0.9434    0.8781 C   0  0  0  0  0  0  0  0  0  0  0  0
   -4.9663    3.5694    0.1546 C   0  0  0  0  0  0  0  0  0  0  0  0
    4.9053    3.1605    0.1069 C   0  0  0  0  0  0  0  0  0  0  0  0
   -6.6571    1.9953    0.9072 C   0  0  0  0  0  0  0  0  0  0  0  0
    1.7774   -4.7062    0.4283 C   0  0  0  0  0  0  0  0  0  0  0  0
    1.3977   -3.7182    2.6000 C   0  0  0  0  0  0  0  0  0  0  0  0
   -6.2767    3.2874    0.5508 C   0  0  0  0  0  0  0  0  0  0  0  0
    1.7390   -4.8215    1.8179 C   0  0  0  0  0  0  0  0  0  0  0  0
   -2.9905   -3.0703   -3.0669 C   0  0  0  0  0  0  0  0  0  0  0  0
    7.1727    2.1615   -0.1278 C   0  0  0  0  0  0  0  0  0  0  0  0
    8.3830    2.1914   -1.0222 C   0  0  0  0  0  0  0  0  0  0  0  0
   -0.7205    0.7522   -1.4662 H   0  0  0  0  0  0  0  0  0  0  0  0
    0.9217   -1.1629   -1.1419 H   0  0  0  0  0  0  0  0  0  0  0  0
    0.0393    2.7929   -0.3627 H   0  0  0  0  0  0  0  0  0  0  0  0
    0.1186    1.9753    1.1940 H   0  0  0  0  0  0  0  0  0  0  0  0
    1.7021    1.2850   -1.3240 H   0  0  0  0  0  0  0  0  0  0  0  0
    1.9053    0.0652    1.4713 H   0  0  0  0  0  0  0  0  0  0  0  0
    2.8644   -0.4142    0.0807 H   0  0  0  0  0  0  0  0  0  0  0  0
   -1.4339   -2.4733    0.4714 H   0  0  0  0  0  0  0  0  0  0  0  0
   -3.0142   -1.2202    1.6457 H   0  0  0  0  0  0  0  0  0  0  0  0
   -3.8623   -1.6155    0.1532 H   0  0  0  0  0  0  0  0  0  0  0  0
    2.2678    3.2665    0.1300 H   0  0  0  0  0  0  0  0  0  0  0  0
   -2.1983    3.3047   -0.5274 H   0  0  0  0  0  0  0  0  0  0  0  0
    3.7443    2.3640   -1.5152 H   0  0  0  0  0  0  0  0  0  0  0  0
    4.2842    1.1655   -0.3384 H   0  0  0  0  0  0  0  0  0  0  0  0
    0.8206   -1.6559    2.6201 H   0  0  0  0  0  0  0  0  0  0  0  0
   -6.0462   -0.0590    1.1577 H   0  0  0  0  0  0  0  0  0  0  0  0
   -4.6721    4.5757   -0.1242 H   0  0  0  0  0  0  0  0  0  0  0  0
    5.0526    3.0036    1.1818 H   0  0  0  0  0  0  0  0  0  0  0  0
    4.5736    4.1939   -0.0432 H   0  0  0  0  0  0  0  0  0  0  0  0
   -7.6822    1.8003    1.2109 H   0  0  0  0  0  0  0  0  0  0  0  0
    2.0429   -5.5650   -0.1810 H   0  0  0  0  0  0  0  0  0  0  0  0
    1.3651   -3.8087    3.6818 H   0  0  0  0  0  0  0  0  0  0  0  0
   -7.0098    4.0895    0.5798 H   0  0  0  0  0  0  0  0  0  0  0  0
    1.9742   -5.7705    2.2908 H   0  0  0  0  0  0  0  0  0  0  0  0
   -3.8123   -3.7905   -3.0997 H   0  0  0  0  0  0  0  0  0  0  0  0
   -2.0934   -3.5415   -3.4794 H   0  0  0  0  0  0  0  0  0  0  0  0
   -3.2705   -2.1905   -3.6540 H   0  0  0  0  0  0  0  0  0  0  0  0
    6.3234    3.5696   -1.4013 H   0  0  0  0  0  0  0  0  0  0  0  0
    8.6644    3.2238   -1.2483 H   0  0  0  0  0  0  0  0  0  0  0  0
    9.2231    1.7024   -0.5211 H   0  0  0  0  0  0  0  0  0  0  0  0
    8.1601    1.6623   -1.9528 H   0  0  0  0  0  0  0  0  0  0  0  0
  1 23  1  0  0  0  0
  2 21  1  0  0  0  0
  2 33  1  0  0  0  0
  3 21  2  0  0  0  0
  4 34  2  0  0  0  0
  5  9  1  0  0  0  0
  5 10  1  0  0  0  0
  5 14  1  0  0  0  0
  6 12  1  0  0  0  0
  6 22  1  0  0  0  0
  6 46  1  0  0  0  0
  7 15  1  0  0  0  0
  7 20  1  0  0  0  0
  7 47  1  0  0  0  0
  8 27  1  0  0  0  0
  8 34  1  0  0  0  0
  8 63  1  0  0  0  0
  9 11  1  0  0  0  0
  9 15  1  0  0  0  0
  9 36  1  0  0  0  0
 10 13  1  0  0  0  0
 10 18  1  0  0  0  0
 10 37  1  0  0  0  0
 11 12  1  0  0  0  0
 11 38  1  0  0  0  0
 11 39  1  0  0  0  0
 12 13  1  0  0  0  0
 12 40  1  0  0  0  0
 13 41  1  0  0  0  0
 13 42  1  0  0  0  0
 14 16  1  0  0  0  0
 14 21  1  0  0  0  0
 14 43  1  0  0  0  0
 15 17  2  0  0  0  0
 16 17  1  0  0  0  0
 16 44  1  0  0  0  0
 16 45  1  0  0  0  0
 17 19  1  0  0  0  0
 18 23  1  0  0  0  0
 18 24  2  0  0  0  0
 19 20  1  0  0  0  0
 19 25  2  0  0  0  0
 20 26  2  0  0  0  0
 22 27  1  0  0  0  0
 22 48  1  0  0  0  0
 22 49  1  0  0  0  0
 23 29  2  0  0  0  0
 24 30  1  0  0  0  0
 24 50  1  0  0  0  0
 25 28  1  0  0  0  0
 25 51  1  0  0  0  0
 26 31  1  0  0  0  0
 26 52  1  0  0  0  0
 27 53  1  0  0  0  0
 27 54  1  0  0  0  0
 28 31  2  0  0  0  0
 28 55  1  0  0  0  0
 29 32  1  0  0  0  0
 29 56  1  0  0  0  0
 30 32  2  0  0  0  0
 30 57  1  0  0  0  0
 31 58  1  0  0  0  0
 32 59  1  0  0  0  0
 33 60  1  0  0  0  0
 33 61  1  0  0  0  0
 33 62  1  0  0  0  0
 34 35  1  0  0  0  0
 35 64  1  0  0  0  0
 35 65  1  0  0  0  0
 35 66  1  0  0  0  0
M  END
> <PUBCHEM_COMPOUND_CID>
25389733

> <PUBCHEM_CONFORMER_RMSD>
1

> <PUBCHEM_CONFORMER_DIVERSEORDER>
1
40
34
77
11
71
74
84
57
76
78
44
62
30
83
7
13
60
88
36
35
79
64
46
80
65
37
87
63
50
75
18
25
59
42
72
23
51
28
6
27
82
33
81
21
53
43
26
70
67
20
48
22
2
56
12
68
9
15
58
69
61
8
24
32
39
55
54
45
16
52
86
31
14
10
47
49
3
41
5
38
29
85
66
17
73
4
19

> <PUBCHEM_MMFF94_PARTIAL_CHARGES>
43
1 -0.19
10 0.41
12 0.27
14 0.33
15 -0.33
16 0.18
17 -0.18
18 -0.14
2 -0.43
20 -0.15
21 0.66
22 0.27
23 0.19
24 -0.15
25 -0.15
26 -0.15
27 0.3
28 -0.15
29 -0.15
3 -0.57
30 -0.15
31 -0.15
32 -0.15
33 0.28
34 0.57
35 0.06
4 -0.57
46 0.36
47 0.27
5 -0.81
50 0.15
51 0.15
52 0.15
55 0.15
56 0.15
57 0.15
58 0.15
59 0.15
6 -0.9
63 0.37
7 0.03
8 -0.73
9 0.45

> <PUBCHEM_EFFECTIVE_ROTOR_COUNT>
9.2

> <PUBCHEM_PHARMACOPHORE_FEATURES>
13
1 3 acceptor
1 4 acceptor
1 5 cation
1 6 cation
1 6 donor
1 7 cation
1 7 donor
1 8 donor
5 7 15 17 19 20 rings
6 18 23 24 29 30 32 rings
6 19 20 25 26 28 31 rings
6 5 9 10 11 12 13 rings
6 5 9 14 15 16 17 rings

> <PUBCHEM_HEAVY_ATOM_COUNT>
35

> <PUBCHEM_ATOM_DEF_STEREO_COUNT>
4

> <PUBCHEM_ATOM_UDEF_STEREO_COUNT>
0

> <PUBCHEM_BOND_DEF_STEREO_COUNT>
0

> <PUBCHEM_BOND_UDEF_STEREO_COUNT>
0

> <PUBCHEM_ISOTOPIC_ATOM_COUNT>
0

> <PUBCHEM_COMPONENT_COUNT>
1

> <PUBCHEM_CACTVS_TAUTO_COUNT>
2

> <PUBCHEM_CONFORMER_ID>
01836AA500000001

> <PUBCHEM_MMFF94_ENERGY>
68.8467

> <PUBCHEM_FEATURE_SELFOVERLAP>
66.166

> <PUBCHEM_SHAPE_FINGERPRINT>
10190206 1 18199457926298120525
11135926 11 18335132072849048509
13140716 1 18408317791939897160
13540713 5 18270101445503927487
140371 6 17117476572513224241
14400156 350 17982167812959321389
14659021 117 17765421433324823680
14790565 3 18336264630582694104
15064986 266 18120664776085281164
15439362 3 18263927627416091937
15629462 23 17908703173990770535
15684973 49 18198606908604010714
15927050 60 18411702092946290695
16090146 7 17678730378887276870
20505436 4 18342739611397549159
20642791 35 18268156357541109302
21033648 29 18269269222476397560
21133665 82 18410863183787810692
23559900 14 18051697646885922963
244849 19 17679331614231936073
249999 5 18264209119123792064
283562 15 18122613122999114943
3383291 50 18049154773087039002
3411729 13 18337956679570990929
376196 1 18059292183947180016
4408954 64 15580098101481751578
4516262 110 18334288756458316077
465052 167 17904206923848560747
5104073 3 18120387467342970929
5109719 28 18337402556086567296
5265222 85 18265903630321177264
5385378 56 18337116657141099777
563151 40 18339929311032126648
563151 97 18337101358604039815
59755656 520 18261109746696480148
6669772 16 18271817795622764348
9896288 288 18266749150272427387
9981440 41 18261402190470935425

> <PUBCHEM_SHAPE_MULTIPOLES>
675.48
15.26
6.67
1.77
15.82
5.81
0.77
-25.65
-0.78
4.8
-1.04
-0.6
2.82
-3.83

> <PUBCHEM_SHAPE_SELFOVERLAP>
1464.823

> <PUBCHEM_SHAPE_VOLUME>
369.6

> <PUBCHEM_COORDINATE_TYPE>
2
5
10

$$$$
