45783811
  -OEChem-12032416263D

 51 54  0     1  0  0  0  0  0999 V2000
   -1.7182   -1.5960    2.0330 O   0  0  0  0  0  0  0  0  0  0  0  0
    1.3190    4.1035    1.3190 O   0  5  0  0  0  0  0  0  0  0  0  0
    1.9021    3.5389   -0.7208 O   0  0  0  0  0  0  0  0  0  0  0  0
   -3.7819   -0.5006   -0.8036 N   0  0  1  0  0  0  0  0  0  0  0  0
   -0.9862   -1.2285   -0.0516 N   0  0  0  0  0  0  0  0  0  0  0  0
   -0.3195   -1.5901    2.1068 N   0  0  0  0  0  0  0  0  0  0  0  0
    1.0761    3.5413    0.2238 N   0  3  0  0  0  0  0  0  0  0  0  0
    3.7524   -1.3511    1.0228 N   0  0  0  0  0  0  0  0  0  0  0  0
    5.4005   -1.0421   -0.6695 N   0  0  0  0  0  0  0  0  0  0  0  0
   -3.5006   -1.3358    0.3813 C   0  0  1  0  0  0  0  0  0  0  0  0
   -4.0661   -2.7230    0.0251 C   0  0  0  0  0  0  0  0  0  0  0  0
   -4.6977   -2.5542   -1.3494 C   0  0  0  0  0  0  0  0  0  0  0  0
   -4.9742   -1.0668   -1.4347 C   0  0  0  0  0  0  0  0  0  0  0  0
   -3.9485    0.9115   -0.4846 C   0  0  0  0  0  0  0  0  0  0  0  0
   -2.0272   -1.3766    0.7282 C   0  0  0  0  0  0  0  0  0  0  0  0
   -2.6248    1.6040   -0.2974 C   0  0  0  0  0  0  0  0  0  0  0  0
   -2.3320    2.2353    0.9116 C   0  0  0  0  0  0  0  0  0  0  0  0
   -1.6910    1.6142   -1.3335 C   0  0  0  0  0  0  0  0  0  0  0  0
    0.0385   -1.3675    0.8387 C   0  0  0  0  0  0  0  0  0  0  0  0
   -1.1058    2.8770    1.0842 C   0  0  0  0  0  0  0  0  0  0  0  0
   -0.4646    2.2560   -1.1609 C   0  0  0  0  0  0  0  0  0  0  0  0
    1.4102   -1.2800    0.4281 C   0  0  0  0  0  0  0  0  0  0  0  0
   -0.1721    2.8875    0.0479 C   0  0  0  0  0  0  0  0  0  0  0  0
    1.7470   -1.0488   -0.9009 C   0  0  0  0  0  0  0  0  0  0  0  0
    2.4409   -1.4228    1.3431 C   0  0  0  0  0  0  0  0  0  0  0  0
    3.0855   -0.9686   -1.2693 C   0  0  0  0  0  0  0  0  0  0  0  0
    4.0413   -1.1253   -0.2784 C   0  0  0  0  0  0  0  0  0  0  0  0
    6.4508   -1.1885    0.3140 C   0  0  0  0  0  0  0  0  0  0  0  0
    5.7461   -0.8027   -2.0531 C   0  0  0  0  0  0  0  0  0  0  0  0
   -4.0529   -0.9671    1.2572 H   0  0  0  0  0  0  0  0  0  0  0  0
   -4.8386   -3.0037    0.7515 H   0  0  0  0  0  0  0  0  0  0  0  0
   -3.3127   -3.5181    0.0121 H   0  0  0  0  0  0  0  0  0  0  0  0
   -5.6033   -3.1569   -1.4655 H   0  0  0  0  0  0  0  0  0  0  0  0
   -3.9848   -2.8562   -2.1267 H   0  0  0  0  0  0  0  0  0  0  0  0
   -5.0875   -0.7377   -2.4722 H   0  0  0  0  0  0  0  0  0  0  0  0
   -5.8868   -0.8169   -0.8787 H   0  0  0  0  0  0  0  0  0  0  0  0
   -4.4444    1.4264   -1.3196 H   0  0  0  0  0  0  0  0  0  0  0  0
   -4.6061    1.0577    0.3824 H   0  0  0  0  0  0  0  0  0  0  0  0
   -3.0494    2.2331    1.7278 H   0  0  0  0  0  0  0  0  0  0  0  0
   -1.9064    1.1303   -2.2826 H   0  0  0  0  0  0  0  0  0  0  0  0
   -0.9118    3.3575    2.0398 H   0  0  0  0  0  0  0  0  0  0  0  0
    0.2387    2.2433   -1.9896 H   0  0  0  0  0  0  0  0  0  0  0  0
    0.9878   -0.9270   -1.6693 H   0  0  0  0  0  0  0  0  0  0  0  0
    2.2631   -1.6048    2.3988 H   0  0  0  0  0  0  0  0  0  0  0  0
    3.3038   -0.7869   -2.3145 H   0  0  0  0  0  0  0  0  0  0  0  0
    6.3728   -0.4117    1.0825 H   0  0  0  0  0  0  0  0  0  0  0  0
    6.3942   -2.1695    0.7985 H   0  0  0  0  0  0  0  0  0  0  0  0
    7.4479   -1.1048   -0.1314 H   0  0  0  0  0  0  0  0  0  0  0  0
    5.3812   -1.6062   -2.7029 H   0  0  0  0  0  0  0  0  0  0  0  0
    5.3624    0.1631   -2.4012 H   0  0  0  0  0  0  0  0  0  0  0  0
    6.8326   -0.7674   -2.1938 H   0  0  0  0  0  0  0  0  0  0  0  0
  1  6  1  0  0  0  0
  1 15  1  0  0  0  0
  2  7  1  0  0  0  0
  3  7  2  0  0  0  0
  4 10  1  0  0  0  0
  4 13  1  0  0  0  0
  4 14  1  0  0  0  0
  5 15  2  0  0  0  0
  5 19  1  0  0  0  0
  6 19  2  0  0  0  0
  7 23  1  0  0  0  0
  8 25  1  0  0  0  0
  8 27  2  0  0  0  0
  9 27  1  0  0  0  0
  9 28  1  0  0  0  0
  9 29  1  0  0  0  0
 10 11  1  0  0  0  0
 10 15  1  0  0  0  0
 10 30  1  0  0  0  0
 11 12  1  0  0  0  0
 11 31  1  0  0  0  0
 11 32  1  0  0  0  0
 12 13  1  0  0  0  0
 12 33  1  0  0  0  0
 12 34  1  0  0  0  0
 13 35  1  0  0  0  0
 13 36  1  0  0  0  0
 14 16  1  0  0  0  0
 14 37  1  0  0  0  0
 14 38  1  0  0  0  0
 16 17  2  0  0  0  0
 16 18  1  0  0  0  0
 17 20  1  0  0  0  0
 17 39  1  0  0  0  0
 18 21  2  0  0  0  0
 18 40  1  0  0  0  0
 19 22  1  0  0  0  0
 20 23  2  0  0  0  0
 20 41  1  0  0  0  0
 21 23  1  0  0  0  0
 21 42  1  0  0  0  0
 22 24  1  0  0  0  0
 22 25  2  0  0  0  0
 24 26  2  0  0  0  0
 24 43  1  0  0  0  0
 25 44  1  0  0  0  0
 26 27  1  0  0  0  0
 26 45  1  0  0  0  0
 28 46  1  0  0  0  0
 28 47  1  0  0  0  0
 28 48  1  0  0  0  0
 29 49  1  0  0  0  0
 29 50  1  0  0  0  0
 29 51  1  0  0  0  0
M  CHG  2   2  -1   7   1
M  END
> <PUBCHEM_COMPOUND_CID>
45783811

> <PUBCHEM_CONFORMER_RMSD>
0.8

> <PUBCHEM_CONFORMER_DIVERSEORDER>
1
55
24
31
47
28
76
52
70
16
75
54
20
9
46
49
53
72
10
69
22
4
30
60
18
5
42
61
40
43
6
12
15
66
33
74
68
65
2
26
38
8
64
56
23
37
73
17
57
13
59
48
14
71
67
41
51
35
32
27
25
63
7
21
45
34
3
29
44
58
36
11
39
62
19
50

> <PUBCHEM_MMFF94_PARTIAL_CHARGES>
34
1 -0.02
10 0.45
13 0.27
14 0.41
15 0.3
16 -0.14
17 -0.15
18 -0.15
19 0.46
2 -0.52
20 -0.15
21 -0.15
22 0.05
23 0.13
24 -0.15
25 0.16
26 -0.15
27 0.41
28 0.37
29 0.37
3 -0.52
39 0.15
4 -0.81
40 0.15
41 0.15
42 0.15
43 0.15
44 0.15
45 0.15
5 -0.57
6 -0.41
7 0.91
8 -0.62
9 -0.84

> <PUBCHEM_EFFECTIVE_ROTOR_COUNT>
7

> <PUBCHEM_PHARMACOPHORE_FEATURES>
10
1 2 acceptor
1 2 anion
1 3 acceptor
1 4 cation
3 5 6 19 cation
3 8 9 27 cation
5 1 5 6 15 19 rings
5 4 10 11 12 13 rings
6 16 17 18 20 21 23 rings
6 8 22 24 25 26 27 rings

> <PUBCHEM_HEAVY_ATOM_COUNT>
29

> <PUBCHEM_ATOM_DEF_STEREO_COUNT>
1

> <PUBCHEM_ATOM_UDEF_STEREO_COUNT>
0

> <PUBCHEM_BOND_DEF_STEREO_COUNT>
0

> <PUBCHEM_BOND_UDEF_STEREO_COUNT>
0

> <PUBCHEM_ISOTOPIC_ATOM_COUNT>
0

> <PUBCHEM_COMPONENT_COUNT>
1

> <PUBCHEM_CACTVS_TAUTO_COUNT>
1

> <PUBCHEM_CONFORMER_ID>
02BA9B0300000001

> <PUBCHEM_MMFF94_ENERGY>
79.1869

> <PUBCHEM_FEATURE_SELFOVERLAP>
50.828

> <PUBCHEM_SHAPE_FINGERPRINT>
1100329 8 18411137996748362985
12156800 1 15433923287155656092
12166972 35 17749113321973711422
12788726 201 18190460459032739024
13009979 54 17536848019670593219
13761468 95 17683818605183589614
14787075 74 18261111855272007372
14790565 3 17691120440535405457
14910302 57 17916303827453942958
16090146 7 17917999361443680123
17492 54 18042113277056978429
17818456 19 17831000352548890482
19319366 153 17606961681893362379
20642791 239 18187916236983044245
20642791 35 18335687344323649301
20691752 17 17459172114946679901
20775438 99 17619888991862272847
20905425 154 18194119853263906989
21344244 246 17908694382571958663
21623110 236 18335995228569414548
23402539 116 18409166597478597774
23419403 2 18045470210141190717
23557571 272 18272087154175316791
23559900 14 18340193189723036913
238918 7 17544470216209530784
3298306 158 17832984227886006693
392239 28 18410013191994747544
4017518 198 17262712687161372144
4280585 95 18337659867286937636
5171179 24 18341606070401625721
531348 171 18127137364240089798
7471813 234 18339923822064000646

> <PUBCHEM_SHAPE_MULTIPOLES>
549.31
10.88
4.34
1.68
11.91
5.19
0.09
-8.74
-4.63
-1.7
0.71
0.33
-0.39
-0.35

> <PUBCHEM_SHAPE_SELFOVERLAP>
1189.731

> <PUBCHEM_SHAPE_VOLUME>
303.2

> <PUBCHEM_COORDINATE_TYPE>
2
5
10

$$$$
