40777252
  -OEChem-12032416173D

 64 67  0     1  0  0  0  0  0999 V2000
    3.1561    2.7431    1.1494 Br  0  0  0  0  0  0  0  0  0  0  0  0
   -5.3563    0.4179    1.7427 O   0  0  0  0  0  0  0  0  0  0  0  0
   -1.4538   -1.9747    1.8171 N   0  0  2  0  0  0  0  0  0  0  0  0
   -3.4935    0.8636    0.4334 N   0  0  0  0  0  0  0  0  0  0  0  0
    1.0915   -0.7657   -1.7720 N   0  0  0  0  0  0  0  0  0  0  0  0
    3.1386    0.5057   -1.7852 N   0  0  0  0  0  0  0  0  0  0  0  0
   -0.8516   -2.5503   -0.6506 C   0  0  2  0  0  0  0  0  0  0  0  0
    0.4222   -2.1387    0.1383 C   0  0  2  0  0  0  0  0  0  0  0  0
   -2.3604   -1.2477    0.8898 C   0  0  2  0  0  0  0  0  0  0  0  0
   -1.8905   -1.4117   -0.5716 C   0  0  0  0  0  0  0  0  0  0  0  0
   -1.4556   -3.7671    0.0828 C   0  0  0  0  0  0  0  0  0  0  0  0
   -0.0415   -1.6199    1.5294 C   0  0  0  0  0  0  0  0  0  0  0  0
   -1.6247   -3.4272    1.5740 C   0  0  0  0  0  0  0  0  0  0  0  0
   -2.5280    0.2241    1.2731 C   0  0  0  0  0  0  0  0  0  0  0  0
    1.4078   -1.1920   -0.5317 C   0  0  0  0  0  0  0  0  0  0  0  0
    2.5554   -0.8190    0.1378 C   0  0  0  0  0  0  0  0  0  0  0  0
   -4.8543    0.9130    0.7357 C   0  0  0  0  0  0  0  0  0  0  0  0
    3.3923    0.0403   -0.5445 C   0  0  0  0  0  0  0  0  0  0  0  0
    1.9881    0.0689   -2.3318 C   0  0  0  0  0  0  0  0  0  0  0  0
   -5.6783    1.6401   -0.3317 C   0  0  0  0  0  0  0  0  0  0  0  0
   -5.5893    0.9507   -1.7044 C   0  0  0  0  0  0  0  0  0  0  0  0
   -5.2639    3.1240   -0.4031 C   0  0  0  0  0  0  0  0  0  0  0  0
    4.6254    0.5045    0.0450 C   0  0  0  0  0  0  0  0  0  0  0  0
    1.6740    0.5603   -3.7043 C   0  0  0  0  0  0  0  0  0  0  0  0
   -6.0525   -0.5008   -1.6570 C   0  0  0  0  0  0  0  0  0  0  0  0
   -5.3727    3.8803    0.9151 C   0  0  0  0  0  0  0  0  0  0  0  0
    4.6867    1.6675    0.8124 C   0  0  0  0  0  0  0  0  0  0  0  0
    5.7787   -0.2493   -0.1726 C   0  0  0  0  0  0  0  0  0  0  0  0
    5.9015    2.0769    1.3624 C   0  0  0  0  0  0  0  0  0  0  0  0
    6.9935    0.1601    0.3773 C   0  0  0  0  0  0  0  0  0  0  0  0
    7.0549    1.3232    1.1449 C   0  0  0  0  0  0  0  0  0  0  0  0
   -0.6263   -2.8047   -1.6916 H   0  0  0  0  0  0  0  0  0  0  0  0
    0.9977   -3.0636    0.3001 H   0  0  0  0  0  0  0  0  0  0  0  0
   -3.3582   -1.7033    0.9764 H   0  0  0  0  0  0  0  0  0  0  0  0
   -1.4570   -0.4855   -0.9646 H   0  0  0  0  0  0  0  0  0  0  0  0
   -2.7513   -1.6558   -1.2063 H   0  0  0  0  0  0  0  0  0  0  0  0
   -0.8051   -4.6425   -0.0278 H   0  0  0  0  0  0  0  0  0  0  0  0
   -2.4256   -4.0250   -0.3594 H   0  0  0  0  0  0  0  0  0  0  0  0
    0.5980   -2.0574    2.3079 H   0  0  0  0  0  0  0  0  0  0  0  0
    0.0974   -0.5371    1.6284 H   0  0  0  0  0  0  0  0  0  0  0  0
   -2.6139   -3.7513    1.9201 H   0  0  0  0  0  0  0  0  0  0  0  0
   -0.9029   -3.9925    2.1772 H   0  0  0  0  0  0  0  0  0  0  0  0
   -1.5951    0.7858    1.1626 H   0  0  0  0  0  0  0  0  0  0  0  0
   -2.8485    0.3106    2.3179 H   0  0  0  0  0  0  0  0  0  0  0  0
   -3.1560    1.2949   -0.4211 H   0  0  0  0  0  0  0  0  0  0  0  0
    2.7877   -1.1822    1.1319 H   0  0  0  0  0  0  0  0  0  0  0  0
   -6.7244    1.5998    0.0020 H   0  0  0  0  0  0  0  0  0  0  0  0
   -6.2188    1.4944   -2.4194 H   0  0  0  0  0  0  0  0  0  0  0  0
   -4.5669    0.9854   -2.0977 H   0  0  0  0  0  0  0  0  0  0  0  0
   -4.2376    3.2199   -0.7772 H   0  0  0  0  0  0  0  0  0  0  0  0
   -5.9043    3.6282   -1.1378 H   0  0  0  0  0  0  0  0  0  0  0  0
    2.1655   -0.0762   -4.4459 H   0  0  0  0  0  0  0  0  0  0  0  0
    0.5951    0.5435   -3.8881 H   0  0  0  0  0  0  0  0  0  0  0  0
    2.0244    1.5889   -3.8356 H   0  0  0  0  0  0  0  0  0  0  0  0
   -6.0419   -0.9299   -2.6641 H   0  0  0  0  0  0  0  0  0  0  0  0
   -7.0736   -0.5741   -1.2694 H   0  0  0  0  0  0  0  0  0  0  0  0
   -5.3991   -1.1134   -1.0288 H   0  0  0  0  0  0  0  0  0  0  0  0
   -6.3858    3.8089    1.3230 H   0  0  0  0  0  0  0  0  0  0  0  0
   -4.6716    3.4925    1.6602 H   0  0  0  0  0  0  0  0  0  0  0  0
   -5.1428    4.9395    0.7611 H   0  0  0  0  0  0  0  0  0  0  0  0
    5.7513   -1.1587   -0.7686 H   0  0  0  0  0  0  0  0  0  0  0  0
    5.9703    2.9802    1.9634 H   0  0  0  0  0  0  0  0  0  0  0  0
    7.8916   -0.4266    0.2080 H   0  0  0  0  0  0  0  0  0  0  0  0
    8.0009    1.6418    1.5730 H   0  0  0  0  0  0  0  0  0  0  0  0
  1 27  1  0  0  0  0
  2 17  2  0  0  0  0
  3  9  1  0  0  0  0
  3 12  1  0  0  0  0
  3 13  1  0  0  0  0
  4 14  1  0  0  0  0
  4 17  1  0  0  0  0
  4 45  1  0  0  0  0
  5 15  2  0  0  0  0
  5 19  1  0  0  0  0
  6 18  1  0  0  0  0
  6 19  2  0  0  0  0
  7  8  1  0  0  0  0
  7 10  1  0  0  0  0
  7 11  1  0  0  0  0
  7 32  1  0  0  0  0
  8 12  1  0  0  0  0
  8 15  1  0  0  0  0
  8 33  1  0  0  0  0
  9 10  1  0  0  0  0
  9 14  1  0  0  0  0
  9 34  1  0  0  0  0
 10 35  1  0  0  0  0
 10 36  1  0  0  0  0
 11 13  1  0  0  0  0
 11 37  1  0  0  0  0
 11 38  1  0  0  0  0
 12 39  1  0  0  0  0
 12 40  1  0  0  0  0
 13 41  1  0  0  0  0
 13 42  1  0  0  0  0
 14 43  1  0  0  0  0
 14 44  1  0  0  0  0
 15 16  1  0  0  0  0
 16 18  2  0  0  0  0
 16 46  1  0  0  0  0
 17 20  1  0  0  0  0
 18 23  1  0  0  0  0
 19 24  1  0  0  0  0
 20 21  1  0  0  0  0
 20 22  1  0  0  0  0
 20 47  1  0  0  0  0
 21 25  1  0  0  0  0
 21 48  1  0  0  0  0
 21 49  1  0  0  0  0
 22 26  1  0  0  0  0
 22 50  1  0  0  0  0
 22 51  1  0  0  0  0
 23 27  1  0  0  0  0
 23 28  2  0  0  0  0
 24 52  1  0  0  0  0
 24 53  1  0  0  0  0
 24 54  1  0  0  0  0
 25 55  1  0  0  0  0
 25 56  1  0  0  0  0
 25 57  1  0  0  0  0
 26 58  1  0  0  0  0
 26 59  1  0  0  0  0
 26 60  1  0  0  0  0
 27 29  2  0  0  0  0
 28 30  1  0  0  0  0
 28 61  1  0  0  0  0
 29 31  1  0  0  0  0
 29 62  1  0  0  0  0
 30 31  2  0  0  0  0
 30 63  1  0  0  0  0
 31 64  1  0  0  0  0
M  END
> <PUBCHEM_COMPOUND_CID>
40777252

> <PUBCHEM_CONFORMER_RMSD>
1.2

> <PUBCHEM_CONFORMER_DIVERSEORDER>
1
54
70
50
103
76
96
110
62
39
109
72
100
94
98
101
40
82
83
35
105
57
108
95
91
114
16
34
112
49
86
93
107
79
99
92
97
64
21
78
24
77
17
44
67
106
31
73
46
65
88
47
69
89
113
102
19
23
111
61
80
45
104
43
90
74
58
9
11
55
63
29
52
84
41
68
66
81
20
7
85
59
115
51
25
8
30
26
87
48
42
32
36
13
60
71
37
10
33
14
75
5
27
12
2
18
38
53
4
3
28
6
15
56
22

> <PUBCHEM_MMFF94_PARTIAL_CHARGES>
29
1 -0.11
12 0.27
13 0.27
14 0.3
15 0.17
16 -0.15
17 0.57
18 0.31
19 0.48
2 -0.57
20 0.06
24 0.14
27 0.11
28 -0.15
29 -0.15
3 -0.81
30 -0.15
31 -0.15
4 -0.73
45 0.37
46 0.15
5 -0.62
6 -0.62
61 0.15
62 0.15
63 0.15
64 0.15
8 0.14
9 0.27

> <PUBCHEM_EFFECTIVE_ROTOR_COUNT>
9.2

> <PUBCHEM_PHARMACOPHORE_FEATURES>
11
1 1 hydrophobe
1 2 acceptor
1 25 hydrophobe
1 26 hydrophobe
1 3 cation
1 4 donor
1 5 acceptor
3 5 6 19 cation
6 23 27 28 29 30 31 rings
6 5 6 15 16 18 19 rings
8 3 7 8 9 10 11 12 13 rings

> <PUBCHEM_HEAVY_ATOM_COUNT>
31

> <PUBCHEM_ATOM_DEF_STEREO_COUNT>
3

> <PUBCHEM_ATOM_UDEF_STEREO_COUNT>
0

> <PUBCHEM_BOND_DEF_STEREO_COUNT>
0

> <PUBCHEM_BOND_UDEF_STEREO_COUNT>
0

> <PUBCHEM_ISOTOPIC_ATOM_COUNT>
0

> <PUBCHEM_COMPONENT_COUNT>
1

> <PUBCHEM_CACTVS_TAUTO_COUNT>
2

> <PUBCHEM_CONFORMER_ID>
026E362400000001

> <PUBCHEM_MMFF94_ENERGY>
78.7832

> <PUBCHEM_FEATURE_SELFOVERLAP>
55.82

> <PUBCHEM_SHAPE_FINGERPRINT>
10042902 136 9367052372830637153
10764073 3 18410006608020535276
11069576 57 14547908174420337628
11135609 201 18339648833310762289
11370993 144 18409726296948514090
11720765 8 17266674854257127631
11763715 3 17327189148182607662
12107183 9 17894349986730659042
12403259 118 17603598438869234907
12422481 6 17240481356114576797
12633257 1 15864361267259528179
13103583 49 15864077597760082346
13383661 66 9583227388038051261
13402501 40 18343582936727201304
13540713 5 16952268744053635822
13583140 156 17916026944488179354
13631057 29 11240001135734247462
13726171 33 17703231699160102913
13911987 19 15697725929969558360
13914758 101 18272645749696590166
14251764 30 8502365637842423553
14767858 380 14333407865545635820
14932701 244 18201998880911586085
14950920 106 15502954024635265273
14951699 99 18189060961768852204
15238133 3 18187656816573429260
15669420 48 17489295430807420069
19246450 95 16515949381325333473
19438510 23 18337113346253577601
20567600 254 18260821579938857965
21033648 29 18261401013576087961
21304303 282 18338790217340088423
21403212 168 17313092043256480999
21859007 373 18261675848918156438
22122407 14 18058161920459020808
2838139 119 18343861108620281745
312425 83 16557362422793517265
3459 39 18260543420355516777
4144715 1 18193280908949662090
4366758 6 17894899716964868343
6009941 240 18335980965594233880
6371009 1 18040719195139521565
6371380 46 18337399228094223278
7970288 3 8862649205828001481
9981440 41 18409737282773907059

> <PUBCHEM_SHAPE_MULTIPOLES>
618.11
16.95
3.88
2.28
4.49
0.01
1.89
-15.63
-1.92
-4.65
-1.77
-0.05
0.03
1.31

> <PUBCHEM_SHAPE_SELFOVERLAP>
1295.43

> <PUBCHEM_SHAPE_VOLUME>
358.8

> <PUBCHEM_COORDINATE_TYPE>
2
5
10

$$$$
