71693633
  -OEChem-12032416233D

 51 53  0     1  0  0  0  0  0999 V2000
    4.4566   -1.6187    0.0627 O   0  0  0  0  0  0  0  0  0  0  0  0
    4.6974    2.3730    1.1477 O   0  0  0  0  0  0  0  0  0  0  0  0
    7.9727   -1.0666   -0.0965 O   0  0  0  0  0  0  0  0  0  0  0  0
   -2.5228    0.1575    1.6435 O   0  0  0  0  0  0  0  0  0  0  0  0
    6.2368    0.4483   -0.4501 N   0  0  0  0  0  0  0  0  0  0  0  0
   -1.6402   -0.2761   -0.4962 N   0  0  0  0  0  0  0  0  0  0  0  0
    4.7751    0.6844   -0.5406 C   0  0  1  0  0  0  0  0  0  0  0  0
    3.9955   -0.2987    0.3540 C   0  0  1  0  0  0  0  0  0  0  0  0
    2.4980   -0.2922    0.1277 C   0  0  0  0  0  0  0  0  0  0  0  0
    4.3923    2.1344   -0.2110 C   0  0  0  0  0  0  0  0  0  0  0  0
    5.7867   -1.7897    0.4895 C   0  0  0  0  0  0  0  0  0  0  0  0
    6.7734   -0.7822   -0.0661 C   0  0  0  0  0  0  0  0  0  0  0  0
    7.1320    1.4570   -1.0105 C   0  0  0  0  0  0  0  0  0  0  0  0
    1.9837   -0.5318   -1.1466 C   0  0  0  0  0  0  0  0  0  0  0  0
    1.6330   -0.0469    1.1941 C   0  0  0  0  0  0  0  0  0  0  0  0
    0.6044   -0.5264   -1.3543 C   0  0  0  0  0  0  0  0  0  0  0  0
    0.2537   -0.0414    0.9864 C   0  0  0  0  0  0  0  0  0  0  0  0
   -0.2605   -0.2812   -0.2879 C   0  0  0  0  0  0  0  0  0  0  0  0
   -4.0452   -0.1289   -0.1751 C   0  0  0  0  0  0  0  0  0  0  0  0
   -2.6570   -0.0520    0.4411 C   0  0  0  0  0  0  0  0  0  0  0  0
   -5.1391    0.1187    0.8653 C   0  0  0  0  0  0  0  0  0  0  0  0
   -6.5328    0.0885    0.2879 C   0  0  0  0  0  0  0  0  0  0  0  0
   -7.1138    1.2609   -0.1952 C   0  0  0  0  0  0  0  0  0  0  0  0
   -7.2402   -1.1126    0.2369 C   0  0  0  0  0  0  0  0  0  0  0  0
   -8.4020    1.2325   -0.7292 C   0  0  0  0  0  0  0  0  0  0  0  0
   -8.5283   -1.1413   -0.2974 C   0  0  0  0  0  0  0  0  0  0  0  0
   -9.1093    0.0313   -0.7803 C   0  0  0  0  0  0  0  0  0  0  0  0
    4.5435    0.4973   -1.5966 H   0  0  0  0  0  0  0  0  0  0  0  0
    4.1980   -0.0979    1.4152 H   0  0  0  0  0  0  0  0  0  0  0  0
    3.3219    2.3057   -0.3635 H   0  0  0  0  0  0  0  0  0  0  0  0
    4.9277    2.8584   -0.8320 H   0  0  0  0  0  0  0  0  0  0  0  0
    6.1071   -2.7870    0.1708 H   0  0  0  0  0  0  0  0  0  0  0  0
    5.8345   -1.7579    1.5842 H   0  0  0  0  0  0  0  0  0  0  0  0
    6.7977    1.7080   -2.0214 H   0  0  0  0  0  0  0  0  0  0  0  0
    8.1629    1.0974   -1.0653 H   0  0  0  0  0  0  0  0  0  0  0  0
    7.1160    2.3461   -0.3749 H   0  0  0  0  0  0  0  0  0  0  0  0
    2.6389   -0.7367   -1.9885 H   0  0  0  0  0  0  0  0  0  0  0  0
    2.0200    0.1426    2.1919 H   0  0  0  0  0  0  0  0  0  0  0  0
    0.2173   -0.7174   -2.3521 H   0  0  0  0  0  0  0  0  0  0  0  0
   -0.3514    0.1583    1.8596 H   0  0  0  0  0  0  0  0  0  0  0  0
    4.4400    3.2898    1.3438 H   0  0  0  0  0  0  0  0  0  0  0  0
   -1.9359   -0.4543   -1.4537 H   0  0  0  0  0  0  0  0  0  0  0  0
   -4.1066    0.6162   -0.9776 H   0  0  0  0  0  0  0  0  0  0  0  0
   -4.1685   -1.1191   -0.6298 H   0  0  0  0  0  0  0  0  0  0  0  0
   -4.9782    1.0878    1.3567 H   0  0  0  0  0  0  0  0  0  0  0  0
   -5.0673   -0.6260    1.6695 H   0  0  0  0  0  0  0  0  0  0  0  0
   -6.5718    2.2024   -0.1627 H   0  0  0  0  0  0  0  0  0  0  0  0
   -6.7974   -2.0330    0.6083 H   0  0  0  0  0  0  0  0  0  0  0  0
   -8.8542    2.1453   -1.1058 H   0  0  0  0  0  0  0  0  0  0  0  0
   -9.0789   -2.0766   -0.3377 H   0  0  0  0  0  0  0  0  0  0  0  0
  -10.1122    0.0090   -1.1964 H   0  0  0  0  0  0  0  0  0  0  0  0
  1  8  1  0  0  0  0
  1 11  1  0  0  0  0
  2 10  1  0  0  0  0
  2 41  1  0  0  0  0
  3 12  2  0  0  0  0
  4 20  2  0  0  0  0
  5  7  1  0  0  0  0
  5 12  1  0  0  0  0
  5 13  1  0  0  0  0
  6 18  1  0  0  0  0
  6 20  1  0  0  0  0
  6 42  1  0  0  0  0
  7  8  1  0  0  0  0
  7 10  1  0  0  0  0
  7 28  1  0  0  0  0
  8  9  1  0  0  0  0
  8 29  1  0  0  0  0
  9 14  2  0  0  0  0
  9 15  1  0  0  0  0
 10 30  1  0  0  0  0
 10 31  1  0  0  0  0
 11 12  1  0  0  0  0
 11 32  1  0  0  0  0
 11 33  1  0  0  0  0
 13 34  1  0  0  0  0
 13 35  1  0  0  0  0
 13 36  1  0  0  0  0
 14 16  1  0  0  0  0
 14 37  1  0  0  0  0
 15 17  2  0  0  0  0
 15 38  1  0  0  0  0
 16 18  2  0  0  0  0
 16 39  1  0  0  0  0
 17 18  1  0  0  0  0
 17 40  1  0  0  0  0
 19 20  1  0  0  0  0
 19 21  1  0  0  0  0
 19 43  1  0  0  0  0
 19 44  1  0  0  0  0
 21 22  1  0  0  0  0
 21 45  1  0  0  0  0
 21 46  1  0  0  0  0
 22 23  2  0  0  0  0
 22 24  1  0  0  0  0
 23 25  1  0  0  0  0
 23 47  1  0  0  0  0
 24 26  2  0  0  0  0
 24 48  1  0  0  0  0
 25 27  2  0  0  0  0
 25 49  1  0  0  0  0
 26 27  1  0  0  0  0
 26 50  1  0  0  0  0
 27 51  1  0  0  0  0
M  END
> <PUBCHEM_COMPOUND_CID>
71693633

> <PUBCHEM_CONFORMER_RMSD>
1

> <PUBCHEM_CONFORMER_DIVERSEORDER>
1
30
24
11
10
40
29
34
55
45
8
23
51
46
41
57
9
53
25
49
52
7
47
21
16
12
17
43
56
19
50
35
6
33
20
32
31
15
22
42
44
27
5
36
58
38
4
37
28
14
2
48
26
18
3
13
39
54

> <PUBCHEM_MMFF94_PARTIAL_CHARGES>
38
1 -0.56
10 0.28
11 0.34
12 0.57
13 0.3
14 -0.15
15 -0.15
16 -0.15
17 -0.15
18 0.12
19 0.06
2 -0.68
20 0.57
21 0.14
22 -0.14
23 -0.15
24 -0.15
25 -0.15
26 -0.15
27 -0.15
3 -0.57
37 0.15
38 0.15
39 0.15
4 -0.57
40 0.15
41 0.4
42 0.37
47 0.15
48 0.15
49 0.15
5 -0.66
50 0.15
51 0.15
6 -0.55
7 0.3
8 0.42
9 -0.14

> <PUBCHEM_EFFECTIVE_ROTOR_COUNT>
8

> <PUBCHEM_PHARMACOPHORE_FEATURES>
9
1 1 acceptor
1 2 acceptor
1 2 donor
1 3 acceptor
1 4 acceptor
1 6 donor
6 1 5 7 8 11 12 rings
6 22 23 24 25 26 27 rings
6 9 14 15 16 17 18 rings

> <PUBCHEM_HEAVY_ATOM_COUNT>
27

> <PUBCHEM_ATOM_DEF_STEREO_COUNT>
2

> <PUBCHEM_ATOM_UDEF_STEREO_COUNT>
0

> <PUBCHEM_BOND_DEF_STEREO_COUNT>
0

> <PUBCHEM_BOND_UDEF_STEREO_COUNT>
0

> <PUBCHEM_ISOTOPIC_ATOM_COUNT>
0

> <PUBCHEM_COMPONENT_COUNT>
1

> <PUBCHEM_CACTVS_TAUTO_COUNT>
6

> <PUBCHEM_CONFORMER_ID>
0445F54100000001

> <PUBCHEM_MMFF94_ENERGY>
77.49

> <PUBCHEM_FEATURE_SELFOVERLAP>
45.673

> <PUBCHEM_SHAPE_FINGERPRINT>
10162869 55 18271800241854171702
10299344 5 18342738516265641847
11135926 11 16128655229011027117
11315181 36 18408325485249528601
11719270 70 17775284941399615367
11991303 11 17703783773813304375
12082328 90 18408319974590236127
12522641 24 17313373523171757568
12664476 115 17676485051858533692
12741549 16 17748821909582498772
13533116 47 17458616770599612435
13885169 127 18113899339162515287
14118638 360 16414924041769013911
14123256 10 16415760821535805863
14251764 18 17775288253045727211
14251764 46 16370727023684184015
14933364 13 18334012791992775853
15131766 46 18051689146788026780
15183329 4 17632863022984445289
15301273 46 16877944931727186259
15419008 47 17240475919092734405
15461852 350 18335703871452918791
15510794 2 18260833709712966363
15840311 113 18186804711846464932
15849732 13 18040155124020482575
16120349 18 18334294288238601420
16728433 110 17561357404889271721
18335252 114 18272369784883533748
20771845 171 18059307495980098182
21150785 3 18201720661404183805
21267235 1 15267346228044719163
21315763 28 18412262831334075721
21781051 124 17203050789034085319
21792961 116 17561090184993418343
22224240 67 16950281823288553075
249057 3 17561080336517214796
335352 9 16487253287750191948
3633792 109 18114182995471098075
4073 2 17749115538029338235
4325135 7 17775567537705090149
4625314 4 18412826902347710583
5758199 1 16587740928694659289
67123 10 18333450950409909807

> <PUBCHEM_SHAPE_MULTIPOLES>
522.21
29.52
1.56
1.1
36.81
0.51
-0.1
1.26
4.87
-2.16
-0.06
-0.07
0.11
0.06

> <PUBCHEM_SHAPE_SELFOVERLAP>
1105.405

> <PUBCHEM_SHAPE_VOLUME>
289.8

> <PUBCHEM_COORDINATE_TYPE>
2
5
10

$$$$
