75536610
  -OEChem-12032416303D

 43 45  0     1  0  0  0  0  0999 V2000
    6.9341   -0.7521    0.7900 S   0  0  0  0  0  0  0  0  0  0  0  0
   -4.5604    2.0852   -0.6400 F   0  0  0  0  0  0  0  0  0  0  0  0
    0.8681    0.9148    0.0910 O   0  0  0  0  0  0  0  0  0  0  0  0
   -0.2375   -2.4642   -0.4244 O   0  0  0  0  0  0  0  0  0  0  0  0
    4.3551   -1.8805   -0.0914 O   0  0  0  0  0  0  0  0  0  0  0  0
   -2.5379   -0.3486   -0.0949 N   0  0  0  0  0  0  0  0  0  0  0  0
    3.4055    0.0529   -0.9533 N   0  0  0  0  0  0  0  0  0  0  0  0
   -1.1452   -0.3242    0.3218 C   0  0  1  0  0  0  0  0  0  0  0  0
   -0.2144   -1.0637   -0.6213 C   0  0  1  0  0  0  0  0  0  0  0  0
    1.1301   -0.4590   -0.2404 C   0  0  1  0  0  0  0  0  0  0  0  0
   -0.5460    1.0725    0.3018 C   0  0  0  0  0  0  0  0  0  0  0  0
    2.1584   -0.5310   -1.3552 C   0  0  0  0  0  0  0  0  0  0  0  0
   -3.4180    0.0695    0.9898 C   0  0  0  0  0  0  0  0  0  0  0  0
   -4.8641    0.0663    0.5712 C   0  0  0  0  0  0  0  0  0  0  0  0
    4.4193   -0.6804   -0.3443 C   0  0  0  0  0  0  0  0  0  0  0  0
   -5.3622    1.0912   -0.2331 C   0  0  0  0  0  0  0  0  0  0  0  0
   -5.7063   -0.9640    0.9892 C   0  0  0  0  0  0  0  0  0  0  0  0
    5.6397    0.0769    0.0354 C   0  0  0  0  0  0  0  0  0  0  0  0
   -6.7024    1.0858   -0.6196 C   0  0  0  0  0  0  0  0  0  0  0  0
   -7.0466   -0.9695    0.6027 C   0  0  0  0  0  0  0  0  0  0  0  0
   -7.5447    0.0554   -0.2017 C   0  0  0  0  0  0  0  0  0  0  0  0
    5.9119    1.4169   -0.1324 C   0  0  0  0  0  0  0  0  0  0  0  0
    7.2002    1.7675    0.3649 C   0  0  0  0  0  0  0  0  0  0  0  0
    7.8635    0.6823    0.8940 C   0  0  0  0  0  0  0  0  0  0  0  0
   -1.0400   -0.7698    1.3211 H   0  0  0  0  0  0  0  0  0  0  0  0
   -0.4619   -0.8498   -1.6686 H   0  0  0  0  0  0  0  0  0  0  0  0
    1.5315   -0.9414    0.6607 H   0  0  0  0  0  0  0  0  0  0  0  0
   -0.9302    1.6789   -0.5266 H   0  0  0  0  0  0  0  0  0  0  0  0
   -0.7144    1.6180    1.2353 H   0  0  0  0  0  0  0  0  0  0  0  0
    1.8201    0.0383   -2.2280 H   0  0  0  0  0  0  0  0  0  0  0  0
    2.3247   -1.5694   -1.6613 H   0  0  0  0  0  0  0  0  0  0  0  0
   -2.7855   -1.2986   -0.3731 H   0  0  0  0  0  0  0  0  0  0  0  0
   -3.1660    1.0823    1.3294 H   0  0  0  0  0  0  0  0  0  0  0  0
   -3.2901   -0.5871    1.8604 H   0  0  0  0  0  0  0  0  0  0  0  0
   -0.0187   -2.6459    0.5052 H   0  0  0  0  0  0  0  0  0  0  0  0
    3.5230    1.0467   -1.1188 H   0  0  0  0  0  0  0  0  0  0  0  0
   -5.3318   -1.7703    1.6142 H   0  0  0  0  0  0  0  0  0  0  0  0
   -7.0899    1.8838   -1.2460 H   0  0  0  0  0  0  0  0  0  0  0  0
   -7.7023   -1.7720    0.9276 H   0  0  0  0  0  0  0  0  0  0  0  0
   -8.5882    0.0511   -0.5028 H   0  0  0  0  0  0  0  0  0  0  0  0
    5.2384    2.1321   -0.5859 H   0  0  0  0  0  0  0  0  0  0  0  0
    7.6193    2.7649    0.3363 H   0  0  0  0  0  0  0  0  0  0  0  0
    8.8494    0.6632    1.3367 H   0  0  0  0  0  0  0  0  0  0  0  0
  1 18  1  0  0  0  0
  1 24  1  0  0  0  0
  2 16  1  0  0  0  0
  3 10  1  0  0  0  0
  3 11  1  0  0  0  0
  4  9  1  0  0  0  0
  4 35  1  0  0  0  0
  5 15  2  0  0  0  0
  6  8  1  0  0  0  0
  6 13  1  0  0  0  0
  6 32  1  0  0  0  0
  7 12  1  0  0  0  0
  7 15  1  0  0  0  0
  7 36  1  0  0  0  0
  8  9  1  0  0  0  0
  8 11  1  0  0  0  0
  8 25  1  0  0  0  0
  9 10  1  0  0  0  0
  9 26  1  0  0  0  0
 10 12  1  0  0  0  0
 10 27  1  0  0  0  0
 11 28  1  0  0  0  0
 11 29  1  0  0  0  0
 12 30  1  0  0  0  0
 12 31  1  0  0  0  0
 13 14  1  0  0  0  0
 13 33  1  0  0  0  0
 13 34  1  0  0  0  0
 14 16  1  0  0  0  0
 14 17  2  0  0  0  0
 15 18  1  0  0  0  0
 16 19  2  0  0  0  0
 17 20  1  0  0  0  0
 17 37  1  0  0  0  0
 18 22  2  0  0  0  0
 19 21  1  0  0  0  0
 19 38  1  0  0  0  0
 20 21  2  0  0  0  0
 20 39  1  0  0  0  0
 21 40  1  0  0  0  0
 22 23  1  0  0  0  0
 22 41  1  0  0  0  0
 23 24  2  0  0  0  0
 23 42  1  0  0  0  0
 24 43  1  0  0  0  0
M  END
> <PUBCHEM_COMPOUND_CID>
75536610

> <PUBCHEM_CONFORMER_RMSD>
1

> <PUBCHEM_CONFORMER_DIVERSEORDER>
1
196
71
101
127
92
32
68
121
190
103
77
102
60
128
220
95
106
12
21
208
69
209
199
53
99
86
20
55
115
214
132
59
91
10
144
50
104
40
80
18
215
147
130
207
138
143
100
155
201
96
216
129
184
173
177
94
33
85
202
160
187
219
218
151
150
19
204
149
67
175
212
8
148
169
73
17
66
195
210
123
140
37
107
120
174
167
198
109
35
136
112
166
189
79
192
125
179
62
47
158
63
74
172
9
119
182
57
168
83
191
89
72
70
200
114
164
7
186
24
49
194
124
153
87
27
193
97
34
108
84
65
116
14
131
203
16
93
159
64
52
145
36
61
141
98
154
126
183
188
45
176
118
110
51
22
156
170
134
44
41
46
26
146
105
162
180
56
142
161
122
78
90
163
75
82
76
31
165
88
206
43
111
29
39
213
171
25
113
5
181
48
139
42
178
3
58
38
211
4
30
217
13
185
2
205
221
54
137
117
28
6
197
135
81
23
133
157
152
11
15

> <PUBCHEM_MMFF94_PARTIAL_CHARGES>
34
1 -0.08
10 0.28
11 0.28
12 0.3
13 0.41
14 -0.14
15 0.71
16 0.19
17 -0.15
18 -0.05
19 -0.15
2 -0.19
20 -0.15
21 -0.15
22 -0.15
23 -0.15
24 -0.11
3 -0.56
32 0.36
35 0.4
36 0.37
37 0.15
38 0.15
39 0.15
4 -0.68
40 0.15
41 0.15
42 0.15
43 0.15
5 -0.57
6 -0.9
7 -0.73
8 0.27
9 0.28

> <PUBCHEM_EFFECTIVE_ROTOR_COUNT>
8

> <PUBCHEM_PHARMACOPHORE_FEATURES>
10
1 3 acceptor
1 4 acceptor
1 4 donor
1 5 acceptor
1 6 cation
1 6 donor
1 7 donor
5 1 18 22 23 24 rings
5 3 8 9 10 11 rings
6 14 16 17 19 20 21 rings

> <PUBCHEM_HEAVY_ATOM_COUNT>
24

> <PUBCHEM_ATOM_DEF_STEREO_COUNT>
3

> <PUBCHEM_ATOM_UDEF_STEREO_COUNT>
0

> <PUBCHEM_BOND_DEF_STEREO_COUNT>
0

> <PUBCHEM_BOND_UDEF_STEREO_COUNT>
0

> <PUBCHEM_ISOTOPIC_ATOM_COUNT>
0

> <PUBCHEM_COMPONENT_COUNT>
1

> <PUBCHEM_CACTVS_TAUTO_COUNT>
2

> <PUBCHEM_CONFORMER_ID>
048098E200000001

> <PUBCHEM_MMFF94_ENERGY>
43.4032

> <PUBCHEM_FEATURE_SELFOVERLAP>
50.747

> <PUBCHEM_SHAPE_FINGERPRINT>
10 15 18408886256646988058
10299344 5 12103847856175297981
106641 1 18342177803531187658
10835480 77 18338514136878652949
11315181 36 18131915954154852945
11638347 137 18187365411722209098
11719270 70 18407762525846862186
125118 31 18334297556872718132
12592606 108 11097861804566231097
13533116 47 16845298185964338158
13673619 4 12685087095041145734
13885169 127 17603583015425481565
13914758 101 16732982003080695333
14123256 10 16702020881108285192
14251764 18 17676207987359184694
14849402 71 17703792569463533065
14856354 85 12463566292938957457
15131766 46 17317059253620483388
15183329 4 14923946742971417130
15419008 47 18411695482765451185
15849732 13 18408041822947482876
16090146 7 13757801489664479438
17093844 174 17894349982657237881
19489759 90 17676211260667660961
20157964 124 18131354086137772190
20281389 69 18410292519239643112
21130935 74 18337395937642684275
21150785 3 17131830980038321901
21315763 28 18333168358367110360
21365058 27 15410897366492197869
21521721 280 17917714608151122523
220451 1 14045743694848257397
22224240 67 17775283876463652526
23035841 295 10519987049970292893
23081809 10 16056606400104817063
23559900 14 18334575776870580969
246663 6 11602536516354725544
249057 25 17023197006452909429
28498 318 12396291565295470914
34797466 226 13686297993858045360
4325135 7 14405185066891320817
4340502 62 17822009809546282754
5207 217 16917349242407588871
5470011 282 10519987089368758520
5758199 1 16056884628228579471
59682541 35 18059858406739365427
636775 72 18338797807069623913
6394761 36 13117997799364797957

> <PUBCHEM_SHAPE_MULTIPOLES>
462.91
25.23
1.67
0.97
3.93
0.06
0.01
-5.74
-4.78
0.57
0.15
0.07
0.08
1.07

> <PUBCHEM_SHAPE_SELFOVERLAP>
968.668

> <PUBCHEM_SHAPE_VOLUME>
263.5

> <PUBCHEM_COORDINATE_TYPE>
2
5
10

$$$$
