75368572
  -OEChem-12032416383D

 39 41  0     1  0  0  0  0  0999 V2000
   -1.0384   -2.3976    0.1926 O   0  0  0  0  0  0  0  0  0  0  0  0
    0.7888   -1.0520   -0.3406 N   0  0  0  0  0  0  0  0  0  0  0  0
    3.4179   -0.0514   -0.2878 N   0  0  2  0  0  0  0  0  0  0  0  0
   -1.2344   -0.0448   -0.2009 N   0  0  0  0  0  0  0  0  0  0  0  0
   -3.4391   -0.8279    0.2696 N   0  0  0  0  0  0  0  0  0  0  0  0
    1.0324    0.3008   -0.7750 C   0  0  2  0  0  0  0  0  0  0  0  0
    2.2783    0.8676   -0.0956 C   0  0  0  0  0  0  0  0  0  0  0  0
   -0.2674    1.0215   -0.4379 C   0  0  0  0  0  0  0  0  0  0  0  0
    1.8818   -2.0033   -0.3452 C   0  0  0  0  0  0  0  0  0  0  0  0
    3.1256   -1.3781    0.2907 C   0  0  0  0  0  0  0  0  0  0  0  0
    4.6306    0.5090    0.3077 C   0  0  0  0  0  0  0  0  0  0  0  0
   -0.5695   -1.3020   -0.0864 C   0  0  0  0  0  0  0  0  0  0  0  0
    5.2128    1.5661   -0.6252 C   0  0  0  0  0  0  0  0  0  0  0  0
    4.3216    1.0995    1.6806 C   0  0  0  0  0  0  0  0  0  0  0  0
   -2.6262    0.2093   -0.0325 C   0  0  0  0  0  0  0  0  0  0  0  0
   -3.0610    1.5154   -0.1903 C   0  0  0  0  0  0  0  0  0  0  0  0
   -4.4175    1.7735   -0.0276 C   0  0  0  0  0  0  0  0  0  0  0  0
   -4.7511   -0.5384    0.4201 C   0  0  0  0  0  0  0  0  0  0  0  0
   -5.2853    0.7327    0.2836 C   0  0  0  0  0  0  0  0  0  0  0  0
    1.1724    0.2669   -1.8637 H   0  0  0  0  0  0  0  0  0  0  0  0
    2.4742    1.8561   -0.5242 H   0  0  0  0  0  0  0  0  0  0  0  0
    2.0272    0.9969    0.9642 H   0  0  0  0  0  0  0  0  0  0  0  0
   -0.1861    1.6268    0.4719 H   0  0  0  0  0  0  0  0  0  0  0  0
   -0.5668    1.6506   -1.2824 H   0  0  0  0  0  0  0  0  0  0  0  0
    2.0760   -2.2694   -1.3907 H   0  0  0  0  0  0  0  0  0  0  0  0
    1.5802   -2.9129    0.1838 H   0  0  0  0  0  0  0  0  0  0  0  0
    2.9641   -1.3164    1.3734 H   0  0  0  0  0  0  0  0  0  0  0  0
    3.9701   -2.0577    0.1243 H   0  0  0  0  0  0  0  0  0  0  0  0
    5.3917   -0.2748    0.4145 H   0  0  0  0  0  0  0  0  0  0  0  0
    5.3863    1.1550   -1.6261 H   0  0  0  0  0  0  0  0  0  0  0  0
    6.1800    1.9126   -0.2432 H   0  0  0  0  0  0  0  0  0  0  0  0
    4.5734    2.4486   -0.7264 H   0  0  0  0  0  0  0  0  0  0  0  0
    3.7695    2.0451    1.6376 H   0  0  0  0  0  0  0  0  0  0  0  0
    3.8046    0.4080    2.3522 H   0  0  0  0  0  0  0  0  0  0  0  0
    5.2701    1.3419    2.1775 H   0  0  0  0  0  0  0  0  0  0  0  0
   -2.4127    2.3509   -0.4238 H   0  0  0  0  0  0  0  0  0  0  0  0
   -4.7983    2.7842   -0.1408 H   0  0  0  0  0  0  0  0  0  0  0  0
   -5.3855   -1.3846    0.6623 H   0  0  0  0  0  0  0  0  0  0  0  0
   -6.3464    0.9108    0.4154 H   0  0  0  0  0  0  0  0  0  0  0  0
  1 12  2  0  0  0  0
  2  6  1  0  0  0  0
  2  9  1  0  0  0  0
  2 12  1  0  0  0  0
  3  7  1  0  0  0  0
  3 10  1  0  0  0  0
  3 11  1  0  0  0  0
  4  8  1  0  0  0  0
  4 12  1  0  0  0  0
  4 15  1  0  0  0  0
  5 15  1  0  0  0  0
  5 18  2  0  0  0  0
  6  7  1  0  0  0  0
  6  8  1  0  0  0  0
  6 20  1  0  0  0  0
  7 21  1  0  0  0  0
  7 22  1  0  0  0  0
  8 23  1  0  0  0  0
  8 24  1  0  0  0  0
  9 10  1  0  0  0  0
  9 25  1  0  0  0  0
  9 26  1  0  0  0  0
 10 27  1  0  0  0  0
 10 28  1  0  0  0  0
 11 13  1  0  0  0  0
 11 14  1  0  0  0  0
 11 29  1  0  0  0  0
 13 30  1  0  0  0  0
 13 31  1  0  0  0  0
 13 32  1  0  0  0  0
 14 33  1  0  0  0  0
 14 34  1  0  0  0  0
 14 35  1  0  0  0  0
 15 16  2  0  0  0  0
 16 17  1  0  0  0  0
 16 36  1  0  0  0  0
 17 19  2  0  0  0  0
 17 37  1  0  0  0  0
 18 19  1  0  0  0  0
 18 38  1  0  0  0  0
 19 39  1  0  0  0  0
M  END
> <PUBCHEM_COMPOUND_CID>
75368572

> <PUBCHEM_CONFORMER_RMSD>
0.6

> <PUBCHEM_CONFORMER_DIVERSEORDER>
1
12
9
14
10
11
17
7
16
18
8
2
13
15
4
5
3
6

> <PUBCHEM_MMFF94_PARTIAL_CHARGES>
21
1 -0.57
10 0.27
11 0.27
12 0.69
15 0.43
16 -0.15
17 -0.15
18 0.16
19 -0.15
2 -0.66
3 -0.81
36 0.15
37 0.15
38 0.15
39 0.15
4 -0.48
5 -0.62
6 0.3
7 0.27
8 0.3
9 0.3

> <PUBCHEM_EFFECTIVE_ROTOR_COUNT>
3.2

> <PUBCHEM_PHARMACOPHORE_FEATURES>
7
1 1 acceptor
1 3 cation
1 5 acceptor
3 11 13 14 hydrophobe
5 2 4 6 8 12 rings
6 2 3 6 7 9 10 rings
6 5 15 16 17 18 19 rings

> <PUBCHEM_HEAVY_ATOM_COUNT>
19

> <PUBCHEM_ATOM_DEF_STEREO_COUNT>
1

> <PUBCHEM_ATOM_UDEF_STEREO_COUNT>
0

> <PUBCHEM_BOND_DEF_STEREO_COUNT>
0

> <PUBCHEM_BOND_UDEF_STEREO_COUNT>
0

> <PUBCHEM_ISOTOPIC_ATOM_COUNT>
0

> <PUBCHEM_COMPONENT_COUNT>
1

> <PUBCHEM_CACTVS_TAUTO_COUNT>
1

> <PUBCHEM_CONFORMER_ID>
047E087C00000001

> <PUBCHEM_MMFF94_ENERGY>
52.342

> <PUBCHEM_FEATURE_SELFOVERLAP>
35.616

> <PUBCHEM_SHAPE_FINGERPRINT>
10493431 412 18336546109600800502
11089746 13 17632285788138602424
11128504 68 14476956813522856576
11132069 177 18187368692876470493
11543360 7 15913036642736747364
11595378 159 17604134944102879569
12107183 9 17686898311145939753
12236239 1 17603303773536437096
12251169 10 18333730255947958180
12390115 104 18271824379744812177
12403259 415 18261958423280141237
12507560 40 18410013191625033981
12596602 18 17095524019309841873
12969540 114 17346589785740392188
13140716 1 18192147320486960728
13675066 3 18409451371190060583
14341114 328 17531523274136021048
14787075 74 18343015614601885283
14790565 3 18118974826312489052
15188451 53 15936986248853941051
15196674 1 18409450254419520303
15209294 21 18413105061145555261
15375358 24 18334579035800997843
15536298 74 18340489962993532351
1601671 61 18408325505986205196
1813 80 16370730309349886518
18186145 218 18270691852650158191
19784866 170 18334297573935847532
200 152 18271518729161596389
204376 136 18411420609221097663
20645477 56 18341332266209573149
20645477 70 18059014964924266734
212916 134 18340472439785291506
21452121 103 18340762642278140994
21618674 25 18201431493719130994
22079108 93 18272645775033461385
22854114 59 18411700980343662457
23402539 116 18412820313625207557
23402655 69 18131069311992837549
23559900 14 18340773646163753454
2916195 48 18131343133238015897
293599 30 18341615958133440940
34797466 226 16845574240359797205
3545911 37 18413393124427946757
474 4 18409169913256231392
474229 33 18410575102270391535
495365 180 17417804050840269434
5104073 3 18264213522029344545
542803 24 16988846060077830489
58807428 26 18188196655102466490
633830 44 18199467671299132095
69090 78 18411980265182724207
7808743 9 18266457805745674224
960060 61 11959728300492196656
9709674 26 18409457972724158255

> <PUBCHEM_SHAPE_MULTIPOLES>
365.22
11.51
2.01
0.87
1.88
0.64
0.22
-5.29
1.94
-0.21
-0.03
-0.8
-0.21
0.31

> <PUBCHEM_SHAPE_SELFOVERLAP>
771.18

> <PUBCHEM_SHAPE_VOLUME>
205

> <PUBCHEM_COORDINATE_TYPE>
2
5
10

$$$$
