45783523
  -OEChem-12032416273D

 61 65  0     1  0  0  0  0  0999 V2000
   -2.6648   -1.8751    1.8727 O   0  0  0  0  0  0  0  0  0  0  0  0
    7.3598   -0.6388   -0.5884 O   0  0  0  0  0  0  0  0  0  0  0  0
    1.3918    3.3353   -1.1909 O   0  0  0  0  0  0  0  0  0  0  0  0
   -4.5525   -0.4876   -0.9587 N   0  0  1  0  0  0  0  0  0  0  0  0
   -1.8031   -1.2794   -0.1071 N   0  0  0  0  0  0  0  0  0  0  0  0
   -1.2740   -1.8705    2.0388 N   0  0  0  0  0  0  0  0  0  0  0  0
    4.5900   -0.9976   -0.2745 N   0  0  0  0  0  0  0  0  0  0  0  0
    2.8566   -1.4952    1.2581 N   0  0  0  0  0  0  0  0  0  0  0  0
    0.1573    3.4315    0.8154 N   0  0  0  0  0  0  0  0  0  0  0  0
   -4.3389   -1.4454    0.1448 C   0  0  1  0  0  0  0  0  0  0  0  0
   -4.8633   -2.7884   -0.3960 C   0  0  0  0  0  0  0  0  0  0  0  0
   -5.4062   -2.4741   -1.7828 C   0  0  0  0  0  0  0  0  0  0  0  0
   -5.6944   -0.9875   -1.7246 C   0  0  0  0  0  0  0  0  0  0  0  0
   -4.7565    0.8806   -0.5004 C   0  0  0  0  0  0  0  0  0  0  0  0
   -2.8908   -1.5165    0.5817 C   0  0  0  0  0  0  0  0  0  0  0  0
   -3.4561    1.5550   -0.1523 C   0  0  0  0  0  0  0  0  0  0  0  0
   -0.8369   -1.5095    0.8286 C   0  0  0  0  0  0  0  0  0  0  0  0
   -3.2513    2.0521    1.1348 C   0  0  0  0  0  0  0  0  0  0  0  0
   -2.4564    1.6831   -1.1166 C   0  0  0  0  0  0  0  0  0  0  0  0
    0.5574   -1.3712    0.5214 C   0  0  0  0  0  0  0  0  0  0  0  0
    5.5370   -1.8454    0.4626 C   0  0  0  0  0  0  0  0  0  0  0  0
    5.1240    0.2941   -0.7200 C   0  0  0  0  0  0  0  0  0  0  0  0
   -2.0471    2.6775    1.4575 C   0  0  0  0  0  0  0  0  0  0  0  0
   -1.2521    2.3085   -0.7939 C   0  0  0  0  0  0  0  0  0  0  0  0
    3.2269   -1.1277    0.0110 C   0  0  0  0  0  0  0  0  0  0  0  0
   -1.0475    2.8058    0.4931 C   0  0  0  0  0  0  0  0  0  0  0  0
    6.8490   -1.9419   -0.3078 C   0  0  0  0  0  0  0  0  0  0  0  0
    6.4586    0.0838   -1.4266 C   0  0  0  0  0  0  0  0  0  0  0  0
    0.9772   -0.9951   -0.7497 C   0  0  0  0  0  0  0  0  0  0  0  0
    2.3358   -0.8688   -1.0180 C   0  0  0  0  0  0  0  0  0  0  0  0
    1.5280   -1.6076    1.4815 C   0  0  0  0  0  0  0  0  0  0  0  0
    1.2665    3.6509   -0.0121 C   0  0  0  0  0  0  0  0  0  0  0  0
    2.3762    4.3649    0.7182 C   0  0  0  0  0  0  0  0  0  0  0  0
   -4.9514   -1.1769    1.0171 H   0  0  0  0  0  0  0  0  0  0  0  0
   -4.1012   -3.5736   -0.4453 H   0  0  0  0  0  0  0  0  0  0  0  0
   -5.6780   -3.1501    0.2432 H   0  0  0  0  0  0  0  0  0  0  0  0
   -6.2949   -3.0650   -2.0230 H   0  0  0  0  0  0  0  0  0  0  0  0
   -4.6406   -2.6862   -2.5395 H   0  0  0  0  0  0  0  0  0  0  0  0
   -6.6441   -0.8041   -1.2063 H   0  0  0  0  0  0  0  0  0  0  0  0
   -5.7438   -0.5481   -2.7257 H   0  0  0  0  0  0  0  0  0  0  0  0
   -5.2030    1.4808   -1.3057 H   0  0  0  0  0  0  0  0  0  0  0  0
   -5.4709    0.9284    0.3319 H   0  0  0  0  0  0  0  0  0  0  0  0
   -4.0205    1.9574    1.8966 H   0  0  0  0  0  0  0  0  0  0  0  0
   -2.6039    1.3043   -2.1247 H   0  0  0  0  0  0  0  0  0  0  0  0
    5.1353   -2.8557    0.6051 H   0  0  0  0  0  0  0  0  0  0  0  0
    5.7172   -1.4020    1.4497 H   0  0  0  0  0  0  0  0  0  0  0  0
    5.2666    0.9332    0.1603 H   0  0  0  0  0  0  0  0  0  0  0  0
    4.4409    0.8127   -1.4012 H   0  0  0  0  0  0  0  0  0  0  0  0
   -1.9008    3.0593    2.4647 H   0  0  0  0  0  0  0  0  0  0  0  0
   -0.5261    2.3693   -1.5926 H   0  0  0  0  0  0  0  0  0  0  0  0
    6.7212   -2.4931   -1.2473 H   0  0  0  0  0  0  0  0  0  0  0  0
    7.5951   -2.4746    0.2903 H   0  0  0  0  0  0  0  0  0  0  0  0
    6.9157    1.0516   -1.6559 H   0  0  0  0  0  0  0  0  0  0  0  0
    6.3289   -0.4550   -2.3730 H   0  0  0  0  0  0  0  0  0  0  0  0
    0.2690   -0.7969   -1.5501 H   0  0  0  0  0  0  0  0  0  0  0  0
    2.6626   -0.5892   -2.0142 H   0  0  0  0  0  0  0  0  0  0  0  0
    1.2841   -1.9044    2.4973 H   0  0  0  0  0  0  0  0  0  0  0  0
    0.2297    3.7664    1.7739 H   0  0  0  0  0  0  0  0  0  0  0  0
    3.2338    4.4956    0.0524 H   0  0  0  0  0  0  0  0  0  0  0  0
    2.0287    5.3478    1.0486 H   0  0  0  0  0  0  0  0  0  0  0  0
    2.6882    3.7762    1.5855 H   0  0  0  0  0  0  0  0  0  0  0  0
  1  6  1  0  0  0  0
  1 15  1  0  0  0  0
  2 27  1  0  0  0  0
  2 28  1  0  0  0  0
  3 32  2  0  0  0  0
  4 10  1  0  0  0  0
  4 13  1  0  0  0  0
  4 14  1  0  0  0  0
  5 15  2  0  0  0  0
  5 17  1  0  0  0  0
  6 17  2  0  0  0  0
  7 21  1  0  0  0  0
  7 22  1  0  0  0  0
  7 25  1  0  0  0  0
  8 25  2  0  0  0  0
  8 31  1  0  0  0  0
  9 26  1  0  0  0  0
  9 32  1  0  0  0  0
  9 58  1  0  0  0  0
 10 11  1  0  0  0  0
 10 15  1  0  0  0  0
 10 34  1  0  0  0  0
 11 12  1  0  0  0  0
 11 35  1  0  0  0  0
 11 36  1  0  0  0  0
 12 13  1  0  0  0  0
 12 37  1  0  0  0  0
 12 38  1  0  0  0  0
 13 39  1  0  0  0  0
 13 40  1  0  0  0  0
 14 16  1  0  0  0  0
 14 41  1  0  0  0  0
 14 42  1  0  0  0  0
 16 18  2  0  0  0  0
 16 19  1  0  0  0  0
 17 20  1  0  0  0  0
 18 23  1  0  0  0  0
 18 43  1  0  0  0  0
 19 24  2  0  0  0  0
 19 44  1  0  0  0  0
 20 29  1  0  0  0  0
 20 31  2  0  0  0  0
 21 27  1  0  0  0  0
 21 45  1  0  0  0  0
 21 46  1  0  0  0  0
 22 28  1  0  0  0  0
 22 47  1  0  0  0  0
 22 48  1  0  0  0  0
 23 26  2  0  0  0  0
 23 49  1  0  0  0  0
 24 26  1  0  0  0  0
 24 50  1  0  0  0  0
 25 30  1  0  0  0  0
 27 51  1  0  0  0  0
 27 52  1  0  0  0  0
 28 53  1  0  0  0  0
 28 54  1  0  0  0  0
 29 30  2  0  0  0  0
 29 55  1  0  0  0  0
 30 56  1  0  0  0  0
 31 57  1  0  0  0  0
 32 33  1  0  0  0  0
 33 59  1  0  0  0  0
 33 60  1  0  0  0  0
 33 61  1  0  0  0  0
M  END
> <PUBCHEM_COMPOUND_CID>
45783523

> <PUBCHEM_CONFORMER_RMSD>
1

> <PUBCHEM_CONFORMER_DIVERSEORDER>
1
117
89
30
106
21
113
104
41
44
93
77
38
78
105
25
81
114
48
86
29
66
59
69
118
83
76
132
9
85
88
61
134
139
79
12
120
46
70
112
49
92
116
47
72
122
68
4
125
128
16
121
142
102
67
43
34
11
130
22
45
14
65
90
101
94
39
36
127
135
63
119
110
50
100
137
3
108
95
51
15
126
140
32
97
60
56
31
82
24
13
96
131
64
115
37
57
138
20
141
111
35
129
6
80
55
2
53
73
124
17
75
40
26
107
19
87
123
28
99
103
23
52
54
84
33
136
42
27
133
18
109
91
62
58
8
98
10
74
7
5
71

> <PUBCHEM_MMFF94_PARTIAL_CHARGES>
39
1 -0.02
10 0.45
13 0.27
14 0.41
15 0.3
16 -0.14
17 0.46
18 -0.15
19 -0.15
2 -0.56
20 0.05
21 0.37
22 0.37
23 -0.15
24 -0.15
25 0.41
26 0.12
27 0.28
28 0.28
29 -0.15
3 -0.57
30 -0.15
31 0.16
32 0.57
33 0.06
4 -0.81
43 0.15
44 0.15
49 0.15
5 -0.57
50 0.15
55 0.15
56 0.15
57 0.15
58 0.37
6 -0.41
7 -0.84
8 -0.62
9 -0.55

> <PUBCHEM_EFFECTIVE_ROTOR_COUNT>
9.2

> <PUBCHEM_PHARMACOPHORE_FEATURES>
11
1 2 acceptor
1 3 acceptor
1 4 cation
1 9 donor
3 5 6 17 cation
3 7 8 25 cation
5 1 5 6 15 17 rings
5 4 10 11 12 13 rings
6 16 18 19 23 24 26 rings
6 2 7 21 22 27 28 rings
6 8 20 25 29 30 31 rings

> <PUBCHEM_HEAVY_ATOM_COUNT>
33

> <PUBCHEM_ATOM_DEF_STEREO_COUNT>
1

> <PUBCHEM_ATOM_UDEF_STEREO_COUNT>
0

> <PUBCHEM_BOND_DEF_STEREO_COUNT>
0

> <PUBCHEM_BOND_UDEF_STEREO_COUNT>
0

> <PUBCHEM_ISOTOPIC_ATOM_COUNT>
0

> <PUBCHEM_COMPONENT_COUNT>
1

> <PUBCHEM_CACTVS_TAUTO_COUNT>
2

> <PUBCHEM_CONFORMER_ID>
02BA99E300000001

> <PUBCHEM_MMFF94_ENERGY>
87.0176

> <PUBCHEM_FEATURE_SELFOVERLAP>
55.823

> <PUBCHEM_SHAPE_FINGERPRINT>
10032420 55 17896023391203140085
1100329 8 18411702042008135113
12107698 1 18342737442032947831
12156800 1 14495198690727774005
12166972 35 18041000660972201828
12645989 146 18342741797858384046
12788726 201 18262230019547403467
13761468 95 17830172407127996766
13782708 43 17561086865606672070
14068700 675 18272366490295009869
14931854 50 18187634796091597007
15183329 4 18113902603359571162
15289351 153 18336834182892749812
15876981 60 18410580578279685653
16067689 302 18049726518743072519
18336668 15 18041007215076997412
20609170 92 18116143545084710084
20642791 35 18335685158301229741
20721686 56 18338797935548637320
20775438 99 17477454961586996743
21236236 1 18336270054820323142
21344244 246 17909258423684391511
22899556 105 17911803793240057975
23559900 14 18041558169275944405
3298306 158 17833262400412622765
392239 28 18337681793665163856
4017518 198 16975595033371303153
4280585 95 18338224994878721761
5171179 24 18342170128388031241
57527585 103 17679900113352071187
7471813 234 18341609373368223671

> <PUBCHEM_SHAPE_MULTIPOLES>
631.63
14.61
4.68
1.57
17.77
5.59
0.17
-10.68
-6.44
-0.82
0.74
-0.88
-0.4
-1.09

> <PUBCHEM_SHAPE_SELFOVERLAP>
1364.598

> <PUBCHEM_SHAPE_VOLUME>
345.9

> <PUBCHEM_COORDINATE_TYPE>
2
5
10

$$$$
