45361338
  -OEChem-12032416413D

 70 73  0     1  0  0  0  0  0999 V2000
    2.8537    2.0659    0.9978 S   0  0  0  0  0  0  0  0  0  0  0  0
   -2.5813   -1.7980   -0.3013 O   0  0  0  0  0  0  0  0  0  0  0  0
   -6.5894    1.5466   -0.9148 O   0  0  0  0  0  0  0  0  0  0  0  0
    5.3070   -1.6481   -0.4494 O   0  0  0  0  0  0  0  0  0  0  0  0
    2.6502   -0.2799   -0.0707 N   0  0  0  0  0  0  0  0  0  0  0  0
   -6.9140   -0.1329    0.6432 N   0  0  0  0  0  0  0  0  0  0  0  0
    4.8731    0.4785    0.4708 N   0  0  0  0  0  0  0  0  0  0  0  0
    8.1176   -0.9833   -0.5587 N   0  0  0  0  0  0  0  0  0  0  0  0
   -1.0970    1.7266   -0.0944 C   0  0  1  0  0  0  0  0  0  0  0  0
   -1.1722    0.1557    0.0516 C   0  0  1  0  0  0  0  0  0  0  0  0
   -2.4460   -0.4166   -0.6324 C   0  0  2  0  0  0  0  0  0  0  0  0
   -3.7395    0.2923   -0.1751 C   0  0  1  0  0  0  0  0  0  0  0  0
   -2.4173    2.3598    0.4039 C   0  0  0  0  0  0  0  0  0  0  0  0
    0.1663   -0.5473   -0.4193 C   0  0  1  0  0  0  0  0  0  0  0  0
   -3.6488    1.8127   -0.3049 C   0  0  0  0  0  0  0  0  0  0  0  0
    0.0548    2.2855    0.7982 C   0  0  0  0  0  0  0  0  0  0  0  0
   -0.8517    2.1636   -1.5623 C   0  0  0  0  0  0  0  0  0  0  0  0
   -4.9684   -0.2153   -0.9392 C   0  0  2  0  0  0  0  0  0  0  0  0
    1.3699    0.2285    0.0597 C   0  0  0  0  0  0  0  0  0  0  0  0
    1.3006    1.4987    0.5935 C   0  0  0  0  0  0  0  0  0  0  0  0
    0.2737   -2.0112    0.0327 C   0  0  0  0  0  0  0  0  0  0  0  0
   -4.7824    0.0462   -2.4348 C   0  0  0  0  0  0  0  0  0  0  0  0
   -6.2282    0.4764   -0.4128 C   0  0  0  0  0  0  0  0  0  0  0  0
    3.5103    0.5960    0.4015 C   0  0  0  0  0  0  0  0  0  0  0  0
   -6.5754   -1.4103    1.2679 C   0  0  0  0  0  0  0  0  0  0  0  0
   -8.1063    0.5117    1.1830 C   0  0  0  0  0  0  0  0  0  0  0  0
    5.6937   -0.6006    0.0577 C   0  0  0  0  0  0  0  0  0  0  0  0
   -7.2896   -2.5078    0.5517 C   0  0  0  0  0  0  0  0  0  0  0  0
    7.1577   -0.4188    0.2401 C   0  0  0  0  0  0  0  0  0  0  0  0
   -8.1443   -3.3508    1.1422 C   0  0  0  0  0  0  0  0  0  0  0  0
    7.7974    0.3251    1.2068 C   0  0  0  0  0  0  0  0  0  0  0  0
    9.3602   -0.6102   -0.1169 C   0  0  0  0  0  0  0  0  0  0  0  0
    9.1908    0.2040    0.9811 C   0  0  0  0  0  0  0  0  0  0  0  0
    7.8748   -1.8426   -1.6966 C   0  0  0  0  0  0  0  0  0  0  0  0
   -1.2664   -0.0595    1.1283 H   0  0  0  0  0  0  0  0  0  0  0  0
   -2.2989   -0.3562   -1.7123 H   0  0  0  0  0  0  0  0  0  0  0  0
   -3.8889    0.0633    0.8897 H   0  0  0  0  0  0  0  0  0  0  0  0
   -2.5288    2.1779    1.4814 H   0  0  0  0  0  0  0  0  0  0  0  0
   -2.3850    3.4500    0.2805 H   0  0  0  0  0  0  0  0  0  0  0  0
    0.1970   -0.5365   -1.5169 H   0  0  0  0  0  0  0  0  0  0  0  0
   -4.5127    2.2967    0.1631 H   0  0  0  0  0  0  0  0  0  0  0  0
   -3.6232    2.1548   -1.3411 H   0  0  0  0  0  0  0  0  0  0  0  0
   -0.2223    2.2130    1.8581 H   0  0  0  0  0  0  0  0  0  0  0  0
    0.2217    3.3478    0.5804 H   0  0  0  0  0  0  0  0  0  0  0  0
    0.1255    1.8447   -1.9374 H   0  0  0  0  0  0  0  0  0  0  0  0
   -0.8845    3.2559   -1.6504 H   0  0  0  0  0  0  0  0  0  0  0  0
   -1.6015    1.7596   -2.2481 H   0  0  0  0  0  0  0  0  0  0  0  0
   -5.0688   -1.2980   -0.8312 H   0  0  0  0  0  0  0  0  0  0  0  0
    0.0831   -2.1107    1.1068 H   0  0  0  0  0  0  0  0  0  0  0  0
    1.2710   -2.4220   -0.1624 H   0  0  0  0  0  0  0  0  0  0  0  0
   -0.4228   -2.6549   -0.5091 H   0  0  0  0  0  0  0  0  0  0  0  0
   -2.6730   -1.8688    0.6642 H   0  0  0  0  0  0  0  0  0  0  0  0
   -4.6511    1.0962   -2.7041 H   0  0  0  0  0  0  0  0  0  0  0  0
   -5.6908   -0.2739   -2.9624 H   0  0  0  0  0  0  0  0  0  0  0  0
   -3.9699   -0.5383   -2.8728 H   0  0  0  0  0  0  0  0  0  0  0  0
    5.3350    1.2941    0.8649 H   0  0  0  0  0  0  0  0  0  0  0  0
   -6.8390   -1.3668    2.3312 H   0  0  0  0  0  0  0  0  0  0  0  0
   -5.4987   -1.5885    1.2208 H   0  0  0  0  0  0  0  0  0  0  0  0
   -7.9522    0.7045    2.2490 H   0  0  0  0  0  0  0  0  0  0  0  0
   -8.3195    1.4612    0.6856 H   0  0  0  0  0  0  0  0  0  0  0  0
   -8.9658   -0.1518    1.0506 H   0  0  0  0  0  0  0  0  0  0  0  0
   -7.0911   -2.6377   -0.5092 H   0  0  0  0  0  0  0  0  0  0  0  0
   -8.6276   -4.1343    0.5689 H   0  0  0  0  0  0  0  0  0  0  0  0
   -8.3766   -3.2753    2.1987 H   0  0  0  0  0  0  0  0  0  0  0  0
    7.3246    0.8926    1.9967 H   0  0  0  0  0  0  0  0  0  0  0  0
   10.2596   -0.9509   -0.6122 H   0  0  0  0  0  0  0  0  0  0  0  0
    9.9848    0.6589    1.5563 H   0  0  0  0  0  0  0  0  0  0  0  0
    7.4995   -2.8022   -1.3330 H   0  0  0  0  0  0  0  0  0  0  0  0
    7.1538   -1.3579   -2.3596 H   0  0  0  0  0  0  0  0  0  0  0  0
    8.8117   -1.9979   -2.2387 H   0  0  0  0  0  0  0  0  0  0  0  0
  1 20  1  0  0  0  0
  1 24  1  0  0  0  0
  2 11  1  0  0  0  0
  2 52  1  0  0  0  0
  3 23  2  0  0  0  0
  4 27  2  0  0  0  0
  5 19  1  0  0  0  0
  5 24  2  0  0  0  0
  6 23  1  0  0  0  0
  6 25  1  0  0  0  0
  6 26  1  0  0  0  0
  7 24  1  0  0  0  0
  7 27  1  0  0  0  0
  7 56  1  0  0  0  0
  8 29  1  0  0  0  0
  8 32  1  0  0  0  0
  8 34  1  0  0  0  0
  9 10  1  0  0  0  0
  9 13  1  0  0  0  0
  9 16  1  0  0  0  0
  9 17  1  0  0  0  0
 10 11  1  0  0  0  0
 10 14  1  0  0  0  0
 10 35  1  0  0  0  0
 11 12  1  0  0  0  0
 11 36  1  0  0  0  0
 12 15  1  0  0  0  0
 12 18  1  0  0  0  0
 12 37  1  0  0  0  0
 13 15  1  0  0  0  0
 13 38  1  0  0  0  0
 13 39  1  0  0  0  0
 14 19  1  0  0  0  0
 14 21  1  0  0  0  0
 14 40  1  0  0  0  0
 15 41  1  0  0  0  0
 15 42  1  0  0  0  0
 16 20  1  0  0  0  0
 16 43  1  0  0  0  0
 16 44  1  0  0  0  0
 17 45  1  0  0  0  0
 17 46  1  0  0  0  0
 17 47  1  0  0  0  0
 18 22  1  0  0  0  0
 18 23  1  0  0  0  0
 18 48  1  0  0  0  0
 19 20  2  0  0  0  0
 21 49  1  0  0  0  0
 21 50  1  0  0  0  0
 21 51  1  0  0  0  0
 22 53  1  0  0  0  0
 22 54  1  0  0  0  0
 22 55  1  0  0  0  0
 25 28  1  0  0  0  0
 25 57  1  0  0  0  0
 25 58  1  0  0  0  0
 26 59  1  0  0  0  0
 26 60  1  0  0  0  0
 26 61  1  0  0  0  0
 27 29  1  0  0  0  0
 28 30  2  0  0  0  0
 28 62  1  0  0  0  0
 29 31  2  0  0  0  0
 30 63  1  0  0  0  0
 30 64  1  0  0  0  0
 31 33  1  0  0  0  0
 31 65  1  0  0  0  0
 32 33  2  0  0  0  0
 32 66  1  0  0  0  0
 33 67  1  0  0  0  0
 34 68  1  0  0  0  0
 34 69  1  0  0  0  0
 34 70  1  0  0  0  0
M  END
> <PUBCHEM_COMPOUND_CID>
45361338

> <PUBCHEM_CONFORMER_RMSD>
1

> <PUBCHEM_CONFORMER_DIVERSEORDER>
1
103
57
105
75
47
87
86
110
53
108
89
80
37
104
67
29
91
64
46
65
14
25
102
59
79
101
60
34
23
82
107
95
52
106
36
49
99
20
27
97
76
100
21
38
66
17
72
109
93
42
12
78
16
73
28
39
94
43
31
5
92
71
7
6
85
83
58
51
18
61
68
22
41
50
84
24
33
48
19
40
74
69
55
77
56
15
88
81
4
30
44
96
10
32
45
70
35
98
3
54
9
13
62
8
90
26
63
11
2

> <PUBCHEM_MMFF94_PARTIAL_CHARGES>
34
1 -0.08
11 0.28
14 0.18
16 0.18
18 0.06
19 0.05
2 -0.68
20 -0.14
23 0.57
24 0.44
25 0.44
26 0.3
27 0.71
28 -0.29
29 -0.24
3 -0.57
30 -0.3
31 -0.15
32 -0.3
33 -0.15
34 0.26
4 -0.57
5 -0.57
52 0.4
56 0.37
6 -0.66
62 0.15
63 0.15
64 0.15
65 0.15
66 0.15
67 0.15
7 -0.49
8 0.05

> <PUBCHEM_EFFECTIVE_ROTOR_COUNT>
9.2

> <PUBCHEM_PHARMACOPHORE_FEATURES>
12
1 2 acceptor
1 2 donor
1 22 hydrophobe
1 3 acceptor
1 30 hydrophobe
1 4 acceptor
1 7 donor
1 8 cation
5 1 5 19 20 24 rings
5 8 29 31 32 33 rings
6 9 10 11 12 13 15 rings
6 9 10 14 16 19 20 rings

> <PUBCHEM_HEAVY_ATOM_COUNT>
34

> <PUBCHEM_ATOM_DEF_STEREO_COUNT>
5

> <PUBCHEM_ATOM_UDEF_STEREO_COUNT>
1

> <PUBCHEM_BOND_DEF_STEREO_COUNT>
0

> <PUBCHEM_BOND_UDEF_STEREO_COUNT>
0

> <PUBCHEM_ISOTOPIC_ATOM_COUNT>
0

> <PUBCHEM_COMPONENT_COUNT>
1

> <PUBCHEM_CACTVS_TAUTO_COUNT>
3

> <PUBCHEM_CONFORMER_ID>
02B428BA00000001

> <PUBCHEM_MMFF94_ENERGY>
89.3422

> <PUBCHEM_FEATURE_SELFOVERLAP>
60.976

> <PUBCHEM_SHAPE_FINGERPRINT>
10076449 9 18113058237730280017
10533779 47 17775297066213682330
11135926 11 18412536600849742887
11181472 205 12247689279452785786
11456790 92 17275108348680061850
11963148 33 18260258651440214075
12082328 90 15357694163292233617
12089408 11 17167860851532144354
12104220 1 18059861649729675289
12106331 60 18340477894457314145
12758862 56 18341606035967853080
1361 4 18115303376224282818
13811026 1 18411417327786760802
14251764 18 17632577145856270688
14856354 85 16225767441518518683
15183329 4 18411131412673800194
15461852 350 16370728110679954262
15510794 2 18411133663025575641
18335252 98 18341050736247678586
18608769 82 18409448111030769427
20105231 36 18413110554752228934
21150785 3 16370727015473992640
21267235 1 18412545413932502272
21781051 124 18337684104162344782
21792961 116 18187356611191547725
23559900 14 18270670000031318160
24771293 8 11167950156156920211
249057 3 17967252014230663884
2747138 104 18413669114963880352
3178227 256 18272091608071837362
335352 9 18342731923074078973
335507 130 18202842154901733196
3383291 50 18410574011164718986
4339292 15 18040992995242282443
444769 64 18130785677127910799
4461854 278 17489871557441522454
54039377 194 18410295830189741559
6201320 215 14979407140400634883
636775 8 18334018306356464810
999808 66 18272368667901328045

> <PUBCHEM_SHAPE_MULTIPOLES>
666.02
29.24
2.62
1.35
31.21
0.57
0.47
16.94
-4.85
-3.81
-0.37
-0.88
0.04
3.17

> <PUBCHEM_SHAPE_SELFOVERLAP>
1396.41

> <PUBCHEM_SHAPE_VOLUME>
382.3

> <PUBCHEM_COORDINATE_TYPE>
2
5
10

$$$$
