26742536
  -OEChem-12032416403D

 53 55  0     1  0  0  0  0  0999 V2000
    2.0731   -2.7249    0.1612 O   0  0  0  0  0  0  0  0  0  0  0  0
   -5.8669   -0.9689   -0.9921 O   0  0  0  0  0  0  0  0  0  0  0  0
   -7.3684    1.5744    1.0451 O   0  0  0  0  0  0  0  0  0  0  0  0
    4.2587    1.5973    1.1737 O   0  0  0  0  0  0  0  0  0  0  0  0
   -8.3105    0.3978   -0.6563 O   0  0  0  0  0  0  0  0  0  0  0  0
   -0.7379    2.1528   -0.5514 N   0  0  0  0  0  0  0  0  0  0  0  0
    2.7534   -0.9249    1.4644 N   0  0  0  0  0  0  0  0  0  0  0  0
   -4.5700   -1.4628   -0.9217 N   0  0  0  0  0  0  0  0  0  0  0  0
   -0.1735   -0.7411   -0.4353 C   0  0  1  0  0  0  0  0  0  0  0  0
   -1.6068   -0.1644   -0.3483 C   0  0  2  0  0  0  0  0  0  0  0  0
    0.7278    0.2638   -1.1721 C   0  0  0  0  0  0  0  0  0  0  0  0
   -1.6104    1.2654    0.2182 C   0  0  0  0  0  0  0  0  0  0  0  0
    0.6409    1.6694   -0.5790 C   0  0  0  0  0  0  0  0  0  0  0  0
   -2.5651   -1.0574    0.4409 C   0  0  0  0  0  0  0  0  0  0  0  0
    0.4294   -1.1213    0.9223 C   0  0  0  0  0  0  0  0  0  0  0  0
   -3.9949   -0.7834    0.0748 C   0  0  0  0  0  0  0  0  0  0  0  0
    1.8219   -1.6998    0.7891 C   0  0  0  0  0  0  0  0  0  0  0  0
   -4.8718    0.1437    0.6642 C   0  0  0  0  0  0  0  0  0  0  0  0
    4.1621   -1.2433    1.5076 C   0  0  0  0  0  0  0  0  0  0  0  0
   -6.0345   -0.0129   -0.0429 C   0  0  0  0  0  0  0  0  0  0  0  0
    4.9239   -0.5726    0.4013 C   0  0  0  0  0  0  0  0  0  0  0  0
   -7.3017    0.6243    0.0546 C   0  0  0  0  0  0  0  0  0  0  0  0
    4.9369    0.8174    0.2858 C   0  0  0  0  0  0  0  0  0  0  0  0
    5.6233   -1.3554   -0.5170 C   0  0  0  0  0  0  0  0  0  0  0  0
    5.6494    1.4246   -0.7484 C   0  0  0  0  0  0  0  0  0  0  0  0
    6.3358   -0.7482   -1.5513 C   0  0  0  0  0  0  0  0  0  0  0  0
    6.3489    0.6418   -1.6670 C   0  0  0  0  0  0  0  0  0  0  0  0
    4.3268    3.0086    0.9798 C   0  0  0  0  0  0  0  0  0  0  0  0
   -0.2119   -1.6541   -1.0459 H   0  0  0  0  0  0  0  0  0  0  0  0
   -1.9725   -0.1022   -1.3854 H   0  0  0  0  0  0  0  0  0  0  0  0
    0.4072    0.3096   -2.2223 H   0  0  0  0  0  0  0  0  0  0  0  0
    1.7724   -0.0634   -1.2000 H   0  0  0  0  0  0  0  0  0  0  0  0
   -2.6171    1.6907    0.1698 H   0  0  0  0  0  0  0  0  0  0  0  0
   -1.3159    1.2741    1.2746 H   0  0  0  0  0  0  0  0  0  0  0  0
    1.0736    1.6955    0.4277 H   0  0  0  0  0  0  0  0  0  0  0  0
    1.2380    2.3512   -1.1948 H   0  0  0  0  0  0  0  0  0  0  0  0
   -2.4320   -0.9235    1.5215 H   0  0  0  0  0  0  0  0  0  0  0  0
   -2.3542   -2.1138    0.2278 H   0  0  0  0  0  0  0  0  0  0  0  0
   -0.1738   -1.9012    1.4022 H   0  0  0  0  0  0  0  0  0  0  0  0
    0.4216   -0.2691    1.6095 H   0  0  0  0  0  0  0  0  0  0  0  0
   -0.7598    3.0862   -0.1415 H   0  0  0  0  0  0  0  0  0  0  0  0
   -4.6840    0.8220    1.4837 H   0  0  0  0  0  0  0  0  0  0  0  0
    2.4556   -0.0780    1.9394 H   0  0  0  0  0  0  0  0  0  0  0  0
    4.2787   -2.3323    1.4673 H   0  0  0  0  0  0  0  0  0  0  0  0
    4.5503   -0.9105    2.4769 H   0  0  0  0  0  0  0  0  0  0  0  0
    5.6225   -2.4395   -0.4415 H   0  0  0  0  0  0  0  0  0  0  0  0
    5.7049    2.4966   -0.9018 H   0  0  0  0  0  0  0  0  0  0  0  0
    6.8801   -1.3576   -2.2667 H   0  0  0  0  0  0  0  0  0  0  0  0
    6.9038    1.1134   -2.4728 H   0  0  0  0  0  0  0  0  0  0  0  0
   -8.2547    1.9931    1.0843 H   0  0  0  0  0  0  0  0  0  0  0  0
    3.7316    3.4711    1.7741 H   0  0  0  0  0  0  0  0  0  0  0  0
    3.8723    3.3077    0.0291 H   0  0  0  0  0  0  0  0  0  0  0  0
    5.3500    3.3832    1.0908 H   0  0  0  0  0  0  0  0  0  0  0  0
  1 17  2  0  0  0  0
  2  8  1  0  0  0  0
  2 20  1  0  0  0  0
  3 22  1  0  0  0  0
  3 50  1  0  0  0  0
  4 23  1  0  0  0  0
  4 28  1  0  0  0  0
  5 22  2  0  0  0  0
  6 12  1  0  0  0  0
  6 13  1  0  0  0  0
  6 41  1  0  0  0  0
  7 17  1  0  0  0  0
  7 19  1  0  0  0  0
  7 43  1  0  0  0  0
  8 16  2  0  0  0  0
  9 10  1  0  0  0  0
  9 11  1  0  0  0  0
  9 15  1  0  0  0  0
  9 29  1  0  0  0  0
 10 12  1  0  0  0  0
 10 14  1  0  0  0  0
 10 30  1  0  0  0  0
 11 13  1  0  0  0  0
 11 31  1  0  0  0  0
 11 32  1  0  0  0  0
 12 33  1  0  0  0  0
 12 34  1  0  0  0  0
 13 35  1  0  0  0  0
 13 36  1  0  0  0  0
 14 16  1  0  0  0  0
 14 37  1  0  0  0  0
 14 38  1  0  0  0  0
 15 17  1  0  0  0  0
 15 39  1  0  0  0  0
 15 40  1  0  0  0  0
 16 18  1  0  0  0  0
 18 20  2  0  0  0  0
 18 42  1  0  0  0  0
 19 21  1  0  0  0  0
 19 44  1  0  0  0  0
 19 45  1  0  0  0  0
 20 22  1  0  0  0  0
 21 23  1  0  0  0  0
 21 24  2  0  0  0  0
 23 25  2  0  0  0  0
 24 26  1  0  0  0  0
 24 46  1  0  0  0  0
 25 27  1  0  0  0  0
 25 47  1  0  0  0  0
 26 27  2  0  0  0  0
 26 48  1  0  0  0  0
 27 49  1  0  0  0  0
 28 51  1  0  0  0  0
 28 52  1  0  0  0  0
 28 53  1  0  0  0  0
M  END
> <PUBCHEM_COMPOUND_CID>
26742536

> <PUBCHEM_CONFORMER_RMSD>
1.2

> <PUBCHEM_CONFORMER_DIVERSEORDER>
1
39
157
15
24
112
147
89
3
95
66
97
143
48
92
125
156
144
118
130
101
12
121
50
148
56
49
33
51
77
20
83
134
47
133
67
65
108
111
154
153
70
146
73
135
16
150
80
61
44
55
82
114
21
64
140
62
17
132
90
79
57
11
126
40
99
155
35
30
76
94
138
120
45
81
31
104
152
123
41
23
13
5
59
6
105
98
9
69
86
136
131
100
27
22
109
110
115
14
38
91
78
102
139
10
142
2
117
46
106
63
128
75
88
8
29
122
141
137
124
129
87
7
28
93
107
19
72
26
32
85
43
36
96
54
151
4
116
18
74
34
25
42
60
53
127
119
145
71
52
113
58
103
68
84
37
149

> <PUBCHEM_MMFF94_PARTIAL_CHARGES>
33
1 -0.57
12 0.27
13 0.27
14 0.18
15 0.06
16 0.11
17 0.57
18 -0.15
19 0.44
2 -0.02
20 0.05
21 -0.14
22 0.81
23 0.08
24 -0.15
25 -0.15
26 -0.15
27 -0.15
28 0.28
3 -0.65
4 -0.36
41 0.36
42 0.15
43 0.37
46 0.15
47 0.15
48 0.15
49 0.15
5 -0.57
50 0.5
6 -0.9
7 -0.73
8 -0.41

> <PUBCHEM_EFFECTIVE_ROTOR_COUNT>
10.2

> <PUBCHEM_PHARMACOPHORE_FEATURES>
12
1 1 acceptor
1 3 acceptor
1 4 acceptor
1 5 acceptor
1 6 cation
1 6 donor
1 7 donor
1 8 acceptor
3 3 5 22 anion
5 2 8 16 18 20 rings
6 21 23 24 25 26 27 rings
6 6 9 10 11 12 13 rings

> <PUBCHEM_HEAVY_ATOM_COUNT>
28

> <PUBCHEM_ATOM_DEF_STEREO_COUNT>
2

> <PUBCHEM_ATOM_UDEF_STEREO_COUNT>
0

> <PUBCHEM_BOND_DEF_STEREO_COUNT>
0

> <PUBCHEM_BOND_UDEF_STEREO_COUNT>
0

> <PUBCHEM_ISOTOPIC_ATOM_COUNT>
0

> <PUBCHEM_COMPONENT_COUNT>
1

> <PUBCHEM_CACTVS_TAUTO_COUNT>
2

> <PUBCHEM_CONFORMER_ID>
01980F0800000001

> <PUBCHEM_MMFF94_ENERGY>
54.1655

> <PUBCHEM_FEATURE_SELFOVERLAP>
60.955

> <PUBCHEM_SHAPE_FINGERPRINT>
10 15 15646773397075888323
10165383 225 17894354393852576942
10906281 52 18261122850430801283
11991303 11 16486683766734289805
12236239 1 18272085024430447231
13073987 5 11819263451917653295
13533116 47 18040710321405096962
13782708 43 13973677377921746447
13899415 154 18409172120885207112
13914758 101 17917999356446872161
14170010 4 17894910741707846285
14251764 18 18333167280973916719
14528608 73 18410853295850065442
14840074 17 18334011709239167479
14849402 71 18041286556014130837
15183329 4 17632867416313827114
15276724 80 18263079929836425093
15419008 42 9870377957971291379
15461852 350 17632287987942333309
15840311 113 18412544340602336445
16120349 18 18411129248031531297
21521721 280 17022625264738037699
21792934 111 18042105609838839200
221357 26 18413394224883872060
23559900 14 18114464577442416437
24771293 8 18193546981894528716
255183 451 17983018852244824726
34797466 226 18060421326094901638
4325135 7 18114183012508678630
4340502 62 13767924637608208778
53794403 172 17971196074172683964
58260988 393 14273723054633533846
59755656 215 18261111863471499668
6328613 192 18343018909095132609
6441014 3 8714111807861400136
70251023 43 17242440617675349898

> <PUBCHEM_SHAPE_MULTIPOLES>
531.94
20.87
2.26
1.32
26.11
0.68
0.03
3.83
3.51
-2.37
-0.51
-1.58
-0.01
-0.43

> <PUBCHEM_SHAPE_SELFOVERLAP>
1119.677

> <PUBCHEM_SHAPE_VOLUME>
297

> <PUBCHEM_COORDINATE_TYPE>
2
5
10

$$$$
