11884021
  -OEChem-12032416373D

 55 59  0     1  0  0  0  0  0999 V2000
   -8.4685   -2.3507   -0.7038 S   0  0  0  0  0  0  0  0  0  0  0  0
   -2.7970    1.4826    1.1723 O   0  0  0  0  0  0  0  0  0  0  0  0
   -3.6696    2.6893   -1.5084 O   0  0  0  0  0  0  0  0  0  0  0  0
   -0.4212    2.1594   -0.0942 O   0  0  0  0  0  0  0  0  0  0  0  0
   -7.2550    0.3623   -1.0808 O   0  0  0  0  0  0  0  0  0  0  0  0
    0.6448    0.3229   -0.9431 O   0  0  0  0  0  0  0  0  0  0  0  0
    6.6522   -0.6275    1.4142 O   0  0  0  0  0  0  0  0  0  0  0  0
   -5.4773    0.0961    0.3499 N   0  0  0  0  0  0  0  0  0  0  0  0
    1.6662    1.7165    0.6364 N   0  0  0  0  0  0  0  0  0  0  0  0
   -3.8549    1.3729   -0.9471 C   0  0  1  0  0  0  0  0  0  0  0  0
   -2.5909    1.0407   -0.1799 C   0  0  1  0  0  0  0  0  0  0  0  0
   -4.9262    1.4089    0.1176 C   0  0  2  0  0  0  0  0  0  0  0  0
   -1.5504    1.8742   -0.8885 C   0  0  1  0  0  0  0  0  0  0  0  0
   -4.1592    1.9088    1.3297 C   0  0  0  0  0  0  0  0  0  0  0  0
   -2.3276    3.1222   -1.2417 C   0  0  0  0  0  0  0  0  0  0  0  0
   -6.6374   -0.3475   -0.2848 C   0  0  0  0  0  0  0  0  0  0  0  0
    0.6504    1.2971   -0.2006 C   0  0  0  0  0  0  0  0  0  0  0  0
   -7.0552   -1.7209    0.0299 C   0  0  0  0  0  0  0  0  0  0  0  0
   -6.4571   -2.6354    0.8689 C   0  0  0  0  0  0  0  0  0  0  0  0
    2.9334    1.1219    0.8328 C   0  0  0  0  0  0  0  0  0  0  0  0
   -7.1684   -3.8692    0.9097 C   0  0  0  0  0  0  0  0  0  0  0  0
   -8.2830   -3.8508    0.1006 C   0  0  0  0  0  0  0  0  0  0  0  0
    3.8397    1.6910    1.7275 C   0  0  0  0  0  0  0  0  0  0  0  0
    3.2770   -0.0348    0.1332 C   0  0  0  0  0  0  0  0  0  0  0  0
    5.0898    1.1036    1.9224 C   0  0  0  0  0  0  0  0  0  0  0  0
    4.5271   -0.6223    0.3279 C   0  0  0  0  0  0  0  0  0  0  0  0
    5.4334   -0.0531    1.2225 C   0  0  0  0  0  0  0  0  0  0  0  0
    7.3560   -1.0336    0.2928 C   0  0  0  0  0  0  0  0  0  0  0  0
    7.4441   -0.1938   -0.8174 C   0  0  0  0  0  0  0  0  0  0  0  0
    7.9761   -2.2828    0.2731 C   0  0  0  0  0  0  0  0  0  0  0  0
    8.1522   -0.6032   -1.9474 C   0  0  0  0  0  0  0  0  0  0  0  0
    8.6843   -2.6923   -0.8568 C   0  0  0  0  0  0  0  0  0  0  0  0
    8.7722   -1.8524   -1.9670 C   0  0  0  0  0  0  0  0  0  0  0  0
   -4.0537    0.6842   -1.7743 H   0  0  0  0  0  0  0  0  0  0  0  0
   -2.3535   -0.0266   -0.1483 H   0  0  0  0  0  0  0  0  0  0  0  0
   -5.7415    2.0991   -0.1251 H   0  0  0  0  0  0  0  0  0  0  0  0
   -1.2729    1.3856   -1.8328 H   0  0  0  0  0  0  0  0  0  0  0  0
   -4.1521    3.0038    1.3636 H   0  0  0  0  0  0  0  0  0  0  0  0
   -4.5476    1.5379    2.2831 H   0  0  0  0  0  0  0  0  0  0  0  0
   -2.3462    3.8474   -0.4205 H   0  0  0  0  0  0  0  0  0  0  0  0
   -1.9232    3.6289   -2.1233 H   0  0  0  0  0  0  0  0  0  0  0  0
   -4.9584   -0.5258    0.9606 H   0  0  0  0  0  0  0  0  0  0  0  0
    1.4831    2.5566    1.1797 H   0  0  0  0  0  0  0  0  0  0  0  0
   -5.5544   -2.4566    1.4380 H   0  0  0  0  0  0  0  0  0  0  0  0
   -6.8775   -4.7267    1.5024 H   0  0  0  0  0  0  0  0  0  0  0  0
   -8.9973   -4.6466   -0.0566 H   0  0  0  0  0  0  0  0  0  0  0  0
    3.5843    2.5921    2.2792 H   0  0  0  0  0  0  0  0  0  0  0  0
    2.6258   -0.5345   -0.5703 H   0  0  0  0  0  0  0  0  0  0  0  0
    5.7917    1.5514    2.6206 H   0  0  0  0  0  0  0  0  0  0  0  0
    4.7596   -1.5364   -0.2124 H   0  0  0  0  0  0  0  0  0  0  0  0
    6.9894    0.7932   -0.8210 H   0  0  0  0  0  0  0  0  0  0  0  0
    7.9102   -2.9412    1.1348 H   0  0  0  0  0  0  0  0  0  0  0  0
    8.2251    0.0526   -2.8100 H   0  0  0  0  0  0  0  0  0  0  0  0
    9.1673   -3.6649   -0.8721 H   0  0  0  0  0  0  0  0  0  0  0  0
    9.3246   -2.1707   -2.8463 H   0  0  0  0  0  0  0  0  0  0  0  0
  1 18  1  0  0  0  0
  1 22  1  0  0  0  0
  2 11  1  0  0  0  0
  2 14  1  0  0  0  0
  3 10  1  0  0  0  0
  3 15  1  0  0  0  0
  4 13  1  0  0  0  0
  4 17  1  0  0  0  0
  5 16  2  0  0  0  0
  6 17  2  0  0  0  0
  7 27  1  0  0  0  0
  7 28  1  0  0  0  0
  8 12  1  0  0  0  0
  8 16  1  0  0  0  0
  8 42  1  0  0  0  0
  9 17  1  0  0  0  0
  9 20  1  0  0  0  0
  9 43  1  0  0  0  0
 10 11  1  0  0  0  0
 10 12  1  0  0  0  0
 10 34  1  0  0  0  0
 11 13  1  0  0  0  0
 11 35  1  0  0  0  0
 12 14  1  0  0  0  0
 12 36  1  0  0  0  0
 13 15  1  0  0  0  0
 13 37  1  0  0  0  0
 14 38  1  0  0  0  0
 14 39  1  0  0  0  0
 15 40  1  0  0  0  0
 15 41  1  0  0  0  0
 16 18  1  0  0  0  0
 18 19  2  0  0  0  0
 19 21  1  0  0  0  0
 19 44  1  0  0  0  0
 20 23  2  0  0  0  0
 20 24  1  0  0  0  0
 21 22  2  0  0  0  0
 21 45  1  0  0  0  0
 22 46  1  0  0  0  0
 23 25  1  0  0  0  0
 23 47  1  0  0  0  0
 24 26  2  0  0  0  0
 24 48  1  0  0  0  0
 25 27  2  0  0  0  0
 25 49  1  0  0  0  0
 26 27  1  0  0  0  0
 26 50  1  0  0  0  0
 28 29  2  0  0  0  0
 28 30  1  0  0  0  0
 29 31  1  0  0  0  0
 29 51  1  0  0  0  0
 30 32  2  0  0  0  0
 30 52  1  0  0  0  0
 31 33  2  0  0  0  0
 31 53  1  0  0  0  0
 32 33  1  0  0  0  0
 32 54  1  0  0  0  0
 33 55  1  0  0  0  0
M  END
> <PUBCHEM_COMPOUND_CID>
11884021

> <PUBCHEM_CONFORMER_RMSD>
1

> <PUBCHEM_CONFORMER_DIVERSEORDER>
1
100
103
79
113
61
63
102
53
50
105
93
40
92
68
75
87
49
112
73
31
111
26
55
96
5
52
106
23
88
70
91
62
69
64
74
30
19
95
85
47
16
97
108
51
44
41
43
11
25
81
90
78
36
107
37
101
57
110
48
65
7
98
94
83
22
42
104
60
89
6
38
33
28
76
82
8
17
67
71
35
29
77
72
12
109
3
34
58
32
4
20
56
84
45
46
66
14
10
80
2
99
18
59
86
39
21
9
15
27
13
24
54

> <PUBCHEM_MMFF94_PARTIAL_CHARGES>
47
1 -0.08
10 0.28
11 0.28
12 0.3
13 0.28
14 0.28
15 0.28
16 0.71
17 0.78
18 -0.05
19 -0.15
2 -0.56
20 0.12
21 -0.15
22 -0.11
23 -0.15
24 -0.15
25 -0.15
26 -0.15
27 0.08
28 0.08
29 -0.15
3 -0.56
30 -0.15
31 -0.15
32 -0.15
33 -0.15
4 -0.43
42 0.37
43 0.37
44 0.15
45 0.15
46 0.15
47 0.15
48 0.15
49 0.15
5 -0.57
50 0.15
51 0.15
52 0.15
53 0.15
54 0.15
55 0.15
6 -0.57
7 -0.17
8 -0.73
9 -0.55

> <PUBCHEM_EFFECTIVE_ROTOR_COUNT>
10.2

> <PUBCHEM_PHARMACOPHORE_FEATURES>
12
1 2 acceptor
1 3 acceptor
1 5 acceptor
1 6 acceptor
1 7 acceptor
1 8 donor
1 9 donor
5 1 18 19 21 22 rings
5 2 10 11 12 14 rings
5 3 10 11 13 15 rings
6 20 23 24 25 26 27 rings
6 28 29 30 31 32 33 rings

> <PUBCHEM_HEAVY_ATOM_COUNT>
33

> <PUBCHEM_ATOM_DEF_STEREO_COUNT>
4

> <PUBCHEM_ATOM_UDEF_STEREO_COUNT>
0

> <PUBCHEM_BOND_DEF_STEREO_COUNT>
0

> <PUBCHEM_BOND_UDEF_STEREO_COUNT>
0

> <PUBCHEM_ISOTOPIC_ATOM_COUNT>
0

> <PUBCHEM_COMPONENT_COUNT>
1

> <PUBCHEM_CACTVS_TAUTO_COUNT>
4

> <PUBCHEM_CONFORMER_ID>
00B555F500000001

> <PUBCHEM_MMFF94_ENERGY>
97.5476

> <PUBCHEM_FEATURE_SELFOVERLAP>
61.616

> <PUBCHEM_SHAPE_FINGERPRINT>
10258705 36 18343589516833805542
10280341 67 10807669861253770947
10533779 1 11023562259455170171
10625338 131 10664101151198474334
10669705 251 18343304772990947286
10740516 88 18130235861279926742
10952577 141 15576094496815903271
11315181 36 15502669160898196469
11421887 45 9222686440850771075
11456790 92 13038901149229825742
11475781 23 8935006992467845544
11497681 19 18334296504162528156
11607047 74 18119813758090687116
11621639 254 13768198369255303463
11672396 43 18201723967711285466
11761917 116 18334296483030660566
11761917 87 17060068012715741102
11828042 74 17022903459330665355
12539747 164 18409452458503271113
12717326 120 18338807830499614534
12838862 33 14201407106113450382
1361 4 18262796259578051402
13782708 43 18411973672065066281
14344974 204 18270959176000792623
15392192 29 17749403555206370681
15455200 90 17387106760763394343
15461852 350 18113338587541409271
15510800 12 18343024401746621159
16067689 68 18271540779793291811
16989713 51 18260825991017893125
16991971 28 18260831526687600221
16992779 147 16628539548351455952
16993089 31 18342454824790102534
16994733 274 10015866487419922559
1818759 1 18260834808612372171
19302320 297 11743838092445466427
20105231 36 17846219939220030654
20609170 94 18118692243840611300
20982279 24 17489038059182445926
212700 22 18338786944928319667
21424621 283 11023837197280061437
21585481 151 18413673500251667563
21756936 100 10447927274875338645
21774942 28 10231756686935396690
21781051 124 18343869918352573742
23389318 12 17748830747949200286
23569943 247 17978792312362146514
23576562 1 16081664394856285527
25242607 90 18266169708098133747
255183 451 18187364367439001556
2747138 104 18202559566885012312
2851757 41 18263647424393610659
306946 40 12540699258367814806
3918712 181 7925914764317397686
393628 179 9583523088431521715
3991529 202 11815350243881938324
44802255 64 12540699224066241897
4516262 110 10447385185741228153
45377200 153 18409172125507910826
4625314 4 18408602561241426525
4760202 70 18042413585275742308
49967989 163 17240773929572072355
5028188 123 18409454657135948116
504579 68 16805327690945690916
54076057 127 18059570343837042280
5718773 13 18262230132044318689
5937810 71 12107776381948225759
6289498 60 10592044678331880558
636775 8 18410860941092124278
9896288 288 18058735693930475529
999808 66 18131628985002269541

> <PUBCHEM_SHAPE_MULTIPOLES>
637.8
33.63
4
1.61
14.3
2.37
0.05
38.69
5.77
-7.77
0.18
2.41
-0.34
3.84

> <PUBCHEM_SHAPE_SELFOVERLAP>
1383.553

> <PUBCHEM_SHAPE_VOLUME>
348.9

> <PUBCHEM_COORDINATE_TYPE>
2
5
10

$$$$
