11883404
  -OEChem-12032416193D

 48 50  0     1  0  0  0  0  0999 V2000
    8.0966   -0.9285    0.6927 F   0  0  0  0  0  0  0  0  0  0  0  0
    7.4574    1.1426    0.6137 F   0  0  0  0  0  0  0  0  0  0  0  0
    6.8340   -0.1223    2.2690 F   0  0  0  0  0  0  0  0  0  0  0  0
   -1.9488    0.8020    1.2351 O   0  0  0  0  0  0  0  0  0  0  0  0
   -3.2143    2.3396   -1.0970 O   0  0  0  0  0  0  0  0  0  0  0  0
    0.1661    1.3233   -0.4860 O   0  0  0  0  0  0  0  0  0  0  0  0
   -6.9466    0.3234   -0.0178 O   0  0  0  0  0  0  0  0  0  0  0  0
    0.7785   -0.5348   -1.6701 O   0  0  0  0  0  0  0  0  0  0  0  0
   -4.8992   -0.1956    0.9474 N   0  0  0  0  0  0  0  0  0  0  0  0
   -6.5910   -1.7557    0.9490 N   0  0  0  0  0  0  0  0  0  0  0  0
    2.2867    0.5852   -0.2733 N   0  0  0  0  0  0  0  0  0  0  0  0
   -3.4428    1.0062   -0.5952 C   0  0  1  0  0  0  0  0  0  0  0  0
   -2.0971    0.4660   -0.1546 C   0  0  1  0  0  0  0  0  0  0  0  0
   -4.2464    1.0634    0.6831 C   0  0  2  0  0  0  0  0  0  0  0  0
   -1.1346    1.2399   -1.0231 C   0  0  1  0  0  0  0  0  0  0  0  0
   -3.1787    1.3612    1.7217 C   0  0  0  0  0  0  0  0  0  0  0  0
   -1.8020    2.5939   -1.1110 C   0  0  0  0  0  0  0  0  0  0  0  0
   -6.2135   -0.4694    0.5720 C   0  0  0  0  0  0  0  0  0  0  0  0
    1.0692    0.3604   -0.8862 C   0  0  0  0  0  0  0  0  0  0  0  0
   -7.9031   -2.2962    0.6815 C   0  0  0  0  0  0  0  0  0  0  0  0
    3.4789   -0.1625   -0.4055 C   0  0  0  0  0  0  0  0  0  0  0  0
   -8.0217   -2.7831   -0.7479 C   0  0  0  0  0  0  0  0  0  0  0  0
    4.6226    0.2167    0.2973 C   0  0  0  0  0  0  0  0  0  0  0  0
    3.5114   -1.2801   -1.2393 C   0  0  0  0  0  0  0  0  0  0  0  0
    5.7986   -0.5216    0.1660 C   0  0  0  0  0  0  0  0  0  0  0  0
    4.6874   -2.0186   -1.3705 C   0  0  0  0  0  0  0  0  0  0  0  0
    5.8311   -1.6393   -0.6678 C   0  0  0  0  0  0  0  0  0  0  0  0
    7.0214   -0.1160    0.9169 C   0  0  0  0  0  0  0  0  0  0  0  0
   -3.9020    0.4227   -1.3994 H   0  0  0  0  0  0  0  0  0  0  0  0
   -1.9980   -0.6194   -0.2466 H   0  0  0  0  0  0  0  0  0  0  0  0
   -5.0031    1.8553    0.6724 H   0  0  0  0  0  0  0  0  0  0  0  0
   -1.1321    0.8122   -2.0353 H   0  0  0  0  0  0  0  0  0  0  0  0
   -3.3975    0.9497    2.7118 H   0  0  0  0  0  0  0  0  0  0  0  0
   -3.0234    2.4409    1.8242 H   0  0  0  0  0  0  0  0  0  0  0  0
   -1.5347    3.1312   -2.0260 H   0  0  0  0  0  0  0  0  0  0  0  0
   -1.5499    3.2382   -0.2612 H   0  0  0  0  0  0  0  0  0  0  0  0
   -4.3569   -0.9424    1.3715 H   0  0  0  0  0  0  0  0  0  0  0  0
   -5.9140   -2.3438    1.4249 H   0  0  0  0  0  0  0  0  0  0  0  0
    2.3345    1.3868    0.3509 H   0  0  0  0  0  0  0  0  0  0  0  0
   -8.6519   -1.5218    0.8788 H   0  0  0  0  0  0  0  0  0  0  0  0
   -8.0672   -3.1221    1.3804 H   0  0  0  0  0  0  0  0  0  0  0  0
   -9.0131   -3.2116   -0.9238 H   0  0  0  0  0  0  0  0  0  0  0  0
   -7.2727   -3.5528   -0.9624 H   0  0  0  0  0  0  0  0  0  0  0  0
   -7.8722   -1.9665   -1.4616 H   0  0  0  0  0  0  0  0  0  0  0  0
    4.6011    1.0878    0.9484 H   0  0  0  0  0  0  0  0  0  0  0  0
    2.6668   -1.6340   -1.8140 H   0  0  0  0  0  0  0  0  0  0  0  0
    4.7138   -2.8891   -2.0197 H   0  0  0  0  0  0  0  0  0  0  0  0
    6.7375   -2.2271   -0.7831 H   0  0  0  0  0  0  0  0  0  0  0  0
  1 28  1  0  0  0  0
  2 28  1  0  0  0  0
  3 28  1  0  0  0  0
  4 13  1  0  0  0  0
  4 16  1  0  0  0  0
  5 12  1  0  0  0  0
  5 17  1  0  0  0  0
  6 15  1  0  0  0  0
  6 19  1  0  0  0  0
  7 18  2  0  0  0  0
  8 19  2  0  0  0  0
  9 14  1  0  0  0  0
  9 18  1  0  0  0  0
  9 37  1  0  0  0  0
 10 18  1  0  0  0  0
 10 20  1  0  0  0  0
 10 38  1  0  0  0  0
 11 19  1  0  0  0  0
 11 21  1  0  0  0  0
 11 39  1  0  0  0  0
 12 13  1  0  0  0  0
 12 14  1  0  0  0  0
 12 29  1  0  0  0  0
 13 15  1  0  0  0  0
 13 30  1  0  0  0  0
 14 16  1  0  0  0  0
 14 31  1  0  0  0  0
 15 17  1  0  0  0  0
 15 32  1  0  0  0  0
 16 33  1  0  0  0  0
 16 34  1  0  0  0  0
 17 35  1  0  0  0  0
 17 36  1  0  0  0  0
 20 22  1  0  0  0  0
 20 40  1  0  0  0  0
 20 41  1  0  0  0  0
 21 23  1  0  0  0  0
 21 24  2  0  0  0  0
 22 42  1  0  0  0  0
 22 43  1  0  0  0  0
 22 44  1  0  0  0  0
 23 25  2  0  0  0  0
 23 45  1  0  0  0  0
 24 26  1  0  0  0  0
 24 46  1  0  0  0  0
 25 27  1  0  0  0  0
 25 28  1  0  0  0  0
 26 27  2  0  0  0  0
 26 47  1  0  0  0  0
 27 48  1  0  0  0  0
M  END
> <PUBCHEM_COMPOUND_CID>
11883404

> <PUBCHEM_CONFORMER_RMSD>
1

> <PUBCHEM_CONFORMER_DIVERSEORDER>
1
106
149
152
132
38
153
159
162
81
181
76
121
39
130
127
90
158
131
143
146
43
108
59
178
114
144
11
71
151
124
134
87
8
74
172
179
147
104
128
79
123
180
42
97
103
46
122
154
165
77
52
57
13
21
126
138
15
85
47
145
109
31
19
20
14
61
94
7
35
166
116
23
136
60
112
171
100
140
137
70
73
12
75
80
118
105
167
129
170
176
120
37
111
175
157
24
110
101
163
40
89
65
135
117
155
10
54
139
44
53
18
55
16
67
148
22
177
68
125
51
169
27
88
185
4
173
86
164
48
33
30
64
78
25
174
50
58
113
150
83
66
93
36
17
168
115
62
63
99
161
26
107
9
160
119
49
142
182
41
32
98
96
56
183
29
84
45
82
141
34
2
102
95
72
133
69
92
91
6
3
5
184
156
28

> <PUBCHEM_MMFF94_PARTIAL_CHARGES>
34
1 -0.34
10 -0.73
11 -0.55
12 0.28
13 0.28
14 0.3
15 0.28
16 0.28
17 0.28
18 0.69
19 0.78
2 -0.34
20 0.3
21 0.12
23 -0.15
24 -0.15
25 -0.14
26 -0.15
27 -0.15
28 1.16
3 -0.34
37 0.37
38 0.37
39 0.37
4 -0.56
45 0.15
46 0.15
47 0.15
48 0.15
5 -0.56
6 -0.43
7 -0.57
8 -0.57
9 -0.73

> <PUBCHEM_EFFECTIVE_ROTOR_COUNT>
10.2

> <PUBCHEM_PHARMACOPHORE_FEATURES>
10
1 10 donor
1 11 donor
1 4 acceptor
1 5 acceptor
1 7 acceptor
1 8 acceptor
1 9 donor
5 4 12 13 14 16 rings
5 5 12 13 15 17 rings
6 21 23 24 25 26 27 rings

> <PUBCHEM_HEAVY_ATOM_COUNT>
28

> <PUBCHEM_ATOM_DEF_STEREO_COUNT>
4

> <PUBCHEM_ATOM_UDEF_STEREO_COUNT>
0

> <PUBCHEM_BOND_DEF_STEREO_COUNT>
0

> <PUBCHEM_BOND_UDEF_STEREO_COUNT>
0

> <PUBCHEM_ISOTOPIC_ATOM_COUNT>
0

> <PUBCHEM_COMPONENT_COUNT>
1

> <PUBCHEM_CACTVS_TAUTO_COUNT>
6

> <PUBCHEM_CONFORMER_ID>
00B5538C00000001

> <PUBCHEM_MMFF94_ENERGY>
60.4739

> <PUBCHEM_FEATURE_SELFOVERLAP>
51.514

> <PUBCHEM_SHAPE_FINGERPRINT>
10 15 16271930398302553057
10369192 42 9871753477847482577
106641 1 18273214222792928592
10670039 82 13912593967145261615
10674148 151 17894629259017108505
11135926 11 15864070953994477561
11315181 36 15936423220831998044
12596602 18 17916873413073281738
13073987 5 17774445971330493816
13177829 20 17989208156997642218
13782708 43 18409735023499068363
13914758 101 13912317954348507975
14068700 675 17603589634007301021
14251764 18 16056592149302998189
14556957 393 15430046418104820663
14849402 71 16844999221685593984
15183329 4 13117995613363587951
15188451 53 17749390364670415566
15461852 350 17822011991141327110
15510800 12 18263102027686412243
15728490 51 18131069376470640407
17857418 61 15430042020321870448
190975 80 18412826902057547048
19303781 99 18191585475190149359
20028762 73 18408612456650988575
20105231 36 18201446827665566494
21095123 293 12967138220018709987
21130935 74 18200318710442398302
21315764 119 12396303659786265570
21424621 283 10231764375180103279
21623969 137 18201721713433814214
22149856 69 18200611210351783456
22224240 67 17703788115365733447
22864921 47 18041264509377587426
23081809 10 16009324102055497260
23389318 12 17895765100865621014
23559900 14 15937272121250071133
23576562 1 11386948752259056971
29717793 49 14056725626035302158
3383291 50 18261962937771590651
3663271 9 17632303323894142250
3711267 37 14476962302623248890
38570 142 9007067851002509359
397830 11 18131636668456201509
5104073 3 18056762027334137640
54076057 127 17275109402065855054
5718773 13 18261114106104005875
5758199 1 12247684864178900149
59682541 35 18272366507901971914
59682541 52 13840258208542501177
5969126 39 18040431088765220885
6698420 124 17764592019628040885
9689198 14 10375877385554682327
9953998 17 17203892981477813855

> <PUBCHEM_SHAPE_MULTIPOLES>
510.12
25.13
2.37
1.48
1.64
0.61
-0.26
16.95
-8.88
-4.14
0.71
0.7
-0.15
1.3

> <PUBCHEM_SHAPE_SELFOVERLAP>
1082.826

> <PUBCHEM_SHAPE_VOLUME>
285.9

> <PUBCHEM_COORDINATE_TYPE>
2
5
10

$$$$
