38029498
  -OEChem-12032416203D

 61 63  0     1  0  0  0  0  0999 V2000
   -2.1193   -5.7340   -0.7232 F   0  0  0  0  0  0  0  0  0  0  0  0
    3.0717    1.9103   -0.3746 O   0  0  0  0  0  0  0  0  0  0  0  0
   -3.6960   -0.2279    1.9166 O   0  0  0  0  0  0  0  0  0  0  0  0
   -3.3041    0.4951   -0.2536 N   0  0  0  0  0  0  0  0  0  0  0  0
    2.8896   -0.4297   -0.4670 N   0  0  0  0  0  0  0  0  0  0  0  0
    4.3885   -2.1967    0.0685 N   0  0  0  0  0  0  0  0  0  0  0  0
   -1.1786    2.4328    0.6246 C   0  0  1  0  0  0  0  0  0  0  0  0
   -2.3416    2.7339   -0.3535 C   0  0  1  0  0  0  0  0  0  0  0  0
    0.1502    2.9506    0.0532 C   0  0  0  0  0  0  0  0  0  0  0  0
    0.4837    2.3181   -1.3111 C   0  0  2  0  0  0  0  0  0  0  0  0
   -1.4237    3.0474    2.0062 C   0  0  0  0  0  0  0  0  0  0  0  0
   -0.7081    2.3365   -2.2467 C   0  0  0  0  0  0  0  0  0  0  0  0
   -1.9615    2.5371   -1.8024 C   0  0  0  0  0  0  0  0  0  0  0  0
   -3.5729    1.8807   -0.0281 C   0  0  0  0  0  0  0  0  0  0  0  0
    1.0267    0.8948   -1.1422 C   0  0  0  0  0  0  0  0  0  0  0  0
   -1.0408    4.5238    2.0071 C   0  0  0  0  0  0  0  0  0  0  0  0
   -0.6442    2.2856    3.0734 C   0  0  0  0  0  0  0  0  0  0  0  0
   -0.4210    2.1644   -3.7124 C   0  0  0  0  0  0  0  0  0  0  0  0
    2.4483    0.8819   -0.6162 C   0  0  0  0  0  0  0  0  0  0  0  0
   -3.3878   -0.4673    0.7521 C   0  0  0  0  0  0  0  0  0  0  0  0
   -3.0517   -1.8608    0.3620 C   0  0  0  0  0  0  0  0  0  0  0  0
    4.1533   -0.8674   -0.0042 C   0  0  0  0  0  0  0  0  0  0  0  0
   -3.6125   -2.9334    1.0554 C   0  0  0  0  0  0  0  0  0  0  0  0
   -2.1760   -2.0969   -0.6977 C   0  0  0  0  0  0  0  0  0  0  0  0
    5.0764    0.1041    0.3477 C   0  0  0  0  0  0  0  0  0  0  0  0
   -3.2975   -4.2419    0.6892 C   0  0  0  0  0  0  0  0  0  0  0  0
   -1.8608   -3.4053   -1.0639 C   0  0  0  0  0  0  0  0  0  0  0  0
    6.3212   -0.3158    0.8033 C   0  0  0  0  0  0  0  0  0  0  0  0
   -2.4215   -4.4778   -0.3705 C   0  0  0  0  0  0  0  0  0  0  0  0
    5.6093   -2.5669    0.5159 C   0  0  0  0  0  0  0  0  0  0  0  0
    6.6007   -1.6750    0.8920 C   0  0  0  0  0  0  0  0  0  0  0  0
   -1.0934    1.3468    0.7459 H   0  0  0  0  0  0  0  0  0  0  0  0
   -2.6395    3.7855   -0.2562 H   0  0  0  0  0  0  0  0  0  0  0  0
    0.9711    2.7890    0.7586 H   0  0  0  0  0  0  0  0  0  0  0  0
    0.0991    4.0322   -0.1271 H   0  0  0  0  0  0  0  0  0  0  0  0
    1.2621    2.9460   -1.7669 H   0  0  0  0  0  0  0  0  0  0  0  0
   -2.4823    2.9719    2.2753 H   0  0  0  0  0  0  0  0  0  0  0  0
   -2.7735    2.5872   -2.5253 H   0  0  0  0  0  0  0  0  0  0  0  0
   -4.4043    2.1501   -0.6909 H   0  0  0  0  0  0  0  0  0  0  0  0
   -3.9253    2.0452    0.9937 H   0  0  0  0  0  0  0  0  0  0  0  0
    1.0512    0.3727   -2.1066 H   0  0  0  0  0  0  0  0  0  0  0  0
    0.3968    0.2963   -0.4748 H   0  0  0  0  0  0  0  0  0  0  0  0
    0.0418    4.6878    1.9880 H   0  0  0  0  0  0  0  0  0  0  0  0
   -1.3950    4.9863    2.9368 H   0  0  0  0  0  0  0  0  0  0  0  0
   -1.5054    5.0818    1.1888 H   0  0  0  0  0  0  0  0  0  0  0  0
    0.4372    2.3327    2.9126 H   0  0  0  0  0  0  0  0  0  0  0  0
   -0.9384    1.2306    3.0947 H   0  0  0  0  0  0  0  0  0  0  0  0
   -0.8475    2.7028    4.0659 H   0  0  0  0  0  0  0  0  0  0  0  0
    0.3126    2.9056   -4.0456 H   0  0  0  0  0  0  0  0  0  0  0  0
   -1.3196    2.2958   -4.3249 H   0  0  0  0  0  0  0  0  0  0  0  0
   -0.0271    1.1657   -3.9209 H   0  0  0  0  0  0  0  0  0  0  0  0
   -3.1331    0.2067   -1.2112 H   0  0  0  0  0  0  0  0  0  0  0  0
    2.2519   -1.1838   -0.7109 H   0  0  0  0  0  0  0  0  0  0  0  0
   -4.3004   -2.7696    1.8808 H   0  0  0  0  0  0  0  0  0  0  0  0
   -1.6968   -1.2895   -1.2439 H   0  0  0  0  0  0  0  0  0  0  0  0
    4.9336    1.1712    0.3065 H   0  0  0  0  0  0  0  0  0  0  0  0
   -3.7347   -5.0774    1.2280 H   0  0  0  0  0  0  0  0  0  0  0  0
   -1.1740   -3.5897   -1.8849 H   0  0  0  0  0  0  0  0  0  0  0  0
    7.0734    0.4135    1.0893 H   0  0  0  0  0  0  0  0  0  0  0  0
    5.7772   -3.6377    0.5665 H   0  0  0  0  0  0  0  0  0  0  0  0
    7.5641   -2.0251    1.2443 H   0  0  0  0  0  0  0  0  0  0  0  0
  1 29  1  0  0  0  0
  2 19  2  0  0  0  0
  3 20  2  0  0  0  0
  4 14  1  0  0  0  0
  4 20  1  0  0  0  0
  4 52  1  0  0  0  0
  5 19  1  0  0  0  0
  5 22  1  0  0  0  0
  5 53  1  0  0  0  0
  6 22  1  0  0  0  0
  6 30  2  0  0  0  0
  7  8  1  0  0  0  0
  7  9  1  0  0  0  0
  7 11  1  0  0  0  0
  7 32  1  0  0  0  0
  8 13  1  0  0  0  0
  8 14  1  0  0  0  0
  8 33  1  0  0  0  0
  9 10  1  0  0  0  0
  9 34  1  0  0  0  0
  9 35  1  0  0  0  0
 10 12  1  0  0  0  0
 10 15  1  0  0  0  0
 10 36  1  0  0  0  0
 11 16  1  0  0  0  0
 11 17  1  0  0  0  0
 11 37  1  0  0  0  0
 12 13  2  0  0  0  0
 12 18  1  0  0  0  0
 13 38  1  0  0  0  0
 14 39  1  0  0  0  0
 14 40  1  0  0  0  0
 15 19  1  0  0  0  0
 15 41  1  0  0  0  0
 15 42  1  0  0  0  0
 16 43  1  0  0  0  0
 16 44  1  0  0  0  0
 16 45  1  0  0  0  0
 17 46  1  0  0  0  0
 17 47  1  0  0  0  0
 17 48  1  0  0  0  0
 18 49  1  0  0  0  0
 18 50  1  0  0  0  0
 18 51  1  0  0  0  0
 20 21  1  0  0  0  0
 21 23  2  0  0  0  0
 21 24  1  0  0  0  0
 22 25  2  0  0  0  0
 23 26  1  0  0  0  0
 23 54  1  0  0  0  0
 24 27  2  0  0  0  0
 24 55  1  0  0  0  0
 25 28  1  0  0  0  0
 25 56  1  0  0  0  0
 26 29  2  0  0  0  0
 26 57  1  0  0  0  0
 27 29  1  0  0  0  0
 27 58  1  0  0  0  0
 28 31  2  0  0  0  0
 28 59  1  0  0  0  0
 30 31  1  0  0  0  0
 30 60  1  0  0  0  0
 31 61  1  0  0  0  0
M  END
> <PUBCHEM_COMPOUND_CID>
38029498

> <PUBCHEM_CONFORMER_RMSD>
1

> <PUBCHEM_CONFORMER_DIVERSEORDER>
1
85
101
113
93
74
7
130
142
112
100
79
60
36
45
149
54
121
147
73
111
25
33
5
152
39
69
116
75
44
136
154
48
3
77
83
46
122
159
95
8
10
108
78
129
105
104
52
139
114
67
166
151
18
126
157
49
17
87
65
50
76
163
16
66
123
141
12
86
99
13
135
140
80
132
125
153
55
43
98
106
38
31
118
90
56
47
72
32
81
29
35
57
109
155
82
92
26
23
63
124
115
145
162
120
161
15
94
62
2
64
84
14
128
9
6
144
134
89
160
88
37
143
156
53
11
27
30
117
28
133
148
97
131
146
61
150
19
137
91
102
110
68
21
96
107
41
40
165
59
103
42
22
71
70
20
4
51
164
24
34
119
127
158
138
58

> <PUBCHEM_MMFF94_PARTIAL_CHARGES>
37
1 -0.19
10 0.14
12 -0.28
13 -0.29
14 0.3
15 0.06
18 0.14
19 0.57
2 -0.57
20 0.54
21 0.09
22 0.43
23 -0.15
24 -0.15
25 -0.15
26 -0.15
27 -0.15
28 -0.15
29 0.19
3 -0.57
30 0.16
31 -0.15
38 0.15
4 -0.73
5 -0.55
52 0.37
53 0.37
54 0.15
55 0.15
56 0.15
57 0.15
58 0.15
59 0.15
6 -0.62
60 0.15
61 0.15
8 0.14

> <PUBCHEM_EFFECTIVE_ROTOR_COUNT>
9.8

> <PUBCHEM_PHARMACOPHORE_FEATURES>
9
1 2 acceptor
1 3 acceptor
1 4 donor
1 5 donor
1 6 acceptor
3 11 16 17 hydrophobe
6 21 23 24 26 27 29 rings
6 6 22 25 28 30 31 rings
6 7 8 9 10 12 13 rings

> <PUBCHEM_HEAVY_ATOM_COUNT>
31

> <PUBCHEM_ATOM_DEF_STEREO_COUNT>
3

> <PUBCHEM_ATOM_UDEF_STEREO_COUNT>
0

> <PUBCHEM_BOND_DEF_STEREO_COUNT>
0

> <PUBCHEM_BOND_UDEF_STEREO_COUNT>
0

> <PUBCHEM_ISOTOPIC_ATOM_COUNT>
0

> <PUBCHEM_COMPONENT_COUNT>
1

> <PUBCHEM_CACTVS_TAUTO_COUNT>
6

> <PUBCHEM_CONFORMER_ID>
024448BA00000001

> <PUBCHEM_MMFF94_ENERGY>
78.6869

> <PUBCHEM_FEATURE_SELFOVERLAP>
45.671

> <PUBCHEM_SHAPE_FINGERPRINT>
10305334 12 17050769223340415040
10483366 6 18264466483135428311
10928967 22 17401511714820243303
11014199 57 18191868044491918318
11285246 1 17823416178864261450
11552529 35 18412260623726069512
12969540 37 17835234923845714961
12977781 61 17765683078774937493
14020679 6 17345195489138212577
14114206 34 15864054482051156901
14674994 50 18334846208863485767
14844126 61 18409165502266770731
14950920 106 18131354120144167560
15968369 26 16748728431510102379
18603816 31 16446416159607519458
19315092 285 16981534556898751011
19319366 153 17038678426318815655
20775530 9 18051425251011504095
21049683 118 16408204788430396153
229767 44 18338806610902559979
3383291 50 18410852136562466235
4616759 239 18129076976334812154
469060 322 17386299683443715840
5080951 261 17969202466238122608
57527452 28 18189343372858198033
6609424 69 11854751821945047830

> <PUBCHEM_SHAPE_MULTIPOLES>
604.01
10.84
7.02
2.39
25.36
6.78
0.59
9.73
-3.93
-8.21
-0.52
-1.5
-3.04
-0.68

> <PUBCHEM_SHAPE_SELFOVERLAP>
1273.193

> <PUBCHEM_SHAPE_VOLUME>
339

> <PUBCHEM_COORDINATE_TYPE>
2
5
10

$$$$
