25390149
  -OEChem-12032416373D

 55 57  0     1  0  0  0  0  0999 V2000
   -7.2667   -0.4335   -1.0322 F   0  0  0  0  0  0  0  0  0  0  0  0
   -5.1720   -1.0535   -1.0915 F   0  0  0  0  0  0  0  0  0  0  0  0
   -6.3049   -1.1233    0.8049 F   0  0  0  0  0  0  0  0  0  0  0  0
    3.3224   -0.0601   -0.6009 O   0  0  0  0  0  0  0  0  0  0  0  0
    6.2506    1.6808    0.5368 O   0  0  0  0  0  0  0  0  0  0  0  0
    6.0632    0.3425   -1.8595 O   0  0  0  0  0  0  0  0  0  0  0  0
    1.5813    3.1438    0.0479 O   0  0  0  0  0  0  0  0  0  0  0  0
    1.5943   -1.6759    1.2070 O   0  0  0  0  0  0  0  0  0  0  0  0
   -5.7336    0.9127   -0.0669 O   0  0  0  0  0  0  0  0  0  0  0  0
    2.8323   -2.8622   -0.3608 N   0  0  0  0  0  0  0  0  0  0  0  0
    0.5953    1.3020    0.8555 N   0  0  0  0  0  0  0  0  0  0  0  0
    0.5650   -3.2481   -0.1541 N   0  0  0  0  0  0  0  0  0  0  0  0
    0.2201    3.2640   -0.2595 N   0  0  0  0  0  0  0  0  0  0  0  0
    5.3349    0.6121    0.4270 C   0  0  2  0  0  0  0  0  0  0  0  0
    5.6804   -0.3629   -0.6795 C   0  0  1  0  0  0  0  0  0  0  0  0
    3.9563    1.0843   -0.0027 C   0  0  2  0  0  0  0  0  0  0  0  0
    4.3363   -1.0325   -0.9435 C   0  0  1  0  0  0  0  0  0  0  0  0
    3.1085    1.5949    1.1486 C   0  0  0  0  0  0  0  0  0  0  0  0
    4.1065   -2.2678   -0.0836 C   0  0  0  0  0  0  0  0  0  0  0  0
    1.7160    1.9612    0.7032 C   0  0  0  0  0  0  0  0  0  0  0  0
    1.6556   -2.5189    0.3129 C   0  0  0  0  0  0  0  0  0  0  0  0
   -0.2942    2.1403    0.2490 C   0  0  0  0  0  0  0  0  0  0  0  0
   -0.7691   -3.0852    0.3738 C   0  0  0  0  0  0  0  0  0  0  0  0
   -1.6910    1.8247    0.1666 C   0  0  0  0  0  0  0  0  0  0  0  0
   -1.2559   -4.3886    0.9936 C   0  0  0  0  0  0  0  0  0  0  0  0
   -1.7197   -2.6026   -0.7147 C   0  0  0  0  0  0  0  0  0  0  0  0
   -2.4936    2.4526   -0.7860 C   0  0  0  0  0  0  0  0  0  0  0  0
   -2.2470    0.8905    1.0404 C   0  0  0  0  0  0  0  0  0  0  0  0
   -3.8521    2.1463   -0.8646 C   0  0  0  0  0  0  0  0  0  0  0  0
   -3.6055    0.5842    0.9619 C   0  0  0  0  0  0  0  0  0  0  0  0
   -4.4081    1.2122    0.0094 C   0  0  0  0  0  0  0  0  0  0  0  0
   -6.1056   -0.4339   -0.3386 C   0  0  0  0  0  0  0  0  0  0  0  0
    5.2849    0.0886    1.3892 H   0  0  0  0  0  0  0  0  0  0  0  0
    6.4920   -1.0480   -0.4188 H   0  0  0  0  0  0  0  0  0  0  0  0
    4.0328    1.8619   -0.7744 H   0  0  0  0  0  0  0  0  0  0  0  0
    4.2021   -1.2801   -2.0030 H   0  0  0  0  0  0  0  0  0  0  0  0
    3.5799    2.4663    1.6170 H   0  0  0  0  0  0  0  0  0  0  0  0
    3.0116    0.8198    1.9189 H   0  0  0  0  0  0  0  0  0  0  0  0
    4.1416   -2.0182    0.9826 H   0  0  0  0  0  0  0  0  0  0  0  0
    4.8712   -3.0244   -0.2867 H   0  0  0  0  0  0  0  0  0  0  0  0
    7.1291    1.2963    0.6971 H   0  0  0  0  0  0  0  0  0  0  0  0
    6.2385   -0.3197   -2.5499 H   0  0  0  0  0  0  0  0  0  0  0  0
    2.7795   -3.5628   -1.0937 H   0  0  0  0  0  0  0  0  0  0  0  0
    0.7135   -3.9232   -0.8981 H   0  0  0  0  0  0  0  0  0  0  0  0
   -0.7496   -2.3247    1.1630 H   0  0  0  0  0  0  0  0  0  0  0  0
   -1.2962   -5.1921    0.2497 H   0  0  0  0  0  0  0  0  0  0  0  0
   -0.5814   -4.7138    1.7933 H   0  0  0  0  0  0  0  0  0  0  0  0
   -2.2566   -4.2696    1.4219 H   0  0  0  0  0  0  0  0  0  0  0  0
   -1.7799   -3.3229   -1.5382 H   0  0  0  0  0  0  0  0  0  0  0  0
   -2.7289   -2.4539   -0.3172 H   0  0  0  0  0  0  0  0  0  0  0  0
   -1.3768   -1.6506   -1.1349 H   0  0  0  0  0  0  0  0  0  0  0  0
   -2.0904    3.1803   -1.4861 H   0  0  0  0  0  0  0  0  0  0  0  0
   -1.6459    0.3891    1.7951 H   0  0  0  0  0  0  0  0  0  0  0  0
   -4.4724    2.6371   -1.6098 H   0  0  0  0  0  0  0  0  0  0  0  0
   -4.0268   -0.1407    1.6531 H   0  0  0  0  0  0  0  0  0  0  0  0
  1 32  1  0  0  0  0
  2 32  1  0  0  0  0
  3 32  1  0  0  0  0
  4 16  1  0  0  0  0
  4 17  1  0  0  0  0
  5 14  1  0  0  0  0
  5 41  1  0  0  0  0
  6 15  1  0  0  0  0
  6 42  1  0  0  0  0
  7 13  1  0  0  0  0
  7 20  1  0  0  0  0
  8 21  2  0  0  0  0
  9 31  1  0  0  0  0
  9 32  1  0  0  0  0
 10 19  1  0  0  0  0
 10 21  1  0  0  0  0
 10 43  1  0  0  0  0
 11 20  2  0  0  0  0
 11 22  1  0  0  0  0
 12 21  1  0  0  0  0
 12 23  1  0  0  0  0
 12 44  1  0  0  0  0
 13 22  2  0  0  0  0
 14 15  1  0  0  0  0
 14 16  1  0  0  0  0
 14 33  1  0  0  0  0
 15 17  1  0  0  0  0
 15 34  1  0  0  0  0
 16 18  1  0  0  0  0
 16 35  1  0  0  0  0
 17 19  1  0  0  0  0
 17 36  1  0  0  0  0
 18 20  1  0  0  0  0
 18 37  1  0  0  0  0
 18 38  1  0  0  0  0
 19 39  1  0  0  0  0
 19 40  1  0  0  0  0
 22 24  1  0  0  0  0
 23 25  1  0  0  0  0
 23 26  1  0  0  0  0
 23 45  1  0  0  0  0
 24 27  2  0  0  0  0
 24 28  1  0  0  0  0
 25 46  1  0  0  0  0
 25 47  1  0  0  0  0
 25 48  1  0  0  0  0
 26 49  1  0  0  0  0
 26 50  1  0  0  0  0
 26 51  1  0  0  0  0
 27 29  1  0  0  0  0
 27 52  1  0  0  0  0
 28 30  2  0  0  0  0
 28 53  1  0  0  0  0
 29 31  2  0  0  0  0
 29 54  1  0  0  0  0
 30 31  1  0  0  0  0
 30 55  1  0  0  0  0
M  END
> <PUBCHEM_COMPOUND_CID>
25390149

> <PUBCHEM_CONFORMER_RMSD>
1

> <PUBCHEM_CONFORMER_DIVERSEORDER>
1
96
27
97
7
115
118
26
18
29
19
66
3
110
39
101
55
31
45
48
90
24
10
121
22
89
106
134
52
83
16
49
119
70
112
23
117
69
109
67
65
131
21
138
32
53
113
132
98
124
28
127
59
125
57
80
84
116
100
38
68
47
56
5
107
93
50
40
95
78
11
123
136
75
108
79
82
20
2
103
129
105
41
30
77
92
120
114
35
130
25
102
104
91
6
88
86
61
64
46
137
94
37
8
139
63
51
60
71
111
17
44
87
54
73
34
122
58
74
33
14
133
76
72
81
43
36
126
13
15
85
42
99
4
12
9
128
135
62

> <PUBCHEM_MMFF94_PARTIAL_CHARGES>
38
1 -0.34
10 -0.73
11 -0.57
12 -0.73
13 -0.41
14 0.28
15 0.28
16 0.28
17 0.28
18 0.18
19 0.3
2 -0.34
20 0.3
21 0.69
22 0.46
23 0.3
24 0.05
27 -0.15
28 -0.15
29 -0.15
3 -0.34
30 -0.15
31 0.08
32 1.3
4 -0.56
41 0.4
42 0.4
43 0.37
44 0.37
5 -0.68
52 0.15
53 0.15
54 0.15
55 0.15
6 -0.68
7 -0.02
8 -0.57
9 -0.36

> <PUBCHEM_EFFECTIVE_ROTOR_COUNT>
11

> <PUBCHEM_PHARMACOPHORE_FEATURES>
14
1 10 donor
1 12 donor
1 4 acceptor
1 5 acceptor
1 5 donor
1 6 acceptor
1 6 donor
1 8 acceptor
1 9 acceptor
3 11 13 22 cation
3 23 25 26 hydrophobe
5 4 14 15 16 17 rings
5 7 11 13 20 22 rings
6 24 27 28 29 30 31 rings

> <PUBCHEM_HEAVY_ATOM_COUNT>
32

> <PUBCHEM_ATOM_DEF_STEREO_COUNT>
4

> <PUBCHEM_ATOM_UDEF_STEREO_COUNT>
0

> <PUBCHEM_BOND_DEF_STEREO_COUNT>
0

> <PUBCHEM_BOND_UDEF_STEREO_COUNT>
0

> <PUBCHEM_ISOTOPIC_ATOM_COUNT>
0

> <PUBCHEM_COMPONENT_COUNT>
1

> <PUBCHEM_CACTVS_TAUTO_COUNT>
9

> <PUBCHEM_CONFORMER_ID>
01836C4500000001

> <PUBCHEM_MMFF94_ENERGY>
66.1871

> <PUBCHEM_FEATURE_SELFOVERLAP>
71.108

> <PUBCHEM_SHAPE_FINGERPRINT>
10316853 100 18410292536034286722
108634 29 18341906168994718566
11135609 187 18411417289480858273
11136131 41 18116144477229802338
12596602 18 17275107214846118680
13402501 40 18411422816739290315
13533116 47 17917991728142278297
1361 2 18410009927502649803
13617811 41 18260829310775249829
14394314 77 18341619179227557489
14931854 50 18411705348462650654
15001296 14 18336818809685012531
15968369 153 18057040426776926899
17492 54 18335149673962163474
17627616 140 18263077725890967931
18608769 82 18337954605455461555
19319366 153 17676480636389703546
19591789 44 18339078181441618467
20028762 73 18202280320568904399
21133410 62 18188190045564620639
21197605 99 18272088335481318430
21344244 181 17846790585464878102
21360443 126 18336267955187957572
23516275 137 17202227194943434647
23559900 14 18409721864479422537
25222932 49 18272082786356724532
338550 245 18336548334230414245
46194498 28 17967813881283374908
463206 1 18340485672732413277
484989 97 18338245868916042194
508706 21 18338234980841345266
59755656 215 18411699897959032899

> <PUBCHEM_SHAPE_MULTIPOLES>
581.58
14.88
4.62
1.11
7.1
3.53
-0.08
-1.09
-3.92
0
0.55
-0.23
0.03
0.76

> <PUBCHEM_SHAPE_SELFOVERLAP>
1229.688

> <PUBCHEM_SHAPE_VOLUME>
328.3

> <PUBCHEM_COORDINATE_TYPE>
2
5
10

$$$$
