26742488
  -OEChem-12032416213D

 67 71  0     1  0  0  0  0  0999 V2000
   -5.4891   -0.3444    2.2472 O   0  0  0  0  0  0  0  0  0  0  0  0
   -1.6137   -2.6058    1.3580 N   0  0  2  0  0  0  0  0  0  0  0  0
   -3.7636    0.4453    0.9115 N   0  0  0  0  0  0  0  0  0  0  0  0
    0.5762   -0.5114   -2.0536 N   0  0  0  0  0  0  0  0  0  0  0  0
    2.6190    0.7630   -1.9517 N   0  0  0  0  0  0  0  0  0  0  0  0
    8.0221    1.3019    1.3132 N   0  0  0  0  0  0  0  0  0  0  0  0
   -1.2577   -2.5515   -1.2214 C   0  0  2  0  0  0  0  0  0  0  0  0
    0.0890   -2.3207   -0.4816 C   0  0  2  0  0  0  0  0  0  0  0  0
   -2.6025   -1.6920    0.7276 C   0  0  2  0  0  0  0  0  0  0  0  0
   -2.2780   -1.4862   -0.7677 C   0  0  0  0  0  0  0  0  0  0  0  0
   -1.7938   -3.9214   -0.7532 C   0  0  0  0  0  0  0  0  0  0  0  0
   -0.2343   -2.1653    1.0319 C   0  0  0  0  0  0  0  0  0  0  0  0
   -1.8152   -3.9583    0.7849 C   0  0  0  0  0  0  0  0  0  0  0  0
   -2.7243   -0.3613    1.4731 C   0  0  0  0  0  0  0  0  0  0  0  0
    1.0096   -1.2210   -0.9912 C   0  0  0  0  0  0  0  0  0  0  0  0
    2.2188   -1.0010   -0.3638 C   0  0  0  0  0  0  0  0  0  0  0  0
    2.9899    0.0141   -0.8924 C   0  0  0  0  0  0  0  0  0  0  0  0
    1.4184    0.4510   -2.4757 C   0  0  0  0  0  0  0  0  0  0  0  0
   -5.0858    0.3900    1.3491 C   0  0  0  0  0  0  0  0  0  0  0  0
    4.2769    0.3437   -0.3282 C   0  0  0  0  0  0  0  0  0  0  0  0
    0.9747    1.2561   -3.6500 C   0  0  0  0  0  0  0  0  0  0  0  0
   -6.0509    1.2729    0.6449 C   0  0  0  0  0  0  0  0  0  0  0  0
    4.3714    0.7515    1.0024 C   0  0  0  0  0  0  0  0  0  0  0  0
    5.4263    0.2539   -1.1135 C   0  0  0  0  0  0  0  0  0  0  0  0
   -7.4000    0.9239    0.5828 C   0  0  0  0  0  0  0  0  0  0  0  0
   -5.6074    2.4517    0.0456 C   0  0  0  0  0  0  0  0  0  0  0  0
    5.6152    1.0697    1.5477 C   0  0  0  0  0  0  0  0  0  0  0  0
    6.6700    0.5722   -0.5682 C   0  0  0  0  0  0  0  0  0  0  0  0
    6.7645    0.9800    0.7622 C   0  0  0  0  0  0  0  0  0  0  0  0
   -8.3055    1.7536   -0.0786 C   0  0  0  0  0  0  0  0  0  0  0  0
   -6.5127    3.2816   -0.6156 C   0  0  0  0  0  0  0  0  0  0  0  0
   -7.8619    2.9324   -0.6778 C   0  0  0  0  0  0  0  0  0  0  0  0
    8.1314    1.7270    2.6945 C   0  0  0  0  0  0  0  0  0  0  0  0
    9.2231    1.2046    0.5075 C   0  0  0  0  0  0  0  0  0  0  0  0
   -1.1363   -2.5403   -2.3097 H   0  0  0  0  0  0  0  0  0  0  0  0
    0.6725   -3.2461   -0.6066 H   0  0  0  0  0  0  0  0  0  0  0  0
   -3.5894   -2.1738    0.7954 H   0  0  0  0  0  0  0  0  0  0  0  0
   -1.8794   -0.4844   -0.9622 H   0  0  0  0  0  0  0  0  0  0  0  0
   -3.1983   -1.5839   -1.3570 H   0  0  0  0  0  0  0  0  0  0  0  0
   -1.1617   -4.7311   -1.1361 H   0  0  0  0  0  0  0  0  0  0  0  0
   -2.8036   -4.0821   -1.1501 H   0  0  0  0  0  0  0  0  0  0  0  0
    0.4756   -2.7672    1.6151 H   0  0  0  0  0  0  0  0  0  0  0  0
   -0.0809   -1.1369    1.3787 H   0  0  0  0  0  0  0  0  0  0  0  0
   -2.7676   -4.3755    1.1345 H   0  0  0  0  0  0  0  0  0  0  0  0
   -1.0410   -4.6399    1.1598 H   0  0  0  0  0  0  0  0  0  0  0  0
   -1.8036    0.2277    1.4139 H   0  0  0  0  0  0  0  0  0  0  0  0
   -2.9403   -0.5384    2.5331 H   0  0  0  0  0  0  0  0  0  0  0  0
   -3.5103    1.0298    0.1222 H   0  0  0  0  0  0  0  0  0  0  0  0
    2.5438   -1.5964    0.4813 H   0  0  0  0  0  0  0  0  0  0  0  0
   -0.1177    1.2996   -3.7022 H   0  0  0  0  0  0  0  0  0  0  0  0
    1.3520    2.2812   -3.5818 H   0  0  0  0  0  0  0  0  0  0  0  0
    1.3520    0.8034   -4.5717 H   0  0  0  0  0  0  0  0  0  0  0  0
    3.4867    0.8329    1.6298 H   0  0  0  0  0  0  0  0  0  0  0  0
    5.3724   -0.0657   -2.1517 H   0  0  0  0  0  0  0  0  0  0  0  0
   -7.7644    0.0075    1.0396 H   0  0  0  0  0  0  0  0  0  0  0  0
   -4.5723    2.7759    0.0970 H   0  0  0  0  0  0  0  0  0  0  0  0
    5.6360    1.3827    2.5868 H   0  0  0  0  0  0  0  0  0  0  0  0
    7.5340    0.4858   -1.2197 H   0  0  0  0  0  0  0  0  0  0  0  0
   -9.3558    1.4816   -0.1276 H   0  0  0  0  0  0  0  0  0  0  0  0
   -6.1692    4.2032   -1.0763 H   0  0  0  0  0  0  0  0  0  0  0  0
   -8.5671    3.5791   -1.1916 H   0  0  0  0  0  0  0  0  0  0  0  0
    7.5654    2.6485    2.8713 H   0  0  0  0  0  0  0  0  0  0  0  0
    7.7829    0.9449    3.3781 H   0  0  0  0  0  0  0  0  0  0  0  0
    9.1696    1.9422    2.9710 H   0  0  0  0  0  0  0  0  0  0  0  0
    9.3849    0.1779    0.1604 H   0  0  0  0  0  0  0  0  0  0  0  0
    9.1783    1.8809   -0.3534 H   0  0  0  0  0  0  0  0  0  0  0  0
   10.1164    1.4849    1.0768 H   0  0  0  0  0  0  0  0  0  0  0  0
  1 19  2  0  0  0  0
  2  9  1  0  0  0  0
  2 12  1  0  0  0  0
  2 13  1  0  0  0  0
  3 14  1  0  0  0  0
  3 19  1  0  0  0  0
  3 48  1  0  0  0  0
  4 15  2  0  0  0  0
  4 18  1  0  0  0  0
  5 17  1  0  0  0  0
  5 18  2  0  0  0  0
  6 29  1  0  0  0  0
  6 33  1  0  0  0  0
  6 34  1  0  0  0  0
  7  8  1  0  0  0  0
  7 10  1  0  0  0  0
  7 11  1  0  0  0  0
  7 35  1  0  0  0  0
  8 12  1  0  0  0  0
  8 15  1  0  0  0  0
  8 36  1  0  0  0  0
  9 10  1  0  0  0  0
  9 14  1  0  0  0  0
  9 37  1  0  0  0  0
 10 38  1  0  0  0  0
 10 39  1  0  0  0  0
 11 13  1  0  0  0  0
 11 40  1  0  0  0  0
 11 41  1  0  0  0  0
 12 42  1  0  0  0  0
 12 43  1  0  0  0  0
 13 44  1  0  0  0  0
 13 45  1  0  0  0  0
 14 46  1  0  0  0  0
 14 47  1  0  0  0  0
 15 16  1  0  0  0  0
 16 17  2  0  0  0  0
 16 49  1  0  0  0  0
 17 20  1  0  0  0  0
 18 21  1  0  0  0  0
 19 22  1  0  0  0  0
 20 23  2  0  0  0  0
 20 24  1  0  0  0  0
 21 50  1  0  0  0  0
 21 51  1  0  0  0  0
 21 52  1  0  0  0  0
 22 25  2  0  0  0  0
 22 26  1  0  0  0  0
 23 27  1  0  0  0  0
 23 53  1  0  0  0  0
 24 28  2  0  0  0  0
 24 54  1  0  0  0  0
 25 30  1  0  0  0  0
 25 55  1  0  0  0  0
 26 31  2  0  0  0  0
 26 56  1  0  0  0  0
 27 29  2  0  0  0  0
 27 57  1  0  0  0  0
 28 29  1  0  0  0  0
 28 58  1  0  0  0  0
 30 32  2  0  0  0  0
 30 59  1  0  0  0  0
 31 32  1  0  0  0  0
 31 60  1  0  0  0  0
 32 61  1  0  0  0  0
 33 62  1  0  0  0  0
 33 63  1  0  0  0  0
 33 64  1  0  0  0  0
 34 65  1  0  0  0  0
 34 66  1  0  0  0  0
 34 67  1  0  0  0  0
M  END
> <PUBCHEM_COMPOUND_CID>
26742488

> <PUBCHEM_CONFORMER_RMSD>
1

> <PUBCHEM_CONFORMER_DIVERSEORDER>
1
18
68
47
113
4
59
61
112
84
114
27
36
71
49
32
81
96
111
88
51
120
99
83
115
16
73
105
64
2
31
66
23
34
103
28
97
107
44
82
53
7
37
29
91
56
106
48
80
75
70
63
109
55
102
119
101
45
118
116
19
72
104
77
94
69
87
100
117
24
17
54
12
92
43
11
110
90
33
62
40
78
46
60
3
6
76
95
42
58
52
14
98
25
35
89
85
50
8
26
65
22
13
86
38
21
79
57
10
20
15
9
5
93
67
74
30
39
41
108

> <PUBCHEM_MMFF94_PARTIAL_CHARGES>
41
1 -0.57
12 0.27
13 0.27
14 0.3
15 0.17
16 -0.15
17 0.31
18 0.48
19 0.54
2 -0.81
21 0.14
22 0.09
23 -0.15
24 -0.15
25 -0.15
26 -0.15
27 -0.15
28 -0.15
29 0.1
3 -0.73
30 -0.15
31 -0.15
32 -0.15
33 0.37
34 0.37
4 -0.62
48 0.37
49 0.15
5 -0.62
53 0.15
54 0.15
55 0.15
56 0.15
57 0.15
58 0.15
59 0.15
6 -0.84
60 0.15
61 0.15
8 0.14
9 0.27

> <PUBCHEM_EFFECTIVE_ROTOR_COUNT>
8.2

> <PUBCHEM_PHARMACOPHORE_FEATURES>
10
1 1 acceptor
1 2 cation
1 3 donor
1 4 acceptor
1 6 cation
3 4 5 18 cation
6 20 23 24 27 28 29 rings
6 22 25 26 30 31 32 rings
6 4 5 15 16 17 18 rings
8 2 7 8 9 10 11 12 13 rings

> <PUBCHEM_HEAVY_ATOM_COUNT>
34

> <PUBCHEM_ATOM_DEF_STEREO_COUNT>
3

> <PUBCHEM_ATOM_UDEF_STEREO_COUNT>
0

> <PUBCHEM_BOND_DEF_STEREO_COUNT>
0

> <PUBCHEM_BOND_UDEF_STEREO_COUNT>
0

> <PUBCHEM_ISOTOPIC_ATOM_COUNT>
0

> <PUBCHEM_COMPONENT_COUNT>
1

> <PUBCHEM_CACTVS_TAUTO_COUNT>
2

> <PUBCHEM_CONFORMER_ID>
01980ED800000001

> <PUBCHEM_MMFF94_ENERGY>
115.5881

> <PUBCHEM_FEATURE_SELFOVERLAP>
50.747

> <PUBCHEM_SHAPE_FINGERPRINT>
10190108 129 16588021274242696528
10305334 12 16805612477721716427
10554248 39 15051472509152391452
11146851 88 18342739628188126344
11374522 165 18189330165728689733
11828042 183 16699736165599558205
12107183 9 17240771712951688910
12403259 118 17822590377618841875
12539747 363 15646773401418563412
13103583 49 16660652898379517082
13150687 139 17988933219357185375
13165054 146 16486966354276977356
13540713 5 17389116825423730734
13673619 4 12396298170860479950
13911987 19 14620804824963937562
14040221 275 14346906449936644061
14767858 380 13542467552885604676
14904525 67 18056475291619738392
14950920 106 16516829124235394323
15289351 153 18129382614470364922
15350500 185 18201996620867764481
15669420 48 16487253288367324957
15684973 49 18194409011732441094
19053607 189 17970644995477168685
19246450 95 17022894619596808317
19304144 158 18262801766833322365
19315958 150 18410014313075858122
195137 95 18408318861170781313
20567600 254 18341335509474299571
21033648 29 18335706017939274991
21304303 282 18342452690772716119
21403212 168 17748826306900541115
21585482 111 17773308140897086912
21859007 373 18189623747795474527
23522609 53 16806753830747316878
25269216 80 17059756898755095309
393628 179 18272082786420943737
4330586 98 13685714182874557557
4366758 6 18410856538671387799
4938544 92 18271525416003897102
5372103 7 17704351048530104273
54039377 194 8142083169695573696
54728670 133 16878765133406000796
58083652 198 16516519053608987900
6009941 240 18272089444331648962
6058803 2 17027145537302344774
636775 8 8862944996357685576
6691757 9 18113885091859709327
6695519 79 18122940602046436555
6697151 62 16985778337106847158
999808 66 12973600045205941832

> <PUBCHEM_SHAPE_MULTIPOLES>
668.93
25.08
3.77
2.39
11
2.91
1.15
-30.28
-11.67
-6.57
-0.06
2.24
-0.68
2.63

> <PUBCHEM_SHAPE_SELFOVERLAP>
1451.102

> <PUBCHEM_SHAPE_VOLUME>
360.7

> <PUBCHEM_COORDINATE_TYPE>
2
5
10

$$$$
