75367809
  -OEChem-12032416383D

 47 48  0     1  0  0  0  0  0999 V2000
    1.0059    3.2895    0.1699 O   0  0  0  0  0  0  0  0  0  0  0  0
    3.0304    0.3168    0.0241 O   0  0  0  0  0  0  0  0  0  0  0  0
    4.4503   -2.0338   -0.5060 O   0  0  0  0  0  0  0  0  0  0  0  0
   -0.6553    0.7110   -0.3937 N   0  0  2  0  0  0  0  0  0  0  0  0
   -4.4912   -1.0270    0.1957 N   0  0  0  0  0  0  0  0  0  0  0  0
   -1.7130   -0.3000   -0.3671 C   0  0  0  0  0  0  0  0  0  0  0  0
   -2.8677    0.1172   -1.2814 C   0  0  0  0  0  0  0  0  0  0  0  0
   -2.2279   -0.5172    1.0587 C   0  0  0  0  0  0  0  0  0  0  0  0
   -4.0268   -0.8789   -1.1906 C   0  0  0  0  0  0  0  0  0  0  0  0
   -3.4080   -1.4924    1.0732 C   0  0  0  0  0  0  0  0  0  0  0  0
    0.6439    0.0888   -0.1160 C   0  0  0  0  0  0  0  0  0  0  0  0
   -0.9778    1.8469    0.4711 C   0  0  0  0  0  0  0  0  0  0  0  0
    1.8082    1.0084    0.2850 C   0  0  2  0  0  0  0  0  0  0  0  0
   -0.3784    3.1294   -0.1071 C   0  0  0  0  0  0  0  0  0  0  0  0
    1.8488    2.3334   -0.4644 C   0  0  0  0  0  0  0  0  0  0  0  0
   -5.6300   -1.9425    0.2590 C   0  0  0  0  0  0  0  0  0  0  0  0
    3.3290   -0.6087    1.0570 C   0  0  0  0  0  0  0  0  0  0  0  0
    4.6197   -1.3291    0.7180 C   0  0  0  0  0  0  0  0  0  0  0  0
    5.6398   -2.7120   -0.8852 C   0  0  0  0  0  0  0  0  0  0  0  0
   -1.3324   -1.2536   -0.7606 H   0  0  0  0  0  0  0  0  0  0  0  0
   -2.5201    0.1703   -2.3209 H   0  0  0  0  0  0  0  0  0  0  0  0
   -3.2485    1.1146   -1.0303 H   0  0  0  0  0  0  0  0  0  0  0  0
   -2.5936    0.3938    1.5438 H   0  0  0  0  0  0  0  0  0  0  0  0
   -1.4374   -0.9197    1.7031 H   0  0  0  0  0  0  0  0  0  0  0  0
   -4.8458   -0.5075   -1.8187 H   0  0  0  0  0  0  0  0  0  0  0  0
   -3.7138   -1.8469   -1.6039 H   0  0  0  0  0  0  0  0  0  0  0  0
   -3.0634   -2.4909    0.7729 H   0  0  0  0  0  0  0  0  0  0  0  0
   -3.7741   -1.5729    2.1042 H   0  0  0  0  0  0  0  0  0  0  0  0
    0.5396   -0.6589    0.6797 H   0  0  0  0  0  0  0  0  0  0  0  0
    0.9386   -0.4798   -1.0089 H   0  0  0  0  0  0  0  0  0  0  0  0
   -0.6491    1.6916    1.5060 H   0  0  0  0  0  0  0  0  0  0  0  0
   -2.0536    2.0527    0.4855 H   0  0  0  0  0  0  0  0  0  0  0  0
    1.7341    1.2355    1.3579 H   0  0  0  0  0  0  0  0  0  0  0  0
   -0.5564    3.2156   -1.1865 H   0  0  0  0  0  0  0  0  0  0  0  0
   -0.8808    3.9856    0.3576 H   0  0  0  0  0  0  0  0  0  0  0  0
    2.8654    2.7420   -0.4283 H   0  0  0  0  0  0  0  0  0  0  0  0
    1.5995    2.2256   -1.5270 H   0  0  0  0  0  0  0  0  0  0  0  0
   -6.0094   -2.0146    1.2844 H   0  0  0  0  0  0  0  0  0  0  0  0
   -5.3710   -2.9505   -0.0848 H   0  0  0  0  0  0  0  0  0  0  0  0
   -6.4575   -1.5705   -0.3554 H   0  0  0  0  0  0  0  0  0  0  0  0
    3.4443   -0.0824    2.0111 H   0  0  0  0  0  0  0  0  0  0  0  0
    2.5289   -1.3500    1.1462 H   0  0  0  0  0  0  0  0  0  0  0  0
    4.8786   -2.0309    1.5184 H   0  0  0  0  0  0  0  0  0  0  0  0
    5.4297   -0.6001    0.5985 H   0  0  0  0  0  0  0  0  0  0  0  0
    6.4552   -1.9991   -1.0412 H   0  0  0  0  0  0  0  0  0  0  0  0
    5.4516   -3.2373   -1.8254 H   0  0  0  0  0  0  0  0  0  0  0  0
    5.9215   -3.4470   -0.1250 H   0  0  0  0  0  0  0  0  0  0  0  0
  1 14  1  0  0  0  0
  1 15  1  0  0  0  0
  2 13  1  0  0  0  0
  2 17  1  0  0  0  0
  3 18  1  0  0  0  0
  3 19  1  0  0  0  0
  4  6  1  0  0  0  0
  4 11  1  0  0  0  0
  4 12  1  0  0  0  0
  5  9  1  0  0  0  0
  5 10  1  0  0  0  0
  5 16  1  0  0  0  0
  6  7  1  0  0  0  0
  6  8  1  0  0  0  0
  6 20  1  0  0  0  0
  7  9  1  0  0  0  0
  7 21  1  0  0  0  0
  7 22  1  0  0  0  0
  8 10  1  0  0  0  0
  8 23  1  0  0  0  0
  8 24  1  0  0  0  0
  9 25  1  0  0  0  0
  9 26  1  0  0  0  0
 10 27  1  0  0  0  0
 10 28  1  0  0  0  0
 11 13  1  0  0  0  0
 11 29  1  0  0  0  0
 11 30  1  0  0  0  0
 12 14  1  0  0  0  0
 12 31  1  0  0  0  0
 12 32  1  0  0  0  0
 13 15  1  0  0  0  0
 13 33  1  0  0  0  0
 14 34  1  0  0  0  0
 14 35  1  0  0  0  0
 15 36  1  0  0  0  0
 15 37  1  0  0  0  0
 16 38  1  0  0  0  0
 16 39  1  0  0  0  0
 16 40  1  0  0  0  0
 17 18  1  0  0  0  0
 17 41  1  0  0  0  0
 17 42  1  0  0  0  0
 18 43  1  0  0  0  0
 18 44  1  0  0  0  0
 19 45  1  0  0  0  0
 19 46  1  0  0  0  0
 19 47  1  0  0  0  0
M  END
> <PUBCHEM_COMPOUND_CID>
75367809

> <PUBCHEM_CONFORMER_RMSD>
0.8

> <PUBCHEM_CONFORMER_DIVERSEORDER>
1
116
104
39
4
17
122
7
72
88
140
10
107
24
54
13
19
87
103
48
132
8
26
96
78
58
130
101
148
82
68
142
79
71
99
15
93
69
33
62
129
98
45
29
110
100
147
85
90
114
117
34
109
136
44
27
141
37
55
25
126
113
86
106
32
40
94
50
64
91
20
46
112
144
35
138
31
84
36
75
125
60
76
2
23
57
14
30
63
28
131
139
9
42
134
67
65
143
11
56
43
115
18
135
53
89
111
105
97
120
21
80
77
5
137
38
145
119
70
102
127
52
118
95
12
22
73
59
124
6
92
128
123
146
74
16
121
133
3
41
108
47
49
51
66
61
83
81

> <PUBCHEM_MMFF94_PARTIAL_CHARGES>
17
1 -0.56
10 0.27
11 0.27
12 0.27
13 0.28
14 0.28
15 0.28
16 0.27
17 0.28
18 0.28
19 0.28
2 -0.56
3 -0.56
4 -0.81
5 -0.81
6 0.27
9 0.27

> <PUBCHEM_EFFECTIVE_ROTOR_COUNT>
7.6

> <PUBCHEM_PHARMACOPHORE_FEATURES>
7
1 1 acceptor
1 2 acceptor
1 3 acceptor
1 4 cation
1 5 cation
6 5 6 7 8 9 10 rings
7 1 4 11 12 13 14 15 rings

> <PUBCHEM_HEAVY_ATOM_COUNT>
19

> <PUBCHEM_ATOM_DEF_STEREO_COUNT>
1

> <PUBCHEM_ATOM_UDEF_STEREO_COUNT>
0

> <PUBCHEM_BOND_DEF_STEREO_COUNT>
0

> <PUBCHEM_BOND_UDEF_STEREO_COUNT>
0

> <PUBCHEM_ISOTOPIC_ATOM_COUNT>
0

> <PUBCHEM_COMPONENT_COUNT>
1

> <PUBCHEM_CACTVS_TAUTO_COUNT>
1

> <PUBCHEM_CONFORMER_ID>
047E058100000001

> <PUBCHEM_MMFF94_ENERGY>
47.9979

> <PUBCHEM_FEATURE_SELFOVERLAP>
35.526

> <PUBCHEM_SHAPE_FINGERPRINT>
11809386 21 18048030771429088338
12107183 9 18341625776555105369
12363563 72 18409735040926798910
12403259 118 12319439026544672642
12553582 1 18341046397924618894
12623949 98 17828786258517016003
13140716 1 18341613672499287368
13533116 47 18265899249533020195
13544592 145 17822567322039140427
13955234 65 18052820531161812993
1420 369 18341892982980882770
14251740 57 18342172323316701522
14252887 29 18342167891384673170
14341114 328 14836115589645131370
14866123 147 18122624951302177089
15042514 8 18268433421312723897
17870717 6 17894632522126968023
17980427 23 13757780573268687137
1813 80 18201170892156820084
18186145 218 17458889531683862101
18222031 100 18413385449527363906
193927 3 18410294688134928082
19784866 240 18411142432958696323
20388580 30 18259707809156809460
20645477 70 18261669393181559027
20671657 53 18408605889613837561
20693207 138 17749382702306490711
21279426 13 18260254245246009285
23175994 123 18408318895867577421
23526113 38 17896037809629808345
23559900 14 17677043667920537789
312423 11 18410866442855773676
314173 85 18412258403038112498
3421961 26 18339641251860086400
465052 167 18341900730875194151
5207 123 18410853252831476383
5309563 4 18411983529057611030
77188 2 18411419527027151648
7970288 3 18411419492683438966
9709674 26 17896881169550488547

> <PUBCHEM_SHAPE_MULTIPOLES>
363.44
11.07
3.32
1.09
2.95
2.15
-0.05
-13.54
-0.79
2.5
-0.24
-0.31
-0.36
0.92

> <PUBCHEM_SHAPE_SELFOVERLAP>
715.045

> <PUBCHEM_SHAPE_VOLUME>
216

> <PUBCHEM_COORDINATE_TYPE>
2
5
10

$$$$
