38027112
  -OEChem-12032416253D

 71 73  0     1  0  0  0  0  0999 V2000
    2.6458   -5.7251    1.2041 F   0  0  0  0  0  0  0  0  0  0  0  0
   -2.1914    2.1572    1.2663 O   0  0  0  0  0  0  0  0  0  0  0  0
    3.6616   -0.6633   -2.4179 O   0  0  0  0  0  0  0  0  0  0  0  0
   -7.9193   -0.7022   -1.1833 O   0  0  0  0  0  0  0  0  0  0  0  0
    3.8850    0.3205   -0.3279 N   0  0  0  0  0  0  0  0  0  0  0  0
   -2.0786   -0.1409    1.5926 N   0  0  0  0  0  0  0  0  0  0  0  0
   -5.3529   -0.9748    0.0172 N   0  0  0  0  0  0  0  0  0  0  0  0
    1.6723    2.2865   -0.8595 C   0  0  1  0  0  0  0  0  0  0  0  0
    3.0630    2.6158   -0.2616 C   0  0  1  0  0  0  0  0  0  0  0  0
    0.5619    2.9520   -0.0325 C   0  0  0  0  0  0  0  0  0  0  0  0
    0.5802    2.4984    1.4395 C   0  0  2  0  0  0  0  0  0  0  0  0
    1.5637    2.7264   -2.3229 C   0  0  0  0  0  0  0  0  0  0  0  0
    1.9774    2.5408    2.0244 C   0  0  0  0  0  0  0  0  0  0  0  0
    3.0742    2.6067    1.2491 C   0  0  0  0  0  0  0  0  0  0  0  0
    4.1331    1.6515   -0.7860 C   0  0  0  0  0  0  0  0  0  0  0  0
   -0.0380    1.1046    1.5956 C   0  0  0  0  0  0  0  0  0  0  0  0
    1.2466    4.2158   -2.4084 C   0  0  0  0  0  0  0  0  0  0  0  0
    0.5028    1.9047   -3.0482 C   0  0  0  0  0  0  0  0  0  0  0  0
    2.0834    2.5517    3.5239 C   0  0  0  0  0  0  0  0  0  0  0  0
   -1.5439    1.1324    1.4622 C   0  0  0  0  0  0  0  0  0  0  0  0
    3.6650   -0.7510   -1.1929 C   0  0  0  0  0  0  0  0  0  0  0  0
   -3.4951   -0.4141    1.5106 C   0  0  0  0  0  0  0  0  0  0  0  0
   -3.9168   -0.7114    0.0792 C   0  0  0  0  0  0  0  0  0  0  0  0
   -5.7005   -1.6832   -1.2225 C   0  0  0  0  0  0  0  0  0  0  0  0
   -6.1175    0.2764    0.1134 C   0  0  0  0  0  0  0  0  0  0  0  0
    3.3956   -2.0670   -0.5587 C   0  0  0  0  0  0  0  0  0  0  0  0
   -7.2047   -1.9356   -1.2707 C   0  0  0  0  0  0  0  0  0  0  0  0
   -7.6118   -0.0228    0.0346 C   0  0  0  0  0  0  0  0  0  0  0  0
    3.7132   -3.2453   -1.2345 C   0  0  0  0  0  0  0  0  0  0  0  0
    2.8245   -2.1245    0.7128 C   0  0  0  0  0  0  0  0  0  0  0  0
    3.4603   -4.4809   -0.6388 C   0  0  0  0  0  0  0  0  0  0  0  0
    2.5714   -3.3602    1.3083 C   0  0  0  0  0  0  0  0  0  0  0  0
    2.8894   -4.5384    0.6327 C   0  0  0  0  0  0  0  0  0  0  0  0
    1.5198    1.2018   -0.8183 H   0  0  0  0  0  0  0  0  0  0  0  0
    3.3614    3.6278   -0.5630 H   0  0  0  0  0  0  0  0  0  0  0  0
   -0.4222    2.7682   -0.4747 H   0  0  0  0  0  0  0  0  0  0  0  0
    0.6969    4.0411   -0.0078 H   0  0  0  0  0  0  0  0  0  0  0  0
   -0.0273    3.2234    1.9993 H   0  0  0  0  0  0  0  0  0  0  0  0
    2.5096    2.5510   -2.8455 H   0  0  0  0  0  0  0  0  0  0  0  0
    4.0502    2.6824    1.7248 H   0  0  0  0  0  0  0  0  0  0  0  0
    5.1195    1.9365   -0.4001 H   0  0  0  0  0  0  0  0  0  0  0  0
    4.2075    1.6778   -1.8764 H   0  0  0  0  0  0  0  0  0  0  0  0
    0.1750    0.6941    2.5902 H   0  0  0  0  0  0  0  0  0  0  0  0
    0.3686    0.3945    0.8672 H   0  0  0  0  0  0  0  0  0  0  0  0
    0.2143    4.4527   -2.1301 H   0  0  0  0  0  0  0  0  0  0  0  0
    1.3576    4.5476   -3.4482 H   0  0  0  0  0  0  0  0  0  0  0  0
    1.9309    4.8288   -1.8145 H   0  0  0  0  0  0  0  0  0  0  0  0
   -0.4948    2.0411   -2.6196 H   0  0  0  0  0  0  0  0  0  0  0  0
    0.7437    0.8367   -3.0136 H   0  0  0  0  0  0  0  0  0  0  0  0
    0.4498    2.1949   -4.1033 H   0  0  0  0  0  0  0  0  0  0  0  0
    1.4914    3.3729    3.9409 H   0  0  0  0  0  0  0  0  0  0  0  0
    3.1164    2.6894    3.8616 H   0  0  0  0  0  0  0  0  0  0  0  0
    1.7235    1.6110    3.9501 H   0  0  0  0  0  0  0  0  0  0  0  0
    3.9642    0.1521    0.6696 H   0  0  0  0  0  0  0  0  0  0  0  0
   -1.4550   -0.9285    1.7449 H   0  0  0  0  0  0  0  0  0  0  0  0
   -3.6932   -1.2753    2.1588 H   0  0  0  0  0  0  0  0  0  0  0  0
   -4.0222    0.4488    1.9278 H   0  0  0  0  0  0  0  0  0  0  0  0
   -3.3575   -1.5983   -0.2485 H   0  0  0  0  0  0  0  0  0  0  0  0
   -3.6229    0.1009   -0.5988 H   0  0  0  0  0  0  0  0  0  0  0  0
   -5.1803   -2.6466   -1.2714 H   0  0  0  0  0  0  0  0  0  0  0  0
   -5.4006   -1.0889   -2.0956 H   0  0  0  0  0  0  0  0  0  0  0  0
   -5.8416    0.9555   -0.7040 H   0  0  0  0  0  0  0  0  0  0  0  0
   -5.9311    0.7932    1.0593 H   0  0  0  0  0  0  0  0  0  0  0  0
   -7.4730   -2.4087   -2.2208 H   0  0  0  0  0  0  0  0  0  0  0  0
   -7.5289   -2.6045   -0.4640 H   0  0  0  0  0  0  0  0  0  0  0  0
   -7.9495   -0.6261    0.8861 H   0  0  0  0  0  0  0  0  0  0  0  0
   -8.1804    0.9126    0.0454 H   0  0  0  0  0  0  0  0  0  0  0  0
    4.1624   -3.2207   -2.2238 H   0  0  0  0  0  0  0  0  0  0  0  0
    2.5364   -1.2313    1.2595 H   0  0  0  0  0  0  0  0  0  0  0  0
    3.7083   -5.3985   -1.1642 H   0  0  0  0  0  0  0  0  0  0  0  0
    2.1207   -3.4058    2.2954 H   0  0  0  0  0  0  0  0  0  0  0  0
  1 33  1  0  0  0  0
  2 20  2  0  0  0  0
  3 21  2  0  0  0  0
  4 27  1  0  0  0  0
  4 28  1  0  0  0  0
  5 15  1  0  0  0  0
  5 21  1  0  0  0  0
  5 54  1  0  0  0  0
  6 20  1  0  0  0  0
  6 22  1  0  0  0  0
  6 55  1  0  0  0  0
  7 23  1  0  0  0  0
  7 24  1  0  0  0  0
  7 25  1  0  0  0  0
  8  9  1  0  0  0  0
  8 10  1  0  0  0  0
  8 12  1  0  0  0  0
  8 34  1  0  0  0  0
  9 14  1  0  0  0  0
  9 15  1  0  0  0  0
  9 35  1  0  0  0  0
 10 11  1  0  0  0  0
 10 36  1  0  0  0  0
 10 37  1  0  0  0  0
 11 13  1  0  0  0  0
 11 16  1  0  0  0  0
 11 38  1  0  0  0  0
 12 17  1  0  0  0  0
 12 18  1  0  0  0  0
 12 39  1  0  0  0  0
 13 14  2  0  0  0  0
 13 19  1  0  0  0  0
 14 40  1  0  0  0  0
 15 41  1  0  0  0  0
 15 42  1  0  0  0  0
 16 20  1  0  0  0  0
 16 43  1  0  0  0  0
 16 44  1  0  0  0  0
 17 45  1  0  0  0  0
 17 46  1  0  0  0  0
 17 47  1  0  0  0  0
 18 48  1  0  0  0  0
 18 49  1  0  0  0  0
 18 50  1  0  0  0  0
 19 51  1  0  0  0  0
 19 52  1  0  0  0  0
 19 53  1  0  0  0  0
 21 26  1  0  0  0  0
 22 23  1  0  0  0  0
 22 56  1  0  0  0  0
 22 57  1  0  0  0  0
 23 58  1  0  0  0  0
 23 59  1  0  0  0  0
 24 27  1  0  0  0  0
 24 60  1  0  0  0  0
 24 61  1  0  0  0  0
 25 28  1  0  0  0  0
 25 62  1  0  0  0  0
 25 63  1  0  0  0  0
 26 29  2  0  0  0  0
 26 30  1  0  0  0  0
 27 64  1  0  0  0  0
 27 65  1  0  0  0  0
 28 66  1  0  0  0  0
 28 67  1  0  0  0  0
 29 31  1  0  0  0  0
 29 68  1  0  0  0  0
 30 32  2  0  0  0  0
 30 69  1  0  0  0  0
 31 33  2  0  0  0  0
 31 70  1  0  0  0  0
 32 33  1  0  0  0  0
 32 71  1  0  0  0  0
M  END
> <PUBCHEM_COMPOUND_CID>
38027112

> <PUBCHEM_CONFORMER_RMSD>
1.2

> <PUBCHEM_CONFORMER_DIVERSEORDER>
1
60
5
87
47
68
121
49
34
52
89
30
54
63
39
124
130
7
25
122
119
64
91
80
31
94
66
131
22
125
61
4
74
11
65
19
129
77
56
105
43
62
16
110
59
76
101
106
14
73
58
17
33
113
50
85
81
71
46
70
111
95
3
117
84
72
116
93
32
86
120
2
83
24
27
90
132
118
37
127
100
51
18
57
21
99
75
98
35
8
123
55
48
79
103
134
128
107
45
97
15
28
102
69
126
36
133
92
38
20
114
88
23
109
82
29
12
6
112
67
40
44
26
53
115
10
78
104
13
108
96
9
41
42

> <PUBCHEM_MMFF94_PARTIAL_CHARGES>
35
1 -0.19
11 0.14
13 -0.28
14 -0.29
15 0.3
16 0.06
19 0.14
2 -0.57
20 0.57
21 0.54
22 0.3
23 0.27
24 0.27
25 0.27
26 0.09
27 0.28
28 0.28
29 -0.15
3 -0.57
30 -0.15
31 -0.15
32 -0.15
33 0.19
4 -0.56
40 0.15
5 -0.73
54 0.37
55 0.37
6 -0.73
68 0.15
69 0.15
7 -0.81
70 0.15
71 0.15
9 0.14

> <PUBCHEM_EFFECTIVE_ROTOR_COUNT>
13

> <PUBCHEM_PHARMACOPHORE_FEATURES>
10
1 2 acceptor
1 3 acceptor
1 4 acceptor
1 5 donor
1 6 donor
1 7 cation
3 12 17 18 hydrophobe
6 26 29 30 31 32 33 rings
6 4 7 24 25 27 28 rings
6 8 9 10 11 13 14 rings

> <PUBCHEM_HEAVY_ATOM_COUNT>
33

> <PUBCHEM_ATOM_DEF_STEREO_COUNT>
3

> <PUBCHEM_ATOM_UDEF_STEREO_COUNT>
0

> <PUBCHEM_BOND_DEF_STEREO_COUNT>
0

> <PUBCHEM_BOND_UDEF_STEREO_COUNT>
0

> <PUBCHEM_ISOTOPIC_ATOM_COUNT>
0

> <PUBCHEM_COMPONENT_COUNT>
1

> <PUBCHEM_CACTVS_TAUTO_COUNT>
4

> <PUBCHEM_CONFORMER_ID>
02443F6800000001

> <PUBCHEM_MMFF94_ENERGY>
63.139

> <PUBCHEM_FEATURE_SELFOVERLAP>
50.746

> <PUBCHEM_SHAPE_FINGERPRINT>
10622 236 18197499524158646091
10816530 23 17466795196128387445
11069576 57 18341058470724175854
11135609 149 18190722185992571847
12977781 61 17829861284788795312
131258 38 18201709678450472926
13947947 73 18336538314784070911
14674994 50 17252870451605222446
17134984 74 18339923843723706431
19026451 147 18339640040832842058
19315092 285 18202004287700639288
20775438 99 18268133413942794291
20775530 9 17975437732144143090
208703 8 17846224319137139375
21458453 9 12894774996339334039
21703447 108 17632571695316316017
25222932 49 17561088033283823116
4066623 53 17386277684631892270
5951187 136 16733549445485577653
59682541 52 18411128144282809199
9831232 110 18334289899589451591

> <PUBCHEM_SHAPE_MULTIPOLES>
639.3
14.57
6.58
2.78
45.65
7.14
-0.04
10.22
-5.02
-11.28
0.14
-1.8
-2.62
-1.06

> <PUBCHEM_SHAPE_SELFOVERLAP>
1317.673

> <PUBCHEM_SHAPE_VOLUME>
367.2

> <PUBCHEM_COORDINATE_TYPE>
2
5
10

$$$$
