11885094
  -OEChem-12032416363D

 84 86  0     1  0  0  0  0  0999 V2000
   -0.7619    3.5559    0.1251 S   0  0  0  0  0  0  0  0  0  0  0  0
   -7.4308   -0.4984   -0.7197 O   0  0  0  0  0  0  0  0  0  0  0  0
   -7.5506    1.3808    0.7630 O   0  0  0  0  0  0  0  0  0  0  0  0
    0.5719   -1.4078   -1.3331 O   0  0  0  0  0  0  0  0  0  0  0  0
    3.7684   -2.4002    1.5689 O   0  0  0  0  0  0  0  0  0  0  0  0
    3.2755    1.2408   -0.1218 O   0  0  0  0  0  0  0  0  0  0  0  0
    0.3113    1.2077   -0.0383 N   0  0  0  0  0  0  0  0  0  0  0  0
    1.1041   -2.7738    0.4703 N   0  0  0  0  0  0  0  0  0  0  0  0
    1.8165    3.0891    0.0270 N   0  0  0  0  0  0  0  0  0  0  0  0
   -3.2168   -0.2913    0.3790 C   0  0  2  0  0  0  0  0  0  0  0  0
   -3.9135    0.9469   -0.3400 C   0  0  1  0  0  0  0  0  0  0  0  0
   -5.4905    0.9618   -0.3716 C   0  0  1  0  0  0  0  0  0  0  0  0
   -1.6869   -0.3315   -0.0809 C   0  0  1  0  0  0  0  0  0  0  0  0
   -3.8998   -1.6056   -0.0804 C   0  0  0  0  0  0  0  0  0  0  0  0
   -6.0074   -0.4390   -0.8055 C   0  0  1  0  0  0  0  0  0  0  0  0
   -3.2826    2.2960    0.1124 C   0  0  0  0  0  0  0  0  0  0  0  0
   -5.4185   -1.5787    0.0186 C   0  0  0  0  0  0  0  0  0  0  0  0
   -3.2880   -0.2077    1.9237 C   0  0  0  0  0  0  0  0  0  0  0  0
   -1.0602    1.0368    0.0012 C   0  0  0  0  0  0  0  0  0  0  0  0
   -6.1534    1.4084    0.9502 C   0  0  0  0  0  0  0  0  0  0  0  0
   -5.9665    1.9827   -1.4436 C   0  0  0  0  0  0  0  0  0  0  0  0
   -1.7948    2.2031    0.0689 C   0  0  0  0  0  0  0  0  0  0  0  0
   -0.8325   -1.3848    0.6371 C   0  0  0  0  0  0  0  0  0  0  0  0
    0.3410   -1.8314   -0.2037 C   0  0  0  0  0  0  0  0  0  0  0  0
    0.5834    2.4929    0.0281 C   0  0  0  0  0  0  0  0  0  0  0  0
    2.2882   -3.3805   -0.0933 C   0  0  2  0  0  0  0  0  0  0  0  0
    2.4865   -4.8079    0.4471 C   0  0  0  0  0  0  0  0  0  0  0  0
    3.0675    2.4470   -0.0461 C   0  0  0  0  0  0  0  0  0  0  0  0
    3.5091   -2.4943    0.1741 C   0  0  0  0  0  0  0  0  0  0  0  0
    3.6466   -5.5960   -0.1987 C   0  0  0  0  0  0  0  0  0  0  0  0
    4.2062    3.4583   -0.0228 C   0  0  0  0  0  0  0  0  0  0  0  0
    3.8279   -6.9838    0.4175 C   0  0  0  0  0  0  0  0  0  0  0  0
    3.4020   -5.7304   -1.7047 C   0  0  0  0  0  0  0  0  0  0  0  0
    5.5814    2.7985   -0.1006 C   0  0  0  0  0  0  0  0  0  0  0  0
    6.6993    3.8418   -0.1135 C   0  0  0  0  0  0  0  0  0  0  0  0
    8.0765    3.1806   -0.1573 C   0  0  0  0  0  0  0  0  0  0  0  0
    9.1914    4.2139   -0.1366 C   0  0  0  0  0  0  0  0  0  0  0  0
   -3.6267    0.8328   -1.4000 H   0  0  0  0  0  0  0  0  0  0  0  0
   -1.7061   -0.5720   -1.1546 H   0  0  0  0  0  0  0  0  0  0  0  0
   -3.6298   -1.8145   -1.1240 H   0  0  0  0  0  0  0  0  0  0  0  0
   -3.5378   -2.4583    0.5050 H   0  0  0  0  0  0  0  0  0  0  0  0
   -5.7487   -0.6030   -1.8600 H   0  0  0  0  0  0  0  0  0  0  0  0
   -3.6119    3.1058   -0.5474 H   0  0  0  0  0  0  0  0  0  0  0  0
   -3.5948    2.5524    1.1303 H   0  0  0  0  0  0  0  0  0  0  0  0
   -5.7490   -1.5148    1.0612 H   0  0  0  0  0  0  0  0  0  0  0  0
   -5.8188   -2.5333   -0.3466 H   0  0  0  0  0  0  0  0  0  0  0  0
   -2.8194    0.6984    2.3175 H   0  0  0  0  0  0  0  0  0  0  0  0
   -4.3061   -0.2465    2.3055 H   0  0  0  0  0  0  0  0  0  0  0  0
   -2.7760   -1.0565    2.3903 H   0  0  0  0  0  0  0  0  0  0  0  0
   -5.9291    0.7479    1.7838 H   0  0  0  0  0  0  0  0  0  0  0  0
   -5.8649    2.4271    1.2266 H   0  0  0  0  0  0  0  0  0  0  0  0
   -5.4663    1.8059   -2.4028 H   0  0  0  0  0  0  0  0  0  0  0  0
   -5.7556    3.0150   -1.1454 H   0  0  0  0  0  0  0  0  0  0  0  0
   -7.0436    1.9174   -1.6336 H   0  0  0  0  0  0  0  0  0  0  0  0
   -1.4134   -2.2887    0.8464 H   0  0  0  0  0  0  0  0  0  0  0  0
   -0.4541   -1.0038    1.5941 H   0  0  0  0  0  0  0  0  0  0  0  0
   -7.7094   -1.3719   -1.0436 H   0  0  0  0  0  0  0  0  0  0  0  0
   -7.9604    1.6723    1.5951 H   0  0  0  0  0  0  0  0  0  0  0  0
    0.8586   -3.0123    1.4271 H   0  0  0  0  0  0  0  0  0  0  0  0
    1.8025    4.1042    0.0853 H   0  0  0  0  0  0  0  0  0  0  0  0
    2.1288   -3.4178   -1.1759 H   0  0  0  0  0  0  0  0  0  0  0  0
    1.5532   -5.3704    0.3038 H   0  0  0  0  0  0  0  0  0  0  0  0
    2.6401   -4.7729    1.5338 H   0  0  0  0  0  0  0  0  0  0  0  0
    4.4041   -2.8774   -0.3241 H   0  0  0  0  0  0  0  0  0  0  0  0
    3.3317   -1.4814   -0.2017 H   0  0  0  0  0  0  0  0  0  0  0  0
    4.5878   -5.0566   -0.0454 H   0  0  0  0  0  0  0  0  0  0  0  0
    4.0705    4.1411   -0.8702 H   0  0  0  0  0  0  0  0  0  0  0  0
    4.1240    4.0447    0.9000 H   0  0  0  0  0  0  0  0  0  0  0  0
    2.9316   -7.5982    0.2803 H   0  0  0  0  0  0  0  0  0  0  0  0
    4.6737   -7.5085   -0.0392 H   0  0  0  0  0  0  0  0  0  0  0  0
    4.0229   -6.9053    1.4921 H   0  0  0  0  0  0  0  0  0  0  0  0
    4.1535   -6.3852   -2.1601 H   0  0  0  0  0  0  0  0  0  0  0  0
    3.4780   -4.7662   -2.2155 H   0  0  0  0  0  0  0  0  0  0  0  0
    2.4159   -6.1584   -1.9145 H   0  0  0  0  0  0  0  0  0  0  0  0
    5.6455    2.1800   -1.0045 H   0  0  0  0  0  0  0  0  0  0  0  0
    5.7133    2.1233    0.7542 H   0  0  0  0  0  0  0  0  0  0  0  0
    4.5426   -1.8219    1.6768 H   0  0  0  0  0  0  0  0  0  0  0  0
    6.6232    4.4708    0.7819 H   0  0  0  0  0  0  0  0  0  0  0  0
    6.5790    4.5005   -0.9821 H   0  0  0  0  0  0  0  0  0  0  0  0
    8.1950    2.5087    0.7008 H   0  0  0  0  0  0  0  0  0  0  0  0
    8.1674    2.5695   -1.0628 H   0  0  0  0  0  0  0  0  0  0  0  0
    9.1207    4.8845   -0.9990 H   0  0  0  0  0  0  0  0  0  0  0  0
   10.1672    3.7194   -0.1698 H   0  0  0  0  0  0  0  0  0  0  0  0
    9.1484    4.8195    0.7743 H   0  0  0  0  0  0  0  0  0  0  0  0
  1 22  1  0  0  0  0
  1 25  1  0  0  0  0
  2 15  1  0  0  0  0
  2 57  1  0  0  0  0
  3 20  1  0  0  0  0
  3 58  1  0  0  0  0
  4 24  2  0  0  0  0
  5 29  1  0  0  0  0
  5 77  1  0  0  0  0
  6 28  2  0  0  0  0
  7 19  1  0  0  0  0
  7 25  2  0  0  0  0
  8 24  1  0  0  0  0
  8 26  1  0  0  0  0
  8 59  1  0  0  0  0
  9 25  1  0  0  0  0
  9 28  1  0  0  0  0
  9 60  1  0  0  0  0
 10 11  1  0  0  0  0
 10 13  1  0  0  0  0
 10 14  1  0  0  0  0
 10 18  1  0  0  0  0
 11 12  1  0  0  0  0
 11 16  1  0  0  0  0
 11 38  1  0  0  0  0
 12 15  1  0  0  0  0
 12 20  1  0  0  0  0
 12 21  1  0  0  0  0
 13 19  1  0  0  0  0
 13 23  1  0  0  0  0
 13 39  1  0  0  0  0
 14 17  1  0  0  0  0
 14 40  1  0  0  0  0
 14 41  1  0  0  0  0
 15 17  1  0  0  0  0
 15 42  1  0  0  0  0
 16 22  1  0  0  0  0
 16 43  1  0  0  0  0
 16 44  1  0  0  0  0
 17 45  1  0  0  0  0
 17 46  1  0  0  0  0
 18 47  1  0  0  0  0
 18 48  1  0  0  0  0
 18 49  1  0  0  0  0
 19 22  2  0  0  0  0
 20 50  1  0  0  0  0
 20 51  1  0  0  0  0
 21 52  1  0  0  0  0
 21 53  1  0  0  0  0
 21 54  1  0  0  0  0
 23 24  1  0  0  0  0
 23 55  1  0  0  0  0
 23 56  1  0  0  0  0
 26 27  1  0  0  0  0
 26 29  1  0  0  0  0
 26 61  1  0  0  0  0
 27 30  1  0  0  0  0
 27 62  1  0  0  0  0
 27 63  1  0  0  0  0
 28 31  1  0  0  0  0
 29 64  1  0  0  0  0
 29 65  1  0  0  0  0
 30 32  1  0  0  0  0
 30 33  1  0  0  0  0
 30 66  1  0  0  0  0
 31 34  1  0  0  0  0
 31 67  1  0  0  0  0
 31 68  1  0  0  0  0
 32 69  1  0  0  0  0
 32 70  1  0  0  0  0
 32 71  1  0  0  0  0
 33 72  1  0  0  0  0
 33 73  1  0  0  0  0
 33 74  1  0  0  0  0
 34 35  1  0  0  0  0
 34 75  1  0  0  0  0
 34 76  1  0  0  0  0
 35 36  1  0  0  0  0
 35 78  1  0  0  0  0
 35 79  1  0  0  0  0
 36 37  1  0  0  0  0
 36 80  1  0  0  0  0
 36 81  1  0  0  0  0
 37 82  1  0  0  0  0
 37 83  1  0  0  0  0
 37 84  1  0  0  0  0
M  END
> <PUBCHEM_COMPOUND_CID>
11885094

> <PUBCHEM_CONFORMER_RMSD>
1.2

> <PUBCHEM_CONFORMER_DIVERSEORDER>
1
19
42
25
40
41
6
22
29
38
30
17
26
34
28
33
24
35
27
21
8
39
32
11
3
15
36
13
12
37
18
20
16
7
31
9
14
23
5
10
2
4

> <PUBCHEM_MMFF94_PARTIAL_CHARGES>
27
1 -0.08
13 0.18
15 0.28
16 0.18
19 0.05
2 -0.68
20 0.28
22 -0.14
23 0.06
24 0.57
25 0.44
26 0.3
28 0.57
29 0.28
3 -0.68
31 0.06
4 -0.57
5 -0.68
57 0.4
58 0.4
59 0.37
6 -0.57
60 0.37
7 -0.57
77 0.4
8 -0.73
9 -0.49

> <PUBCHEM_EFFECTIVE_ROTOR_COUNT>
15.2

> <PUBCHEM_PHARMACOPHORE_FEATURES>
16
1 2 acceptor
1 2 donor
1 3 acceptor
1 3 donor
1 37 hydrophobe
1 4 acceptor
1 5 acceptor
1 5 donor
1 6 acceptor
1 8 donor
1 9 donor
3 30 32 33 hydrophobe
4 31 34 35 36 hydrophobe
5 1 7 19 22 25 rings
6 10 11 12 14 15 17 rings
6 10 11 13 16 19 22 rings

> <PUBCHEM_HEAVY_ATOM_COUNT>
37

> <PUBCHEM_ATOM_DEF_STEREO_COUNT>
6

> <PUBCHEM_ATOM_UDEF_STEREO_COUNT>
0

> <PUBCHEM_BOND_DEF_STEREO_COUNT>
0

> <PUBCHEM_BOND_UDEF_STEREO_COUNT>
0

> <PUBCHEM_ISOTOPIC_ATOM_COUNT>
0

> <PUBCHEM_COMPONENT_COUNT>
1

> <PUBCHEM_CACTVS_TAUTO_COUNT>
6

> <PUBCHEM_CONFORMER_ID>
00B55A2600000001

> <PUBCHEM_MMFF94_ENERGY>
89.9127

> <PUBCHEM_FEATURE_SELFOVERLAP>
81.345

> <PUBCHEM_SHAPE_FINGERPRINT>
10050765 1 18267022748501052573
10411042 1 17978229357459388851
1100329 8 17834678193537974185
11135926 11 18408881871533534013
11136131 41 18335133190299967146
11578080 2 17314766561449162965
11719270 70 18410285952541005616
12788726 201 17467915169307571595
13540713 5 18130229230019044697
15320294 125 18115851058629003264
15347591 1 18338516345140377565
15400415 2 18194118749147127644
15439362 3 18409166593499790753
15890870 6 18338234989969434452
15927050 60 18268991049870179030
16067689 302 18409450319867851287
21133665 82 18265335183326139924
21360443 120 18336546109696233260
23559900 14 18266169535977675123
3383291 50 18051129487010740232
4017518 198 18267589181867279220
5265222 85 18048038759525264884
5385378 56 18410581686566467985
6371380 46 18126564746563211488
6669772 16 18411985784479197196
6700243 42 17052477894834025574
99344 41 18409447024794647972

> <PUBCHEM_SHAPE_MULTIPOLES>
721
19.39
9.03
1.05
8.27
16.46
-0.03
-20.48
1.66
24.98
0.78
-0.66
0.59
-0.07

> <PUBCHEM_SHAPE_SELFOVERLAP>
1458.897

> <PUBCHEM_SHAPE_VOLUME>
423.8

> <PUBCHEM_COORDINATE_TYPE>
2
5
10

$$$$
