7051432
  -OEChem-12032416223D

 60 64  0     1  0  0  0  0  0999 V2000
    2.4135    1.2913    1.0965 S   0  0  0  0  0  0  0  0  0  0  0  0
   -0.2202    2.9011    1.5635 O   0  0  0  0  0  0  0  0  0  0  0  0
   -3.5477   -1.2804    1.9596 O   0  0  0  0  0  0  0  0  0  0  0  0
   -2.4012   -3.1539    0.7082 O   0  0  0  0  0  0  0  0  0  0  0  0
    3.0990    2.1330    2.0590 O   0  0  0  0  0  0  0  0  0  0  0  0
    1.3570    0.3966    1.5300 O   0  0  0  0  0  0  0  0  0  0  0  0
   -4.0676    0.0105    0.0988 N   0  0  0  0  0  0  0  0  0  0  0  0
   -1.8703    2.3298    0.0011 N   0  0  0  0  0  0  0  0  0  0  0  0
    1.8656    2.2346   -0.1978 N   0  0  0  0  0  0  0  0  0  0  0  0
    5.3705    3.3782    0.1414 N   0  0  0  0  0  0  0  0  0  0  0  0
   -4.3755    2.4558    0.5065 C   0  0  1  0  0  0  0  0  0  0  0  0
   -3.6134    1.6724   -1.6968 C   0  0  2  0  0  0  0  0  0  0  0  0
   -4.5254    2.6758   -0.9939 C   0  0  0  0  0  0  0  0  0  0  0  0
   -4.7799    1.0201    0.8843 C   0  0  0  0  0  0  0  0  0  0  0  0
   -2.9319    2.7737    0.9132 C   0  0  0  0  0  0  0  0  0  0  0  0
   -4.0617    0.2381   -1.3540 C   0  0  0  0  0  0  0  0  0  0  0  0
   -2.1651    1.8702   -1.2896 C   0  0  0  0  0  0  0  0  0  0  0  0
   -1.1741    1.5782   -2.1518 C   0  0  0  0  0  0  0  0  0  0  0  0
   -0.5423    2.4877    0.4503 C   0  0  0  0  0  0  0  0  0  0  0  0
   -3.5326   -1.1081    0.7380 C   0  0  0  0  0  0  0  0  0  0  0  0
    0.5057    2.1275   -0.5375 C   0  0  0  0  0  0  0  0  0  0  0  0
    0.2053    1.7082   -1.7671 C   0  0  0  0  0  0  0  0  0  0  0  0
   -2.8959   -2.1509   -0.1455 C   0  0  0  0  0  0  0  0  0  0  0  0
    3.6410    0.3065    0.2892 C   0  0  0  0  0  0  0  0  0  0  0  0
   -1.2583   -3.8132    0.3138 C   0  0  0  0  0  0  0  0  0  0  0  0
    4.8301    0.8620   -0.1577 C   0  0  0  0  0  0  0  0  0  0  0  0
    3.3702   -1.0433    0.1167 C   0  0  0  0  0  0  0  0  0  0  0  0
   -0.9944   -3.9698   -1.0387 C   0  0  0  0  0  0  0  0  0  0  0  0
   -0.3918   -4.3100    1.2760 C   0  0  0  0  0  0  0  0  0  0  0  0
    5.7706    0.0500   -0.7918 C   0  0  0  0  0  0  0  0  0  0  0  0
    4.3107   -1.8553   -0.5172 C   0  0  0  0  0  0  0  0  0  0  0  0
    5.5108   -1.3087   -0.9714 C   0  0  0  0  0  0  0  0  0  0  0  0
    0.1628   -4.6386   -1.4384 C   0  0  0  0  0  0  0  0  0  0  0  0
    0.7653   -4.9787    0.8764 C   0  0  0  0  0  0  0  0  0  0  0  0
    5.1287    2.2525    0.0075 C   0  0  0  0  0  0  0  0  0  0  0  0
    1.0426   -5.1429   -0.4807 C   0  0  0  0  0  0  0  0  0  0  0  0
   -5.0423    3.1396    1.0464 H   0  0  0  0  0  0  0  0  0  0  0  0
   -3.7164    1.8176   -2.7801 H   0  0  0  0  0  0  0  0  0  0  0  0
   -5.5678    2.5275   -1.3007 H   0  0  0  0  0  0  0  0  0  0  0  0
   -4.2540    3.7043   -1.2631 H   0  0  0  0  0  0  0  0  0  0  0  0
   -4.6287    0.8548    1.9564 H   0  0  0  0  0  0  0  0  0  0  0  0
   -5.8490    0.8727    0.6870 H   0  0  0  0  0  0  0  0  0  0  0  0
   -2.8203    3.8642    0.9869 H   0  0  0  0  0  0  0  0  0  0  0  0
   -2.7183    2.3814    1.9155 H   0  0  0  0  0  0  0  0  0  0  0  0
   -5.0898    0.0748   -1.7008 H   0  0  0  0  0  0  0  0  0  0  0  0
   -3.4367   -0.4874   -1.8791 H   0  0  0  0  0  0  0  0  0  0  0  0
   -1.3808    1.2108   -3.1516 H   0  0  0  0  0  0  0  0  0  0  0  0
    0.9599    1.4434   -2.5001 H   0  0  0  0  0  0  0  0  0  0  0  0
   -3.6467   -2.5716   -0.8216 H   0  0  0  0  0  0  0  0  0  0  0  0
   -2.0882   -1.6528   -0.6951 H   0  0  0  0  0  0  0  0  0  0  0  0
    2.4796    2.2337   -1.0243 H   0  0  0  0  0  0  0  0  0  0  0  0
    2.4453   -1.5004    0.4536 H   0  0  0  0  0  0  0  0  0  0  0  0
   -1.6687   -3.6161   -1.8125 H   0  0  0  0  0  0  0  0  0  0  0  0
   -0.6049   -4.1829    2.3332 H   0  0  0  0  0  0  0  0  0  0  0  0
    6.7111    0.4596   -1.1527 H   0  0  0  0  0  0  0  0  0  0  0  0
    4.1078   -2.9130   -0.6585 H   0  0  0  0  0  0  0  0  0  0  0  0
    6.2427   -1.9410   -1.4655 H   0  0  0  0  0  0  0  0  0  0  0  0
    0.3762   -4.7720   -2.4949 H   0  0  0  0  0  0  0  0  0  0  0  0
    1.4508   -5.3709    1.6220 H   0  0  0  0  0  0  0  0  0  0  0  0
    1.9434   -5.6638   -0.7917 H   0  0  0  0  0  0  0  0  0  0  0  0
  1  5  2  0  0  0  0
  1  6  2  0  0  0  0
  1  9  1  0  0  0  0
  1 24  1  0  0  0  0
  2 19  2  0  0  0  0
  3 20  2  0  0  0  0
  4 23  1  0  0  0  0
  4 25  1  0  0  0  0
  7 14  1  0  0  0  0
  7 16  1  0  0  0  0
  7 20  1  0  0  0  0
  8 15  1  0  0  0  0
  8 17  1  0  0  0  0
  8 19  1  0  0  0  0
  9 21  1  0  0  0  0
  9 51  1  0  0  0  0
 10 35  3  0  0  0  0
 11 13  1  0  0  0  0
 11 14  1  0  0  0  0
 11 15  1  0  0  0  0
 11 37  1  0  0  0  0
 12 13  1  0  0  0  0
 12 16  1  0  0  0  0
 12 17  1  0  0  0  0
 12 38  1  0  0  0  0
 13 39  1  0  0  0  0
 13 40  1  0  0  0  0
 14 41  1  0  0  0  0
 14 42  1  0  0  0  0
 15 43  1  0  0  0  0
 15 44  1  0  0  0  0
 16 45  1  0  0  0  0
 16 46  1  0  0  0  0
 17 18  2  0  0  0  0
 18 22  1  0  0  0  0
 18 47  1  0  0  0  0
 19 21  1  0  0  0  0
 20 23  1  0  0  0  0
 21 22  2  0  0  0  0
 22 48  1  0  0  0  0
 23 49  1  0  0  0  0
 23 50  1  0  0  0  0
 24 26  1  0  0  0  0
 24 27  2  0  0  0  0
 25 28  2  0  0  0  0
 25 29  1  0  0  0  0
 26 30  2  0  0  0  0
 26 35  1  0  0  0  0
 27 31  1  0  0  0  0
 27 52  1  0  0  0  0
 28 33  1  0  0  0  0
 28 53  1  0  0  0  0
 29 34  2  0  0  0  0
 29 54  1  0  0  0  0
 30 32  1  0  0  0  0
 30 55  1  0  0  0  0
 31 32  2  0  0  0  0
 31 56  1  0  0  0  0
 32 57  1  0  0  0  0
 33 36  2  0  0  0  0
 33 58  1  0  0  0  0
 34 36  1  0  0  0  0
 34 59  1  0  0  0  0
 36 60  1  0  0  0  0
M  END
> <PUBCHEM_COMPOUND_CID>
7051432

> <PUBCHEM_CONFORMER_RMSD>
1

> <PUBCHEM_CONFORMER_DIVERSEORDER>
1
141
60
91
158
277
166
183
109
21
13
145
223
251
33
54
35
208
126
20
239
242
247
212
234
148
12
232
108
5
246
138
64
77
192
198
78
279
185
44
265
131
175
235
280
187
150
120
107
112
188
240
81
55
119
101
132
259
263
224
87
261
115
2
110
179
45
262
253
214
243
222
37
9
264
86
168
76
270
254
94
229
201
255
274
133
163
159
244
194
199
59
90
98
99
113
241
206
272
102
144
143
79
67
170
100
105
70
176
184
95
271
139
231
114
69
218
204
221
191
7
167
153
195
73
207
219
172
92
85
220
258
209
26
226
116
282
30
203
111
15
165
61
216
267
19
134
40
14
49
181
252
276
136
205
4
193
46
268
217
196
161
283
22
284
38
23
160
142
210
123
51
266
16
88
50
129
281
8
124
151
3
56
248
41
178
215
97
140
202
169
89
211
147
200
103
291
180
65
84
230
157
18
29
173
53
63
260
28
27
189
47
292
31
290
238
213
275
162
125
257
93
58
17
66
152
273
197
190
36
225
57
156
72
122
228
233
149
24
269
289
82
75
121
117
80
227
256
104
237
182
34
128
25
68
43
278
245
236
6
118
249
48
42
106
177
127
146
164
288
10
96
250
83
71
287
135
171
11
154
137
155
285
52
74
32
174
130
286
62
39
186

> <PUBCHEM_MMFF94_PARTIAL_CHARGES>
46
1 1.45
10 -0.56
12 0.14
14 0.3
15 0.3
16 0.3
17 -0.03
18 -0.15
19 0.62
2 -0.57
20 0.57
21 0.21
22 -0.15
23 0.34
24 -0.01
25 0.08
26 0.07
27 -0.15
28 -0.15
29 -0.15
3 -0.57
30 -0.15
31 -0.15
32 -0.15
33 -0.15
34 -0.15
35 0.48
36 -0.15
4 -0.36
47 0.15
48 0.15
5 -0.65
51 0.42
52 0.15
53 0.15
54 0.15
55 0.15
56 0.15
57 0.15
58 0.15
59 0.15
6 -0.65
60 0.15
7 -0.66
8 -0.47
9 -0.75

> <PUBCHEM_EFFECTIVE_ROTOR_COUNT>
8

> <PUBCHEM_PHARMACOPHORE_FEATURES>
12
1 10 acceptor
1 2 acceptor
1 3 acceptor
1 4 acceptor
1 5 acceptor
1 6 acceptor
1 9 donor
6 24 26 27 30 31 32 rings
6 25 28 29 33 34 36 rings
6 7 11 12 13 14 16 rings
6 8 11 12 13 15 17 rings
6 8 17 18 19 21 22 rings

> <PUBCHEM_HEAVY_ATOM_COUNT>
36

> <PUBCHEM_ATOM_DEF_STEREO_COUNT>
2

> <PUBCHEM_ATOM_UDEF_STEREO_COUNT>
0

> <PUBCHEM_BOND_DEF_STEREO_COUNT>
0

> <PUBCHEM_BOND_UDEF_STEREO_COUNT>
0

> <PUBCHEM_ISOTOPIC_ATOM_COUNT>
0

> <PUBCHEM_COMPONENT_COUNT>
1

> <PUBCHEM_CACTVS_TAUTO_COUNT>
1

> <PUBCHEM_CONFORMER_ID>
006B98A800000001

> <PUBCHEM_MMFF94_ENERGY>
93.3792

> <PUBCHEM_FEATURE_SELFOVERLAP>
62.503

> <PUBCHEM_SHAPE_FINGERPRINT>
10462674 296 17046547631772570358
11014199 57 17471857377701162298
11285246 1 17838017706682571111
11513181 2 18271529783632671350
13402501 40 18410579452766560711
14251757 5 18264774444431387542
14415361 192 16162151596572678803
144659 178 15098457255935584404
14747281 78 16305132119183576653
15927050 60 18340482263098164287
17627616 140 18120936100972804115
20764821 26 18339347587792888118
20775530 9 17471000853731794835
3298306 158 18267016163630229743
463206 1 17471293332425345251
469060 322 16370721569149688430
50150288 127 16770718208486840235
5080951 261 17898258793527937176
5265222 85 18335430083660884669

> <PUBCHEM_SHAPE_MULTIPOLES>
695.44
11.18
7.09
1.69
7.77
11.17
0.09
-7.69
0.86
0.95
-0.41
-0.78
-0.27
1.41

> <PUBCHEM_SHAPE_SELFOVERLAP>
1510.178

> <PUBCHEM_SHAPE_VOLUME>
376.2

> <PUBCHEM_COORDINATE_TYPE>
2
5
10

$$$$
