45783361
  -OEChem-12032416263D

 55 58  0     1  0  0  0  0  0999 V2000
   -2.5532   -0.0967    2.3556 O   0  0  0  0  0  0  0  0  0  0  0  0
    3.8438   -0.3866   -0.2984 O   0  0  0  0  0  0  0  0  0  0  0  0
    5.7561   -2.0551   -1.4790 O   0  0  0  0  0  0  0  0  0  0  0  0
   -3.4688   -1.2849   -0.9992 N   0  0  1  0  0  0  0  0  0  0  0  0
   -1.1180   -0.6905    0.7418 N   0  0  0  0  0  0  0  0  0  0  0  0
   -1.2907    0.3393    2.7774 N   0  0  0  0  0  0  0  0  0  0  0  0
    3.6721    0.6599    1.7654 N   0  0  0  0  0  0  0  0  0  0  0  0
   -3.5938   -1.2549    0.4718 C   0  0  1  0  0  0  0  0  0  0  0  0
   -3.8764   -2.7152    0.8702 C   0  0  0  0  0  0  0  0  0  0  0  0
   -3.9529   -3.4785   -0.4445 C   0  0  0  0  0  0  0  0  0  0  0  0
   -4.2881   -2.4057   -1.4609 C   0  0  0  0  0  0  0  0  0  0  0  0
   -3.8497   -0.0296   -1.6338 C   0  0  0  0  0  0  0  0  0  0  0  0
   -2.3620   -0.6921    1.1493 C   0  0  0  0  0  0  0  0  0  0  0  0
   -2.7510    0.9966   -1.5506 C   0  0  0  0  0  0  0  0  0  0  0  0
   -2.9861    2.2204   -0.9239 C   0  0  0  0  0  0  0  0  0  0  0  0
   -1.4993    0.7246   -2.1026 C   0  0  0  0  0  0  0  0  0  0  0  0
   -0.4981   -0.0472    1.7733 C   0  0  0  0  0  0  0  0  0  0  0  0
   -1.9693    3.1723   -0.8494 C   0  0  0  0  0  0  0  0  0  0  0  0
   -0.4825    1.6766   -2.0282 C   0  0  0  0  0  0  0  0  0  0  0  0
   -0.7174    2.9004   -1.4014 C   0  0  0  0  0  0  0  0  0  0  0  0
    0.9162    0.1925    1.7704 C   0  0  0  0  0  0  0  0  0  0  0  0
    0.3693    3.9189   -1.3219 C   0  0  0  0  0  0  0  0  0  0  0  0
    1.6944   -0.2329    0.6995 C   0  0  0  0  0  0  0  0  0  0  0  0
    1.5144    0.8513    2.8389 C   0  0  0  0  0  0  0  0  0  0  0  0
    3.0555    0.0227    0.7450 C   0  0  0  0  0  0  0  0  0  0  0  0
    2.8834    1.0586    2.7886 C   0  0  0  0  0  0  0  0  0  0  0  0
    5.2338   -0.0991   -0.2014 C   0  0  0  0  0  0  0  0  0  0  0  0
    5.9390   -0.6454   -1.4278 C   0  0  0  0  0  0  0  0  0  0  0  0
    6.3794   -2.6196   -2.6241 C   0  0  0  0  0  0  0  0  0  0  0  0
   -4.4621   -0.6538    0.7765 H   0  0  0  0  0  0  0  0  0  0  0  0
   -4.8425   -2.7761    1.3860 H   0  0  0  0  0  0  0  0  0  0  0  0
   -3.1162   -3.1495    1.5285 H   0  0  0  0  0  0  0  0  0  0  0  0
   -2.9786   -3.9292   -0.6710 H   0  0  0  0  0  0  0  0  0  0  0  0
   -4.6992   -4.2778   -0.4161 H   0  0  0  0  0  0  0  0  0  0  0  0
   -5.3591   -2.1691   -1.4251 H   0  0  0  0  0  0  0  0  0  0  0  0
   -4.0256   -2.7179   -2.4764 H   0  0  0  0  0  0  0  0  0  0  0  0
   -4.7951    0.3585   -1.2325 H   0  0  0  0  0  0  0  0  0  0  0  0
   -4.0308   -0.1934   -2.7055 H   0  0  0  0  0  0  0  0  0  0  0  0
   -3.9557    2.4449   -0.4877 H   0  0  0  0  0  0  0  0  0  0  0  0
   -1.3022   -0.2225   -2.5979 H   0  0  0  0  0  0  0  0  0  0  0  0
   -2.1642    4.1209   -0.3562 H   0  0  0  0  0  0  0  0  0  0  0  0
    0.4893    1.4525   -2.4599 H   0  0  0  0  0  0  0  0  0  0  0  0
    0.9826    3.7436   -0.4324 H   0  0  0  0  0  0  0  0  0  0  0  0
    1.0129    3.8769   -2.2072 H   0  0  0  0  0  0  0  0  0  0  0  0
   -0.0398    4.9336   -1.2707 H   0  0  0  0  0  0  0  0  0  0  0  0
    1.2712   -0.7507   -0.1558 H   0  0  0  0  0  0  0  0  0  0  0  0
    0.9587    1.2060    3.7007 H   0  0  0  0  0  0  0  0  0  0  0  0
    3.3986    1.5678    3.5965 H   0  0  0  0  0  0  0  0  0  0  0  0
    5.6444   -0.5854    0.6923 H   0  0  0  0  0  0  0  0  0  0  0  0
    5.3942    0.9840   -0.1446 H   0  0  0  0  0  0  0  0  0  0  0  0
    5.5086   -0.1987   -2.3317 H   0  0  0  0  0  0  0  0  0  0  0  0
    7.0081   -0.4110   -1.3805 H   0  0  0  0  0  0  0  0  0  0  0  0
    5.9421   -2.2107   -3.5401 H   0  0  0  0  0  0  0  0  0  0  0  0
    7.4576   -2.4337   -2.6051 H   0  0  0  0  0  0  0  0  0  0  0  0
    6.2115   -3.6999   -2.6100 H   0  0  0  0  0  0  0  0  0  0  0  0
  1  6  1  0  0  0  0
  1 13  1  0  0  0  0
  2 25  1  0  0  0  0
  2 27  1  0  0  0  0
  3 28  1  0  0  0  0
  3 29  1  0  0  0  0
  4  8  1  0  0  0  0
  4 11  1  0  0  0  0
  4 12  1  0  0  0  0
  5 13  2  0  0  0  0
  5 17  1  0  0  0  0
  6 17  2  0  0  0  0
  7 25  2  0  0  0  0
  7 26  1  0  0  0  0
  8  9  1  0  0  0  0
  8 13  1  0  0  0  0
  8 30  1  0  0  0  0
  9 10  1  0  0  0  0
  9 31  1  0  0  0  0
  9 32  1  0  0  0  0
 10 11  1  0  0  0  0
 10 33  1  0  0  0  0
 10 34  1  0  0  0  0
 11 35  1  0  0  0  0
 11 36  1  0  0  0  0
 12 14  1  0  0  0  0
 12 37  1  0  0  0  0
 12 38  1  0  0  0  0
 14 15  2  0  0  0  0
 14 16  1  0  0  0  0
 15 18  1  0  0  0  0
 15 39  1  0  0  0  0
 16 19  2  0  0  0  0
 16 40  1  0  0  0  0
 17 21  1  0  0  0  0
 18 20  2  0  0  0  0
 18 41  1  0  0  0  0
 19 20  1  0  0  0  0
 19 42  1  0  0  0  0
 20 22  1  0  0  0  0
 21 23  2  0  0  0  0
 21 24  1  0  0  0  0
 22 43  1  0  0  0  0
 22 44  1  0  0  0  0
 22 45  1  0  0  0  0
 23 25  1  0  0  0  0
 23 46  1  0  0  0  0
 24 26  2  0  0  0  0
 24 47  1  0  0  0  0
 26 48  1  0  0  0  0
 27 28  1  0  0  0  0
 27 49  1  0  0  0  0
 27 50  1  0  0  0  0
 28 51  1  0  0  0  0
 28 52  1  0  0  0  0
 29 53  1  0  0  0  0
 29 54  1  0  0  0  0
 29 55  1  0  0  0  0
M  END
> <PUBCHEM_COMPOUND_CID>
45783361

> <PUBCHEM_CONFORMER_RMSD>
1

> <PUBCHEM_CONFORMER_DIVERSEORDER>
1
91
60
82
50
85
54
87
55
40
10
97
86
78
18
47
109
15
94
24
98
75
58
19
25
41
52
62
7
38
90
36
100
64
76
65
88
107
31
81
26
46
27
84
29
16
67
66
5
106
59
37
80
49
2
104
8
33
57
108
103
56
99
72
73
61
101
43
96
23
51
42
93
6
21
79
77
45
70
48
3
53
14
22
68
105
92
13
69
89
17
102
30
28
71
20
44
4
11
63
95
39
83
35
34
32
74
12
9

> <PUBCHEM_MMFF94_PARTIAL_CHARGES>
34
1 -0.02
11 0.27
12 0.41
13 0.3
14 -0.14
15 -0.15
16 -0.15
17 0.46
18 -0.15
19 -0.15
2 -0.36
20 -0.14
21 0.05
22 0.14
23 -0.15
24 -0.15
25 0.39
26 0.16
27 0.28
28 0.28
29 0.28
3 -0.56
39 0.15
4 -0.81
40 0.15
41 0.15
42 0.15
46 0.15
47 0.15
48 0.15
5 -0.57
6 -0.41
7 -0.62
8 0.45

> <PUBCHEM_EFFECTIVE_ROTOR_COUNT>
9

> <PUBCHEM_PHARMACOPHORE_FEATURES>
7
1 3 acceptor
1 4 cation
3 5 6 17 cation
5 1 5 6 13 17 rings
5 4 8 9 10 11 rings
6 14 15 16 18 19 20 rings
6 7 21 23 24 25 26 rings

> <PUBCHEM_HEAVY_ATOM_COUNT>
29

> <PUBCHEM_ATOM_DEF_STEREO_COUNT>
1

> <PUBCHEM_ATOM_UDEF_STEREO_COUNT>
0

> <PUBCHEM_BOND_DEF_STEREO_COUNT>
0

> <PUBCHEM_BOND_UDEF_STEREO_COUNT>
0

> <PUBCHEM_ISOTOPIC_ATOM_COUNT>
0

> <PUBCHEM_COMPONENT_COUNT>
1

> <PUBCHEM_CACTVS_TAUTO_COUNT>
1

> <PUBCHEM_CONFORMER_ID>
02BA994100000001

> <PUBCHEM_MMFF94_ENERGY>
64.5053

> <PUBCHEM_FEATURE_SELFOVERLAP>
35.523

> <PUBCHEM_SHAPE_FINGERPRINT>
10577160 103 18114757014494595556
1100329 8 17824231944337404669
11477941 20 18042141933163336492
11607047 141 17903941168795292131
12596599 1 18263341694971142545
12788726 201 17677036941822963005
13761468 95 17098899331476407396
13994607 96 16660932075833573921
14910302 57 18341884191145820226
17492 54 16588289584770169965
20775438 99 16743101100923876875
21049683 271 14492757990078974619
22620623 9 18335137557659045768
23557571 272 18119498116257843641
3610482 184 17315377846821848678
484985 159 16558743456484077613
6786 2 17765440838229803081

> <PUBCHEM_SHAPE_MULTIPOLES>
559.27
11.4
3.72
3.18
18.31
1.78
1.3
-10.61
-8.11
-3.37
-2.61
2.65
-0.36
2.82

> <PUBCHEM_SHAPE_SELFOVERLAP>
1197.239

> <PUBCHEM_SHAPE_VOLUME>
311.8

> <PUBCHEM_COORDINATE_TYPE>
2
5
10

$$$$
