75537077
  -OEChem-12032416413D

 42 45  0     1  0  0  0  0  0999 V2000
   -5.5432    1.3623   -1.3170 S   0  0  0  0  0  0  0  0  0  0  0  0
    1.7751   -2.3485   -1.3115 O   0  0  0  0  0  0  0  0  0  0  0  0
    0.0116   -1.3398   -0.1320 N   0  0  0  0  0  0  0  0  0  0  0  0
   -2.3314    0.1495    0.3193 N   0  0  2  0  0  0  0  0  0  0  0  0
    2.0883   -1.1655    0.7051 N   0  0  0  0  0  0  0  0  0  0  0  0
   -5.3188    0.1395    0.9495 N   0  0  0  0  0  0  0  0  0  0  0  0
    4.6901    0.8696    1.1295 N   0  0  0  0  0  0  0  0  0  0  0  0
   -0.1655   -0.6790    1.1442 C   0  0  2  0  0  0  0  0  0  0  0  0
   -1.0748    0.5397    0.9904 C   0  0  0  0  0  0  0  0  0  0  0  0
    1.2609   -0.3635    1.5900 C   0  0  0  0  0  0  0  0  0  0  0  0
   -1.1503   -1.6359   -0.9441 C   0  0  0  0  0  0  0  0  0  0  0  0
   -2.0611   -0.4081   -1.0214 C   0  0  0  0  0  0  0  0  0  0  0  0
    1.3447   -1.7037   -0.3645 C   0  0  0  0  0  0  0  0  0  0  0  0
   -3.2339    1.2964    0.2216 C   0  0  0  0  0  0  0  0  0  0  0  0
    3.5240   -1.2445    0.8606 C   0  0  0  0  0  0  0  0  0  0  0  0
   -4.6668    0.8728    0.0749 C   0  0  0  0  0  0  0  0  0  0  0  0
    4.2201   -0.0558    0.2634 C   0  0  0  0  0  0  0  0  0  0  0  0
    4.3465    0.0354   -1.1134 C   0  0  0  0  0  0  0  0  0  0  0  0
   -6.9161    0.5289   -0.7154 C   0  0  0  0  0  0  0  0  0  0  0  0
   -6.6084   -0.0563    0.4949 C   0  0  0  0  0  0  0  0  0  0  0  0
    4.9974    1.1481   -1.6347 C   0  0  0  0  0  0  0  0  0  0  0  0
    5.3170    1.9371    0.5862 C   0  0  0  0  0  0  0  0  0  0  0  0
    5.4948    2.1216   -0.7755 C   0  0  0  0  0  0  0  0  0  0  0  0
   -0.6185   -1.4122    1.8244 H   0  0  0  0  0  0  0  0  0  0  0  0
   -1.2839    0.9438    1.9884 H   0  0  0  0  0  0  0  0  0  0  0  0
   -0.5698    1.3267    0.4138 H   0  0  0  0  0  0  0  0  0  0  0  0
    1.5233    0.6902    1.4505 H   0  0  0  0  0  0  0  0  0  0  0  0
    1.4376   -0.6499    2.6310 H   0  0  0  0  0  0  0  0  0  0  0  0
   -1.6733   -2.4745   -0.4702 H   0  0  0  0  0  0  0  0  0  0  0  0
   -0.8295   -1.9556   -1.9405 H   0  0  0  0  0  0  0  0  0  0  0  0
   -1.5872    0.3507   -1.6588 H   0  0  0  0  0  0  0  0  0  0  0  0
   -2.9925   -0.7131   -1.5117 H   0  0  0  0  0  0  0  0  0  0  0  0
   -2.9197    1.9910   -0.5684 H   0  0  0  0  0  0  0  0  0  0  0  0
   -3.1999    1.8741    1.1561 H   0  0  0  0  0  0  0  0  0  0  0  0
    3.8829   -2.1562    0.3684 H   0  0  0  0  0  0  0  0  0  0  0  0
    3.7524   -1.3375    1.9282 H   0  0  0  0  0  0  0  0  0  0  0  0
    3.9629   -0.7299   -1.7786 H   0  0  0  0  0  0  0  0  0  0  0  0
   -7.8512    0.5077   -1.2565 H   0  0  0  0  0  0  0  0  0  0  0  0
   -7.2944   -0.6421    1.0917 H   0  0  0  0  0  0  0  0  0  0  0  0
    5.1182    1.2556   -2.7084 H   0  0  0  0  0  0  0  0  0  0  0  0
    5.6863    2.6673    1.2986 H   0  0  0  0  0  0  0  0  0  0  0  0
    6.0059    2.9969   -1.1596 H   0  0  0  0  0  0  0  0  0  0  0  0
  1 16  1  0  0  0  0
  1 19  1  0  0  0  0
  2 13  2  0  0  0  0
  3  8  1  0  0  0  0
  3 11  1  0  0  0  0
  3 13  1  0  0  0  0
  4  9  1  0  0  0  0
  4 12  1  0  0  0  0
  4 14  1  0  0  0  0
  5 10  1  0  0  0  0
  5 13  1  0  0  0  0
  5 15  1  0  0  0  0
  6 16  2  0  0  0  0
  6 20  1  0  0  0  0
  7 17  1  0  0  0  0
  7 22  2  0  0  0  0
  8  9  1  0  0  0  0
  8 10  1  0  0  0  0
  8 24  1  0  0  0  0
  9 25  1  0  0  0  0
  9 26  1  0  0  0  0
 10 27  1  0  0  0  0
 10 28  1  0  0  0  0
 11 12  1  0  0  0  0
 11 29  1  0  0  0  0
 11 30  1  0  0  0  0
 12 31  1  0  0  0  0
 12 32  1  0  0  0  0
 14 16  1  0  0  0  0
 14 33  1  0  0  0  0
 14 34  1  0  0  0  0
 15 17  1  0  0  0  0
 15 35  1  0  0  0  0
 15 36  1  0  0  0  0
 17 18  2  0  0  0  0
 18 21  1  0  0  0  0
 18 37  1  0  0  0  0
 19 20  2  0  0  0  0
 19 38  1  0  0  0  0
 20 39  1  0  0  0  0
 21 23  2  0  0  0  0
 21 40  1  0  0  0  0
 22 23  1  0  0  0  0
 22 41  1  0  0  0  0
 23 42  1  0  0  0  0
M  END
> <PUBCHEM_COMPOUND_CID>
75537077

> <PUBCHEM_CONFORMER_RMSD>
0.8

> <PUBCHEM_CONFORMER_DIVERSEORDER>
2
105
88
152
141
98
96
54
121
76
61
146
13
148
143
59
99
109
56
78
75
83
127
129
16
132
68
135
128
122
120
67
93
91
115
92
86
81
102
82
15
37
150
94
47
125
159
63
30
10
123
119
145
1
79
157
103
100
87
19
153
35
137
151
22
160
139
144
32
44
40
42
147
116
90
73
104
114
155
158
134
140
117
21
64
74
97
41
29
161
18
138
162
66
58
48
8
6
101
163
33
149
24
124
38
69
113
43
49
80
11
26
110
71
34
107
118
65
62
31
89
23
72
111
53
51
14
154
5
36
27
142
136
106
9
17
25
77
130
57
20
60
28
50
112
46
85
156
52
126
12
84
95
131
55
39
108
7
70
133
4
3
45

> <PUBCHEM_MMFF94_PARTIAL_CHARGES>
29
1 -0.08
10 0.3
11 0.3
12 0.27
13 0.69
14 0.45
15 0.44
16 0.2
17 0.17
18 -0.15
19 -0.11
2 -0.57
20 0.08
21 -0.15
22 0.16
23 -0.15
3 -0.66
37 0.15
38 0.15
39 0.15
4 -0.81
40 0.15
41 0.15
42 0.15
5 -0.66
6 -0.57
7 -0.62
8 0.3
9 0.27

> <PUBCHEM_EFFECTIVE_ROTOR_COUNT>
5.2

> <PUBCHEM_PHARMACOPHORE_FEATURES>
8
1 2 acceptor
1 4 cation
1 6 acceptor
1 7 acceptor
5 1 6 16 19 20 rings
5 3 5 8 10 13 rings
6 3 4 8 9 11 12 rings
6 7 17 18 21 22 23 rings

> <PUBCHEM_HEAVY_ATOM_COUNT>
23

> <PUBCHEM_ATOM_DEF_STEREO_COUNT>
1

> <PUBCHEM_ATOM_UDEF_STEREO_COUNT>
0

> <PUBCHEM_BOND_DEF_STEREO_COUNT>
0

> <PUBCHEM_BOND_UDEF_STEREO_COUNT>
0

> <PUBCHEM_ISOTOPIC_ATOM_COUNT>
0

> <PUBCHEM_COMPONENT_COUNT>
1

> <PUBCHEM_CACTVS_TAUTO_COUNT>
1

> <PUBCHEM_CONFORMER_ID>
04809AB500000002

> <PUBCHEM_MMFF94_ENERGY>
45.9396

> <PUBCHEM_FEATURE_SELFOVERLAP>
40.693

> <PUBCHEM_SHAPE_FINGERPRINT>
10498660 4 18130792300067506592
10670039 82 18201166442771706872
10753850 27 11815625155578582788
11719270 70 12179842793221605529
11796584 16 10879983675137664901
11961588 58 18131067164498724518
12596602 18 17749107773360891337
12633257 1 15647338606234926396
12730499 353 18272375260581668866
13533116 47 14635141288174475096
13685833 64 11959731564377184508
13914758 101 8214153949916122247
14251732 16 18186523228659165979
14251764 30 12751227121887938221
14251764 75 17534634999591695428
14347424 109 11458424652446452710
14461889 52 17458633345258105475
14528608 73 18273494567718668513
14840074 17 18342738524839967093
15183329 4 13470413262104827481
15342168 16 17967819379304898918
15475509 8 15410908352923413065
15961568 22 18114183008077139885
17349148 13 12973892476976819399
17857418 61 8214140755037948093
1813 80 10952056675745309042
18222031 100 13045946763731797554
18335252 114 18411133633045532300
19784866 140 15410615861255471387
19784866 240 11240005563486612640
1979834 28 13912602723728990280
20511986 3 16008736997585616267
20567600 234 16805328820342637749
20567600 247 12607396689780207069
20832881 197 9727631700521511775
21150785 3 18272363201151713269
21344244 181 15698007344067842791
22079108 93 17530965799685607931
2215653 11 14836404743928116477
2303208 19 13326565281366937821
23522609 53 17131292194003535857
23559900 14 18122622747873729923
270888 7 18042411412460386924
2838139 119 18334284397071570908
2916195 48 17676486142521516553
3004659 81 10952050069895560480
33382 64 11887956553348957900
3411729 13 12974475282907390558
345986 75 8574168106860194956
3472631 163 18341896350614992908
34797466 226 18334862671747515295
4072396 5 12685093674587644963
4325135 7 18186239537278896319
4340502 62 17312823762408644267
474 4 18186243931167499344
5207 217 18413389856363984041
53794403 172 18126561460454469592
56616090 163 18201726166914421886
59682541 52 15051454868872607933
8509985 295 11602828990415555714
960060 61 14836406952042531568

> <PUBCHEM_SHAPE_MULTIPOLES>
446.4
16.76
1.97
1.46
13.61
0.06
0.13
10.34
1.62
-2.17
0.51
-0.64
-0.07
0.09

> <PUBCHEM_SHAPE_SELFOVERLAP>
943.904

> <PUBCHEM_SHAPE_VOLUME>
253.9

> <PUBCHEM_COORDINATE_TYPE>
2
5
10

$$$$
