45783597
  -OEChem-12032416263D

 53 56  0     1  0  0  0  0  0999 V2000
    3.9232   -0.4735   -2.1346 S   0  0  0  0  0  0  0  0  0  0  0  0
   -2.3651   -1.3525    2.0778 O   0  0  0  0  0  0  0  0  0  0  0  0
    1.0284    3.5744    1.0218 O   0  0  0  0  0  0  0  0  0  0  0  0
    4.5284   -1.0327   -3.3290 O   0  0  0  0  0  0  0  0  0  0  0  0
    2.6344    0.1863   -2.2014 O   0  0  0  0  0  0  0  0  0  0  0  0
   -3.4898   -0.2590   -1.2455 N   0  0  1  0  0  0  0  0  0  0  0  0
   -1.0585   -1.0814    0.2789 N   0  0  0  0  0  0  0  0  0  0  0  0
   -1.0453   -1.4039    2.5438 N   0  0  0  0  0  0  0  0  0  0  0  0
    3.9353   -1.6779   -0.9037 N   0  0  0  0  0  0  0  0  0  0  0  0
    3.8953   -1.1906    1.4042 N   0  0  0  0  0  0  0  0  0  0  0  0
   -3.5952   -1.0681   -0.0148 C   0  0  1  0  0  0  0  0  0  0  0  0
   -4.1056   -2.4405   -0.4915 C   0  0  0  0  0  0  0  0  0  0  0  0
   -4.3155   -2.2877   -1.9913 C   0  0  0  0  0  0  0  0  0  0  0  0
   -4.4827   -0.7932   -2.1777 C   0  0  0  0  0  0  0  0  0  0  0  0
   -3.6692    1.1682   -1.0118 C   0  0  0  0  0  0  0  0  0  0  0  0
   -2.2829   -1.1608    0.7352 C   0  0  0  0  0  0  0  0  0  0  0  0
   -2.4191    1.8092   -0.4703 C   0  0  0  0  0  0  0  0  0  0  0  0
   -2.4477    2.4648    0.7606 C   0  0  0  0  0  0  0  0  0  0  0  0
   -1.2319    1.7470   -1.1998 C   0  0  0  0  0  0  0  0  0  0  0  0
   -0.3341   -1.2362    1.4249 C   0  0  0  0  0  0  0  0  0  0  0  0
   -1.2893    3.0582    1.2619 C   0  0  0  0  0  0  0  0  0  0  0  0
   -0.0733    2.3405   -0.6987 C   0  0  0  0  0  0  0  0  0  0  0  0
    1.1002   -1.2199    1.4174 C   0  0  0  0  0  0  0  0  0  0  0  0
   -0.1021    2.9961    0.5322 C   0  0  0  0  0  0  0  0  0  0  0  0
    1.7952   -1.4619    0.2376 C   0  0  0  0  0  0  0  0  0  0  0  0
    1.8012   -0.9632    2.5906 C   0  0  0  0  0  0  0  0  0  0  0  0
    3.1798   -1.4363    0.2837 C   0  0  0  0  0  0  0  0  0  0  0  0
    3.1855   -0.9598    2.5313 C   0  0  0  0  0  0  0  0  0  0  0  0
    2.2072    3.4732    0.2240 C   0  0  0  0  0  0  0  0  0  0  0  0
    5.0933    0.6814   -1.4555 C   0  0  0  0  0  0  0  0  0  0  0  0
   -4.3527   -0.6494    0.6626 H   0  0  0  0  0  0  0  0  0  0  0  0
   -3.4193   -3.2669   -0.2770 H   0  0  0  0  0  0  0  0  0  0  0  0
   -5.0642   -2.6653   -0.0083 H   0  0  0  0  0  0  0  0  0  0  0  0
   -3.4285   -2.6437   -2.5300 H   0  0  0  0  0  0  0  0  0  0  0  0
   -5.1805   -2.8547   -2.3479 H   0  0  0  0  0  0  0  0  0  0  0  0
   -4.2828   -0.4921   -3.2107 H   0  0  0  0  0  0  0  0  0  0  0  0
   -5.5014   -0.4876   -1.9069 H   0  0  0  0  0  0  0  0  0  0  0  0
   -3.8838    1.6775   -1.9619 H   0  0  0  0  0  0  0  0  0  0  0  0
   -4.5362    1.3691   -0.3688 H   0  0  0  0  0  0  0  0  0  0  0  0
   -3.3650    2.5190    1.3408 H   0  0  0  0  0  0  0  0  0  0  0  0
   -1.1957    1.2438   -2.1626 H   0  0  0  0  0  0  0  0  0  0  0  0
   -1.3173    3.5664    2.2219 H   0  0  0  0  0  0  0  0  0  0  0  0
    0.8130    2.2577   -1.3176 H   0  0  0  0  0  0  0  0  0  0  0  0
    1.2787   -1.6817   -0.6921 H   0  0  0  0  0  0  0  0  0  0  0  0
    1.3094   -0.7617    3.5366 H   0  0  0  0  0  0  0  0  0  0  0  0
    3.7791   -0.7631    3.4180 H   0  0  0  0  0  0  0  0  0  0  0  0
    4.8563   -2.0931   -0.7109 H   0  0  0  0  0  0  0  0  0  0  0  0
    2.5203    2.4307    0.1023 H   0  0  0  0  0  0  0  0  0  0  0  0
    2.0890    3.9861   -0.7365 H   0  0  0  0  0  0  0  0  0  0  0  0
    3.0091    3.9865    0.7646 H   0  0  0  0  0  0  0  0  0  0  0  0
    6.0468    0.1728   -1.3015 H   0  0  0  0  0  0  0  0  0  0  0  0
    4.7041    1.0799   -0.5173 H   0  0  0  0  0  0  0  0  0  0  0  0
    5.2198    1.4935   -2.1751 H   0  0  0  0  0  0  0  0  0  0  0  0
  1  4  2  0  0  0  0
  1  5  2  0  0  0  0
  1  9  1  0  0  0  0
  1 30  1  0  0  0  0
  2  8  1  0  0  0  0
  2 16  1  0  0  0  0
  3 24  1  0  0  0  0
  3 29  1  0  0  0  0
  6 11  1  0  0  0  0
  6 14  1  0  0  0  0
  6 15  1  0  0  0  0
  7 16  2  0  0  0  0
  7 20  1  0  0  0  0
  8 20  2  0  0  0  0
  9 27  1  0  0  0  0
  9 47  1  0  0  0  0
 10 27  2  0  0  0  0
 10 28  1  0  0  0  0
 11 12  1  0  0  0  0
 11 16  1  0  0  0  0
 11 31  1  0  0  0  0
 12 13  1  0  0  0  0
 12 32  1  0  0  0  0
 12 33  1  0  0  0  0
 13 14  1  0  0  0  0
 13 34  1  0  0  0  0
 13 35  1  0  0  0  0
 14 36  1  0  0  0  0
 14 37  1  0  0  0  0
 15 17  1  0  0  0  0
 15 38  1  0  0  0  0
 15 39  1  0  0  0  0
 17 18  2  0  0  0  0
 17 19  1  0  0  0  0
 18 21  1  0  0  0  0
 18 40  1  0  0  0  0
 19 22  2  0  0  0  0
 19 41  1  0  0  0  0
 20 23  1  0  0  0  0
 21 24  2  0  0  0  0
 21 42  1  0  0  0  0
 22 24  1  0  0  0  0
 22 43  1  0  0  0  0
 23 25  2  0  0  0  0
 23 26  1  0  0  0  0
 25 27  1  0  0  0  0
 25 44  1  0  0  0  0
 26 28  2  0  0  0  0
 26 45  1  0  0  0  0
 28 46  1  0  0  0  0
 29 48  1  0  0  0  0
 29 49  1  0  0  0  0
 29 50  1  0  0  0  0
 30 51  1  0  0  0  0
 30 52  1  0  0  0  0
 30 53  1  0  0  0  0
M  END
> <PUBCHEM_COMPOUND_CID>
45783597

> <PUBCHEM_CONFORMER_RMSD>
1

> <PUBCHEM_CONFORMER_DIVERSEORDER>
1
165
115
13
161
73
78
118
34
193
124
52
144
189
3
137
27
186
153
190
177
150
45
176
112
191
86
36
54
185
170
74
49
147
159
11
20
79
87
38
154
173
71
122
98
121
135
58
81
132
160
187
149
42
178
157
138
82
4
151
21
171
152
180
96
72
125
109
179
156
41
7
44
139
120
158
145
155
188
80
59
65
67
28
51
75
76
192
127
33
134
168
95
48
37
97
32
6
24
143
183
2
113
25
166
162
181
16
136
50
83
110
106
77
29
5
114
100
140
130
175
56
35
105
66
92
22
128
99
91
184
119
88
19
108
172
53
39
43
148
40
133
69
141
126
164
163
116
89
102
30
85
60
90
55
23
12
46
174
169
101
123
70
107
129
117
84
61
111
63
62
57
94
9
167
103
15
93
68
64
17
131
10
182
26
8
146
14
47
142
31
18
104

> <PUBCHEM_MMFF94_PARTIAL_CHARGES>
36
1 1.33
10 -0.62
11 0.45
14 0.27
15 0.41
16 0.3
17 -0.14
18 -0.15
19 -0.15
2 -0.02
20 0.46
21 -0.15
22 -0.15
23 0.05
24 0.08
25 -0.15
26 -0.15
27 0.51
28 0.16
29 0.28
3 -0.36
30 0.11
4 -0.65
40 0.15
41 0.15
42 0.15
43 0.15
44 0.15
45 0.15
46 0.15
47 0.42
5 -0.65
6 -0.81
7 -0.57
8 -0.41
9 -0.76

> <PUBCHEM_EFFECTIVE_ROTOR_COUNT>
8

> <PUBCHEM_PHARMACOPHORE_FEATURES>
11
1 10 acceptor
1 3 acceptor
1 4 acceptor
1 5 acceptor
1 6 cation
1 9 donor
3 7 8 20 cation
5 2 7 8 16 20 rings
5 6 11 12 13 14 rings
6 10 23 25 26 27 28 rings
6 17 18 19 21 22 24 rings

> <PUBCHEM_HEAVY_ATOM_COUNT>
30

> <PUBCHEM_ATOM_DEF_STEREO_COUNT>
1

> <PUBCHEM_ATOM_UDEF_STEREO_COUNT>
0

> <PUBCHEM_BOND_DEF_STEREO_COUNT>
0

> <PUBCHEM_BOND_UDEF_STEREO_COUNT>
0

> <PUBCHEM_ISOTOPIC_ATOM_COUNT>
0

> <PUBCHEM_COMPONENT_COUNT>
1

> <PUBCHEM_CACTVS_TAUTO_COUNT>
2

> <PUBCHEM_CONFORMER_ID>
02BA9A2D00000001

> <PUBCHEM_MMFF94_ENERGY>
71.9283

> <PUBCHEM_FEATURE_SELFOVERLAP>
55.84

> <PUBCHEM_SHAPE_FINGERPRINT>
1100329 8 18265593426439858705
11578080 2 17060625468762529656
12166972 35 17169805826623293274
12596599 1 18201709605509901041
12788726 201 18264214599502392749
13009979 54 17681818627724130970
13383661 66 16327390107920331182
13761468 95 17468212041583101108
14910302 57 17703225096751195390
15968369 153 18411701002510128849
1813 80 17988917925078922527
18336668 15 17387669653911081216
19319366 153 17752485352875134545
20028762 73 16175943407077134615
20691752 17 17242142770256743857
20775438 99 17691666201876857895
20905425 154 18047451599035458841
23557571 272 18128795504788099587
394222 165 15647048292057207138
59755656 215 17395829417669590527
70251023 43 18270975659857531175

> <PUBCHEM_SHAPE_MULTIPOLES>
572.85
9.14
3.85
2.87
2.11
4.02
-0.44
-5.1
-6.62
-1.04
0.84
2.38
-1.44
-0.79

> <PUBCHEM_SHAPE_SELFOVERLAP>
1220.118

> <PUBCHEM_SHAPE_VOLUME>
323

> <PUBCHEM_COORDINATE_TYPE>
2
5
10

$$$$
