71694393
  -OEChem-12032416323D

 44 46  0     0  0  0  0  0  0999 V2000
    0.1810   -3.4222   -0.4193 O   0  0  0  0  0  0  0  0  0  0  0  0
    3.2051    1.7976    0.2769 O   0  0  0  0  0  0  0  0  0  0  0  0
    5.2640    1.4696   -1.8901 O   0  0  0  0  0  0  0  0  0  0  0  0
   -0.5786   -0.3372   -0.2789 N   0  0  0  0  0  0  0  0  0  0  0  0
    2.0258    1.2805    0.7993 N   0  0  0  0  0  0  0  0  0  0  0  0
    0.2474   -1.4081    0.2914 C   0  0  0  0  0  0  0  0  0  0  0  0
   -2.7667    0.7351    0.0296 C   0  0  0  0  0  0  0  0  0  0  0  0
   -1.5534    0.1015    0.7075 C   0  0  0  0  0  0  0  0  0  0  0  0
   -3.4673   -0.2787   -0.8852 C   0  0  0  0  0  0  0  0  0  0  0  0
   -3.7420    1.2928    1.0751 C   0  0  0  0  0  0  0  0  0  0  0  0
   -0.6337   -2.6471    0.4996 C   0  0  0  0  0  0  0  0  0  0  0  0
    0.8569   -2.2157   -0.8623 C   0  0  0  0  0  0  0  0  0  0  0  0
    1.1409   -0.9387    1.4102 C   0  0  0  0  0  0  0  0  0  0  0  0
   -4.7153    0.3157   -1.5339 C   0  0  0  0  0  0  0  0  0  0  0  0
   -4.9897    1.8844    0.4232 C   0  0  0  0  0  0  0  0  0  0  0  0
   -5.6782    0.8767   -0.4921 C   0  0  0  0  0  0  0  0  0  0  0  0
    2.2303   -0.0377    0.8753 C   0  0  0  0  0  0  0  0  0  0  0  0
    3.5075   -0.4068    0.4192 C   0  0  0  0  0  0  0  0  0  0  0  0
    4.0796    0.7833    0.0547 C   0  0  0  0  0  0  0  0  0  0  0  0
    5.3866    1.1548   -0.5003 C   0  0  0  0  0  0  0  0  0  0  0  0
   -2.4226    1.5761   -0.5895 H   0  0  0  0  0  0  0  0  0  0  0  0
   -1.9080   -0.7021    1.3639 H   0  0  0  0  0  0  0  0  0  0  0  0
   -1.0891    0.8484    1.3639 H   0  0  0  0  0  0  0  0  0  0  0  0
   -2.7942   -0.6184   -1.6806 H   0  0  0  0  0  0  0  0  0  0  0  0
   -3.7535   -1.1674   -0.3081 H   0  0  0  0  0  0  0  0  0  0  0  0
   -3.2470    2.0664    1.6741 H   0  0  0  0  0  0  0  0  0  0  0  0
   -4.0420    0.4971    1.7690 H   0  0  0  0  0  0  0  0  0  0  0  0
   -0.6089   -3.0786    1.5053 H   0  0  0  0  0  0  0  0  0  0  0  0
   -1.6698   -2.6276    0.1459 H   0  0  0  0  0  0  0  0  0  0  0  0
    0.5507   -1.9533   -1.8813 H   0  0  0  0  0  0  0  0  0  0  0  0
    1.9392   -2.3645   -0.8492 H   0  0  0  0  0  0  0  0  0  0  0  0
   -0.0659    0.4611   -0.6501 H   0  0  0  0  0  0  0  0  0  0  0  0
    1.6269   -1.8015    1.8856 H   0  0  0  0  0  0  0  0  0  0  0  0
    0.5920   -0.4361    2.2147 H   0  0  0  0  0  0  0  0  0  0  0  0
   -5.2230   -0.4525   -2.1282 H   0  0  0  0  0  0  0  0  0  0  0  0
   -4.4215    1.1136   -2.2269 H   0  0  0  0  0  0  0  0  0  0  0  0
   -4.7117    2.7735   -0.1561 H   0  0  0  0  0  0  0  0  0  0  0  0
   -5.6891    2.2150    1.1993 H   0  0  0  0  0  0  0  0  0  0  0  0
   -6.5275    1.3541   -0.9938 H   0  0  0  0  0  0  0  0  0  0  0  0
   -6.0836    0.0544    0.1102 H   0  0  0  0  0  0  0  0  0  0  0  0
    3.9512   -1.3900    0.3658 H   0  0  0  0  0  0  0  0  0  0  0  0
    5.7918    2.0307    0.0162 H   0  0  0  0  0  0  0  0  0  0  0  0
    6.1017    0.3322   -0.3992 H   0  0  0  0  0  0  0  0  0  0  0  0
    6.1526    1.7080   -2.2054 H   0  0  0  0  0  0  0  0  0  0  0  0
  1 11  1  0  0  0  0
  1 12  1  0  0  0  0
  2  5  1  0  0  0  0
  2 19  1  0  0  0  0
  3 20  1  0  0  0  0
  3 44  1  0  0  0  0
  4  6  1  0  0  0  0
  4  8  1  0  0  0  0
  4 32  1  0  0  0  0
  5 17  2  0  0  0  0
  6 11  1  0  0  0  0
  6 12  1  0  0  0  0
  6 13  1  0  0  0  0
  7  8  1  0  0  0  0
  7  9  1  0  0  0  0
  7 10  1  0  0  0  0
  7 21  1  0  0  0  0
  8 22  1  0  0  0  0
  8 23  1  0  0  0  0
  9 14  1  0  0  0  0
  9 24  1  0  0  0  0
  9 25  1  0  0  0  0
 10 15  1  0  0  0  0
 10 26  1  0  0  0  0
 10 27  1  0  0  0  0
 11 28  1  0  0  0  0
 11 29  1  0  0  0  0
 12 30  1  0  0  0  0
 12 31  1  0  0  0  0
 13 17  1  0  0  0  0
 13 33  1  0  0  0  0
 13 34  1  0  0  0  0
 14 16  1  0  0  0  0
 14 35  1  0  0  0  0
 14 36  1  0  0  0  0
 15 16  1  0  0  0  0
 15 37  1  0  0  0  0
 15 38  1  0  0  0  0
 16 39  1  0  0  0  0
 16 40  1  0  0  0  0
 17 18  1  0  0  0  0
 18 19  2  0  0  0  0
 18 41  1  0  0  0  0
 19 20  1  0  0  0  0
 20 42  1  0  0  0  0
 20 43  1  0  0  0  0
M  END
> <PUBCHEM_COMPOUND_CID>
71694393

> <PUBCHEM_CONFORMER_RMSD>
0.8

> <PUBCHEM_CONFORMER_DIVERSEORDER>
1
110
45
103
50
107
108
64
118
57
109
98
63
125
4
81
76
27
85
91
119
31
89
52
114
72
47
86
20
42
5
123
113
71
102
21
16
18
6
29
93
80
22
69
33
15
49
39
100
46
87
105
30
60
10
66
121
9
40
73
23
74
38
67
96
94
65
122
70
37
19
99
62
82
34
84
90
117
26
55
115
83
13
11
112
116
41
95
54
59
51
17
111
68
25
14
88
75
24
3
56
106
7
97
124
8
58
43
79
104
44
48
92
2
32
61
53
35
120
36
77
78
12
101
28

> <PUBCHEM_MMFF94_PARTIAL_CHARGES>
17
1 -0.52
11 0.26
12 0.26
13 0.18
17 0.11
18 -0.15
19 -0.04
2 -0.02
20 0.46
3 -0.68
32 0.36
4 -0.84
41 0.15
44 0.4
5 -0.41
6 0.21
8 0.27

> <PUBCHEM_EFFECTIVE_ROTOR_COUNT>
8

> <PUBCHEM_PHARMACOPHORE_FEATURES>
9
1 1 acceptor
1 3 acceptor
1 3 donor
1 4 cation
1 4 donor
1 5 acceptor
4 1 6 11 12 rings
5 2 5 17 18 19 rings
6 7 9 10 14 15 16 rings

> <PUBCHEM_HEAVY_ATOM_COUNT>
20

> <PUBCHEM_ATOM_DEF_STEREO_COUNT>
0

> <PUBCHEM_ATOM_UDEF_STEREO_COUNT>
0

> <PUBCHEM_BOND_DEF_STEREO_COUNT>
0

> <PUBCHEM_BOND_UDEF_STEREO_COUNT>
0

> <PUBCHEM_ISOTOPIC_ATOM_COUNT>
0

> <PUBCHEM_COMPONENT_COUNT>
1

> <PUBCHEM_CACTVS_TAUTO_COUNT>
1

> <PUBCHEM_CONFORMER_ID>
0445F83900000001

> <PUBCHEM_MMFF94_ENERGY>
26.9982

> <PUBCHEM_FEATURE_SELFOVERLAP>
45.671

> <PUBCHEM_SHAPE_FINGERPRINT>
105312 117 18338244855055327638
10681291 71 18411706482249503369
11796584 16 14189574113438669221
12596602 18 14129060313498192077
12892183 10 14418122990008190937
13544653 18 10447929477259449970
13583140 156 17313101981894823715
14251764 30 13829842569848507925
14528608 73 18341886390474991909
15163728 17 18336561463855968798
15183329 4 18271533022622788412
15342168 16 18335983078254088181
15961568 22 17821729395099687541
17857418 61 8214133063205455089
17980427 23 15068630421925750547
193927 3 11599732808764102456
19784866 135 10447936065882057567
19784866 140 14261354643737098247
200 152 11743845763419807320
204376 136 18260828189814632667
20612939 158 18270400469052306055
21069387 34 14620527756718273862
21250096 35 9151172064798925529
21521239 73 17632858599015267006
21524375 3 18411125935757334002
21857420 4 14612563009982064005
2255824 54 18054785088269411963
22620623 9 17701813512747139615
23253445 4 14345796058423431372
23366157 5 18121497956005197955
23402655 69 18343298180299790008
23559900 14 17628624259889274647
2637199 183 18343300370632845304
2838139 119 18334007302824501180
3060560 45 18342168943192867366
314173 85 7925638816451387072
351380 3 10519989274805959248
3759504 43 18188211004298032362
38570 142 17772780211256884457
4325135 7 18041278855343087971
458136 41 18339643335019685499
474 4 18410852127681991683
4990 188 16630518536026013081
633830 44 18343018852796301559
81539 233 18336541621175665203
8272917 22 18270116782547012283
8863177 126 11310902121113404869
9999458 23 17676766462273773042

> <PUBCHEM_SHAPE_MULTIPOLES>
384.02
11.91
2.58
1.28
2.18
2.15
-0.26
-9.92
-3.86
-0.82
-0.18
-0.12
-0.16
-1.05

> <PUBCHEM_SHAPE_SELFOVERLAP>
793

> <PUBCHEM_SHAPE_VOLUME>
221.6

> <PUBCHEM_COORDINATE_TYPE>
2
5
10

$$$$
