75368519
  -OEChem-12032416383D

 48 50  0     1  0  0  0  0  0999 V2000
    2.1588   -2.9449    0.3204 O   0  0  0  0  0  0  0  0  0  0  0  0
   -4.4070   -1.4119   -1.4078 O   0  0  0  0  0  0  0  0  0  0  0  0
   -7.6523    1.9107    0.1888 O   0  0  0  0  0  0  0  0  0  0  0  0
   -5.6452    2.7086    0.8957 O   0  0  0  0  0  0  0  0  0  0  0  0
    0.0939   -1.8243    0.3009 N   0  0  0  0  0  0  0  0  0  0  0  0
    1.8340   -0.8349    1.3219 N   0  0  0  0  0  0  0  0  0  0  0  0
   -2.2592   -0.7979   -0.7730 N   0  0  0  0  0  0  0  0  0  0  0  0
   -0.4662   -0.6246    0.8979 C   0  0  1  0  0  0  0  0  0  0  0  0
    0.7580    0.1376    1.3991 C   0  0  0  0  0  0  0  0  0  0  0  0
   -1.3161    0.1303   -0.1209 C   0  0  0  0  0  0  0  0  0  0  0  0
   -0.7685   -2.7375   -0.4269 C   0  0  0  0  0  0  0  0  0  0  0  0
   -1.6293   -1.9593   -1.4193 C   0  0  0  0  0  0  0  0  0  0  0  0
    1.4502   -1.9908    0.6135 C   0  0  0  0  0  0  0  0  0  0  0  0
    3.1643   -0.5451    1.8093 C   0  0  0  0  0  0  0  0  0  0  0  0
   -3.6416   -0.6330   -0.8341 C   0  0  0  0  0  0  0  0  0  0  0  0
    3.9666    0.2454    0.8164 C   0  0  0  0  0  0  0  0  0  0  0  0
   -4.2064    0.5822   -0.1432 C   0  0  0  0  0  0  0  0  0  0  0  0
   -5.7132    0.6117   -0.3034 C   0  0  0  0  0  0  0  0  0  0  0  0
    4.4943   -0.3828   -0.3117 C   0  0  0  0  0  0  0  0  0  0  0  0
    4.1868    1.6071    1.0237 C   0  0  0  0  0  0  0  0  0  0  0  0
    5.2422    0.3507   -1.2325 C   0  0  0  0  0  0  0  0  0  0  0  0
    4.9347    2.3406    0.1028 C   0  0  0  0  0  0  0  0  0  0  0  0
    5.4622    1.7126   -1.0254 C   0  0  0  0  0  0  0  0  0  0  0  0
   -6.3035    1.8533    0.3179 C   0  0  0  0  0  0  0  0  0  0  0  0
    6.2626    2.4964   -2.0101 C   0  0  0  0  0  0  0  0  0  0  0  0
   -1.0860   -0.9527    1.7423 H   0  0  0  0  0  0  0  0  0  0  0  0
    1.0125    0.9909    0.7623 H   0  0  0  0  0  0  0  0  0  0  0  0
    0.6337    0.4770    2.4318 H   0  0  0  0  0  0  0  0  0  0  0  0
   -1.8200    0.9683    0.3634 H   0  0  0  0  0  0  0  0  0  0  0  0
   -0.6909    0.5452   -0.9215 H   0  0  0  0  0  0  0  0  0  0  0  0
   -1.4002   -3.2389    0.3150 H   0  0  0  0  0  0  0  0  0  0  0  0
   -0.1643   -3.4973   -0.9319 H   0  0  0  0  0  0  0  0  0  0  0  0
   -1.0084   -1.5685   -2.2344 H   0  0  0  0  0  0  0  0  0  0  0  0
   -2.3803   -2.6201   -1.8629 H   0  0  0  0  0  0  0  0  0  0  0  0
    3.6795   -1.4933    2.0057 H   0  0  0  0  0  0  0  0  0  0  0  0
    3.0787   -0.0244    2.7698 H   0  0  0  0  0  0  0  0  0  0  0  0
   -3.7656    1.4812   -0.5889 H   0  0  0  0  0  0  0  0  0  0  0  0
   -3.9440    0.5472    0.9203 H   0  0  0  0  0  0  0  0  0  0  0  0
   -5.9883    0.6096   -1.3647 H   0  0  0  0  0  0  0  0  0  0  0  0
   -6.1675   -0.2598    0.1819 H   0  0  0  0  0  0  0  0  0  0  0  0
    4.3377   -1.4437   -0.4841 H   0  0  0  0  0  0  0  0  0  0  0  0
    3.7796    2.1090    1.8974 H   0  0  0  0  0  0  0  0  0  0  0  0
    5.6479   -0.1498   -2.1077 H   0  0  0  0  0  0  0  0  0  0  0  0
    5.0976    3.4014    0.2742 H   0  0  0  0  0  0  0  0  0  0  0  0
    5.6075    2.9058   -2.7854 H   0  0  0  0  0  0  0  0  0  0  0  0
    6.7889    3.3241   -1.5224 H   0  0  0  0  0  0  0  0  0  0  0  0
    7.0238    1.8704   -2.4880 H   0  0  0  0  0  0  0  0  0  0  0  0
   -8.0261    2.7162    0.6055 H   0  0  0  0  0  0  0  0  0  0  0  0
  1 13  2  0  0  0  0
  2 15  2  0  0  0  0
  3 24  1  0  0  0  0
  3 48  1  0  0  0  0
  4 24  2  0  0  0  0
  5  8  1  0  0  0  0
  5 11  1  0  0  0  0
  5 13  1  0  0  0  0
  6  9  1  0  0  0  0
  6 13  1  0  0  0  0
  6 14  1  0  0  0  0
  7 10  1  0  0  0  0
  7 12  1  0  0  0  0
  7 15  1  0  0  0  0
  8  9  1  0  0  0  0
  8 10  1  0  0  0  0
  8 26  1  0  0  0  0
  9 27  1  0  0  0  0
  9 28  1  0  0  0  0
 10 29  1  0  0  0  0
 10 30  1  0  0  0  0
 11 12  1  0  0  0  0
 11 31  1  0  0  0  0
 11 32  1  0  0  0  0
 12 33  1  0  0  0  0
 12 34  1  0  0  0  0
 14 16  1  0  0  0  0
 14 35  1  0  0  0  0
 14 36  1  0  0  0  0
 15 17  1  0  0  0  0
 16 19  2  0  0  0  0
 16 20  1  0  0  0  0
 17 18  1  0  0  0  0
 17 37  1  0  0  0  0
 17 38  1  0  0  0  0
 18 24  1  0  0  0  0
 18 39  1  0  0  0  0
 18 40  1  0  0  0  0
 19 21  1  0  0  0  0
 19 41  1  0  0  0  0
 20 22  2  0  0  0  0
 20 42  1  0  0  0  0
 21 23  2  0  0  0  0
 21 43  1  0  0  0  0
 22 23  1  0  0  0  0
 22 44  1  0  0  0  0
 23 25  1  0  0  0  0
 25 45  1  0  0  0  0
 25 46  1  0  0  0  0
 25 47  1  0  0  0  0
M  END
> <PUBCHEM_COMPOUND_CID>
75368519

> <PUBCHEM_CONFORMER_RMSD>
1

> <PUBCHEM_CONFORMER_DIVERSEORDER>
1
9
48
11
59
58
84
51
15
49
24
42
57
36
85
28
45
32
83
37
65
74
91
86
25
87
67
12
73
94
17
16
40
56
7
5
88
66
52
43
92
41
18
14
21
81
46
64
19
89
70
75
62
77
44
20
93
80
3
55
63
30
23
78
4
79
90
68
71
39
26
31
53
8
10
50
60
33
82
72
6
22
69
2
47
61
13
38
76
34
29
54
27
95
35

> <PUBCHEM_MMFF94_PARTIAL_CHARGES>
30
1 -0.57
10 0.3
11 0.3
12 0.3
13 0.69
14 0.44
15 0.57
16 -0.14
17 0.06
18 0.06
19 -0.15
2 -0.57
20 -0.15
21 -0.15
22 -0.15
23 -0.14
24 0.66
25 0.14
3 -0.65
4 -0.57
41 0.15
42 0.15
43 0.15
44 0.15
48 0.5
5 -0.66
6 -0.66
7 -0.66
8 0.3
9 0.3

> <PUBCHEM_EFFECTIVE_ROTOR_COUNT>
7.2

> <PUBCHEM_PHARMACOPHORE_FEATURES>
8
1 1 acceptor
1 2 acceptor
1 3 acceptor
1 4 acceptor
3 3 4 24 anion
5 5 6 8 9 13 rings
6 16 19 20 21 22 23 rings
6 5 7 8 10 11 12 rings

> <PUBCHEM_HEAVY_ATOM_COUNT>
25

> <PUBCHEM_ATOM_DEF_STEREO_COUNT>
1

> <PUBCHEM_ATOM_UDEF_STEREO_COUNT>
0

> <PUBCHEM_BOND_DEF_STEREO_COUNT>
0

> <PUBCHEM_BOND_UDEF_STEREO_COUNT>
0

> <PUBCHEM_ISOTOPIC_ATOM_COUNT>
0

> <PUBCHEM_COMPONENT_COUNT>
1

> <PUBCHEM_CACTVS_TAUTO_COUNT>
1

> <PUBCHEM_CONFORMER_ID>
047E084700000001

> <PUBCHEM_MMFF94_ENERGY>
54.069

> <PUBCHEM_FEATURE_SELFOVERLAP>
40.753

> <PUBCHEM_SHAPE_FINGERPRINT>
10378564 45 17275102817131403184
10498660 4 18264207096932348754
10554248 39 18196632026943548047
10753850 27 10015860990415749317
11475781 23 17561077029946493056
11796584 16 14764337258591146878
1200032 147 17894639180001198160
12390115 104 18131353016738323107
12633257 1 12685366431440127590
12892183 10 12902084506675303918
13782708 43 11959718392303623733
13885169 86 18260555557980802093
13955234 65 17168695324585761394
14251740 57 11025785463006904696
14251764 75 18041568056576074596
14347332 77 9367343743776105203
14528608 73 18411130376827019982
14790565 3 18341891883659035873
14840074 17 18187083953566918357
14848178 5 12319461012930277332
15052358 14 17131837564128163205
15163728 17 18260553376712227310
15183329 4 16343708711828366569
15188451 53 9295294919359814660
15575132 122 18334853875555020013
15685185 35 17678755654955294652
15840311 113 18261679177697432021
17349148 13 10879719839580634704
17857418 61 9655570829560764593
1813 80 12175356846083641354
18222031 100 9367071103198800730
20567600 234 14273747264841934934
20621476 91 13479139016569273257
21315764 119 17917439717828567724
21585480 29 14924235979207805369
21728266 224 8790891795749268207
22061861 79 14764625326485217465
2215653 11 15698000747019238909
23559900 14 15697710514741531074
2838139 119 17676476285903752124
3014063 24 11167949039223121956
312425 54 12396839083194443301
3472631 163 18410857698133320604
38570 142 18410302392915626571
397830 11 17386017173939128089
4058900 60 18271534083311580995
4258327 124 18335695041163526701
4756326 101 17273128237069860728
5104073 3 17749378308723999506
5911458 16 18336274478621437605
59682541 52 16128659621770962588
6438161 24 8141791778399317297
76465 3 9799694813481924251
8988823 20 10303799991522588226
960060 61 15984544524538162144
96874 4 10159700161917960653

> <PUBCHEM_SHAPE_MULTIPOLES>
476.07
17.15
3.05
1.54
14.09
0.13
-0.11
-18.24
-3.98
0.37
-0.31
-1.59
-0.11
-2.91

> <PUBCHEM_SHAPE_SELFOVERLAP>
1001.189

> <PUBCHEM_SHAPE_VOLUME>
267.5

> <PUBCHEM_COORDINATE_TYPE>
2
5
10

$$$$
