25317485
  -OEChem-12032416193D

 62 66  0     1  0  0  0  0  0999 V2000
   -6.1369    2.0689    2.1167 F   0  0  0  0  0  0  0  0  0  0  0  0
   -7.1397    2.6254    0.2695 F   0  0  0  0  0  0  0  0  0  0  0  0
   -5.1415    3.3697    0.6951 F   0  0  0  0  0  0  0  0  0  0  0  0
    2.1019   -2.8669    1.7897 O   0  0  0  0  0  0  0  0  0  0  0  0
    3.3572   -4.4174    0.6062 O   0  0  0  0  0  0  0  0  0  0  0  0
    1.8389   -4.0852   -1.8198 O   0  0  0  0  0  0  0  0  0  0  0  0
   -2.0154   -2.8953   -1.1981 O   0  0  0  0  0  0  0  0  0  0  0  0
    2.5859   -0.8938   -0.2397 N   0  0  0  0  0  0  0  0  0  0  0  0
   -0.4364   -2.3578    0.4020 N   0  0  0  0  0  0  0  0  0  0  0  0
    3.3303    1.8639   -0.2457 N   0  0  0  0  0  0  0  0  0  0  0  0
   -2.3299   -1.0755    0.2510 N   0  0  0  0  0  0  0  0  0  0  0  0
    2.7718   -2.3288   -0.4636 C   0  0  2  0  0  0  0  0  0  0  0  0
    1.4722   -2.9532   -1.0201 C   0  0  2  0  0  0  0  0  0  0  0  0
    0.4935   -3.4190    0.0803 C   0  0  1  0  0  0  0  0  0  0  0  0
    3.1790   -3.0131    0.8542 C   0  0  1  0  0  0  0  0  0  0  0  0
    1.2047   -3.8969    1.3630 C   0  0  1  0  0  0  0  0  0  0  0  0
    2.1794   -5.0385    1.1435 C   0  0  0  0  0  0  0  0  0  0  0  0
    2.6969   -0.1566   -1.5042 C   0  0  0  0  0  0  0  0  0  0  0  0
    3.5757   -0.3901    0.7205 C   0  0  0  0  0  0  0  0  0  0  0  0
    2.4488    1.3390   -1.2930 C   0  0  0  0  0  0  0  0  0  0  0  0
    3.3559    1.0973    1.0064 C   0  0  0  0  0  0  0  0  0  0  0  0
   -1.6441   -2.1735   -0.2756 C   0  0  0  0  0  0  0  0  0  0  0  0
    3.5898    3.2374   -0.1809 C   0  0  0  0  0  0  0  0  0  0  0  0
    2.6295    4.1501   -0.6172 C   0  0  0  0  0  0  0  0  0  0  0  0
    4.8090    3.6938    0.3200 C   0  0  0  0  0  0  0  0  0  0  0  0
    2.8883    5.5194   -0.5528 C   0  0  0  0  0  0  0  0  0  0  0  0
    5.0678    5.0629    0.3845 C   0  0  0  0  0  0  0  0  0  0  0  0
   -3.5829   -0.5591   -0.1538 C   0  0  0  0  0  0  0  0  0  0  0  0
    4.1076    5.9757   -0.0519 C   0  0  0  0  0  0  0  0  0  0  0  0
   -4.1191    0.5557    0.4906 C   0  0  0  0  0  0  0  0  0  0  0  0
   -4.2823   -1.1646   -1.1978 C   0  0  0  0  0  0  0  0  0  0  0  0
   -5.3547    1.0650    0.0912 C   0  0  0  0  0  0  0  0  0  0  0  0
   -5.5180   -0.6552   -1.5972 C   0  0  0  0  0  0  0  0  0  0  0  0
   -6.0542    0.4595   -0.9528 C   0  0  0  0  0  0  0  0  0  0  0  0
   -5.9288    2.2568    0.7799 C   0  0  0  0  0  0  0  0  0  0  0  0
    3.5886   -2.5072   -1.1781 H   0  0  0  0  0  0  0  0  0  0  0  0
    0.9626   -2.2796   -1.7163 H   0  0  0  0  0  0  0  0  0  0  0  0
   -0.0989   -4.2614   -0.2997 H   0  0  0  0  0  0  0  0  0  0  0  0
    4.1254   -2.6757    1.2839 H   0  0  0  0  0  0  0  0  0  0  0  0
    0.4822   -4.1195    2.1549 H   0  0  0  0  0  0  0  0  0  0  0  0
    2.4656   -5.4975    2.0959 H   0  0  0  0  0  0  0  0  0  0  0  0
    1.8120   -5.8172    0.4698 H   0  0  0  0  0  0  0  0  0  0  0  0
    1.9693   -0.5076   -2.2428 H   0  0  0  0  0  0  0  0  0  0  0  0
    3.6936   -0.2962   -1.9452 H   0  0  0  0  0  0  0  0  0  0  0  0
    4.6001   -0.5458    0.3561 H   0  0  0  0  0  0  0  0  0  0  0  0
    3.4820   -0.8369    1.7140 H   0  0  0  0  0  0  0  0  0  0  0  0
   -0.1618   -1.6724    1.0991 H   0  0  0  0  0  0  0  0  0  0  0  0
    2.6314    1.8512   -2.2460 H   0  0  0  0  0  0  0  0  0  0  0  0
    1.3994    1.5009   -1.0147 H   0  0  0  0  0  0  0  0  0  0  0  0
    2.4058    1.2451    1.5365 H   0  0  0  0  0  0  0  0  0  0  0  0
    4.1544    1.4387    1.6753 H   0  0  0  0  0  0  0  0  0  0  0  0
    1.0257   -4.4392   -2.2186 H   0  0  0  0  0  0  0  0  0  0  0  0
   -1.8810   -0.5823    1.0186 H   0  0  0  0  0  0  0  0  0  0  0  0
    1.6640    3.8314   -0.9996 H   0  0  0  0  0  0  0  0  0  0  0  0
    5.5760    2.9987    0.6516 H   0  0  0  0  0  0  0  0  0  0  0  0
    2.1397    6.2305   -0.8895 H   0  0  0  0  0  0  0  0  0  0  0  0
    6.0183    5.4185    0.7715 H   0  0  0  0  0  0  0  0  0  0  0  0
    4.3092    7.0417   -0.0018 H   0  0  0  0  0  0  0  0  0  0  0  0
   -3.5766    1.0307    1.3050 H   0  0  0  0  0  0  0  0  0  0  0  0
   -3.9336   -2.0291   -1.7445 H   0  0  0  0  0  0  0  0  0  0  0  0
   -6.0636   -1.1260   -2.4101 H   0  0  0  0  0  0  0  0  0  0  0  0
   -7.0179    0.8404   -1.2792 H   0  0  0  0  0  0  0  0  0  0  0  0
  1 35  1  0  0  0  0
  2 35  1  0  0  0  0
  3 35  1  0  0  0  0
  4 15  1  0  0  0  0
  4 16  1  0  0  0  0
  5 15  1  0  0  0  0
  5 17  1  0  0  0  0
  6 13  1  0  0  0  0
  6 52  1  0  0  0  0
  7 22  2  0  0  0  0
  8 12  1  0  0  0  0
  8 18  1  0  0  0  0
  8 19  1  0  0  0  0
  9 14  1  0  0  0  0
  9 22  1  0  0  0  0
  9 47  1  0  0  0  0
 10 20  1  0  0  0  0
 10 21  1  0  0  0  0
 10 23  1  0  0  0  0
 11 22  1  0  0  0  0
 11 28  1  0  0  0  0
 11 53  1  0  0  0  0
 12 13  1  0  0  0  0
 12 15  1  0  0  0  0
 12 36  1  0  0  0  0
 13 14  1  0  0  0  0
 13 37  1  0  0  0  0
 14 16  1  0  0  0  0
 14 38  1  0  0  0  0
 15 39  1  0  0  0  0
 16 17  1  0  0  0  0
 16 40  1  0  0  0  0
 17 41  1  0  0  0  0
 17 42  1  0  0  0  0
 18 20  1  0  0  0  0
 18 43  1  0  0  0  0
 18 44  1  0  0  0  0
 19 21  1  0  0  0  0
 19 45  1  0  0  0  0
 19 46  1  0  0  0  0
 20 48  1  0  0  0  0
 20 49  1  0  0  0  0
 21 50  1  0  0  0  0
 21 51  1  0  0  0  0
 23 24  2  0  0  0  0
 23 25  1  0  0  0  0
 24 26  1  0  0  0  0
 24 54  1  0  0  0  0
 25 27  2  0  0  0  0
 25 55  1  0  0  0  0
 26 29  2  0  0  0  0
 26 56  1  0  0  0  0
 27 29  1  0  0  0  0
 27 57  1  0  0  0  0
 28 30  1  0  0  0  0
 28 31  2  0  0  0  0
 29 58  1  0  0  0  0
 30 32  2  0  0  0  0
 30 59  1  0  0  0  0
 31 33  1  0  0  0  0
 31 60  1  0  0  0  0
 32 34  1  0  0  0  0
 32 35  1  0  0  0  0
 33 34  2  0  0  0  0
 33 61  1  0  0  0  0
 34 62  1  0  0  0  0
M  END
> <PUBCHEM_COMPOUND_CID>
25317485

> <PUBCHEM_CONFORMER_RMSD>
1

> <PUBCHEM_CONFORMER_DIVERSEORDER>
1
123
50
87
75
94
96
146
93
142
37
112
137
79
55
40
43
39
122
125
70
128
97
69
102
59
138
101
116
9
48
53
114
124
111
103
57
136
134
19
46
121
130
100
26
64
34
117
76
58
23
51
107
98
74
150
109
7
135
148
89
72
85
25
113
88
147
47
149
91
33
144
127
38
14
86
36
45
83
105
119
41
11
106
115
10
54
52
145
95
131
17
78
81
110
63
61
143
139
42
120
82
16
141
3
27
68
140
65
67
35
4
118
92
8
129
31
22
108
80
21
44
84
77
99
62
24
66
71
18
56
30
15
126
5
132
29
60
20
28
6
73
49
133
32
104
90
13
12
2

> <PUBCHEM_MMFF94_PARTIAL_CHARGES>
47
1 -0.34
10 -0.84
11 -0.55
12 0.27
13 0.28
14 0.3
15 0.56
16 0.28
17 0.28
18 0.27
19 0.27
2 -0.34
20 0.37
21 0.37
22 0.69
23 0.1
24 -0.15
25 -0.15
26 -0.15
27 -0.15
28 0.12
29 -0.15
3 -0.34
30 -0.15
31 -0.15
32 -0.14
33 -0.15
34 -0.15
35 1.16
4 -0.56
47 0.37
5 -0.56
52 0.4
53 0.37
54 0.15
55 0.15
56 0.15
57 0.15
58 0.15
59 0.15
6 -0.68
60 0.15
61 0.15
62 0.15
7 -0.57
8 -0.81
9 -0.73

> <PUBCHEM_EFFECTIVE_ROTOR_COUNT>
9.4

> <PUBCHEM_PHARMACOPHORE_FEATURES>
13
1 10 cation
1 11 donor
1 4 acceptor
1 5 acceptor
1 6 acceptor
1 6 donor
1 7 acceptor
1 8 cation
1 9 donor
6 23 24 25 26 27 29 rings
6 28 30 31 32 33 34 rings
6 8 10 18 19 20 21 rings
8 4 5 12 13 14 15 16 17 rings

> <PUBCHEM_HEAVY_ATOM_COUNT>
35

> <PUBCHEM_ATOM_DEF_STEREO_COUNT>
5

> <PUBCHEM_ATOM_UDEF_STEREO_COUNT>
0

> <PUBCHEM_BOND_DEF_STEREO_COUNT>
0

> <PUBCHEM_BOND_UDEF_STEREO_COUNT>
0

> <PUBCHEM_ISOTOPIC_ATOM_COUNT>
0

> <PUBCHEM_COMPONENT_COUNT>
1

> <PUBCHEM_CACTVS_TAUTO_COUNT>
3

> <PUBCHEM_CONFORMER_ID>
0182506D00000001

> <PUBCHEM_MMFF94_ENERGY>
112.9306

> <PUBCHEM_FEATURE_SELFOVERLAP>
66.076

> <PUBCHEM_SHAPE_FINGERPRINT>
100830 2 18271814544581155425
10439779 11 18337383834418828824
10675989 125 18411986849099018585
10937287 8 18192709175234225554
11059845 2 17834369578979601040
11331351 85 17762334712969645038
11479125 193 18338807818168341441
12107183 9 17973702956763222184
13590594 115 17904481805443895130
13835254 42 17616527359862104538
13944108 23 18264500485674124604
13965767 371 17750497654816651006
14251764 75 18340494473089176705
14849402 71 18408881811461838578
15001296 14 18411699847242540049
15064981 113 17486788643149534388
15320291 9 18269272353328305401
15326921 28 17549251984533189640
15400415 2 18192992840650564909
155225 5 17546448237865971264
15980000 95 18121495757704421022
16067689 134 18335983190562106400
16067690 210 16537894895166834272
16112460 7 18265606753433247268
16728433 281 17687482569034731108
16992779 147 18338535066185728225
19302320 297 17980773632368191601
21591340 35 18411421743261496360
21987440 362 18193564587223802412
22122407 14 18121231887750801177
23559900 14 16844172221596160799
376196 1 18269283524553378070
4058900 60 18265617756849250608
4144715 1 17614848848541626520
44280116 191 18338535074270065700
4760202 170 17758664565781069421
5047190 36 17263871091217226977
5047190 92 18267029534633360689
5951187 136 18272663328332659925
6036956 94 16964635118940569037
6057620 51 18125712638247134855
6058803 2 18271227392550526127
6201320 215 17114944947333733320
6201320 77 14855491115384647696
6371380 46 18264492952986867380
9849439 229 18263927824435253517
9981440 41 17973159822702259922

> <PUBCHEM_SHAPE_MULTIPOLES>
655.06
14.73
9.48
1.43
21.5
1.03
0.02
24.54
-0.95
-12.43
-1.85
0.71
-0.7
-2.62

> <PUBCHEM_SHAPE_SELFOVERLAP>
1420.886

> <PUBCHEM_SHAPE_VOLUME>
356.1

> <PUBCHEM_COORDINATE_TYPE>
2
5
10

$$$$
