45783560
  -OEChem-12032416363D

 51 54  0     1  0  0  0  0  0999 V2000
   -2.0742    0.3641   -2.0137 O   0  0  0  0  0  0  0  0  0  0  0  0
    5.0529    0.0381    0.5594 O   0  0  0  0  0  0  0  0  0  0  0  0
    7.7662    0.6842    0.3255 O   0  0  0  0  0  0  0  0  0  0  0  0
   -4.2282    0.9106    0.7085 N   0  0  1  0  0  0  0  0  0  0  0  0
   -1.1993    1.1279   -0.0985 N   0  0  0  0  0  0  0  0  0  0  0  0
   -0.7128    0.0367   -2.0495 N   0  0  0  0  0  0  0  0  0  0  0  0
   -2.7740   -3.3276   -0.7125 N   0  0  0  0  0  0  0  0  0  0  0  0
    3.3500   -0.3447   -0.9695 N   0  0  0  0  0  0  0  0  0  0  0  0
   -3.6900    1.4672   -0.5488 C   0  0  1  0  0  0  0  0  0  0  0  0
   -3.7922    2.9940   -0.3760 C   0  0  0  0  0  0  0  0  0  0  0  0
   -4.4544    3.1974    0.9793 C   0  0  0  0  0  0  0  0  0  0  0  0
   -5.1859    1.8921    1.2185 C   0  0  0  0  0  0  0  0  0  0  0  0
   -4.8289   -0.4067    0.5428 C   0  0  0  0  0  0  0  0  0  0  0  0
   -2.2763    1.0042   -0.8323 C   0  0  0  0  0  0  0  0  0  0  0  0
   -3.7893   -1.4947    0.4934 C   0  0  0  0  0  0  0  0  0  0  0  0
   -0.2660    0.5196   -0.8863 C   0  0  0  0  0  0  0  0  0  0  0  0
   -2.9052   -1.6896    1.5489 C   0  0  0  0  0  0  0  0  0  0  0  0
   -3.6834   -2.3330   -0.6046 C   0  0  0  0  0  0  0  0  0  0  0  0
    1.1061    0.4120   -0.4823 C   0  0  0  0  0  0  0  0  0  0  0  0
   -1.9555   -2.7026    1.4749 C   0  0  0  0  0  0  0  0  0  0  0  0
   -1.9317   -3.4869    0.3329 C   0  0  0  0  0  0  0  0  0  0  0  0
    1.5366    0.9277    0.7353 C   0  0  0  0  0  0  0  0  0  0  0  0
    2.0438   -0.2094   -1.2912 C   0  0  0  0  0  0  0  0  0  0  0  0
    2.8727    0.8079    1.1013 C   0  0  0  0  0  0  0  0  0  0  0  0
    3.7314    0.1688    0.2215 C   0  0  0  0  0  0  0  0  0  0  0  0
    5.8907   -0.6260   -0.3794 C   0  0  0  0  0  0  0  0  0  0  0  0
    7.3096   -0.6521    0.1554 C   0  0  0  0  0  0  0  0  0  0  0  0
    9.0872    0.7206    0.8472 C   0  0  0  0  0  0  0  0  0  0  0  0
   -4.3279    1.1921   -1.4007 H   0  0  0  0  0  0  0  0  0  0  0  0
   -2.8287    3.5130   -0.4204 H   0  0  0  0  0  0  0  0  0  0  0  0
   -4.4334    3.4111   -1.1623 H   0  0  0  0  0  0  0  0  0  0  0  0
   -5.1247    4.0618    0.9867 H   0  0  0  0  0  0  0  0  0  0  0  0
   -3.6880    3.3532    1.7487 H   0  0  0  0  0  0  0  0  0  0  0  0
   -6.1269    1.8743    0.6540 H   0  0  0  0  0  0  0  0  0  0  0  0
   -5.4042    1.7423    2.2803 H   0  0  0  0  0  0  0  0  0  0  0  0
   -5.4910   -0.4458   -0.3321 H   0  0  0  0  0  0  0  0  0  0  0  0
   -5.4675   -0.6371    1.4072 H   0  0  0  0  0  0  0  0  0  0  0  0
   -2.9472   -1.0628    2.4354 H   0  0  0  0  0  0  0  0  0  0  0  0
   -4.3428   -2.2302   -1.4608 H   0  0  0  0  0  0  0  0  0  0  0  0
   -1.2560   -2.8726    2.2853 H   0  0  0  0  0  0  0  0  0  0  0  0
   -1.2098   -4.2897    0.2258 H   0  0  0  0  0  0  0  0  0  0  0  0
    0.8539    1.4267    1.4181 H   0  0  0  0  0  0  0  0  0  0  0  0
    1.7895   -0.6383   -2.2560 H   0  0  0  0  0  0  0  0  0  0  0  0
    3.2246    1.2045    2.0474 H   0  0  0  0  0  0  0  0  0  0  0  0
    5.8779   -0.0781   -1.3299 H   0  0  0  0  0  0  0  0  0  0  0  0
    5.5445   -1.6544   -0.5361 H   0  0  0  0  0  0  0  0  0  0  0  0
    7.3296   -1.1604    1.1265 H   0  0  0  0  0  0  0  0  0  0  0  0
    7.9642   -1.1820   -0.5453 H   0  0  0  0  0  0  0  0  0  0  0  0
    9.1240    0.2462    1.8326 H   0  0  0  0  0  0  0  0  0  0  0  0
    9.7836    0.2253    0.1638 H   0  0  0  0  0  0  0  0  0  0  0  0
    9.3869    1.7667    0.9528 H   0  0  0  0  0  0  0  0  0  0  0  0
  1  6  1  0  0  0  0
  1 14  1  0  0  0  0
  2 25  1  0  0  0  0
  2 26  1  0  0  0  0
  3 27  1  0  0  0  0
  3 28  1  0  0  0  0
  4  9  1  0  0  0  0
  4 12  1  0  0  0  0
  4 13  1  0  0  0  0
  5 14  2  0  0  0  0
  5 16  1  0  0  0  0
  6 16  2  0  0  0  0
  7 18  1  0  0  0  0
  7 21  2  0  0  0  0
  8 23  1  0  0  0  0
  8 25  2  0  0  0  0
  9 10  1  0  0  0  0
  9 14  1  0  0  0  0
  9 29  1  0  0  0  0
 10 11  1  0  0  0  0
 10 30  1  0  0  0  0
 10 31  1  0  0  0  0
 11 12  1  0  0  0  0
 11 32  1  0  0  0  0
 11 33  1  0  0  0  0
 12 34  1  0  0  0  0
 12 35  1  0  0  0  0
 13 15  1  0  0  0  0
 13 36  1  0  0  0  0
 13 37  1  0  0  0  0
 15 17  1  0  0  0  0
 15 18  2  0  0  0  0
 16 19  1  0  0  0  0
 17 20  2  0  0  0  0
 17 38  1  0  0  0  0
 18 39  1  0  0  0  0
 19 22  1  0  0  0  0
 19 23  2  0  0  0  0
 20 21  1  0  0  0  0
 20 40  1  0  0  0  0
 21 41  1  0  0  0  0
 22 24  2  0  0  0  0
 22 42  1  0  0  0  0
 23 43  1  0  0  0  0
 24 25  1  0  0  0  0
 24 44  1  0  0  0  0
 26 27  1  0  0  0  0
 26 45  1  0  0  0  0
 26 46  1  0  0  0  0
 27 47  1  0  0  0  0
 27 48  1  0  0  0  0
 28 49  1  0  0  0  0
 28 50  1  0  0  0  0
 28 51  1  0  0  0  0
M  END
> <PUBCHEM_COMPOUND_CID>
45783560

> <PUBCHEM_CONFORMER_RMSD>
1

> <PUBCHEM_CONFORMER_DIVERSEORDER>
1
97
70
94
100
125
29
91
126
62
92
115
58
123
39
117
103
93
119
15
109
13
106
48
99
88
116
81
61
98
73
28
114
22
108
64
23
38
75
121
76
124
78
87
4
35
127
55
101
5
41
111
31
56
120
43
105
20
47
112
83
68
74
12
72
51
80
59
77
118
32
16
9
3
18
85
30
45
49
79
36
60
113
66
33
50
95
52
86
2
21
24
69
25
65
122
82
96
63
84
71
26
90
110
57
19
67
7
54
10
14
107
34
40
27
11
8
102
53
17
46
44
104
6
89
37
42

> <PUBCHEM_MMFF94_PARTIAL_CHARGES>
33
1 -0.02
12 0.27
13 0.41
14 0.3
15 -0.14
16 0.46
17 -0.15
18 0.16
19 0.05
2 -0.36
20 -0.15
21 0.16
22 -0.15
23 0.16
24 -0.15
25 0.39
26 0.28
27 0.28
28 0.28
3 -0.56
38 0.15
39 0.15
4 -0.81
40 0.15
41 0.15
42 0.15
43 0.15
44 0.15
5 -0.57
6 -0.41
7 -0.62
8 -0.62
9 0.45

> <PUBCHEM_EFFECTIVE_ROTOR_COUNT>
9

> <PUBCHEM_PHARMACOPHORE_FEATURES>
8
1 3 acceptor
1 4 cation
1 7 acceptor
3 5 6 16 cation
5 1 5 6 14 16 rings
5 4 9 10 11 12 rings
6 7 15 17 18 20 21 rings
6 8 19 22 23 24 25 rings

> <PUBCHEM_HEAVY_ATOM_COUNT>
28

> <PUBCHEM_ATOM_DEF_STEREO_COUNT>
1

> <PUBCHEM_ATOM_UDEF_STEREO_COUNT>
0

> <PUBCHEM_BOND_DEF_STEREO_COUNT>
0

> <PUBCHEM_BOND_UDEF_STEREO_COUNT>
0

> <PUBCHEM_ISOTOPIC_ATOM_COUNT>
0

> <PUBCHEM_COMPONENT_COUNT>
1

> <PUBCHEM_CACTVS_TAUTO_COUNT>
1

> <PUBCHEM_CONFORMER_ID>
02BA9A0800000001

> <PUBCHEM_MMFF94_ENERGY>
62.1401

> <PUBCHEM_FEATURE_SELFOVERLAP>
40.598

> <PUBCHEM_SHAPE_FINGERPRINT>
10319926 262 18342444963930332432
11135926 11 15791724192767063578
11315181 36 18408601487061206908
12293681 4 18201443540664988561
12422481 6 17678170486702832635
12616971 3 16733275594797984214
12633257 1 18410304618357967841
13004483 165 17983294022235327255
13583140 156 17632578275036978527
14844126 61 18337114570229904219
14856354 85 18335708255928388492
15021287 119 17022908951834116908
15183329 4 16732700554754724410
15230672 131 18191024500641998698
15348495 7 18271802454384841000
15537594 2 17168142317343979498
17093844 174 18413384337262638288
17780758 139 18335138708799704837
17844677 252 18341615962217619396
20554085 129 18124577714482517833
21236236 1 18334011718193053002
21756936 100 18341608187931031957
23516275 137 17972336018474872826
23522609 53 17823162093532404684
23559900 14 18190174779220170589
23728640 28 18334868251068645819
3383291 50 18261964041599200187
397830 11 18199459039153436376
4073 2 18412263926904319950
4169191 19 14764056927030473712
484985 159 18262508295380523215
4938544 92 18343021094674095852
5104073 3 18338504327479102952
5265222 85 18337125543855215878
5364581 5 18268708497257649240
58260988 114 16226628389134825227
59755656 520 18336826390202043457
602551 16 18335144206136297639
68570916 9 18187929530297066260
7226269 152 18201439121180499168
9953998 17 18334010606054843336

> <PUBCHEM_SHAPE_MULTIPOLES>
533.71
17.62
3.29
1.45
49.75
1.6
0.26
-4.8
-5.53
-7.29
-0.69
-0.73
0.06
0.2

> <PUBCHEM_SHAPE_SELFOVERLAP>
1143.695

> <PUBCHEM_SHAPE_VOLUME>
296

> <PUBCHEM_COORDINATE_TYPE>
2
5
10

$$$$
