56774929
  -OEChem-12032416273D

 58 60  0     1  0  0  0  0  0999 V2000
    2.3164   -1.9216    1.7538 O   0  0  0  0  0  0  0  0  0  0  0  0
    2.2073   -0.6988   -2.2720 O   0  0  0  0  0  0  0  0  0  0  0  0
   -4.8624   -1.2476   -0.0655 O   0  0  0  0  0  0  0  0  0  0  0  0
    4.9188    2.0369    0.0087 O   0  0  0  0  0  0  0  0  0  0  0  0
    5.6366   -2.3055    0.3865 O   0  0  0  0  0  0  0  0  0  0  0  0
    4.0269   -0.6963   -0.0991 N   0  0  0  0  0  0  0  0  0  0  0  0
   -3.6824    0.7423   -0.5200 N   0  0  0  0  0  0  0  0  0  0  0  0
   -6.0643    0.7926   -0.2225 C   0  0  0  0  0  0  0  0  0  0  0  0
   -7.2776   -0.0395   -0.6406 C   0  0  0  0  0  0  0  0  0  0  0  0
   -6.3447    1.2715    1.2064 C   0  0  0  0  0  0  0  0  0  0  0  0
   -7.9380   -0.4419    0.6703 C   0  0  0  0  0  0  0  0  0  0  0  0
   -7.7528    0.7896    1.5384 C   0  0  0  0  0  0  0  0  0  0  0  0
    2.6329   -0.2639    0.0612 C   0  0  1  0  0  0  0  0  0  0  0  0
   -4.8171   -0.0368   -0.2572 C   0  0  0  0  0  0  0  0  0  0  0  0
    1.7301   -0.9657   -0.9575 C   0  0  1  0  0  0  0  0  0  0  0  0
    2.1644   -0.5326    1.4863 C   0  0  0  0  0  0  0  0  0  0  0  0
    0.2969   -0.5130   -0.8411 C   0  0  0  0  0  0  0  0  0  0  0  0
    4.8116   -0.0619   -1.1497 C   0  0  0  0  0  0  0  0  0  0  0  0
    4.5385   -1.7883    0.5992 C   0  0  0  0  0  0  0  0  0  0  0  0
    3.6775   -2.2904    1.7528 C   0  0  0  0  0  0  0  0  0  0  0  0
   -2.3558    0.3234   -0.6269 C   0  0  0  0  0  0  0  0  0  0  0  0
   -0.7082   -1.4426   -0.5734 C   0  0  0  0  0  0  0  0  0  0  0  0
   -0.0245    0.8348   -1.0014 C   0  0  0  0  0  0  0  0  0  0  0  0
    5.7143    1.0239   -0.5930 C   0  0  0  0  0  0  0  0  0  0  0  0
   -2.0345   -1.0244   -0.4662 C   0  0  0  0  0  0  0  0  0  0  0  0
   -1.3508    1.2531   -0.8945 C   0  0  0  0  0  0  0  0  0  0  0  0
    5.7211    3.0793    0.5463 C   0  0  0  0  0  0  0  0  0  0  0  0
    4.8198    4.1233    1.1705 C   0  0  0  0  0  0  0  0  0  0  0  0
   -5.9600    1.6429   -0.9072 H   0  0  0  0  0  0  0  0  0  0  0  0
   -7.0442   -0.9064   -1.2667 H   0  0  0  0  0  0  0  0  0  0  0  0
   -7.9703    0.5939   -1.2097 H   0  0  0  0  0  0  0  0  0  0  0  0
   -6.2811    2.3624    1.2826 H   0  0  0  0  0  0  0  0  0  0  0  0
   -5.6276    0.8558    1.9246 H   0  0  0  0  0  0  0  0  0  0  0  0
   -7.4230   -1.3023    1.1128 H   0  0  0  0  0  0  0  0  0  0  0  0
   -8.9921   -0.7031    0.5401 H   0  0  0  0  0  0  0  0  0  0  0  0
   -8.4849    1.5580    1.2622 H   0  0  0  0  0  0  0  0  0  0  0  0
   -7.8766    0.5727    2.6033 H   0  0  0  0  0  0  0  0  0  0  0  0
    2.6231    0.8204   -0.0995 H   0  0  0  0  0  0  0  0  0  0  0  0
    1.7951   -2.0532   -0.8321 H   0  0  0  0  0  0  0  0  0  0  0  0
    1.1185   -0.2599    1.6513 H   0  0  0  0  0  0  0  0  0  0  0  0
    2.7563    0.0424    2.2106 H   0  0  0  0  0  0  0  0  0  0  0  0
    4.1604    0.3929   -1.8974 H   0  0  0  0  0  0  0  0  0  0  0  0
    5.4226   -0.8225   -1.6479 H   0  0  0  0  0  0  0  0  0  0  0  0
   -3.8282    1.7419   -0.6448 H   0  0  0  0  0  0  0  0  0  0  0  0
    3.7195   -3.3846    1.7495 H   0  0  0  0  0  0  0  0  0  0  0  0
    4.1375   -1.9440    2.6858 H   0  0  0  0  0  0  0  0  0  0  0  0
   -0.4715   -2.4956   -0.4452 H   0  0  0  0  0  0  0  0  0  0  0  0
    0.7391    1.5775   -1.2149 H   0  0  0  0  0  0  0  0  0  0  0  0
    6.3080    1.4580   -1.4057 H   0  0  0  0  0  0  0  0  0  0  0  0
    6.3972    0.6040    0.1551 H   0  0  0  0  0  0  0  0  0  0  0  0
   -2.7567   -1.8014   -0.2577 H   0  0  0  0  0  0  0  0  0  0  0  0
   -1.5870    2.3064   -1.0228 H   0  0  0  0  0  0  0  0  0  0  0  0
    1.9976    0.2196   -2.5096 H   0  0  0  0  0  0  0  0  0  0  0  0
    6.3958    2.6725    1.3078 H   0  0  0  0  0  0  0  0  0  0  0  0
    6.3181    3.5364   -0.2507 H   0  0  0  0  0  0  0  0  0  0  0  0
    4.1300    4.5325    0.4249 H   0  0  0  0  0  0  0  0  0  0  0  0
    4.2060    3.6792    1.9613 H   0  0  0  0  0  0  0  0  0  0  0  0
    5.4060    4.9423    1.5963 H   0  0  0  0  0  0  0  0  0  0  0  0
  1 16  1  0  0  0  0
  1 20  1  0  0  0  0
  2 15  1  0  0  0  0
  2 53  1  0  0  0  0
  3 14  2  0  0  0  0
  4 24  1  0  0  0  0
  4 27  1  0  0  0  0
  5 19  2  0  0  0  0
  6 13  1  0  0  0  0
  6 18  1  0  0  0  0
  6 19  1  0  0  0  0
  7 14  1  0  0  0  0
  7 21  1  0  0  0  0
  7 44  1  0  0  0  0
  8  9  1  0  0  0  0
  8 10  1  0  0  0  0
  8 14  1  0  0  0  0
  8 29  1  0  0  0  0
  9 11  1  0  0  0  0
  9 30  1  0  0  0  0
  9 31  1  0  0  0  0
 10 12  1  0  0  0  0
 10 32  1  0  0  0  0
 10 33  1  0  0  0  0
 11 12  1  0  0  0  0
 11 34  1  0  0  0  0
 11 35  1  0  0  0  0
 12 36  1  0  0  0  0
 12 37  1  0  0  0  0
 13 15  1  0  0  0  0
 13 16  1  0  0  0  0
 13 38  1  0  0  0  0
 15 17  1  0  0  0  0
 15 39  1  0  0  0  0
 16 40  1  0  0  0  0
 16 41  1  0  0  0  0
 17 22  2  0  0  0  0
 17 23  1  0  0  0  0
 18 24  1  0  0  0  0
 18 42  1  0  0  0  0
 18 43  1  0  0  0  0
 19 20  1  0  0  0  0
 20 45  1  0  0  0  0
 20 46  1  0  0  0  0
 21 25  2  0  0  0  0
 21 26  1  0  0  0  0
 22 25  1  0  0  0  0
 22 47  1  0  0  0  0
 23 26  2  0  0  0  0
 23 48  1  0  0  0  0
 24 49  1  0  0  0  0
 24 50  1  0  0  0  0
 25 51  1  0  0  0  0
 26 52  1  0  0  0  0
 27 28  1  0  0  0  0
 27 54  1  0  0  0  0
 27 55  1  0  0  0  0
 28 56  1  0  0  0  0
 28 57  1  0  0  0  0
 28 58  1  0  0  0  0
M  END
> <PUBCHEM_COMPOUND_CID>
56774929

> <PUBCHEM_CONFORMER_RMSD>
1

> <PUBCHEM_CONFORMER_DIVERSEORDER>
1
96
36
61
39
102
35
85
38
78
52
70
95
34
76
87
50
12
53
20
48
89
91
83
27
29
56
67
58
10
79
19
40
69
77
93
66
101
32
94
55
73
23
68
63
103
43
74
30
84
75
51
92
45
86
44
16
80
15
62
71
57
21
42
17
11
49
81
47
65
100
59
90
9
25
97
60
88
99
4
18
31
6
7
37
13
98
5
3
54
8
64
41
46
26
82
14
33
28
22
72
2
24

> <PUBCHEM_MMFF94_PARTIAL_CHARGES>
29
1 -0.56
13 0.3
14 0.57
15 0.42
16 0.28
17 -0.14
18 0.3
19 0.57
2 -0.68
20 0.34
21 0.12
22 -0.15
23 -0.15
24 0.28
25 -0.15
26 -0.15
27 0.28
3 -0.57
4 -0.56
44 0.37
47 0.15
48 0.15
5 -0.57
51 0.15
52 0.15
53 0.4
6 -0.66
7 -0.55
8 0.06

> <PUBCHEM_EFFECTIVE_ROTOR_COUNT>
11

> <PUBCHEM_PHARMACOPHORE_FEATURES>
10
1 1 acceptor
1 2 acceptor
1 2 donor
1 3 acceptor
1 4 acceptor
1 5 acceptor
1 7 donor
5 8 9 10 11 12 rings
6 1 6 13 16 19 20 rings
6 17 21 22 23 25 26 rings

> <PUBCHEM_HEAVY_ATOM_COUNT>
28

> <PUBCHEM_ATOM_DEF_STEREO_COUNT>
2

> <PUBCHEM_ATOM_UDEF_STEREO_COUNT>
0

> <PUBCHEM_BOND_DEF_STEREO_COUNT>
0

> <PUBCHEM_BOND_UDEF_STEREO_COUNT>
0

> <PUBCHEM_ISOTOPIC_ATOM_COUNT>
0

> <PUBCHEM_COMPONENT_COUNT>
1

> <PUBCHEM_CACTVS_TAUTO_COUNT>
6

> <PUBCHEM_CONFORMER_ID>
0362511100000001

> <PUBCHEM_MMFF94_ENERGY>
73.7163

> <PUBCHEM_FEATURE_SELFOVERLAP>
50.749

> <PUBCHEM_SHAPE_FINGERPRINT>
10 15 16370729265773151020
10638233 991 18272652355061009401
10673678 19 17702669998467450220
11719270 70 13695862632275442921
12236239 1 17894633609064430279
12516196 113 17022906731472830317
12596602 18 18335704919113534225
13073987 5 17894910681768442245
13533116 47 18040434343759560994
13955234 65 18260819364042215050
14251757 52 18131070458575467656
14251764 18 18409452492814919359
14461889 52 17240486935250766241
146900 427 18409729564774905312
14849402 71 18129946801464941225
15183329 4 12535351185990255767
15475509 35 17168413858351699626
20281389 69 18409450267747579501
21033648 29 16917058967401948343
21130935 74 18333453123753506955
21267235 1 17968380022829779294
21521721 280 18341617035864030339
21623969 137 16660653929825776643
21792934 111 18041548166329189253
22149856 69 17458921336175450657
23081809 10 18059848476795803359
23559900 14 15213316231066779485
3411729 13 18270116945745817580
34797466 226 17847070981808496941
3663271 9 18335143064529520225
394071 54 18411140263736844613
4073 2 18188493617361630371
4093350 32 17846786225930491492
4340502 62 17240485814158897314
465052 167 17749676194966055975
5104073 3 18337679706606074035
54076057 255 17274823596960269880
6328613 192 18131072675269085625

> <PUBCHEM_SHAPE_MULTIPOLES>
536.92
21.11
2.81
1.53
32.56
2.56
-0.24
7.18
-6.03
-7.39
-1.42
-0.57
-0.3
-0.59

> <PUBCHEM_SHAPE_SELFOVERLAP>
1118.292

> <PUBCHEM_SHAPE_VOLUME>
301.8

> <PUBCHEM_COORDINATE_TYPE>
2
5
10

$$$$
