51137077
  -OEChem-12032416213D

 39 42  0     1  0  0  0  0  0999 V2000
    3.2432   -1.7950    0.5882 S   0  0  0  0  0  0  0  0  0  0  0  0
   -4.0492   -1.9436   -0.9894 F   0  0  0  0  0  0  0  0  0  0  0  0
   -1.5314   -0.2141   -0.0027 N   0  0  1  0  0  0  0  0  0  0  0  0
    2.5665    0.6250    0.0072 N   0  0  0  0  0  0  0  0  0  0  0  0
    0.6370   -0.8300    0.6440 C   0  0  1  0  0  0  0  0  0  0  0  0
   -0.0053    0.0278    1.7481 C   0  0  0  0  0  0  0  0  0  0  0  0
   -0.2465   -0.6006   -0.5896 C   0  0  0  0  0  0  0  0  0  0  0  0
   -1.1894    0.7117    1.0771 C   0  0  0  0  0  0  0  0  0  0  0  0
   -2.4311    0.3817   -0.9793 C   0  0  0  0  0  0  0  0  0  0  0  0
    2.0976   -0.5414    0.3845 C   0  0  0  0  0  0  0  0  0  0  0  0
   -3.8598    0.3725   -0.5043 C   0  0  0  0  0  0  0  0  0  0  0  0
    4.5008   -0.7059    0.1351 C   0  0  0  0  0  0  0  0  0  0  0  0
    3.9437    0.5466   -0.1401 C   0  0  0  0  0  0  0  0  0  0  0  0
   -4.6005   -0.8089   -0.5367 C   0  0  0  0  0  0  0  0  0  0  0  0
   -4.4423    1.5481   -0.0311 C   0  0  0  0  0  0  0  0  0  0  0  0
    5.8809   -0.9428    0.0307 C   0  0  0  0  0  0  0  0  0  0  0  0
    4.8004    1.5974   -0.5334 C   0  0  0  0  0  0  0  0  0  0  0  0
   -5.9239   -0.8148   -0.0958 C   0  0  0  0  0  0  0  0  0  0  0  0
   -5.7658    1.5424    0.4098 C   0  0  0  0  0  0  0  0  0  0  0  0
    6.7064    0.1142   -0.3605 C   0  0  0  0  0  0  0  0  0  0  0  0
    6.1753    1.3687   -0.6395 C   0  0  0  0  0  0  0  0  0  0  0  0
   -6.5065    0.3610    0.3775 C   0  0  0  0  0  0  0  0  0  0  0  0
    0.5222   -1.8805    0.9492 H   0  0  0  0  0  0  0  0  0  0  0  0
   -0.3558   -0.6239    2.5583 H   0  0  0  0  0  0  0  0  0  0  0  0
    0.6816    0.7599    2.1859 H   0  0  0  0  0  0  0  0  0  0  0  0
    0.1562    0.1959   -1.2294 H   0  0  0  0  0  0  0  0  0  0  0  0
   -0.3330   -1.5119   -1.1914 H   0  0  0  0  0  0  0  0  0  0  0  0
   -2.0114    0.8560    1.7852 H   0  0  0  0  0  0  0  0  0  0  0  0
   -0.8790    1.6925    0.6941 H   0  0  0  0  0  0  0  0  0  0  0  0
   -2.1185    1.3954   -1.2645 H   0  0  0  0  0  0  0  0  0  0  0  0
   -2.4041   -0.1976   -1.9132 H   0  0  0  0  0  0  0  0  0  0  0  0
   -3.8761    2.4751    0.0011 H   0  0  0  0  0  0  0  0  0  0  0  0
    6.3026   -1.9196    0.2469 H   0  0  0  0  0  0  0  0  0  0  0  0
    4.3961    2.5814   -0.7538 H   0  0  0  0  0  0  0  0  0  0  0  0
   -6.5003   -1.7348   -0.1210 H   0  0  0  0  0  0  0  0  0  0  0  0
   -6.2193    2.4577    0.7787 H   0  0  0  0  0  0  0  0  0  0  0  0
    7.7776   -0.0479   -0.4475 H   0  0  0  0  0  0  0  0  0  0  0  0
    6.8329    2.1789   -0.9425 H   0  0  0  0  0  0  0  0  0  0  0  0
   -7.5369    0.3564    0.7209 H   0  0  0  0  0  0  0  0  0  0  0  0
  1 10  1  0  0  0  0
  1 12  1  0  0  0  0
  2 14  1  0  0  0  0
  3  7  1  0  0  0  0
  3  8  1  0  0  0  0
  3  9  1  0  0  0  0
  4 10  2  0  0  0  0
  4 13  1  0  0  0  0
  5  6  1  0  0  0  0
  5  7  1  0  0  0  0
  5 10  1  0  0  0  0
  5 23  1  0  0  0  0
  6  8  1  0  0  0  0
  6 24  1  0  0  0  0
  6 25  1  0  0  0  0
  7 26  1  0  0  0  0
  7 27  1  0  0  0  0
  8 28  1  0  0  0  0
  8 29  1  0  0  0  0
  9 11  1  0  0  0  0
  9 30  1  0  0  0  0
  9 31  1  0  0  0  0
 11 14  1  0  0  0  0
 11 15  2  0  0  0  0
 12 13  1  0  0  0  0
 12 16  2  0  0  0  0
 13 17  2  0  0  0  0
 14 18  2  0  0  0  0
 15 19  1  0  0  0  0
 15 32  1  0  0  0  0
 16 20  1  0  0  0  0
 16 33  1  0  0  0  0
 17 21  1  0  0  0  0
 17 34  1  0  0  0  0
 18 22  1  0  0  0  0
 18 35  1  0  0  0  0
 19 22  2  0  0  0  0
 19 36  1  0  0  0  0
 20 21  2  0  0  0  0
 20 37  1  0  0  0  0
 21 38  1  0  0  0  0
 22 39  1  0  0  0  0
M  END
> <PUBCHEM_COMPOUND_CID>
51137077

> <PUBCHEM_CONFORMER_RMSD>
0.6

> <PUBCHEM_CONFORMER_DIVERSEORDER>
1
213
197
172
77
195
137
111
113
212
126
191
147
54
42
133
181
148
35
189
180
171
206
70
209
162
101
40
163
128
187
214
178
64
194
16
132
190
146
103
143
169
25
11
198
127
83
95
208
207
56
30
164
80
196
34
210
153
123
33
200
130
142
134
182
151
68
144
149
183
158
129
115
211
193
135
185
184
21
165
139
145
177
199
86
88
89
159
156
78
167
179
82
39
93
5
20
98
186
114
120
59
6
63
100
119
13
45
58
92
65
53
67
23
202
105
112
87
205
8
138
28
24
12
85
141
73
49
75
173
204
79
2
125
62
44
110
76
109
32
203
4
41
27
170
43
155
48
26
74
107
94
122
69
17
116
96
99
104
47
108
157
51
154
71
29
57
97
3
84
176
161
36
46
175
121
9
174
152
10
15
168
140
118
117
72
50
52
7
124
38
136
201
192
150
55
166
37
66
131
22
31
14
160
19
61
81
188
91
18
106
60
90
102

> <PUBCHEM_MMFF94_PARTIAL_CHARGES>
29
1 -0.08
10 0.2
11 -0.14
12 0.04
13 0.23
14 0.19
15 -0.15
16 -0.15
17 -0.15
18 -0.15
19 -0.15
2 -0.19
20 -0.15
21 -0.15
22 -0.15
3 -0.81
32 0.15
33 0.15
34 0.15
35 0.15
36 0.15
37 0.15
38 0.15
39 0.15
4 -0.57
5 0.18
7 0.27
8 0.27
9 0.41

> <PUBCHEM_EFFECTIVE_ROTOR_COUNT>
4

> <PUBCHEM_PHARMACOPHORE_FEATURES>
6
1 3 cation
1 4 acceptor
5 1 4 10 12 13 rings
5 3 5 6 7 8 rings
6 11 14 15 18 19 22 rings
6 12 13 16 17 20 21 rings

> <PUBCHEM_HEAVY_ATOM_COUNT>
22

> <PUBCHEM_ATOM_DEF_STEREO_COUNT>
1

> <PUBCHEM_ATOM_UDEF_STEREO_COUNT>
0

> <PUBCHEM_BOND_DEF_STEREO_COUNT>
0

> <PUBCHEM_BOND_UDEF_STEREO_COUNT>
0

> <PUBCHEM_ISOTOPIC_ATOM_COUNT>
0

> <PUBCHEM_COMPONENT_COUNT>
1

> <PUBCHEM_CACTVS_TAUTO_COUNT>
1

> <PUBCHEM_CONFORMER_ID>
030C4A3500000001

> <PUBCHEM_MMFF94_ENERGY>
46.5939

> <PUBCHEM_FEATURE_SELFOVERLAP>
30.519

> <PUBCHEM_SHAPE_FINGERPRINT>
10 15 13623534588953074972
10299344 5 18342176674571973423
10595046 47 18408884023137341707
106641 1 12829499168383232628
11315181 36 18408041823807410029
11524674 6 15985103037795713935
11646440 116 16443351965869952404
12107183 9 17617092508252342329
12166972 35 18259706701013718284
12236239 1 18342457032561547678
12516196 113 9871747988093352598
12730499 353 17749111067564267442
12788726 201 17489029249534199403
12821665 9 18190745430149823263
12916748 109 16443062777464040252
13167372 99 18336265639683769584
13533116 47 16660916683034405890
13690498 29 17987508377200400247
14251732 16 18187649132565674195
14251752 14 17988925552476239648
14528608 73 18408322203013474846
14849402 71 18115598178389833788
14856354 85 18060423538788997431
14933364 13 18410014329464553597
15048467 5 18411138022248744925
15183329 4 18413106147550754597
15250474 111 18339905074643413175
15527383 91 10519983764578897722
15537594 2 16487252157925984439
17834072 33 18410009940350725470
17834072 8 15554726668543702405
17844677 252 18262522489814328421
18006028 8 12391514178609230562
18335252 98 18187372047277934875
20157964 124 18333171670272075250
21033648 29 17822856519784092488
220451 1 18343581832703931707
221357 26 18334293154757898180
22224240 67 16370729231951424473
23035841 295 18202563977736991667
23081809 10 18341604915097328695
23198884 109 18335422365762278889
23402539 116 18343016687916382981
23536379 177 18411699872241976704
23559900 14 10231455407833232135
23569943 247 17097481004358301498
23622692 88 13406798835026041218
2838139 119 17749104509043691804
2916195 48 17312819368409193148
29717793 49 18060425690657276926
3004659 81 18272089362500552870
314173 85 14836123260255931139
34797466 226 18271814527036581316
3545911 37 17894632552291426626
4073 2 17967820487285603562
4325135 7 18407477765119319853
4340502 62 16225765203581932466
5265222 85 18059292187856999879
5283156 175 17560805394971900582
53794403 172 17314522624228487932
542803 24 18410853256815233206
59682541 35 16009040509617925585
59755656 215 15195573372815879052
59755656 520 17385442137209699330
9996256 80 18333447642620265260

> <PUBCHEM_SHAPE_MULTIPOLES>
439.36
18.64
1.6
1.02
0.45
0
0.21
-3.42
-2.44
-0.36
-0.11
0.38
0.05
-1.22

> <PUBCHEM_SHAPE_SELFOVERLAP>
950.279

> <PUBCHEM_SHAPE_VOLUME>
244.5

> <PUBCHEM_COORDINATE_TYPE>
2
5
10

$$$$
