7143899
  -OEChem-12032416153D

 49 52  0     1  0  0  0  0  0999 V2000
   -1.2781   -0.9165    1.9051 O   0  0  0  0  0  0  0  0  0  0  0  0
    3.5871    2.1573    1.0185 O   0  0  0  0  0  0  0  0  0  0  0  0
    3.2265    0.1271   -0.0525 N   0  0  0  0  0  0  0  0  0  0  0  0
    0.4442   -1.3732    0.4001 N   0  0  0  0  0  0  0  0  0  0  0  0
    1.5052    3.2814   -0.0903 N   0  0  0  0  0  0  0  0  0  0  0  0
   -5.5081   -0.7479    0.2010 N   0  0  0  0  0  0  0  0  0  0  0  0
   -4.7581    1.5422    0.2063 N   0  0  0  0  0  0  0  0  0  0  0  0
    2.8034   -2.0147    1.1607 C   0  0  1  0  0  0  0  0  0  0  0  0
    2.2957   -1.8514   -1.2396 C   0  0  2  0  0  0  0  0  0  0  0  0
    2.8755   -2.7662   -0.1630 C   0  0  0  0  0  0  0  0  0  0  0  0
    3.6144   -0.7093    1.0850 C   0  0  0  0  0  0  0  0  0  0  0  0
    1.3315   -1.7595    1.5059 C   0  0  0  0  0  0  0  0  0  0  0  0
    3.1487   -0.5718   -1.3441 C   0  0  0  0  0  0  0  0  0  0  0  0
    0.8564   -1.4856   -0.9297 C   0  0  0  0  0  0  0  0  0  0  0  0
   -0.0100   -1.2426   -1.9260 C   0  0  0  0  0  0  0  0  0  0  0  0
   -0.8677   -0.9932    0.7456 C   0  0  0  0  0  0  0  0  0  0  0  0
    3.0397    1.4971    0.1316 C   0  0  0  0  0  0  0  0  0  0  0  0
   -1.8051   -0.6913   -0.3925 C   0  0  0  0  0  0  0  0  0  0  0  0
   -1.3579   -0.8347   -1.6490 C   0  0  0  0  0  0  0  0  0  0  0  0
    2.0983    2.1851   -0.8243 C   0  0  0  0  0  0  0  0  0  0  0  0
   -3.1855   -0.2399   -0.1452 C   0  0  0  0  0  0  0  0  0  0  0  0
    0.7727    2.7937    1.0848 C   0  0  0  0  0  0  0  0  0  0  0  0
    0.6068    4.0648   -0.9473 C   0  0  0  0  0  0  0  0  0  0  0  0
   -4.2329   -1.1261   -0.0254 C   0  0  0  0  0  0  0  0  0  0  0  0
   -3.5059    1.0937   -0.0201 C   0  0  0  0  0  0  0  0  0  0  0  0
   -5.6967    0.5815    0.3046 C   0  0  0  0  0  0  0  0  0  0  0  0
    3.2406   -2.6296    1.9571 H   0  0  0  0  0  0  0  0  0  0  0  0
    2.3453   -2.3796   -2.2006 H   0  0  0  0  0  0  0  0  0  0  0  0
    2.3122   -3.7061   -0.1055 H   0  0  0  0  0  0  0  0  0  0  0  0
    3.9141   -3.0276   -0.3993 H   0  0  0  0  0  0  0  0  0  0  0  0
    3.5124   -0.1435    2.0181 H   0  0  0  0  0  0  0  0  0  0  0  0
    4.6798   -0.9384    0.9598 H   0  0  0  0  0  0  0  0  0  0  0  0
    0.9030   -2.6830    1.9191 H   0  0  0  0  0  0  0  0  0  0  0  0
    1.2479   -1.0070    2.3001 H   0  0  0  0  0  0  0  0  0  0  0  0
    4.1782   -0.8328   -1.6200 H   0  0  0  0  0  0  0  0  0  0  0  0
    2.7784    0.0941   -2.1289 H   0  0  0  0  0  0  0  0  0  0  0  0
    0.2872   -1.3127   -2.9671 H   0  0  0  0  0  0  0  0  0  0  0  0
   -1.9927   -0.6288   -2.5059 H   0  0  0  0  0  0  0  0  0  0  0  0
    1.3318    1.4957   -1.1909 H   0  0  0  0  0  0  0  0  0  0  0  0
    2.6907    2.5457   -1.6726 H   0  0  0  0  0  0  0  0  0  0  0  0
   -0.0150    2.0838    0.8053 H   0  0  0  0  0  0  0  0  0  0  0  0
    0.2897    3.6354    1.5962 H   0  0  0  0  0  0  0  0  0  0  0  0
    1.3988    2.3225    1.8471 H   0  0  0  0  0  0  0  0  0  0  0  0
    1.1526    4.4630   -1.8097 H   0  0  0  0  0  0  0  0  0  0  0  0
   -0.2350    3.4675   -1.3163 H   0  0  0  0  0  0  0  0  0  0  0  0
    0.2086    4.9272   -0.4016 H   0  0  0  0  0  0  0  0  0  0  0  0
   -4.0861   -2.1988   -0.1071 H   0  0  0  0  0  0  0  0  0  0  0  0
   -2.7527    1.8720   -0.0976 H   0  0  0  0  0  0  0  0  0  0  0  0
   -6.7115    0.9134    0.4864 H   0  0  0  0  0  0  0  0  0  0  0  0
  1 16  2  0  0  0  0
  2 17  2  0  0  0  0
  3 11  1  0  0  0  0
  3 13  1  0  0  0  0
  3 17  1  0  0  0  0
  4 12  1  0  0  0  0
  4 14  1  0  0  0  0
  4 16  1  0  0  0  0
  5 20  1  0  0  0  0
  5 22  1  0  0  0  0
  5 23  1  0  0  0  0
  6 24  2  0  0  0  0
  6 26  1  0  0  0  0
  7 25  1  0  0  0  0
  7 26  2  0  0  0  0
  8 10  1  0  0  0  0
  8 11  1  0  0  0  0
  8 12  1  0  0  0  0
  8 27  1  0  0  0  0
  9 10  1  0  0  0  0
  9 13  1  0  0  0  0
  9 14  1  0  0  0  0
  9 28  1  0  0  0  0
 10 29  1  0  0  0  0
 10 30  1  0  0  0  0
 11 31  1  0  0  0  0
 11 32  1  0  0  0  0
 12 33  1  0  0  0  0
 12 34  1  0  0  0  0
 13 35  1  0  0  0  0
 13 36  1  0  0  0  0
 14 15  2  0  0  0  0
 15 19  1  0  0  0  0
 15 37  1  0  0  0  0
 16 18  1  0  0  0  0
 17 20  1  0  0  0  0
 18 19  2  0  0  0  0
 18 21  1  0  0  0  0
 19 38  1  0  0  0  0
 20 39  1  0  0  0  0
 20 40  1  0  0  0  0
 21 24  1  0  0  0  0
 21 25  2  0  0  0  0
 22 41  1  0  0  0  0
 22 42  1  0  0  0  0
 22 43  1  0  0  0  0
 23 44  1  0  0  0  0
 23 45  1  0  0  0  0
 23 46  1  0  0  0  0
 24 47  1  0  0  0  0
 25 48  1  0  0  0  0
 26 49  1  0  0  0  0
M  END
> <PUBCHEM_COMPOUND_CID>
7143899

> <PUBCHEM_CONFORMER_RMSD>
0.8

> <PUBCHEM_CONFORMER_DIVERSEORDER>
1
6
5
3
4
2

> <PUBCHEM_MMFF94_PARTIAL_CHARGES>
29
1 -0.57
11 0.3
12 0.3
13 0.3
14 -0.03
15 -0.15
16 0.62
17 0.57
18 -0.01
19 -0.15
2 -0.57
20 0.33
21 0.03
22 0.27
23 0.27
24 0.16
25 0.16
26 0.47
3 -0.66
37 0.15
38 0.15
4 -0.47
47 0.15
48 0.15
49 0.15
5 -0.81
6 -0.62
7 -0.62
9 0.14

> <PUBCHEM_EFFECTIVE_ROTOR_COUNT>
5

> <PUBCHEM_PHARMACOPHORE_FEATURES>
9
1 1 acceptor
1 2 acceptor
1 5 cation
1 6 acceptor
3 6 7 26 cation
6 3 8 9 10 11 13 rings
6 4 14 15 16 18 19 rings
6 4 8 9 10 12 14 rings
6 6 7 21 24 25 26 rings

> <PUBCHEM_HEAVY_ATOM_COUNT>
26

> <PUBCHEM_ATOM_DEF_STEREO_COUNT>
2

> <PUBCHEM_ATOM_UDEF_STEREO_COUNT>
0

> <PUBCHEM_BOND_DEF_STEREO_COUNT>
0

> <PUBCHEM_BOND_UDEF_STEREO_COUNT>
0

> <PUBCHEM_ISOTOPIC_ATOM_COUNT>
0

> <PUBCHEM_COMPONENT_COUNT>
1

> <PUBCHEM_CACTVS_TAUTO_COUNT>
1

> <PUBCHEM_CONFORMER_ID>
006D01DB00000001

> <PUBCHEM_MMFF94_ENERGY>
79.2695

> <PUBCHEM_FEATURE_SELFOVERLAP>
47.237

> <PUBCHEM_SHAPE_FINGERPRINT>
10366900 7 17967259714642918775
11045977 3 18113622283459589755
11578080 2 17607561134594484273
11640471 11 17774162451938755150
11796584 16 11530484398553029187
12293681 4 18262246495363710706
12403259 327 17531800376503487808
12422481 6 18125126443382172840
12592029 89 18199194064844730675
12633257 1 17459455818536709328
13583140 156 18262248797677353283
13965767 371 17986647390664897218
14790565 3 18119533391057315628
15210252 30 17968114031205000692
15238133 3 18260552186810587686
15420108 30 18058147596885162766
15475509 84 17610609822270990809
1601671 61 18273215270327176720
17844677 252 18340775853956246187
17980427 23 17415528100246150354
20691752 17 17603304834804880837
20715895 44 17913209763711541809
20905425 154 18339644421493489212
21033648 29 17168130227258980597
21041028 32 18119232983832225286
21475661 188 18335137647995946077
21503847 285 18341333318577034422
21860390 5 18410296921148429844
22149856 69 16988574520184090335
23227448 37 18269554004397837023
23558518 356 17690833888579329110
23559900 14 18058738996254261887
238 59 18050565450034810916
27425 322 14332824012171104941
3286 77 17967807215509526267
345986 75 17461706312464163162
4409770 3 15752362453049060375
474 4 18264766738975131077
484985 159 15875296696741435898
5104073 3 18409175394446794203
513532 50 17988652908374465220
5283268 108 18266741285896956276
5312544 6 17905321080992465349
5895379 119 17558847086910355145
5939293 188 18411698807375339668
7832392 63 18271802466879281302

> <PUBCHEM_SHAPE_MULTIPOLES>
498.42
8.87
3.68
1.52
13.63
4.21
0.12
-0.17
-1.39
-3.21
0.21
-0.74
-0.48
-0.08

> <PUBCHEM_SHAPE_SELFOVERLAP>
1078.861

> <PUBCHEM_SHAPE_VOLUME>
266

> <PUBCHEM_COORDINATE_TYPE>
2
5
10

$$$$
