75536671
  -OEChem-12032416343D

 41 42  0     1  0  0  0  0  0999 V2000
    6.1100    0.9954   -0.0644 S   0  0  0  0  0  0  0  0  0  0  0  0
    2.2748    0.0077    1.2661 O   0  0  0  0  0  0  0  0  0  0  0  0
    1.3691   -2.3914   -1.2497 O   0  0  0  0  0  0  0  0  0  0  0  0
    7.3104    0.7966    0.7239 O   0  0  0  0  0  0  0  0  0  0  0  0
    5.4317    2.2773   -0.0728 O   0  0  0  0  0  0  0  0  0  0  0  0
   -1.0301   -0.7563   -0.0472 N   0  0  0  0  0  0  0  0  0  0  0  0
    4.9675   -0.2172    0.3042 N   0  0  0  0  0  0  0  0  0  0  0  0
   -5.9298    3.3635   -0.3815 N   0  0  0  0  0  0  0  0  0  0  0  0
    0.2951   -1.0418    0.4780 C   0  0  1  0  0  0  0  0  0  0  0  0
    1.3665   -1.1391   -0.5923 C   0  0  1  0  0  0  0  0  0  0  0  0
    2.6275   -0.9297    0.2351 C   0  0  1  0  0  0  0  0  0  0  0  0
    0.8406    0.0785    1.3485 C   0  0  0  0  0  0  0  0  0  0  0  0
    3.7932   -0.3889   -0.5735 C   0  0  0  0  0  0  0  0  0  0  0  0
   -2.0578   -1.0048    0.9568 C   0  0  0  0  0  0  0  0  0  0  0  0
   -3.4365   -0.6985    0.4355 C   0  0  0  0  0  0  0  0  0  0  0  0
    6.4895    0.5845   -1.7523 C   0  0  0  0  0  0  0  0  0  0  0  0
   -3.8619    0.6249    0.3196 C   0  0  0  0  0  0  0  0  0  0  0  0
   -4.2887   -1.7397    0.0668 C   0  0  0  0  0  0  0  0  0  0  0  0
   -5.1391    0.9074   -0.1648 C   0  0  0  0  0  0  0  0  0  0  0  0
   -5.5658   -1.4573   -0.4180 C   0  0  0  0  0  0  0  0  0  0  0  0
   -5.9912   -0.1338   -0.5335 C   0  0  0  0  0  0  0  0  0  0  0  0
   -5.5753    2.2627   -0.2844 C   0  0  0  0  0  0  0  0  0  0  0  0
    0.2863   -1.9885    1.0366 H   0  0  0  0  0  0  0  0  0  0  0  0
    1.2482   -0.3467   -1.3419 H   0  0  0  0  0  0  0  0  0  0  0  0
    2.9284   -1.8625    0.7303 H   0  0  0  0  0  0  0  0  0  0  0  0
    0.5451    1.0697    0.9855 H   0  0  0  0  0  0  0  0  0  0  0  0
    0.5331   -0.0113    2.3947 H   0  0  0  0  0  0  0  0  0  0  0  0
    3.5172    0.5806   -1.0027 H   0  0  0  0  0  0  0  0  0  0  0  0
    4.0494   -1.0791   -1.3837 H   0  0  0  0  0  0  0  0  0  0  0  0
   -1.2049   -1.3564   -0.8538 H   0  0  0  0  0  0  0  0  0  0  0  0
   -1.8893   -0.3879    1.8487 H   0  0  0  0  0  0  0  0  0  0  0  0
   -2.0197   -2.0492    1.2930 H   0  0  0  0  0  0  0  0  0  0  0  0
    1.4723   -3.0883   -0.5798 H   0  0  0  0  0  0  0  0  0  0  0  0
    5.3459   -1.1062    0.6570 H   0  0  0  0  0  0  0  0  0  0  0  0
    5.6064    0.7277   -2.3763 H   0  0  0  0  0  0  0  0  0  0  0  0
    6.8433   -0.4473   -1.7956 H   0  0  0  0  0  0  0  0  0  0  0  0
    7.2827    1.2570   -2.0877 H   0  0  0  0  0  0  0  0  0  0  0  0
   -3.1947    1.4348    0.6082 H   0  0  0  0  0  0  0  0  0  0  0  0
   -3.9701   -2.7754    0.1493 H   0  0  0  0  0  0  0  0  0  0  0  0
   -6.2289   -2.2679   -0.7058 H   0  0  0  0  0  0  0  0  0  0  0  0
   -6.9896    0.0701   -0.9132 H   0  0  0  0  0  0  0  0  0  0  0  0
  1  4  2  0  0  0  0
  1  5  2  0  0  0  0
  1  7  1  0  0  0  0
  1 16  1  0  0  0  0
  2 11  1  0  0  0  0
  2 12  1  0  0  0  0
  3 10  1  0  0  0  0
  3 33  1  0  0  0  0
  6  9  1  0  0  0  0
  6 14  1  0  0  0  0
  6 30  1  0  0  0  0
  7 13  1  0  0  0  0
  7 34  1  0  0  0  0
  8 22  3  0  0  0  0
  9 10  1  0  0  0  0
  9 12  1  0  0  0  0
  9 23  1  0  0  0  0
 10 11  1  0  0  0  0
 10 24  1  0  0  0  0
 11 13  1  0  0  0  0
 11 25  1  0  0  0  0
 12 26  1  0  0  0  0
 12 27  1  0  0  0  0
 13 28  1  0  0  0  0
 13 29  1  0  0  0  0
 14 15  1  0  0  0  0
 14 31  1  0  0  0  0
 14 32  1  0  0  0  0
 15 17  2  0  0  0  0
 15 18  1  0  0  0  0
 16 35  1  0  0  0  0
 16 36  1  0  0  0  0
 16 37  1  0  0  0  0
 17 19  1  0  0  0  0
 17 38  1  0  0  0  0
 18 20  2  0  0  0  0
 18 39  1  0  0  0  0
 19 21  2  0  0  0  0
 19 22  1  0  0  0  0
 20 21  1  0  0  0  0
 20 40  1  0  0  0  0
 21 41  1  0  0  0  0
M  END
> <PUBCHEM_COMPOUND_CID>
75536671

> <PUBCHEM_CONFORMER_RMSD>
1

> <PUBCHEM_CONFORMER_DIVERSEORDER>
1
120
44
13
154
97
166
65
98
57
156
116
76
92
55
118
106
20
127
96
159
125
174
34
78
69
64
152
85
75
60
128
112
170
108
51
18
72
148
83
71
99
167
82
23
101
61
133
153
89
54
137
140
169
157
40
56
160
115
139
88
122
50
124
46
68
141
175
2
94
12
36
79
84
143
114
100
32
63
109
90
62
70
95
49
147
162
134
47
4
59
155
117
161
35
74
31
132
113
43
22
7
136
58
10
30
86
77
168
39
27
150
17
111
144
19
33
126
171
145
42
16
151
158
15
123
8
103
73
80
105
119
11
66
130
81
172
163
104
165
53
173
87
135
129
164
38
67
149
91
3
9
102
138
121
6
26
14
131
52
24
37
142
110
41
5
45
107
25
93
29
146
21
28
48

> <PUBCHEM_MMFF94_PARTIAL_CHARGES>
29
1 1.33
10 0.28
11 0.28
12 0.28
13 0.36
14 0.41
15 -0.14
16 0.11
17 -0.15
18 -0.15
19 0.07
2 -0.56
20 -0.15
21 -0.15
22 0.48
3 -0.68
30 0.36
33 0.4
34 0.42
38 0.15
39 0.15
4 -0.65
40 0.15
41 0.15
5 -0.65
6 -0.9
7 -0.91
8 -0.56
9 0.27

> <PUBCHEM_EFFECTIVE_ROTOR_COUNT>
7

> <PUBCHEM_PHARMACOPHORE_FEATURES>
11
1 2 acceptor
1 3 acceptor
1 3 donor
1 4 acceptor
1 5 acceptor
1 6 cation
1 6 donor
1 7 donor
1 8 acceptor
5 2 9 10 11 12 rings
6 15 17 18 19 20 21 rings

> <PUBCHEM_HEAVY_ATOM_COUNT>
22

> <PUBCHEM_ATOM_DEF_STEREO_COUNT>
3

> <PUBCHEM_ATOM_UDEF_STEREO_COUNT>
0

> <PUBCHEM_BOND_DEF_STEREO_COUNT>
0

> <PUBCHEM_BOND_UDEF_STEREO_COUNT>
0

> <PUBCHEM_ISOTOPIC_ATOM_COUNT>
0

> <PUBCHEM_COMPONENT_COUNT>
1

> <PUBCHEM_CACTVS_TAUTO_COUNT>
1

> <PUBCHEM_CONFORMER_ID>
0480991F00000001

> <PUBCHEM_MMFF94_ENERGY>
38.5803

> <PUBCHEM_FEATURE_SELFOVERLAP>
55.84

> <PUBCHEM_SHAPE_FINGERPRINT>
10 15 13262683646596796286
10087517 78 18114178619042199069
10595046 47 18335415768904060915
10763959 59 18410018758293481460
10906281 52 17313402122989527310
11089746 13 17822290218906464258
11315181 36 17603587469565153867
11646440 116 14490192700233081886
117890 112 18259705597106259522
11991303 11 17346596434481759830
12403259 415 17988634225261335859
12616971 3 13334743461381119698
13073987 5 18041000614181742363
13167372 99 18260546715038336472
13288520 33 10952051156722928315
13533116 47 17241034437029769858
13668630 136 15338828786270538063
13782708 43 10519982651739106916
13968360 50 17989208127661631974
14251751 18 9223228555130491561
14251764 30 10087642593744216650
14556957 393 16558763324871537729
14598715 104 18200296810662691120
15183329 4 18411423925379104864
15348495 7 12396591770566569788
15352257 5 10303817583624405316
155225 5 18193555571687196197
15961568 22 18334576836662172444
17780758 139 8142089762902993279
17980427 23 17894918438115246071
20281389 69 18260829284661865609
20567600 247 12463575049939359604
21150785 3 13398631680330461290
21424621 283 17967817132435636137
21623969 137 12179841689135292408
21637258 2 12751240268571724174
21709351 56 17917705838117781463
23035841 295 12103852258369122303
23081809 10 18187076252368549794
23559900 14 17917701410264982273
26918003 58 11602820194813423159
2767999 5 17748824137583126758
2838139 119 18336545009941778468
300161 21 17676200269487953347
328310 630 17458635544033531837
33382 64 10951783966844185532
34797466 226 18060148668654362455
397830 11 7853276597969413062
4073 2 18041003950754412843
441001 317 18260830406270789611
465052 167 11025794293717549640
5104073 3 17458345208755639131
5718773 13 9294704490876079153
6327066 14 18190171279882335741
8863177 126 8574413331848774517

> <PUBCHEM_SHAPE_MULTIPOLES>
418.18
19.99
2.32
1.1
12.59
1.6
-0.08
11.61
-3.87
-3.37
-0.47
1.17
-0.11
0.37

> <PUBCHEM_SHAPE_SELFOVERLAP>
849.065

> <PUBCHEM_SHAPE_VOLUME>
244.3

> <PUBCHEM_COORDINATE_TYPE>
2
5
10

$$$$
