7049366
  -OEChem-12032416113D

 48 49  0     1  0  0  0  0  0999 V2000
   -3.9560   -3.2814    1.0476 Br  0  0  0  0  0  0  0  0  0  0  0  0
    0.3590    1.6938    2.2051 O   0  0  0  0  0  0  0  0  0  0  0  0
    1.3994    4.2524   -0.1937 O   0  0  0  0  0  0  0  0  0  0  0  0
    4.6523    1.1141   -1.3075 O   0  0  0  0  0  0  0  0  0  0  0  0
   -2.6929    1.7434   -0.7501 O   0  0  0  0  0  0  0  0  0  0  0  0
    4.0033   -3.1182    1.1838 O   0  0  0  0  0  0  0  0  0  0  0  0
   -0.8921    0.5231    0.0329 N   0  0  0  0  0  0  0  0  0  0  0  0
    3.7667   -0.7767   -0.2705 N   0  0  0  0  0  0  0  0  0  0  0  0
   -2.9781   -0.4367    0.0723 N   0  0  0  0  0  0  0  0  0  0  0  0
    6.2469   -3.1579    0.6931 N   0  0  0  0  0  0  0  0  0  0  0  0
    0.2727    2.4692    1.0077 C   0  0  2  0  0  0  0  0  0  0  0  0
    0.1111    1.5322   -0.2046 C   0  0  1  0  0  0  0  0  0  0  0  0
    1.5350    3.3319    0.8872 C   0  0  1  0  0  0  0  0  0  0  0  0
    2.8024    2.4804    0.6992 C   0  0  0  0  0  0  0  0  0  0  0  0
    2.5928    1.2879   -0.1902 C   0  0  0  0  0  0  0  0  0  0  0  0
    1.3935    0.8572   -0.6096 C   0  0  0  0  0  0  0  0  0  0  0  0
    3.7750    0.5539   -0.6511 C   0  0  0  0  0  0  0  0  0  0  0  0
   -2.2478    0.7067   -0.2635 C   0  0  0  0  0  0  0  0  0  0  0  0
    4.8243   -1.7015   -0.6099 C   0  0  2  0  0  0  0  0  0  0  0  0
    4.5405   -2.3964   -1.9323 C   0  0  0  0  0  0  0  0  0  0  0  0
    4.9538   -2.7114    0.5199 C   0  0  0  0  0  0  0  0  0  0  0  0
   -4.3688   -0.6517   -0.0709 C   0  0  0  0  0  0  0  0  0  0  0  0
   -4.9660   -1.8532    0.3105 C   0  0  0  0  0  0  0  0  0  0  0  0
   -5.1464    0.3738   -0.6089 C   0  0  0  0  0  0  0  0  0  0  0  0
   -6.3410   -2.0291    0.1537 C   0  0  0  0  0  0  0  0  0  0  0  0
   -6.5213    0.1977   -0.7657 C   0  0  0  0  0  0  0  0  0  0  0  0
   -7.1184   -1.0037   -0.3844 C   0  0  0  0  0  0  0  0  0  0  0  0
   -0.6189    3.1030    1.0877 H   0  0  0  0  0  0  0  0  0  0  0  0
   -0.2137    2.1321   -1.0649 H   0  0  0  0  0  0  0  0  0  0  0  0
    1.6566    3.9297    1.7988 H   0  0  0  0  0  0  0  0  0  0  0  0
    3.1332    2.1114    1.6782 H   0  0  0  0  0  0  0  0  0  0  0  0
    3.6075    3.1046    0.2933 H   0  0  0  0  0  0  0  0  0  0  0  0
    1.3179    0.0123   -1.2911 H   0  0  0  0  0  0  0  0  0  0  0  0
   -0.6130   -0.3430    0.4846 H   0  0  0  0  0  0  0  0  0  0  0  0
    0.4306    2.3140    2.9506 H   0  0  0  0  0  0  0  0  0  0  0  0
    2.1969    4.8085   -0.2086 H   0  0  0  0  0  0  0  0  0  0  0  0
    2.9843   -1.1351    0.2707 H   0  0  0  0  0  0  0  0  0  0  0  0
    5.7585   -1.1335   -0.6970 H   0  0  0  0  0  0  0  0  0  0  0  0
   -2.4568   -1.2150    0.4679 H   0  0  0  0  0  0  0  0  0  0  0  0
    3.6060   -2.9673   -1.8870 H   0  0  0  0  0  0  0  0  0  0  0  0
    5.3433   -3.0957   -2.1886 H   0  0  0  0  0  0  0  0  0  0  0  0
    4.4464   -1.6698   -2.7464 H   0  0  0  0  0  0  0  0  0  0  0  0
   -4.7720    1.3338   -0.9308 H   0  0  0  0  0  0  0  0  0  0  0  0
    6.4694   -3.8437    1.4069 H   0  0  0  0  0  0  0  0  0  0  0  0
    7.0192   -2.8277    0.1233 H   0  0  0  0  0  0  0  0  0  0  0  0
   -6.8246   -2.9581    0.4450 H   0  0  0  0  0  0  0  0  0  0  0  0
   -7.1283    0.9951   -1.1847 H   0  0  0  0  0  0  0  0  0  0  0  0
   -8.1889   -1.1406   -0.5066 H   0  0  0  0  0  0  0  0  0  0  0  0
  1 23  1  0  0  0  0
  2 11  1  0  0  0  0
  2 35  1  0  0  0  0
  3 13  1  0  0  0  0
  3 36  1  0  0  0  0
  4 17  2  0  0  0  0
  5 18  2  0  0  0  0
  6 21  2  0  0  0  0
  7 12  1  0  0  0  0
  7 18  1  0  0  0  0
  7 34  1  0  0  0  0
  8 17  1  0  0  0  0
  8 19  1  0  0  0  0
  8 37  1  0  0  0  0
  9 18  1  0  0  0  0
  9 22  1  0  0  0  0
  9 39  1  0  0  0  0
 10 21  1  0  0  0  0
 10 44  1  0  0  0  0
 10 45  1  0  0  0  0
 11 12  1  0  0  0  0
 11 13  1  0  0  0  0
 11 28  1  0  0  0  0
 12 16  1  0  0  0  0
 12 29  1  0  0  0  0
 13 14  1  0  0  0  0
 13 30  1  0  0  0  0
 14 15  1  0  0  0  0
 14 31  1  0  0  0  0
 14 32  1  0  0  0  0
 15 16  2  0  0  0  0
 15 17  1  0  0  0  0
 16 33  1  0  0  0  0
 19 20  1  0  0  0  0
 19 21  1  0  0  0  0
 19 38  1  0  0  0  0
 20 40  1  0  0  0  0
 20 41  1  0  0  0  0
 20 42  1  0  0  0  0
 22 23  1  0  0  0  0
 22 24  2  0  0  0  0
 23 25  2  0  0  0  0
 24 26  1  0  0  0  0
 24 43  1  0  0  0  0
 25 27  1  0  0  0  0
 25 46  1  0  0  0  0
 26 27  2  0  0  0  0
 26 47  1  0  0  0  0
 27 48  1  0  0  0  0
M  END
> <PUBCHEM_COMPOUND_CID>
7049366

> <PUBCHEM_CONFORMER_RMSD>
1

> <PUBCHEM_CONFORMER_DIVERSEORDER>
1
130
139
110
113
205
81
57
210
93
201
198
43
141
215
10
183
46
245
119
129
53
204
101
196
121
47
58
167
135
148
106
176
229
203
194
171
11
191
226
45
189
192
108
168
6
244
234
150
116
158
240
97
104
111
114
70
222
2
78
92
227
35
170
173
181
77
63
128
102
115
217
232
12
133
252
112
84
138
24
186
254
180
246
5
165
228
123
31
190
255
233
75
241
209
146
200
208
38
95
90
242
88
206
61
225
51
21
54
126
15
122
145
187
59
28
142
231
175
224
195
89
96
87
178
99
164
212
62
17
211
3
214
169
42
223
184
79
250
125
14
159
197
177
52
34
185
237
151
36
13
202
131
161
74
49
118
85
100
220
105
160
20
216
22
107
7
69
253
238
41
132
155
19
26
243
56
154
80
83
68
73
117
207
39
48
103
188
221
162
98
236
8
66
230
30
147
50
40
249
67
239
55
149
109
247
16
65
76
9
153
136
91
179
94
71
235
172
157
213
4
152
127
64
219
29
27
143
193
44
248
37
166
18
72
182
134
32
25
33
218
144
156
124
82
174
199
60
120
137
86
251
140
163
23

> <PUBCHEM_MMFF94_PARTIAL_CHARGES>
38
1 -0.11
10 -0.8
11 0.28
12 0.44
13 0.28
14 0.14
15 -0.12
16 -0.29
17 0.62
18 0.69
19 0.36
2 -0.68
21 0.57
22 0.12
23 0.11
24 -0.15
25 -0.15
26 -0.15
27 -0.15
3 -0.68
33 0.15
34 0.37
35 0.4
36 0.4
37 0.37
39 0.37
4 -0.57
43 0.15
44 0.37
45 0.37
46 0.15
47 0.15
48 0.15
5 -0.57
6 -0.57
7 -0.73
8 -0.73
9 -0.55

> <PUBCHEM_EFFECTIVE_ROTOR_COUNT>
8.8

> <PUBCHEM_PHARMACOPHORE_FEATURES>
14
1 1 hydrophobe
1 10 donor
1 2 acceptor
1 2 donor
1 3 acceptor
1 3 donor
1 4 acceptor
1 5 acceptor
1 6 acceptor
1 7 donor
1 8 donor
1 9 donor
6 11 12 13 14 15 16 rings
6 22 23 24 25 26 27 rings

> <PUBCHEM_HEAVY_ATOM_COUNT>
27

> <PUBCHEM_ATOM_DEF_STEREO_COUNT>
4

> <PUBCHEM_ATOM_UDEF_STEREO_COUNT>
0

> <PUBCHEM_BOND_DEF_STEREO_COUNT>
0

> <PUBCHEM_BOND_UDEF_STEREO_COUNT>
0

> <PUBCHEM_ISOTOPIC_ATOM_COUNT>
0

> <PUBCHEM_COMPONENT_COUNT>
1

> <PUBCHEM_CACTVS_TAUTO_COUNT>
12

> <PUBCHEM_CONFORMER_ID>
006B909600000001

> <PUBCHEM_MMFF94_ENERGY>
62.413

> <PUBCHEM_FEATURE_SELFOVERLAP>
71.107

> <PUBCHEM_SHAPE_FINGERPRINT>
10673678 19 17754189879356382772
11135609 99 18408882911490684606
117089 54 17985281672696698118
11720765 8 18341326777242187921
11796584 16 18260264170287650235
12107183 9 18200044936932789873
13533116 47 18271809076992244121
13631057 29 18265337206150182710
13782708 43 18409727392123002975
13911852 28 18270965643724914518
13955234 65 18055914539634290929
14866123 147 18196658393806118353
14910302 57 18041271128158722831
15019793 15 18122342647324003251
15183329 4 18187083932128705819
15510800 12 18128820750938753422
15927050 60 17982165931494172094
1979834 28 17131838642313038086
19958102 18 18041270037654293735
20567600 234 10015862081284584503
20567600 70 18410007741623220066
21033650 10 16588299424603964725
21130935 74 18195531609631845947
21279426 13 18408318874677616751
21315764 119 17967249789416375879
21344244 78 16630525141707034889
23559900 14 18335978770623566197
23569943 247 18409445852875420035
3004659 81 18113899338682947886
32027 91 18410570704350662795
3421961 26 18342736351417618824
345986 75 17489312983452866976
34797466 226 17095807728112339885
4073 2 18191026918322542193
439807 62 18261112950304311111
46194498 28 17894911888142933412
465052 167 18130794464145513764
5104073 3 17918278649406370577
6695519 79 17190961852186726313
6697151 62 18200008699903433453
7970288 3 18339359639634923698
8863177 126 18410012177992062407

> <PUBCHEM_SHAPE_MULTIPOLES>
512.32
17.11
4.64
1.27
15.85
0.14
0.12
16.13
-2.82
-6.02
1.51
-0.98
0.2
1.06

> <PUBCHEM_SHAPE_SELFOVERLAP>
1055.646

> <PUBCHEM_SHAPE_VOLUME>
296.7

> <PUBCHEM_COORDINATE_TYPE>
2
5
10

$$$$
