44716137
  -OEChem-12032416153D

 70 74  0     1  0  0  0  0  0999 V2000
    1.2672    3.6166   -0.4002 O   0  0  0  0  0  0  0  0  0  0  0  0
   -7.3891   -2.5981   -1.5381 O   0  0  0  0  0  0  0  0  0  0  0  0
    6.4941   -0.0462    1.4504 O   0  0  0  0  0  0  0  0  0  0  0  0
   -2.4432    3.0253    0.5222 N   0  0  1  0  0  0  0  0  0  0  0  0
    2.1324    1.4623   -0.3004 N   0  0  0  0  0  0  0  0  0  0  0  0
   -5.1413    0.3080    0.5157 N   0  0  0  0  0  0  0  0  0  0  0  0
    4.3615   -0.3842   -0.3390 N   0  0  0  0  0  0  0  0  0  0  0  0
   -4.9773   -0.3633    1.6672 N   0  0  0  0  0  0  0  0  0  0  0  0
   -5.6026   -1.5282    1.5372 N   0  0  0  0  0  0  0  0  0  0  0  0
   -1.0660    1.4635   -1.0389 C   0  0  1  0  0  0  0  0  0  0  0  0
   -0.2462    1.8869    0.1964 C   0  0  2  0  0  0  0  0  0  0  0  0
   -3.0268    1.6556    0.5207 C   0  0  2  0  0  0  0  0  0  0  0  0
   -2.3316    0.7524   -0.5246 C   0  0  0  0  0  0  0  0  0  0  0  0
   -1.5461    2.7190   -1.7893 C   0  0  0  0  0  0  0  0  0  0  0  0
   -1.0394    2.9340    1.0008 C   0  0  0  0  0  0  0  0  0  0  0  0
   -2.4087    3.5773   -0.8513 C   0  0  0  0  0  0  0  0  0  0  0  0
   -4.5453    1.6753    0.3323 C   0  0  0  0  0  0  0  0  0  0  0  0
    1.1143    2.4105   -0.1937 C   0  0  0  0  0  0  0  0  0  0  0  0
    1.9489    0.0301   -0.0549 C   0  0  0  0  0  0  0  0  0  0  0  0
    3.4796    1.8908   -0.6676 C   0  0  0  0  0  0  0  0  0  0  0  0
    3.0205   -0.8280   -0.7276 C   0  0  0  0  0  0  0  0  0  0  0  0
    4.5531    1.0300   -0.0054 C   0  0  0  0  0  0  0  0  0  0  0  0
   -5.8742   -0.4063   -0.3814 C   0  0  0  0  0  0  0  0  0  0  0  0
   -6.1572   -1.5703    0.2880 C   0  0  0  0  0  0  0  0  0  0  0  0
    5.4354   -1.2710   -0.3204 C   0  0  0  0  0  0  0  0  0  0  0  0
   -6.9215   -2.7382   -0.1678 C   0  0  0  0  0  0  0  0  0  0  0  0
    6.4896   -1.0909    0.5749 C   0  0  0  0  0  0  0  0  0  0  0  0
    5.4504   -2.3468   -1.2081 C   0  0  0  0  0  0  0  0  0  0  0  0
   -8.2124   -2.9825    0.6666 C   0  0  0  0  0  0  0  0  0  0  0  0
   -6.0831   -4.0495   -0.1688 C   0  0  0  0  0  0  0  0  0  0  0  0
    7.5587   -1.9867    0.5826 C   0  0  0  0  0  0  0  0  0  0  0  0
    6.5196   -3.2425   -1.2005 C   0  0  0  0  0  0  0  0  0  0  0  0
    7.5738   -3.0626   -0.3051 C   0  0  0  0  0  0  0  0  0  0  0  0
    7.6132    0.0578    2.3281 C   0  0  0  0  0  0  0  0  0  0  0  0
   -0.5022    0.8156   -1.7172 H   0  0  0  0  0  0  0  0  0  0  0  0
   -0.1260    1.0263    0.8646 H   0  0  0  0  0  0  0  0  0  0  0  0
   -2.8363    1.2258    1.5146 H   0  0  0  0  0  0  0  0  0  0  0  0
   -2.0602   -0.2054   -0.0639 H   0  0  0  0  0  0  0  0  0  0  0  0
   -2.9890    0.5284   -1.3736 H   0  0  0  0  0  0  0  0  0  0  0  0
   -2.1363    2.4268   -2.6664 H   0  0  0  0  0  0  0  0  0  0  0  0
   -0.6947    3.2992   -2.1610 H   0  0  0  0  0  0  0  0  0  0  0  0
   -0.5919    3.9345    0.9936 H   0  0  0  0  0  0  0  0  0  0  0  0
   -1.0461    2.6459    2.0607 H   0  0  0  0  0  0  0  0  0  0  0  0
   -3.4239    3.6740   -1.2526 H   0  0  0  0  0  0  0  0  0  0  0  0
   -2.0164    4.6019   -0.8249 H   0  0  0  0  0  0  0  0  0  0  0  0
   -5.0429    2.3016    1.0815 H   0  0  0  0  0  0  0  0  0  0  0  0
   -4.8499    2.0036   -0.6669 H   0  0  0  0  0  0  0  0  0  0  0  0
    0.9690   -0.3032   -0.4031 H   0  0  0  0  0  0  0  0  0  0  0  0
    1.9839   -0.1097    1.0326 H   0  0  0  0  0  0  0  0  0  0  0  0
    3.6250    2.9435   -0.4024 H   0  0  0  0  0  0  0  0  0  0  0  0
    3.5488    1.8167   -1.7599 H   0  0  0  0  0  0  0  0  0  0  0  0
    2.8487   -1.8702   -0.4320 H   0  0  0  0  0  0  0  0  0  0  0  0
    2.9194   -0.7623   -1.8179 H   0  0  0  0  0  0  0  0  0  0  0  0
    5.5270    1.3932   -0.3554 H   0  0  0  0  0  0  0  0  0  0  0  0
    4.4812    1.1688    1.0799 H   0  0  0  0  0  0  0  0  0  0  0  0
   -6.1160   -0.0407   -1.3693 H   0  0  0  0  0  0  0  0  0  0  0  0
    4.6544   -2.5078   -1.9299 H   0  0  0  0  0  0  0  0  0  0  0  0
   -7.9772   -3.1627    1.7210 H   0  0  0  0  0  0  0  0  0  0  0  0
   -8.8751   -2.1110    0.6080 H   0  0  0  0  0  0  0  0  0  0  0  0
   -8.7793   -3.8382    0.2829 H   0  0  0  0  0  0  0  0  0  0  0  0
   -5.2120   -3.9447   -0.8263 H   0  0  0  0  0  0  0  0  0  0  0  0
   -5.7248   -4.2949    0.8366 H   0  0  0  0  0  0  0  0  0  0  0  0
   -6.6668   -4.8956   -0.5486 H   0  0  0  0  0  0  0  0  0  0  0  0
   -7.8845   -3.4011   -1.7740 H   0  0  0  0  0  0  0  0  0  0  0  0
    8.4120   -1.9119    1.2477 H   0  0  0  0  0  0  0  0  0  0  0  0
    6.5334   -4.0781   -1.8942 H   0  0  0  0  0  0  0  0  0  0  0  0
    8.4063   -3.7603   -0.3008 H   0  0  0  0  0  0  0  0  0  0  0  0
    7.6765   -0.8002    3.0061 H   0  0  0  0  0  0  0  0  0  0  0  0
    8.5448    0.2259    1.7772 H   0  0  0  0  0  0  0  0  0  0  0  0
    7.4505    0.9428    2.9521 H   0  0  0  0  0  0  0  0  0  0  0  0
  1 18  2  0  0  0  0
  2 26  1  0  0  0  0
  2 64  1  0  0  0  0
  3 27  1  0  0  0  0
  3 34  1  0  0  0  0
  4 12  1  0  0  0  0
  4 15  1  0  0  0  0
  4 16  1  0  0  0  0
  5 18  1  0  0  0  0
  5 19  1  0  0  0  0
  5 20  1  0  0  0  0
  6  8  1  0  0  0  0
  6 17  1  0  0  0  0
  6 23  1  0  0  0  0
  7 21  1  0  0  0  0
  7 22  1  0  0  0  0
  7 25  1  0  0  0  0
  8  9  2  0  0  0  0
  9 24  1  0  0  0  0
 10 11  1  0  0  0  0
 10 13  1  0  0  0  0
 10 14  1  0  0  0  0
 10 35  1  0  0  0  0
 11 15  1  0  0  0  0
 11 18  1  0  0  0  0
 11 36  1  0  0  0  0
 12 13  1  0  0  0  0
 12 17  1  0  0  0  0
 12 37  1  0  0  0  0
 13 38  1  0  0  0  0
 13 39  1  0  0  0  0
 14 16  1  0  0  0  0
 14 40  1  0  0  0  0
 14 41  1  0  0  0  0
 15 42  1  0  0  0  0
 15 43  1  0  0  0  0
 16 44  1  0  0  0  0
 16 45  1  0  0  0  0
 17 46  1  0  0  0  0
 17 47  1  0  0  0  0
 19 21  1  0  0  0  0
 19 48  1  0  0  0  0
 19 49  1  0  0  0  0
 20 22  1  0  0  0  0
 20 50  1  0  0  0  0
 20 51  1  0  0  0  0
 21 52  1  0  0  0  0
 21 53  1  0  0  0  0
 22 54  1  0  0  0  0
 22 55  1  0  0  0  0
 23 24  2  0  0  0  0
 23 56  1  0  0  0  0
 24 26  1  0  0  0  0
 25 27  1  0  0  0  0
 25 28  2  0  0  0  0
 26 29  1  0  0  0  0
 26 30  1  0  0  0  0
 27 31  2  0  0  0  0
 28 32  1  0  0  0  0
 28 57  1  0  0  0  0
 29 58  1  0  0  0  0
 29 59  1  0  0  0  0
 29 60  1  0  0  0  0
 30 61  1  0  0  0  0
 30 62  1  0  0  0  0
 30 63  1  0  0  0  0
 31 33  1  0  0  0  0
 31 65  1  0  0  0  0
 32 33  2  0  0  0  0
 32 66  1  0  0  0  0
 33 67  1  0  0  0  0
 34 68  1  0  0  0  0
 34 69  1  0  0  0  0
 34 70  1  0  0  0  0
M  END
> <PUBCHEM_COMPOUND_CID>
44716137

> <PUBCHEM_CONFORMER_RMSD>
1.2

> <PUBCHEM_CONFORMER_DIVERSEORDER>
1
53
111
180
89
159
135
115
182
55
86
97
179
27
52
107
108
71
69
145
144
106
141
43
185
65
125
63
174
129
133
30
84
139
45
170
21
10
46
13
58
50
37
149
67
128
80
33
131
120
151
154
78
94
172
153
40
38
136
147
166
138
61
8
20
51
49
39
93
112
123
72
161
98
134
124
99
171
175
26
126
31
176
109
9
137
165
142
90
148
56
54
160
114
181
105
140
22
122
177
150
75
110
59
130
163
169
32
28
104
47
24
83
157
82
14
34
164
16
11
12
117
178
5
113
17
173
57
127
25
168
70
162
36
64
121
68
74
18
119
167
156
66
23
73
4
96
143
186
152
76
48
101
44
35
103
19
62
91
116
29
102
155
77
2
60
184
42
87
79
92
81
41
118
3
85
100
6
88
146
183
132
15
7
95
158

> <PUBCHEM_MMFF94_PARTIAL_CHARGES>
35
1 -0.57
11 0.06
12 0.27
15 0.27
16 0.27
17 0.26
18 0.57
19 0.3
2 -0.68
20 0.3
21 0.37
22 0.37
23 -0.3
24 0.05
25 0.1
26 0.46
27 0.08
28 -0.15
3 -0.36
31 -0.15
32 -0.15
33 -0.15
34 0.28
4 -0.81
5 -0.66
56 0.15
57 0.15
6 0.31
64 0.4
65 0.15
66 0.15
67 0.15
7 -0.84
8 -0.42
9 -0.23

> <PUBCHEM_EFFECTIVE_ROTOR_COUNT>
9.4

> <PUBCHEM_PHARMACOPHORE_FEATURES>
11
1 1 acceptor
1 2 acceptor
1 2 donor
1 3 acceptor
1 4 cation
1 7 cation
3 26 29 30 hydrophobe
5 6 8 9 23 24 rings
6 25 27 28 31 32 33 rings
6 5 7 19 20 21 22 rings
8 4 10 11 12 13 14 15 16 rings

> <PUBCHEM_HEAVY_ATOM_COUNT>
34

> <PUBCHEM_ATOM_DEF_STEREO_COUNT>
2

> <PUBCHEM_ATOM_UDEF_STEREO_COUNT>
1

> <PUBCHEM_BOND_DEF_STEREO_COUNT>
0

> <PUBCHEM_BOND_UDEF_STEREO_COUNT>
0

> <PUBCHEM_ISOTOPIC_ATOM_COUNT>
0

> <PUBCHEM_COMPONENT_COUNT>
1

> <PUBCHEM_CACTVS_TAUTO_COUNT>
1

> <PUBCHEM_CONFORMER_ID>
02AA506900000001

> <PUBCHEM_MMFF94_ENERGY>
111.765

> <PUBCHEM_FEATURE_SELFOVERLAP>
55.821

> <PUBCHEM_SHAPE_FINGERPRINT>
10100884 174 18408040728006311490
10258705 36 17913781514359662126
10391435 84 18339632369778047273
10669705 251 18343306946655862270
11393246 34 18408322181807651037
11399510 152 17560510695774828504
11497681 19 18335989735316559236
117089 54 18410865364618899055
12120059 9 18265030488906881494
12522641 68 17247504882276128981
12645989 146 18410302414391112711
12895837 130 8214140738480448065
12988421 55 13110961968767198013
1361 4 18410298033935349372
13782708 43 18409169883423588384
13944108 23 9836293686496215099
14344974 204 18411985732386487542
14359421 15 17821721754864837451
14664723 55 10809334530310826047
15064981 113 14201390569571618704
15152005 304 18338530736743466947
15183329 4 13190921749259115816
15347591 1 18410577288098593629
15510800 12 18409162225649828599
15803439 3 14201401603274466409
16126227 98 9727633908556844039
16992779 147 16557321930337484080
16994733 274 10952048944434865767
17492 89 18411141337489464956
190975 80 18341327864538222352
19301676 85 18191869140405236051
19303781 99 18113623421483517811
19841028 212 18335421309258502411
20028762 73 18411985749840468190
2026 5 18334011679607543147
20691028 202 10159696897625991530
208703 8 18410288142736865127
20982279 24 17460327766900072699
21130935 74 18271526391103729578
21136928 126 16899330742617348615
21197605 99 18342740711437379726
21424621 283 10231761084961016869
21585482 111 10087653588940155123
21585483 132 18186794781787436362
23522609 53 18048636739042321236
23569914 152 11892703089792040448
23569943 247 18339930437459122067
24983565 74 18045211640643035402
25025965 108 18272073990766024647
25222932 49 18259981540576887562
255183 313 17060334137046813103
2747138 104 18200311018904732840
2748736 6 9222949218920867975
2838139 119 8574436391834271753
32027 91 18194122039766205699
3383291 50 18334576849584309570
3504750 166 18341056225153151273
393628 194 10159401116282770435
397830 11 18342731893784813288
406291 66 18409168822450998619
4461854 278 17847061108064494470
474113 269 18271801355216085383
50009960 94 18336819874853011894
5104073 3 17915738679189013448
5718773 13 18409449189056484835
5874358 3 17241026731716100882
5937810 71 11097858467176532903
6201460 15 17768804609424930919
636775 8 18268442235629951910
6636798 310 17489592299058091995
6698420 124 17837772227627561137
6712543 237 17560814208197572711
7970288 3 18411983559427785103
9555976 147 17560539330375045073
9896288 288 17914621561836293049

> <PUBCHEM_SHAPE_MULTIPOLES>
652.21
25.49
5.14
1.39
4.03
0.76
-0.3
34.77
-5.14
-5.06
1.18
0.84
0
1.33

> <PUBCHEM_SHAPE_SELFOVERLAP>
1392.425

> <PUBCHEM_SHAPE_VOLUME>
358.3

> <PUBCHEM_COORDINATE_TYPE>
2
5
10

$$$$
