28960045
  -OEChem-12032416273D

 64 67  0     1  0  0  0  0  0999 V2000
   -3.8159    2.3948   -2.1092 O   0  0  0  0  0  0  0  0  0  0  0  0
   -3.4393   -5.6152   -0.0392 O   0  0  0  0  0  0  0  0  0  0  0  0
   -5.2250   -4.2113    0.1055 O   0  0  0  0  0  0  0  0  0  0  0  0
   -3.7502    0.8849   -0.3232 N   0  0  0  0  0  0  0  0  0  0  0  0
    1.1390   -0.2456    0.4631 N   0  0  0  0  0  0  0  0  0  0  0  0
    3.9701   -0.4648    0.1529 N   0  0  0  0  0  0  0  0  0  0  0  0
    5.9198    0.5380   -0.7396 N   0  0  0  0  0  0  0  0  0  0  0  0
   -2.5771   -0.9114    0.9309 C   0  0  2  0  0  0  0  0  0  0  0  0
   -3.5538   -1.9361    0.2996 C   0  0  1  0  0  0  0  0  0  0  0  0
   -3.2412    0.4763    0.9937 C   0  0  0  0  0  0  0  0  0  0  0  0
   -4.0950   -1.4428   -1.0530 C   0  0  0  0  0  0  0  0  0  0  0  0
   -1.2222   -0.8215    0.2174 C   0  0  0  0  0  0  0  0  0  0  0  0
   -4.6988   -0.0465   -0.9307 C   0  0  0  0  0  0  0  0  0  0  0  0
   -0.1377   -0.3396    1.1703 C   0  0  0  0  0  0  0  0  0  0  0  0
   -2.9514   -3.3341    0.1613 C   0  0  0  0  0  0  0  0  0  0  0  0
    1.7771   -1.5646    0.3749 C   0  0  0  0  0  0  0  0  0  0  0  0
    2.0353    0.6984    1.1420 C   0  0  0  0  0  0  0  0  0  0  0  0
   -3.3968    2.0518   -1.0049 C   0  0  0  0  0  0  0  0  0  0  0  0
    3.0878   -1.4904   -0.4122 C   0  0  0  0  0  0  0  0  0  0  0  0
    3.3538    0.8485    0.3797 C   0  0  0  0  0  0  0  0  0  0  0  0
   -4.0169   -4.3919    0.0770 C   0  0  0  0  0  0  0  0  0  0  0  0
   -2.4416    2.9626   -0.3641 C   0  0  0  0  0  0  0  0  0  0  0  0
    5.3439   -0.5100   -0.1091 C   0  0  0  0  0  0  0  0  0  0  0  0
   -1.0733    2.8103   -0.5881 C   0  0  0  0  0  0  0  0  0  0  0  0
   -2.9027    3.9813    0.4696 C   0  0  0  0  0  0  0  0  0  0  0  0
    6.0306   -1.6415    0.3006 C   0  0  0  0  0  0  0  0  0  0  0  0
   -0.1660    3.6767    0.0217 C   0  0  0  0  0  0  0  0  0  0  0  0
   -1.9955    4.8479    1.0793 C   0  0  0  0  0  0  0  0  0  0  0  0
    7.3964   -1.7012    0.0470 C   0  0  0  0  0  0  0  0  0  0  0  0
   -0.6271    4.6955    0.8553 C   0  0  0  0  0  0  0  0  0  0  0  0
    7.2488    0.4442   -0.9690 C   0  0  0  0  0  0  0  0  0  0  0  0
    8.0248   -0.6425   -0.5993 C   0  0  0  0  0  0  0  0  0  0  0  0
   -2.3999   -1.2407    1.9642 H   0  0  0  0  0  0  0  0  0  0  0  0
   -4.4116   -1.9963    0.9860 H   0  0  0  0  0  0  0  0  0  0  0  0
   -4.1100    0.4370    1.6633 H   0  0  0  0  0  0  0  0  0  0  0  0
   -2.5646    1.2192    1.4181 H   0  0  0  0  0  0  0  0  0  0  0  0
   -4.8566   -2.1253   -1.4452 H   0  0  0  0  0  0  0  0  0  0  0  0
   -3.2815   -1.4179   -1.7894 H   0  0  0  0  0  0  0  0  0  0  0  0
   -1.2813   -0.1809   -0.6684 H   0  0  0  0  0  0  0  0  0  0  0  0
   -0.9398   -1.8089   -0.1544 H   0  0  0  0  0  0  0  0  0  0  0  0
   -5.0131    0.3074   -1.9178 H   0  0  0  0  0  0  0  0  0  0  0  0
   -5.5902   -0.0693   -0.2927 H   0  0  0  0  0  0  0  0  0  0  0  0
   -0.0625   -0.9884    2.0526 H   0  0  0  0  0  0  0  0  0  0  0  0
   -0.4249    0.6506    1.5420 H   0  0  0  0  0  0  0  0  0  0  0  0
   -2.3282   -3.4109   -0.7364 H   0  0  0  0  0  0  0  0  0  0  0  0
   -2.3413   -3.5639    1.0429 H   0  0  0  0  0  0  0  0  0  0  0  0
    1.1320   -2.2863   -0.1365 H   0  0  0  0  0  0  0  0  0  0  0  0
    1.9799   -1.9656    1.3776 H   0  0  0  0  0  0  0  0  0  0  0  0
    2.2418    0.3606    2.1669 H   0  0  0  0  0  0  0  0  0  0  0  0
    1.5714    1.6865    1.2180 H   0  0  0  0  0  0  0  0  0  0  0  0
    3.5542   -2.4820   -0.3944 H   0  0  0  0  0  0  0  0  0  0  0  0
    2.8834   -1.2498   -1.4635 H   0  0  0  0  0  0  0  0  0  0  0  0
    3.1790    1.3453   -0.5834 H   0  0  0  0  0  0  0  0  0  0  0  0
    4.0199    1.4898    0.9707 H   0  0  0  0  0  0  0  0  0  0  0  0
   -4.1075   -6.3310   -0.0971 H   0  0  0  0  0  0  0  0  0  0  0  0
   -0.7012    2.0313   -1.2474 H   0  0  0  0  0  0  0  0  0  0  0  0
   -3.9668    4.1085    0.6513 H   0  0  0  0  0  0  0  0  0  0  0  0
    5.5450   -2.4617    0.8192 H   0  0  0  0  0  0  0  0  0  0  0  0
    0.8985    3.5670   -0.1627 H   0  0  0  0  0  0  0  0  0  0  0  0
   -2.3545    5.6415    1.7281 H   0  0  0  0  0  0  0  0  0  0  0  0
    7.9710   -2.5693    0.3559 H   0  0  0  0  0  0  0  0  0  0  0  0
    0.0791    5.3719    1.3277 H   0  0  0  0  0  0  0  0  0  0  0  0
    7.6909    1.2957   -1.4757 H   0  0  0  0  0  0  0  0  0  0  0  0
    9.0885   -0.6670   -0.8064 H   0  0  0  0  0  0  0  0  0  0  0  0
  1 18  2  0  0  0  0
  2 21  1  0  0  0  0
  2 55  1  0  0  0  0
  3 21  2  0  0  0  0
  4 10  1  0  0  0  0
  4 13  1  0  0  0  0
  4 18  1  0  0  0  0
  5 14  1  0  0  0  0
  5 16  1  0  0  0  0
  5 17  1  0  0  0  0
  6 19  1  0  0  0  0
  6 20  1  0  0  0  0
  6 23  1  0  0  0  0
  7 23  1  0  0  0  0
  7 31  2  0  0  0  0
  8  9  1  0  0  0  0
  8 10  1  0  0  0  0
  8 12  1  0  0  0  0
  8 33  1  0  0  0  0
  9 11  1  0  0  0  0
  9 15  1  0  0  0  0
  9 34  1  0  0  0  0
 10 35  1  0  0  0  0
 10 36  1  0  0  0  0
 11 13  1  0  0  0  0
 11 37  1  0  0  0  0
 11 38  1  0  0  0  0
 12 14  1  0  0  0  0
 12 39  1  0  0  0  0
 12 40  1  0  0  0  0
 13 41  1  0  0  0  0
 13 42  1  0  0  0  0
 14 43  1  0  0  0  0
 14 44  1  0  0  0  0
 15 21  1  0  0  0  0
 15 45  1  0  0  0  0
 15 46  1  0  0  0  0
 16 19  1  0  0  0  0
 16 47  1  0  0  0  0
 16 48  1  0  0  0  0
 17 20  1  0  0  0  0
 17 49  1  0  0  0  0
 17 50  1  0  0  0  0
 18 22  1  0  0  0  0
 19 51  1  0  0  0  0
 19 52  1  0  0  0  0
 20 53  1  0  0  0  0
 20 54  1  0  0  0  0
 22 24  2  0  0  0  0
 22 25  1  0  0  0  0
 23 26  2  0  0  0  0
 24 27  1  0  0  0  0
 24 56  1  0  0  0  0
 25 28  2  0  0  0  0
 25 57  1  0  0  0  0
 26 29  1  0  0  0  0
 26 58  1  0  0  0  0
 27 30  2  0  0  0  0
 27 59  1  0  0  0  0
 28 30  1  0  0  0  0
 28 60  1  0  0  0  0
 29 32  2  0  0  0  0
 29 61  1  0  0  0  0
 30 62  1  0  0  0  0
 31 32  1  0  0  0  0
 31 63  1  0  0  0  0
 32 64  1  0  0  0  0
M  END
> <PUBCHEM_COMPOUND_CID>
28960045

> <PUBCHEM_CONFORMER_RMSD>
1

> <PUBCHEM_CONFORMER_DIVERSEORDER>
1
92
71
56
70
93
109
115
17
75
105
28
79
27
87
62
36
65
130
82
95
73
10
114
42
58
90
81
84
30
69
99
31
76
120
83
24
116
97
46
127
77
34
86
25
128
37
125
102
98
50
100
68
74
8
123
85
112
119
54
67
108
41
39
45
47
43
60
88
96
72
38
117
64
49
51
55
32
63
126
22
111
18
131
15
19
129
23
12
124
6
44
20
122
9
110
16
26
121
101
35
104
107
14
106
33
57
80
48
61
78
103
94
52
89
59
113
13
118
3
53
11
21
29
66
91
4
2
40
5
7

> <PUBCHEM_MMFF94_PARTIAL_CHARGES>
38
1 -0.57
10 0.3
13 0.3
14 0.27
15 0.06
16 0.27
17 0.27
18 0.54
19 0.37
2 -0.65
20 0.37
21 0.66
22 0.09
23 0.41
24 -0.15
25 -0.15
26 -0.15
27 -0.15
28 -0.15
29 -0.15
3 -0.57
30 -0.15
31 0.16
32 -0.15
4 -0.66
5 -0.81
55 0.5
56 0.15
57 0.15
58 0.15
59 0.15
6 -0.84
60 0.15
61 0.15
62 0.15
63 0.15
64 0.15
7 -0.62

> <PUBCHEM_EFFECTIVE_ROTOR_COUNT>
10.4

> <PUBCHEM_PHARMACOPHORE_FEATURES>
11
1 1 acceptor
1 2 acceptor
1 3 acceptor
1 5 cation
1 6 cation
1 7 acceptor
3 2 3 21 anion
6 22 24 25 27 28 30 rings
6 4 8 9 10 11 13 rings
6 5 6 16 17 19 20 rings
6 7 23 26 29 31 32 rings

> <PUBCHEM_HEAVY_ATOM_COUNT>
32

> <PUBCHEM_ATOM_DEF_STEREO_COUNT>
2

> <PUBCHEM_ATOM_UDEF_STEREO_COUNT>
0

> <PUBCHEM_BOND_DEF_STEREO_COUNT>
0

> <PUBCHEM_BOND_UDEF_STEREO_COUNT>
0

> <PUBCHEM_ISOTOPIC_ATOM_COUNT>
0

> <PUBCHEM_COMPONENT_COUNT>
1

> <PUBCHEM_CACTVS_TAUTO_COUNT>
1

> <PUBCHEM_CONFORMER_ID>
01B9E52D00000001

> <PUBCHEM_MMFF94_ENERGY>
91.6766

> <PUBCHEM_FEATURE_SELFOVERLAP>
55.882

> <PUBCHEM_SHAPE_FINGERPRINT>
100830 39 18410012118305599422
10411042 1 18267025144781281715
10454371 7 18338804416765238852
10462674 296 17769642424073216710
10816530 145 18342752809821579113
11049842 53 17690544304541464067
11434127 23 18271239413667219478
11756154 67 18337676416598113779
12788726 201 18334007259816293499
13690498 29 18337390542799847770
13761468 95 17753886121503491884
13782708 43 17989205945949522646
13911987 19 18118950418319177717
14856354 85 18342459227289784702
14931854 50 18190440719811979101
15064981 194 18335996293505156509
15183329 4 17968659316447841586
15250474 111 18188198798597329834
15297060 5 18126846002185223945
15324884 4 17913459567155982073
15400415 2 17834959664162020120
15876981 60 18334582368611113853
15890870 6 18265048034545014501
15950262 2 15360495581829618285
16114785 44 17985559853538448513
17686467 74 18271241751057894904
19246450 95 18198085633382492713
19958102 18 18048598123501955126
20101258 96 18264774427526052771
20775438 99 17475745148433596167
21033650 10 18117869671129282582
21236236 1 18336550400579506600
23559900 14 18124022692885516539
255183 451 17977944915056240487
3504750 166 18262226713303780746
531348 171 18335702694046655274
57527306 92 15574992798738751117
57527452 28 15841252823743778789
6700243 42 17842034149464960430

> <PUBCHEM_SHAPE_MULTIPOLES>
621.01
16.5
6.77
1.13
41.4
0.05
0.18
9.97
4.56
-13.92
-1.02
-0.66
-0.58
0.13

> <PUBCHEM_SHAPE_SELFOVERLAP>
1311.369

> <PUBCHEM_SHAPE_VOLUME>
344.1

> <PUBCHEM_COORDINATE_TYPE>
2
5
10

$$$$
