26743403
  -OEChem-12032416183D

 58 60  0     1  0  0  0  0  0999 V2000
   -3.4663   -1.4853   -0.5038 O   0  0  0  0  0  0  0  0  0  0  0  0
   -8.3397   -1.3217   -0.6826 O   0  0  0  0  0  0  0  0  0  0  0  0
   -6.3405   -2.2189   -1.2717 O   0  0  0  0  0  0  0  0  0  0  0  0
   -2.5142    0.4705    0.3055 N   0  0  0  0  0  0  0  0  0  0  0  0
    4.2310    0.3417   -0.3301 N   0  0  0  0  0  0  0  0  0  0  0  0
    4.2189    1.4000   -1.1584 N   0  0  0  0  0  0  0  0  0  0  0  0
    0.6941    1.2002    0.0852 C   0  0  2  0  0  0  0  0  0  0  0  0
   -0.1533   -0.0322   -0.2853 C   0  0  0  0  0  0  0  0  0  0  0  0
   -1.2660   -0.1213    0.7728 C   0  0  1  0  0  0  0  0  0  0  0  0
    2.1615    1.0342   -0.2357 C   0  0  0  0  0  0  0  0  0  0  0  0
    0.3862    1.3700    1.5441 C   0  0  0  0  0  0  0  0  0  0  0  0
   -5.8535    0.6093    0.3628 C   0  0  0  0  0  0  0  0  0  0  0  0
   -0.6839    0.6569    1.9113 C   0  0  0  0  0  0  0  0  0  0  0  0
   -4.7219    0.5590   -0.6951 C   0  0  0  0  0  0  0  0  0  0  0  0
    3.0235    0.0803    0.2479 C   0  0  0  0  0  0  0  0  0  0  0  0
   -3.5136   -0.2744   -0.2979 C   0  0  0  0  0  0  0  0  0  0  0  0
    2.9520    1.8188   -1.0967 C   0  0  0  0  0  0  0  0  0  0  0  0
   -6.4455   -0.7855    0.6769 C   0  0  0  0  0  0  0  0  0  0  0  0
   -5.3298    1.2126    1.6832 C   0  0  0  0  0  0  0  0  0  0  0  0
   -6.9581    1.5480   -0.1674 C   0  0  0  0  0  0  0  0  0  0  0  0
    2.8003   -1.0343    1.1910 C   0  0  0  0  0  0  0  0  0  0  0  0
    2.5364    2.9890   -1.8900 C   0  0  0  0  0  0  0  0  0  0  0  0
    5.4147   -0.3707   -0.1348 C   0  0  0  0  0  0  0  0  0  0  0  0
   -7.0081   -1.5210   -0.5195 C   0  0  0  0  0  0  0  0  0  0  0  0
    5.4735   -1.7269   -0.4559 C   0  0  0  0  0  0  0  0  0  0  0  0
    6.5396    0.2735    0.3800 C   0  0  0  0  0  0  0  0  0  0  0  0
    6.6572   -2.4389   -0.2620 C   0  0  0  0  0  0  0  0  0  0  0  0
    7.7234   -0.4384    0.5738 C   0  0  0  0  0  0  0  0  0  0  0  0
    7.7822   -1.7946    0.2528 C   0  0  0  0  0  0  0  0  0  0  0  0
    0.3047    2.0805   -0.4425 H   0  0  0  0  0  0  0  0  0  0  0  0
   -0.5467    0.0541   -1.3056 H   0  0  0  0  0  0  0  0  0  0  0  0
    0.4359   -0.9570   -0.2622 H   0  0  0  0  0  0  0  0  0  0  0  0
   -1.4414   -1.1654    1.0529 H   0  0  0  0  0  0  0  0  0  0  0  0
    0.9354    2.0214    2.2096 H   0  0  0  0  0  0  0  0  0  0  0  0
   -1.0947    0.6537    2.9111 H   0  0  0  0  0  0  0  0  0  0  0  0
   -2.6346    1.4745    0.4056 H   0  0  0  0  0  0  0  0  0  0  0  0
   -4.3821    1.5788   -0.9212 H   0  0  0  0  0  0  0  0  0  0  0  0
   -5.0941    0.1612   -1.6472 H   0  0  0  0  0  0  0  0  0  0  0  0
   -7.2433   -0.7034    1.4273 H   0  0  0  0  0  0  0  0  0  0  0  0
   -5.6927   -1.4402    1.1336 H   0  0  0  0  0  0  0  0  0  0  0  0
   -4.5987    0.5567    2.1674 H   0  0  0  0  0  0  0  0  0  0  0  0
   -4.8539    2.1851    1.5149 H   0  0  0  0  0  0  0  0  0  0  0  0
   -6.1477    1.3649    2.3971 H   0  0  0  0  0  0  0  0  0  0  0  0
   -7.3329    1.2188   -1.1426 H   0  0  0  0  0  0  0  0  0  0  0  0
   -6.5816    2.5700   -0.2916 H   0  0  0  0  0  0  0  0  0  0  0  0
   -7.8085    1.5901    0.5225 H   0  0  0  0  0  0  0  0  0  0  0  0
    3.6436   -1.1588    1.8786 H   0  0  0  0  0  0  0  0  0  0  0  0
    1.9197   -0.8780    1.8176 H   0  0  0  0  0  0  0  0  0  0  0  0
    2.6524   -1.9741    0.6495 H   0  0  0  0  0  0  0  0  0  0  0  0
    2.1728    3.7874   -1.2350 H   0  0  0  0  0  0  0  0  0  0  0  0
    3.3628    3.3947   -2.4832 H   0  0  0  0  0  0  0  0  0  0  0  0
    1.7316    2.7184   -2.5814 H   0  0  0  0  0  0  0  0  0  0  0  0
    4.6136   -2.2450   -0.8730 H   0  0  0  0  0  0  0  0  0  0  0  0
    6.5106    1.3291    0.6395 H   0  0  0  0  0  0  0  0  0  0  0  0
   -8.6885   -1.8002   -1.4646 H   0  0  0  0  0  0  0  0  0  0  0  0
    6.7042   -3.4940   -0.5152 H   0  0  0  0  0  0  0  0  0  0  0  0
    8.5991    0.0629    0.9754 H   0  0  0  0  0  0  0  0  0  0  0  0
    8.7041   -2.3488    0.4032 H   0  0  0  0  0  0  0  0  0  0  0  0
  1 16  2  0  0  0  0
  2 24  1  0  0  0  0
  2 55  1  0  0  0  0
  3 24  2  0  0  0  0
  4  9  1  0  0  0  0
  4 16  1  0  0  0  0
  4 36  1  0  0  0  0
  5  6  1  0  0  0  0
  5 15  1  0  0  0  0
  5 23  1  0  0  0  0
  6 17  2  0  0  0  0
  7  8  1  0  0  0  0
  7 10  1  0  0  0  0
  7 11  1  0  0  0  0
  7 30  1  0  0  0  0
  8  9  1  0  0  0  0
  8 31  1  0  0  0  0
  8 32  1  0  0  0  0
  9 13  1  0  0  0  0
  9 33  1  0  0  0  0
 10 15  2  0  0  0  0
 10 17  1  0  0  0  0
 11 13  2  0  0  0  0
 11 34  1  0  0  0  0
 12 14  1  0  0  0  0
 12 18  1  0  0  0  0
 12 19  1  0  0  0  0
 12 20  1  0  0  0  0
 13 35  1  0  0  0  0
 14 16  1  0  0  0  0
 14 37  1  0  0  0  0
 14 38  1  0  0  0  0
 15 21  1  0  0  0  0
 17 22  1  0  0  0  0
 18 24  1  0  0  0  0
 18 39  1  0  0  0  0
 18 40  1  0  0  0  0
 19 41  1  0  0  0  0
 19 42  1  0  0  0  0
 19 43  1  0  0  0  0
 20 44  1  0  0  0  0
 20 45  1  0  0  0  0
 20 46  1  0  0  0  0
 21 47  1  0  0  0  0
 21 48  1  0  0  0  0
 21 49  1  0  0  0  0
 22 50  1  0  0  0  0
 22 51  1  0  0  0  0
 22 52  1  0  0  0  0
 23 25  2  0  0  0  0
 23 26  1  0  0  0  0
 25 27  1  0  0  0  0
 25 53  1  0  0  0  0
 26 28  2  0  0  0  0
 26 54  1  0  0  0  0
 27 29  2  0  0  0  0
 27 56  1  0  0  0  0
 28 29  1  0  0  0  0
 28 57  1  0  0  0  0
 29 58  1  0  0  0  0
M  END
> <PUBCHEM_COMPOUND_CID>
26743403

> <PUBCHEM_CONFORMER_RMSD>
1

> <PUBCHEM_CONFORMER_DIVERSEORDER>
1
96
97
87
92
117
133
124
102
110
80
94
122
56
103
91
79
131
41
95
125
65
113
20
109
128
99
130
24
34
81
62
120
54
38
115
45
93
119
134
43
116
70
25
61
50
59
106
126
60
76
13
69
98
132
9
39
11
82
83
78
23
129
108
112
85
49
6
104
136
28
57
86
35
101
77
36
88
40
8
111
127
107
100
68
123
84
118
31
44
5
48
90
73
53
29
21
32
64
30
52
46
19
10
33
121
7
114
74
51
12
67
75
55
4
72
89
3
22
26
16
15
42
37
135
66
14
105
58
17
47
2
63
18
27
71

> <PUBCHEM_MMFF94_PARTIAL_CHARGES>
34
1 -0.57
10 -0.18
11 -0.29
13 -0.29
14 0.06
15 -0.33
16 0.57
17 0.11
18 0.06
2 -0.65
21 0.18
22 0.18
23 -0.02
24 0.66
25 -0.15
26 -0.15
27 -0.15
28 -0.15
29 -0.15
3 -0.57
34 0.15
35 0.15
36 0.37
4 -0.73
5 0.59
53 0.15
54 0.15
55 0.5
56 0.15
57 0.15
58 0.15
6 -0.71
7 0.32
9 0.44

> <PUBCHEM_EFFECTIVE_ROTOR_COUNT>
8.6

> <PUBCHEM_PHARMACOPHORE_FEATURES>
10
1 1 acceptor
1 2 acceptor
1 3 acceptor
1 4 donor
1 6 acceptor
3 12 19 20 hydrophobe
3 2 3 24 anion
5 5 6 10 15 17 rings
5 7 8 9 11 13 rings
6 23 25 26 27 28 29 rings

> <PUBCHEM_HEAVY_ATOM_COUNT>
29

> <PUBCHEM_ATOM_DEF_STEREO_COUNT>
2

> <PUBCHEM_ATOM_UDEF_STEREO_COUNT>
0

> <PUBCHEM_BOND_DEF_STEREO_COUNT>
0

> <PUBCHEM_BOND_UDEF_STEREO_COUNT>
0

> <PUBCHEM_ISOTOPIC_ATOM_COUNT>
0

> <PUBCHEM_COMPONENT_COUNT>
1

> <PUBCHEM_CACTVS_TAUTO_COUNT>
2

> <PUBCHEM_CONFORMER_ID>
0198126B00000001

> <PUBCHEM_MMFF94_ENERGY>
76.5671

> <PUBCHEM_FEATURE_SELFOVERLAP>
50.806

> <PUBCHEM_SHAPE_FINGERPRINT>
10 15 14548726289129542418
10299344 5 18411983563764878835
10670039 82 15068614959568277383
10693767 8 18188205382819234698
11386260 185 17530963639264701084
11719270 70 17917996061969807150
11991303 11 14996573927072228635
12166972 35 18411702088815009864
12236239 1 18342741810099213712
12592606 108 18410011030966801487
12645989 146 18259707813225183605
13533116 47 18343022186439950976
13540713 4 16517675769595540320
13668630 136 18410575071778495398
13782708 43 17916582189375565343
13885169 127 18413106135235545353
14068700 675 18411702059024551872
14251764 18 18412265051373160534
15021287 119 18261116279130838365
15119646 104 18410859858760313494
15183329 4 17675920997433488978
1577012 14 18338811077753229477
15849732 13 18342174453947060318
17093844 174 14620799285083548803
1768 124 18201720618386615150
19841028 212 18268147561950208410
21315759 40 18342742935992477429
221357 26 17530961388801992644
22224240 67 12895064111957563564
23522609 53 17983889867333141593
23559900 14 18041001795144761200
23569943 247 17972879160012822370
249057 25 18341346538697972273
249057 3 17894632582192953362
3004659 81 18408881841114711442
335352 9 17967536783600284102
4169191 19 8358268034011686387
4339292 15 16988550352544963367
4340502 62 12391513075077156348
445580 37 13767921304661131895
504579 68 17894623761020834167
559249 180 18201718453664620663
59682541 35 16415471658736713618
59755656 215 16877940525106597562
9689198 14 10665232536020439018
99344 41 18342458101966849751

> <PUBCHEM_SHAPE_MULTIPOLES>
564.26
24.71
2.28
1.36
10.66
0.19
-0.25
-13.38
2.42
-1.1
1.03
0.59
0.52
-2.07

> <PUBCHEM_SHAPE_SELFOVERLAP>
1195.125

> <PUBCHEM_SHAPE_VOLUME>
318.3

> <PUBCHEM_COORDINATE_TYPE>
2
5
10

$$$$
