26743732
  -OEChem-12032416293D

 46 49  0     1  0  0  0  0  0999 V2000
    7.1222    0.2262    1.5047 F   0  0  0  0  0  0  0  0  0  0  0  0
    5.4384   -1.0427    0.9303 F   0  0  0  0  0  0  0  0  0  0  0  0
    6.8202   -0.2566   -0.6051 F   0  0  0  0  0  0  0  0  0  0  0  0
   -5.6129    3.3732    0.9435 O   0  0  0  0  0  0  0  0  0  0  0  0
   -1.7482    0.1010   -2.1027 O   0  0  0  0  0  0  0  0  0  0  0  0
    5.3844    1.1893    0.4339 O   0  0  0  0  0  0  0  0  0  0  0  0
   -3.9074    0.2450    0.6665 N   0  0  1  0  0  0  0  0  0  0  0  0
   -0.9897    1.0217   -0.2071 N   0  0  0  0  0  0  0  0  0  0  0  0
   -0.3508    0.0333   -2.1688 N   0  0  0  0  0  0  0  0  0  0  0  0
   -1.7357   -3.6595   -0.7976 N   0  0  0  0  0  0  0  0  0  0  0  0
   -3.5090    0.8886   -0.6019 C   0  0  1  0  0  0  0  0  0  0  0  0
   -3.8923    2.3701   -0.4291 C   0  0  0  0  0  0  0  0  0  0  0  0
   -4.5397    2.4521    0.9477 C   0  0  2  0  0  0  0  0  0  0  0  0
   -5.0155    1.0342    1.2009 C   0  0  0  0  0  0  0  0  0  0  0  0
   -4.2596   -1.1603    0.5116 C   0  0  0  0  0  0  0  0  0  0  0  0
   -2.0404    0.6966   -0.9169 C   0  0  0  0  0  0  0  0  0  0  0  0
   -3.0394   -2.0390    0.4351 C   0  0  0  0  0  0  0  0  0  0  0  0
    0.0234    0.5952   -1.0157 C   0  0  0  0  0  0  0  0  0  0  0  0
   -2.1096   -2.0663    1.4687 C   0  0  0  0  0  0  0  0  0  0  0  0
   -2.8084   -2.8471   -0.6665 C   0  0  0  0  0  0  0  0  0  0  0  0
    1.4000    0.7472   -0.6422 C   0  0  0  0  0  0  0  0  0  0  0  0
   -0.9932   -2.8893    1.3704 C   0  0  0  0  0  0  0  0  0  0  0  0
   -0.8537   -3.6594    0.2270 C   0  0  0  0  0  0  0  0  0  0  0  0
    1.7316    1.3435    0.5744 C   0  0  0  0  0  0  0  0  0  0  0  0
    2.4073    0.2995   -1.4969 C   0  0  0  0  0  0  0  0  0  0  0  0
    3.0704    1.4924    0.9363 C   0  0  0  0  0  0  0  0  0  0  0  0
    3.7462    0.4483   -1.1352 C   0  0  0  0  0  0  0  0  0  0  0  0
    4.0777    1.0447    0.0814 C   0  0  0  0  0  0  0  0  0  0  0  0
    6.1838    0.0179    0.5534 C   0  0  0  0  0  0  0  0  0  0  0  0
   -4.1030    0.4958   -1.4393 H   0  0  0  0  0  0  0  0  0  0  0  0
   -3.0371    3.0531   -0.4881 H   0  0  0  0  0  0  0  0  0  0  0  0
   -4.6004    2.6719   -1.2112 H   0  0  0  0  0  0  0  0  0  0  0  0
   -3.8060    2.7573    1.7039 H   0  0  0  0  0  0  0  0  0  0  0  0
   -5.1761    0.8539    2.2690 H   0  0  0  0  0  0  0  0  0  0  0  0
   -5.9614    0.8401    0.6779 H   0  0  0  0  0  0  0  0  0  0  0  0
   -4.9238   -1.3218   -0.3475 H   0  0  0  0  0  0  0  0  0  0  0  0
   -4.8245   -1.5026    1.3902 H   0  0  0  0  0  0  0  0  0  0  0  0
   -5.2507    4.2426    0.7014 H   0  0  0  0  0  0  0  0  0  0  0  0
   -2.2443   -1.4554    2.3571 H   0  0  0  0  0  0  0  0  0  0  0  0
   -3.4958   -2.8691   -1.5064 H   0  0  0  0  0  0  0  0  0  0  0  0
   -0.2554   -2.9266    2.1636 H   0  0  0  0  0  0  0  0  0  0  0  0
   -0.0001   -4.3173    0.1014 H   0  0  0  0  0  0  0  0  0  0  0  0
    0.9697    1.7021    1.2619 H   0  0  0  0  0  0  0  0  0  0  0  0
    2.1874   -0.1686   -2.4531 H   0  0  0  0  0  0  0  0  0  0  0  0
    3.3231    1.9572    1.8854 H   0  0  0  0  0  0  0  0  0  0  0  0
    4.5211    0.1016   -1.8134 H   0  0  0  0  0  0  0  0  0  0  0  0
  1 29  1  0  0  0  0
  2 29  1  0  0  0  0
  3 29  1  0  0  0  0
  4 13  1  0  0  0  0
  4 38  1  0  0  0  0
  5  9  1  0  0  0  0
  5 16  1  0  0  0  0
  6 28  1  0  0  0  0
  6 29  1  0  0  0  0
  7 11  1  0  0  0  0
  7 14  1  0  0  0  0
  7 15  1  0  0  0  0
  8 16  2  0  0  0  0
  8 18  1  0  0  0  0
  9 18  2  0  0  0  0
 10 20  1  0  0  0  0
 10 23  2  0  0  0  0
 11 12  1  0  0  0  0
 11 16  1  0  0  0  0
 11 30  1  0  0  0  0
 12 13  1  0  0  0  0
 12 31  1  0  0  0  0
 12 32  1  0  0  0  0
 13 14  1  0  0  0  0
 13 33  1  0  0  0  0
 14 34  1  0  0  0  0
 14 35  1  0  0  0  0
 15 17  1  0  0  0  0
 15 36  1  0  0  0  0
 15 37  1  0  0  0  0
 17 19  1  0  0  0  0
 17 20  2  0  0  0  0
 18 21  1  0  0  0  0
 19 22  2  0  0  0  0
 19 39  1  0  0  0  0
 20 40  1  0  0  0  0
 21 24  2  0  0  0  0
 21 25  1  0  0  0  0
 22 23  1  0  0  0  0
 22 41  1  0  0  0  0
 23 42  1  0  0  0  0
 24 26  1  0  0  0  0
 24 43  1  0  0  0  0
 25 27  2  0  0  0  0
 25 44  1  0  0  0  0
 26 28  2  0  0  0  0
 26 45  1  0  0  0  0
 27 28  1  0  0  0  0
 27 46  1  0  0  0  0
M  END
> <PUBCHEM_COMPOUND_CID>
26743732

> <PUBCHEM_CONFORMER_RMSD>
1

> <PUBCHEM_CONFORMER_DIVERSEORDER>
1
14
57
74
64
66
15
4
47
72
49
79
40
33
58
75
41
70
25
20
21
80
63
30
68
46
13
18
7
12
77
61
32
9
55
11
27
45
53
34
35
6
44
78
73
23
59
60
71
65
36
39
37
81
16
28
69
31
17
48
56
38
22
29
67
3
5
62
76
26
24
10
54
43
51
2
42
8
19
50
52

> <PUBCHEM_MMFF94_PARTIAL_CHARGES>
37
1 -0.34
10 -0.62
11 0.45
13 0.28
14 0.27
15 0.41
16 0.3
17 -0.14
18 0.46
19 -0.15
2 -0.34
20 0.16
21 0.05
22 -0.15
23 0.16
24 -0.15
25 -0.15
26 -0.15
27 -0.15
28 0.08
29 1.3
3 -0.34
38 0.4
39 0.15
4 -0.68
40 0.15
41 0.15
42 0.15
43 0.15
44 0.15
45 0.15
46 0.15
5 -0.02
6 -0.36
7 -0.81
8 -0.57
9 -0.41

> <PUBCHEM_EFFECTIVE_ROTOR_COUNT>
7

> <PUBCHEM_PHARMACOPHORE_FEATURES>
10
1 10 acceptor
1 4 acceptor
1 4 donor
1 6 acceptor
1 7 cation
3 8 9 18 cation
5 5 8 9 16 18 rings
5 7 11 12 13 14 rings
6 10 17 19 20 22 23 rings
6 21 24 25 26 27 28 rings

> <PUBCHEM_HEAVY_ATOM_COUNT>
29

> <PUBCHEM_ATOM_DEF_STEREO_COUNT>
2

> <PUBCHEM_ATOM_UDEF_STEREO_COUNT>
0

> <PUBCHEM_BOND_DEF_STEREO_COUNT>
0

> <PUBCHEM_BOND_UDEF_STEREO_COUNT>
0

> <PUBCHEM_ISOTOPIC_ATOM_COUNT>
0

> <PUBCHEM_COMPONENT_COUNT>
1

> <PUBCHEM_CACTVS_TAUTO_COUNT>
1

> <PUBCHEM_CONFORMER_ID>
019813B400000001

> <PUBCHEM_MMFF94_ENERGY>
70.1883

> <PUBCHEM_FEATURE_SELFOVERLAP>
50.747

> <PUBCHEM_SHAPE_FINGERPRINT>
10319926 262 18342465854445499028
11370993 144 18411699919887511048
11405975 8 18338234968225488096
11524674 6 18413386527311123423
11552529 35 18122341551763366678
12293681 4 18201725054496897384
12422481 6 17749672878834422866
12522641 33 17460572764338853341
12616971 3 16805323314685272220
12633257 1 18336271222940703357
12788726 201 17975713980298355791
13004483 165 17695911412292705519
131258 38 16454344076119531187
13583140 156 17560522918529260262
14840074 17 16950280715297786282
15021287 119 17022902363433516420
15348495 7 18200588211567025504
15537594 2 17240475897627810104
15799311 1 18113912567535394262
16994733 274 16414649147035519225
19438510 23 17559689330487666081
20554085 129 18199175210281693225
21033648 29 17632306656920879389
21403212 168 18188207607659032129
23516275 137 17971493814221992458
23522609 53 17823723961117241540
23728640 28 18190469436016021763
3383291 50 18263084469512031235
338550 245 18040720273049919638
3411729 13 18045227034042109297
4073 2 18340766031582142520
484985 159 18189604102995500751
508706 21 18340496663459558350
5265222 85 18264506129624726038
5364581 5 18054218006631370616
5385378 56 18121511159346290601
5924683 9 18269833288624845631
59755656 520 18411130325830848693
602551 16 18335144249402520868
7226269 152 18131351873523032088
9981440 41 17418381259683998821

> <PUBCHEM_SHAPE_MULTIPOLES>
537.45
13.96
3.68
1.57
22.84
2.92
0.36
-6.07
-5.49
-6.13
-0.77
0.04
0.04
-0.63

> <PUBCHEM_SHAPE_SELFOVERLAP>
1172.624

> <PUBCHEM_SHAPE_VOLUME>
294.5

> <PUBCHEM_COORDINATE_TYPE>
2
5
10

$$$$
