24121228
  -OEChem-12032416413D

 77 80  0     1  0  0  0  0  0999 V2000
   -7.3262   -0.9492    1.7934 S   0  0  0  0  0  0  0  0  0  0  0  0
    3.6915    0.6999   -0.2294 O   0  0  0  0  0  0  0  0  0  0  0  0
   -3.2244   -1.3612    0.3874 O   0  0  0  0  0  0  0  0  0  0  0  0
    3.4257   -2.0292   -0.1016 O   0  0  0  0  0  0  0  0  0  0  0  0
   -4.4770    2.4732   -0.9624 O   0  0  0  0  0  0  0  0  0  0  0  0
    4.0458    2.7833   -1.1286 O   0  0  0  0  0  0  0  0  0  0  0  0
   -5.3076    1.3203    0.8768 N   0  0  0  0  0  0  0  0  0  0  0  0
    5.7795    1.5362   -0.2224 N   0  0  0  0  0  0  0  0  0  0  0  0
   -0.6171    0.3805    0.1870 C   0  0  2  0  0  0  0  0  0  0  0  0
    0.1057   -0.4203   -0.9643 C   0  0  1  0  0  0  0  0  0  0  0  0
    1.6681   -0.5882   -0.8363 C   0  0  1  0  0  0  0  0  0  0  0  0
   -2.0878    0.6892   -0.3172 C   0  0  1  0  0  0  0  0  0  0  0  0
    0.1391    1.7188    0.4041 C   0  0  0  0  0  0  0  0  0  0  0  0
   -0.6577   -1.7223   -1.2932 C   0  0  0  0  0  0  0  0  0  0  0  0
    2.3024    0.8046   -0.5406 C   0  0  1  0  0  0  0  0  0  0  0  0
   -2.8693   -0.5746   -0.7453 C   0  0  1  0  0  0  0  0  0  0  0  0
    1.6399    1.5504    0.6125 C   0  0  0  0  0  0  0  0  0  0  0  0
   -2.0895   -1.4278   -1.7417 C   0  0  0  0  0  0  0  0  0  0  0  0
   -0.6530   -0.3737    1.5384 C   0  0  0  0  0  0  0  0  0  0  0  0
    2.1056   -1.6382    0.2054 C   0  0  0  0  0  0  0  0  0  0  0  0
    2.2403   -1.0806   -2.1974 C   0  0  0  0  0  0  0  0  0  0  0  0
   -2.9403    1.5272    0.6494 C   0  0  0  0  0  0  0  0  0  0  0  0
   -4.3018    1.8399    0.0751 C   0  0  0  0  0  0  0  0  0  0  0  0
    4.4684    1.7713   -0.5793 C   0  0  0  0  0  0  0  0  0  0  0  0
    6.2294    0.3268    0.4235 C   0  0  0  0  0  0  0  0  0  0  0  0
   -6.7132    1.4680    0.5754 C   0  0  0  0  0  0  0  0  0  0  0  0
    6.5929   -0.7386   -0.6141 C   0  0  0  0  0  0  0  0  0  0  0  0
    7.4076    0.6223    1.3547 C   0  0  0  0  0  0  0  0  0  0  0  0
    7.1231   -2.0086    0.0464 C   0  0  0  0  0  0  0  0  0  0  0  0
    7.9382   -0.6493    2.0117 C   0  0  0  0  0  0  0  0  0  0  0  0
    8.2963   -1.7112    0.9759 C   0  0  0  0  0  0  0  0  0  0  0  0
   -7.3447    0.1149    0.4520 C   0  0  0  0  0  0  0  0  0  0  0  0
   -7.9756   -0.4401   -0.6396 C   0  0  0  0  0  0  0  0  0  0  0  0
   -8.4503   -1.7564   -0.3710 C   0  0  0  0  0  0  0  0  0  0  0  0
   -8.1640   -2.1572    0.9154 C   0  0  0  0  0  0  0  0  0  0  0  0
   -0.0159    0.2125   -1.8599 H   0  0  0  0  0  0  0  0  0  0  0  0
   -1.9800    1.2917   -1.2328 H   0  0  0  0  0  0  0  0  0  0  0  0
   -0.2679    2.2538    1.2705 H   0  0  0  0  0  0  0  0  0  0  0  0
   -0.0163    2.3733   -0.4639 H   0  0  0  0  0  0  0  0  0  0  0  0
   -0.1664   -2.2658   -2.1062 H   0  0  0  0  0  0  0  0  0  0  0  0
   -0.6745   -2.4017   -0.4356 H   0  0  0  0  0  0  0  0  0  0  0  0
    2.1710    1.4074   -1.4511 H   0  0  0  0  0  0  0  0  0  0  0  0
   -3.8087   -0.2902   -1.2329 H   0  0  0  0  0  0  0  0  0  0  0  0
    1.8524    1.0525    1.5650 H   0  0  0  0  0  0  0  0  0  0  0  0
    2.0892    2.5459    0.7187 H   0  0  0  0  0  0  0  0  0  0  0  0
   -2.6061   -2.3805   -1.9090 H   0  0  0  0  0  0  0  0  0  0  0  0
   -2.0545   -0.9069   -2.7069 H   0  0  0  0  0  0  0  0  0  0  0  0
   -1.0778   -1.3755    1.4607 H   0  0  0  0  0  0  0  0  0  0  0  0
    0.3382   -0.4956    1.9745 H   0  0  0  0  0  0  0  0  0  0  0  0
   -1.2276    0.1723    2.2924 H   0  0  0  0  0  0  0  0  0  0  0  0
    2.1031   -1.2505    1.2245 H   0  0  0  0  0  0  0  0  0  0  0  0
    1.4814   -2.5347    0.1701 H   0  0  0  0  0  0  0  0  0  0  0  0
    1.8229   -0.4985   -3.0276 H   0  0  0  0  0  0  0  0  0  0  0  0
    2.0079   -2.1342   -2.3867 H   0  0  0  0  0  0  0  0  0  0  0  0
    3.3281   -0.9651   -2.2633 H   0  0  0  0  0  0  0  0  0  0  0  0
   -2.4649    2.4947    0.8449 H   0  0  0  0  0  0  0  0  0  0  0  0
   -3.0410    1.0304    1.6185 H   0  0  0  0  0  0  0  0  0  0  0  0
   -3.7444   -2.1191    0.0702 H   0  0  0  0  0  0  0  0  0  0  0  0
    3.6947   -2.6880    0.5609 H   0  0  0  0  0  0  0  0  0  0  0  0
   -5.0678    0.8264    1.7313 H   0  0  0  0  0  0  0  0  0  0  0  0
    6.4691    2.2402   -0.4685 H   0  0  0  0  0  0  0  0  0  0  0  0
    5.4197   -0.0648    1.0521 H   0  0  0  0  0  0  0  0  0  0  0  0
   -6.8482    2.0454   -0.3451 H   0  0  0  0  0  0  0  0  0  0  0  0
   -7.1701    2.0306    1.3968 H   0  0  0  0  0  0  0  0  0  0  0  0
    5.7240   -0.9849   -1.2347 H   0  0  0  0  0  0  0  0  0  0  0  0
    7.3544   -0.3429   -1.2993 H   0  0  0  0  0  0  0  0  0  0  0  0
    8.2181    1.1039    0.7919 H   0  0  0  0  0  0  0  0  0  0  0  0
    7.1033    1.3359    2.1304 H   0  0  0  0  0  0  0  0  0  0  0  0
    7.4355   -2.7219   -0.7245 H   0  0  0  0  0  0  0  0  0  0  0  0
    6.3181   -2.4872    0.6173 H   0  0  0  0  0  0  0  0  0  0  0  0
    7.1806   -1.0491    2.6969 H   0  0  0  0  0  0  0  0  0  0  0  0
    8.8209   -0.4113    2.6159 H   0  0  0  0  0  0  0  0  0  0  0  0
    8.6072   -2.6313    1.4833 H   0  0  0  0  0  0  0  0  0  0  0  0
    9.1530   -1.3678    0.3830 H   0  0  0  0  0  0  0  0  0  0  0  0
   -8.0928    0.0695   -1.5875 H   0  0  0  0  0  0  0  0  0  0  0  0
   -8.9748   -2.3779   -1.0851 H   0  0  0  0  0  0  0  0  0  0  0  0
   -8.4065   -3.1018    1.3816 H   0  0  0  0  0  0  0  0  0  0  0  0
  1 32  1  0  0  0  0
  1 35  1  0  0  0  0
  2 15  1  0  0  0  0
  2 24  1  0  0  0  0
  3 16  1  0  0  0  0
  3 58  1  0  0  0  0
  4 20  1  0  0  0  0
  4 59  1  0  0  0  0
  5 23  2  0  0  0  0
  6 24  2  0  0  0  0
  7 23  1  0  0  0  0
  7 26  1  0  0  0  0
  7 60  1  0  0  0  0
  8 24  1  0  0  0  0
  8 25  1  0  0  0  0
  8 61  1  0  0  0  0
  9 10  1  0  0  0  0
  9 12  1  0  0  0  0
  9 13  1  0  0  0  0
  9 19  1  0  0  0  0
 10 11  1  0  0  0  0
 10 14  1  0  0  0  0
 10 36  1  0  0  0  0
 11 15  1  0  0  0  0
 11 20  1  0  0  0  0
 11 21  1  0  0  0  0
 12 16  1  0  0  0  0
 12 22  1  0  0  0  0
 12 37  1  0  0  0  0
 13 17  1  0  0  0  0
 13 38  1  0  0  0  0
 13 39  1  0  0  0  0
 14 18  1  0  0  0  0
 14 40  1  0  0  0  0
 14 41  1  0  0  0  0
 15 17  1  0  0  0  0
 15 42  1  0  0  0  0
 16 18  1  0  0  0  0
 16 43  1  0  0  0  0
 17 44  1  0  0  0  0
 17 45  1  0  0  0  0
 18 46  1  0  0  0  0
 18 47  1  0  0  0  0
 19 48  1  0  0  0  0
 19 49  1  0  0  0  0
 19 50  1  0  0  0  0
 20 51  1  0  0  0  0
 20 52  1  0  0  0  0
 21 53  1  0  0  0  0
 21 54  1  0  0  0  0
 21 55  1  0  0  0  0
 22 23  1  0  0  0  0
 22 56  1  0  0  0  0
 22 57  1  0  0  0  0
 25 27  1  0  0  0  0
 25 28  1  0  0  0  0
 25 62  1  0  0  0  0
 26 32  1  0  0  0  0
 26 63  1  0  0  0  0
 26 64  1  0  0  0  0
 27 29  1  0  0  0  0
 27 65  1  0  0  0  0
 27 66  1  0  0  0  0
 28 30  1  0  0  0  0
 28 67  1  0  0  0  0
 28 68  1  0  0  0  0
 29 31  1  0  0  0  0
 29 69  1  0  0  0  0
 29 70  1  0  0  0  0
 30 31  1  0  0  0  0
 30 71  1  0  0  0  0
 30 72  1  0  0  0  0
 31 73  1  0  0  0  0
 31 74  1  0  0  0  0
 32 33  2  0  0  0  0
 33 34  1  0  0  0  0
 33 75  1  0  0  0  0
 34 35  2  0  0  0  0
 34 76  1  0  0  0  0
 35 77  1  0  0  0  0
M  END
> <PUBCHEM_COMPOUND_CID>
24121228

> <PUBCHEM_CONFORMER_RMSD>
1.2

> <PUBCHEM_CONFORMER_DIVERSEORDER>
6
8
65
21
11
50
47
62
64
22
23
35
42
19
33
59
9
27
37
26
58
48
46
7
63
24
57
18
44
5
53
32
41
25
28
39
51
34
60
56
31
4
61
3
40
29
20
52
10
54
2
30
12
15
66
45
14
49
16
13
43
38
55
36
17
1

> <PUBCHEM_MMFF94_PARTIAL_CHARGES>
27
1 -0.08
15 0.28
16 0.28
2 -0.43
20 0.28
22 0.06
23 0.57
24 0.78
25 0.3
26 0.48
3 -0.68
32 -0.14
33 -0.15
34 -0.15
35 -0.11
4 -0.68
5 -0.57
58 0.4
59 0.4
6 -0.57
60 0.37
61 0.37
7 -0.73
75 0.15
76 0.15
77 0.15
8 -0.73

> <PUBCHEM_EFFECTIVE_ROTOR_COUNT>
12.8

> <PUBCHEM_PHARMACOPHORE_FEATURES>
12
1 3 acceptor
1 3 donor
1 4 acceptor
1 4 donor
1 5 acceptor
1 6 acceptor
1 7 donor
1 8 donor
5 1 32 33 34 35 rings
6 25 27 28 29 30 31 rings
6 9 10 11 13 15 17 rings
6 9 10 12 14 16 18 rings

> <PUBCHEM_HEAVY_ATOM_COUNT>
35

> <PUBCHEM_ATOM_DEF_STEREO_COUNT>
5

> <PUBCHEM_ATOM_UDEF_STEREO_COUNT>
1

> <PUBCHEM_BOND_DEF_STEREO_COUNT>
0

> <PUBCHEM_BOND_UDEF_STEREO_COUNT>
0

> <PUBCHEM_ISOTOPIC_ATOM_COUNT>
0

> <PUBCHEM_COMPONENT_COUNT>
1

> <PUBCHEM_CACTVS_TAUTO_COUNT>
4

> <PUBCHEM_CONFORMER_ID>
01700F8C00000006

> <PUBCHEM_MMFF94_ENERGY>
91.9478

> <PUBCHEM_FEATURE_SELFOVERLAP>
60.913

> <PUBCHEM_SHAPE_FINGERPRINT>
10 15 18341614841072717904
11136131 41 18270402677251851575
11456790 92 17346594132964545914
12422481 6 18272647914750043140
13165053 68 18334294314114653939
13383668 254 13254513240448365383
13692114 37 18407760352741467714
13782708 43 18265628602211463775
13811026 1 18407761434566089851
14251764 18 18342176669954966999
15064981 113 14201388396856542379
15131766 46 17244719088867022900
15198563 99 13046217218308302118
15301273 46 15213018258392937556
15461852 350 16515400760046963013
1577012 14 18412543250002305900
15840311 113 18059855061360547344
1754908 1 17561363989211247435
1754911 235 8502372248218845386
18608769 82 17989205975887433407
19304144 158 17774723039908856493
195137 175 9079117773954741019
19611394 137 18262247745747553945
21033648 29 16772930611452021282
21057603 40 15430029925588367466
21781051 124 18342183292567820626
22149856 69 17417269653586592465
23569917 315 18271815592294894774
3178227 256 17561365097202098296
3383291 50 18343303669479666515
4017518 198 15647054854630040625
4093350 32 15625947491562737084
4112364 45 17917705838529640872
4516262 110 16517392095943754292
4625314 4 18186519921745831941
6081469 158 17458341948949294357

> <PUBCHEM_SHAPE_MULTIPOLES>
684.82
26.68
2.48
1.54
6.71
0.4
-0.07
-8.8
-10.93
0.27
0.29
-0.52
-0.43
-0.37

> <PUBCHEM_SHAPE_SELFOVERLAP>
1411.695

> <PUBCHEM_SHAPE_VOLUME>
394.1

> <PUBCHEM_COORDINATE_TYPE>
2
5
10

$$$$
