75367000
  -OEChem-12032416393D

 58 60  0     1  0  0  0  0  0999 V2000
    3.1925   -0.2800    0.6845 O   0  0  0  0  0  0  0  0  0  0  0  0
    5.8827    0.7349    1.3332 O   0  0  0  0  0  0  0  0  0  0  0  0
   -0.5012   -3.1010   -0.8774 O   0  0  0  0  0  0  0  0  0  0  0  0
    1.5086    3.7349    0.1377 O   0  0  0  0  0  0  0  0  0  0  0  0
   -2.7245   -1.1395   -0.3744 O   0  0  0  0  0  0  0  0  0  0  0  0
    1.5855    1.5768   -0.7199 N   0  0  0  0  0  0  0  0  0  0  0  0
    0.8790   -3.2481   -0.9440 N   0  0  0  0  0  0  0  0  0  0  0  0
   -0.4348    2.4825   -0.0580 N   0  0  0  0  0  0  0  0  0  0  0  0
    3.7347    0.9794    0.2662 C   0  0  1  0  0  0  0  0  0  0  0  0
    3.4790   -1.3825   -0.1793 C   0  0  1  0  0  0  0  0  0  0  0  0
    5.2524    0.8929    0.0593 C   0  0  2  0  0  0  0  0  0  0  0  0
    4.9877   -1.5790   -0.3200 C   0  0  0  0  0  0  0  0  0  0  0  0
    5.6538   -0.2962   -0.8093 C   0  0  0  0  0  0  0  0  0  0  0  0
    2.8248   -2.6195    0.4241 C   0  0  0  0  0  0  0  0  0  0  0  0
    2.9957    1.5176   -0.9572 C   0  0  0  0  0  0  0  0  0  0  0  0
    1.3437   -2.6528    0.1581 C   0  0  0  0  0  0  0  0  0  0  0  0
    0.3135   -2.1173    0.9502 C   0  0  0  0  0  0  0  0  0  0  0  0
    0.9359    2.6944   -0.1830 C   0  0  0  0  0  0  0  0  0  0  0  0
   -0.8257   -2.4261    0.2550 C   0  0  0  0  0  0  0  0  0  0  0  0
   -1.3358    3.4797    0.4699 C   0  0  0  0  0  0  0  0  0  0  0  0
   -2.2545   -2.1815    0.4854 C   0  0  0  0  0  0  0  0  0  0  0  0
   -2.4953    2.8130    1.1984 C   0  0  0  0  0  0  0  0  0  0  0  0
   -1.8349    4.3924   -0.6434 C   0  0  0  0  0  0  0  0  0  0  0  0
   -4.0290   -0.7633   -0.2184 C   0  0  0  0  0  0  0  0  0  0  0  0
   -4.8255   -1.3887    0.7408 C   0  0  0  0  0  0  0  0  0  0  0  0
   -4.5639    0.2463   -1.0185 C   0  0  0  0  0  0  0  0  0  0  0  0
   -6.1570   -1.0047    0.8999 C   0  0  0  0  0  0  0  0  0  0  0  0
   -5.8954    0.6304   -0.8594 C   0  0  0  0  0  0  0  0  0  0  0  0
   -6.6920    0.0048    0.0997 C   0  0  0  0  0  0  0  0  0  0  0  0
    3.5440    1.6590    1.1068 H   0  0  0  0  0  0  0  0  0  0  0  0
    3.0473   -1.1923   -1.1691 H   0  0  0  0  0  0  0  0  0  0  0  0
    5.6320    1.8263   -0.3710 H   0  0  0  0  0  0  0  0  0  0  0  0
    5.2071   -2.3984   -1.0138 H   0  0  0  0  0  0  0  0  0  0  0  0
    5.4178   -1.8509    0.6523 H   0  0  0  0  0  0  0  0  0  0  0  0
    6.7414   -0.4330   -0.7970 H   0  0  0  0  0  0  0  0  0  0  0  0
    5.3609   -0.1105   -1.8493 H   0  0  0  0  0  0  0  0  0  0  0  0
    2.9897   -2.6533    1.5086 H   0  0  0  0  0  0  0  0  0  0  0  0
    3.2680   -3.5305    0.0015 H   0  0  0  0  0  0  0  0  0  0  0  0
    3.1381    0.8857   -1.8383 H   0  0  0  0  0  0  0  0  0  0  0  0
    3.3617    2.5199   -1.2067 H   0  0  0  0  0  0  0  0  0  0  0  0
    6.8441    0.7299    1.1868 H   0  0  0  0  0  0  0  0  0  0  0  0
    1.0282    0.7563   -0.9373 H   0  0  0  0  0  0  0  0  0  0  0  0
    0.3867   -1.5846    1.8868 H   0  0  0  0  0  0  0  0  0  0  0  0
   -0.8243    1.6166   -0.4190 H   0  0  0  0  0  0  0  0  0  0  0  0
   -0.7814    4.0910    1.1922 H   0  0  0  0  0  0  0  0  0  0  0  0
   -2.8022   -3.1118    0.2880 H   0  0  0  0  0  0  0  0  0  0  0  0
   -2.3734   -1.8891    1.5367 H   0  0  0  0  0  0  0  0  0  0  0  0
   -3.1544    3.5608    1.6514 H   0  0  0  0  0  0  0  0  0  0  0  0
   -2.1295    2.1556    1.9946 H   0  0  0  0  0  0  0  0  0  0  0  0
   -3.0933    2.2038    0.5156 H   0  0  0  0  0  0  0  0  0  0  0  0
   -2.5040    5.1633   -0.2472 H   0  0  0  0  0  0  0  0  0  0  0  0
   -0.9994    4.8949   -1.1428 H   0  0  0  0  0  0  0  0  0  0  0  0
   -2.3806    3.8253   -1.4060 H   0  0  0  0  0  0  0  0  0  0  0  0
   -4.4830   -2.1837    1.3938 H   0  0  0  0  0  0  0  0  0  0  0  0
   -3.9477    0.7379   -1.7664 H   0  0  0  0  0  0  0  0  0  0  0  0
   -6.7787   -1.4919    1.6455 H   0  0  0  0  0  0  0  0  0  0  0  0
   -6.3117    1.4169   -1.4820 H   0  0  0  0  0  0  0  0  0  0  0  0
   -7.7287    0.3038    0.2234 H   0  0  0  0  0  0  0  0  0  0  0  0
  1  9  1  0  0  0  0
  1 10  1  0  0  0  0
  2 11  1  0  0  0  0
  2 41  1  0  0  0  0
  3  7  1  0  0  0  0
  3 19  1  0  0  0  0
  4 18  2  0  0  0  0
  5 21  1  0  0  0  0
  5 24  1  0  0  0  0
  6 15  1  0  0  0  0
  6 18  1  0  0  0  0
  6 42  1  0  0  0  0
  7 16  2  0  0  0  0
  8 18  1  0  0  0  0
  8 20  1  0  0  0  0
  8 44  1  0  0  0  0
  9 11  1  0  0  0  0
  9 15  1  0  0  0  0
  9 30  1  0  0  0  0
 10 12  1  0  0  0  0
 10 14  1  0  0  0  0
 10 31  1  0  0  0  0
 11 13  1  0  0  0  0
 11 32  1  0  0  0  0
 12 13  1  0  0  0  0
 12 33  1  0  0  0  0
 12 34  1  0  0  0  0
 13 35  1  0  0  0  0
 13 36  1  0  0  0  0
 14 16  1  0  0  0  0
 14 37  1  0  0  0  0
 14 38  1  0  0  0  0
 15 39  1  0  0  0  0
 15 40  1  0  0  0  0
 16 17  1  0  0  0  0
 17 19  2  0  0  0  0
 17 43  1  0  0  0  0
 19 21  1  0  0  0  0
 20 22  1  0  0  0  0
 20 23  1  0  0  0  0
 20 45  1  0  0  0  0
 21 46  1  0  0  0  0
 21 47  1  0  0  0  0
 22 48  1  0  0  0  0
 22 49  1  0  0  0  0
 22 50  1  0  0  0  0
 23 51  1  0  0  0  0
 23 52  1  0  0  0  0
 23 53  1  0  0  0  0
 24 25  2  0  0  0  0
 24 26  1  0  0  0  0
 25 27  1  0  0  0  0
 25 54  1  0  0  0  0
 26 28  2  0  0  0  0
 26 55  1  0  0  0  0
 27 29  2  0  0  0  0
 27 56  1  0  0  0  0
 28 29  1  0  0  0  0
 28 57  1  0  0  0  0
 29 58  1  0  0  0  0
M  END
> <PUBCHEM_COMPOUND_CID>
75367000

> <PUBCHEM_CONFORMER_RMSD>
1.2

> <PUBCHEM_CONFORMER_DIVERSEORDER>
1
59
104
87
46
42
128
111
26
97
74
127
31
112
116
96
81
129
62
71
115
98
30
55
122
109
126
70
45
50
75
121
78
72
131
39
18
76
6
113
101
125
11
83
90
99
40
95
43
117
16
51
132
91
37
61
47
33
44
92
82
100
68
89
84
114
38
88
63
21
24
79
107
124
73
66
69
105
103
77
41
49
119
36
13
20
53
8
106
60
17
35
118
25
80
110
56
64
85
54
108
15
19
2
94
32
48
102
58
29
67
120
22
27
123
10
57
86
23
34
12
130
65
4
28
7
3
52
14
93
5
9

> <PUBCHEM_MMFF94_PARTIAL_CHARGES>
34
1 -0.56
10 0.28
11 0.28
14 0.18
15 0.3
16 0.11
17 -0.15
18 0.69
19 -0.04
2 -0.68
20 0.3
21 0.46
24 0.08
25 -0.15
26 -0.15
27 -0.15
28 -0.15
29 -0.15
3 -0.02
4 -0.57
41 0.4
42 0.37
43 0.15
44 0.37
5 -0.36
54 0.15
55 0.15
56 0.15
57 0.15
58 0.15
6 -0.73
7 -0.41
8 -0.73
9 0.28

> <PUBCHEM_EFFECTIVE_ROTOR_COUNT>
11.2

> <PUBCHEM_PHARMACOPHORE_FEATURES>
12
1 1 acceptor
1 2 acceptor
1 2 donor
1 4 acceptor
1 5 acceptor
1 6 donor
1 7 acceptor
1 8 donor
3 20 22 23 hydrophobe
5 3 7 16 17 19 rings
6 1 9 10 11 12 13 rings
6 24 25 26 27 28 29 rings

> <PUBCHEM_HEAVY_ATOM_COUNT>
29

> <PUBCHEM_ATOM_DEF_STEREO_COUNT>
3

> <PUBCHEM_ATOM_UDEF_STEREO_COUNT>
0

> <PUBCHEM_BOND_DEF_STEREO_COUNT>
0

> <PUBCHEM_BOND_UDEF_STEREO_COUNT>
0

> <PUBCHEM_ISOTOPIC_ATOM_COUNT>
0

> <PUBCHEM_COMPONENT_COUNT>
1

> <PUBCHEM_CACTVS_TAUTO_COUNT>
3

> <PUBCHEM_CONFORMER_ID>
047E025800000001

> <PUBCHEM_MMFF94_ENERGY>
52.3796

> <PUBCHEM_FEATURE_SELFOVERLAP>
60.948

> <PUBCHEM_SHAPE_FINGERPRINT>
10006869 2 18337659811685056058
10190206 1 17975169653487460244
10670039 82 18339373950628913030
10939801 23 18263921198145241344
1100329 8 18266740375152652554
11513181 2 17986671467919789143
11646440 116 18411708715795949843
12596602 18 13479127999582760919
12788726 201 18408600336263322360
12838862 33 18338497729871246052
13402501 40 18334857225322841015
14028597 1 17604130581264855642
14394314 77 18342182116407113433
14464042 87 18343306950723274465
14681490 219 18411131420947314821
14784336 7 17844240951491944593
14840074 17 18060697286866451999
15001296 14 18335419092723237104
150020 26 17973457786627794321
15081414 286 18412270540457604078
15238133 3 17968659436538536606
15351339 4 18263071138133458737
15483637 11 18118966888943867997
16112460 7 18270129031467498864
19611394 137 18116448110079936731
20721686 56 18408323268234351963
21133410 38 17914905240774551641
21298829 104 18342742910027742033
22113638 7 18267583692007602589
3014063 31 18410292497347938884
338550 245 18335148548348799388
3680242 22 18259981557176430330
373842 8 18263354802979117850
469060 322 17458913625928212261
513532 50 18059587888177014510
550186 83 17678155256580301017
58260988 647 14129880485681290952
59755656 215 18408886222002497751
653340 110 18340483361977159504

> <PUBCHEM_SHAPE_MULTIPOLES>
552.52
14.25
5.09
1.03
6.88
3.66
-0.04
-1.89
-0.12
0.34
0.01
0.15
0.05
0.42

> <PUBCHEM_SHAPE_SELFOVERLAP>
1147.026

> <PUBCHEM_SHAPE_VOLUME>
315.3

> <PUBCHEM_COORDINATE_TYPE>
2
5
10

$$$$
