71694355
  -OEChem-12032416223D

 81 85  0     1  0  0  0  0  0999 V2000
    4.4119   -1.0187   -1.4340 O   0  0  0  0  0  0  0  0  0  0  0  0
    6.7501   -0.6640   -2.9201 O   0  0  0  0  0  0  0  0  0  0  0  0
   -0.2264    3.9172   -0.5504 O   0  0  0  0  0  0  0  0  0  0  0  0
   -1.5743   -0.9333    1.1261 O   0  0  0  0  0  0  0  0  0  0  0  0
    6.1116   -0.7584    0.1145 N   0  0  0  0  0  0  0  0  0  0  0  0
    1.0889    2.4887    0.7094 N   0  0  0  0  0  0  0  0  0  0  0  0
   -1.9514    1.9328    1.4526 N   0  0  0  0  0  0  0  0  0  0  0  0
   -6.8484   -0.5969   -0.6449 N   0  0  0  0  0  0  0  0  0  0  0  0
   -9.4949   -0.5743   -1.7149 N   0  0  0  0  0  0  0  0  0  0  0  0
    2.4244   -0.0179    0.0550 C   0  0  1  0  0  0  0  0  0  0  0  0
    1.2648    0.0905    1.0895 C   0  0  2  0  0  0  0  0  0  0  0  0
    2.3176    1.1528   -0.9505 C   0  0  0  0  0  0  0  0  0  0  0  0
    3.8280   -0.0727    0.6709 C   0  0  0  0  0  0  0  0  0  0  0  0
    1.2578    1.4778    1.7592 C   0  0  0  0  0  0  0  0  0  0  0  0
    2.1865    2.5134   -0.2610 C   0  0  0  0  0  0  0  0  0  0  0  0
    7.1626   -1.3943   -0.6832 C   0  0  2  0  0  0  0  0  0  0  0  0
    8.2773   -1.6623    0.3311 C   0  0  0  0  0  0  0  0  0  0  0  0
    6.6150   -0.3495    1.4233 C   0  0  0  0  0  0  0  0  0  0  0  0
    4.7996   -0.6624   -0.3200 C   0  0  0  0  0  0  0  0  0  0  0  0
    8.1234   -0.5243    1.3333 C   0  0  0  0  0  0  0  0  0  0  0  0
    1.2491   -1.0117    2.1150 C   0  0  0  0  0  0  0  0  0  0  0  0
    7.6249   -0.4871   -1.8218 C   0  0  0  0  0  0  0  0  0  0  0  0
   -0.0737    3.2165    0.4572 C   0  0  0  0  0  0  0  0  0  0  0  0
    0.2827   -1.9100    2.3710 C   0  0  0  0  0  0  0  0  0  0  0  0
   -1.1929    3.1800    1.4815 C   0  0  0  0  0  0  0  0  0  0  0  0
   -1.0950   -2.0977    1.7886 C   0  0  0  0  0  0  0  0  0  0  0  0
   -2.4796    1.5590    0.1423 C   0  0  0  0  0  0  0  0  0  0  0  0
   -3.3610    0.3239    0.2202 C   0  0  0  0  0  0  0  0  0  0  0  0
    7.1190    0.1530   -4.0257 C   0  0  0  0  0  0  0  0  0  0  0  0
   -2.8802   -0.9146    0.7043 C   0  0  0  0  0  0  0  0  0  0  0  0
   -5.5271   -0.7017   -0.1962 C   0  0  0  0  0  0  0  0  0  0  0  0
   -7.0755   -0.1920   -2.0387 C   0  0  0  0  0  0  0  0  0  0  0  0
   -7.8876   -1.4453   -0.0517 C   0  0  0  0  0  0  0  0  0  0  0  0
   -4.6893    0.4117   -0.2278 C   0  0  0  0  0  0  0  0  0  0  0  0
   -8.4889    0.3634   -2.2109 C   0  0  0  0  0  0  0  0  0  0  0  0
   -9.2725   -0.8461   -0.2959 C   0  0  0  0  0  0  0  0  0  0  0  0
   -3.7293   -2.0275    0.7248 C   0  0  0  0  0  0  0  0  0  0  0  0
   -5.0470   -1.9183    0.2777 C   0  0  0  0  0  0  0  0  0  0  0  0
    2.2434   -0.9488   -0.5012 H   0  0  0  0  0  0  0  0  0  0  0  0
    0.3568    0.0245    0.4841 H   0  0  0  0  0  0  0  0  0  0  0  0
    1.4238    0.9909   -1.5682 H   0  0  0  0  0  0  0  0  0  0  0  0
    3.1677    1.1769   -1.6400 H   0  0  0  0  0  0  0  0  0  0  0  0
    3.8512   -0.7236    1.5483 H   0  0  0  0  0  0  0  0  0  0  0  0
    4.1709    0.9192    0.9770 H   0  0  0  0  0  0  0  0  0  0  0  0
    2.1999    1.6826    2.2814 H   0  0  0  0  0  0  0  0  0  0  0  0
    0.4608    1.5399    2.5026 H   0  0  0  0  0  0  0  0  0  0  0  0
    2.0205    3.2901   -1.0144 H   0  0  0  0  0  0  0  0  0  0  0  0
    3.1029    2.7790    0.2766 H   0  0  0  0  0  0  0  0  0  0  0  0
    6.7727   -2.3348   -1.0912 H   0  0  0  0  0  0  0  0  0  0  0  0
    9.2776   -1.7094   -0.1085 H   0  0  0  0  0  0  0  0  0  0  0  0
    8.0892   -2.6163    0.8400 H   0  0  0  0  0  0  0  0  0  0  0  0
    6.1812   -1.0169    2.1757 H   0  0  0  0  0  0  0  0  0  0  0  0
    6.3280    0.6807    1.6500 H   0  0  0  0  0  0  0  0  0  0  0  0
    8.5794   -0.7436    2.3026 H   0  0  0  0  0  0  0  0  0  0  0  0
    8.5857    0.3871    0.9361 H   0  0  0  0  0  0  0  0  0  0  0  0
    2.1347   -1.0887    2.7432 H   0  0  0  0  0  0  0  0  0  0  0  0
    8.6342   -0.7722   -2.1412 H   0  0  0  0  0  0  0  0  0  0  0  0
    7.6369    0.5660   -1.5158 H   0  0  0  0  0  0  0  0  0  0  0  0
    0.5144   -2.6369    3.1508 H   0  0  0  0  0  0  0  0  0  0  0  0
   -1.8643    4.0253    1.2868 H   0  0  0  0  0  0  0  0  0  0  0  0
   -0.7750    3.3460    2.4799 H   0  0  0  0  0  0  0  0  0  0  0  0
   -1.0617   -2.9432    1.0918 H   0  0  0  0  0  0  0  0  0  0  0  0
   -1.7643   -2.3396    2.6239 H   0  0  0  0  0  0  0  0  0  0  0  0
   -2.7196    2.0068    2.1200 H   0  0  0  0  0  0  0  0  0  0  0  0
   -1.6696    1.3389   -0.5632 H   0  0  0  0  0  0  0  0  0  0  0  0
   -3.0521    2.3972   -0.2734 H   0  0  0  0  0  0  0  0  0  0  0  0
    6.4099   -0.0280   -4.8378 H   0  0  0  0  0  0  0  0  0  0  0  0
    8.1237   -0.1045   -4.3743 H   0  0  0  0  0  0  0  0  0  0  0  0
    7.0735    1.2113   -3.7510 H   0  0  0  0  0  0  0  0  0  0  0  0
   -6.9289   -1.0609   -2.6934 H   0  0  0  0  0  0  0  0  0  0  0  0
   -6.3649    0.5777   -2.3607 H   0  0  0  0  0  0  0  0  0  0  0  0
   -7.7426   -1.5370    1.0319 H   0  0  0  0  0  0  0  0  0  0  0  0
   -7.8413   -2.4515   -0.4877 H   0  0  0  0  0  0  0  0  0  0  0  0
   -5.0677    1.3654   -0.5902 H   0  0  0  0  0  0  0  0  0  0  0  0
   -8.5839    1.3241   -1.6893 H   0  0  0  0  0  0  0  0  0  0  0  0
   -8.6728    0.5559   -3.2735 H   0  0  0  0  0  0  0  0  0  0  0  0
  -10.0358   -1.5473    0.0586 H   0  0  0  0  0  0  0  0  0  0  0  0
   -9.3920    0.0779    0.2839 H   0  0  0  0  0  0  0  0  0  0  0  0
   -3.3936   -2.9982    1.0767 H   0  0  0  0  0  0  0  0  0  0  0  0
   -5.6661   -2.8109    0.2995 H   0  0  0  0  0  0  0  0  0  0  0  0
  -10.4223   -0.1690   -1.8384 H   0  0  0  0  0  0  0  0  0  0  0  0
  1 19  2  0  0  0  0
  2 22  1  0  0  0  0
  2 29  1  0  0  0  0
  3 23  2  0  0  0  0
  4 26  1  0  0  0  0
  4 30  1  0  0  0  0
  5 16  1  0  0  0  0
  5 18  1  0  0  0  0
  5 19  1  0  0  0  0
  6 14  1  0  0  0  0
  6 15  1  0  0  0  0
  6 23  1  0  0  0  0
  7 25  1  0  0  0  0
  7 27  1  0  0  0  0
  7 64  1  0  0  0  0
  8 31  1  0  0  0  0
  8 32  1  0  0  0  0
  8 33  1  0  0  0  0
  9 35  1  0  0  0  0
  9 36  1  0  0  0  0
  9 81  1  0  0  0  0
 10 11  1  0  0  0  0
 10 12  1  0  0  0  0
 10 13  1  0  0  0  0
 10 39  1  0  0  0  0
 11 14  1  0  0  0  0
 11 21  1  0  0  0  0
 11 40  1  0  0  0  0
 12 15  1  0  0  0  0
 12 41  1  0  0  0  0
 12 42  1  0  0  0  0
 13 19  1  0  0  0  0
 13 43  1  0  0  0  0
 13 44  1  0  0  0  0
 14 45  1  0  0  0  0
 14 46  1  0  0  0  0
 15 47  1  0  0  0  0
 15 48  1  0  0  0  0
 16 17  1  0  0  0  0
 16 22  1  0  0  0  0
 16 49  1  0  0  0  0
 17 20  1  0  0  0  0
 17 50  1  0  0  0  0
 17 51  1  0  0  0  0
 18 20  1  0  0  0  0
 18 52  1  0  0  0  0
 18 53  1  0  0  0  0
 20 54  1  0  0  0  0
 20 55  1  0  0  0  0
 21 24  2  0  0  0  0
 21 56  1  0  0  0  0
 22 57  1  0  0  0  0
 22 58  1  0  0  0  0
 23 25  1  0  0  0  0
 24 26  1  0  0  0  0
 24 59  1  0  0  0  0
 25 60  1  0  0  0  0
 25 61  1  0  0  0  0
 26 62  1  0  0  0  0
 26 63  1  0  0  0  0
 27 28  1  0  0  0  0
 27 65  1  0  0  0  0
 27 66  1  0  0  0  0
 28 30  2  0  0  0  0
 28 34  1  0  0  0  0
 29 67  1  0  0  0  0
 29 68  1  0  0  0  0
 29 69  1  0  0  0  0
 30 37  1  0  0  0  0
 31 34  2  0  0  0  0
 31 38  1  0  0  0  0
 32 35  1  0  0  0  0
 32 70  1  0  0  0  0
 32 71  1  0  0  0  0
 33 36  1  0  0  0  0
 33 72  1  0  0  0  0
 33 73  1  0  0  0  0
 34 74  1  0  0  0  0
 35 75  1  0  0  0  0
 35 76  1  0  0  0  0
 36 77  1  0  0  0  0
 36 78  1  0  0  0  0
 37 38  2  0  0  0  0
 37 79  1  0  0  0  0
 38 80  1  0  0  0  0
M  END
> <PUBCHEM_COMPOUND_CID>
71694355

> <PUBCHEM_CONFORMER_RMSD>
1

> <PUBCHEM_CONFORMER_DIVERSEORDER>
1
17
86
88
38
73
48
72
80
98
100
40
94
43
59
53
107
45
37
67
49
65
54
90
76
57
69
47
56
79
105
55
108
2
66
89
102
24
75
33
68
30
46
91
21
12
110
44
31
52
62
85
103
77
13
26
109
50
42
6
14
58
20
64
27
51
18
71
63
99
3
93
78
10
74
41
92
32
25
15
104
34
81
39
23
96
95
97
61
5
9
19
70
29
8
16
4
83
35
84
36
28
22
7
106
11
60
82
101
87

> <PUBCHEM_MMFF94_PARTIAL_CHARGES>
41
1 -0.57
11 0.14
13 0.06
14 0.3
15 0.3
16 0.3
18 0.3
19 0.57
2 -0.56
21 -0.29
22 0.28
23 0.57
24 -0.29
25 0.33
26 0.42
27 0.41
28 -0.14
29 0.28
3 -0.57
30 0.08
31 0.1
32 0.37
33 0.37
34 -0.15
35 0.27
36 0.27
37 -0.15
38 -0.15
4 -0.36
5 -0.66
56 0.15
59 0.15
6 -0.66
64 0.36
7 -0.9
74 0.15
79 0.15
8 -0.84
80 0.15
81 0.36
9 -0.9

> <PUBCHEM_EFFECTIVE_ROTOR_COUNT>
10

> <PUBCHEM_PHARMACOPHORE_FEATURES>
13
1 1 acceptor
1 2 acceptor
1 3 acceptor
1 4 acceptor
1 7 cation
1 7 donor
1 8 cation
1 9 cation
1 9 donor
5 5 16 17 18 20 rings
6 28 30 31 34 37 38 rings
6 6 10 11 12 14 15 rings
6 8 9 32 33 35 36 rings

> <PUBCHEM_HEAVY_ATOM_COUNT>
38

> <PUBCHEM_ATOM_DEF_STEREO_COUNT>
3

> <PUBCHEM_ATOM_UDEF_STEREO_COUNT>
0

> <PUBCHEM_BOND_DEF_STEREO_COUNT>
1

> <PUBCHEM_BOND_UDEF_STEREO_COUNT>
0

> <PUBCHEM_ISOTOPIC_ATOM_COUNT>
0

> <PUBCHEM_COMPONENT_COUNT>
1

> <PUBCHEM_CACTVS_TAUTO_COUNT>
2

> <PUBCHEM_CONFORMER_ID>
0445F81300000001

> <PUBCHEM_MMFF94_ENERGY>
115.6978

> <PUBCHEM_FEATURE_SELFOVERLAP>
65.979

> <PUBCHEM_SHAPE_FINGERPRINT>
10 15 10807937076505677775
10165383 225 16950276300113974547
10483366 6 18259981565971716499
10670039 82 18114456778573078253
10674148 151 15719386235574123012
10677394 325 17241061958310317124
10864689 126 18187358870603224483
10917259 69 18200313192559812945
11297750 10 18271511053323050121
11828532 37 18190186865875528059
12202916 173 18342736316773420791
13782708 43 17631464367565179878
13811026 1 18343578547069592865
14068700 675 18334295349359864980
14117953 113 18272930536151017815
14931854 50 18259985955133114299
15160629 131 18130232549701833591
15183329 4 17458068158144115690
15198563 99 18337111159667564844
15351339 4 18042114380214825291
15510800 12 17988650704655224607
15840311 113 15430037656524795942
16992610 120 10015577372804259970
16992727 255 17676769782156457052
16993089 31 16199048111057953716
18603816 31 16056301930790868639
19301679 30 13686032968595645602
2026 5 17274547520657555046
21057603 130 16917056793704988935
21792938 703 17843947364713273111
21792961 116 17968095296530904931
22224240 67 8790885181220057891
23559900 14 18265048218774602761
23576562 1 16878801528668897911
24893992 56 17894625994515013979
249057 3 18341326782148843991
3004659 81 18187358852842852865
3178227 256 10519982677820627818
3383291 50 18343866627780455215
3633792 109 16877665656871113514
4066623 53 18334010601212075284
4339292 15 18059577950081354214
44880568 143 18059299773355099608
484989 97 18042128812075358747
5758199 1 10665225943119039161
5776283 40 17168148978923125997
6081469 158 18410005537861696957
6126387 218 16558751200958958371
6376802 137 18059861653560724672
6698420 124 13407078072045618709
9689198 14 14562533981098180022

> <PUBCHEM_SHAPE_MULTIPOLES>
733.64
27.86
2.87
2.53
13.17
2.58
2.1
-13.42
21.64
0.55
-1.48
-3.7
0.21
-0.31

> <PUBCHEM_SHAPE_SELFOVERLAP>
1534.032

> <PUBCHEM_SHAPE_VOLUME>
410.8

> <PUBCHEM_COORDINATE_TYPE>
2
5
10

$$$$
