56774033
  -OEChem-12032416323D

 50 51  0     1  0  0  0  0  0999 V2000
    4.0443    1.0109    0.8162 O   0  0  0  0  0  0  0  0  0  0  0  0
   -5.0148    0.2215    1.1789 O   0  0  0  0  0  0  0  0  0  0  0  0
   -3.3489   -0.5189   -0.2542 N   0  0  0  0  0  0  0  0  0  0  0  0
    2.8932    1.6801    0.4188 N   0  0  0  0  0  0  0  0  0  0  0  0
   -5.5395   -1.0987   -0.6581 N   0  0  0  0  0  0  0  0  0  0  0  0
    6.3181   -0.8687   -0.1207 N   0  0  0  0  0  0  0  0  0  0  0  0
   -1.6757    1.4085   -0.1920 C   0  0  0  0  0  0  0  0  0  0  0  0
   -0.2644    0.8986    0.1674 C   0  0  1  0  0  0  0  0  0  0  0  0
   -2.2225    0.1166    0.4501 C   0  0  2  0  0  0  0  0  0  0  0  0
   -0.8554   -0.5264    0.1374 C   0  0  0  0  0  0  0  0  0  0  0  0
    0.8382    1.1498   -0.8344 C   0  0  0  0  0  0  0  0  0  0  0  0
   -1.9856    1.5028   -1.6747 C   0  0  0  0  0  0  0  0  0  0  0  0
   -2.0437    2.7043    0.4965 C   0  0  0  0  0  0  0  0  0  0  0  0
    2.1772    0.7705   -0.2482 C   0  0  0  0  0  0  0  0  0  0  0  0
   -4.6692   -0.4081    0.1799 C   0  0  0  0  0  0  0  0  0  0  0  0
    2.8198   -0.4784   -0.3036 C   0  0  0  0  0  0  0  0  0  0  0  0
    3.9889   -0.2736    0.3801 C   0  0  0  0  0  0  0  0  0  0  0  0
    5.1335   -1.1293    0.7151 C   0  0  0  0  0  0  0  0  0  0  0  0
   -6.9649   -1.1449   -0.4333 C   0  0  0  0  0  0  0  0  0  0  0  0
   -7.3264   -2.1641    0.6274 C   0  0  0  0  0  0  0  0  0  0  0  0
    7.5236   -1.3220    0.5642 C   0  0  0  0  0  0  0  0  0  0  0  0
    6.1742   -1.5305   -1.4128 C   0  0  0  0  0  0  0  0  0  0  0  0
    0.0259    1.2024    1.1857 H   0  0  0  0  0  0  0  0  0  0  0  0
   -2.4022    0.1927    1.5310 H   0  0  0  0  0  0  0  0  0  0  0  0
   -0.7916   -1.0420   -0.8284 H   0  0  0  0  0  0  0  0  0  0  0  0
   -0.4733   -1.2024    0.9087 H   0  0  0  0  0  0  0  0  0  0  0  0
    0.8702    2.2153   -1.0963 H   0  0  0  0  0  0  0  0  0  0  0  0
    0.6846    0.6011   -1.7711 H   0  0  0  0  0  0  0  0  0  0  0  0
   -3.0506    1.6994   -1.8464 H   0  0  0  0  0  0  0  0  0  0  0  0
   -1.7286    0.5949   -2.2310 H   0  0  0  0  0  0  0  0  0  0  0  0
   -1.4348    2.3288   -2.1398 H   0  0  0  0  0  0  0  0  0  0  0  0
   -3.1064    2.9352    0.3630 H   0  0  0  0  0  0  0  0  0  0  0  0
   -1.4640    3.5444    0.0982 H   0  0  0  0  0  0  0  0  0  0  0  0
   -1.8560    2.6583    1.5751 H   0  0  0  0  0  0  0  0  0  0  0  0
   -3.1814   -1.0722   -1.0905 H   0  0  0  0  0  0  0  0  0  0  0  0
    2.4839   -1.3926   -0.7704 H   0  0  0  0  0  0  0  0  0  0  0  0
   -5.1590   -1.5988   -1.4555 H   0  0  0  0  0  0  0  0  0  0  0  0
    5.3764   -0.9244    1.7675 H   0  0  0  0  0  0  0  0  0  0  0  0
    4.8492   -2.1896    0.6823 H   0  0  0  0  0  0  0  0  0  0  0  0
   -7.4398   -1.4011   -1.3854 H   0  0  0  0  0  0  0  0  0  0  0  0
   -7.3086   -0.1497   -0.1319 H   0  0  0  0  0  0  0  0  0  0  0  0
   -8.4114   -2.2027    0.7651 H   0  0  0  0  0  0  0  0  0  0  0  0
   -6.8695   -1.9167    1.5911 H   0  0  0  0  0  0  0  0  0  0  0  0
   -6.9812   -3.1638    0.3432 H   0  0  0  0  0  0  0  0  0  0  0  0
    7.6651   -0.7768    1.5042 H   0  0  0  0  0  0  0  0  0  0  0  0
    8.4117   -1.1214   -0.0458 H   0  0  0  0  0  0  0  0  0  0  0  0
    7.4958   -2.3949    0.7870 H   0  0  0  0  0  0  0  0  0  0  0  0
    5.3060   -1.1513   -1.9621 H   0  0  0  0  0  0  0  0  0  0  0  0
    6.0751   -2.6181   -1.3174 H   0  0  0  0  0  0  0  0  0  0  0  0
    7.0462   -1.3254   -2.0445 H   0  0  0  0  0  0  0  0  0  0  0  0
  1  4  1  0  0  0  0
  1 17  1  0  0  0  0
  2 15  2  0  0  0  0
  3  9  1  0  0  0  0
  3 15  1  0  0  0  0
  3 35  1  0  0  0  0
  4 14  2  0  0  0  0
  5 15  1  0  0  0  0
  5 19  1  0  0  0  0
  5 37  1  0  0  0  0
  6 18  1  0  0  0  0
  6 21  1  0  0  0  0
  6 22  1  0  0  0  0
  7  8  1  0  0  0  0
  7  9  1  0  0  0  0
  7 12  1  0  0  0  0
  7 13  1  0  0  0  0
  8 10  1  0  0  0  0
  8 11  1  0  0  0  0
  8 23  1  0  0  0  0
  9 10  1  0  0  0  0
  9 24  1  0  0  0  0
 10 25  1  0  0  0  0
 10 26  1  0  0  0  0
 11 14  1  0  0  0  0
 11 27  1  0  0  0  0
 11 28  1  0  0  0  0
 12 29  1  0  0  0  0
 12 30  1  0  0  0  0
 12 31  1  0  0  0  0
 13 32  1  0  0  0  0
 13 33  1  0  0  0  0
 13 34  1  0  0  0  0
 14 16  1  0  0  0  0
 16 17  2  0  0  0  0
 16 36  1  0  0  0  0
 17 18  1  0  0  0  0
 18 38  1  0  0  0  0
 18 39  1  0  0  0  0
 19 20  1  0  0  0  0
 19 40  1  0  0  0  0
 19 41  1  0  0  0  0
 20 42  1  0  0  0  0
 20 43  1  0  0  0  0
 20 44  1  0  0  0  0
 21 45  1  0  0  0  0
 21 46  1  0  0  0  0
 21 47  1  0  0  0  0
 22 48  1  0  0  0  0
 22 49  1  0  0  0  0
 22 50  1  0  0  0  0
M  END
> <PUBCHEM_COMPOUND_CID>
56774033

> <PUBCHEM_CONFORMER_RMSD>
1

> <PUBCHEM_CONFORMER_DIVERSEORDER>
3
161
190
111
34
177
37
48
11
184
153
30
123
96
115
152
125
60
72
144
179
50
130
94
170
71
156
85
8
186
119
84
106
47
87
163
40
16
102
128
133
155
57
105
90
117
95
108
180
7
183
124
113
44
43
78
164
26
175
107
182
76
188
103
137
139
56
2
134
5
63
157
142
27
122
148
10
65
41
165
138
151
53
59
88
13
116
171
12
51
24
173
38
28
15
45
61
191
58
154
146
104
110
80
187
131
141
168
118
14
150
120
4
9
136
23
33
97
68
135
176
79
147
69
29
132
149
22
42
91
74
19
1
140
109
158
54
98
93
62
127
67
66
77
162
174
112
145
86
143
52
31
129
126
121
114
46
99
178
32
166
82
189
169
17
181
18
20
159
73
101
81
75
89
21
64
35
83
172
92
36
49
100
6
167
55
25
160
39
70
185

> <PUBCHEM_MMFF94_PARTIAL_CHARGES>
19
1 -0.02
11 0.18
14 0.11
15 0.69
16 -0.15
17 -0.04
18 0.45
19 0.3
2 -0.57
21 0.27
22 0.27
3 -0.65
35 0.37
36 0.15
37 0.37
4 -0.41
5 -0.73
6 -0.81
9 0.22

> <PUBCHEM_EFFECTIVE_ROTOR_COUNT>
8.8

> <PUBCHEM_PHARMACOPHORE_FEATURES>
8
1 2 acceptor
1 3 donor
1 4 acceptor
1 5 donor
1 6 cation
3 7 12 13 hydrophobe
4 7 8 9 10 rings
5 1 4 14 16 17 rings

> <PUBCHEM_HEAVY_ATOM_COUNT>
22

> <PUBCHEM_ATOM_DEF_STEREO_COUNT>
2

> <PUBCHEM_ATOM_UDEF_STEREO_COUNT>
0

> <PUBCHEM_BOND_DEF_STEREO_COUNT>
0

> <PUBCHEM_BOND_UDEF_STEREO_COUNT>
0

> <PUBCHEM_ISOTOPIC_ATOM_COUNT>
0

> <PUBCHEM_COMPONENT_COUNT>
1

> <PUBCHEM_CACTVS_TAUTO_COUNT>
3

> <PUBCHEM_CONFORMER_ID>
03624D9100000003

> <PUBCHEM_MMFF94_ENERGY>
34.9335

> <PUBCHEM_FEATURE_SELFOVERLAP>
40.646

> <PUBCHEM_SHAPE_FINGERPRINT>
10 15 13973961025946277418
10366900 7 17675928672993903224
106641 1 18060131060354156698
12166972 35 18040436607043906556
12616971 3 16343691145728987728
12760667 363 18408604764696091267
13288520 33 18408603643525231453
13533116 47 18340485672564095568
13668630 136 18186799214668068611
13673619 4 18411418418693026153
13685833 64 18341892974955047890
13862211 1 18410013264929790627
14123256 34 18335706065653718819
14251764 18 18131353037358337946
14347332 77 18334013852691553164
14556957 393 16298396716487402103
15048467 5 9151175354759659403
15183329 4 14634863141707448663
15510800 12 18337688476392105483
15690457 1 18131345345789913903
18222031 100 17748825224452829100
19784866 240 18186242835682047533
200 152 18408879646808572045
20028762 73 18272368689450868702
20281389 69 11383835961187808842
20526848 3 9943808902056766771
21150785 3 16081088186090869062
21267235 1 18410014338059671882
22224240 67 12679468604003431989
23198884 109 12757149056522236303
23402539 116 18412258429008616613
23402655 69 8214138560563166376
23522609 53 18120969202692423620
23559900 14 17822577230091173460
2838139 119 9655571890159477434
300161 21 10809345546595562840
3004659 81 17676203606297357187
3472631 163 9223225269337942930
351380 3 18335136484154669978
4340502 62 15482680091117955927
465052 167 18341335590809769999
5104073 3 18129934590782767584
5718773 13 18261668190981574274
59682541 35 18130780184228788394
59682541 52 12901817273957730386
59755656 215 18334575715855075186
636775 8 18408893927775674822

> <PUBCHEM_SHAPE_MULTIPOLES>
421.09
19.61
2.11
1.07
1.63
0.59
-0.27
-17.25
1.01
-1.43
0.05
0.2
0.07
0.52

> <PUBCHEM_SHAPE_SELFOVERLAP>
852.36

> <PUBCHEM_SHAPE_VOLUME>
250.1

> <PUBCHEM_COORDINATE_TYPE>
2
5
10

$$$$
