45361373
  -OEChem-12032416353D

 82 85  0     1  0  0  0  0  0999 V2000
   -0.5705   -1.5348    1.8278 O   0  0  0  0  0  0  0  0  0  0  0  0
   -4.9799   -2.3833   -0.9717 O   0  0  0  0  0  0  0  0  0  0  0  0
    4.7374    2.4891    0.1639 O   0  0  0  0  0  0  0  0  0  0  0  0
  -10.0104    2.8674    0.5089 O   0  0  0  0  0  0  0  0  0  0  0  0
   10.4346   -0.2050    0.7406 O   0  0  0  0  0  0  0  0  0  0  0  0
    4.1505    0.2648   -0.1254 N   0  0  0  0  0  0  0  0  0  0  0  0
   -5.1000   -1.3365    1.0946 N   0  0  0  0  0  0  0  0  0  0  0  0
   -7.9510    0.9176    0.2665 N   0  0  0  0  0  0  0  0  0  0  0  0
    0.1782   -0.2728   -1.6967 C   0  0  1  0  0  0  0  0  0  0  0  0
    0.3644   -0.4675   -0.1551 C   0  0  2  0  0  0  0  0  0  0  0  0
    1.8781   -0.6888    0.2017 C   0  0  1  0  0  0  0  0  0  0  0  0
   -0.6169   -1.5396    0.4002 C   0  0  2  0  0  0  0  0  0  0  0  0
   -1.3029    0.0547   -2.0003 C   0  0  0  0  0  0  0  0  0  0  0  0
    1.0308    0.9313   -2.1593 C   0  0  0  0  0  0  0  0  0  0  0  0
   -2.0862   -1.2626    0.0048 C   0  0  1  0  0  0  0  0  0  0  0  0
    2.7359    0.4917   -0.3343 C   0  0  2  0  0  0  0  0  0  0  0  0
   -2.2637   -1.0124   -1.4927 C   0  0  0  0  0  0  0  0  0  0  0  0
    2.5065    0.7855   -1.8165 C   0  0  0  0  0  0  0  0  0  0  0  0
    0.5868   -1.5287   -2.5076 C   0  0  0  0  0  0  0  0  0  0  0  0
   -3.0184   -2.3966    0.4488 C   0  0  2  0  0  0  0  0  0  0  0  0
    2.1372   -0.8592    1.7081 C   0  0  0  0  0  0  0  0  0  0  0  0
   -2.5864   -3.7118   -0.1901 C   0  0  0  0  0  0  0  0  0  0  0  0
   -4.4614   -2.0529    0.0927 C   0  0  0  0  0  0  0  0  0  0  0  0
    5.0396    1.2999    0.1089 C   0  0  0  0  0  0  0  0  0  0  0  0
    6.4615    0.9038    0.2768 C   0  0  0  0  0  0  0  0  0  0  0  0
   -6.4713   -0.8955    0.9872 C   0  0  0  0  0  0  0  0  0  0  0  0
   -6.5574    0.4867    0.3566 C   0  0  0  0  0  0  0  0  0  0  0  0
    7.4784    1.8036   -0.0427 C   0  0  0  0  0  0  0  0  0  0  0  0
    6.7797   -0.3683    0.7522 C   0  0  0  0  0  0  0  0  0  0  0  0
    8.8136    1.4311    0.1129 C   0  0  0  0  0  0  0  0  0  0  0  0
    8.1148   -0.7409    0.9077 C   0  0  0  0  0  0  0  0  0  0  0  0
   -8.0988    2.0048   -0.7111 C   0  0  0  0  0  0  0  0  0  0  0  0
   -8.4494    1.3501    1.5796 C   0  0  0  0  0  0  0  0  0  0  0  0
    9.1317    0.1588    0.5880 C   0  0  0  0  0  0  0  0  0  0  0  0
   -9.5581    2.4461   -0.7784 C   0  0  0  0  0  0  0  0  0  0  0  0
   -9.9006    1.8058    1.4578 C   0  0  0  0  0  0  0  0  0  0  0  0
   11.4235    0.7641    0.3954 C   0  0  0  0  0  0  0  0  0  0  0  0
    0.0851    0.4804    0.3325 H   0  0  0  0  0  0  0  0  0  0  0  0
    2.2225   -1.6160   -0.2738 H   0  0  0  0  0  0  0  0  0  0  0  0
   -0.2682   -2.5186    0.0666 H   0  0  0  0  0  0  0  0  0  0  0  0
   -1.4497    0.1857   -3.0802 H   0  0  0  0  0  0  0  0  0  0  0  0
   -1.5709    1.0141   -1.5372 H   0  0  0  0  0  0  0  0  0  0  0  0
    0.9277    1.0764   -3.2423 H   0  0  0  0  0  0  0  0  0  0  0  0
    0.6557    1.8508   -1.6899 H   0  0  0  0  0  0  0  0  0  0  0  0
   -2.4077   -0.3501    0.5290 H   0  0  0  0  0  0  0  0  0  0  0  0
    2.4572    1.3926    0.2297 H   0  0  0  0  0  0  0  0  0  0  0  0
   -3.2757   -0.6499   -1.7061 H   0  0  0  0  0  0  0  0  0  0  0  0
   -2.1275   -1.9116   -2.0963 H   0  0  0  0  0  0  0  0  0  0  0  0
    3.0269    1.7105   -2.0969 H   0  0  0  0  0  0  0  0  0  0  0  0
    2.9604   -0.0003   -2.4326 H   0  0  0  0  0  0  0  0  0  0  0  0
    1.6461   -1.7761   -2.4021 H   0  0  0  0  0  0  0  0  0  0  0  0
    0.4009   -1.3737   -3.5770 H   0  0  0  0  0  0  0  0  0  0  0  0
    0.0293   -2.4203   -2.2076 H   0  0  0  0  0  0  0  0  0  0  0  0
   -2.9593   -2.5228    1.5376 H   0  0  0  0  0  0  0  0  0  0  0  0
    1.6750   -0.0515    2.2849 H   0  0  0  0  0  0  0  0  0  0  0  0
    3.2069   -0.8625    1.9413 H   0  0  0  0  0  0  0  0  0  0  0  0
    1.7582   -1.8199    2.0678 H   0  0  0  0  0  0  0  0  0  0  0  0
    4.4892   -0.6804   -0.2714 H   0  0  0  0  0  0  0  0  0  0  0  0
   -0.8300   -0.6497    2.1356 H   0  0  0  0  0  0  0  0  0  0  0  0
   -1.6165   -4.0617    0.1715 H   0  0  0  0  0  0  0  0  0  0  0  0
   -2.5766   -3.7049   -1.2820 H   0  0  0  0  0  0  0  0  0  0  0  0
   -3.3043   -4.4944    0.0882 H   0  0  0  0  0  0  0  0  0  0  0  0
   -4.5878   -1.0881    1.9359 H   0  0  0  0  0  0  0  0  0  0  0  0
   -7.0355   -1.6262    0.3960 H   0  0  0  0  0  0  0  0  0  0  0  0
   -6.8667   -0.9091    2.0067 H   0  0  0  0  0  0  0  0  0  0  0  0
   -5.9400    1.2102    0.9055 H   0  0  0  0  0  0  0  0  0  0  0  0
   -6.1224    0.4176   -0.6497 H   0  0  0  0  0  0  0  0  0  0  0  0
    7.2497    2.7973   -0.4189 H   0  0  0  0  0  0  0  0  0  0  0  0
    6.0191   -1.0875    1.0416 H   0  0  0  0  0  0  0  0  0  0  0  0
    9.5530    2.1781   -0.1550 H   0  0  0  0  0  0  0  0  0  0  0  0
    8.3571   -1.7308    1.2848 H   0  0  0  0  0  0  0  0  0  0  0  0
   -7.4705    2.8588   -0.4263 H   0  0  0  0  0  0  0  0  0  0  0  0
   -7.7864    1.6692   -1.7067 H   0  0  0  0  0  0  0  0  0  0  0  0
   -8.4153    0.5379    2.3117 H   0  0  0  0  0  0  0  0  0  0  0  0
   -7.8412    2.1795    1.9640 H   0  0  0  0  0  0  0  0  0  0  0  0
  -10.2070    1.6435   -1.1499 H   0  0  0  0  0  0  0  0  0  0  0  0
   -9.6592    3.2960   -1.4610 H   0  0  0  0  0  0  0  0  0  0  0  0
  -10.2546    2.1846    2.4220 H   0  0  0  0  0  0  0  0  0  0  0  0
  -10.5609    0.9810    1.1630 H   0  0  0  0  0  0  0  0  0  0  0  0
   11.3835    1.0181   -0.6692 H   0  0  0  0  0  0  0  0  0  0  0  0
   11.3598    1.6499    1.0364 H   0  0  0  0  0  0  0  0  0  0  0  0
   12.4015    0.3070    0.5783 H   0  0  0  0  0  0  0  0  0  0  0  0
  1 12  1  0  0  0  0
  1 59  1  0  0  0  0
  2 23  2  0  0  0  0
  3 24  2  0  0  0  0
  4 35  1  0  0  0  0
  4 36  1  0  0  0  0
  5 34  1  0  0  0  0
  5 37  1  0  0  0  0
  6 16  1  0  0  0  0
  6 24  1  0  0  0  0
  6 58  1  0  0  0  0
  7 23  1  0  0  0  0
  7 26  1  0  0  0  0
  7 63  1  0  0  0  0
  8 27  1  0  0  0  0
  8 32  1  0  0  0  0
  8 33  1  0  0  0  0
  9 10  1  0  0  0  0
  9 13  1  0  0  0  0
  9 14  1  0  0  0  0
  9 19  1  0  0  0  0
 10 11  1  0  0  0  0
 10 12  1  0  0  0  0
 10 38  1  0  0  0  0
 11 16  1  0  0  0  0
 11 21  1  0  0  0  0
 11 39  1  0  0  0  0
 12 15  1  0  0  0  0
 12 40  1  0  0  0  0
 13 17  1  0  0  0  0
 13 41  1  0  0  0  0
 13 42  1  0  0  0  0
 14 18  1  0  0  0  0
 14 43  1  0  0  0  0
 14 44  1  0  0  0  0
 15 17  1  0  0  0  0
 15 20  1  0  0  0  0
 15 45  1  0  0  0  0
 16 18  1  0  0  0  0
 16 46  1  0  0  0  0
 17 47  1  0  0  0  0
 17 48  1  0  0  0  0
 18 49  1  0  0  0  0
 18 50  1  0  0  0  0
 19 51  1  0  0  0  0
 19 52  1  0  0  0  0
 19 53  1  0  0  0  0
 20 22  1  0  0  0  0
 20 23  1  0  0  0  0
 20 54  1  0  0  0  0
 21 55  1  0  0  0  0
 21 56  1  0  0  0  0
 21 57  1  0  0  0  0
 22 60  1  0  0  0  0
 22 61  1  0  0  0  0
 22 62  1  0  0  0  0
 24 25  1  0  0  0  0
 25 28  2  0  0  0  0
 25 29  1  0  0  0  0
 26 27  1  0  0  0  0
 26 64  1  0  0  0  0
 26 65  1  0  0  0  0
 27 66  1  0  0  0  0
 27 67  1  0  0  0  0
 28 30  1  0  0  0  0
 28 68  1  0  0  0  0
 29 31  2  0  0  0  0
 29 69  1  0  0  0  0
 30 34  2  0  0  0  0
 30 70  1  0  0  0  0
 31 34  1  0  0  0  0
 31 71  1  0  0  0  0
 32 35  1  0  0  0  0
 32 72  1  0  0  0  0
 32 73  1  0  0  0  0
 33 36  1  0  0  0  0
 33 74  1  0  0  0  0
 33 75  1  0  0  0  0
 35 76  1  0  0  0  0
 35 77  1  0  0  0  0
 36 78  1  0  0  0  0
 36 79  1  0  0  0  0
 37 80  1  0  0  0  0
 37 81  1  0  0  0  0
 37 82  1  0  0  0  0
M  END
> <PUBCHEM_COMPOUND_CID>
45361373

> <PUBCHEM_CONFORMER_RMSD>
1.2

> <PUBCHEM_CONFORMER_DIVERSEORDER>
1
20
74
92
118
48
85
148
65
134
80
124
35
9
24
41
53
122
110
133
114
17
109
94
131
79
73
135
153
91
33
8
59
144
108
97
120
151
39
52
152
86
104
98
127
129
145
76
154
93
36
101
117
64
42
45
89
116
46
15
119
83
146
88
70
142
50
84
60
140
106
132
139
103
78
62
87
11
2
66
113
105
138
107
55
128
14
95
149
49
54
150
56
21
125
19
3
111
26
43
96
130
34
6
51
18
81
5
126
30
40
7
63
90
75
22
112
136
69
23
137
67
102
147
58
77
57
10
72
115
25
123
31
61
47
82
100
37
71
32
29
16
44
12
121
28
13
27
99
38
68
4
141
143

> <PUBCHEM_MMFF94_PARTIAL_CHARGES>
33
1 -0.68
12 0.28
16 0.3
2 -0.57
20 0.06
23 0.57
24 0.54
25 0.09
26 0.3
27 0.27
28 -0.15
29 -0.15
3 -0.57
30 -0.15
31 -0.15
32 0.27
33 0.27
34 0.08
35 0.28
36 0.28
37 0.28
4 -0.56
5 -0.36
58 0.37
59 0.4
6 -0.73
63 0.37
68 0.15
69 0.15
7 -0.73
70 0.15
71 0.15
8 -0.81

> <PUBCHEM_EFFECTIVE_ROTOR_COUNT>
12.8

> <PUBCHEM_PHARMACOPHORE_FEATURES>
14
1 1 acceptor
1 1 donor
1 2 acceptor
1 22 hydrophobe
1 3 acceptor
1 4 acceptor
1 5 acceptor
1 6 donor
1 7 donor
1 8 cation
6 25 28 29 30 31 34 rings
6 4 8 32 33 35 36 rings
6 9 10 11 14 16 18 rings
6 9 10 12 13 15 17 rings

> <PUBCHEM_HEAVY_ATOM_COUNT>
37

> <PUBCHEM_ATOM_DEF_STEREO_COUNT>
6

> <PUBCHEM_ATOM_UDEF_STEREO_COUNT>
1

> <PUBCHEM_BOND_DEF_STEREO_COUNT>
0

> <PUBCHEM_BOND_UDEF_STEREO_COUNT>
0

> <PUBCHEM_ISOTOPIC_ATOM_COUNT>
0

> <PUBCHEM_COMPONENT_COUNT>
1

> <PUBCHEM_CACTVS_TAUTO_COUNT>
4

> <PUBCHEM_CONFORMER_ID>
02B428DD00000001

> <PUBCHEM_MMFF94_ENERGY>
107.9717

> <PUBCHEM_FEATURE_SELFOVERLAP>
71.062

> <PUBCHEM_SHAPE_FINGERPRINT>
10076449 9 11891334248953964085
10162869 55 12103845666548826080
10190108 129 16515682234480477880
10533779 1 18190458265624438141
10580692 12 18409446994444773970
11181472 205 18342185470870899476
11478447 183 11527950037594863009
11607047 74 9582360921578608971
12013929 2 18202005430895201578
12013929 94 8790884085966603936
12539745 222 13045939098069613063
12539747 363 16732983145494855749
12838862 33 15626503891786210546
13383668 40 18339928104948774678
1361 4 8718286623457115929
13673619 4 12035449458895137719
14040221 310 13614528463804765171
14150023 24 17703791431508293606
14202775 3 8069762801639306072
14671636 106 8790884081961572465
15131766 46 17339553118394439488
15152005 290 18411417316062544723
15392192 29 16950286243358676074
15419008 145 17023187094544291285
15439362 3 18340772538252900591
16992752 21 9511466615659554659
18335252 98 12252178563780202520
19246450 95 18260554441827329819
19315958 150 18410577249359024251
20105231 36 15719106977085335138
20721686 146 18413108338675126949
21267235 1 16733259145147281654
21781055 127 17895207588462264926
21792938 703 11239706509852364293
21792965 68 18201726133097814305
21927370 108 14634864236628840815
22149856 69 18259983804420479644
23569917 315 11531020969345950424
23576562 1 15840973590375804065
3178227 256 16008751324889620730
3552219 110 15430038755824869470
395649 100 12679458707908698125
4149490 64 11170173377733646848
4516262 110 16056882442854844556
54039377 194 9151167654685073449
54728670 133 16298935473971161463
58260988 521 13479132398035090179
6201320 215 18341895174068383697
6204607 403 17899424370739332852
636775 8 9007054669785138825

> <PUBCHEM_SHAPE_MULTIPOLES>
717.15
37.11
2.82
1.75
10.88
0.69
0.77
-30.5
-15.6
-6.46
-0.02
-1.13
0.18
-0.91

> <PUBCHEM_SHAPE_SELFOVERLAP>
1491.695

> <PUBCHEM_SHAPE_VOLUME>
404

> <PUBCHEM_COORDINATE_TYPE>
2
5
10

$$$$
