75536709
  -OEChem-12032416313D

 54 56  0     1  0  0  0  0  0999 V2000
    4.9649   -1.6244   -0.1169 S   0  0  0  0  0  0  0  0  0  0  0  0
    0.6361   -1.6523    1.3421 O   0  0  0  0  0  0  0  0  0  0  0  0
   -0.2725   -1.3092   -2.1165 O   0  0  0  0  0  0  0  0  0  0  0  0
    4.9688   -2.0493   -1.5038 O   0  0  0  0  0  0  0  0  0  0  0  0
    5.8334   -2.2727    0.8469 O   0  0  0  0  0  0  0  0  0  0  0  0
   -8.3773    1.9050    0.0160 O   0  0  0  0  0  0  0  0  0  0  0  0
   -2.5449   -0.5918   -0.0678 N   0  0  0  0  0  0  0  0  0  0  0  0
    3.3698   -1.6447    0.4742 N   0  0  0  0  0  0  0  0  0  0  0  0
   -1.3552   -1.4161    0.0690 C   0  0  1  0  0  0  0  0  0  0  0  0
   -0.1790   -0.9297   -0.7572 C   0  0  1  0  0  0  0  0  0  0  0  0
    0.9803   -1.6217   -0.0530 C   0  0  1  0  0  0  0  0  0  0  0  0
   -0.7711   -1.3838    1.4718 C   0  0  0  0  0  0  0  0  0  0  0  0
    2.3076   -0.9083   -0.2387 C   0  0  0  0  0  0  0  0  0  0  0  0
   -3.7199   -1.2734    0.4621 C   0  0  0  0  0  0  0  0  0  0  0  0
   -4.9596   -0.4274    0.3439 C   0  0  0  0  0  0  0  0  0  0  0  0
    5.3444    0.1015   -0.0747 C   0  0  0  0  0  0  0  0  0  0  0  0
   -5.1692    0.6311    1.2279 C   0  0  0  0  0  0  0  0  0  0  0  0
   -5.8987   -0.7021   -0.6502 C   0  0  0  0  0  0  0  0  0  0  0  0
    5.9131    0.6624    1.0689 C   0  0  0  0  0  0  0  0  0  0  0  0
    5.0726    0.9029   -1.1835 C   0  0  0  0  0  0  0  0  0  0  0  0
   -6.3178    1.4147    1.1179 C   0  0  0  0  0  0  0  0  0  0  0  0
   -7.0474    0.0815   -0.7603 C   0  0  0  0  0  0  0  0  0  0  0  0
   -7.2569    1.1398    0.1238 C   0  0  0  0  0  0  0  0  0  0  0  0
    6.2101    2.0247    1.1035 C   0  0  0  0  0  0  0  0  0  0  0  0
    5.3696    2.2654   -1.1488 C   0  0  0  0  0  0  0  0  0  0  0  0
    5.9385    2.8263   -0.0053 C   0  0  0  0  0  0  0  0  0  0  0  0
    6.2560    4.2830    0.0319 C   0  0  0  0  0  0  0  0  0  0  0  0
   -9.2957    1.5685   -1.0230 C   0  0  0  0  0  0  0  0  0  0  0  0
   -1.5742   -2.4513   -0.2289 H   0  0  0  0  0  0  0  0  0  0  0  0
   -0.0814    0.1617   -0.7009 H   0  0  0  0  0  0  0  0  0  0  0  0
    1.0765   -2.6626   -0.3894 H   0  0  0  0  0  0  0  0  0  0  0  0
   -0.8695   -0.3984    1.9417 H   0  0  0  0  0  0  0  0  0  0  0  0
   -1.2221   -2.1284    2.1347 H   0  0  0  0  0  0  0  0  0  0  0  0
    2.2592    0.1004    0.1864 H   0  0  0  0  0  0  0  0  0  0  0  0
    2.5382   -0.8369   -1.3059 H   0  0  0  0  0  0  0  0  0  0  0  0
   -2.6983   -0.3900   -1.0562 H   0  0  0  0  0  0  0  0  0  0  0  0
   -3.5814   -1.5232    1.5218 H   0  0  0  0  0  0  0  0  0  0  0  0
   -3.8782   -2.2257   -0.0608 H   0  0  0  0  0  0  0  0  0  0  0  0
   -0.3595   -2.2766   -2.1586 H   0  0  0  0  0  0  0  0  0  0  0  0
    3.2237   -1.7724    1.4834 H   0  0  0  0  0  0  0  0  0  0  0  0
   -4.4448    0.8545    2.0067 H   0  0  0  0  0  0  0  0  0  0  0  0
   -5.7464   -1.5224   -1.3468 H   0  0  0  0  0  0  0  0  0  0  0  0
    6.1262    0.0586    1.9463 H   0  0  0  0  0  0  0  0  0  0  0  0
    4.6279    0.4877   -2.0834 H   0  0  0  0  0  0  0  0  0  0  0  0
   -6.4756    2.2380    1.8093 H   0  0  0  0  0  0  0  0  0  0  0  0
   -7.7349   -0.1867   -1.5553 H   0  0  0  0  0  0  0  0  0  0  0  0
    6.6531    2.4502    2.0001 H   0  0  0  0  0  0  0  0  0  0  0  0
    5.1541    2.8794   -2.0193 H   0  0  0  0  0  0  0  0  0  0  0  0
    6.1732    4.6797    1.0495 H   0  0  0  0  0  0  0  0  0  0  0  0
    5.5609    4.8550   -0.5921 H   0  0  0  0  0  0  0  0  0  0  0  0
    7.2747    4.4547   -0.3297 H   0  0  0  0  0  0  0  0  0  0  0  0
  -10.1270    2.2785   -0.9619 H   0  0  0  0  0  0  0  0  0  0  0  0
   -9.7182    0.5684   -0.8783 H   0  0  0  0  0  0  0  0  0  0  0  0
   -8.8444    1.6893   -2.0137 H   0  0  0  0  0  0  0  0  0  0  0  0
  1  4  2  0  0  0  0
  1  5  2  0  0  0  0
  1  8  1  0  0  0  0
  1 16  1  0  0  0  0
  2 11  1  0  0  0  0
  2 12  1  0  0  0  0
  3 10  1  0  0  0  0
  3 39  1  0  0  0  0
  6 23  1  0  0  0  0
  6 28  1  0  0  0  0
  7  9  1  0  0  0  0
  7 14  1  0  0  0  0
  7 36  1  0  0  0  0
  8 13  1  0  0  0  0
  8 40  1  0  0  0  0
  9 10  1  0  0  0  0
  9 12  1  0  0  0  0
  9 29  1  0  0  0  0
 10 11  1  0  0  0  0
 10 30  1  0  0  0  0
 11 13  1  0  0  0  0
 11 31  1  0  0  0  0
 12 32  1  0  0  0  0
 12 33  1  0  0  0  0
 13 34  1  0  0  0  0
 13 35  1  0  0  0  0
 14 15  1  0  0  0  0
 14 37  1  0  0  0  0
 14 38  1  0  0  0  0
 15 17  2  0  0  0  0
 15 18  1  0  0  0  0
 16 19  2  0  0  0  0
 16 20  1  0  0  0  0
 17 21  1  0  0  0  0
 17 41  1  0  0  0  0
 18 22  2  0  0  0  0
 18 42  1  0  0  0  0
 19 24  1  0  0  0  0
 19 43  1  0  0  0  0
 20 25  2  0  0  0  0
 20 44  1  0  0  0  0
 21 23  2  0  0  0  0
 21 45  1  0  0  0  0
 22 23  1  0  0  0  0
 22 46  1  0  0  0  0
 24 26  2  0  0  0  0
 24 47  1  0  0  0  0
 25 26  1  0  0  0  0
 25 48  1  0  0  0  0
 26 27  1  0  0  0  0
 27 49  1  0  0  0  0
 27 50  1  0  0  0  0
 27 51  1  0  0  0  0
 28 52  1  0  0  0  0
 28 53  1  0  0  0  0
 28 54  1  0  0  0  0
M  END
> <PUBCHEM_COMPOUND_CID>
75536709

> <PUBCHEM_CONFORMER_RMSD>
1.2

> <PUBCHEM_CONFORMER_DIVERSEORDER>
1
97
15
35
13
84
33
17
46
100
60
102
25
99
40
34
108
42
112
73
109
12
39
68
83
86
62
14
75
95
18
21
45
77
123
64
71
20
122
132
131
88
103
43
49
78
26
61
113
19
51
32
94
37
2
50
31
129
87
30
5
126
107
93
70
66
38
8
116
134
85
41
36
4
24
56
101
104
65
55
57
3
135
76
53
16
133
125
106
96
118
10
6
91
69
90
67
79
63
115
58
74
81
59
105
7
47
127
128
119
52
98
120
80
121
89
111
110
44
54
48
130
11
28
22
82
23
114
92
124
72
117
27
29
9

> <PUBCHEM_MMFF94_PARTIAL_CHARGES>
39
1 1.45
10 0.28
11 0.28
12 0.28
13 0.36
14 0.41
15 -0.14
16 -0.01
17 -0.15
18 -0.15
19 -0.15
2 -0.56
20 -0.15
21 -0.15
22 -0.15
23 0.08
24 -0.15
25 -0.15
26 -0.14
27 0.14
28 0.28
3 -0.68
36 0.36
39 0.4
4 -0.65
40 0.42
41 0.15
42 0.15
43 0.15
44 0.15
45 0.15
46 0.15
47 0.15
48 0.15
5 -0.65
6 -0.36
7 -0.9
8 -0.91
9 0.27

> <PUBCHEM_EFFECTIVE_ROTOR_COUNT>
9

> <PUBCHEM_PHARMACOPHORE_FEATURES>
12
1 2 acceptor
1 3 acceptor
1 3 donor
1 4 acceptor
1 5 acceptor
1 6 acceptor
1 7 cation
1 7 donor
1 8 donor
5 2 9 10 11 12 rings
6 15 17 18 21 22 23 rings
6 16 19 20 24 25 26 rings

> <PUBCHEM_HEAVY_ATOM_COUNT>
28

> <PUBCHEM_ATOM_DEF_STEREO_COUNT>
3

> <PUBCHEM_ATOM_UDEF_STEREO_COUNT>
0

> <PUBCHEM_BOND_DEF_STEREO_COUNT>
0

> <PUBCHEM_BOND_UDEF_STEREO_COUNT>
0

> <PUBCHEM_ISOTOPIC_ATOM_COUNT>
0

> <PUBCHEM_COMPONENT_COUNT>
1

> <PUBCHEM_CACTVS_TAUTO_COUNT>
1

> <PUBCHEM_CONFORMER_ID>
0480994500000001

> <PUBCHEM_MMFF94_ENERGY>
62.4193

> <PUBCHEM_FEATURE_SELFOVERLAP>
60.916

> <PUBCHEM_SHAPE_FINGERPRINT>
10 15 16298109791386894415
10280341 67 17700405069540843440
10299344 5 8142078776218329483
10554248 39 17846215510127657694
10673678 19 18272656774655950086
11135609 127 18343014515343328674
11211813 74 18408881811767735197
11386260 185 18130236982450481164
11408170 132 14548471159207717899
11408170 253 17916594112073658529
117089 54 7852207941930972064
11991303 11 16199862964489257005
125118 31 18407761425986756441
12522641 24 17968088660849020562
12539765 74 18130512951052804263
12664476 115 18260266326893950652
13617811 41 15554728871740632482
13668630 136 12175614071801338911
13782708 43 9223237325353515883
13944108 23 18262524809994195036
14251757 52 18410571782128809553
14251764 18 11314319343264745699
14347332 77 10303548181705876690
14347424 109 18334573530185550858
14565420 104 18113333111521949906
15131766 46 18127402574375655620
15183329 4 17489592263843467217
15475509 35 11169910624033244796
155225 6 18046070621406899300
15840311 113 18335422344292723887
16994733 274 18339355370209779585
17134984 74 11959732659984540908
17686467 74 18113619011427440725
20157964 124 18413392034065793002
2026 5 10447661183844222405
20281389 69 18187645774027823151
20771845 171 17489310737227487711
21033648 29 17530969115458486635
21130935 74 18113338621933705907
21298829 104 18337955713747109964
21344244 181 11312055452269427021
21521239 73 12247680469583357222
21585482 111 18335986479942949196
21641784 216 16128106567533007330
21792934 111 17530958047464642095
23576562 1 17130974529664231469
24771293 8 17895192272218367550
249057 25 17631743659912599058
27425 322 18413389860707366518
2748736 6 18409728503738758656
328310 630 18202292398639127705
33532 11 9367344838718381033
3504750 166 7853582297110409619
3534868 343 17416700050781992562
3711267 37 18200319819377684137
3918712 181 18339920514887240872
397638 26 16660362580624021113
397830 11 18115318889635359723
4073 2 18335703866873634859
44555599 121 18271813380322771289
465052 167 7925644293394454706
4760202 170 18336535054830683357
5104073 3 17822571724381048186
60111433 81 17985259931693850552
6328613 192 18342459248933471217
6898599 12 18057887037729797214
9831232 110 9943543890048242168

> <PUBCHEM_SHAPE_MULTIPOLES>
540.77
27.38
3.3
1.35
36.11
2.7
0.14
22.31
1.67
-6.96
-0.02
-0.2
-0.16
0.16

> <PUBCHEM_SHAPE_SELFOVERLAP>
1123.417

> <PUBCHEM_SHAPE_VOLUME>
309.8

> <PUBCHEM_COORDINATE_TYPE>
2
5
10

$$$$
