40780375
  -OEChem-12032416353D

 61 64  0     1  0  0  0  0  0999 V2000
   -3.4414    0.7862    0.2481 N   0  0  0  0  0  0  0  0  0  0  0  0
    3.1189   -0.9109    0.2283 N   0  0  0  0  0  0  0  0  0  0  0  0
    2.8568   -2.1123    0.7706 N   0  0  0  0  0  0  0  0  0  0  0  0
   -8.8736   -2.3423   -1.0919 N   0  0  0  0  0  0  0  0  0  0  0  0
   -0.5310   -0.7385   -0.0330 C   0  0  2  0  0  0  0  0  0  0  0  0
   -1.0134    0.5235    0.7078 C   0  0  0  0  0  0  0  0  0  0  0  0
   -2.0976    1.1547   -0.1818 C   0  0  1  0  0  0  0  0  0  0  0  0
    0.9383   -1.0263    0.1724 C   0  0  0  0  0  0  0  0  0  0  0  0
   -0.9198   -0.4416   -1.4517 C   0  0  0  0  0  0  0  0  0  0  0  0
   -1.7770    0.5820   -1.5271 C   0  0  0  0  0  0  0  0  0  0  0  0
    2.0039   -0.2204   -0.1466 C   0  0  0  0  0  0  0  0  0  0  0  0
    1.5232   -2.1771    0.7339 C   0  0  0  0  0  0  0  0  0  0  0  0
   -4.4445    1.6274   -0.3920 C   0  0  0  0  0  0  0  0  0  0  0  0
    2.0499    1.1212   -0.7629 C   0  0  0  0  0  0  0  0  0  0  0  0
    0.8416   -3.3752    1.2549 C   0  0  0  0  0  0  0  0  0  0  0  0
    4.4409   -0.4844    0.0968 C   0  0  0  0  0  0  0  0  0  0  0  0
   -5.8410    1.2537    0.0288 C   0  0  0  0  0  0  0  0  0  0  0  0
    5.3409   -1.2256   -0.6689 C   0  0  0  0  0  0  0  0  0  0  0  0
    4.8632    0.6818    0.7350 C   0  0  0  0  0  0  0  0  0  0  0  0
    7.0855    0.3658   -0.1584 C   0  0  0  0  0  0  0  0  0  0  0  0
    8.4997    0.8194   -0.2945 C   0  0  0  0  0  0  0  0  0  0  0  0
    6.6631   -0.8004   -0.7965 C   0  0  0  0  0  0  0  0  0  0  0  0
    6.1855    1.1068    0.6076 C   0  0  0  0  0  0  0  0  0  0  0  0
   -6.4485    0.1148   -0.4998 C   0  0  0  0  0  0  0  0  0  0  0  0
   -6.5261    2.0457    0.9502 C   0  0  0  0  0  0  0  0  0  0  0  0
    9.2410    0.8493    1.0555 C   0  0  0  0  0  0  0  0  0  0  0  0
    8.6141    2.1922   -0.9840 C   0  0  0  0  0  0  0  0  0  0  0  0
   -7.7412   -0.2320   -0.1071 C   0  0  0  0  0  0  0  0  0  0  0  0
   -7.8189    1.6990    1.3427 C   0  0  0  0  0  0  0  0  0  0  0  0
   -8.4265    0.5602    0.8142 C   0  0  0  0  0  0  0  0  0  0  0  0
   -8.3661   -1.3965   -0.6505 C   0  0  0  0  0  0  0  0  0  0  0  0
   -1.1197   -1.6029    0.3005 H   0  0  0  0  0  0  0  0  0  0  0  0
   -0.2068    1.2517    0.8603 H   0  0  0  0  0  0  0  0  0  0  0  0
   -1.3748    0.2747    1.7136 H   0  0  0  0  0  0  0  0  0  0  0  0
   -1.9626    2.2431   -0.1716 H   0  0  0  0  0  0  0  0  0  0  0  0
   -0.5823   -1.0111   -2.3064 H   0  0  0  0  0  0  0  0  0  0  0  0
   -2.2011    0.9409   -2.4545 H   0  0  0  0  0  0  0  0  0  0  0  0
   -3.5136    0.8967    1.2598 H   0  0  0  0  0  0  0  0  0  0  0  0
   -4.3930    1.5461   -1.4852 H   0  0  0  0  0  0  0  0  0  0  0  0
   -4.2642    2.6840   -0.1542 H   0  0  0  0  0  0  0  0  0  0  0  0
    1.1388    1.3548   -1.3178 H   0  0  0  0  0  0  0  0  0  0  0  0
    2.8732    1.2102   -1.4795 H   0  0  0  0  0  0  0  0  0  0  0  0
    2.1719    1.8935    0.0033 H   0  0  0  0  0  0  0  0  0  0  0  0
    0.2605   -3.8606    0.4642 H   0  0  0  0  0  0  0  0  0  0  0  0
    1.5518   -4.1112    1.6466 H   0  0  0  0  0  0  0  0  0  0  0  0
    0.1588   -3.1061    2.0674 H   0  0  0  0  0  0  0  0  0  0  0  0
    5.0277   -2.1350   -1.1762 H   0  0  0  0  0  0  0  0  0  0  0  0
    4.1825    1.2656    1.3496 H   0  0  0  0  0  0  0  0  0  0  0  0
    9.0412    0.1060   -0.9307 H   0  0  0  0  0  0  0  0  0  0  0  0
    7.3510   -1.3892   -1.3974 H   0  0  0  0  0  0  0  0  0  0  0  0
    6.4938    2.0161    1.1160 H   0  0  0  0  0  0  0  0  0  0  0  0
   -5.9113   -0.5007   -1.2188 H   0  0  0  0  0  0  0  0  0  0  0  0
   -6.0643    2.9343    1.3724 H   0  0  0  0  0  0  0  0  0  0  0  0
    8.8194    1.5950    1.7380 H   0  0  0  0  0  0  0  0  0  0  0  0
   10.2985    1.0935    0.9071 H   0  0  0  0  0  0  0  0  0  0  0  0
    9.1876   -0.1269    1.5503 H   0  0  0  0  0  0  0  0  0  0  0  0
    8.1669    2.9911   -0.3827 H   0  0  0  0  0  0  0  0  0  0  0  0
    8.1101    2.1821   -1.9568 H   0  0  0  0  0  0  0  0  0  0  0  0
    9.6652    2.4505   -1.1526 H   0  0  0  0  0  0  0  0  0  0  0  0
   -8.3521    2.3155    2.0604 H   0  0  0  0  0  0  0  0  0  0  0  0
   -9.4349    0.3033    1.1299 H   0  0  0  0  0  0  0  0  0  0  0  0
  1  7  1  0  0  0  0
  1 13  1  0  0  0  0
  1 38  1  0  0  0  0
  2  3  1  0  0  0  0
  2 11  1  0  0  0  0
  2 16  1  0  0  0  0
  3 12  2  0  0  0  0
  4 31  3  0  0  0  0
  5  6  1  0  0  0  0
  5  8  1  0  0  0  0
  5  9  1  0  0  0  0
  5 32  1  0  0  0  0
  6  7  1  0  0  0  0
  6 33  1  0  0  0  0
  6 34  1  0  0  0  0
  7 10  1  0  0  0  0
  7 35  1  0  0  0  0
  8 11  2  0  0  0  0
  8 12  1  0  0  0  0
  9 10  2  0  0  0  0
  9 36  1  0  0  0  0
 10 37  1  0  0  0  0
 11 14  1  0  0  0  0
 12 15  1  0  0  0  0
 13 17  1  0  0  0  0
 13 39  1  0  0  0  0
 13 40  1  0  0  0  0
 14 41  1  0  0  0  0
 14 42  1  0  0  0  0
 14 43  1  0  0  0  0
 15 44  1  0  0  0  0
 15 45  1  0  0  0  0
 15 46  1  0  0  0  0
 16 18  2  0  0  0  0
 16 19  1  0  0  0  0
 17 24  1  0  0  0  0
 17 25  2  0  0  0  0
 18 22  1  0  0  0  0
 18 47  1  0  0  0  0
 19 23  2  0  0  0  0
 19 48  1  0  0  0  0
 20 21  1  0  0  0  0
 20 22  2  0  0  0  0
 20 23  1  0  0  0  0
 21 26  1  0  0  0  0
 21 27  1  0  0  0  0
 21 49  1  0  0  0  0
 22 50  1  0  0  0  0
 23 51  1  0  0  0  0
 24 28  2  0  0  0  0
 24 52  1  0  0  0  0
 25 29  1  0  0  0  0
 25 53  1  0  0  0  0
 26 54  1  0  0  0  0
 26 55  1  0  0  0  0
 26 56  1  0  0  0  0
 27 57  1  0  0  0  0
 27 58  1  0  0  0  0
 27 59  1  0  0  0  0
 28 30  1  0  0  0  0
 28 31  1  0  0  0  0
 29 30  2  0  0  0  0
 29 60  1  0  0  0  0
 30 61  1  0  0  0  0
M  END
> <PUBCHEM_COMPOUND_CID>
40780375

> <PUBCHEM_CONFORMER_RMSD>
1

> <PUBCHEM_CONFORMER_DIVERSEORDER>
1
76
16
31
30
12
48
49
46
92
43
88
47
63
18
21
79
98
81
130
102
115
23
132
36
55
28
34
109
17
67
121
129
136
100
83
60
80
40
125
101
5
54
104
37
95
119
13
45
69
70
14
90
120
65
68
24
64
58
137
74
51
103
122
93
20
73
133
10
127
41
82
33
113
25
71
106
39
118
8
53
111
110
128
35
15
52
134
117
85
59
42
11
116
96
29
97
89
77
2
126
66
44
27
124
86
38
99
112
56
123
4
50
84
87
114
26
7
32
107
3
62
94
91
105
75
108
22
57
131
138
72
135
6
61
19
78
9

> <PUBCHEM_MMFF94_PARTIAL_CHARGES>
39
1 -0.9
10 -0.29
11 -0.33
12 0.11
13 0.41
14 0.18
15 0.18
16 -0.02
17 -0.14
18 -0.15
19 -0.15
2 0.59
20 -0.14
21 0.14
22 -0.15
23 -0.15
24 -0.15
25 -0.15
28 0.07
29 -0.15
3 -0.71
30 -0.15
31 0.48
36 0.15
37 0.15
38 0.36
4 -0.56
47 0.15
48 0.15
5 0.32
50 0.15
51 0.15
52 0.15
53 0.15
60 0.15
61 0.15
7 0.41
8 -0.18
9 -0.29

> <PUBCHEM_EFFECTIVE_ROTOR_COUNT>
6.6

> <PUBCHEM_PHARMACOPHORE_FEATURES>
9
1 1 cation
1 1 donor
1 3 acceptor
1 4 acceptor
3 21 26 27 hydrophobe
5 2 3 8 11 12 rings
5 5 6 7 9 10 rings
6 16 18 19 20 22 23 rings
6 17 24 25 28 29 30 rings

> <PUBCHEM_HEAVY_ATOM_COUNT>
31

> <PUBCHEM_ATOM_DEF_STEREO_COUNT>
2

> <PUBCHEM_ATOM_UDEF_STEREO_COUNT>
0

> <PUBCHEM_BOND_DEF_STEREO_COUNT>
0

> <PUBCHEM_BOND_UDEF_STEREO_COUNT>
0

> <PUBCHEM_ISOTOPIC_ATOM_COUNT>
0

> <PUBCHEM_COMPONENT_COUNT>
1

> <PUBCHEM_CACTVS_TAUTO_COUNT>
1

> <PUBCHEM_CONFORMER_ID>
026E425700000001

> <PUBCHEM_MMFF94_ENERGY>
80.5801

> <PUBCHEM_FEATURE_SELFOVERLAP>
45.671

> <PUBCHEM_SHAPE_FINGERPRINT>
10 15 17530967986541515904
10076449 9 17418094343083970371
10162869 55 17748825254359195487
10165383 225 18333450941967505872
10209105 3 10447387397191020860
10299344 5 18272088284484516259
106641 1 17240485814575752036
10670039 82 14836128715534187139
10674148 151 12031785860017483590
10883706 142 18412539908797077218
11315181 36 18342457020658113561
11724838 91 18260266351888203148
12013929 94 18060137687325586383
12120059 9 15430034357836224619
12522641 126 18191023611446631829
12539747 91 15430029972426741087
12758862 56 11311764068976607622
13914758 101 8502653718911066543
14040222 383 18337950189907341403
14216079 64 9655579604680279008
14394314 77 18337393739468527217
14671636 106 18271804670857276863
14849402 71 18410014355303669580
14856354 85 16630235971093324549
15064981 194 18058458771423783008
15183329 4 11311770653768230517
15188451 53 11386368136835478476
15347591 1 18047186358950815273
15461852 350 18131637802665054221
15728490 51 18411417332936647391
15840311 113 17603590747158113740
16126227 98 18409167723033718678
16992610 120 18335996333092798518
17686467 74 18412824716426109041
18335252 98 18131633391364805134
18365409 1 18336269058193485718
18603816 31 12035740855062186513
18608769 82 18407759248316738792
20105231 36 15985104119789738639
20505436 4 18201994409176229454
21033648 29 18337382851467605640
21095123 145 17132112472896372765
21792961 116 13326581726522582724
21795232 338 17417520436875088919
22224240 67 17967816037540845674
24771293 8 18260832579361055557
3146122 72 15482091900585969496
335507 130 17917427666202985085
3552219 110 17917720071750996097
395649 100 18187365484795084571
4258327 124 18041857215386207060
439807 62 11887679468725941020
5381727 24 18335697235686346130
54076057 127 18341898433431823802
5470011 282 14548735136809911136
5758199 1 18408324367281496187
59682541 35 17822300084604891393
6081469 158 11530481134135297478
6204607 403 18341062864524439528
6394761 36 11887953250635223169
6703917 75 17203615874007908015
67123 10 18272089404817093245
9663363 56 17022904546126189437
9689198 14 17918275333438026413

> <PUBCHEM_SHAPE_MULTIPOLES>
618.04
31.93
2.4
1.19
11.11
1.38
-0.06
-10.17
0.53
0.75
0.5
0.38
0.03
-2.15

> <PUBCHEM_SHAPE_SELFOVERLAP>
1331.943

> <PUBCHEM_SHAPE_VOLUME>
342.1

> <PUBCHEM_COORDINATE_TYPE>
2
5
10

$$$$
