26763569
  -OEChem-12032416133D

 41 44  0     1  0  0  0  0  0999 V2000
   -7.3552   -1.1471   -0.4076 Br  0  0  0  0  0  0  0  0  0  0  0  0
    0.1582    2.1682    0.5865 O   0  0  0  0  0  0  0  0  0  0  0  0
   -2.3029   -2.5104    0.5488 O   0  0  0  0  0  0  0  0  0  0  0  0
    3.3094    1.5278   -1.8755 O   0  0  0  0  0  0  0  0  0  0  0  0
   -0.8457   -0.8734   -0.1906 N   0  0  0  0  0  0  0  0  0  0  0  0
    1.8307    0.0875   -0.7799 N   0  0  0  0  0  0  0  0  0  0  0  0
   -2.0556    1.6607    0.7403 N   0  0  0  0  0  0  0  0  0  0  0  0
    6.0721   -1.3574    0.0088 N   0  0  0  0  0  0  0  0  0  0  0  0
   -0.6522    0.4086   -0.8539 C   0  0  2  0  0  0  0  0  0  0  0  0
    0.6859    0.4936   -1.5981 C   0  0  0  0  0  0  0  0  0  0  0  0
    0.3229   -1.7451   -0.0601 C   0  0  0  0  0  0  0  0  0  0  0  0
    1.5887   -0.9514    0.2280 C   0  0  0  0  0  0  0  0  0  0  0  0
   -0.7892    1.4632    0.2327 C   0  0  0  0  0  0  0  0  0  0  0  0
   -2.1011   -1.3574    0.1641 C   0  0  0  0  0  0  0  0  0  0  0  0
   -3.2686   -0.4372    0.1116 C   0  0  0  0  0  0  0  0  0  0  0  0
    3.0826    0.6569   -1.0368 C   0  0  0  0  0  0  0  0  0  0  0  0
   -3.2259    0.9174    0.4799 C   0  0  0  0  0  0  0  0  0  0  0  0
   -4.5119   -1.0395   -0.1566 C   0  0  0  0  0  0  0  0  0  0  0  0
    4.2315    0.1894   -0.2449 C   0  0  0  0  0  0  0  0  0  0  0  0
   -4.4349    1.6174    0.6392 C   0  0  0  0  0  0  0  0  0  0  0  0
   -5.6982   -0.3161   -0.0406 C   0  0  0  0  0  0  0  0  0  0  0  0
   -5.6607    1.0094    0.3712 C   0  0  0  0  0  0  0  0  0  0  0  0
    4.5744    0.8054    0.9537 C   0  0  0  0  0  0  0  0  0  0  0  0
    5.0055   -0.8784   -0.6698 C   0  0  0  0  0  0  0  0  0  0  0  0
    5.6652    0.3412    1.6803 C   0  0  0  0  0  0  0  0  0  0  0  0
    6.3749   -0.7334    1.1693 C   0  0  0  0  0  0  0  0  0  0  0  0
   -1.4538    0.5643   -1.5866 H   0  0  0  0  0  0  0  0  0  0  0  0
    0.6727   -0.1843   -2.4609 H   0  0  0  0  0  0  0  0  0  0  0  0
    0.8481    1.5050   -1.9879 H   0  0  0  0  0  0  0  0  0  0  0  0
    0.4179   -2.2959   -1.0039 H   0  0  0  0  0  0  0  0  0  0  0  0
    0.1520   -2.4815    0.7325 H   0  0  0  0  0  0  0  0  0  0  0  0
    1.5087   -0.4413    1.1953 H   0  0  0  0  0  0  0  0  0  0  0  0
    2.4425   -1.6322    0.2816 H   0  0  0  0  0  0  0  0  0  0  0  0
   -2.1775    2.5053    1.2940 H   0  0  0  0  0  0  0  0  0  0  0  0
   -4.5581   -2.0889   -0.4432 H   0  0  0  0  0  0  0  0  0  0  0  0
   -4.4309    2.6610    0.9484 H   0  0  0  0  0  0  0  0  0  0  0  0
   -6.5738    1.5876    0.4853 H   0  0  0  0  0  0  0  0  0  0  0  0
    3.9976    1.6462    1.3296 H   0  0  0  0  0  0  0  0  0  0  0  0
    4.7865   -1.3994   -1.5969 H   0  0  0  0  0  0  0  0  0  0  0  0
    5.9505    0.8057    2.6172 H   0  0  0  0  0  0  0  0  0  0  0  0
    7.2339   -1.1334    1.6979 H   0  0  0  0  0  0  0  0  0  0  0  0
  1 21  1  0  0  0  0
  2 13  2  0  0  0  0
  3 14  2  0  0  0  0
  4 16  2  0  0  0  0
  5  9  1  0  0  0  0
  5 11  1  0  0  0  0
  5 14  1  0  0  0  0
  6 10  1  0  0  0  0
  6 12  1  0  0  0  0
  6 16  1  0  0  0  0
  7 13  1  0  0  0  0
  7 17  1  0  0  0  0
  7 34  1  0  0  0  0
  8 24  1  0  0  0  0
  8 26  2  0  0  0  0
  9 10  1  0  0  0  0
  9 13  1  0  0  0  0
  9 27  1  0  0  0  0
 10 28  1  0  0  0  0
 10 29  1  0  0  0  0
 11 12  1  0  0  0  0
 11 30  1  0  0  0  0
 11 31  1  0  0  0  0
 12 32  1  0  0  0  0
 12 33  1  0  0  0  0
 14 15  1  0  0  0  0
 15 17  2  0  0  0  0
 15 18  1  0  0  0  0
 16 19  1  0  0  0  0
 17 20  1  0  0  0  0
 18 21  2  0  0  0  0
 18 35  1  0  0  0  0
 19 23  1  0  0  0  0
 19 24  2  0  0  0  0
 20 22  2  0  0  0  0
 20 36  1  0  0  0  0
 21 22  1  0  0  0  0
 22 37  1  0  0  0  0
 23 25  2  0  0  0  0
 23 38  1  0  0  0  0
 24 39  1  0  0  0  0
 25 26  1  0  0  0  0
 25 40  1  0  0  0  0
 26 41  1  0  0  0  0
M  END
> <PUBCHEM_COMPOUND_CID>
26763569

> <PUBCHEM_CONFORMER_RMSD>
0.6

> <PUBCHEM_CONFORMER_DIVERSEORDER>
1
6
4
11
15
5
9
7
12
10
16
3
8
14
2
13

> <PUBCHEM_MMFF94_PARTIAL_CHARGES>
34
1 -0.11
10 0.3
11 0.3
12 0.3
13 0.57
14 0.54
15 0.09
16 0.54
17 0.12
18 -0.15
19 0.09
2 -0.57
20 -0.15
21 0.11
22 -0.15
23 -0.15
24 0.16
25 -0.15
26 0.16
3 -0.57
34 0.37
35 0.15
36 0.15
37 0.15
38 0.15
39 0.15
4 -0.57
40 0.15
41 0.15
5 -0.66
6 -0.66
7 -0.55
8 -0.62
9 0.36

> <PUBCHEM_EFFECTIVE_ROTOR_COUNT>
3

> <PUBCHEM_PHARMACOPHORE_FEATURES>
10
1 1 hydrophobe
1 2 acceptor
1 3 acceptor
1 4 acceptor
1 7 donor
1 8 acceptor
6 15 17 18 20 21 22 rings
6 5 6 9 10 11 12 rings
6 8 19 23 24 25 26 rings
7 5 7 9 13 14 15 17 rings

> <PUBCHEM_HEAVY_ATOM_COUNT>
26

> <PUBCHEM_ATOM_DEF_STEREO_COUNT>
1

> <PUBCHEM_ATOM_UDEF_STEREO_COUNT>
0

> <PUBCHEM_BOND_DEF_STEREO_COUNT>
0

> <PUBCHEM_BOND_UDEF_STEREO_COUNT>
0

> <PUBCHEM_ISOTOPIC_ATOM_COUNT>
0

> <PUBCHEM_COMPONENT_COUNT>
1

> <PUBCHEM_CACTVS_TAUTO_COUNT>
9

> <PUBCHEM_CONFORMER_ID>
0198613100000001

> <PUBCHEM_MMFF94_ENERGY>
93.7882

> <PUBCHEM_FEATURE_SELFOVERLAP>
50.775

> <PUBCHEM_SHAPE_FINGERPRINT>
10 15 17774992515104846384
11045977 3 18201717362431541888
11646440 116 18202012044569753665
12166972 35 18187086169379620396
12236239 1 18113902666849650404
12516196 113 18060137643816315225
12616971 3 17967255316358823117
13533116 47 18271810060693196902
13782708 43 14635452531917829793
13862211 1 18411702097493932983
13914758 101 17385998443560454093
14251764 18 18260268564418839742
14617045 38 8214147364787135273
14840074 17 17168145624437486354
15131766 46 16445898585281675175
15183329 4 12251895975911102540
15188451 53 18335413561205903040
1577012 14 18261403260165919485
15788980 27 17022903458254180453
17349148 13 18187654595621565556
1813 80 16878230771187463174
18222031 100 17676209057275637348
19489759 90 18342739607028774217
20028762 73 18408041810221693750
20511986 3 18334845122194574071
21130935 74 17846502500016715487
21267235 1 18340775909822384775
21315764 268 18341887511235018768
22224240 67 16128654163484539111
23402539 116 18201716254118924511
23559900 14 18200333047438215958
23569917 315 18334582347612323291
23569943 247 17973725766723342322
3004659 81 18260556632165250636
335352 9 18259989288149315614
3383291 50 18336549408479517803
345986 75 17531790369631296856
34797466 226 16200157624599022077
3633792 109 18113889422009500711
3680242 22 18410581669080455536
392239 28 18131074826594033897
404807 14 16976194830055086158
4325135 7 10952052255970792538
4340502 62 15482673476757517908
465052 167 16877668946362284274
5104073 3 18041850630515442624
54039377 194 16806438108471781162
59755656 215 18340212890928421734
7226269 152 18411982442567658473
9981440 41 18410582760461422555

> <PUBCHEM_SHAPE_MULTIPOLES>
503.48
16.76
1.91
1.21
0.29
0.03
-0.22
3.38
3.23
1.11
0.25
-1.6
-0.3
-0.61

> <PUBCHEM_SHAPE_SELFOVERLAP>
1092.271

> <PUBCHEM_SHAPE_VOLUME>
278

> <PUBCHEM_COORDINATE_TYPE>
2
5
10

$$$$
