11882989
  -OEChem-12032416333D

 82 85  0     1  0  0  0  0  0999 V2000
   -0.3142    2.5068    0.1538 S   0  0  0  0  0  0  0  0  0  0  0  0
   -8.0127    1.2883   -0.7810 O   0  0  0  0  0  0  0  0  0  0  0  0
   -7.4272    3.0611    0.7219 O   0  0  0  0  0  0  0  0  0  0  0  0
   -0.9618   -2.5324   -1.3475 O   0  0  0  0  0  0  0  0  0  0  0  0
    2.5394   -1.1633   -0.0923 O   0  0  0  0  0  0  0  0  0  0  0  0
   -0.2089   -0.0716   -0.0289 N   0  0  0  0  0  0  0  0  0  0  0  0
   -0.9356   -4.1125    0.3503 N   0  0  0  0  0  0  0  0  0  0  0  0
    1.8961    1.0985    0.0676 N   0  0  0  0  0  0  0  0  0  0  0  0
   -4.0459   -0.1253    0.3480 C   0  0  2  0  0  0  0  0  0  0  0  0
   -4.2142    1.2901   -0.3617 C   0  0  1  0  0  0  0  0  0  0  0  0
   -5.6675    1.9017   -0.4035 C   0  0  1  0  0  0  0  0  0  0  0  0
   -2.6406   -0.7386   -0.1020 C   0  0  1  0  0  0  0  0  0  0  0  0
   -5.1711   -1.0792   -0.1306 C   0  0  0  0  0  0  0  0  0  0  0  0
   -6.6721    0.8046   -0.8566 C   0  0  1  0  0  0  0  0  0  0  0  0
   -3.1240    2.2960    0.1101 C   0  0  0  0  0  0  0  0  0  0  0  0
   -6.5674   -0.4796   -0.0415 C   0  0  0  0  0  0  0  0  0  0  0  0
   -4.0963   -0.0331    1.8931 C   0  0  0  0  0  0  0  0  0  0  0  0
   -1.5432    0.2895   -0.0004 C   0  0  0  0  0  0  0  0  0  0  0  0
   -6.1257    2.5558    0.9187 C   0  0  0  0  0  0  0  0  0  0  0  0
   -5.7101    3.0352   -1.4672 C   0  0  0  0  0  0  0  0  0  0  0  0
   -1.7819    1.6466    0.0754 C   0  0  0  0  0  0  0  0  0  0  0  0
   -2.2564   -2.0427    0.6098 C   0  0  0  0  0  0  0  0  0  0  0  0
   -1.3298   -2.9019   -0.2292 C   0  0  0  0  0  0  0  0  0  0  0  0
    0.5291    1.0140    0.0537 C   0  0  0  0  0  0  0  0  0  0  0  0
   -0.0449   -5.0517   -0.3273 C   0  0  0  0  0  0  0  0  0  0  0  0
   -1.3837   -4.5280    1.6738 C   0  0  0  0  0  0  0  0  0  0  0  0
    2.8049    0.0305   -0.0045 C   0  0  0  0  0  0  0  0  0  0  0  0
    1.3680   -4.7248    0.0254 C   0  0  0  0  0  0  0  0  0  0  0  0
    4.2413    0.4155   -0.0003 C   0  0  0  0  0  0  0  0  0  0  0  0
    2.3084   -4.4146   -0.8742 C   0  0  0  0  0  0  0  0  0  0  0  0
    5.1864   -0.4108   -0.6083 C   0  0  0  0  0  0  0  0  0  0  0  0
    4.6436    1.6027    0.6117 C   0  0  0  0  0  0  0  0  0  0  0  0
    6.9360    1.1371    0.0078 C   0  0  0  0  0  0  0  0  0  0  0  0
    6.5337   -0.0501   -0.6043 C   0  0  0  0  0  0  0  0  0  0  0  0
    5.9909    1.9634    0.6157 C   0  0  0  0  0  0  0  0  0  0  0  0
    8.3763    1.5228    0.0106 C   0  0  0  0  0  0  0  0  0  0  0  0
    8.9233    1.6787   -1.4423 C   0  0  0  0  0  0  0  0  0  0  0  0
    9.2492    0.4470    0.7286 C   0  0  0  0  0  0  0  0  0  0  0  0
    8.7085    2.8738    0.7274 C   0  0  0  0  0  0  0  0  0  0  0  0
   -3.9810    1.0843   -1.4209 H   0  0  0  0  0  0  0  0  0  0  0  0
   -2.7411   -0.9431   -1.1785 H   0  0  0  0  0  0  0  0  0  0  0  0
   -4.9896   -1.3671   -1.1746 H   0  0  0  0  0  0  0  0  0  0  0  0
   -5.1667   -2.0098    0.4480 H   0  0  0  0  0  0  0  0  0  0  0  0
   -6.4838    0.5631   -1.9112 H   0  0  0  0  0  0  0  0  0  0  0  0
   -3.1150    3.1753   -0.5427 H   0  0  0  0  0  0  0  0  0  0  0  0
   -3.3263    2.6436    1.1287 H   0  0  0  0  0  0  0  0  0  0  0  0
   -7.2957   -1.2084   -0.4200 H   0  0  0  0  0  0  0  0  0  0  0  0
   -6.8599   -0.3035    0.9996 H   0  0  0  0  0  0  0  0  0  0  0  0
   -3.9488   -1.0162    2.3538 H   0  0  0  0  0  0  0  0  0  0  0  0
   -5.0571    0.3139    2.2677 H   0  0  0  0  0  0  0  0  0  0  0  0
   -3.3235    0.6247    2.3002 H   0  0  0  0  0  0  0  0  0  0  0  0
   -6.1770    1.8530    1.7463 H   0  0  0  0  0  0  0  0  0  0  0  0
   -5.4757    3.3870    1.2084 H   0  0  0  0  0  0  0  0  0  0  0  0
   -6.7297    3.3844   -1.6651 H   0  0  0  0  0  0  0  0  0  0  0  0
   -5.1271    3.9083   -1.1560 H   0  0  0  0  0  0  0  0  0  0  0  0
   -5.3043    2.6896   -2.4250 H   0  0  0  0  0  0  0  0  0  0  0  0
   -1.7682   -1.8154    1.5649 H   0  0  0  0  0  0  0  0  0  0  0  0
   -3.1500   -2.6453    0.7941 H   0  0  0  0  0  0  0  0  0  0  0  0
   -8.5981    0.5881   -1.1164 H   0  0  0  0  0  0  0  0  0  0  0  0
   -7.7046    3.4796    1.5545 H   0  0  0  0  0  0  0  0  0  0  0  0
    2.2426    2.0524    0.0954 H   0  0  0  0  0  0  0  0  0  0  0  0
   -0.2923   -6.0756   -0.0277 H   0  0  0  0  0  0  0  0  0  0  0  0
   -0.2093   -4.9707   -1.4079 H   0  0  0  0  0  0  0  0  0  0  0  0
   -0.5069   -4.7161    2.3010 H   0  0  0  0  0  0  0  0  0  0  0  0
   -2.0174   -3.8133    2.1954 H   0  0  0  0  0  0  0  0  0  0  0  0
   -1.9480   -5.4601    1.5667 H   0  0  0  0  0  0  0  0  0  0  0  0
    1.6531   -4.7634    1.0736 H   0  0  0  0  0  0  0  0  0  0  0  0
    2.0872   -4.3699   -1.9348 H   0  0  0  0  0  0  0  0  0  0  0  0
    3.3221   -4.1965   -0.5562 H   0  0  0  0  0  0  0  0  0  0  0  0
    4.8934   -1.3374   -1.0950 H   0  0  0  0  0  0  0  0  0  0  0  0
    3.9485    2.2576    1.1281 H   0  0  0  0  0  0  0  0  0  0  0  0
    7.2482   -0.7113   -1.0862 H   0  0  0  0  0  0  0  0  0  0  0  0
    6.2500    2.8922    1.1118 H   0  0  0  0  0  0  0  0  0  0  0  0
    8.3495    2.4317   -1.9955 H   0  0  0  0  0  0  0  0  0  0  0  0
    8.8651    0.7402   -2.0044 H   0  0  0  0  0  0  0  0  0  0  0  0
    9.9743    1.9901   -1.4414 H   0  0  0  0  0  0  0  0  0  0  0  0
    9.1999   -0.5238    0.2235 H   0  0  0  0  0  0  0  0  0  0  0  0
    8.9133    0.2997    1.7619 H   0  0  0  0  0  0  0  0  0  0  0  0
   10.3043    0.7434    0.7567 H   0  0  0  0  0  0  0  0  0  0  0  0
    9.7834    3.0882    0.6874 H   0  0  0  0  0  0  0  0  0  0  0  0
    8.4269    2.8464    1.7865 H   0  0  0  0  0  0  0  0  0  0  0  0
    8.1957    3.7178    0.2513 H   0  0  0  0  0  0  0  0  0  0  0  0
  1 21  1  0  0  0  0
  1 24  1  0  0  0  0
  2 14  1  0  0  0  0
  2 59  1  0  0  0  0
  3 19  1  0  0  0  0
  3 60  1  0  0  0  0
  4 23  2  0  0  0  0
  5 27  2  0  0  0  0
  6 18  1  0  0  0  0
  6 24  2  0  0  0  0
  7 23  1  0  0  0  0
  7 25  1  0  0  0  0
  7 26  1  0  0  0  0
  8 24  1  0  0  0  0
  8 27  1  0  0  0  0
  8 61  1  0  0  0  0
  9 10  1  0  0  0  0
  9 12  1  0  0  0  0
  9 13  1  0  0  0  0
  9 17  1  0  0  0  0
 10 11  1  0  0  0  0
 10 15  1  0  0  0  0
 10 40  1  0  0  0  0
 11 14  1  0  0  0  0
 11 19  1  0  0  0  0
 11 20  1  0  0  0  0
 12 18  1  0  0  0  0
 12 22  1  0  0  0  0
 12 41  1  0  0  0  0
 13 16  1  0  0  0  0
 13 42  1  0  0  0  0
 13 43  1  0  0  0  0
 14 16  1  0  0  0  0
 14 44  1  0  0  0  0
 15 21  1  0  0  0  0
 15 45  1  0  0  0  0
 15 46  1  0  0  0  0
 16 47  1  0  0  0  0
 16 48  1  0  0  0  0
 17 49  1  0  0  0  0
 17 50  1  0  0  0  0
 17 51  1  0  0  0  0
 18 21  2  0  0  0  0
 19 52  1  0  0  0  0
 19 53  1  0  0  0  0
 20 54  1  0  0  0  0
 20 55  1  0  0  0  0
 20 56  1  0  0  0  0
 22 23  1  0  0  0  0
 22 57  1  0  0  0  0
 22 58  1  0  0  0  0
 25 28  1  0  0  0  0
 25 62  1  0  0  0  0
 25 63  1  0  0  0  0
 26 64  1  0  0  0  0
 26 65  1  0  0  0  0
 26 66  1  0  0  0  0
 27 29  1  0  0  0  0
 28 30  2  0  0  0  0
 28 67  1  0  0  0  0
 29 31  2  0  0  0  0
 29 32  1  0  0  0  0
 30 68  1  0  0  0  0
 30 69  1  0  0  0  0
 31 34  1  0  0  0  0
 31 70  1  0  0  0  0
 32 35  2  0  0  0  0
 32 71  1  0  0  0  0
 33 34  2  0  0  0  0
 33 35  1  0  0  0  0
 33 36  1  0  0  0  0
 34 72  1  0  0  0  0
 35 73  1  0  0  0  0
 36 37  1  0  0  0  0
 36 38  1  0  0  0  0
 36 39  1  0  0  0  0
 37 74  1  0  0  0  0
 37 75  1  0  0  0  0
 37 76  1  0  0  0  0
 38 77  1  0  0  0  0
 38 78  1  0  0  0  0
 38 79  1  0  0  0  0
 39 80  1  0  0  0  0
 39 81  1  0  0  0  0
 39 82  1  0  0  0  0
M  END
> <PUBCHEM_COMPOUND_CID>
11882989

> <PUBCHEM_CONFORMER_RMSD>
1.2

> <PUBCHEM_CONFORMER_DIVERSEORDER>
1
9
11
10
8
7
3
6
4
5
2

> <PUBCHEM_MMFF94_PARTIAL_CHARGES>
39
1 -0.08
12 0.18
14 0.28
15 0.18
18 0.05
19 0.28
2 -0.68
21 -0.14
22 0.06
23 0.57
24 0.44
25 0.44
26 0.3
27 0.54
28 -0.29
29 0.09
3 -0.68
30 -0.3
31 -0.15
32 -0.15
33 -0.14
34 -0.15
35 -0.15
36 0.14
4 -0.57
5 -0.57
59 0.4
6 -0.57
60 0.4
61 0.37
67 0.15
68 0.15
69 0.15
7 -0.66
70 0.15
71 0.15
72 0.15
73 0.15
8 -0.49

> <PUBCHEM_EFFECTIVE_ROTOR_COUNT>
11.2

> <PUBCHEM_PHARMACOPHORE_FEATURES>
13
1 2 acceptor
1 2 donor
1 3 acceptor
1 3 donor
1 30 hydrophobe
1 4 acceptor
1 5 acceptor
1 8 donor
4 36 37 38 39 hydrophobe
5 1 6 18 21 24 rings
6 29 31 32 33 34 35 rings
6 9 10 11 13 14 16 rings
6 9 10 12 15 18 21 rings

> <PUBCHEM_HEAVY_ATOM_COUNT>
39

> <PUBCHEM_ATOM_DEF_STEREO_COUNT>
5

> <PUBCHEM_ATOM_UDEF_STEREO_COUNT>
0

> <PUBCHEM_BOND_DEF_STEREO_COUNT>
0

> <PUBCHEM_BOND_UDEF_STEREO_COUNT>
0

> <PUBCHEM_ISOTOPIC_ATOM_COUNT>
0

> <PUBCHEM_COMPONENT_COUNT>
1

> <PUBCHEM_CACTVS_TAUTO_COUNT>
3

> <PUBCHEM_CONFORMER_ID>
00B551ED00000001

> <PUBCHEM_MMFF94_ENERGY>
132.6313

> <PUBCHEM_FEATURE_SELFOVERLAP>
66.116

> <PUBCHEM_SHAPE_FINGERPRINT>
10190206 1 18269821151638189439
10369192 42 18334852801817925469
10411042 1 17833551576567025211
10864689 126 18341614850221717880
10940486 97 18190745438982624172
11007060 377 18342178903222001289
11135609 187 18411981326086781419
11135926 11 18336257968470940917
11136131 41 18261387793973557570
11578080 2 17243847967179028285
12013929 2 18130788950731779688
12522641 33 18410290277198058663
12838862 33 18338502106284684692
14040222 383 18339639044531525362
14394314 77 18410013221447848545
14856354 85 16226046725545060625
15361156 5 18058167405216608604
15400415 2 18411135857516811856
15439362 3 18338518509176270827
15444296 121 18114466780813191896
15461852 350 17775283897638127389
15890870 6 18411416215353294917
15927050 60 18413384341590079311
16067689 302 18341897360555104975
19053607 189 18340191995468928240
19315958 150 18413112749669700276
20609170 92 18115578246543144693
20771845 165 18043527205929198773
21133665 82 18410856564678997198
21360443 120 18409166584693610839
23559900 14 18271799159839567561
23569943 247 14403811713404355324
249057 3 18336265725625664516
3383291 50 18337675329591807507
354706 109 18127670816505139832
4017518 198 18343586256895105550
4073 2 18411143502589929067
4516262 110 18266456513272059885
4625314 4 18338519746828842388
5265222 85 18338516455686134952
5776283 40 18343017839305488688
59521270 166 18261108561375080204
6371380 46 18271802462674231696
6669772 16 18339362963638684063
6691757 9 18341341066550233184
9896288 288 18116718606714238738
99344 41 18411418384311818532

> <PUBCHEM_SHAPE_MULTIPOLES>
768.03
25.04
5.68
1.1
38.83
9.83
-0.1
-27.08
1.32
-2.24
-0.14
-0.37
0.08
1.3

> <PUBCHEM_SHAPE_SELFOVERLAP>
1610.233

> <PUBCHEM_SHAPE_VOLUME>
439.4

> <PUBCHEM_COORDINATE_TYPE>
2
5
10

$$$$
