75536738
  -OEChem-12032416333D

 47 48  0     1  0  0  0  0  0999 V2000
    0.7451   -1.1132   -0.0064 O   0  0  0  0  0  0  0  0  0  0  0  0
   -0.1500    2.3622    0.1561 O   0  0  0  0  0  0  0  0  0  0  0  0
    4.4166    1.4565   -0.1271 O   0  0  0  0  0  0  0  0  0  0  0  0
   -2.5766    0.3680    0.0524 N   0  0  0  0  0  0  0  0  0  0  0  0
    3.3383   -0.3038    0.9383 N   0  0  0  0  0  0  0  0  0  0  0  0
   -5.5138   -0.8326    0.3231 N   0  0  0  0  0  0  0  0  0  0  0  0
    5.4466   -0.6148    0.0525 N   0  0  0  0  0  0  0  0  0  0  0  0
   -5.7710    0.9496   -0.9767 N   0  0  0  0  0  0  0  0  0  0  0  0
   -1.1914    0.2156   -0.3617 C   0  0  1  0  0  0  0  0  0  0  0  0
   -0.2100    0.9910    0.4977 C   0  0  1  0  0  0  0  0  0  0  0  0
    1.0924    0.2691    0.1796 C   0  0  1  0  0  0  0  0  0  0  0  0
   -0.6776   -1.2054   -0.1973 C   0  0  0  0  0  0  0  0  0  0  0  0
    2.1320    0.3937    1.2792 C   0  0  0  0  0  0  0  0  0  0  0  0
   -3.4890   -0.1061   -0.9814 C   0  0  0  0  0  0  0  0  0  0  0  0
   -4.9289    0.0288   -0.5630 C   0  0  0  0  0  0  0  0  0  0  0  0
    4.4037    0.2862    0.2521 C   0  0  0  0  0  0  0  0  0  0  0  0
    6.6676   -0.2594   -0.6314 C   0  0  0  0  0  0  0  0  0  0  0  0
   -6.8113   -0.4357    0.4847 C   0  0  0  0  0  0  0  0  0  0  0  0
   -4.8910   -1.9591    0.9774 C   0  0  0  0  0  0  0  0  0  0  0  0
   -6.9463    0.6656   -0.3273 C   0  0  0  0  0  0  0  0  0  0  0  0
    7.2303   -1.4659   -1.3713 C   0  0  0  0  0  0  0  0  0  0  0  0
    7.6843    0.3097    0.3503 C   0  0  0  0  0  0  0  0  0  0  0  0
   -1.0680    0.5476   -1.4023 H   0  0  0  0  0  0  0  0  0  0  0  0
   -0.4617    0.9024    1.5620 H   0  0  0  0  0  0  0  0  0  0  0  0
    1.5152    0.6299   -0.7673 H   0  0  0  0  0  0  0  0  0  0  0  0
   -1.0912   -1.6979    0.6904 H   0  0  0  0  0  0  0  0  0  0  0  0
   -0.8860   -1.8337   -1.0685 H   0  0  0  0  0  0  0  0  0  0  0  0
    1.7673   -0.0593    2.2076 H   0  0  0  0  0  0  0  0  0  0  0  0
    2.3652    1.4460    1.4731 H   0  0  0  0  0  0  0  0  0  0  0  0
   -2.7652    1.3545    0.2328 H   0  0  0  0  0  0  0  0  0  0  0  0
   -3.2897   -1.1534   -1.2365 H   0  0  0  0  0  0  0  0  0  0  0  0
   -3.3510    0.4778   -1.9005 H   0  0  0  0  0  0  0  0  0  0  0  0
    0.0721    2.4327   -0.7878 H   0  0  0  0  0  0  0  0  0  0  0  0
    3.4158   -1.2826    1.1971 H   0  0  0  0  0  0  0  0  0  0  0  0
    5.3732   -1.5379    0.4697 H   0  0  0  0  0  0  0  0  0  0  0  0
    6.4315    0.5173   -1.3688 H   0  0  0  0  0  0  0  0  0  0  0  0
   -7.5035   -0.9487    1.1378 H   0  0  0  0  0  0  0  0  0  0  0  0
   -4.5087   -2.6411    0.2143 H   0  0  0  0  0  0  0  0  0  0  0  0
   -4.0826   -1.5915    1.6136 H   0  0  0  0  0  0  0  0  0  0  0  0
   -5.6327   -2.4776    1.5909 H   0  0  0  0  0  0  0  0  0  0  0  0
   -7.8299    1.2686   -0.4773 H   0  0  0  0  0  0  0  0  0  0  0  0
    6.5000   -1.8566   -2.0885 H   0  0  0  0  0  0  0  0  0  0  0  0
    8.1376   -1.1991   -1.9232 H   0  0  0  0  0  0  0  0  0  0  0  0
    7.4786   -2.2780   -0.6788 H   0  0  0  0  0  0  0  0  0  0  0  0
    8.6060    0.5998   -0.1646 H   0  0  0  0  0  0  0  0  0  0  0  0
    7.2871    1.1966    0.8561 H   0  0  0  0  0  0  0  0  0  0  0  0
    7.9411   -0.4223    1.1243 H   0  0  0  0  0  0  0  0  0  0  0  0
  1 11  1  0  0  0  0
  1 12  1  0  0  0  0
  2 10  1  0  0  0  0
  2 33  1  0  0  0  0
  3 16  2  0  0  0  0
  4  9  1  0  0  0  0
  4 14  1  0  0  0  0
  4 30  1  0  0  0  0
  5 13  1  0  0  0  0
  5 16  1  0  0  0  0
  5 34  1  0  0  0  0
  6 15  1  0  0  0  0
  6 18  1  0  0  0  0
  6 19  1  0  0  0  0
  7 16  1  0  0  0  0
  7 17  1  0  0  0  0
  7 35  1  0  0  0  0
  8 15  2  0  0  0  0
  8 20  1  0  0  0  0
  9 10  1  0  0  0  0
  9 12  1  0  0  0  0
  9 23  1  0  0  0  0
 10 11  1  0  0  0  0
 10 24  1  0  0  0  0
 11 13  1  0  0  0  0
 11 25  1  0  0  0  0
 12 26  1  0  0  0  0
 12 27  1  0  0  0  0
 13 28  1  0  0  0  0
 13 29  1  0  0  0  0
 14 15  1  0  0  0  0
 14 31  1  0  0  0  0
 14 32  1  0  0  0  0
 17 21  1  0  0  0  0
 17 22  1  0  0  0  0
 17 36  1  0  0  0  0
 18 20  2  0  0  0  0
 18 37  1  0  0  0  0
 19 38  1  0  0  0  0
 19 39  1  0  0  0  0
 19 40  1  0  0  0  0
 20 41  1  0  0  0  0
 21 42  1  0  0  0  0
 21 43  1  0  0  0  0
 21 44  1  0  0  0  0
 22 45  1  0  0  0  0
 22 46  1  0  0  0  0
 22 47  1  0  0  0  0
M  END
> <PUBCHEM_COMPOUND_CID>
75536738

> <PUBCHEM_CONFORMER_RMSD>
1

> <PUBCHEM_CONFORMER_DIVERSEORDER>
1
66
105
134
108
138
30
65
51
96
15
113
72
125
74
124
95
4
32
123
100
29
122
34
80
97
19
59
47
73
28
107
21
39
89
23
114
111
121
129
63
60
117
116
81
6
126
82
9
31
99
78
53
46
58
11
36
48
130
76
40
112
41
18
50
127
135
37
61
85
94
87
93
38
33
83
17
102
106
67
120
101
55
103
115
45
64
69
44
56
8
22
43
27
131
128
98
68
10
49
140
118
79
71
132
84
12
86
110
136
54
133
90
25
75
88
20
5
26
137
52
109
16
7
24
14
62
119
77
35
3
13
139
70
2
57
92
91
42
104

> <PUBCHEM_MMFF94_PARTIAL_CHARGES>
26
1 -0.56
10 0.28
11 0.28
12 0.28
13 0.3
14 0.45
15 0.01
16 0.69
17 0.3
18 -0.3
19 0.26
2 -0.68
20 0.08
3 -0.57
30 0.36
33 0.4
34 0.37
35 0.37
37 0.15
4 -0.9
41 0.15
5 -0.73
6 0.05
7 -0.73
8 -0.57
9 0.27

> <PUBCHEM_EFFECTIVE_ROTOR_COUNT>
9

> <PUBCHEM_PHARMACOPHORE_FEATURES>
12
1 1 acceptor
1 2 acceptor
1 2 donor
1 3 acceptor
1 4 cation
1 4 donor
1 5 donor
1 7 donor
3 17 21 22 hydrophobe
3 6 8 15 cation
5 1 9 10 11 12 rings
5 6 8 15 18 20 rings

> <PUBCHEM_HEAVY_ATOM_COUNT>
22

> <PUBCHEM_ATOM_DEF_STEREO_COUNT>
3

> <PUBCHEM_ATOM_UDEF_STEREO_COUNT>
0

> <PUBCHEM_BOND_DEF_STEREO_COUNT>
0

> <PUBCHEM_BOND_UDEF_STEREO_COUNT>
0

> <PUBCHEM_ISOTOPIC_ATOM_COUNT>
0

> <PUBCHEM_COMPONENT_COUNT>
1

> <PUBCHEM_CACTVS_TAUTO_COUNT>
3

> <PUBCHEM_CONFORMER_ID>
0480996200000001

> <PUBCHEM_MMFF94_ENERGY>
26.7741

> <PUBCHEM_FEATURE_SELFOVERLAP>
60.947

> <PUBCHEM_SHAPE_FINGERPRINT>
106641 1 10665238046199930788
10968037 39 15502374530836857259
11089746 13 15482669096112570979
11315181 36 18131351921542625425
11524674 6 18060698412132800007
11638347 137 8862948286318607604
12091667 2 18131066039771128845
12236239 1 17603301549038575494
13533116 47 16487258738739268398
13685833 64 17632578241267810966
14123256 10 14851604379822363782
14251764 18 15123509220573717602
14251764 46 18410572885639823373
14856354 85 18040159530873121535
14933364 13 18186519908037646381
15183329 4 15841554080542937350
15849732 13 18408603677773947164
18006028 8 16845572015434791448
20157964 124 13767924607928650472
21150785 3 17458068166448719934
21267235 1 18413111658020227584
21315759 40 16200429187028421701
220451 1 17167857560949068011
23035841 295 18259982678109932419
23402539 116 13542462077567297233
23559900 14 18334852857056348977
246663 6 18342179968173598999
28498 318 17489588930911941388
328311 84 18343024393156569558
34797466 226 15791735174513479534
4325135 7 16298103185642855471
4463277 17 18409726278892977681
5207 217 14273458080346271273
5758199 1 15574714685750422985
59755656 215 18412263904717613086
59755656 520 16588301713452320514

> <PUBCHEM_SHAPE_MULTIPOLES>
410.24
22.48
1.47
1.02
11.68
0.04
-0.02
-3.81
-3.43
-0.16
0.05
0.19
-0.16
1.68

> <PUBCHEM_SHAPE_SELFOVERLAP>
831.423

> <PUBCHEM_SHAPE_VOLUME>
240.6

> <PUBCHEM_COORDINATE_TYPE>
2
5
10

$$$$
