45784307
  -OEChem-12032416243D

 41 44  0     1  0  0  0  0  0999 V2000
    6.7375   -0.1539   -0.2929 O   0  0  0  0  0  0  0  0  0  0  0  0
   -2.7026   -0.2448   -0.0919 N   0  0  1  0  0  0  0  0  0  0  0  0
    1.9831   -1.1787    0.2747 N   0  0  0  0  0  0  0  0  0  0  0  0
    1.3500    0.9454    0.1101 N   0  0  0  0  0  0  0  0  0  0  0  0
   -5.7162   -0.9895   -0.7416 N   0  0  0  0  0  0  0  0  0  0  0  0
   -5.8505    1.0564    0.1116 N   0  0  0  0  0  0  0  0  0  0  0  0
   -0.4837   -0.7563    0.4685 C   0  0  1  0  0  0  0  0  0  0  0  0
   -1.2005   -0.1636    1.6941 C   0  0  0  0  0  0  0  0  0  0  0  0
   -1.3889   -0.4034   -0.7194 C   0  0  0  0  0  0  0  0  0  0  0  0
   -2.4461    0.5110    1.1341 C   0  0  0  0  0  0  0  0  0  0  0  0
    0.9423   -0.2922    0.2808 C   0  0  0  0  0  0  0  0  0  0  0  0
   -3.6578    0.4221   -0.9643 C   0  0  0  0  0  0  0  0  0  0  0  0
   -5.0777    0.1982   -0.5163 C   0  0  0  0  0  0  0  0  0  0  0  0
    3.1393   -0.4657    0.0874 C   0  0  0  0  0  0  0  0  0  0  0  0
    2.7176    0.8573   -0.0124 C   0  0  0  0  0  0  0  0  0  0  0  0
    4.4769   -0.8525   -0.0006 C   0  0  0  0  0  0  0  0  0  0  0  0
    3.6736    1.8675   -0.2119 C   0  0  0  0  0  0  0  0  0  0  0  0
    5.4149    0.1659   -0.1993 C   0  0  0  0  0  0  0  0  0  0  0  0
    5.0226    1.5024   -0.3032 C   0  0  0  0  0  0  0  0  0  0  0  0
   -6.9765   -0.8817   -0.2245 C   0  0  0  0  0  0  0  0  0  0  0  0
   -7.0356    0.3893    0.2965 C   0  0  0  0  0  0  0  0  0  0  0  0
    7.0784   -1.5335   -0.1795 C   0  0  0  0  0  0  0  0  0  0  0  0
   -0.4810   -1.8496    0.5878 H   0  0  0  0  0  0  0  0  0  0  0  0
   -1.4856   -0.9743    2.3762 H   0  0  0  0  0  0  0  0  0  0  0  0
   -0.5839    0.5438    2.2588 H   0  0  0  0  0  0  0  0  0  0  0  0
   -1.3906   -1.2026   -1.4686 H   0  0  0  0  0  0  0  0  0  0  0  0
   -1.0644    0.5250   -1.2081 H   0  0  0  0  0  0  0  0  0  0  0  0
   -3.2784    0.4563    1.8430 H   0  0  0  0  0  0  0  0  0  0  0  0
   -2.2302    1.5672    0.9274 H   0  0  0  0  0  0  0  0  0  0  0  0
   -3.4593    1.4981   -1.0501 H   0  0  0  0  0  0  0  0  0  0  0  0
   -3.5773    0.0151   -1.9818 H   0  0  0  0  0  0  0  0  0  0  0  0
    1.9163   -2.1816    0.3878 H   0  0  0  0  0  0  0  0  0  0  0  0
    4.7147   -1.9044    0.0881 H   0  0  0  0  0  0  0  0  0  0  0  0
   -5.3285   -1.8006   -1.2050 H   0  0  0  0  0  0  0  0  0  0  0  0
    3.3787    2.9088   -0.2940 H   0  0  0  0  0  0  0  0  0  0  0  0
    5.7704    2.2768   -0.4574 H   0  0  0  0  0  0  0  0  0  0  0  0
   -7.6895   -1.6918   -0.2734 H   0  0  0  0  0  0  0  0  0  0  0  0
   -7.8712    0.8581    0.7954 H   0  0  0  0  0  0  0  0  0  0  0  0
    8.1666   -1.6061   -0.2769 H   0  0  0  0  0  0  0  0  0  0  0  0
    6.6462   -2.1244   -0.9943 H   0  0  0  0  0  0  0  0  0  0  0  0
    6.8201   -1.9333    0.8070 H   0  0  0  0  0  0  0  0  0  0  0  0
  1 18  1  0  0  0  0
  1 22  1  0  0  0  0
  2  9  1  0  0  0  0
  2 10  1  0  0  0  0
  2 12  1  0  0  0  0
  3 11  1  0  0  0  0
  3 14  1  0  0  0  0
  3 32  1  0  0  0  0
  4 11  2  0  0  0  0
  4 15  1  0  0  0  0
  5 13  1  0  0  0  0
  5 20  1  0  0  0  0
  5 34  1  0  0  0  0
  6 13  2  0  0  0  0
  6 21  1  0  0  0  0
  7  8  1  0  0  0  0
  7  9  1  0  0  0  0
  7 11  1  0  0  0  0
  7 23  1  0  0  0  0
  8 10  1  0  0  0  0
  8 24  1  0  0  0  0
  8 25  1  0  0  0  0
  9 26  1  0  0  0  0
  9 27  1  0  0  0  0
 10 28  1  0  0  0  0
 10 29  1  0  0  0  0
 12 13  1  0  0  0  0
 12 30  1  0  0  0  0
 12 31  1  0  0  0  0
 14 15  2  0  0  0  0
 14 16  1  0  0  0  0
 15 17  1  0  0  0  0
 16 18  2  0  0  0  0
 16 33  1  0  0  0  0
 17 19  2  0  0  0  0
 17 35  1  0  0  0  0
 18 19  1  0  0  0  0
 19 36  1  0  0  0  0
 20 21  2  0  0  0  0
 20 37  1  0  0  0  0
 21 38  1  0  0  0  0
 22 39  1  0  0  0  0
 22 40  1  0  0  0  0
 22 41  1  0  0  0  0
M  END
> <PUBCHEM_COMPOUND_CID>
45784307

> <PUBCHEM_CONFORMER_RMSD>
0.8

> <PUBCHEM_CONFORMER_DIVERSEORDER>
1
26
38
43
32
8
4
23
42
10
14
39
15
6
45
31
47
3
5
22
41
28
37
24
18
30
35
11
9
21
20
36
2
25
44
12
13
40
29
19
33
27
46
16
7
17
34

> <PUBCHEM_MMFF94_PARTIAL_CHARGES>
28
1 -0.36
10 0.27
11 0.01
12 0.45
13 0.01
14 -0.15
15 0.23
16 -0.15
17 -0.15
18 0.08
19 -0.15
2 -0.81
20 -0.3
21 0.08
22 0.28
3 0.03
32 0.27
33 0.15
34 0.27
35 0.15
36 0.15
37 0.15
38 0.15
4 -0.57
5 0.03
6 -0.57
7 0.18
9 0.27

> <PUBCHEM_EFFECTIVE_ROTOR_COUNT>
5

> <PUBCHEM_PHARMACOPHORE_FEATURES>
10
1 1 acceptor
1 2 cation
1 3 donor
1 5 donor
3 3 4 11 cation
3 5 6 13 cation
5 2 7 8 9 10 rings
5 3 4 11 14 15 rings
5 5 6 13 20 21 rings
6 14 15 16 17 18 19 rings

> <PUBCHEM_HEAVY_ATOM_COUNT>
22

> <PUBCHEM_ATOM_DEF_STEREO_COUNT>
1

> <PUBCHEM_ATOM_UDEF_STEREO_COUNT>
0

> <PUBCHEM_BOND_DEF_STEREO_COUNT>
0

> <PUBCHEM_BOND_UDEF_STEREO_COUNT>
0

> <PUBCHEM_ISOTOPIC_ATOM_COUNT>
0

> <PUBCHEM_COMPONENT_COUNT>
1

> <PUBCHEM_CACTVS_TAUTO_COUNT>
2

> <PUBCHEM_CONFORMER_ID>
02BA9CF300000001

> <PUBCHEM_MMFF94_ENERGY>
43.3812

> <PUBCHEM_FEATURE_SELFOVERLAP>
50.856

> <PUBCHEM_SHAPE_FINGERPRINT>
10066227 49 18271247102049926358
10299344 5 18273496789044948719
10354089 29 11458424639840943246
10595046 47 18411980256924754641
106641 1 12540704729765525189
10670039 82 16371000759367192004
11408170 108 17702669831750242678
11524674 6 15769773585500857735
11646440 116 17167868560555933581
11719270 70 17917429809334416526
12166972 35 18409450301532947784
12236239 1 18059856172770529341
12730499 353 17966971612373558034
12788726 201 17203614735989397795
12916748 109 17022899038680273709
13167372 99 18412546474842399281
13533116 47 18272930484295093698
13668630 136 18131636668857303710
13914758 101 18341054021132866736
14170010 4 18408321099455052900
14251752 14 17703791405685163201
14251764 18 18333730221920665472
14251764 46 17847061077534602087
14294032 229 16986616177493327297
14856354 85 17632300116697920495
14933364 13 18407760335428962861
15183329 4 18408881819908815643
15537594 2 15841549669991183789
17093844 174 13470688144955715207
18006028 8 13039185905592874667
200 152 18131349704564072937
20281389 69 15285354024989039676
20645477 70 18336826399367439238
21033648 29 17749952301502574816
21095086 128 18411980282953437119
21150785 3 18343586252826256924
21267235 1 18411703166772095124
21315763 28 18412544323406168637
221357 26 18334010584316581196
22224240 67 10303806571544159524
23035841 295 17489869349801502815
23198884 109 18410293618972693753
23402539 116 16917343745081591021
23536379 177 18341894087071892233
23559900 14 18338513161319482417
26918003 58 10519983781521123813
29717793 49 17917999373663443788
3004659 81 18342454842133521122
314173 85 14117522060472788987
328311 84 18187369826215223074
335352 9 18335144190080301710
347723 3 17346880052757614223
3545911 37 17821446859012170707
4073 2 17967819404558160594
4325135 7 18410009945167867487
5283156 175 17561086877768328114
542803 24 18343017800872023269
59755656 215 17603867780321001410
59755656 520 17749104517470505331

> <PUBCHEM_SHAPE_MULTIPOLES>
421.98
19.92
1.35
0.94
8.71
0.23
-0.23
-2.06
3.3
-1.58
0.08
0.7
-0.01
-0.32

> <PUBCHEM_SHAPE_SELFOVERLAP>
923.849

> <PUBCHEM_SHAPE_VOLUME>
229.3

> <PUBCHEM_COORDINATE_TYPE>
2
5
10

$$$$
