45783777
  -OEChem-12032416263D

 49 53  0     1  0  0  0  0  0999 V2000
   -1.3613   -1.9470    1.8184 O   0  0  0  0  0  0  0  0  0  0  0  0
    0.6639    2.7624   -1.4813 O   0  0  0  0  0  0  0  0  0  0  0  0
    1.2056    3.4527    0.7632 O   0  0  0  0  0  0  0  0  0  0  0  0
   -3.5426   -0.3962   -0.6998 N   0  0  1  0  0  0  0  0  0  0  0  0
   -0.7090   -1.1795   -0.1821 N   0  0  0  0  0  0  0  0  0  0  0  0
    0.0388   -1.9191    1.8496 N   0  0  0  0  0  0  0  0  0  0  0  0
    4.0654   -1.3786    0.7064 N   0  0  0  0  0  0  0  0  0  0  0  0
    5.6477   -0.7181   -0.9475 N   0  0  0  0  0  0  0  0  0  0  0  0
   -3.2044   -1.4297    0.2991 C   0  0  1  0  0  0  0  0  0  0  0  0
   -3.7546   -2.7405   -0.2926 C   0  0  0  0  0  0  0  0  0  0  0  0
   -4.7448   -0.8654   -1.3891 C   0  0  0  0  0  0  0  0  0  0  0  0
   -4.4366   -2.3352   -1.5916 C   0  0  0  0  0  0  0  0  0  0  0  0
   -3.7256    0.9272   -0.1178 C   0  0  0  0  0  0  0  0  0  0  0  0
   -1.7193   -1.4966    0.5875 C   0  0  0  0  0  0  0  0  0  0  0  0
   -2.4099    1.6064    0.1553 C   0  0  0  0  0  0  0  0  0  0  0  0
   -1.5158    1.8333   -0.8939 C   0  0  0  0  0  0  0  0  0  0  0  0
   -2.0936    2.0089    1.4647 C   0  0  0  0  0  0  0  0  0  0  0  0
    0.3484   -1.4554    0.6351 C   0  0  0  0  0  0  0  0  0  0  0  0
   -0.3239    2.4609   -0.5951 C   0  0  0  0  0  0  0  0  0  0  0  0
   -0.8797    2.6430    1.7402 C   0  0  0  0  0  0  0  0  0  0  0  0
   -0.0145    2.8550    0.6866 C   0  0  0  0  0  0  0  0  0  0  0  0
    1.7031   -1.2580    0.2067 C   0  0  0  0  0  0  0  0  0  0  0  0
    1.6296    3.3910   -0.6138 C   0  0  0  0  0  0  0  0  0  0  0  0
    1.9892   -0.7750   -1.0653 C   0  0  0  0  0  0  0  0  0  0  0  0
    2.7674   -1.5420    1.0472 C   0  0  0  0  0  0  0  0  0  0  0  0
    3.3124   -0.5935   -1.4526 C   0  0  0  0  0  0  0  0  0  0  0  0
    4.3047   -0.9073   -0.5379 C   0  0  0  0  0  0  0  0  0  0  0  0
    6.7593   -1.0036   -0.0997 C   0  0  0  0  0  0  0  0  0  0  0  0
   -3.7331   -1.2447    1.2448 H   0  0  0  0  0  0  0  0  0  0  0  0
   -4.4960   -3.1710    0.3917 H   0  0  0  0  0  0  0  0  0  0  0  0
   -2.9868   -3.4997   -0.4767 H   0  0  0  0  0  0  0  0  0  0  0  0
   -5.6423   -0.7468   -0.7688 H   0  0  0  0  0  0  0  0  0  0  0  0
   -4.9002   -0.3521   -2.3431 H   0  0  0  0  0  0  0  0  0  0  0  0
   -5.3337   -2.9287   -1.7907 H   0  0  0  0  0  0  0  0  0  0  0  0
   -3.7452   -2.4689   -2.4329 H   0  0  0  0  0  0  0  0  0  0  0  0
   -4.2599    1.5756   -0.8266 H   0  0  0  0  0  0  0  0  0  0  0  0
   -4.3560    0.8926    0.7803 H   0  0  0  0  0  0  0  0  0  0  0  0
   -1.7438    1.5340   -1.9113 H   0  0  0  0  0  0  0  0  0  0  0  0
   -2.7909    1.8293    2.2793 H   0  0  0  0  0  0  0  0  0  0  0  0
   -0.6317    2.9539    2.7486 H   0  0  0  0  0  0  0  0  0  0  0  0
    2.5680    2.8270   -0.6668 H   0  0  0  0  0  0  0  0  0  0  0  0
    1.8112    4.4110   -0.9714 H   0  0  0  0  0  0  0  0  0  0  0  0
    1.2024   -0.5315   -1.7746 H   0  0  0  0  0  0  0  0  0  0  0  0
    2.6297   -1.9219    2.0553 H   0  0  0  0  0  0  0  0  0  0  0  0
    3.5421   -0.2168   -2.4440 H   0  0  0  0  0  0  0  0  0  0  0  0
    5.8029   -0.1571   -1.7782 H   0  0  0  0  0  0  0  0  0  0  0  0
    6.7767   -2.0595    0.1894 H   0  0  0  0  0  0  0  0  0  0  0  0
    7.6946   -0.7886   -0.6259 H   0  0  0  0  0  0  0  0  0  0  0  0
    6.7366   -0.3879    0.8052 H   0  0  0  0  0  0  0  0  0  0  0  0
  1  6  1  0  0  0  0
  1 14  1  0  0  0  0
  2 19  1  0  0  0  0
  2 23  1  0  0  0  0
  3 21  1  0  0  0  0
  3 23  1  0  0  0  0
  4  9  1  0  0  0  0
  4 11  1  0  0  0  0
  4 13  1  0  0  0  0
  5 14  2  0  0  0  0
  5 18  1  0  0  0  0
  6 18  2  0  0  0  0
  7 25  1  0  0  0  0
  7 27  2  0  0  0  0
  8 27  1  0  0  0  0
  8 28  1  0  0  0  0
  8 46  1  0  0  0  0
  9 10  1  0  0  0  0
  9 14  1  0  0  0  0
  9 29  1  0  0  0  0
 10 12  1  0  0  0  0
 10 30  1  0  0  0  0
 10 31  1  0  0  0  0
 11 12  1  0  0  0  0
 11 32  1  0  0  0  0
 11 33  1  0  0  0  0
 12 34  1  0  0  0  0
 12 35  1  0  0  0  0
 13 15  1  0  0  0  0
 13 36  1  0  0  0  0
 13 37  1  0  0  0  0
 15 16  2  0  0  0  0
 15 17  1  0  0  0  0
 16 19  1  0  0  0  0
 16 38  1  0  0  0  0
 17 20  2  0  0  0  0
 17 39  1  0  0  0  0
 18 22  1  0  0  0  0
 19 21  2  0  0  0  0
 20 21  1  0  0  0  0
 20 40  1  0  0  0  0
 22 24  1  0  0  0  0
 22 25  2  0  0  0  0
 23 41  1  0  0  0  0
 23 42  1  0  0  0  0
 24 26  2  0  0  0  0
 24 43  1  0  0  0  0
 25 44  1  0  0  0  0
 26 27  1  0  0  0  0
 26 45  1  0  0  0  0
 28 47  1  0  0  0  0
 28 48  1  0  0  0  0
 28 49  1  0  0  0  0
M  END
> <PUBCHEM_COMPOUND_CID>
45783777

> <PUBCHEM_CONFORMER_RMSD>
0.8

> <PUBCHEM_CONFORMER_DIVERSEORDER>
1
134
55
57
156
34
159
116
118
8
110
123
145
132
59
158
12
13
126
77
97
68
119
138
131
74
115
37
135
56
50
67
31
2
41
93
104
94
124
122
90
81
121
64
144
17
130
87
128
63
86
14
154
70
20
142
60
89
21
155
66
24
147
96
112
3
120
29
58
85
78
160
10
83
149
143
113
82
51
99
151
100
108
11
152
101
44
40
148
125
109
6
137
33
105
71
102
42
26
140
95
65
25
32
107
73
9
111
92
153
80
23
48
52
150
45
161
61
136
28
72
98
117
36
84
35
69
53
4
18
133
103
106
75
79
127
114
38
54
7
76
27
157
19
39
88
146
46
62
49
5
139
129
22
141
47
30
162
91
16
43
15

> <PUBCHEM_MMFF94_PARTIAL_CHARGES>
33
1 -0.02
11 0.27
13 0.41
14 0.3
15 -0.14
16 -0.15
17 -0.15
18 0.46
19 0.08
2 -0.36
20 -0.15
21 0.08
22 0.05
23 0.56
24 -0.15
25 0.16
26 -0.15
27 0.41
28 0.37
3 -0.36
38 0.15
39 0.15
4 -0.81
40 0.15
43 0.15
44 0.15
45 0.15
46 0.4
5 -0.57
6 -0.41
7 -0.62
8 -0.87
9 0.45

> <PUBCHEM_EFFECTIVE_ROTOR_COUNT>
6.6

> <PUBCHEM_PHARMACOPHORE_FEATURES>
11
1 2 acceptor
1 3 acceptor
1 4 cation
1 8 donor
3 5 6 18 cation
3 7 8 27 cation
5 1 5 6 14 18 rings
5 2 3 19 21 23 rings
5 4 9 10 11 12 rings
6 15 16 17 19 20 21 rings
6 7 22 24 25 26 27 rings

> <PUBCHEM_HEAVY_ATOM_COUNT>
28

> <PUBCHEM_ATOM_DEF_STEREO_COUNT>
1

> <PUBCHEM_ATOM_UDEF_STEREO_COUNT>
0

> <PUBCHEM_BOND_DEF_STEREO_COUNT>
0

> <PUBCHEM_BOND_UDEF_STEREO_COUNT>
0

> <PUBCHEM_ISOTOPIC_ATOM_COUNT>
0

> <PUBCHEM_COMPONENT_COUNT>
1

> <PUBCHEM_CACTVS_TAUTO_COUNT>
8

> <PUBCHEM_CONFORMER_ID>
02BA9AE100000001

> <PUBCHEM_MMFF94_ENERGY>
65.9882

> <PUBCHEM_FEATURE_SELFOVERLAP>
55.978

> <PUBCHEM_SHAPE_FINGERPRINT>
10871710 139 18117561730104930321
1100329 8 18411987932000093057
11578080 2 17678427901441452613
12156800 1 15146809971920799724
12166972 35 17822015353868916702
12596599 1 18130234748218277509
12788726 201 18261669256085646634
14142880 1 18122639253432814913
14787075 74 18407761426398174484
14790565 3 17692250742715135369
14910302 57 17701538411839447702
14955137 171 18198083416804573947
16090146 7 17703799116038195911
17357779 13 18343013410851067698
17492 54 18116142286727038485
18336668 15 18113907052296512548
20642791 239 18188479199763124353
20642791 35 18337094719117499301
20691752 17 17677317429436742981
20715895 44 16670476725863624693
20775438 99 17405119203849868047
20905425 154 18124882514982942549
21344244 246 17909256228528828903
21623110 236 18338247028594141936
23402539 116 18411419492746216518
23419403 2 17980441768101609333
23557571 272 18130787819736420630
23559900 14 18190734422174900349
392239 28 18411140195813712736
4280585 95 18336817645954733340
469060 322 17533246144178951297
484989 97 17896888853585104331
57527295 17 17912092943280783781
57527585 103 17680183799698953490
7471813 234 18342175630504530814

> <PUBCHEM_SHAPE_MULTIPOLES>
533.71
9.79
4.17
1.58
11.31
3.59
0.22
-7.89
-3.55
-1.47
0.38
-0.38
-0.05
-1.05

> <PUBCHEM_SHAPE_SELFOVERLAP>
1177.866

> <PUBCHEM_SHAPE_VOLUME>
288.9

> <PUBCHEM_COORDINATE_TYPE>
2
5
10

$$$$
