75536460
  -OEChem-12032416343D

 54 57  0     1  0  0  0  0  0999 V2000
    2.0141   -2.1449    0.8866 O   0  0  0  0  0  0  0  0  0  0  0  0
    0.0926   -1.8517   -2.1345 O   0  0  0  0  0  0  0  0  0  0  0  0
    4.9707   -1.4429    0.8561 O   0  0  0  0  0  0  0  0  0  0  0  0
   -0.9091   -0.0741    0.2556 N   0  0  0  0  0  0  0  0  0  0  0  0
    3.7376   -1.0036   -1.0714 N   0  0  0  0  0  0  0  0  0  0  0  0
   -3.2908   -2.2738    1.0567 N   0  0  0  0  0  0  0  0  0  0  0  0
   -1.3261    3.1183    1.1424 N   0  0  0  0  0  0  0  0  0  0  0  0
    5.0945    0.7238   -0.0519 C   0  0  0  0  0  0  0  0  0  0  0  0
   -0.0994   -1.2814    0.2315 C   0  0  1  0  0  0  0  0  0  0  0  0
    0.7903   -1.3936   -0.9927 C   0  0  1  0  0  0  0  0  0  0  0  0
    1.8219   -2.4060   -0.5137 C   0  0  1  0  0  0  0  0  0  0  0  0
    4.0925    1.8296   -0.0746 C   0  0  0  0  0  0  0  0  0  0  0  0
    4.8937    1.5645    1.1648 C   0  0  0  0  0  0  0  0  0  0  0  0
    0.9250   -1.3293    1.3532 C   0  0  0  0  0  0  0  0  0  0  0  0
    3.1497   -2.3008   -1.2424 C   0  0  0  0  0  0  0  0  0  0  0  0
    4.6009   -0.6848   -0.0329 C   0  0  0  0  0  0  0  0  0  0  0  0
   -2.0151   -0.2077    1.2085 C   0  0  0  0  0  0  0  0  0  0  0  0
   -0.0917    1.0946    0.5942 C   0  0  0  0  0  0  0  0  0  0  0  0
   -3.1599   -0.9972    0.6316 C   0  0  0  0  0  0  0  0  0  0  0  0
   -0.7486    2.3806    0.1679 C   0  0  0  0  0  0  0  0  0  0  0  0
   -4.0063   -0.3941   -0.2848 C   0  0  0  0  0  0  0  0  0  0  0  0
   -0.7308    2.7405   -1.1701 C   0  0  0  0  0  0  0  0  0  0  0  0
   -5.0545   -1.1499   -0.7978 C   0  0  0  0  0  0  0  0  0  0  0  0
   -1.3449    3.9346   -1.5308 C   0  0  0  0  0  0  0  0  0  0  0  0
   -4.3212   -2.9774    0.5360 C   0  0  0  0  0  0  0  0  0  0  0  0
   -1.9133    4.2724    0.7538 C   0  0  0  0  0  0  0  0  0  0  0  0
   -5.2221   -2.4669   -0.3846 C   0  0  0  0  0  0  0  0  0  0  0  0
   -1.9497    4.7211   -0.5566 C   0  0  0  0  0  0  0  0  0  0  0  0
    6.0196    0.8741   -0.5984 H   0  0  0  0  0  0  0  0  0  0  0  0
   -0.7273   -2.1813    0.2580 H   0  0  0  0  0  0  0  0  0  0  0  0
    1.2534   -0.4403   -1.2583 H   0  0  0  0  0  0  0  0  0  0  0  0
    1.4428   -3.4306   -0.6153 H   0  0  0  0  0  0  0  0  0  0  0  0
    3.0387    1.5932   -0.0449 H   0  0  0  0  0  0  0  0  0  0  0  0
    4.3323    2.7158   -0.6496 H   0  0  0  0  0  0  0  0  0  0  0  0
    5.6703    2.2737    1.4239 H   0  0  0  0  0  0  0  0  0  0  0  0
    4.3738    1.1417    2.0159 H   0  0  0  0  0  0  0  0  0  0  0  0
    1.4050   -0.3973    1.6517 H   0  0  0  0  0  0  0  0  0  0  0  0
    0.5111   -1.7844    2.2591 H   0  0  0  0  0  0  0  0  0  0  0  0
    3.0221   -2.4727   -2.3159 H   0  0  0  0  0  0  0  0  0  0  0  0
    3.8482   -3.0489   -0.8514 H   0  0  0  0  0  0  0  0  0  0  0  0
    3.5170   -0.2904   -1.7605 H   0  0  0  0  0  0  0  0  0  0  0  0
   -2.4355    0.7651    1.4915 H   0  0  0  0  0  0  0  0  0  0  0  0
   -1.6862   -0.6582    2.1546 H   0  0  0  0  0  0  0  0  0  0  0  0
    0.8849    1.0907    0.1022 H   0  0  0  0  0  0  0  0  0  0  0  0
    0.0950    1.1659    1.6748 H   0  0  0  0  0  0  0  0  0  0  0  0
   -0.3255   -2.7020   -1.9170 H   0  0  0  0  0  0  0  0  0  0  0  0
   -3.8675    0.6343   -0.6009 H   0  0  0  0  0  0  0  0  0  0  0  0
   -0.2561    2.1199   -1.9227 H   0  0  0  0  0  0  0  0  0  0  0  0
   -5.7397   -0.7134   -1.5183 H   0  0  0  0  0  0  0  0  0  0  0  0
   -1.3524    4.2518   -2.5693 H   0  0  0  0  0  0  0  0  0  0  0  0
   -4.4078   -3.9993    0.8902 H   0  0  0  0  0  0  0  0  0  0  0  0
   -2.3707    4.8487    1.5512 H   0  0  0  0  0  0  0  0  0  0  0  0
   -6.0320   -3.0747   -0.7713 H   0  0  0  0  0  0  0  0  0  0  0  0
   -2.4345    5.6555   -0.8149 H   0  0  0  0  0  0  0  0  0  0  0  0
  1 11  1  0  0  0  0
  1 14  1  0  0  0  0
  2 10  1  0  0  0  0
  2 46  1  0  0  0  0
  3 16  2  0  0  0  0
  4  9  1  0  0  0  0
  4 17  1  0  0  0  0
  4 18  1  0  0  0  0
  5 15  1  0  0  0  0
  5 16  1  0  0  0  0
  5 41  1  0  0  0  0
  6 19  1  0  0  0  0
  6 25  2  0  0  0  0
  7 20  1  0  0  0  0
  7 26  2  0  0  0  0
  8 12  1  0  0  0  0
  8 13  1  0  0  0  0
  8 16  1  0  0  0  0
  8 29  1  0  0  0  0
  9 10  1  0  0  0  0
  9 14  1  0  0  0  0
  9 30  1  0  0  0  0
 10 11  1  0  0  0  0
 10 31  1  0  0  0  0
 11 15  1  0  0  0  0
 11 32  1  0  0  0  0
 12 13  1  0  0  0  0
 12 33  1  0  0  0  0
 12 34  1  0  0  0  0
 13 35  1  0  0  0  0
 13 36  1  0  0  0  0
 14 37  1  0  0  0  0
 14 38  1  0  0  0  0
 15 39  1  0  0  0  0
 15 40  1  0  0  0  0
 17 19  1  0  0  0  0
 17 42  1  0  0  0  0
 17 43  1  0  0  0  0
 18 20  1  0  0  0  0
 18 44  1  0  0  0  0
 18 45  1  0  0  0  0
 19 21  2  0  0  0  0
 20 22  2  0  0  0  0
 21 23  1  0  0  0  0
 21 47  1  0  0  0  0
 22 24  1  0  0  0  0
 22 48  1  0  0  0  0
 23 27  2  0  0  0  0
 23 49  1  0  0  0  0
 24 28  2  0  0  0  0
 24 50  1  0  0  0  0
 25 27  1  0  0  0  0
 25 51  1  0  0  0  0
 26 28  1  0  0  0  0
 26 52  1  0  0  0  0
 27 53  1  0  0  0  0
 28 54  1  0  0  0  0
M  END
> <PUBCHEM_COMPOUND_CID>
75536460

> <PUBCHEM_CONFORMER_RMSD>
1

> <PUBCHEM_CONFORMER_DIVERSEORDER>
1
200
52
206
203
135
124
213
141
188
110
156
151
187
175
211
60
139
216
225
131
58
186
205
208
127
134
29
192
202
51
177
136
183
191
33
168
68
219
97
144
116
132
85
159
196
148
180
198
167
87
215
189
194
42
114
100
199
195
32
40
193
72
179
222
123
217
53
153
165
39
125
43
140
224
221
204
47
122
99
82
150
166
10
214
126
69
104
120
74
171
158
121
169
118
75
218
137
190
103
89
78
102
145
154
117
109
49
86
59
64
130
163
210
61
54
133
147
38
112
207
176
201
161
185
174
28
162
181
24
23
128
96
92
149
79
55
88
197
209
57
143
182
90
164
63
220
223
108
173
119
73
84
19
146
83
172
41
67
115
70
113
95
12
36
129
93
25
107
62
101
94
212
80
46
65
13
111
81
106
142
4
155
138
152
105
98
184
91
6
50
30
44
20
35
178
21
66
15
157
76
26
37
56
2
170
7
27
18
160
71
8
48
45
34
16
9
3
77
14
22
31
5
17
11

> <PUBCHEM_MMFF94_PARTIAL_CHARGES>
43
1 -0.56
10 0.28
11 0.28
12 -0.2
13 -0.2
14 0.28
15 0.3
16 0.63
17 0.41
18 0.41
19 0.17
2 -0.68
20 0.17
21 -0.15
22 -0.15
23 -0.15
24 -0.15
25 0.16
26 0.16
27 -0.15
28 -0.15
29 0.1
3 -0.57
33 0.1
34 0.1
35 0.1
36 0.1
4 -0.81
41 0.37
46 0.4
47 0.15
48 0.15
49 0.15
5 -0.73
50 0.15
51 0.15
52 0.15
53 0.15
54 0.15
6 -0.62
7 -0.62
8 -0.1
9 0.27

> <PUBCHEM_EFFECTIVE_ROTOR_COUNT>
10.6

> <PUBCHEM_PHARMACOPHORE_FEATURES>
11
1 1 acceptor
1 2 acceptor
1 2 donor
1 3 acceptor
1 4 cation
1 5 donor
1 6 acceptor
1 7 acceptor
5 1 9 10 11 14 rings
6 6 19 21 23 25 27 rings
6 7 20 22 24 26 28 rings

> <PUBCHEM_HEAVY_ATOM_COUNT>
28

> <PUBCHEM_ATOM_DEF_STEREO_COUNT>
3

> <PUBCHEM_ATOM_UDEF_STEREO_COUNT>
0

> <PUBCHEM_BOND_DEF_STEREO_COUNT>
0

> <PUBCHEM_BOND_UDEF_STEREO_COUNT>
0

> <PUBCHEM_ISOTOPIC_ATOM_COUNT>
0

> <PUBCHEM_COMPONENT_COUNT>
1

> <PUBCHEM_CACTVS_TAUTO_COUNT>
2

> <PUBCHEM_CONFORMER_ID>
0480984C00000001

> <PUBCHEM_MMFF94_ENERGY>
75.8697

> <PUBCHEM_FEATURE_SELFOVERLAP>
55.824

> <PUBCHEM_SHAPE_FINGERPRINT>
10670039 82 18337973250594172932
10930396 42 17977072959591353608
11315621 136 17694208273171602791
11488393 25 17542241489640921259
12107698 1 18408037408512438802
12403260 363 18334575703592249970
12422481 6 18196958628772573937
12788726 201 18191575372940960571
13165053 371 18057321906803453921
13911987 19 18043265723618880526
14251764 38 18337671902455785884
14840074 17 18059579160296520655
14955137 171 18124597745608066635
15276724 80 18267870484771140485
15961568 22 18336833099579640356
17349148 13 17022913336763772850
17980427 23 17988376965637319803
20775438 99 17835487493708082437
21049683 271 18116719719378656357
23227448 37 18122626054871687388
23557571 272 18409727331365518143
23558518 356 18261403195773019264
23559900 14 17479169770155490702
283562 15 18335419071359092624
3493558 16 17821726165183775069
3886686 26 17613968839322073706
5283173 99 18187074027928496021
6004065 56 18052249897690850453
6913067 236 18343575253051586530
7399639 24 18271232933147514992
9777508 108 18193558857040888588

> <PUBCHEM_SHAPE_MULTIPOLES>
538.69
10.37
5.57
1.4
4.4
7.64
-0.26
-6.42
0.5
-4.33
-0.82
0.12
-0.01
0.94

> <PUBCHEM_SHAPE_SELFOVERLAP>
1143.26

> <PUBCHEM_SHAPE_VOLUME>
300.3

> <PUBCHEM_COORDINATE_TYPE>
2
5
10

$$$$
