75536084
  -OEChem-12032416293D

 45 48  0     1  0  0  0  0  0999 V2000
   -2.9987   -1.6872   -1.1515 S   0  0  0  0  0  0  0  0  0  0  0  0
    5.3350   -2.7758   -1.1970 F   0  0  0  0  0  0  0  0  0  0  0  0
    5.3689   -3.2225    0.9307 F   0  0  0  0  0  0  0  0  0  0  0  0
    3.7731   -4.0036   -0.3132 F   0  0  0  0  0  0  0  0  0  0  0  0
   -0.1332    4.2918   -1.2342 O   0  0  0  0  0  0  0  0  0  0  0  0
    2.5767    4.0483   -0.8643 O   0  0  0  0  0  0  0  0  0  0  0  0
   -0.3603   -0.3144   -1.3630 O   0  0  0  0  0  0  0  0  0  0  0  0
   -0.8455    1.5209   -0.0304 N   0  0  0  0  0  0  0  0  0  0  0  0
    2.9084   -1.6850    1.2295 N   0  0  0  0  0  0  0  0  0  0  0  0
   -3.4108    0.4127    0.2883 N   0  0  0  0  0  0  0  0  0  0  0  0
    1.3983    1.7865    0.9844 C   0  0  2  0  0  0  0  0  0  0  0  0
    0.4346    2.1696   -0.1614 C   0  0  2  0  0  0  0  0  0  0  0  0
    0.3200    3.6882   -0.0371 C   0  0  1  0  0  0  0  0  0  0  0  0
    2.2156    3.0671    1.2949 C   0  0  0  0  0  0  0  0  0  0  0  0
    1.7453    4.1169    0.2901 C   0  0  1  0  0  0  0  0  0  0  0  0
    2.2419    0.5698    0.6669 C   0  0  0  0  0  0  0  0  0  0  0  0
    3.1007    0.5588   -0.4266 C   0  0  0  0  0  0  0  0  0  0  0  0
    2.1829   -0.5670    1.4568 C   0  0  0  0  0  0  0  0  0  0  0  0
   -1.1395    0.3147   -0.6520 C   0  0  0  0  0  0  0  0  0  0  0  0
    3.8635   -0.5730   -0.6931 C   0  0  0  0  0  0  0  0  0  0  0  0
    3.7320   -1.6587    0.1576 C   0  0  0  0  0  0  0  0  0  0  0  0
   -2.5131   -0.2098   -0.4394 C   0  0  0  0  0  0  0  0  0  0  0  0
    4.5346   -2.8909   -0.0980 C   0  0  0  0  0  0  0  0  0  0  0  0
   -4.5576   -1.5076   -0.4370 C   0  0  0  0  0  0  0  0  0  0  0  0
   -4.5890   -0.3195    0.2992 C   0  0  0  0  0  0  0  0  0  0  0  0
   -5.6725   -2.3571   -0.5217 C   0  0  0  0  0  0  0  0  0  0  0  0
   -5.7796    0.0285    0.9734 C   0  0  0  0  0  0  0  0  0  0  0  0
   -6.8382   -1.9894    0.1548 C   0  0  0  0  0  0  0  0  0  0  0  0
   -6.8933   -0.8125    0.8933 C   0  0  0  0  0  0  0  0  0  0  0  0
    0.8079    1.5622    1.8850 H   0  0  0  0  0  0  0  0  0  0  0  0
    0.8358    1.9146   -1.1501 H   0  0  0  0  0  0  0  0  0  0  0  0
   -0.3623    3.9647    0.7767 H   0  0  0  0  0  0  0  0  0  0  0  0
    1.9622    3.4007    2.3091 H   0  0  0  0  0  0  0  0  0  0  0  0
    3.2982    2.9056    1.2600 H   0  0  0  0  0  0  0  0  0  0  0  0
    1.7933    5.1380    0.6801 H   0  0  0  0  0  0  0  0  0  0  0  0
   -1.5463    1.9476    0.5693 H   0  0  0  0  0  0  0  0  0  0  0  0
   -0.0894    5.2552   -1.1099 H   0  0  0  0  0  0  0  0  0  0  0  0
    3.4773    4.2927   -0.5907 H   0  0  0  0  0  0  0  0  0  0  0  0
    3.1934    1.4199   -1.0808 H   0  0  0  0  0  0  0  0  0  0  0  0
    1.5320   -0.6223    2.3238 H   0  0  0  0  0  0  0  0  0  0  0  0
    4.5339   -0.5823   -1.5454 H   0  0  0  0  0  0  0  0  0  0  0  0
   -5.6368   -3.2776   -1.0964 H   0  0  0  0  0  0  0  0  0  0  0  0
   -5.8336    0.9456    1.5533 H   0  0  0  0  0  0  0  0  0  0  0  0
   -7.7126   -2.6328    0.1021 H   0  0  0  0  0  0  0  0  0  0  0  0
   -7.8086   -0.5427    1.4130 H   0  0  0  0  0  0  0  0  0  0  0  0
  1 22  1  0  0  0  0
  1 24  1  0  0  0  0
  2 23  1  0  0  0  0
  3 23  1  0  0  0  0
  4 23  1  0  0  0  0
  5 13  1  0  0  0  0
  5 37  1  0  0  0  0
  6 15  1  0  0  0  0
  6 38  1  0  0  0  0
  7 19  2  0  0  0  0
  8 12  1  0  0  0  0
  8 19  1  0  0  0  0
  8 36  1  0  0  0  0
  9 18  1  0  0  0  0
  9 21  2  0  0  0  0
 10 22  2  0  0  0  0
 10 25  1  0  0  0  0
 11 12  1  0  0  0  0
 11 14  1  0  0  0  0
 11 16  1  0  0  0  0
 11 30  1  0  0  0  0
 12 13  1  0  0  0  0
 12 31  1  0  0  0  0
 13 15  1  0  0  0  0
 13 32  1  0  0  0  0
 14 15  1  0  0  0  0
 14 33  1  0  0  0  0
 14 34  1  0  0  0  0
 15 35  1  0  0  0  0
 16 17  1  0  0  0  0
 16 18  2  0  0  0  0
 17 20  2  0  0  0  0
 17 39  1  0  0  0  0
 18 40  1  0  0  0  0
 19 22  1  0  0  0  0
 20 21  1  0  0  0  0
 20 41  1  0  0  0  0
 21 23  1  0  0  0  0
 24 25  1  0  0  0  0
 24 26  2  0  0  0  0
 25 27  2  0  0  0  0
 26 28  1  0  0  0  0
 26 42  1  0  0  0  0
 27 29  1  0  0  0  0
 27 43  1  0  0  0  0
 28 29  2  0  0  0  0
 28 44  1  0  0  0  0
 29 45  1  0  0  0  0
M  END
> <PUBCHEM_COMPOUND_CID>
75536084

> <PUBCHEM_CONFORMER_RMSD>
0.8

> <PUBCHEM_CONFORMER_DIVERSEORDER>
1
43
29
9
26
35
18
12
32
16
41
21
2
22
33
30
44
37
39
34
45
27
7
3
11
40
8
38
23
6
31
42
15
36
24
4
28
13
5
10
25
14
17
19
20

> <PUBCHEM_MMFF94_PARTIAL_CHARGES>
38
1 -0.08
10 -0.57
11 0.14
12 0.3
13 0.28
15 0.28
16 -0.14
17 -0.15
18 0.16
19 0.71
2 -0.34
20 -0.15
21 0.17
22 0.29
23 1.16
24 0.04
25 0.23
26 -0.15
27 -0.15
28 -0.15
29 -0.15
3 -0.34
36 0.37
37 0.4
38 0.4
39 0.15
4 -0.34
40 0.15
41 0.15
42 0.15
43 0.15
44 0.15
45 0.15
5 -0.68
6 -0.68
7 -0.57
8 -0.73
9 -0.62

> <PUBCHEM_EFFECTIVE_ROTOR_COUNT>
6

> <PUBCHEM_PHARMACOPHORE_FEATURES>
12
1 10 acceptor
1 5 acceptor
1 5 donor
1 6 acceptor
1 6 donor
1 7 acceptor
1 8 donor
1 9 acceptor
5 1 10 22 24 25 rings
5 11 12 13 14 15 rings
6 24 25 26 27 28 29 rings
6 9 16 17 18 20 21 rings

> <PUBCHEM_HEAVY_ATOM_COUNT>
29

> <PUBCHEM_ATOM_DEF_STEREO_COUNT>
4

> <PUBCHEM_ATOM_UDEF_STEREO_COUNT>
0

> <PUBCHEM_BOND_DEF_STEREO_COUNT>
0

> <PUBCHEM_BOND_UDEF_STEREO_COUNT>
0

> <PUBCHEM_ISOTOPIC_ATOM_COUNT>
0

> <PUBCHEM_COMPONENT_COUNT>
1

> <PUBCHEM_CACTVS_TAUTO_COUNT>
2

> <PUBCHEM_CONFORMER_ID>
048096D400000001

> <PUBCHEM_MMFF94_ENERGY>
65.5103

> <PUBCHEM_FEATURE_SELFOVERLAP>
60.981

> <PUBCHEM_SHAPE_FINGERPRINT>
10483366 6 18264784327805673140
10554248 39 18339630262003958741
10928967 22 18260814991433600891
11059845 2 17415861093455707025
117089 54 18268158560533486167
11954058 11 18410293644505367671
11991303 11 17391069236405976221
12107183 9 18271254807568804601
12553582 1 18338785745887956742
12788726 201 17901103027759890106
13009979 54 18060426780809194497
13533116 47 18339079423499634755
13673619 4 18113901537632142815
13690498 29 18114744824353607183
13692114 37 17547841310586660650
13785724 45 18270973349117802591
13911852 28 18339077090879115119
13955234 65 18197777914995423545
14251764 30 18337954493564798211
14739800 52 17273129322767424801
14863182 85 18194392532127256224
14866123 147 17980761541649754289
15042514 8 18052539872292042084
15250474 111 17912915373583627503
15927050 60 17909833472159954102
16992752 21 18269286677586465366
17349148 13 17632299025517738245
17492 89 18339921623610333611
17818456 19 17989496225488053129
1813 80 18341620286769190580
19319366 153 17767685319155608177
20505436 4 17485652877001264045
20775438 99 18047740778925886867
20775530 9 18338505340548143494
21049683 271 18410015459890408476
21421861 104 18339352092992081233
21716022 299 18263383463728557164
22033318 11 18055668112592562153
2260408 40 18130495427005429304
22950370 63 18410859823878484907
23559900 14 18339634633900779355
3117164 225 18413672409841644721
3421961 26 18412822516616590480
345986 75 17847065475639285529
34797466 226 16371009671872639327
3680242 22 18201452423711819833
4073 2 17975135650104094331
4144715 1 18114746053611123825
4394409 98 15311273508423785462
4409770 3 17831013525145008589
44880168 125 17059489609217340430
4516262 110 18050842523309120053
46194498 28 17530964738807632773
465052 167 18343306972177323655
5104073 3 18059025011770540011
5309563 4 18339358561223488687
54039377 194 18337677395819645518
56633871 153 18059570244251064471
70251023 43 18335706022413785376
7970288 3 18338795598438159874
8272917 22 18120371214368920941
86090 222 17313386777272073699
9555976 147 17346328111660636539
9962374 69 18269545191331115631

> <PUBCHEM_SHAPE_MULTIPOLES>
546.28
14.37
5.34
1.2
22.84
2.67
-0.07
-14.48
-2.04
-9.59
0.74
-0.28
0.06
-0.41

> <PUBCHEM_SHAPE_SELFOVERLAP>
1185.582

> <PUBCHEM_SHAPE_VOLUME>
301.6

> <PUBCHEM_COORDINATE_TYPE>
2
5
10

$$$$
