51138118
  -OEChem-12032416223D

 68 71  0     1  0  0  0  0  0999 V2000
   -1.0285    1.9359   -2.1103 O   0  0  0  0  0  0  0  0  0  0  0  0
   -7.3396    1.5916    1.3777 O   0  0  0  0  0  0  0  0  0  0  0  0
    0.3083   -0.2573   -0.9193 N   0  0  0  0  0  0  0  0  0  0  0  0
    4.9783    1.1310    0.4102 N   0  0  0  0  0  0  0  0  0  0  0  0
   -1.7433    2.1891    0.0908 N   0  0  0  0  0  0  0  0  0  0  0  0
   -5.5891    0.2057    0.6314 N   0  0  0  0  0  0  0  0  0  0  0  0
    0.7993   -1.3157   -0.0267 C   0  0  2  0  0  0  0  0  0  0  0  0
    0.3333    1.0811   -0.3469 C   0  0  1  0  0  0  0  0  0  0  0  0
    2.2750   -1.2221    0.3741 C   0  0  0  0  0  0  0  0  0  0  0  0
    3.0886   -0.0597    0.2428 C   0  0  0  0  0  0  0  0  0  0  0  0
    1.5843    1.8488   -0.7696 C   0  0  0  0  0  0  0  0  0  0  0  0
    0.4693   -2.6280   -0.7606 C   0  0  0  0  0  0  0  0  0  0  0  0
    2.8544    1.2759   -0.2359 C   0  0  0  0  0  0  0  0  0  0  0  0
    4.4237   -0.1018    0.6610 C   0  0  0  0  0  0  0  0  0  0  0  0
   -1.0118   -3.0080   -0.6702 C   0  0  0  0  0  0  0  0  0  0  0  0
    4.0433    1.9680   -0.1230 C   0  0  0  0  0  0  0  0  0  0  0  0
    2.8813   -2.3425    0.9974 C   0  0  0  0  0  0  0  0  0  0  0  0
   -0.8759    1.7689   -0.9031 C   0  0  0  0  0  0  0  0  0  0  0  0
    5.0158   -1.2304    1.2303 C   0  0  0  0  0  0  0  0  0  0  0  0
    4.2141   -2.3512    1.4041 C   0  0  0  0  0  0  0  0  0  0  0  0
   -1.9306   -1.9461   -1.2759 C   0  0  0  0  0  0  0  0  0  0  0  0
   -1.2333   -4.3475   -1.3766 C   0  0  0  0  0  0  0  0  0  0  0  0
    6.3479    1.5103    0.6844 C   0  0  0  0  0  0  0  0  0  0  0  0
   -2.9728    2.8982   -0.1809 C   0  0  0  0  0  0  0  0  0  0  0  0
   -4.1612    1.9586   -0.3739 C   0  0  0  0  0  0  0  0  0  0  0  0
   -4.4407    1.0627    0.8310 C   0  0  0  0  0  0  0  0  0  0  0  0
   -5.4699   -1.0810   -0.0124 C   0  0  0  0  0  0  0  0  0  0  0  0
   -6.7895   -1.7517    0.3123 C   0  0  0  0  0  0  0  0  0  0  0  0
   -7.7730   -0.5924    0.4187 C   0  0  0  0  0  0  0  0  0  0  0  0
   -6.9117    0.5529    0.8970 C   0  0  0  0  0  0  0  0  0  0  0  0
    7.3000    1.0201   -0.3662 C   0  0  0  0  0  0  0  0  0  0  0  0
    8.3539    0.2366   -0.1114 C   0  0  0  0  0  0  0  0  0  0  0  0
    0.2259   -1.2880    0.9101 H   0  0  0  0  0  0  0  0  0  0  0  0
    0.2706    1.0419    0.7481 H   0  0  0  0  0  0  0  0  0  0  0  0
    1.6600    1.8996   -1.8648 H   0  0  0  0  0  0  0  0  0  0  0  0
    1.4932    2.8893   -0.4284 H   0  0  0  0  0  0  0  0  0  0  0  0
    1.0295   -3.4757   -0.3558 H   0  0  0  0  0  0  0  0  0  0  0  0
    0.7868   -2.5705   -1.8125 H   0  0  0  0  0  0  0  0  0  0  0  0
    0.7925   -0.2836   -1.8159 H   0  0  0  0  0  0  0  0  0  0  0  0
   -1.2862   -3.1397    0.3843 H   0  0  0  0  0  0  0  0  0  0  0  0
    4.2868    2.9905   -0.3807 H   0  0  0  0  0  0  0  0  0  0  0  0
    2.3014   -3.2373    1.2115 H   0  0  0  0  0  0  0  0  0  0  0  0
    6.0507   -1.2402    1.5536 H   0  0  0  0  0  0  0  0  0  0  0  0
    4.6276   -3.2405    1.8725 H   0  0  0  0  0  0  0  0  0  0  0  0
   -2.9425   -2.3490   -1.4002 H   0  0  0  0  0  0  0  0  0  0  0  0
   -2.0367   -1.0776   -0.6204 H   0  0  0  0  0  0  0  0  0  0  0  0
   -1.5923   -1.6266   -2.2671 H   0  0  0  0  0  0  0  0  0  0  0  0
   -0.6087   -5.1314   -0.9352 H   0  0  0  0  0  0  0  0  0  0  0  0
   -2.2769   -4.6676   -1.2863 H   0  0  0  0  0  0  0  0  0  0  0  0
   -0.9915   -4.2801   -2.4430 H   0  0  0  0  0  0  0  0  0  0  0  0
    6.3927    2.6050    0.7275 H   0  0  0  0  0  0  0  0  0  0  0  0
    6.6043    1.1440    1.6851 H   0  0  0  0  0  0  0  0  0  0  0  0
   -1.5262    1.9976    1.0641 H   0  0  0  0  0  0  0  0  0  0  0  0
   -2.8392    3.5127   -1.0779 H   0  0  0  0  0  0  0  0  0  0  0  0
   -3.1531    3.5696    0.6652 H   0  0  0  0  0  0  0  0  0  0  0  0
   -3.9834    1.3276   -1.2542 H   0  0  0  0  0  0  0  0  0  0  0  0
   -5.0521    2.5579   -0.5992 H   0  0  0  0  0  0  0  0  0  0  0  0
   -4.6466    1.6969    1.7013 H   0  0  0  0  0  0  0  0  0  0  0  0
   -3.5801    0.4311    1.0751 H   0  0  0  0  0  0  0  0  0  0  0  0
   -4.6196   -1.6383    0.3897 H   0  0  0  0  0  0  0  0  0  0  0  0
   -5.3440   -0.9230   -1.0882 H   0  0  0  0  0  0  0  0  0  0  0  0
   -6.7189   -2.2590    1.2827 H   0  0  0  0  0  0  0  0  0  0  0  0
   -7.0839   -2.4949   -0.4340 H   0  0  0  0  0  0  0  0  0  0  0  0
   -8.5757   -0.8035    1.1291 H   0  0  0  0  0  0  0  0  0  0  0  0
   -8.1926   -0.3326   -0.5582 H   0  0  0  0  0  0  0  0  0  0  0  0
    7.1249    1.3380   -1.3911 H   0  0  0  0  0  0  0  0  0  0  0  0
    9.0108   -0.0789   -0.9145 H   0  0  0  0  0  0  0  0  0  0  0  0
    8.5786   -0.1023    0.8938 H   0  0  0  0  0  0  0  0  0  0  0  0
  1 18  2  0  0  0  0
  2 30  2  0  0  0  0
  3  7  1  0  0  0  0
  3  8  1  0  0  0  0
  3 39  1  0  0  0  0
  4 14  1  0  0  0  0
  4 16  1  0  0  0  0
  4 23  1  0  0  0  0
  5 18  1  0  0  0  0
  5 24  1  0  0  0  0
  5 53  1  0  0  0  0
  6 26  1  0  0  0  0
  6 27  1  0  0  0  0
  6 30  1  0  0  0  0
  7  9  1  0  0  0  0
  7 12  1  0  0  0  0
  7 33  1  0  0  0  0
  8 11  1  0  0  0  0
  8 18  1  0  0  0  0
  8 34  1  0  0  0  0
  9 10  2  0  0  0  0
  9 17  1  0  0  0  0
 10 13  1  0  0  0  0
 10 14  1  0  0  0  0
 11 13  1  0  0  0  0
 11 35  1  0  0  0  0
 11 36  1  0  0  0  0
 12 15  1  0  0  0  0
 12 37  1  0  0  0  0
 12 38  1  0  0  0  0
 13 16  2  0  0  0  0
 14 19  2  0  0  0  0
 15 21  1  0  0  0  0
 15 22  1  0  0  0  0
 15 40  1  0  0  0  0
 16 41  1  0  0  0  0
 17 20  2  0  0  0  0
 17 42  1  0  0  0  0
 19 20  1  0  0  0  0
 19 43  1  0  0  0  0
 20 44  1  0  0  0  0
 21 45  1  0  0  0  0
 21 46  1  0  0  0  0
 21 47  1  0  0  0  0
 22 48  1  0  0  0  0
 22 49  1  0  0  0  0
 22 50  1  0  0  0  0
 23 31  1  0  0  0  0
 23 51  1  0  0  0  0
 23 52  1  0  0  0  0
 24 25  1  0  0  0  0
 24 54  1  0  0  0  0
 24 55  1  0  0  0  0
 25 26  1  0  0  0  0
 25 56  1  0  0  0  0
 25 57  1  0  0  0  0
 26 58  1  0  0  0  0
 26 59  1  0  0  0  0
 27 28  1  0  0  0  0
 27 60  1  0  0  0  0
 27 61  1  0  0  0  0
 28 29  1  0  0  0  0
 28 62  1  0  0  0  0
 28 63  1  0  0  0  0
 29 30  1  0  0  0  0
 29 64  1  0  0  0  0
 29 65  1  0  0  0  0
 31 32  2  0  0  0  0
 31 66  1  0  0  0  0
 32 67  1  0  0  0  0
 32 68  1  0  0  0  0
M  END
> <PUBCHEM_COMPOUND_CID>
51138118

> <PUBCHEM_CONFORMER_RMSD>
1.2

> <PUBCHEM_CONFORMER_DIVERSEORDER>
1
109
82
31
56
38
93
63
2
16
78
81
118
21
110
95
102
121
68
123
70
99
85
74
115
113
43
66
19
22
58
34
40
77
35
91
11
45
44
20
33
101
50
89
37
25
87
4
72
97
79
10
75
18
29
84
65
57
116
55
24
71
119
41
62
59
117
12
76
9
49
5
104
52
60
36
8
98
103
23
86
51
47
107
42
108
90
39
6
27
3
122
96
17
88
73
46
92
61
32
28
106
69
67
64
120
105
80
13
15
124
100
54
26
112
114
7
94
48
53
111
30
14
83

> <PUBCHEM_MMFF94_PARTIAL_CHARGES>
34
1 -0.57
11 0.18
13 -0.18
14 -0.15
16 -0.3
17 -0.15
18 0.57
19 -0.15
2 -0.57
20 -0.15
23 0.39
24 0.3
26 0.3
27 0.3
29 0.06
3 -0.9
30 0.57
31 -0.29
32 -0.3
39 0.36
4 0.05
41 0.15
42 0.15
43 0.15
44 0.15
5 -0.73
53 0.37
6 -0.66
66 0.15
67 0.15
68 0.15
7 0.41
8 0.33
9 -0.14

> <PUBCHEM_EFFECTIVE_ROTOR_COUNT>
11.6

> <PUBCHEM_PHARMACOPHORE_FEATURES>
12
1 1 acceptor
1 2 acceptor
1 3 cation
1 3 donor
1 32 hydrophobe
1 4 cation
1 5 donor
3 15 21 22 hydrophobe
5 4 10 13 14 16 rings
5 6 27 28 29 30 rings
6 9 10 14 17 19 20 rings
7 3 7 8 9 10 11 13 rings

> <PUBCHEM_HEAVY_ATOM_COUNT>
32

> <PUBCHEM_ATOM_DEF_STEREO_COUNT>
2

> <PUBCHEM_ATOM_UDEF_STEREO_COUNT>
0

> <PUBCHEM_BOND_DEF_STEREO_COUNT>
0

> <PUBCHEM_BOND_UDEF_STEREO_COUNT>
0

> <PUBCHEM_ISOTOPIC_ATOM_COUNT>
0

> <PUBCHEM_COMPONENT_COUNT>
1

> <PUBCHEM_CACTVS_TAUTO_COUNT>
4

> <PUBCHEM_CONFORMER_ID>
030C4E4600000001

> <PUBCHEM_MMFF94_ENERGY>
56.8083

> <PUBCHEM_FEATURE_SELFOVERLAP>
61.026

> <PUBCHEM_SHAPE_FINGERPRINT>
10190108 129 18040713680507072886
10939801 23 18338236067214558201
11578080 2 17629746019420894400
12422481 6 18337952295052881743
14394314 77 18412830188241090849
1454969 45 18114187457910840228
15131766 46 15143240081610074390
15274700 208 17273686766609442880
15297060 5 17917716829108644339
16112460 7 18341898476159457339
18608769 82 18411135861890725080
20028762 73 18341894065634739287
21133410 90 17345199011807681411
21197605 99 18407761438750534363
21583282 1 17387710524298053588
350125 39 18410007750149461088
392239 28 18131637790202594097
5104073 3 18265045838798575913
9896288 288 17986962846970147681
9982175 49 18043815500976346093

> <PUBCHEM_SHAPE_MULTIPOLES>
626.88
20.23
3.83
1.24
9.35
2.61
-0.14
-4.88
7.5
1.52
-1.13
0.27
0.29
-1.62

> <PUBCHEM_SHAPE_SELFOVERLAP>
1320.034

> <PUBCHEM_SHAPE_VOLUME>
354.3

> <PUBCHEM_COORDINATE_TYPE>
2
5
10

$$$$
