11882498
  -OEChem-12032416163D

 64 67  0     1  0  0  0  0  0999 V2000
   -1.3104    3.6014    0.9881 S   0  0  0  0  0  0  0  0  0  0  0  0
    0.3899    5.4111   -0.5551 S   0  0  0  0  0  0  0  0  0  0  0  0
    6.9338   -1.5873   -0.3256 S   0  0  0  0  0  0  0  0  0  0  0  0
    0.0053   -1.0649   -1.3777 O   0  0  0  0  0  0  0  0  0  0  0  0
    2.7194   -3.0393    0.4146 O   0  0  0  0  0  0  0  0  0  0  0  0
   -1.4800    4.7726    1.8259 O   0  0  0  0  0  0  0  0  0  0  0  0
   -2.4222    2.7196    0.6907 O   0  0  0  0  0  0  0  0  0  0  0  0
   -0.7583   -4.9048   -0.6463 O   0  0  0  0  0  0  0  0  0  0  0  0
    2.1109   -0.7968    0.2620 N   0  0  0  0  0  0  0  0  0  0  0  0
   -0.0052    2.6652    1.5771 N   0  0  0  0  0  0  0  0  0  0  0  0
   -1.0987   -2.3248    0.2388 N   0  0  0  0  0  0  0  0  0  0  0  0
    4.9140   -0.3023    0.6500 N   0  0  0  0  0  0  0  0  0  0  0  0
   -2.0094   -4.3947   -2.5039 N   0  0  0  0  0  0  0  0  0  0  0  0
    0.4104    1.5233    0.7972 C   0  0  2  0  0  0  0  0  0  0  0  0
    0.2544    0.2314    1.6029 C   0  0  0  0  0  0  0  0  0  0  0  0
    0.7933   -0.9998    0.8765 C   0  0  1  0  0  0  0  0  0  0  0  0
    1.8580    1.6782    0.3381 C   0  0  0  0  0  0  0  0  0  0  0  0
    2.3166    0.4672   -0.4666 C   0  0  0  0  0  0  0  0  0  0  0  0
   -0.1226   -1.4575   -0.2209 C   0  0  0  0  0  0  0  0  0  0  0  0
    3.0408   -1.8569    0.2972 C   0  0  0  0  0  0  0  0  0  0  0  0
   -2.1184   -2.8912   -0.6144 C   0  0  2  0  0  0  0  0  0  0  0  0
    4.4545   -1.5156    0.1822 C   0  0  0  0  0  0  0  0  0  0  0  0
   -0.8284    4.2299   -0.6201 C   0  0  0  0  0  0  0  0  0  0  0  0
   -3.4054   -3.2155    0.1546 C   0  0  0  0  0  0  0  0  0  0  0  0
   -1.5346   -4.1537   -1.2318 C   0  0  0  0  0  0  0  0  0  0  0  0
    5.3973   -2.3472   -0.3793 C   0  0  0  0  0  0  0  0  0  0  0  0
   -4.2636   -2.0078    0.4022 C   0  0  0  0  0  0  0  0  0  0  0  0
   -1.2532    3.9400   -1.8728 C   0  0  0  0  0  0  0  0  0  0  0  0
    6.2088   -0.2305    0.4347 C   0  0  0  0  0  0  0  0  0  0  0  0
   -0.5542    4.7169   -2.8412 C   0  0  0  0  0  0  0  0  0  0  0  0
    0.3686    5.5590   -2.2608 C   0  0  0  0  0  0  0  0  0  0  0  0
   -4.0805   -1.2609    1.5597 C   0  0  0  0  0  0  0  0  0  0  0  0
   -5.2310   -1.6498   -0.5290 C   0  0  0  0  0  0  0  0  0  0  0  0
    7.0553    0.9256    0.8020 C   0  0  0  0  0  0  0  0  0  0  0  0
   -4.8772   -0.1392    1.7896 C   0  0  0  0  0  0  0  0  0  0  0  0
   -6.0275   -0.5281   -0.2990 C   0  0  0  0  0  0  0  0  0  0  0  0
   -5.8506    0.2272    0.8604 C   0  0  0  0  0  0  0  0  0  0  0  0
   -0.2182    1.4290   -0.0965 H   0  0  0  0  0  0  0  0  0  0  0  0
    0.8010    0.3409    2.5499 H   0  0  0  0  0  0  0  0  0  0  0  0
   -0.7994    0.0886    1.8741 H   0  0  0  0  0  0  0  0  0  0  0  0
    0.8876   -1.8127    1.6083 H   0  0  0  0  0  0  0  0  0  0  0  0
    1.9716    2.5816   -0.2714 H   0  0  0  0  0  0  0  0  0  0  0  0
    2.5150    1.8039    1.2089 H   0  0  0  0  0  0  0  0  0  0  0  0
    3.3509    0.5966   -0.7868 H   0  0  0  0  0  0  0  0  0  0  0  0
    1.7538    0.4191   -1.4036 H   0  0  0  0  0  0  0  0  0  0  0  0
    0.7225    3.1370    2.1282 H   0  0  0  0  0  0  0  0  0  0  0  0
   -1.0775   -2.6221    1.2101 H   0  0  0  0  0  0  0  0  0  0  0  0
   -2.3224   -2.1741   -1.4202 H   0  0  0  0  0  0  0  0  0  0  0  0
   -3.1723   -3.7070    1.1092 H   0  0  0  0  0  0  0  0  0  0  0  0
   -3.9994   -3.9536   -0.4020 H   0  0  0  0  0  0  0  0  0  0  0  0
    5.2715   -3.3318   -0.8076 H   0  0  0  0  0  0  0  0  0  0  0  0
   -2.0200    3.2141   -2.1093 H   0  0  0  0  0  0  0  0  0  0  0  0
   -0.7194    4.6607   -3.9093 H   0  0  0  0  0  0  0  0  0  0  0  0
    1.0315    6.2538   -2.7570 H   0  0  0  0  0  0  0  0  0  0  0  0
   -3.3249   -1.5360    2.2902 H   0  0  0  0  0  0  0  0  0  0  0  0
   -5.3754   -2.2291   -1.4367 H   0  0  0  0  0  0  0  0  0  0  0  0
   -2.6691   -3.7773   -2.9662 H   0  0  0  0  0  0  0  0  0  0  0  0
   -1.7102   -5.2123   -3.0248 H   0  0  0  0  0  0  0  0  0  0  0  0
    6.4514    1.7098    1.2702 H   0  0  0  0  0  0  0  0  0  0  0  0
    7.5352    1.3582   -0.0817 H   0  0  0  0  0  0  0  0  0  0  0  0
    7.8324    0.6328    1.5154 H   0  0  0  0  0  0  0  0  0  0  0  0
   -4.7382    0.4497    2.6915 H   0  0  0  0  0  0  0  0  0  0  0  0
   -6.7848   -0.2419   -1.0230 H   0  0  0  0  0  0  0  0  0  0  0  0
   -6.4701    1.1012    1.0390 H   0  0  0  0  0  0  0  0  0  0  0  0
  1  6  2  0  0  0  0
  1  7  2  0  0  0  0
  1 10  1  0  0  0  0
  1 23  1  0  0  0  0
  2 23  1  0  0  0  0
  2 31  1  0  0  0  0
  3 26  1  0  0  0  0
  3 29  1  0  0  0  0
  4 19  2  0  0  0  0
  5 20  2  0  0  0  0
  8 25  2  0  0  0  0
  9 16  1  0  0  0  0
  9 18  1  0  0  0  0
  9 20  1  0  0  0  0
 10 14  1  0  0  0  0
 10 46  1  0  0  0  0
 11 19  1  0  0  0  0
 11 21  1  0  0  0  0
 11 47  1  0  0  0  0
 12 22  1  0  0  0  0
 12 29  2  0  0  0  0
 13 25  1  0  0  0  0
 13 57  1  0  0  0  0
 13 58  1  0  0  0  0
 14 15  1  0  0  0  0
 14 17  1  0  0  0  0
 14 38  1  0  0  0  0
 15 16  1  0  0  0  0
 15 39  1  0  0  0  0
 15 40  1  0  0  0  0
 16 19  1  0  0  0  0
 16 41  1  0  0  0  0
 17 18  1  0  0  0  0
 17 42  1  0  0  0  0
 17 43  1  0  0  0  0
 18 44  1  0  0  0  0
 18 45  1  0  0  0  0
 20 22  1  0  0  0  0
 21 24  1  0  0  0  0
 21 25  1  0  0  0  0
 21 48  1  0  0  0  0
 22 26  2  0  0  0  0
 23 28  2  0  0  0  0
 24 27  1  0  0  0  0
 24 49  1  0  0  0  0
 24 50  1  0  0  0  0
 26 51  1  0  0  0  0
 27 32  2  0  0  0  0
 27 33  1  0  0  0  0
 28 30  1  0  0  0  0
 28 52  1  0  0  0  0
 29 34  1  0  0  0  0
 30 31  2  0  0  0  0
 30 53  1  0  0  0  0
 31 54  1  0  0  0  0
 32 35  1  0  0  0  0
 32 55  1  0  0  0  0
 33 36  2  0  0  0  0
 33 56  1  0  0  0  0
 34 59  1  0  0  0  0
 34 60  1  0  0  0  0
 34 61  1  0  0  0  0
 35 37  2  0  0  0  0
 35 62  1  0  0  0  0
 36 37  1  0  0  0  0
 36 63  1  0  0  0  0
 37 64  1  0  0  0  0
M  END
> <PUBCHEM_COMPOUND_CID>
11882498

> <PUBCHEM_CONFORMER_RMSD>
1.2

> <PUBCHEM_CONFORMER_DIVERSEORDER>
1
90
79
156
97
119
104
151
77
3
92
108
99
146
60
96
84
133
162
43
118
106
15
8
30
58
152
37
161
141
78
87
113
81
70
116
148
55
72
69
123
136
11
49
144
66
62
80
128
83
27
88
95
40
14
28
19
124
4
67
127
52
134
155
103
85
86
157
34
16
145
61
32
129
64
59
56
115
125
102
101
74
9
153
137
38
18
114
6
5
36
71
94
73
131
20
132
163
23
93
51
44
154
63
54
65
75
48
121
68
89
126
76
50
46
21
147
22
112
33
135
82
120
24
138
29
57
107
143
2
25
12
35
42
110
91
111
160
53
158
10
139
109
149
100
26
117
31
105
47
45
150
13
98
142
41
39
7
159
17
130
122
140

> <PUBCHEM_MMFF94_PARTIAL_CHARGES>
48
1 1.5
10 -0.91
11 -0.73
12 -0.57
13 -0.8
14 0.36
16 0.36
18 0.3
19 0.57
2 -0.08
20 0.72
21 0.36
22 0.14
23 -0.02
24 0.14
25 0.57
26 -0.11
27 -0.14
28 -0.15
29 0.2
3 -0.08
30 -0.15
31 -0.11
32 -0.15
33 -0.15
34 0.18
35 -0.15
36 -0.15
37 -0.15
4 -0.57
46 0.42
47 0.37
5 -0.57
51 0.15
52 0.15
53 0.15
54 0.15
55 0.15
56 0.15
57 0.37
58 0.37
6 -0.65
62 0.15
63 0.15
64 0.15
7 -0.65
8 -0.57
9 -0.66

> <PUBCHEM_EFFECTIVE_ROTOR_COUNT>
12.2

> <PUBCHEM_PHARMACOPHORE_FEATURES>
13
1 10 donor
1 11 donor
1 12 acceptor
1 13 donor
1 4 acceptor
1 5 acceptor
1 6 acceptor
1 7 acceptor
1 8 acceptor
5 2 23 28 30 31 rings
5 3 12 22 26 29 rings
6 27 32 33 35 36 37 rings
6 9 14 15 16 17 18 rings

> <PUBCHEM_HEAVY_ATOM_COUNT>
37

> <PUBCHEM_ATOM_DEF_STEREO_COUNT>
3

> <PUBCHEM_ATOM_UDEF_STEREO_COUNT>
0

> <PUBCHEM_BOND_DEF_STEREO_COUNT>
0

> <PUBCHEM_BOND_UDEF_STEREO_COUNT>
0

> <PUBCHEM_ISOTOPIC_ATOM_COUNT>
0

> <PUBCHEM_COMPONENT_COUNT>
1

> <PUBCHEM_CACTVS_TAUTO_COUNT>
4

> <PUBCHEM_CONFORMER_ID>
00B5500200000001

> <PUBCHEM_MMFF94_ENERGY>
77.6723

> <PUBCHEM_FEATURE_SELFOVERLAP>
65.993

> <PUBCHEM_SHAPE_FINGERPRINT>
10815517 723 18341615897212406557
10940486 97 17985826171005995286
14028597 1 17676755505959492018
14117953 113 18341052918128111749
15276724 80 18412544276272674826
15775530 1 17772153550053837856
16087824 20 18338800001549316977
16993438 75 18044372712995955413
17627616 140 17689162622515881677
21133410 38 17411627888296462001
21641784 216 18262536813783390660
23576562 1 18265323092550337639
24771293 8 18054498386891989312
25019877 29 17560809814250701383
376196 1 17250053524543443768
46939830 39 18334579070419719085
508180 173 17974251518190827175
6328613 192 18130509725231515594
6608658 132 18117586005534303708

> <PUBCHEM_SHAPE_MULTIPOLES>
718.74
12.92
8.5
1.87
13.08
10.55
-0.77
-11.02
3.26
-3.99
-5.44
-1.34
1.61
-0.74

> <PUBCHEM_SHAPE_SELFOVERLAP>
1492.498

> <PUBCHEM_SHAPE_VOLUME>
409.7

> <PUBCHEM_COORDINATE_TYPE>
2
5
10

$$$$
