75368427
  -OEChem-12032416383D

 45 48  0     1  0  0  0  0  0999 V2000
   -2.5518   -2.7333   -0.5686 O   0  0  0  0  0  0  0  0  0  0  0  0
    4.1416   -1.8469    1.2269 O   0  0  0  0  0  0  0  0  0  0  0  0
   -0.4254   -1.7465   -0.4136 N   0  0  0  0  0  0  0  0  0  0  0  0
   -2.1175   -0.5105   -1.2248 N   0  0  0  0  0  0  0  0  0  0  0  0
    2.0007   -1.0435    0.7456 N   0  0  0  0  0  0  0  0  0  0  0  0
   -4.9876    2.6239    0.5167 N   0  0  0  0  0  0  0  0  0  0  0  0
    0.1961   -0.4987   -0.8241 C   0  0  1  0  0  0  0  0  0  0  0  0
   -0.9878    0.4007   -1.1689 C   0  0  0  0  0  0  0  0  0  0  0  0
    1.0988    0.0304    0.2857 C   0  0  0  0  0  0  0  0  0  0  0  0
    0.3909   -2.8125    0.1413 C   0  0  0  0  0  0  0  0  0  0  0  0
    1.3173   -2.2547    1.2205 C   0  0  0  0  0  0  0  0  0  0  0  0
   -1.7927   -1.7852   -0.7198 C   0  0  0  0  0  0  0  0  0  0  0  0
   -3.4345   -0.0731   -1.6316 C   0  0  0  0  0  0  0  0  0  0  0  0
    3.3933   -0.9677    0.8025 C   0  0  0  0  0  0  0  0  0  0  0  0
   -4.1785    0.5892   -0.5082 C   0  0  0  0  0  0  0  0  0  0  0  0
    4.0403    0.2538    0.3065 C   0  0  0  0  0  0  0  0  0  0  0  0
   -4.7353   -0.1600    0.5223 C   0  0  0  0  0  0  0  0  0  0  0  0
   -4.3312    1.9657   -0.4650 C   0  0  0  0  0  0  0  0  0  0  0  0
    4.2763    1.3201    1.1741 C   0  0  0  0  0  0  0  0  0  0  0  0
    4.4202    0.3468   -1.0323 C   0  0  0  0  0  0  0  0  0  0  0  0
   -5.4182    0.4811    1.5501 C   0  0  0  0  0  0  0  0  0  0  0  0
    4.8922    2.4797    0.7030 C   0  0  0  0  0  0  0  0  0  0  0  0
    5.0361    1.5062   -1.5036 C   0  0  0  0  0  0  0  0  0  0  0  0
   -5.5153    1.8623    1.5012 C   0  0  0  0  0  0  0  0  0  0  0  0
    5.2720    2.5726   -0.6359 C   0  0  0  0  0  0  0  0  0  0  0  0
    0.7852   -0.7202   -1.7233 H   0  0  0  0  0  0  0  0  0  0  0  0
   -1.1840    1.1529   -0.3981 H   0  0  0  0  0  0  0  0  0  0  0  0
   -0.8575    0.8949   -2.1364 H   0  0  0  0  0  0  0  0  0  0  0  0
    1.6458    0.9084   -0.0637 H   0  0  0  0  0  0  0  0  0  0  0  0
    0.5111    0.3372    1.1599 H   0  0  0  0  0  0  0  0  0  0  0  0
    0.9773   -3.2271   -0.6865 H   0  0  0  0  0  0  0  0  0  0  0  0
   -0.2512   -3.6054    0.5366 H   0  0  0  0  0  0  0  0  0  0  0  0
    0.7385   -1.9659    2.1060 H   0  0  0  0  0  0  0  0  0  0  0  0
    2.0379   -3.0183    1.5290 H   0  0  0  0  0  0  0  0  0  0  0  0
   -4.0061   -0.9471   -1.9665 H   0  0  0  0  0  0  0  0  0  0  0  0
   -3.3309    0.5927   -2.4959 H   0  0  0  0  0  0  0  0  0  0  0  0
   -4.6499   -1.2425    0.5352 H   0  0  0  0  0  0  0  0  0  0  0  0
   -3.9175    2.6049   -1.2389 H   0  0  0  0  0  0  0  0  0  0  0  0
    3.9840    1.2581    2.2192 H   0  0  0  0  0  0  0  0  0  0  0  0
    4.2402   -0.4780   -1.7170 H   0  0  0  0  0  0  0  0  0  0  0  0
   -5.8613   -0.0827    2.3629 H   0  0  0  0  0  0  0  0  0  0  0  0
    5.0757    3.3101    1.3785 H   0  0  0  0  0  0  0  0  0  0  0  0
    5.3316    1.5789   -2.5462 H   0  0  0  0  0  0  0  0  0  0  0  0
   -6.0378    2.4101    2.2786 H   0  0  0  0  0  0  0  0  0  0  0  0
    5.7514    3.4754   -1.0029 H   0  0  0  0  0  0  0  0  0  0  0  0
  1 12  2  0  0  0  0
  2 14  2  0  0  0  0
  3  7  1  0  0  0  0
  3 10  1  0  0  0  0
  3 12  1  0  0  0  0
  4  8  1  0  0  0  0
  4 12  1  0  0  0  0
  4 13  1  0  0  0  0
  5  9  1  0  0  0  0
  5 11  1  0  0  0  0
  5 14  1  0  0  0  0
  6 18  1  0  0  0  0
  6 24  2  0  0  0  0
  7  8  1  0  0  0  0
  7  9  1  0  0  0  0
  7 26  1  0  0  0  0
  8 27  1  0  0  0  0
  8 28  1  0  0  0  0
  9 29  1  0  0  0  0
  9 30  1  0  0  0  0
 10 11  1  0  0  0  0
 10 31  1  0  0  0  0
 10 32  1  0  0  0  0
 11 33  1  0  0  0  0
 11 34  1  0  0  0  0
 13 15  1  0  0  0  0
 13 35  1  0  0  0  0
 13 36  1  0  0  0  0
 14 16  1  0  0  0  0
 15 17  1  0  0  0  0
 15 18  2  0  0  0  0
 16 19  2  0  0  0  0
 16 20  1  0  0  0  0
 17 21  2  0  0  0  0
 17 37  1  0  0  0  0
 18 38  1  0  0  0  0
 19 22  1  0  0  0  0
 19 39  1  0  0  0  0
 20 23  2  0  0  0  0
 20 40  1  0  0  0  0
 21 24  1  0  0  0  0
 21 41  1  0  0  0  0
 22 25  2  0  0  0  0
 22 42  1  0  0  0  0
 23 25  1  0  0  0  0
 23 43  1  0  0  0  0
 24 44  1  0  0  0  0
 25 45  1  0  0  0  0
M  END
> <PUBCHEM_COMPOUND_CID>
75368427

> <PUBCHEM_CONFORMER_RMSD>
0.8

> <PUBCHEM_CONFORMER_DIVERSEORDER>
1
73
37
45
9
81
31
68
46
10
65
74
66
67
90
24
14
69
47
71
57
38
76
58
22
6
87
62
50
79
88
49
11
12
60
48
75
28
3
78
8
85
20
17
83
32
30
19
34
27
51
42
55
7
72
86
82
56
54
61
13
80
21
33
89
29
63
41
77
26
59
25
84
40
35
70
5
43
2
52
53
18
16
36
15
4
64
44
39
23

> <PUBCHEM_MMFF94_PARTIAL_CHARGES>
34
1 -0.57
10 0.3
11 0.3
12 0.69
13 0.44
14 0.54
15 -0.14
16 0.09
17 -0.15
18 0.16
19 -0.15
2 -0.57
20 -0.15
21 -0.15
22 -0.15
23 -0.15
24 0.16
25 -0.15
3 -0.66
37 0.15
38 0.15
39 0.15
4 -0.66
40 0.15
41 0.15
42 0.15
43 0.15
44 0.15
45 0.15
5 -0.66
6 -0.62
7 0.3
8 0.3
9 0.3

> <PUBCHEM_EFFECTIVE_ROTOR_COUNT>
5.2

> <PUBCHEM_PHARMACOPHORE_FEATURES>
7
1 1 acceptor
1 2 acceptor
1 6 acceptor
5 3 4 7 8 12 rings
6 16 19 20 22 23 25 rings
6 3 5 7 9 10 11 rings
6 6 15 17 18 21 24 rings

> <PUBCHEM_HEAVY_ATOM_COUNT>
25

> <PUBCHEM_ATOM_DEF_STEREO_COUNT>
1

> <PUBCHEM_ATOM_UDEF_STEREO_COUNT>
0

> <PUBCHEM_BOND_DEF_STEREO_COUNT>
0

> <PUBCHEM_BOND_UDEF_STEREO_COUNT>
0

> <PUBCHEM_ISOTOPIC_ATOM_COUNT>
0

> <PUBCHEM_COMPONENT_COUNT>
1

> <PUBCHEM_CACTVS_TAUTO_COUNT>
1

> <PUBCHEM_CONFORMER_ID>
047E07EB00000001

> <PUBCHEM_MMFF94_ENERGY>
68.8115

> <PUBCHEM_FEATURE_SELFOVERLAP>
35.621

> <PUBCHEM_SHAPE_FINGERPRINT>
10670039 82 16988290767808862729
10794284 68 16014709703023708042
11135609 201 18338233902746187824
1200032 147 15552509972088844947
12390115 104 18339084894465212446
12422481 6 17531242825118502309
12596602 18 18114186315786838225
12616971 3 18339913827622329026
12788726 201 17703514298463794848
12892183 10 17895481315470791579
13398642 44 17097792410898885172
13583140 156 16227709071077582094
13782708 43 12396841300241976696
13828863 39 18335427876321467937
13885169 86 18042976556662204596
14251751 18 11314305074550075101
14251764 75 18337676416234337692
14429115 67 8646769984907746792
146900 427 18261114058273822904
14790565 3 18411982446746633029
14840074 17 18260274053039579765
14848178 5 7853573500231332065
14950920 106 17241036592301687409
15163728 17 17775291555759585647
15183329 4 13110966396756647569
15188451 53 10665496474693542660
15238133 3 17917703561648068962
15338160 23 18339369668863068923
15575132 122 18201163152995771305
16126227 98 17970643006938984844
17349148 13 8862663546475454004
17857418 61 8574716801463771284
18222031 100 9655582915777973064
19377110 9 17676766590631784834
20621476 91 15864361284961617441
20739085 24 18041284257747308428
21120745 212 17981884448154679159
21458453 9 17315378039779359689
21756936 100 18272649082147710559
22061861 79 12679460889303632385
22393880 68 12463275965849962013
23559900 14 17916870115013626558
249057 25 18199727216194239855
312425 54 13334997383894700260
314194 84 8934707942052260964
3178227 256 18041841684842747082
3459 110 17169001134709728041
350125 39 18261669273755762078
3680242 22 18114449150748265824
38570 142 18271541826493524084
392239 28 16298385811475609817
4098825 35 18271818942880276646
437795 139 13913755149902739561
5085150 59 13262392276965080185
5104073 3 18187916322697651178
57724786 102 17913778219775710561
59682541 52 13973406777823821437
6034566 193 17751373999869997340
633830 44 18343294860395942598
636775 72 17982163728598702728
76465 3 8358259245711708495
7808743 9 18342455963077793787
8988823 20 11602830128914380734
960060 61 13542465397413662032

> <PUBCHEM_SHAPE_MULTIPOLES>
482.83
14.35
3.09
1.52
2.22
0.38
0
-12.24
2.71
-0.62
0.47
0.33
-0.18
-1.87

> <PUBCHEM_SHAPE_SELFOVERLAP>
1045.04

> <PUBCHEM_SHAPE_VOLUME>
262.5

> <PUBCHEM_COORDINATE_TYPE>
2
5
10

$$$$
