25317550
  -OEChem-12032416263D

 58 61  0     1  0  0  0  0  0999 V2000
   -3.1791   -1.7058   -1.3673 O   0  0  0  0  0  0  0  0  0  0  0  0
   -4.9585   -1.0693   -0.0234 O   0  0  0  0  0  0  0  0  0  0  0  0
   -3.2825   -0.3829    2.2062 O   0  0  0  0  0  0  0  0  0  0  0  0
    5.4493   -2.7663   -0.8224 O   0  0  0  0  0  0  0  0  0  0  0  0
   -1.9338    0.8656   -0.9387 N   0  0  2  0  0  0  0  0  0  0  0  0
   -0.7761   -2.1492    0.2187 N   0  0  0  0  0  0  0  0  0  0  0  0
    0.4828    4.7083   -0.8598 N   0  0  0  0  0  0  0  0  0  0  0  0
   -2.9835    0.3238   -0.0746 C   0  0  2  0  0  0  0  0  0  0  0  0
   -2.1149   -1.9627    0.7883 C   0  0  1  0  0  0  0  0  0  0  0  0
   -2.3687   -0.4680    1.1028 C   0  0  2  0  0  0  0  0  0  0  0  0
   -3.1467   -2.5427   -0.2062 C   0  0  1  0  0  0  0  0  0  0  0  0
   -3.9263   -0.5771   -0.8940 C   0  0  1  0  0  0  0  0  0  0  0  0
   -4.5883   -2.4280    0.2554 C   0  0  0  0  0  0  0  0  0  0  0  0
   -1.3321    2.0505   -0.3289 C   0  0  0  0  0  0  0  0  0  0  0  0
   -2.4751    1.1878   -2.2582 C   0  0  0  0  0  0  0  0  0  0  0  0
    0.2352   -2.0806    1.2595 C   0  0  0  0  0  0  0  0  0  0  0  0
    0.0635    2.3101   -0.8970 C   0  0  0  0  0  0  0  0  0  0  0  0
    1.6232   -2.2636    0.7056 C   0  0  0  0  0  0  0  0  0  0  0  0
    0.7047    3.5173   -0.2602 C   0  0  0  0  0  0  0  0  0  0  0  0
    2.0701   -3.5358    0.3486 C   0  0  0  0  0  0  0  0  0  0  0  0
    2.4622   -1.1603    0.5491 C   0  0  0  0  0  0  0  0  0  0  0  0
    1.4717    3.3547    0.8822 C   0  0  0  0  0  0  0  0  0  0  0  0
    3.3559   -3.7049   -0.1645 C   0  0  0  0  0  0  0  0  0  0  0  0
    3.7480   -1.3293    0.0360 C   0  0  0  0  0  0  0  0  0  0  0  0
    4.1949   -2.6015   -0.3209 C   0  0  0  0  0  0  0  0  0  0  0  0
    2.0481    4.4877    1.4456 C   0  0  0  0  0  0  0  0  0  0  0  0
    1.0592    5.7871   -0.2838 C   0  0  0  0  0  0  0  0  0  0  0  0
    1.8427    5.7309    0.8577 C   0  0  0  0  0  0  0  0  0  0  0  0
    6.2543   -1.5956   -0.9558 C   0  0  0  0  0  0  0  0  0  0  0  0
   -3.6012    1.1395    0.3300 H   0  0  0  0  0  0  0  0  0  0  0  0
   -2.2036   -2.5594    1.7063 H   0  0  0  0  0  0  0  0  0  0  0  0
   -1.4688    0.0212    1.4789 H   0  0  0  0  0  0  0  0  0  0  0  0
   -2.8940   -3.5717   -0.4840 H   0  0  0  0  0  0  0  0  0  0  0  0
   -4.4436   -0.0855   -1.7213 H   0  0  0  0  0  0  0  0  0  0  0  0
   -5.2432   -3.0677   -0.3461 H   0  0  0  0  0  0  0  0  0  0  0  0
   -4.7394   -2.6606    1.3129 H   0  0  0  0  0  0  0  0  0  0  0  0
   -0.6031   -1.4352   -0.4888 H   0  0  0  0  0  0  0  0  0  0  0  0
   -1.9741    2.9323   -0.4649 H   0  0  0  0  0  0  0  0  0  0  0  0
   -1.2253    1.9403    0.7565 H   0  0  0  0  0  0  0  0  0  0  0  0
   -2.8678   -0.8278    2.9651 H   0  0  0  0  0  0  0  0  0  0  0  0
   -1.7451    1.7360   -2.8638 H   0  0  0  0  0  0  0  0  0  0  0  0
   -3.3690    1.8217   -2.2078 H   0  0  0  0  0  0  0  0  0  0  0  0
   -2.6760    0.2957   -2.8603 H   0  0  0  0  0  0  0  0  0  0  0  0
    0.0671   -2.8691    2.0054 H   0  0  0  0  0  0  0  0  0  0  0  0
    0.2058   -1.1356    1.8121 H   0  0  0  0  0  0  0  0  0  0  0  0
    0.0324    2.4839   -1.9784 H   0  0  0  0  0  0  0  0  0  0  0  0
    0.7054    1.4319   -0.7501 H   0  0  0  0  0  0  0  0  0  0  0  0
    1.4257   -4.4031    0.4662 H   0  0  0  0  0  0  0  0  0  0  0  0
    2.1257   -0.1639    0.8221 H   0  0  0  0  0  0  0  0  0  0  0  0
    1.6238    2.3811    1.3352 H   0  0  0  0  0  0  0  0  0  0  0  0
    3.6985   -4.6983   -0.4409 H   0  0  0  0  0  0  0  0  0  0  0  0
    4.3466   -0.4297   -0.0597 H   0  0  0  0  0  0  0  0  0  0  0  0
    2.6556    4.4022    2.3415 H   0  0  0  0  0  0  0  0  0  0  0  0
    0.8684    6.7326   -0.7806 H   0  0  0  0  0  0  0  0  0  0  0  0
    2.2819    6.6276    1.2796 H   0  0  0  0  0  0  0  0  0  0  0  0
    7.2180   -1.9114   -1.3686 H   0  0  0  0  0  0  0  0  0  0  0  0
    6.4585   -1.1348    0.0166 H   0  0  0  0  0  0  0  0  0  0  0  0
    5.8184   -0.8866   -1.6679 H   0  0  0  0  0  0  0  0  0  0  0  0
  1 11  1  0  0  0  0
  1 12  1  0  0  0  0
  2 12  1  0  0  0  0
  2 13  1  0  0  0  0
  3 10  1  0  0  0  0
  3 40  1  0  0  0  0
  4 25  1  0  0  0  0
  4 29  1  0  0  0  0
  5  8  1  0  0  0  0
  5 14  1  0  0  0  0
  5 15  1  0  0  0  0
  6  9  1  0  0  0  0
  6 16  1  0  0  0  0
  6 37  1  0  0  0  0
  7 19  1  0  0  0  0
  7 27  2  0  0  0  0
  8 10  1  0  0  0  0
  8 12  1  0  0  0  0
  8 30  1  0  0  0  0
  9 10  1  0  0  0  0
  9 11  1  0  0  0  0
  9 31  1  0  0  0  0
 10 32  1  0  0  0  0
 11 13  1  0  0  0  0
 11 33  1  0  0  0  0
 12 34  1  0  0  0  0
 13 35  1  0  0  0  0
 13 36  1  0  0  0  0
 14 17  1  0  0  0  0
 14 38  1  0  0  0  0
 14 39  1  0  0  0  0
 15 41  1  0  0  0  0
 15 42  1  0  0  0  0
 15 43  1  0  0  0  0
 16 18  1  0  0  0  0
 16 44  1  0  0  0  0
 16 45  1  0  0  0  0
 17 19  1  0  0  0  0
 17 46  1  0  0  0  0
 17 47  1  0  0  0  0
 18 20  2  0  0  0  0
 18 21  1  0  0  0  0
 19 22  2  0  0  0  0
 20 23  1  0  0  0  0
 20 48  1  0  0  0  0
 21 24  2  0  0  0  0
 21 49  1  0  0  0  0
 22 26  1  0  0  0  0
 22 50  1  0  0  0  0
 23 25  2  0  0  0  0
 23 51  1  0  0  0  0
 24 25  1  0  0  0  0
 24 52  1  0  0  0  0
 26 28  2  0  0  0  0
 26 53  1  0  0  0  0
 27 28  1  0  0  0  0
 27 54  1  0  0  0  0
 28 55  1  0  0  0  0
 29 56  1  0  0  0  0
 29 57  1  0  0  0  0
 29 58  1  0  0  0  0
M  END
> <PUBCHEM_COMPOUND_CID>
25317550

> <PUBCHEM_CONFORMER_RMSD>
1

> <PUBCHEM_CONFORMER_DIVERSEORDER>
1
5
99
46
24
130
102
136
81
51
39
38
146
28
155
139
61
9
60
37
27
94
97
29
71
56
128
45
167
144
129
36
82
80
148
118
160
158
114
140
74
165
87
44
95
98
113
68
161
141
34
124
75
133
53
86
145
77
58
54
64
157
84
18
13
138
137
33
59
166
132
32
159
30
69
78
112
7
154
2
120
8
105
52
106
17
50
100
156
83
108
49
162
63
85
163
149
4
107
126
122
92
14
57
152
11
104
131
119
151
116
150
88
35
41
3
73
115
96
142
19
153
22
6
15
72
125
91
121
103
31
93
134
23
10
135
90
40
62
16
55
143
26
21
123
25
65
12
76
110
109
48
101
70
47
42
111
127
20
147
66
43
89
117
79
67
164

> <PUBCHEM_MMFF94_PARTIAL_CHARGES>
39
1 -0.56
10 0.28
11 0.28
12 0.56
13 0.28
14 0.27
15 0.27
16 0.41
17 0.14
18 -0.14
19 0.17
2 -0.56
20 -0.15
21 -0.15
22 -0.15
23 -0.15
24 -0.15
25 0.08
26 -0.15
27 0.16
28 -0.15
29 0.28
3 -0.68
37 0.36
4 -0.36
40 0.4
48 0.15
49 0.15
5 -0.81
50 0.15
51 0.15
52 0.15
53 0.15
54 0.15
55 0.15
6 -0.9
7 -0.62
8 0.27
9 0.27

> <PUBCHEM_EFFECTIVE_ROTOR_COUNT>
9.2

> <PUBCHEM_PHARMACOPHORE_FEATURES>
12
1 1 acceptor
1 2 acceptor
1 3 acceptor
1 3 donor
1 4 acceptor
1 5 cation
1 6 cation
1 6 donor
1 7 acceptor
6 18 20 21 23 24 25 rings
6 7 19 22 26 27 28 rings
8 1 2 8 9 10 11 12 13 rings

> <PUBCHEM_HEAVY_ATOM_COUNT>
29

> <PUBCHEM_ATOM_DEF_STEREO_COUNT>
5

> <PUBCHEM_ATOM_UDEF_STEREO_COUNT>
0

> <PUBCHEM_BOND_DEF_STEREO_COUNT>
0

> <PUBCHEM_BOND_UDEF_STEREO_COUNT>
0

> <PUBCHEM_ISOTOPIC_ATOM_COUNT>
0

> <PUBCHEM_COMPONENT_COUNT>
1

> <PUBCHEM_CACTVS_TAUTO_COUNT>
2

> <PUBCHEM_CONFORMER_ID>
018250AE00000001

> <PUBCHEM_MMFF94_ENERGY>
94.7242

> <PUBCHEM_FEATURE_SELFOVERLAP>
60.946

> <PUBCHEM_SHAPE_FINGERPRINT>
10937287 8 16825583692958422920
11049842 53 17824271625002416709
11513181 2 17332528385711120364
11524674 6 17546716514360520280
12107183 9 10937806996249414461
12788726 201 17760917455349843384
13761468 95 17696766462697399958
138480 1 18410008866318738112
14251757 5 17908138777054635804
14363568 33 18192730031648169178
14790565 3 17113257737522338780
14955137 171 18192730968441384059
15961568 22 18410845595527364658
16988056 13 18410845590483564068
16991981 162 17835238948398532192
21033650 10 17831326920930859198
23559900 14 18338227275785729355
23929065 36 18050831244972661122
3027735 51 16972797897153742126
4017518 198 17546447138802438140
469060 322 15143821503379110299
5048184 11 16896797966141982232
5171179 24 18336817672072632133
6287921 2 18125709330109551467
9980921 221 17977693930785549150
9981440 41 17473261458138545659

> <PUBCHEM_SHAPE_MULTIPOLES>
558.39
9.32
8.53
1.43
3.91
15.49
-0.04
-11.73
-2.2
9.26
1.02
-0.71
0.46
1.92

> <PUBCHEM_SHAPE_SELFOVERLAP>
1189.451

> <PUBCHEM_SHAPE_VOLUME>
308.3

> <PUBCHEM_COORDINATE_TYPE>
2
5
10

$$$$
