51138096
  -OEChem-12032416323D

 65 69  0     1  0  0  0  0  0999 V2000
   -3.6101    0.2256   -2.0860 O   0  0  0  0  0  0  0  0  0  0  0  0
   -5.8014    3.2469    1.1590 O   0  0  0  0  0  0  0  0  0  0  0  0
   -1.8698   -1.1028   -0.7025 N   0  0  0  0  0  0  0  0  0  0  0  0
    2.5990    0.9760    0.3988 N   0  0  0  0  0  0  0  0  0  0  0  0
   -3.9678    1.7778   -0.3968 N   0  0  0  0  0  0  0  0  0  0  0  0
    6.2990    1.1948   -0.1225 N   0  0  0  0  0  0  0  0  0  0  0  0
    4.7372    0.2451   -1.3837 N   0  0  0  0  0  0  0  0  0  0  0  0
   -1.2914   -1.9402    0.3570 C   0  0  2  0  0  0  0  0  0  0  0  0
   -1.9973    0.3069   -0.3619 C   0  0  1  0  0  0  0  0  0  0  0  0
    0.1571   -1.6248    0.7437 C   0  0  0  0  0  0  0  0  0  0  0  0
    0.8478   -0.4203    0.4238 C   0  0  0  0  0  0  0  0  0  0  0  0
   -0.8238    1.1227   -0.9010 C   0  0  0  0  0  0  0  0  0  0  0  0
    0.4867    0.7848   -0.2728 C   0  0  0  0  0  0  0  0  0  0  0  0
   -1.4662   -3.3835   -0.1486 C   0  0  0  0  0  0  0  0  0  0  0  0
    2.1703   -0.2500    0.8497 C   0  0  0  0  0  0  0  0  0  0  0  0
   -2.9014   -3.8989   -0.0031 C   0  0  0  0  0  0  0  0  0  0  0  0
    1.5942    1.6086   -0.2715 C   0  0  0  0  0  0  0  0  0  0  0  0
   -3.2587    0.7602   -1.0313 C   0  0  0  0  0  0  0  0  0  0  0  0
    0.8625   -2.5552    1.5487 C   0  0  0  0  0  0  0  0  0  0  0  0
    2.8637   -1.1991    1.6026 C   0  0  0  0  0  0  0  0  0  0  0  0
    3.9150    1.5393    0.6124 C   0  0  0  0  0  0  0  0  0  0  0  0
    2.1795   -2.3544    1.9575 C   0  0  0  0  0  0  0  0  0  0  0  0
   -3.9119   -3.0561   -0.7825 C   0  0  0  0  0  0  0  0  0  0  0  0
   -2.9661   -5.3528   -0.4766 C   0  0  0  0  0  0  0  0  0  0  0  0
   -3.5169    2.5205    0.7850 C   0  0  0  0  0  0  0  0  0  0  0  0
   -5.2131    2.2763   -0.9804 C   0  0  0  0  0  0  0  0  0  0  0  0
   -4.6569    2.6617    1.7859 C   0  0  0  0  0  0  0  0  0  0  0  0
   -6.2814    2.4220    0.0940 C   0  0  0  0  0  0  0  0  0  0  0  0
    4.9630    0.9791   -0.3167 C   0  0  0  0  0  0  0  0  0  0  0  0
    6.9676    0.5578   -1.1297 C   0  0  0  0  0  0  0  0  0  0  0  0
    6.9091    1.9529    0.9442 C   0  0  0  0  0  0  0  0  0  0  0  0
    5.9827   -0.0208   -1.8951 C   0  0  0  0  0  0  0  0  0  0  0  0
   -1.8851   -1.8214    1.2740 H   0  0  0  0  0  0  0  0  0  0  0  0
   -2.0899    0.3802    0.7227 H   0  0  0  0  0  0  0  0  0  0  0  0
   -1.0220    2.1917   -0.7461 H   0  0  0  0  0  0  0  0  0  0  0  0
   -0.7339    0.9941   -1.9888 H   0  0  0  0  0  0  0  0  0  0  0  0
   -1.1329   -3.4677   -1.1937 H   0  0  0  0  0  0  0  0  0  0  0  0
   -0.8300   -4.0879    0.3949 H   0  0  0  0  0  0  0  0  0  0  0  0
   -1.3655   -1.2259   -1.5797 H   0  0  0  0  0  0  0  0  0  0  0  0
   -3.1839   -3.8823    1.0573 H   0  0  0  0  0  0  0  0  0  0  0  0
    1.7357    2.5942   -0.6954 H   0  0  0  0  0  0  0  0  0  0  0  0
    0.3744   -3.4588    1.9064 H   0  0  0  0  0  0  0  0  0  0  0  0
    3.8881   -1.0451    1.9238 H   0  0  0  0  0  0  0  0  0  0  0  0
    3.8459    2.6241    0.4691 H   0  0  0  0  0  0  0  0  0  0  0  0
    4.1824    1.3642    1.6604 H   0  0  0  0  0  0  0  0  0  0  0  0
    2.6730   -3.1050    2.5693 H   0  0  0  0  0  0  0  0  0  0  0  0
   -4.1164   -2.1041   -0.2851 H   0  0  0  0  0  0  0  0  0  0  0  0
   -3.5909   -2.8792   -1.8142 H   0  0  0  0  0  0  0  0  0  0  0  0
   -4.8775   -3.5737   -0.8317 H   0  0  0  0  0  0  0  0  0  0  0  0
   -2.7080   -5.4379   -1.5378 H   0  0  0  0  0  0  0  0  0  0  0  0
   -3.9725   -5.7627   -0.3396 H   0  0  0  0  0  0  0  0  0  0  0  0
   -2.2737   -5.9817    0.0932 H   0  0  0  0  0  0  0  0  0  0  0  0
   -3.2311    3.5142    0.4175 H   0  0  0  0  0  0  0  0  0  0  0  0
   -2.6407    2.1049    1.2773 H   0  0  0  0  0  0  0  0  0  0  0  0
   -5.5643    1.6190   -1.7814 H   0  0  0  0  0  0  0  0  0  0  0  0
   -4.9814    3.2539   -1.4193 H   0  0  0  0  0  0  0  0  0  0  0  0
   -4.9347    1.6911    2.2136 H   0  0  0  0  0  0  0  0  0  0  0  0
   -4.3549    3.3170    2.6088 H   0  0  0  0  0  0  0  0  0  0  0  0
   -7.1737    2.8978   -0.3245 H   0  0  0  0  0  0  0  0  0  0  0  0
   -6.5784    1.4468    0.4979 H   0  0  0  0  0  0  0  0  0  0  0  0
    8.0453    0.5679   -1.2151 H   0  0  0  0  0  0  0  0  0  0  0  0
    7.9862    2.0231    0.7715 H   0  0  0  0  0  0  0  0  0  0  0  0
    6.7176    1.4360    1.8878 H   0  0  0  0  0  0  0  0  0  0  0  0
    6.4728    2.9547    0.9547 H   0  0  0  0  0  0  0  0  0  0  0  0
    6.1070   -0.6156   -2.7882 H   0  0  0  0  0  0  0  0  0  0  0  0
  1 18  2  0  0  0  0
  2 27  1  0  0  0  0
  2 28  1  0  0  0  0
  3  8  1  0  0  0  0
  3  9  1  0  0  0  0
  3 39  1  0  0  0  0
  4 15  1  0  0  0  0
  4 17  1  0  0  0  0
  4 21  1  0  0  0  0
  5 18  1  0  0  0  0
  5 25  1  0  0  0  0
  5 26  1  0  0  0  0
  6 29  1  0  0  0  0
  6 30  1  0  0  0  0
  6 31  1  0  0  0  0
  7 29  2  0  0  0  0
  7 32  1  0  0  0  0
  8 10  1  0  0  0  0
  8 14  1  0  0  0  0
  8 33  1  0  0  0  0
  9 12  1  0  0  0  0
  9 18  1  0  0  0  0
  9 34  1  0  0  0  0
 10 11  2  0  0  0  0
 10 19  1  0  0  0  0
 11 13  1  0  0  0  0
 11 15  1  0  0  0  0
 12 13  1  0  0  0  0
 12 35  1  0  0  0  0
 12 36  1  0  0  0  0
 13 17  2  0  0  0  0
 14 16  1  0  0  0  0
 14 37  1  0  0  0  0
 14 38  1  0  0  0  0
 15 20  2  0  0  0  0
 16 23  1  0  0  0  0
 16 24  1  0  0  0  0
 16 40  1  0  0  0  0
 17 41  1  0  0  0  0
 19 22  2  0  0  0  0
 19 42  1  0  0  0  0
 20 22  1  0  0  0  0
 20 43  1  0  0  0  0
 21 29  1  0  0  0  0
 21 44  1  0  0  0  0
 21 45  1  0  0  0  0
 22 46  1  0  0  0  0
 23 47  1  0  0  0  0
 23 48  1  0  0  0  0
 23 49  1  0  0  0  0
 24 50  1  0  0  0  0
 24 51  1  0  0  0  0
 24 52  1  0  0  0  0
 25 27  1  0  0  0  0
 25 53  1  0  0  0  0
 25 54  1  0  0  0  0
 26 28  1  0  0  0  0
 26 55  1  0  0  0  0
 26 56  1  0  0  0  0
 27 57  1  0  0  0  0
 27 58  1  0  0  0  0
 28 59  1  0  0  0  0
 28 60  1  0  0  0  0
 30 32  2  0  0  0  0
 30 61  1  0  0  0  0
 31 62  1  0  0  0  0
 31 63  1  0  0  0  0
 31 64  1  0  0  0  0
 32 65  1  0  0  0  0
M  END
> <PUBCHEM_COMPOUND_CID>
51138096

> <PUBCHEM_CONFORMER_RMSD>
1

> <PUBCHEM_CONFORMER_DIVERSEORDER>
1
67
77
90
108
72
87
60
135
137
132
126
120
36
130
129
122
38
114
55
119
95
81
113
103
69
35
88
65
41
124
144
4
71
32
107
92
146
80
14
49
61
121
151
58
84
22
17
91
11
93
12
110
102
29
98
28
112
140
100
3
115
31
134
44
20
23
10
62
99
73
39
150
15
7
50
82
56
43
145
96
101
97
128
106
48
63
24
133
47
52
26
16
25
138
34
89
148
131
9
51
94
45
75
154
152
78
111
21
127
142
59
79
19
30
33
6
13
5
18
57
53
40
141
147
76
42
8
136
123
143
116
46
118
105
139
109
64
74
37
2
117
83
54
86
149
104
66
125
153
27
85
68
70

> <PUBCHEM_MMFF94_PARTIAL_CHARGES>
34
1 -0.57
10 -0.14
12 0.18
13 -0.18
15 -0.15
17 -0.3
18 0.57
19 -0.15
2 -0.56
20 -0.15
21 0.44
22 -0.15
25 0.3
26 0.3
27 0.28
28 0.28
29 0.01
3 -0.9
30 -0.3
31 0.26
32 0.08
39 0.36
4 0.05
41 0.15
42 0.15
43 0.15
46 0.15
5 -0.66
6 0.05
61 0.15
65 0.15
7 -0.57
8 0.41
9 0.33

> <PUBCHEM_EFFECTIVE_ROTOR_COUNT>
8

> <PUBCHEM_PHARMACOPHORE_FEATURES>
12
1 1 acceptor
1 2 acceptor
1 3 cation
1 3 donor
1 4 cation
3 16 23 24 hydrophobe
3 6 7 29 cation
5 4 11 13 15 17 rings
5 6 7 29 30 32 rings
6 10 11 15 19 20 22 rings
6 2 5 25 26 27 28 rings
7 3 8 9 10 11 12 13 rings

> <PUBCHEM_HEAVY_ATOM_COUNT>
32

> <PUBCHEM_ATOM_DEF_STEREO_COUNT>
2

> <PUBCHEM_ATOM_UDEF_STEREO_COUNT>
0

> <PUBCHEM_BOND_DEF_STEREO_COUNT>
0

> <PUBCHEM_BOND_UDEF_STEREO_COUNT>
0

> <PUBCHEM_ISOTOPIC_ATOM_COUNT>
0

> <PUBCHEM_COMPONENT_COUNT>
1

> <PUBCHEM_CACTVS_TAUTO_COUNT>
1

> <PUBCHEM_CONFORMER_ID>
030C4E3000000001

> <PUBCHEM_MMFF94_ENERGY>
70.6532

> <PUBCHEM_FEATURE_SELFOVERLAP>
61.029

> <PUBCHEM_SHAPE_FINGERPRINT>
10190108 129 17823997799335949899
10674148 151 18130511817428941700
10794284 68 15362538719141218002
11007060 377 18272653441898673513
11115154 58 17907002230542019735
11331351 85 17767694115723715487
11445158 3 17681824112218305374
12390115 104 18410295804852539011
12788726 201 18198605796587263543
12954195 1 18339080505051087366
12977781 61 17773905075897352366
13540713 5 18042664205065317930
14068700 675 17900531590840796175
14294032 229 17968086513175273452
14790565 3 18194402182311706108
14840074 17 18040720220982999709
14856354 85 16660944247633708441
15183329 4 17560523898267503396
15927050 60 18411136909615494679
19311894 1 18411423946453073044
19319366 153 17822854169751043330
20505436 4 17773878594047058109
20739085 24 18046069250847562245
21033648 144 18114462241861188541
21033650 10 17418090971460887753
21424621 283 18271532987498931880
21756936 100 18342457041146493401
21792965 25 17843710810139875659
21796203 349 17613443242119184851
21814621 53 17846781828194820378
22393880 68 18337099189819667358
25147074 1 17968359213707793554
283562 15 17973716171412240595
3610482 184 17968678098091998956
38570 142 18270689657853616305
397830 11 12179845018188282916
4058900 60 18125165931496315777
4073 2 18343302600422758396
4340502 62 15647061421751476040
44880568 143 18339372980583931180
5252454 2 18260257530062521132
563151 40 18261119572980494402
57527295 17 18334581291661531522
59755656 520 18411703162509029829
6009941 240 18202286909834771556
6698420 124 18129957680010024921

> <PUBCHEM_SHAPE_MULTIPOLES>
621.9
15.37
5.05
1.61
15.25
5.99
-0.09
-13.95
2.83
-9.99
-0.76
0.54
0
-1.93

> <PUBCHEM_SHAPE_SELFOVERLAP>
1340.807

> <PUBCHEM_SHAPE_VOLUME>
341.4

> <PUBCHEM_COORDINATE_TYPE>
2
5
10

$$$$
