75537013
  -OEChem-12032416333D

 46 48  0     1  0  0  0  0  0999 V2000
    1.8366   -2.6820    0.2335 O   0  0  0  0  0  0  0  0  0  0  0  0
   -4.8980   -0.9486   -0.0591 O   0  0  0  0  0  0  0  0  0  0  0  0
   -5.6308    1.4574    0.2095 O   0  0  0  0  0  0  0  0  0  0  0  0
    1.9065   -0.3263    0.1548 N   0  0  0  0  0  0  0  0  0  0  0  0
   -0.0936   -1.3433    0.2734 N   0  0  0  0  0  0  0  0  0  0  0  0
   -2.6501   -0.5042   -0.4366 N   0  0  0  0  0  0  0  0  0  0  0  0
   -0.3985    0.0742    0.3588 C   0  0  1  0  0  0  0  0  0  0  0  0
    3.3254   -0.0894    0.0425 C   0  0  0  0  0  0  0  0  0  0  0  0
    0.9373    0.7517    0.0633 C   0  0  0  0  0  0  0  0  0  0  0  0
    3.8377    0.6858    1.2589 C   0  0  0  0  0  0  0  0  0  0  0  0
    3.6511    0.6426   -1.2621 C   0  0  0  0  0  0  0  0  0  0  0  0
   -1.5255    0.4355   -0.6053 C   0  0  0  0  0  0  0  0  0  0  0  0
    1.2856   -1.5891    0.2255 C   0  0  0  0  0  0  0  0  0  0  0  0
   -1.1674   -2.3174    0.3490 C   0  0  0  0  0  0  0  0  0  0  0  0
    5.3276    0.9964    1.1414 C   0  0  0  0  0  0  0  0  0  0  0  0
    5.1417    0.9517   -1.3760 C   0  0  0  0  0  0  0  0  0  0  0  0
   -2.2953   -1.9221   -0.6010 C   0  0  0  0  0  0  0  0  0  0  0  0
    5.6505    1.7226   -0.1614 C   0  0  0  0  0  0  0  0  0  0  0  0
   -3.9698   -0.1438   -0.1711 C   0  0  0  0  0  0  0  0  0  0  0  0
   -4.2475    1.3298   -0.0138 C   0  0  0  0  0  0  0  0  0  0  0  0
   -6.0235    2.8186    0.3758 C   0  0  0  0  0  0  0  0  0  0  0  0
   -0.7062    0.2677    1.3944 H   0  0  0  0  0  0  0  0  0  0  0  0
    3.8268   -1.0657    0.0244 H   0  0  0  0  0  0  0  0  0  0  0  0
    0.9593    1.1684   -0.9481 H   0  0  0  0  0  0  0  0  0  0  0  0
    1.1523    1.5400    0.7890 H   0  0  0  0  0  0  0  0  0  0  0  0
    3.6538    0.1109    2.1748 H   0  0  0  0  0  0  0  0  0  0  0  0
    3.2965    1.6326    1.3739 H   0  0  0  0  0  0  0  0  0  0  0  0
    3.1056    1.5920   -1.3246 H   0  0  0  0  0  0  0  0  0  0  0  0
    3.3326    0.0407   -2.1219 H   0  0  0  0  0  0  0  0  0  0  0  0
   -1.8245    1.4742   -0.4546 H   0  0  0  0  0  0  0  0  0  0  0  0
   -1.1973    0.3377   -1.6477 H   0  0  0  0  0  0  0  0  0  0  0  0
   -0.7818   -3.3151    0.1182 H   0  0  0  0  0  0  0  0  0  0  0  0
   -1.5242   -2.3188    1.3852 H   0  0  0  0  0  0  0  0  0  0  0  0
    5.8995    0.0615    1.1892 H   0  0  0  0  0  0  0  0  0  0  0  0
    5.6453    1.6083    1.9932 H   0  0  0  0  0  0  0  0  0  0  0  0
    5.3298    1.5320   -2.2863 H   0  0  0  0  0  0  0  0  0  0  0  0
    5.7019    0.0136   -1.4739 H   0  0  0  0  0  0  0  0  0  0  0  0
   -1.9755   -2.0485   -1.6424 H   0  0  0  0  0  0  0  0  0  0  0  0
   -3.1641   -2.5679   -0.4410 H   0  0  0  0  0  0  0  0  0  0  0  0
    6.7335    1.8678   -0.2439 H   0  0  0  0  0  0  0  0  0  0  0  0
    5.1944    2.7202   -0.1453 H   0  0  0  0  0  0  0  0  0  0  0  0
   -3.9704    1.8552   -0.9334 H   0  0  0  0  0  0  0  0  0  0  0  0
   -3.6893    1.7164    0.8452 H   0  0  0  0  0  0  0  0  0  0  0  0
   -5.5200    3.2569    1.2428 H   0  0  0  0  0  0  0  0  0  0  0  0
   -7.1031    2.8458    0.5452 H   0  0  0  0  0  0  0  0  0  0  0  0
   -5.7941    3.3941   -0.5261 H   0  0  0  0  0  0  0  0  0  0  0  0
  1 13  2  0  0  0  0
  2 19  2  0  0  0  0
  3 20  1  0  0  0  0
  3 21  1  0  0  0  0
  4  8  1  0  0  0  0
  4  9  1  0  0  0  0
  4 13  1  0  0  0  0
  5  7  1  0  0  0  0
  5 13  1  0  0  0  0
  5 14  1  0  0  0  0
  6 12  1  0  0  0  0
  6 17  1  0  0  0  0
  6 19  1  0  0  0  0
  7  9  1  0  0  0  0
  7 12  1  0  0  0  0
  7 22  1  0  0  0  0
  8 10  1  0  0  0  0
  8 11  1  0  0  0  0
  8 23  1  0  0  0  0
  9 24  1  0  0  0  0
  9 25  1  0  0  0  0
 10 15  1  0  0  0  0
 10 26  1  0  0  0  0
 10 27  1  0  0  0  0
 11 16  1  0  0  0  0
 11 28  1  0  0  0  0
 11 29  1  0  0  0  0
 12 30  1  0  0  0  0
 12 31  1  0  0  0  0
 14 17  1  0  0  0  0
 14 32  1  0  0  0  0
 14 33  1  0  0  0  0
 15 18  1  0  0  0  0
 15 34  1  0  0  0  0
 15 35  1  0  0  0  0
 16 18  1  0  0  0  0
 16 36  1  0  0  0  0
 16 37  1  0  0  0  0
 17 38  1  0  0  0  0
 17 39  1  0  0  0  0
 18 40  1  0  0  0  0
 18 41  1  0  0  0  0
 19 20  1  0  0  0  0
 20 42  1  0  0  0  0
 20 43  1  0  0  0  0
 21 44  1  0  0  0  0
 21 45  1  0  0  0  0
 21 46  1  0  0  0  0
M  END
> <PUBCHEM_COMPOUND_CID>
75537013

> <PUBCHEM_CONFORMER_RMSD>
0.8

> <PUBCHEM_CONFORMER_DIVERSEORDER>
1
53
35
28
46
7
40
41
25
55
17
29
9
36
57
22
30
42
59
39
49
62
23
60
33
61
20
45
32
26
34
11
48
51
2
10
31
38
3
63
5
50
6
16
43
18
8
21
56
13
44
14
12
54
52
24
27
4
37
19
15
58
47

> <PUBCHEM_MMFF94_PARTIAL_CHARGES>
16
1 -0.57
12 0.3
13 0.69
14 0.3
17 0.3
19 0.57
2 -0.57
20 0.34
21 0.28
3 -0.56
4 -0.66
5 -0.66
6 -0.66
7 0.3
8 0.3
9 0.3

> <PUBCHEM_EFFECTIVE_ROTOR_COUNT>
6.4

> <PUBCHEM_PHARMACOPHORE_FEATURES>
6
1 1 acceptor
1 2 acceptor
1 3 acceptor
5 4 5 7 9 13 rings
6 5 6 7 12 14 17 rings
6 8 10 11 15 16 18 rings

> <PUBCHEM_HEAVY_ATOM_COUNT>
21

> <PUBCHEM_ATOM_DEF_STEREO_COUNT>
1

> <PUBCHEM_ATOM_UDEF_STEREO_COUNT>
0

> <PUBCHEM_BOND_DEF_STEREO_COUNT>
0

> <PUBCHEM_BOND_UDEF_STEREO_COUNT>
0

> <PUBCHEM_ISOTOPIC_ATOM_COUNT>
0

> <PUBCHEM_COMPONENT_COUNT>
1

> <PUBCHEM_CACTVS_TAUTO_COUNT>
1

> <PUBCHEM_CONFORMER_ID>
04809A7500000001

> <PUBCHEM_MMFF94_ENERGY>
39.5322

> <PUBCHEM_FEATURE_SELFOVERLAP>
30.562

> <PUBCHEM_SHAPE_FINGERPRINT>
10 15 18040723546089332097
10378564 45 17917718950958930612
10493431 412 18408323281118876855
10906281 52 18041011643140546476
12236239 1 17676763288672151392
12293681 160 17917996048910260491
12390115 104 18271535230093651113
12403814 3 17385713725318997687
12616971 3 17240472646395575852
12788726 201 17489310715905300665
12969540 114 17489299806540389476
13540713 5 18267000831056204695
14341114 328 17458061590252468002
14790565 3 18335709385220677933
15196674 1 18411135806024703067
1601671 61 18408321081684561004
17857418 61 11240008845158326548
1813 80 10952055567532886034
200 152 14045753633460686534
20281389 69 18409728439710121969
20621476 66 18335706069969863132
20645477 70 16415493648889842796
21304253 335 18335145279920606061
21421861 104 17896025552014659386
22289505 5 17561363994039367248
23402539 116 18270394022991800966
23402655 69 18343579629554234759
23559900 14 18342463681904086798
25147074 1 18336808845461833467
270888 7 18339922611389943377
2916195 48 18201431523340946456
293599 30 18413390917226349605
312425 54 12973874871890361101
314194 84 11455896883709262692
3472631 163 18412266163870352572
34797466 226 17131272483797233348
34934 24 18342170059815798999
350125 39 18264487287460877058
3680242 22 18259982665568214264
5104073 3 18261110725896263939
542803 24 17894910750181840108
59682541 52 16845015602411090836
59755656 215 18412267203932803118
633830 44 18200304545914127836
636775 72 18125434457279160704
7062679 6 18410014321217854589
7808743 9 18410289212109557081
960060 61 13758353384277141280

> <PUBCHEM_SHAPE_MULTIPOLES>
399.62
13.85
2.48
1
3.93
0.46
-0.07
-11.7
0.13
2.49
0.25
-1.33
-0.21
-0.63

> <PUBCHEM_SHAPE_SELFOVERLAP>
821.551

> <PUBCHEM_SHAPE_VOLUME>
228.5

> <PUBCHEM_COORDINATE_TYPE>
2
5
10

$$$$
