51137462
  -OEChem-12032416243D

 45 47  0     1  0  0  0  0  0999 V2000
    0.7539   -0.8173   -0.1191 O   0  0  0  0  0  0  0  0  0  0  0  0
    3.7786    1.9045    0.3857 O   0  0  0  0  0  0  0  0  0  0  0  0
   -3.9264   -0.5419    0.5475 N   0  0  1  0  0  0  0  0  0  0  0  0
   -0.1801    1.1467   -0.6436 N   0  0  0  0  0  0  0  0  0  0  0  0
    1.1929    1.3012   -0.6879 N   0  0  0  0  0  0  0  0  0  0  0  0
   -1.6946   -0.8413   -0.1074 C   0  0  2  0  0  0  0  0  0  0  0  0
   -2.9248    0.0446   -0.3456 C   0  0  0  0  0  0  0  0  0  0  0  0
   -1.8994   -1.4212    1.3030 C   0  0  0  0  0  0  0  0  0  0  0  0
   -3.2080   -0.8145    1.7923 C   0  0  0  0  0  0  0  0  0  0  0  0
   -5.0715    0.3337    0.7488 C   0  0  0  0  0  0  0  0  0  0  0  0
   -5.8689    0.5650   -0.5463 C   0  0  0  0  0  0  0  0  0  0  0  0
   -0.3904   -0.1047   -0.3079 C   0  0  0  0  0  0  0  0  0  0  0  0
   -6.3896   -0.7729   -1.0784 C   0  0  0  0  0  0  0  0  0  0  0  0
   -7.0399    1.5315   -0.3504 C   0  0  0  0  0  0  0  0  0  0  0  0
    1.6968    0.1303   -0.3749 C   0  0  0  0  0  0  0  0  0  0  0  0
    3.0615   -0.2964   -0.2636 C   0  0  0  0  0  0  0  0  0  0  0  0
    4.0627    0.5990    0.1119 C   0  0  0  0  0  0  0  0  0  0  0  0
    3.3819   -1.6258   -0.5384 C   0  0  0  0  0  0  0  0  0  0  0  0
    5.3845    0.1650    0.2128 C   0  0  0  0  0  0  0  0  0  0  0  0
    4.7037   -2.0599   -0.4375 C   0  0  0  0  0  0  0  0  0  0  0  0
    5.7051   -1.1645   -0.0619 C   0  0  0  0  0  0  0  0  0  0  0  0
    4.8720    2.7389    0.7609 C   0  0  0  0  0  0  0  0  0  0  0  0
   -1.7112   -1.6742   -0.8241 H   0  0  0  0  0  0  0  0  0  0  0  0
   -3.2225   -0.0005   -1.3985 H   0  0  0  0  0  0  0  0  0  0  0  0
   -2.7249    1.0923   -0.0855 H   0  0  0  0  0  0  0  0  0  0  0  0
   -1.0772   -1.1953    1.9903 H   0  0  0  0  0  0  0  0  0  0  0  0
   -1.9908   -2.5125    1.2378 H   0  0  0  0  0  0  0  0  0  0  0  0
   -3.7534   -1.5069    2.4413 H   0  0  0  0  0  0  0  0  0  0  0  0
   -3.0035    0.1061    2.3541 H   0  0  0  0  0  0  0  0  0  0  0  0
   -5.7404   -0.1142    1.4958 H   0  0  0  0  0  0  0  0  0  0  0  0
   -4.7558    1.3033    1.1570 H   0  0  0  0  0  0  0  0  0  0  0  0
   -5.2227    1.0133   -1.3102 H   0  0  0  0  0  0  0  0  0  0  0  0
   -5.5725   -1.4502   -1.3464 H   0  0  0  0  0  0  0  0  0  0  0  0
   -7.0227   -1.2767   -0.3397 H   0  0  0  0  0  0  0  0  0  0  0  0
   -6.9892   -0.6202   -1.9826 H   0  0  0  0  0  0  0  0  0  0  0  0
   -6.6813    2.5035    0.0041 H   0  0  0  0  0  0  0  0  0  0  0  0
   -7.5754    1.6939   -1.2917 H   0  0  0  0  0  0  0  0  0  0  0  0
   -7.7534    1.1451    0.3853 H   0  0  0  0  0  0  0  0  0  0  0  0
    2.6249   -2.3452   -0.8418 H   0  0  0  0  0  0  0  0  0  0  0  0
    6.2167    0.7990    0.4979 H   0  0  0  0  0  0  0  0  0  0  0  0
    4.9539   -3.0945   -0.6534 H   0  0  0  0  0  0  0  0  0  0  0  0
    6.7340   -1.5036    0.0157 H   0  0  0  0  0  0  0  0  0  0  0  0
    5.3286    2.4105    1.7009 H   0  0  0  0  0  0  0  0  0  0  0  0
    5.6030    2.8378   -0.0489 H   0  0  0  0  0  0  0  0  0  0  0  0
    4.4646    3.7394    0.9414 H   0  0  0  0  0  0  0  0  0  0  0  0
  1 12  1  0  0  0  0
  1 15  1  0  0  0  0
  2 17  1  0  0  0  0
  2 22  1  0  0  0  0
  3  7  1  0  0  0  0
  3  9  1  0  0  0  0
  3 10  1  0  0  0  0
  4  5  1  0  0  0  0
  4 12  2  0  0  0  0
  5 15  2  0  0  0  0
  6  7  1  0  0  0  0
  6  8  1  0  0  0  0
  6 12  1  0  0  0  0
  6 23  1  0  0  0  0
  7 24  1  0  0  0  0
  7 25  1  0  0  0  0
  8  9  1  0  0  0  0
  8 26  1  0  0  0  0
  8 27  1  0  0  0  0
  9 28  1  0  0  0  0
  9 29  1  0  0  0  0
 10 11  1  0  0  0  0
 10 30  1  0  0  0  0
 10 31  1  0  0  0  0
 11 13  1  0  0  0  0
 11 14  1  0  0  0  0
 11 32  1  0  0  0  0
 13 33  1  0  0  0  0
 13 34  1  0  0  0  0
 13 35  1  0  0  0  0
 14 36  1  0  0  0  0
 14 37  1  0  0  0  0
 14 38  1  0  0  0  0
 15 16  1  0  0  0  0
 16 17  1  0  0  0  0
 16 18  2  0  0  0  0
 17 19  2  0  0  0  0
 18 20  1  0  0  0  0
 18 39  1  0  0  0  0
 19 21  1  0  0  0  0
 19 40  1  0  0  0  0
 20 21  2  0  0  0  0
 20 41  1  0  0  0  0
 21 42  1  0  0  0  0
 22 43  1  0  0  0  0
 22 44  1  0  0  0  0
 22 45  1  0  0  0  0
M  END
> <PUBCHEM_COMPOUND_CID>
51137462

> <PUBCHEM_CONFORMER_RMSD>
0.8

> <PUBCHEM_CONFORMER_DIVERSEORDER>
6
49
76
60
111
16
38
65
121
64
105
98
106
55
25
88
91
104
83
50
11
100
44
42
69
19
31
78
90
41
92
87
80
2
112
52
53
96
43
36
95
17
72
8
10
79
56
14
13
74
66
62
40
107
99
32
84
51
28
63
35
89
26
120
114
109
73
33
124
58
45
18
29
57
119
110
108
24
68
1
103
117
48
9
71
47
123
122
93
39
23
59
46
61
116
12
15
67
20
7
3
94
21
30
81
77
70
86
27
82
118
4
115
75
125
22
102
97
85
5
113
34
54
37
101

> <PUBCHEM_MMFF94_PARTIAL_CHARGES>
22
1 -0.28
10 0.27
12 0.3
15 0.43
16 0.05
17 0.08
18 -0.15
19 -0.15
2 -0.36
20 -0.15
21 -0.15
22 0.28
3 -0.81
39 0.15
4 -0.34
40 0.15
41 0.15
42 0.15
5 -0.34
6 0.18
7 0.27
9 0.27

> <PUBCHEM_EFFECTIVE_ROTOR_COUNT>
6

> <PUBCHEM_PHARMACOPHORE_FEATURES>
6
1 2 acceptor
1 3 cation
3 11 13 14 hydrophobe
5 1 4 5 12 15 rings
5 3 6 7 8 9 rings
6 16 17 18 19 20 21 rings

> <PUBCHEM_HEAVY_ATOM_COUNT>
22

> <PUBCHEM_ATOM_DEF_STEREO_COUNT>
1

> <PUBCHEM_ATOM_UDEF_STEREO_COUNT>
0

> <PUBCHEM_BOND_DEF_STEREO_COUNT>
0

> <PUBCHEM_BOND_UDEF_STEREO_COUNT>
0

> <PUBCHEM_ISOTOPIC_ATOM_COUNT>
0

> <PUBCHEM_COMPONENT_COUNT>
1

> <PUBCHEM_CACTVS_TAUTO_COUNT>
1

> <PUBCHEM_CONFORMER_ID>
030C4BB600000006

> <PUBCHEM_MMFF94_ENERGY>
50.6824

> <PUBCHEM_FEATURE_SELFOVERLAP>
30.447

> <PUBCHEM_SHAPE_FINGERPRINT>
10066227 112 16877949359954487815
10835480 77 18336825389591279745
10912923 1 17418102022285210899
11045977 3 18334018315236225218
11089746 13 18342176656848512651
11796584 16 16877951546330653410
12107183 9 17411356316422026682
12166972 35 18059855095314357529
12236239 1 17489587848664760655
12516196 113 18201999919307383745
13167372 99 18131074779676570857
13533116 47 18412545379841672322
13583140 156 17915181440798115211
13675066 3 18187933918735329698
13878862 14 18200576069293948916
13914758 101 18058734598560470297
14251758 9 17530969081367539385
15142383 8 14201386188436165599
15183329 4 17022899043518390879
15531645 54 18187087230615824003
16079462 125 18187638124485496725
17844677 252 18342743987616276476
19141452 34 18408325509774893647
19489759 90 16343986880033830019
200 152 18131069334074458719
20157964 124 18273497866279841199
20511986 3 17845920905467480151
20645477 70 18343302527070892854
21033648 29 18335692879787615752
21236236 1 18337391514126971597
21279426 13 17898566475972854679
21315763 191 13190338002172032721
21859007 373 17750218258266703205
2215653 11 18261114053899935598
22224240 67 17989199344627402462
22950370 63 12107789627125699219
23081809 10 17060625494959224059
23402539 116 18413105053156845261
23536379 177 18201998811881061135
23557571 272 17530962445621955900
23559900 14 18040444299757250350
2838139 119 18341894035917965165
29717793 49 17775006760546191302
300161 21 17989483039379115910
3004659 81 17095250215624431766
34797466 226 12967128354293363354
3633792 109 17702951318529718367
4015057 19 18340202003233493785
4073 2 18187649162430394682
4325135 7 9799401222744934305
44555599 121 17989215806999801921
5104073 3 18336835276489659099
5283173 99 18335698278830915181
5385378 56 17314228861550263995
59755656 215 17749670692769973987
59755656 520 17675924292707743571
8988823 20 18343581837388840998
9971528 1 18261112988800586116

> <PUBCHEM_SHAPE_MULTIPOLES>
426.07
17.36
1.97
1.06
13.99
0.81
-0.33
2.66
1.43
-2.79
-0.2
1.06
-0.19
1.27

> <PUBCHEM_SHAPE_SELFOVERLAP>
900.595

> <PUBCHEM_SHAPE_VOLUME>
242.3

> <PUBCHEM_COORDINATE_TYPE>
2
5
10

$$$$
