11913031
  -OEChem-12032416253D

 59 63  0     1  0  0  0  0  0999 V2000
   -0.6935   -3.4897    0.2921 O   0  0  0  0  0  0  0  0  0  0  0  0
   -1.0119   -0.8815    1.9750 O   0  0  0  0  0  0  0  0  0  0  0  0
    3.4870   -2.3224   -0.1340 O   0  0  0  0  0  0  0  0  0  0  0  0
    5.0538   -0.2292   -0.7744 O   0  0  0  0  0  0  0  0  0  0  0  0
   -2.9420   -1.7910   -0.9875 N   0  0  0  0  0  0  0  0  0  0  0  0
    1.8817   -0.9504    0.8422 N   0  0  0  0  0  0  0  0  0  0  0  0
   -4.0134    0.2144   -0.5159 N   0  0  0  0  0  0  0  0  0  0  0  0
   -4.0385   -0.7250   -2.7349 N   0  0  0  0  0  0  0  0  0  0  0  0
   -1.1995   -1.1829    0.5820 C   0  0  1  0  0  0  0  0  0  0  0  0
   -0.1227   -2.1748    0.1874 C   0  0  1  0  0  0  0  0  0  0  0  0
   -2.4911   -1.9392    0.3790 C   0  0  2  0  0  0  0  0  0  0  0  0
    0.9536   -1.9843    1.2316 C   0  0  2  0  0  0  0  0  0  0  0  0
   -2.0804   -3.3762    0.6434 C   0  0  0  0  0  0  0  0  0  0  0  0
    0.1517   -1.5724    2.4534 C   0  0  0  0  0  0  0  0  0  0  0  0
   -5.1277    2.3175    0.0121 C   0  0  0  0  0  0  0  0  0  0  0  0
   -5.9758    1.7715    1.1747 C   0  0  0  0  0  0  0  0  0  0  0  0
   -3.9282    3.0308    0.6701 C   0  0  0  0  0  0  0  0  0  0  0  0
   -5.5319    2.5753    2.3874 C   0  0  0  0  0  0  0  0  0  0  0  0
   -4.0392    2.7381    2.1620 C   0  0  0  0  0  0  0  0  0  0  0  0
   -3.6975   -0.7206   -1.4321 C   0  0  0  0  0  0  0  0  0  0  0  0
   -4.7500    1.2435   -0.9835 C   0  0  0  0  0  0  0  0  0  0  0  0
    3.0775   -1.2102    0.1880 C   0  0  0  0  0  0  0  0  0  0  0  0
   -5.1631    1.3571   -2.2953 C   0  0  0  0  0  0  0  0  0  0  0  0
    3.8492    0.0604   -0.0974 C   0  0  0  0  0  0  0  0  0  0  0  0
   -4.7743    0.3331   -3.1344 C   0  0  0  0  0  0  0  0  0  0  0  0
    6.1130    0.6216   -0.5627 C   0  0  0  0  0  0  0  0  0  0  0  0
    5.8808    1.9664   -0.2745 C   0  0  0  0  0  0  0  0  0  0  0  0
    7.4200    0.1397   -0.6366 C   0  0  0  0  0  0  0  0  0  0  0  0
    6.9555    2.8296   -0.0604 C   0  0  0  0  0  0  0  0  0  0  0  0
    8.4947    1.0029   -0.4225 C   0  0  0  0  0  0  0  0  0  0  0  0
    8.2623    2.3478   -0.1344 C   0  0  0  0  0  0  0  0  0  0  0  0
   -1.1269   -0.2381    0.0337 H   0  0  0  0  0  0  0  0  0  0  0  0
    0.2201   -2.0471   -0.8445 H   0  0  0  0  0  0  0  0  0  0  0  0
   -3.2830   -1.6582    1.0829 H   0  0  0  0  0  0  0  0  0  0  0  0
    1.5164   -2.9024    1.4319 H   0  0  0  0  0  0  0  0  0  0  0  0
   -2.1644   -3.6165    1.7091 H   0  0  0  0  0  0  0  0  0  0  0  0
   -2.6583   -4.1151    0.0797 H   0  0  0  0  0  0  0  0  0  0  0  0
   -0.1975   -2.4510    3.0069 H   0  0  0  0  0  0  0  0  0  0  0  0
    0.6996   -0.9251    3.1449 H   0  0  0  0  0  0  0  0  0  0  0  0
   -2.6565   -2.4711   -1.6828 H   0  0  0  0  0  0  0  0  0  0  0  0
    1.6172    0.0162    1.0121 H   0  0  0  0  0  0  0  0  0  0  0  0
   -5.7187    3.0864   -0.5047 H   0  0  0  0  0  0  0  0  0  0  0  0
   -5.7877    0.7062    1.3562 H   0  0  0  0  0  0  0  0  0  0  0  0
   -7.0483    1.8825    0.9829 H   0  0  0  0  0  0  0  0  0  0  0  0
   -4.0174    4.1121    0.5056 H   0  0  0  0  0  0  0  0  0  0  0  0
   -2.9563    2.7219    0.2712 H   0  0  0  0  0  0  0  0  0  0  0  0
   -5.7586    2.0665    3.3286 H   0  0  0  0  0  0  0  0  0  0  0  0
   -6.0258    3.5541    2.3966 H   0  0  0  0  0  0  0  0  0  0  0  0
   -3.6084    3.5354    2.7743 H   0  0  0  0  0  0  0  0  0  0  0  0
   -3.5168    1.8037    2.4000 H   0  0  0  0  0  0  0  0  0  0  0  0
   -5.7539    2.1878   -2.6588 H   0  0  0  0  0  0  0  0  0  0  0  0
    4.0284    0.5338    0.8773 H   0  0  0  0  0  0  0  0  0  0  0  0
    3.2274    0.7127   -0.7213 H   0  0  0  0  0  0  0  0  0  0  0  0
   -5.0519    0.3350   -4.1831 H   0  0  0  0  0  0  0  0  0  0  0  0
    4.8798    2.3857   -0.2344 H   0  0  0  0  0  0  0  0  0  0  0  0
    7.6067   -0.9070   -0.8607 H   0  0  0  0  0  0  0  0  0  0  0  0
    6.7754    3.8782    0.1578 H   0  0  0  0  0  0  0  0  0  0  0  0
    9.5123    0.6279   -0.4804 H   0  0  0  0  0  0  0  0  0  0  0  0
    9.0991    3.0202    0.0307 H   0  0  0  0  0  0  0  0  0  0  0  0
  1 10  1  0  0  0  0
  1 13  1  0  0  0  0
  2  9  1  0  0  0  0
  2 14  1  0  0  0  0
  3 22  2  0  0  0  0
  4 24  1  0  0  0  0
  4 26  1  0  0  0  0
  5 11  1  0  0  0  0
  5 20  1  0  0  0  0
  5 40  1  0  0  0  0
  6 12  1  0  0  0  0
  6 22  1  0  0  0  0
  6 41  1  0  0  0  0
  7 20  1  0  0  0  0
  7 21  2  0  0  0  0
  8 20  2  0  0  0  0
  8 25  1  0  0  0  0
  9 10  1  0  0  0  0
  9 11  1  0  0  0  0
  9 32  1  0  0  0  0
 10 12  1  0  0  0  0
 10 33  1  0  0  0  0
 11 13  1  0  0  0  0
 11 34  1  0  0  0  0
 12 14  1  0  0  0  0
 12 35  1  0  0  0  0
 13 36  1  0  0  0  0
 13 37  1  0  0  0  0
 14 38  1  0  0  0  0
 14 39  1  0  0  0  0
 15 16  1  0  0  0  0
 15 17  1  0  0  0  0
 15 21  1  0  0  0  0
 15 42  1  0  0  0  0
 16 18  1  0  0  0  0
 16 43  1  0  0  0  0
 16 44  1  0  0  0  0
 17 19  1  0  0  0  0
 17 45  1  0  0  0  0
 17 46  1  0  0  0  0
 18 19  1  0  0  0  0
 18 47  1  0  0  0  0
 18 48  1  0  0  0  0
 19 49  1  0  0  0  0
 19 50  1  0  0  0  0
 21 23  1  0  0  0  0
 22 24  1  0  0  0  0
 23 25  2  0  0  0  0
 23 51  1  0  0  0  0
 24 52  1  0  0  0  0
 24 53  1  0  0  0  0
 25 54  1  0  0  0  0
 26 27  2  0  0  0  0
 26 28  1  0  0  0  0
 27 29  1  0  0  0  0
 27 55  1  0  0  0  0
 28 30  2  0  0  0  0
 28 56  1  0  0  0  0
 29 31  2  0  0  0  0
 29 57  1  0  0  0  0
 30 31  1  0  0  0  0
 30 58  1  0  0  0  0
 31 59  1  0  0  0  0
M  END
> <PUBCHEM_COMPOUND_CID>
11913031

> <PUBCHEM_CONFORMER_RMSD>
1

> <PUBCHEM_CONFORMER_DIVERSEORDER>
1
114
74
91
144
63
82
164
52
104
176
115
168
161
71
139
83
123
116
160
24
70
152
157
17
129
56
107
62
166
158
48
159
31
133
42
43
109
128
36
137
103
155
90
88
153
141
86
134
30
46
53
33
122
6
75
19
22
174
106
171
51
132
92
35
45
143
136
80
76
117
21
40
55
8
131
79
112
127
146
140
38
11
125
28
68
99
120
98
118
65
10
78
47
135
59
105
93
163
113
170
54
9
77
108
167
81
39
12
173
67
151
119
121
126
169
84
49
142
130
37
27
149
61
96
16
34
89
101
29
111
95
85
7
148
175
26
124
165
138
97
60
147
41
100
4
14
154
2
64
145
87
57
13
73
23
156
58
44
3
172
102
20
32
162
50
150
18
15
69
110
66
25
5
94
72

> <PUBCHEM_MMFF94_PARTIAL_CHARGES>
36
1 -0.56
10 0.28
11 0.37
12 0.3
13 0.28
14 0.28
15 0.14
2 -0.56
20 0.72
21 0.17
22 0.57
23 -0.15
24 0.34
25 0.16
26 0.08
27 -0.15
28 -0.15
29 -0.15
3 -0.57
30 -0.15
31 -0.15
4 -0.36
40 0.4
41 0.37
5 -0.87
51 0.15
54 0.15
55 0.15
56 0.15
57 0.15
58 0.15
59 0.15
6 -0.73
7 -0.62
8 -0.62
9 0.28

> <PUBCHEM_EFFECTIVE_ROTOR_COUNT>
10.2

> <PUBCHEM_PHARMACOPHORE_FEATURES>
13
1 1 acceptor
1 2 acceptor
1 3 acceptor
1 4 acceptor
1 5 donor
1 6 donor
1 7 acceptor
4 5 7 8 20 cation
5 1 9 10 11 13 rings
5 15 16 17 18 19 rings
5 2 9 10 12 14 rings
6 26 27 28 29 30 31 rings
6 7 8 20 21 23 25 rings

> <PUBCHEM_HEAVY_ATOM_COUNT>
31

> <PUBCHEM_ATOM_DEF_STEREO_COUNT>
4

> <PUBCHEM_ATOM_UDEF_STEREO_COUNT>
0

> <PUBCHEM_BOND_DEF_STEREO_COUNT>
0

> <PUBCHEM_BOND_UDEF_STEREO_COUNT>
0

> <PUBCHEM_ISOTOPIC_ATOM_COUNT>
0

> <PUBCHEM_COMPONENT_COUNT>
1

> <PUBCHEM_CACTVS_TAUTO_COUNT>
6

> <PUBCHEM_CONFORMER_ID>
00B5C74700000001

> <PUBCHEM_MMFF94_ENERGY>
87.951

> <PUBCHEM_FEATURE_SELFOVERLAP>
66.687

> <PUBCHEM_SHAPE_FINGERPRINT>
10369192 42 18411991260605132463
10577160 103 16916493861812548696
11007060 377 17895188930823566055
11135609 201 18335706027120300515
11200772 71 17775569693341238793
11273773 42 18343863295386506477
11607047 74 12258585302525617023
11828042 74 12679190401233184313
12082328 90 18131353020289589726
12760667 363 10663817472871164625
13627167 48 18341039727582503753
13690498 29 17131541860336531079
13782708 43 11095891462892161774
14150022 121 18116167717381626491
14289278 72 13190623785517529520
14394314 77 18338521837771605349
14664723 55 17343235025973527433
14844126 61 9511191758953205935
14950920 106 12612756821655149958
15119646 57 18201444666447215649
15131766 46 18264480694987212917
15183329 4 18410285913674842044
15406563 42 17775011154361214748
15513586 35 16954531577537876260
16126227 98 18412273826054916505
17852330 134 17773614732488077006
17913733 40 16805325440013543850
19304152 47 16370999685461675127
19438510 23 18187650202165596714
21033648 144 18113614556391483031
21033648 29 16298668266047781111
21033650 10 17632573829930586843
21223535 225 18272934912443448328
21401589 2 17749111092838166443
21756936 100 18413395324057844475
21774942 28 18273216379452359416
2748736 6 18335131008382584444
2838139 119 18336264535950546824
328310 18 18130794459866415897
3610482 184 17775001237793313165
38570 142 18199198282624239851
4098825 35 18201726123764444622
437795 83 18271245027590868900
445580 204 18343584027732783520
474113 269 7853565765533211969
50677037 204 18410290302921260124
563151 74 16009020657951633800
5937810 71 18115882952824314660
6289498 60 17677320745600993204
6376802 90 18335708290790436070
6695519 79 17096946672014274033
6712543 237 12685084852614542505
999808 66 10087653610904802764

> <PUBCHEM_SHAPE_MULTIPOLES>
594.56
22.22
4.06
2.33
47.15
0.36
0.66
-23.48
6
-2.17
-1.81
-5.75
-0.5
-2.41

> <PUBCHEM_SHAPE_SELFOVERLAP>
1282.453

> <PUBCHEM_SHAPE_VOLUME>
324.8

> <PUBCHEM_COORDINATE_TYPE>
2
5
10

$$$$
