11879568
  -OEChem-12032416373D

 64 68  0     1  0  0  0  0  0999 V2000
   -1.0385   -0.7494   -1.7175 O   0  0  0  0  0  0  0  0  0  0  0  0
   -1.0556   -3.3247    0.0877 O   0  0  0  0  0  0  0  0  0  0  0  0
    3.5472   -0.7175   -0.4159 O   0  0  0  0  0  0  0  0  0  0  0  0
   -5.6697   -1.5743   -0.9738 O   0  0  0  0  0  0  0  0  0  0  0  0
   -3.6729   -0.7817   -0.0968 N   0  0  0  0  0  0  0  0  0  0  0  0
    1.5998   -1.4982    0.6942 N   0  0  0  0  0  0  0  0  0  0  0  0
   -5.6227    0.3794    0.2798 N   0  0  0  0  0  0  0  0  0  0  0  0
    1.2018   -1.6838    1.9606 N   0  0  0  0  0  0  0  0  0  0  0  0
    3.2810   -0.8802    1.9167 N   0  0  0  0  0  0  0  0  0  0  0  0
    2.2343   -1.3045    2.7037 N   0  0  0  0  0  0  0  0  0  0  0  0
    6.5738    3.0555   -0.2499 N   0  0  0  0  0  0  0  0  0  0  0  0
   -1.5844   -1.9973    0.2331 C   0  0  1  0  0  0  0  0  0  0  0  0
   -0.5868   -1.0346   -0.3813 C   0  0  1  0  0  0  0  0  0  0  0  0
   -2.8291   -1.8338   -0.6098 C   0  0  2  0  0  0  0  0  0  0  0  0
    0.7160   -1.8101   -0.4320 C   0  0  2  0  0  0  0  0  0  0  0  0
   -2.2558   -1.4665   -1.9657 C   0  0  0  0  0  0  0  0  0  0  0  0
    0.2491   -3.2598   -0.5040 C   0  0  0  0  0  0  0  0  0  0  0  0
   -7.0357    0.6776    0.2069 C   0  0  0  0  0  0  0  0  0  0  0  0
   -7.3599    1.5085   -1.0393 C   0  0  0  0  0  0  0  0  0  0  0  0
   -7.5174    1.3778    1.4820 C   0  0  0  0  0  0  0  0  0  0  0  0
   -5.0473   -0.7359   -0.3233 C   0  0  0  0  0  0  0  0  0  0  0  0
   -6.8540    2.9470   -0.9309 C   0  0  0  0  0  0  0  0  0  0  0  0
   -7.0114    2.8164    1.5862 C   0  0  0  0  0  0  0  0  0  0  0  0
   -7.3555    3.6261    0.3397 C   0  0  0  0  0  0  0  0  0  0  0  0
    2.8669   -1.0090    0.6773 C   0  0  0  0  0  0  0  0  0  0  0  0
    4.8415   -0.2171   -0.3800 C   0  0  0  0  0  0  0  0  0  0  0  0
    5.0559    1.1603   -0.3330 C   0  0  0  0  0  0  0  0  0  0  0  0
    5.9277   -1.0921   -0.3906 C   0  0  0  0  0  0  0  0  0  0  0  0
    6.3566    1.6627   -0.2971 C   0  0  0  0  0  0  0  0  0  0  0  0
    7.2285   -0.5897   -0.3545 C   0  0  0  0  0  0  0  0  0  0  0  0
    7.4429    0.7877   -0.3078 C   0  0  0  0  0  0  0  0  0  0  0  0
    5.4522    3.9737   -0.2525 C   0  0  0  0  0  0  0  0  0  0  0  0
    7.9216    3.5874   -0.2122 C   0  0  0  0  0  0  0  0  0  0  0  0
   -1.7440   -1.8244    1.3023 H   0  0  0  0  0  0  0  0  0  0  0  0
   -0.5278   -0.0795    0.1505 H   0  0  0  0  0  0  0  0  0  0  0  0
   -3.4194   -2.7536   -0.6821 H   0  0  0  0  0  0  0  0  0  0  0  0
    1.2923   -1.5745   -1.3346 H   0  0  0  0  0  0  0  0  0  0  0  0
   -1.9945   -2.3639   -2.5373 H   0  0  0  0  0  0  0  0  0  0  0  0
   -2.9209   -0.8497   -2.5777 H   0  0  0  0  0  0  0  0  0  0  0  0
    0.9143   -3.9618    0.0079 H   0  0  0  0  0  0  0  0  0  0  0  0
    0.1466   -3.5816   -1.5462 H   0  0  0  0  0  0  0  0  0  0  0  0
   -3.2405   -0.0058    0.3959 H   0  0  0  0  0  0  0  0  0  0  0  0
   -7.5647   -0.2799    0.1235 H   0  0  0  0  0  0  0  0  0  0  0  0
   -6.9343    1.0412   -1.9353 H   0  0  0  0  0  0  0  0  0  0  0  0
   -8.4483    1.5286   -1.1797 H   0  0  0  0  0  0  0  0  0  0  0  0
   -8.6148    1.3890    1.4896 H   0  0  0  0  0  0  0  0  0  0  0  0
   -7.1991    0.8158    2.3683 H   0  0  0  0  0  0  0  0  0  0  0  0
   -5.7573    2.9554   -0.9423 H   0  0  0  0  0  0  0  0  0  0  0  0
   -7.1836    3.5180   -1.8065 H   0  0  0  0  0  0  0  0  0  0  0  0
   -5.9261    2.8237    1.7407 H   0  0  0  0  0  0  0  0  0  0  0  0
   -7.4556    3.2955    2.4663 H   0  0  0  0  0  0  0  0  0  0  0  0
   -5.0055    1.0466    0.7318 H   0  0  0  0  0  0  0  0  0  0  0  0
   -8.4432    3.7549    0.2784 H   0  0  0  0  0  0  0  0  0  0  0  0
   -6.9201    4.6285    0.4191 H   0  0  0  0  0  0  0  0  0  0  0  0
    4.1821    1.8051   -0.3271 H   0  0  0  0  0  0  0  0  0  0  0  0
    5.7674   -2.1661   -0.4278 H   0  0  0  0  0  0  0  0  0  0  0  0
    8.0738   -1.2717   -0.3630 H   0  0  0  0  0  0  0  0  0  0  0  0
    8.4731    1.1285   -0.2814 H   0  0  0  0  0  0  0  0  0  0  0  0
    5.7835    5.0176   -0.2167 H   0  0  0  0  0  0  0  0  0  0  0  0
    4.8130    3.8204    0.6241 H   0  0  0  0  0  0  0  0  0  0  0  0
    4.8558    3.8677   -1.1655 H   0  0  0  0  0  0  0  0  0  0  0  0
    7.9237    4.6824   -0.1728 H   0  0  0  0  0  0  0  0  0  0  0  0
    8.4830    3.3068   -1.1104 H   0  0  0  0  0  0  0  0  0  0  0  0
    8.4583    3.2437    0.6790 H   0  0  0  0  0  0  0  0  0  0  0  0
  1 13  1  0  0  0  0
  1 16  1  0  0  0  0
  2 12  1  0  0  0  0
  2 17  1  0  0  0  0
  3 25  1  0  0  0  0
  3 26  1  0  0  0  0
  4 21  2  0  0  0  0
  5 14  1  0  0  0  0
  5 21  1  0  0  0  0
  5 42  1  0  0  0  0
  6  8  1  0  0  0  0
  6 15  1  0  0  0  0
  6 25  1  0  0  0  0
  7 18  1  0  0  0  0
  7 21  1  0  0  0  0
  7 52  1  0  0  0  0
  8 10  2  0  0  0  0
  9 10  1  0  0  0  0
  9 25  2  0  0  0  0
 11 29  1  0  0  0  0
 11 32  1  0  0  0  0
 11 33  1  0  0  0  0
 12 13  1  0  0  0  0
 12 14  1  0  0  0  0
 12 34  1  0  0  0  0
 13 15  1  0  0  0  0
 13 35  1  0  0  0  0
 14 16  1  0  0  0  0
 14 36  1  0  0  0  0
 15 17  1  0  0  0  0
 15 37  1  0  0  0  0
 16 38  1  0  0  0  0
 16 39  1  0  0  0  0
 17 40  1  0  0  0  0
 17 41  1  0  0  0  0
 18 19  1  0  0  0  0
 18 20  1  0  0  0  0
 18 43  1  0  0  0  0
 19 22  1  0  0  0  0
 19 44  1  0  0  0  0
 19 45  1  0  0  0  0
 20 23  1  0  0  0  0
 20 46  1  0  0  0  0
 20 47  1  0  0  0  0
 22 24  1  0  0  0  0
 22 48  1  0  0  0  0
 22 49  1  0  0  0  0
 23 24  1  0  0  0  0
 23 50  1  0  0  0  0
 23 51  1  0  0  0  0
 24 53  1  0  0  0  0
 24 54  1  0  0  0  0
 26 27  1  0  0  0  0
 26 28  2  0  0  0  0
 27 29  2  0  0  0  0
 27 55  1  0  0  0  0
 28 30  1  0  0  0  0
 28 56  1  0  0  0  0
 29 31  1  0  0  0  0
 30 31  2  0  0  0  0
 30 57  1  0  0  0  0
 31 58  1  0  0  0  0
 32 59  1  0  0  0  0
 32 60  1  0  0  0  0
 32 61  1  0  0  0  0
 33 62  1  0  0  0  0
 33 63  1  0  0  0  0
 33 64  1  0  0  0  0
M  END
> <PUBCHEM_COMPOUND_CID>
11879568

> <PUBCHEM_CONFORMER_RMSD>
1.4

> <PUBCHEM_CONFORMER_DIVERSEORDER>
1
62
75
25
28
89
17
77
102
96
44
47
23
99
72
11
78
33
109
21
27
79
66
36
71
112
100
93
81
43
55
52
18
34
87
32
45
73
107
104
57
111
80
48
14
39
26
40
103
5
94
2
22
88
31
97
105
38
61
7
110
108
63
65
4
53
68
35
98
8
113
82
29
106
10
70
20
41
59
30
51
49
95
12
58
90
101
24
92
86
37
84
54
13
42
91
69
6
74
56
19
9
85
15
16
3
83
60
64
46
50
76
67

> <PUBCHEM_MMFF94_PARTIAL_CHARGES>
33
1 -0.56
11 -0.84
12 0.28
13 0.28
14 0.3
15 0.26
16 0.28
17 0.28
18 0.3
2 -0.56
21 0.69
25 0.25
26 0.08
27 -0.15
28 -0.15
29 0.1
3 -0.15
30 -0.15
31 -0.15
32 0.37
33 0.37
4 -0.57
42 0.37
5 -0.73
52 0.37
55 0.15
56 0.15
57 0.15
58 0.15
6 0.31
7 -0.73
8 -0.42
9 -0.34

> <PUBCHEM_EFFECTIVE_ROTOR_COUNT>
10.4

> <PUBCHEM_PHARMACOPHORE_FEATURES>
12
1 1 acceptor
1 11 cation
1 2 acceptor
1 4 acceptor
1 5 donor
1 7 donor
3 6 9 25 cation
5 1 12 13 14 16 rings
5 2 12 13 15 17 rings
5 6 8 9 10 25 rings
6 18 19 20 22 23 24 rings
6 26 27 28 29 30 31 rings

> <PUBCHEM_HEAVY_ATOM_COUNT>
33

> <PUBCHEM_ATOM_DEF_STEREO_COUNT>
4

> <PUBCHEM_ATOM_UDEF_STEREO_COUNT>
0

> <PUBCHEM_BOND_DEF_STEREO_COUNT>
0

> <PUBCHEM_BOND_UDEF_STEREO_COUNT>
0

> <PUBCHEM_ISOTOPIC_ATOM_COUNT>
0

> <PUBCHEM_COMPONENT_COUNT>
1

> <PUBCHEM_CACTVS_TAUTO_COUNT>
3

> <PUBCHEM_CONFORMER_ID>
00B5449000000001

> <PUBCHEM_MMFF94_ENERGY>
81.3936

> <PUBCHEM_FEATURE_SELFOVERLAP>
61.64

> <PUBCHEM_SHAPE_FINGERPRINT>
10 15 18113622236620858299
10280341 67 18199736102935685056
10554248 39 17417534609692042558
10674148 151 18412825777309235794
10816530 90 18342449366256506344
10883706 17 10591173861138710693
11135609 99 8862649205969861040
11374522 79 9727339265580169637
11408170 253 18131358466688689633
11456790 92 17603858980423616032
12013929 29 18413392055403850028
12120059 9 13118274894139609899
12539765 74 18202291281584225494
12717326 69 11314294032447951848
13782708 43 9006764394409947427
13944108 23 18198623241952713272
14251757 52 18409164407181790258
14394314 77 18409451397134905853
14664723 55 18272375243871129137
14904525 67 18410847789449271521
14951699 99 18338516327622716321
15064981 194 18045518640630204910
15183329 4 15769777939806897611
16067689 391 11023814107668261109
16728433 281 17560808684774834745
16992727 255 18272092712021195136
16993427 108 10665228168049385055
16994733 274 18409727400243367720
1768 124 9367353630796257652
17686467 74 18041282154241747331
19438510 23 18186521033398167266
19841028 212 10087651381674877932
20691028 202 18338795723260619700
21033648 29 17241328118424802442
21585482 111 18263645065849637557
22002106 203 10735613354169772772
2747138 104 14923946699943175111
3711267 37 18342462525493125024
3918712 181 18265612088120511869
393628 194 18272093739347255393
406291 66 9151176441318391693
4169191 19 18410853231958475125
5223283 242 18267028254949385038
563151 74 17167583765347593851
5718773 13 9223234039566130951
5911458 16 18412831282808755169
5937810 71 18201444700696502809
6289498 60 18259978280117175704
6328613 192 18413107281754611961
636775 72 18267582601461150684
6695519 79 16950548991945797043
6698420 124 18113337548792618986
9689198 14 18334863813570765851
9980921 221 16701752579065570529

> <PUBCHEM_SHAPE_MULTIPOLES>
620.78
27.14
4.53
1.5
8.36
3.72
-0.69
32.89
0.73
-0.52
0.19
1.02
-0.42
-2.36

> <PUBCHEM_SHAPE_SELFOVERLAP>
1322.969

> <PUBCHEM_SHAPE_VOLUME>
344.6

> <PUBCHEM_COORDINATE_TYPE>
2
5
10

$$$$
