11913027
  -OEChem-12032416293D

 61 65  0     1  0  0  0  0  0999 V2000
    0.1181    1.5677    1.5312 O   0  0  0  0  0  0  0  0  0  0  0  0
   -0.5131    3.0496   -1.1413 O   0  0  0  0  0  0  0  0  0  0  0  0
   -4.5648    1.4870   -0.6764 O   0  0  0  0  0  0  0  0  0  0  0  0
   -2.7970    0.8709    0.7079 N   0  0  0  0  0  0  0  0  0  0  0  0
    1.8627    1.1314   -1.6461 N   0  0  0  0  0  0  0  0  0  0  0  0
    3.1664   -0.3498   -0.3763 N   0  0  0  0  0  0  0  0  0  0  0  0
    3.0332   -0.5613   -2.7732 N   0  0  0  0  0  0  0  0  0  0  0  0
   -0.9479    1.7987   -0.5829 C   0  0  1  0  0  0  0  0  0  0  0  0
    0.2356    1.1950    0.1477 C   0  0  1  0  0  0  0  0  0  0  0  0
   -1.9700    2.0359    0.5053 C   0  0  2  0  0  0  0  0  0  0  0  0
    1.4364    1.8667   -0.4756 C   0  0  2  0  0  0  0  0  0  0  0  0
   -1.0970    2.3087    1.7172 C   0  0  0  0  0  0  0  0  0  0  0  0
    0.8873    3.2229   -0.8787 C   0  0  0  0  0  0  0  0  0  0  0  0
   -4.6659   -0.6112    0.4593 C   0  0  0  0  0  0  0  0  0  0  0  0
   -4.0284    0.6971    0.0963 C   0  0  0  0  0  0  0  0  0  0  0  0
   -6.1897   -0.4718    0.4407 C   0  0  0  0  0  0  0  0  0  0  0  0
   -4.1921   -1.7060   -0.4993 C   0  0  0  0  0  0  0  0  0  0  0  0
    4.5089   -1.8667    0.9901 C   0  0  0  0  0  0  0  0  0  0  0  0
   -6.8815   -1.8048    0.7131 C   0  0  0  0  0  0  0  0  0  0  0  0
   -4.8886   -3.0362   -0.2250 C   0  0  0  0  0  0  0  0  0  0  0  0
   -6.4073   -2.8916   -0.2472 C   0  0  0  0  0  0  0  0  0  0  0  0
    5.8257   -1.1742    1.3582 C   0  0  0  0  0  0  0  0  0  0  0  0
    3.6248   -1.5632    2.2079 C   0  0  0  0  0  0  0  0  0  0  0  0
    5.3934    0.1214    2.0308 C   0  0  0  0  0  0  0  0  0  0  0  0
    4.1027   -0.2212    2.7685 C   0  0  0  0  0  0  0  0  0  0  0  0
    2.7128    0.0409   -1.5971 C   0  0  0  0  0  0  0  0  0  0  0  0
    3.9926   -1.4163   -0.3654 C   0  0  0  0  0  0  0  0  0  0  0  0
    4.3793   -2.0984   -1.5010 C   0  0  0  0  0  0  0  0  0  0  0  0
    3.8637   -1.6213   -2.6886 C   0  0  0  0  0  0  0  0  0  0  0  0
   -1.3039    1.1759   -1.4100 H   0  0  0  0  0  0  0  0  0  0  0  0
    0.2460    0.1011    0.1067 H   0  0  0  0  0  0  0  0  0  0  0  0
   -2.6192    2.8932    0.2969 H   0  0  0  0  0  0  0  0  0  0  0  0
    2.2725    2.0093    0.2188 H   0  0  0  0  0  0  0  0  0  0  0  0
   -1.5562    2.0201    2.6676 H   0  0  0  0  0  0  0  0  0  0  0  0
   -0.8253    3.3686    1.7734 H   0  0  0  0  0  0  0  0  0  0  0  0
    0.9750    3.9402   -0.0550 H   0  0  0  0  0  0  0  0  0  0  0  0
    1.3703    3.6544   -1.7609 H   0  0  0  0  0  0  0  0  0  0  0  0
   -2.4209    0.1190    1.2788 H   0  0  0  0  0  0  0  0  0  0  0  0
   -4.3666   -0.8827    1.4809 H   0  0  0  0  0  0  0  0  0  0  0  0
    1.4893    1.3814   -2.5548 H   0  0  0  0  0  0  0  0  0  0  0  0
   -6.5090    0.2664    1.1867 H   0  0  0  0  0  0  0  0  0  0  0  0
   -6.5300   -0.0952   -0.5329 H   0  0  0  0  0  0  0  0  0  0  0  0
   -4.3830   -1.4033   -1.5374 H   0  0  0  0  0  0  0  0  0  0  0  0
   -3.1067   -1.8397   -0.4140 H   0  0  0  0  0  0  0  0  0  0  0  0
    4.6597   -2.9529    0.9372 H   0  0  0  0  0  0  0  0  0  0  0  0
   -6.6791   -2.1162    1.7452 H   0  0  0  0  0  0  0  0  0  0  0  0
   -7.9669   -1.6821    0.6241 H   0  0  0  0  0  0  0  0  0  0  0  0
   -4.5778   -3.7757   -0.9715 H   0  0  0  0  0  0  0  0  0  0  0  0
   -4.5724   -3.4179    0.7537 H   0  0  0  0  0  0  0  0  0  0  0  0
   -6.8727   -3.8474    0.0186 H   0  0  0  0  0  0  0  0  0  0  0  0
   -6.7358   -2.6479   -1.2650 H   0  0  0  0  0  0  0  0  0  0  0  0
    6.4848   -0.9920    0.5034 H   0  0  0  0  0  0  0  0  0  0  0  0
    6.3757   -1.7901    2.0810 H   0  0  0  0  0  0  0  0  0  0  0  0
    3.7829   -2.3352    2.9719 H   0  0  0  0  0  0  0  0  0  0  0  0
    2.5544   -1.5542    1.9771 H   0  0  0  0  0  0  0  0  0  0  0  0
    5.1986    0.8935    1.2772 H   0  0  0  0  0  0  0  0  0  0  0  0
    6.1620    0.5092    2.7062 H   0  0  0  0  0  0  0  0  0  0  0  0
    4.2754   -0.3006    3.8475 H   0  0  0  0  0  0  0  0  0  0  0  0
    3.3527    0.5624    2.6152 H   0  0  0  0  0  0  0  0  0  0  0  0
    5.0449   -2.9515   -1.4761 H   0  0  0  0  0  0  0  0  0  0  0  0
    4.1118   -2.0921   -3.6339 H   0  0  0  0  0  0  0  0  0  0  0  0
  1  9  1  0  0  0  0
  1 12  1  0  0  0  0
  2  8  1  0  0  0  0
  2 13  1  0  0  0  0
  3 15  2  0  0  0  0
  4 10  1  0  0  0  0
  4 15  1  0  0  0  0
  4 38  1  0  0  0  0
  5 11  1  0  0  0  0
  5 26  1  0  0  0  0
  5 40  1  0  0  0  0
  6 26  1  0  0  0  0
  6 27  2  0  0  0  0
  7 26  2  0  0  0  0
  7 29  1  0  0  0  0
  8  9  1  0  0  0  0
  8 10  1  0  0  0  0
  8 30  1  0  0  0  0
  9 11  1  0  0  0  0
  9 31  1  0  0  0  0
 10 12  1  0  0  0  0
 10 32  1  0  0  0  0
 11 13  1  0  0  0  0
 11 33  1  0  0  0  0
 12 34  1  0  0  0  0
 12 35  1  0  0  0  0
 13 36  1  0  0  0  0
 13 37  1  0  0  0  0
 14 15  1  0  0  0  0
 14 16  1  0  0  0  0
 14 17  1  0  0  0  0
 14 39  1  0  0  0  0
 16 19  1  0  0  0  0
 16 41  1  0  0  0  0
 16 42  1  0  0  0  0
 17 20  1  0  0  0  0
 17 43  1  0  0  0  0
 17 44  1  0  0  0  0
 18 22  1  0  0  0  0
 18 23  1  0  0  0  0
 18 27  1  0  0  0  0
 18 45  1  0  0  0  0
 19 21  1  0  0  0  0
 19 46  1  0  0  0  0
 19 47  1  0  0  0  0
 20 21  1  0  0  0  0
 20 48  1  0  0  0  0
 20 49  1  0  0  0  0
 21 50  1  0  0  0  0
 21 51  1  0  0  0  0
 22 24  1  0  0  0  0
 22 52  1  0  0  0  0
 22 53  1  0  0  0  0
 23 25  1  0  0  0  0
 23 54  1  0  0  0  0
 23 55  1  0  0  0  0
 24 25  1  0  0  0  0
 24 56  1  0  0  0  0
 24 57  1  0  0  0  0
 25 58  1  0  0  0  0
 25 59  1  0  0  0  0
 27 28  1  0  0  0  0
 28 29  2  0  0  0  0
 28 60  1  0  0  0  0
 29 61  1  0  0  0  0
M  END
> <PUBCHEM_COMPOUND_CID>
11913027

> <PUBCHEM_CONFORMER_RMSD>
1

> <PUBCHEM_CONFORMER_DIVERSEORDER>
1
42
143
137
128
65
147
134
131
117
124
103
44
104
57
107
29
24
149
135
127
89
35
132
74
67
92
123
129
98
32
116
81
142
80
136
97
146
48
138
140
115
56
110
10
59
72
54
28
5
100
83
108
141
39
49
40
33
37
6
78
75
55
126
86
7
144
15
20
94
51
114
88
45
91
145
133
17
16
70
95
4
77
22
84
120
101
53
27
121
62
26
139
90
21
76
52
130
60
113
68
118
11
41
96
111
102
112
12
106
19
30
31
61
46
105
119
36
71
125
47
18
122
8
9
85
99
43
79
63
14
23
34
148
87
2
58
25
82
69
50
73
38
109
64
66
13
3
93

> <PUBCHEM_MMFF94_PARTIAL_CHARGES>
24
1 -0.56
10 0.3
11 0.37
12 0.28
13 0.28
14 0.06
15 0.57
18 0.14
2 -0.56
26 0.72
27 0.17
28 -0.15
29 0.16
3 -0.57
38 0.37
4 -0.73
40 0.4
5 -0.87
6 -0.62
60 0.15
61 0.15
7 -0.62
8 0.28
9 0.28

> <PUBCHEM_EFFECTIVE_ROTOR_COUNT>
9.4

> <PUBCHEM_PHARMACOPHORE_FEATURES>
12
1 1 acceptor
1 2 acceptor
1 3 acceptor
1 4 donor
1 5 donor
1 6 acceptor
4 5 6 7 26 cation
5 1 8 9 10 12 rings
5 18 22 23 24 25 rings
5 2 8 9 11 13 rings
6 14 16 17 19 20 21 rings
6 6 7 26 27 28 29 rings

> <PUBCHEM_HEAVY_ATOM_COUNT>
29

> <PUBCHEM_ATOM_DEF_STEREO_COUNT>
4

> <PUBCHEM_ATOM_UDEF_STEREO_COUNT>
0

> <PUBCHEM_BOND_DEF_STEREO_COUNT>
0

> <PUBCHEM_BOND_UDEF_STEREO_COUNT>
0

> <PUBCHEM_ISOTOPIC_ATOM_COUNT>
0

> <PUBCHEM_COMPONENT_COUNT>
1

> <PUBCHEM_CACTVS_TAUTO_COUNT>
6

> <PUBCHEM_CONFORMER_ID>
00B5C74300000001

> <PUBCHEM_MMFF94_ENERGY>
64.7554

> <PUBCHEM_FEATURE_SELFOVERLAP>
61.604

> <PUBCHEM_SHAPE_FINGERPRINT>
10074138 170 17558565608119018097
10378564 45 12251898188103862898
10622 236 17169537515879698090
11069576 57 17023467430927361418
11443803 9 18194133022341097164
11720765 8 13623515854432447102
11796584 16 18338513041403386585
12047536 79 16128385848277022443
12166972 35 17385435510454871794
12342043 65 17344645742272565198
12373685 5 16773505690587894909
12661589 4 18190184684000525963
13583140 156 16054628280150366996
14150023 79 17825959396810344036
14251740 57 18202008741270585966
14251751 18 18408035217535707731
14347332 77 18259701216724985733
14508693 111 18260829345108471434
14848178 5 18342459218699901637
14950920 106 16128097728342845270
15001296 14 18190463946974035595
15163728 17 10375873008624610733
15183329 4 14490473045480490456
15510800 12 18272649039467375119
15728490 51 18410005572854275898
17134984 74 17531820167438974634
1979834 28 17346332504699757815
20567600 234 12967133800918497369
20567600 9 9006789699629092842
20626108 58 18409168818008071869
21223535 225 14418403331039819823
21315763 87 17203331139262218231
21315764 371 18336825282712612970
21421861 104 18199183069533436588
21458453 9 16987130907468996690
21585480 29 17130974512078454167
21968339 14 16009324213745512710
23559900 14 17916878898037071556
23572383 38 18202280260871768575
25222932 49 18334845135369775986
2838139 119 10881680269208630629
3004659 81 18338248145110818951
312425 54 17631743664402543619
312425 83 12541566755492793778
3388396 114 16154291458723763094
38570 142 9904171997374814260
3882209 13 17054114363378882815
392239 28 16486678191629283878
4017518 198 15806058211951609050
4046055 25 12256901996397201257
4066623 53 13045930305696876454
437795 139 17968366935963896387
4394409 98 17969483975696605511
439807 62 17967817184967410035
44062 13 18334299739121864413
463206 1 17894634751008766723
50009960 94 18049984873863758687
5104073 3 17203056162048209001
59025328 239 16009308696107961894
59682541 52 15140674778568322523
613672 6 18272363136284378301
7970288 3 18267596722970742199
86090 222 17130172860685451631

> <PUBCHEM_SHAPE_MULTIPOLES>
559.27
16.2
3.57
2.39
16.64
0.77
0.12
-15.96
-4.31
2.64
0.68
-5.09
-0.47
0.06

> <PUBCHEM_SHAPE_SELFOVERLAP>
1193.844

> <PUBCHEM_SHAPE_VOLUME>
307.9

> <PUBCHEM_COORDINATE_TYPE>
2
5
10

$$$$
