11941667
  -OEChem-12032416253D

 68 73  0     1  0  0  0  0  0999 V2000
   -2.1562    2.0667    2.7253 O   0  0  0  0  0  0  0  0  0  0  0  0
   -3.1178    2.3268   -0.2317 O   0  0  0  0  0  0  0  0  0  0  0  0
    1.8476    2.1097    1.0993 O   0  0  0  0  0  0  0  0  0  0  0  0
    7.3330   -0.2014   -1.5335 O   0  0  0  0  0  0  0  0  0  0  0  0
   -4.0842   -0.2809    2.1337 N   0  0  0  0  0  0  0  0  0  0  0  0
   -0.0273    1.9966   -0.2488 N   0  0  0  0  0  0  0  0  0  0  0  0
   -5.3893   -0.9783    0.3441 N   0  0  0  0  0  0  0  0  0  0  0  0
   -4.7326   -2.5101    2.0846 N   0  0  0  0  0  0  0  0  0  0  0  0
    1.9702    1.2099   -1.0655 N   0  0  0  0  0  0  0  0  0  0  0  0
   -2.8915    1.2018    0.6342 C   0  0  1  0  0  0  0  0  0  0  0  0
   -1.6775    1.5247    1.4833 C   0  0  1  0  0  0  0  0  0  0  0  0
   -4.0176    1.0746    1.6328 C   0  0  2  0  0  0  0  0  0  0  0  0
   -0.9477    2.5867    0.6928 C   0  0  2  0  0  0  0  0  0  0  0  0
   -3.5907    2.0225    2.7385 C   0  0  0  0  0  0  0  0  0  0  0  0
   -2.0834    3.2990   -0.0201 C   0  0  0  0  0  0  0  0  0  0  0  0
   -6.7582   -1.6785   -1.5477 C   0  0  0  0  0  0  0  0  0  0  0  0
   -5.8426   -1.1553   -2.6740 C   0  0  0  0  0  0  0  0  0  0  0  0
   -7.8511   -0.6094   -1.3697 C   0  0  0  0  0  0  0  0  0  0  0  0
   -6.3384    0.2507   -2.9920 C   0  0  0  0  0  0  0  0  0  0  0  0
   -7.8192    0.1943   -2.6608 C   0  0  0  0  0  0  0  0  0  0  0  0
   -4.7650   -1.3008    1.4929 C   0  0  0  0  0  0  0  0  0  0  0  0
   -6.0425   -1.9961   -0.2538 C   0  0  0  0  0  0  0  0  0  0  0  0
    1.3303    1.7974    0.0294 C   0  0  0  0  0  0  0  0  0  0  0  0
   -6.0854   -3.2805    0.2491 C   0  0  0  0  0  0  0  0  0  0  0  0
   -5.4059   -3.4810    1.4331 C   0  0  0  0  0  0  0  0  0  0  0  0
    3.3329    0.8499   -1.1839 C   0  0  0  0  0  0  0  0  0  0  0  0
    4.2090    1.0767   -0.1226 C   0  0  0  0  0  0  0  0  0  0  0  0
    3.8010    0.2692   -2.3627 C   0  0  0  0  0  0  0  0  0  0  0  0
    5.5531    0.7228   -0.2397 C   0  0  0  0  0  0  0  0  0  0  0  0
    5.1451   -0.0848   -2.4800 C   0  0  0  0  0  0  0  0  0  0  0  0
    6.0211    0.1420   -1.4183 C   0  0  0  0  0  0  0  0  0  0  0  0
    7.9213   -0.8623   -0.4683 C   0  0  0  0  0  0  0  0  0  0  0  0
    7.2520   -1.9160    0.1544 C   0  0  0  0  0  0  0  0  0  0  0  0
    9.1828   -0.4739   -0.0174 C   0  0  0  0  0  0  0  0  0  0  0  0
    7.8442   -2.5811    1.2280 C   0  0  0  0  0  0  0  0  0  0  0  0
    9.7751   -1.1391    1.0562 C   0  0  0  0  0  0  0  0  0  0  0  0
    9.1057   -2.1927    1.6788 C   0  0  0  0  0  0  0  0  0  0  0  0
   -2.7407    0.3262   -0.0054 H   0  0  0  0  0  0  0  0  0  0  0  0
   -1.0740    0.6428    1.7210 H   0  0  0  0  0  0  0  0  0  0  0  0
   -4.9914    1.3941    1.2438 H   0  0  0  0  0  0  0  0  0  0  0  0
   -0.3971    3.2861    1.3310 H   0  0  0  0  0  0  0  0  0  0  0  0
   -3.9470    3.0394    2.5403 H   0  0  0  0  0  0  0  0  0  0  0  0
   -3.9346    1.7278    3.7349 H   0  0  0  0  0  0  0  0  0  0  0  0
   -2.5056    4.0903    0.6091 H   0  0  0  0  0  0  0  0  0  0  0  0
   -1.7965    3.7386   -0.9803 H   0  0  0  0  0  0  0  0  0  0  0  0
   -3.5688   -0.5286    2.9706 H   0  0  0  0  0  0  0  0  0  0  0  0
   -0.3938    1.6500   -1.1303 H   0  0  0  0  0  0  0  0  0  0  0  0
   -7.2391   -2.5939   -1.9196 H   0  0  0  0  0  0  0  0  0  0  0  0
   -5.9627   -1.7908   -3.5605 H   0  0  0  0  0  0  0  0  0  0  0  0
   -4.7783   -1.1573   -2.4162 H   0  0  0  0  0  0  0  0  0  0  0  0
   -7.6421    0.0554   -0.5227 H   0  0  0  0  0  0  0  0  0  0  0  0
   -8.8343   -1.0582   -1.1936 H   0  0  0  0  0  0  0  0  0  0  0  0
   -6.1532    0.5304   -4.0329 H   0  0  0  0  0  0  0  0  0  0  0  0
   -5.8343    0.9802   -2.3468 H   0  0  0  0  0  0  0  0  0  0  0  0
   -8.2582    1.1890   -2.5419 H   0  0  0  0  0  0  0  0  0  0  0  0
   -8.3674   -0.3326   -3.4506 H   0  0  0  0  0  0  0  0  0  0  0  0
   -6.6129   -4.0891   -0.2401 H   0  0  0  0  0  0  0  0  0  0  0  0
   -5.3832   -4.4575    1.9051 H   0  0  0  0  0  0  0  0  0  0  0  0
    1.3941    1.0151   -1.8804 H   0  0  0  0  0  0  0  0  0  0  0  0
    3.9232    1.5263    0.8178 H   0  0  0  0  0  0  0  0  0  0  0  0
    3.1290    0.0873   -3.1975 H   0  0  0  0  0  0  0  0  0  0  0  0
    6.2186    0.9324    0.5938 H   0  0  0  0  0  0  0  0  0  0  0  0
    5.5041   -0.5367   -3.4006 H   0  0  0  0  0  0  0  0  0  0  0  0
    6.2783   -2.2536   -0.1902 H   0  0  0  0  0  0  0  0  0  0  0  0
    9.7084    0.3465   -0.4984 H   0  0  0  0  0  0  0  0  0  0  0  0
    7.3254   -3.4047    1.7099 H   0  0  0  0  0  0  0  0  0  0  0  0
   10.7574   -0.8368    1.4073 H   0  0  0  0  0  0  0  0  0  0  0  0
    9.5674   -2.7114    2.5139 H   0  0  0  0  0  0  0  0  0  0  0  0
  1 11  1  0  0  0  0
  1 14  1  0  0  0  0
  2 10  1  0  0  0  0
  2 15  1  0  0  0  0
  3 23  2  0  0  0  0
  4 31  1  0  0  0  0
  4 32  1  0  0  0  0
  5 12  1  0  0  0  0
  5 21  1  0  0  0  0
  5 46  1  0  0  0  0
  6 13  1  0  0  0  0
  6 23  1  0  0  0  0
  6 47  1  0  0  0  0
  7 21  1  0  0  0  0
  7 22  2  0  0  0  0
  8 21  2  0  0  0  0
  8 25  1  0  0  0  0
  9 23  1  0  0  0  0
  9 26  1  0  0  0  0
  9 59  1  0  0  0  0
 10 11  1  0  0  0  0
 10 12  1  0  0  0  0
 10 38  1  0  0  0  0
 11 13  1  0  0  0  0
 11 39  1  0  0  0  0
 12 14  1  0  0  0  0
 12 40  1  0  0  0  0
 13 15  1  0  0  0  0
 13 41  1  0  0  0  0
 14 42  1  0  0  0  0
 14 43  1  0  0  0  0
 15 44  1  0  0  0  0
 15 45  1  0  0  0  0
 16 17  1  0  0  0  0
 16 18  1  0  0  0  0
 16 22  1  0  0  0  0
 16 48  1  0  0  0  0
 17 19  1  0  0  0  0
 17 49  1  0  0  0  0
 17 50  1  0  0  0  0
 18 20  1  0  0  0  0
 18 51  1  0  0  0  0
 18 52  1  0  0  0  0
 19 20  1  0  0  0  0
 19 53  1  0  0  0  0
 19 54  1  0  0  0  0
 20 55  1  0  0  0  0
 20 56  1  0  0  0  0
 22 24  1  0  0  0  0
 24 25  2  0  0  0  0
 24 57  1  0  0  0  0
 25 58  1  0  0  0  0
 26 27  2  0  0  0  0
 26 28  1  0  0  0  0
 27 29  1  0  0  0  0
 27 60  1  0  0  0  0
 28 30  2  0  0  0  0
 28 61  1  0  0  0  0
 29 31  2  0  0  0  0
 29 62  1  0  0  0  0
 30 31  1  0  0  0  0
 30 63  1  0  0  0  0
 32 33  2  0  0  0  0
 32 34  1  0  0  0  0
 33 35  1  0  0  0  0
 33 64  1  0  0  0  0
 34 36  2  0  0  0  0
 34 65  1  0  0  0  0
 35 37  2  0  0  0  0
 35 66  1  0  0  0  0
 36 37  1  0  0  0  0
 36 67  1  0  0  0  0
 37 68  1  0  0  0  0
M  END
> <PUBCHEM_COMPOUND_CID>
11941667

> <PUBCHEM_CONFORMER_RMSD>
1.2

> <PUBCHEM_CONFORMER_DIVERSEORDER>
1
70
44
54
23
88
106
86
50
63
48
35
85
110
43
117
46
75
36
18
59
12
56
73
58
30
11
14
53
108
109
101
25
45
28
24
71
60
62
16
91
13
72
111
39
104
93
92
20
8
68
116
95
69
66
90
105
27
98
83
82
40
6
100
3
17
26
32
84
22
99
57
112
80
107
9
89
49
38
52
61
115
47
94
19
87
31
67
55
33
65
10
76
78
81
7
96
77
103
79
42
4
29
41
21
51
5
113
37
34
102
74
15
64
97
114
2

> <PUBCHEM_MMFF94_PARTIAL_CHARGES>
47
1 -0.56
10 0.28
11 0.28
12 0.37
13 0.3
14 0.28
15 0.28
16 0.14
2 -0.56
21 0.72
22 0.17
23 0.69
24 -0.15
25 0.16
26 0.12
27 -0.15
28 -0.15
29 -0.15
3 -0.57
30 -0.15
31 0.08
32 0.08
33 -0.15
34 -0.15
35 -0.15
36 -0.15
37 -0.15
4 -0.17
46 0.4
47 0.37
5 -0.87
57 0.15
58 0.15
59 0.37
6 -0.73
60 0.15
61 0.15
62 0.15
63 0.15
64 0.15
65 0.15
66 0.15
67 0.15
68 0.15
7 -0.62
8 -0.62
9 -0.55

> <PUBCHEM_EFFECTIVE_ROTOR_COUNT>
11.2

> <PUBCHEM_PHARMACOPHORE_FEATURES>
15
1 1 acceptor
1 2 acceptor
1 3 acceptor
1 4 acceptor
1 5 donor
1 6 donor
1 7 acceptor
1 9 donor
4 5 7 8 21 cation
5 1 10 11 12 14 rings
5 16 17 18 19 20 rings
5 2 10 11 13 15 rings
6 26 27 28 29 30 31 rings
6 32 33 34 35 36 37 rings
6 7 8 21 22 24 25 rings

> <PUBCHEM_HEAVY_ATOM_COUNT>
37

> <PUBCHEM_ATOM_DEF_STEREO_COUNT>
4

> <PUBCHEM_ATOM_UDEF_STEREO_COUNT>
0

> <PUBCHEM_BOND_DEF_STEREO_COUNT>
0

> <PUBCHEM_BOND_UDEF_STEREO_COUNT>
0

> <PUBCHEM_ISOTOPIC_ATOM_COUNT>
0

> <PUBCHEM_COMPONENT_COUNT>
1

> <PUBCHEM_CACTVS_TAUTO_COUNT>
9

> <PUBCHEM_CONFORMER_ID>
00B6372300000001

> <PUBCHEM_MMFF94_ENERGY>
115.8076

> <PUBCHEM_FEATURE_SELFOVERLAP>
76.883

> <PUBCHEM_SHAPE_FINGERPRINT>
10049733 244 9079107886708164125
10920273 25 8862942818614093734
11135926 11 18261398832350068947
11211813 163 17603860062623434509
12218070 45 15410894106749358581
12373685 5 18189614951718055372
12559415 36 10807653445920641802
13560911 23 17988929925022661888
13782708 43 18271536342411325912
14150022 121 9294993684135868061
14664723 55 12901552355384028487
15350500 16 18060413629750903759
17852330 134 16153980249493509618
18603816 31 18334867108464680177
19303781 99 18130506452645387735
19304152 47 10735613371058743979
21987483 16 18267027348478799952
22864921 47 18410577258729427166
2747138 104 17203339867031227168
3504750 166 17898857851477306352
3610482 184 16081634678779060149
397830 11 15769777940344415692
42767 23 17967248711332630994
4403749 210 15913048664783206285
50009960 94 18343581841911038704
504579 68 17167579380338951720
5080951 261 18131351861202560717
5937810 71 11458435647832054518
6703917 75 9367339323770201593

> <PUBCHEM_SHAPE_MULTIPOLES>
713.06
32.27
3.56
2.95
51.12
0.85
0.64
27.46
6.83
-3.9
-2.15
-4.55
-0.16
-2.3

> <PUBCHEM_SHAPE_SELFOVERLAP>
1557.288

> <PUBCHEM_SHAPE_VOLUME>
384.3

> <PUBCHEM_COORDINATE_TYPE>
2
5
10

$$$$
