45360914
  -OEChem-12032416233D

 60 63  0     1  0  0  0  0  0999 V2000
   -8.2626   -3.4617   -0.0264 F   0  0  0  0  0  0  0  0  0  0  0  0
    2.6691   -1.8080   -0.8764 O   0  0  0  0  0  0  0  0  0  0  0  0
   -3.5765    1.3460   -1.4679 O   0  0  0  0  0  0  0  0  0  0  0  0
    1.4061    1.8091   -0.3192 N   0  0  1  0  0  0  0  0  0  0  0  0
    4.5079   -0.0870    0.0982 N   0  0  1  0  0  0  0  0  0  0  0  0
    0.9304   -0.9579    0.3444 N   0  0  0  0  0  0  0  0  0  0  0  0
    6.9455   -1.9310   -0.7177 N   0  0  0  0  0  0  0  0  0  0  0  0
    7.8077   -0.5945    0.8321 N   0  0  0  0  0  0  0  0  0  0  0  0
   -4.6698    1.6987    0.5493 N   0  0  0  0  0  0  0  0  0  0  0  0
    2.7267    1.5500    0.2960 C   0  0  1  0  0  0  0  0  0  0  0  0
    3.1287    0.0757    0.5950 C   0  0  1  0  0  0  0  0  0  0  0  0
    3.9169    2.0418   -0.5486 C   0  0  0  0  0  0  0  0  0  0  0  0
    5.0862    1.2480   -0.0055 C   0  0  0  0  0  0  0  0  0  0  0  0
    0.2445    1.4152    0.5261 C   0  0  2  0  0  0  0  0  0  0  0  0
    2.2491   -0.9808   -0.0685 C   0  0  0  0  0  0  0  0  0  0  0  0
    0.3875    0.0521    1.2310 C   0  0  0  0  0  0  0  0  0  0  0  0
    5.3183   -0.9732    0.9239 C   0  0  0  0  0  0  0  0  0  0  0  0
   -1.0460    1.3676   -0.3187 C   0  0  0  0  0  0  0  0  0  0  0  0
    1.2857    3.2194   -0.7263 C   0  0  0  0  0  0  0  0  0  0  0  0
   -2.2689    1.5638    0.5582 C   0  0  0  0  0  0  0  0  0  0  0  0
    6.7046   -1.1428    0.3730 C   0  0  0  0  0  0  0  0  0  0  0  0
   -3.5519    1.5194   -0.2523 C   0  0  0  0  0  0  0  0  0  0  0  0
    8.2876   -1.8822   -0.9702 C   0  0  0  0  0  0  0  0  0  0  0  0
    8.7981   -1.0514   -0.0009 C   0  0  0  0  0  0  0  0  0  0  0  0
   -6.0105    1.6985    0.0138 C   0  0  0  0  0  0  0  0  0  0  0  0
   -6.6111    0.3226    0.0032 C   0  0  0  0  0  0  0  0  0  0  0  0
   -6.4470   -0.5012   -1.1105 C   0  0  0  0  0  0  0  0  0  0  0  0
   -7.3330   -0.1322    1.1068 C   0  0  0  0  0  0  0  0  0  0  0  0
   -7.0051   -1.7795   -1.1208 C   0  0  0  0  0  0  0  0  0  0  0  0
   -7.8911   -1.4105    1.0965 C   0  0  0  0  0  0  0  0  0  0  0  0
   -7.7271   -2.2341   -0.0173 C   0  0  0  0  0  0  0  0  0  0  0  0
    2.7751    2.0969    1.2505 H   0  0  0  0  0  0  0  0  0  0  0  0
    3.0996   -0.0844    1.6809 H   0  0  0  0  0  0  0  0  0  0  0  0
    4.0864    3.1187   -0.4461 H   0  0  0  0  0  0  0  0  0  0  0  0
    3.7677    1.8122   -1.6122 H   0  0  0  0  0  0  0  0  0  0  0  0
    5.9358    1.2915   -0.6942 H   0  0  0  0  0  0  0  0  0  0  0  0
    5.3931    1.6464    0.9701 H   0  0  0  0  0  0  0  0  0  0  0  0
    0.1248    2.1700    1.3161 H   0  0  0  0  0  0  0  0  0  0  0  0
    1.0343    0.1444    2.1095 H   0  0  0  0  0  0  0  0  0  0  0  0
   -0.5649   -0.3354    1.6024 H   0  0  0  0  0  0  0  0  0  0  0  0
    4.8502   -1.9638    0.9844 H   0  0  0  0  0  0  0  0  0  0  0  0
    5.3934   -0.5973    1.9529 H   0  0  0  0  0  0  0  0  0  0  0  0
   -1.1147    0.4164   -0.8632 H   0  0  0  0  0  0  0  0  0  0  0  0
   -1.0788    2.1339   -1.0967 H   0  0  0  0  0  0  0  0  0  0  0  0
    0.2960   -1.6503   -0.0419 H   0  0  0  0  0  0  0  0  0  0  0  0
    0.3331    3.4666   -1.1979 H   0  0  0  0  0  0  0  0  0  0  0  0
    2.0330    3.4767   -1.4840 H   0  0  0  0  0  0  0  0  0  0  0  0
    1.4161    3.8937    0.1284 H   0  0  0  0  0  0  0  0  0  0  0  0
   -2.2220    2.5386    1.0588 H   0  0  0  0  0  0  0  0  0  0  0  0
   -2.3439    0.7931    1.3316 H   0  0  0  0  0  0  0  0  0  0  0  0
    6.2578   -2.4542   -1.2434 H   0  0  0  0  0  0  0  0  0  0  0  0
    8.7392   -2.4243   -1.7883 H   0  0  0  0  0  0  0  0  0  0  0  0
    9.8284   -0.7589    0.1395 H   0  0  0  0  0  0  0  0  0  0  0  0
   -4.5540    1.8182    1.5516 H   0  0  0  0  0  0  0  0  0  0  0  0
   -6.6115    2.3747    0.6325 H   0  0  0  0  0  0  0  0  0  0  0  0
   -6.0024    2.1194   -0.9987 H   0  0  0  0  0  0  0  0  0  0  0  0
   -5.8906   -0.1596   -1.9789 H   0  0  0  0  0  0  0  0  0  0  0  0
   -7.4663    0.4993    1.9812 H   0  0  0  0  0  0  0  0  0  0  0  0
   -6.8782   -2.4208   -1.9879 H   0  0  0  0  0  0  0  0  0  0  0  0
   -8.4528   -1.7652    1.9556 H   0  0  0  0  0  0  0  0  0  0  0  0
  1 31  1  0  0  0  0
  2 15  2  0  0  0  0
  3 22  2  0  0  0  0
  4 10  1  0  0  0  0
  4 14  1  0  0  0  0
  4 19  1  0  0  0  0
  5 11  1  0  0  0  0
  5 13  1  0  0  0  0
  5 17  1  0  0  0  0
  6 15  1  0  0  0  0
  6 16  1  0  0  0  0
  6 45  1  0  0  0  0
  7 21  1  0  0  0  0
  7 23  1  0  0  0  0
  7 51  1  0  0  0  0
  8 21  2  0  0  0  0
  8 24  1  0  0  0  0
  9 22  1  0  0  0  0
  9 25  1  0  0  0  0
  9 54  1  0  0  0  0
 10 11  1  0  0  0  0
 10 12  1  0  0  0  0
 10 32  1  0  0  0  0
 11 15  1  0  0  0  0
 11 33  1  0  0  0  0
 12 13  1  0  0  0  0
 12 34  1  0  0  0  0
 12 35  1  0  0  0  0
 13 36  1  0  0  0  0
 13 37  1  0  0  0  0
 14 16  1  0  0  0  0
 14 18  1  0  0  0  0
 14 38  1  0  0  0  0
 16 39  1  0  0  0  0
 16 40  1  0  0  0  0
 17 21  1  0  0  0  0
 17 41  1  0  0  0  0
 17 42  1  0  0  0  0
 18 20  1  0  0  0  0
 18 43  1  0  0  0  0
 18 44  1  0  0  0  0
 19 46  1  0  0  0  0
 19 47  1  0  0  0  0
 19 48  1  0  0  0  0
 20 22  1  0  0  0  0
 20 49  1  0  0  0  0
 20 50  1  0  0  0  0
 23 24  2  0  0  0  0
 23 52  1  0  0  0  0
 24 53  1  0  0  0  0
 25 26  1  0  0  0  0
 25 55  1  0  0  0  0
 25 56  1  0  0  0  0
 26 27  2  0  0  0  0
 26 28  1  0  0  0  0
 27 29  1  0  0  0  0
 27 57  1  0  0  0  0
 28 30  2  0  0  0  0
 28 58  1  0  0  0  0
 29 31  2  0  0  0  0
 29 59  1  0  0  0  0
 30 31  1  0  0  0  0
 30 60  1  0  0  0  0
M  END
> <PUBCHEM_COMPOUND_CID>
45360914

> <PUBCHEM_CONFORMER_RMSD>
1

> <PUBCHEM_CONFORMER_DIVERSEORDER>
2
232
39
198
204
27
195
44
120
146
209
7
243
32
253
163
173
124
259
71
49
233
229
63
119
188
101
236
4
152
121
41
26
53
255
203
56
180
248
5
91
183
178
230
171
168
47
217
179
66
160
189
133
75
184
137
131
202
240
114
246
11
126
110
118
106
31
58
68
96
170
103
175
235
61
35
226
234
67
55
38
238
239
109
191
174
213
162
156
215
150
60
185
241
211
192
105
57
155
77
169
3
258
43
244
42
15
197
166
1
95
250
205
142
20
140
64
214
245
79
159
72
172
13
50
139
69
154
157
249
125
113
116
221
231
182
207
111
30
252
165
10
48
29
225
144
115
136
45
93
228
208
23
17
242
59
247
212
186
25
70
74
260
40
65
100
98
176
224
33
134
141
227
102
85
210
14
107
148
122
22
34
251
190
52
143
123
200
147
206
81
201
94
87
256
177
97
16
130
54
145
104
28
6
132
99
12
257
222
117
92
161
151
193
80
36
135
158
223
83
220
9
46
187
8
194
181
37
129
254
21
78
112
196
82
237
90
19
108
84
18
219
24
73
149
86
128
164
127
76
138
51
153
216
218
167
88
199
89
62

> <PUBCHEM_MMFF94_PARTIAL_CHARGES>
38
1 -0.19
10 0.27
11 0.33
13 0.27
14 0.27
15 0.57
16 0.3
17 0.45
19 0.27
2 -0.57
20 0.06
21 0.01
22 0.57
23 -0.3
24 0.08
25 0.44
26 -0.14
27 -0.15
28 -0.15
29 -0.15
3 -0.57
30 -0.15
31 0.19
4 -0.81
45 0.37
5 -0.81
51 0.27
52 0.15
53 0.15
54 0.37
57 0.15
58 0.15
59 0.15
6 -0.73
60 0.15
7 0.03
8 -0.57
9 -0.73

> <PUBCHEM_EFFECTIVE_ROTOR_COUNT>
9.4

> <PUBCHEM_PHARMACOPHORE_FEATURES>
12
1 2 acceptor
1 3 acceptor
1 4 cation
1 5 cation
1 6 donor
1 7 donor
1 9 donor
3 7 8 21 cation
5 5 10 11 12 13 rings
5 7 8 21 23 24 rings
6 26 27 28 29 30 31 rings
7 4 6 10 11 14 15 16 rings

> <PUBCHEM_HEAVY_ATOM_COUNT>
31

> <PUBCHEM_ATOM_DEF_STEREO_COUNT>
3

> <PUBCHEM_ATOM_UDEF_STEREO_COUNT>
0

> <PUBCHEM_BOND_DEF_STEREO_COUNT>
0

> <PUBCHEM_BOND_UDEF_STEREO_COUNT>
0

> <PUBCHEM_ISOTOPIC_ATOM_COUNT>
0

> <PUBCHEM_COMPONENT_COUNT>
1

> <PUBCHEM_CACTVS_TAUTO_COUNT>
6

> <PUBCHEM_CONFORMER_ID>
02B4271200000002

> <PUBCHEM_MMFF94_ENERGY>
66.5241

> <PUBCHEM_FEATURE_SELFOVERLAP>
60.935

> <PUBCHEM_SHAPE_FINGERPRINT>
10 15 12535631561492281379
11135609 99 18342457075226507831
11386260 185 16515692177836509348
11621639 148 18340759438939900992
11963148 33 18335412418376298698
12539765 74 9222942717042353376
12645989 146 18187086169944077117
13668630 136 18410854330894907660
13782708 43 18187075153352767913
14178184 131 17988356074748321615
15274700 208 13407366243498947270
15350500 55 10015588298520480643
15461852 350 16588026801274840355
16991971 28 18408889516753986716
16994733 274 10159696884936288437
1754908 1 17346591980706122594
1818759 1 18131356293618859718
195137 175 7997971284454686783
20028762 73 18412262817932585922
2026 5 18336266739185198978
21150785 3 15791736282609409928
21267235 1 18411139112991291424
21781051 124 18201729465786727126
21792965 169 18340485680969206871
23569917 315 18342746187288917910
23569943 247 17765160463034285018
23576562 1 13624112961875917851
2747138 104 18201711830424286520
3178227 256 16845852399674184562
335352 9 18260554412141723516
4169191 19 10015865371345578185
4340502 62 15195560179235878756
437795 83 13551464840094922495
439807 62 18411418449912688545
4461854 278 17847062198548344150
44802255 64 12973888113828299873
4625314 4 18335137596904881021
484989 97 18041287659292835427
54039377 194 18412826884598324207
5937810 71 12324233937520700119
59682541 35 17917704704478472272
636775 72 9583518716339410971
636775 8 18412269402581291358
6691757 9 15554435302553254853
999808 66 18131348601327190231

> <PUBCHEM_SHAPE_MULTIPOLES>
589.07
29.41
2.97
1.07
8.97
0.06
-0.04
24.59
-0.45
2.08
-0.63
0.6
0.13
0.14

> <PUBCHEM_SHAPE_SELFOVERLAP>
1249.023

> <PUBCHEM_SHAPE_VOLUME>
330.7

> <PUBCHEM_COORDINATE_TYPE>
2
5
10

$$$$
