75537022
  -OEChem-12032416313D

 50 52  0     1  0  0  0  0  0999 V2000
    2.1816   -2.6731    0.3643 O   0  0  0  0  0  0  0  0  0  0  0  0
   -4.5758   -1.2893   -0.1147 O   0  0  0  0  0  0  0  0  0  0  0  0
    2.1573   -0.3242    0.1569 N   0  0  0  0  0  0  0  0  0  0  0  0
    0.1974   -1.4192    0.2570 N   0  0  0  0  0  0  0  0  0  0  0  0
   -2.3714   -0.7223   -0.5494 N   0  0  0  0  0  0  0  0  0  0  0  0
   -4.0188    0.9338   -0.1862 N   0  0  0  0  0  0  0  0  0  0  0  0
   -0.1676   -0.0120    0.2560 C   0  0  1  0  0  0  0  0  0  0  0  0
    3.5686   -0.0331    0.0814 C   0  0  0  0  0  0  0  0  0  0  0  0
    1.1489    0.7034   -0.0349 C   0  0  0  0  0  0  0  0  0  0  0  0
    4.0034    0.8268    1.2706 C   0  0  0  0  0  0  0  0  0  0  0  0
    3.9123    0.6416   -1.2492 C   0  0  0  0  0  0  0  0  0  0  0  0
   -1.2739    0.2435   -0.7631 C   0  0  0  0  0  0  0  0  0  0  0  0
    1.5867   -1.6072    0.2750 C   0  0  0  0  0  0  0  0  0  0  0  0
   -0.8369   -2.4361    0.3412 C   0  0  0  0  0  0  0  0  0  0  0  0
    5.4827    1.1943    1.1882 C   0  0  0  0  0  0  0  0  0  0  0  0
    5.3921    1.0077   -1.3279 C   0  0  0  0  0  0  0  0  0  0  0  0
   -1.9546   -2.1301   -0.6553 C   0  0  0  0  0  0  0  0  0  0  0  0
    5.8238    1.8633   -0.1403 C   0  0  0  0  0  0  0  0  0  0  0  0
   -3.7138   -0.4187   -0.2746 C   0  0  0  0  0  0  0  0  0  0  0  0
   -5.3567    1.4036    0.0969 C   0  0  0  0  0  0  0  0  0  0  0  0
   -5.5795    1.5087    1.6006 C   0  0  0  0  0  0  0  0  0  0  0  0
   -5.6058    2.7388   -0.5925 C   0  0  0  0  0  0  0  0  0  0  0  0
   -0.5176    0.2239    1.2691 H   0  0  0  0  0  0  0  0  0  0  0  0
    4.1097   -0.9867    0.1343 H   0  0  0  0  0  0  0  0  0  0  0  0
    1.1909    1.0573   -1.0695 H   0  0  0  0  0  0  0  0  0  0  0  0
    1.3046    1.5435    0.6464 H   0  0  0  0  0  0  0  0  0  0  0  0
    3.8094    0.2939    2.2096 H   0  0  0  0  0  0  0  0  0  0  0  0
    3.4196    1.7541    1.3149 H   0  0  0  0  0  0  0  0  0  0  0  0
    3.3313    1.5622   -1.3824 H   0  0  0  0  0  0  0  0  0  0  0  0
    3.6507   -0.0182   -2.0854 H   0  0  0  0  0  0  0  0  0  0  0  0
   -1.5896    1.2846   -0.7180 H   0  0  0  0  0  0  0  0  0  0  0  0
   -0.9094    0.0697   -1.7838 H   0  0  0  0  0  0  0  0  0  0  0  0
   -1.2236   -2.4118    1.3663 H   0  0  0  0  0  0  0  0  0  0  0  0
   -0.4019   -3.4242    0.1628 H   0  0  0  0  0  0  0  0  0  0  0  0
    6.0901    0.2885    1.3069 H   0  0  0  0  0  0  0  0  0  0  0  0
    5.7434    1.8636    2.0158 H   0  0  0  0  0  0  0  0  0  0  0  0
    5.5900    1.5463   -2.2615 H   0  0  0  0  0  0  0  0  0  0  0  0
    5.9934    0.0906   -1.3548 H   0  0  0  0  0  0  0  0  0  0  0  0
   -1.6006   -2.2813   -1.6822 H   0  0  0  0  0  0  0  0  0  0  0  0
   -2.7964   -2.8096   -0.4924 H   0  0  0  0  0  0  0  0  0  0  0  0
    6.9023    2.0500   -0.1929 H   0  0  0  0  0  0  0  0  0  0  0  0
    5.3270    2.8398   -0.1947 H   0  0  0  0  0  0  0  0  0  0  0  0
   -3.2891    1.6324   -0.1780 H   0  0  0  0  0  0  0  0  0  0  0  0
   -6.0711    0.6752   -0.3052 H   0  0  0  0  0  0  0  0  0  0  0  0
   -5.4326    0.5387    2.0879 H   0  0  0  0  0  0  0  0  0  0  0  0
   -6.5968    1.8470    1.8230 H   0  0  0  0  0  0  0  0  0  0  0  0
   -4.8771    2.2152    2.0570 H   0  0  0  0  0  0  0  0  0  0  0  0
   -6.6284    3.0871   -0.4144 H   0  0  0  0  0  0  0  0  0  0  0  0
   -4.9152    3.5090   -0.2310 H   0  0  0  0  0  0  0  0  0  0  0  0
   -5.4618    2.6493   -1.6749 H   0  0  0  0  0  0  0  0  0  0  0  0
  1 13  2  0  0  0  0
  2 19  2  0  0  0  0
  3  8  1  0  0  0  0
  3  9  1  0  0  0  0
  3 13  1  0  0  0  0
  4  7  1  0  0  0  0
  4 13  1  0  0  0  0
  4 14  1  0  0  0  0
  5 12  1  0  0  0  0
  5 17  1  0  0  0  0
  5 19  1  0  0  0  0
  6 19  1  0  0  0  0
  6 20  1  0  0  0  0
  6 43  1  0  0  0  0
  7  9  1  0  0  0  0
  7 12  1  0  0  0  0
  7 23  1  0  0  0  0
  8 10  1  0  0  0  0
  8 11  1  0  0  0  0
  8 24  1  0  0  0  0
  9 25  1  0  0  0  0
  9 26  1  0  0  0  0
 10 15  1  0  0  0  0
 10 27  1  0  0  0  0
 10 28  1  0  0  0  0
 11 16  1  0  0  0  0
 11 29  1  0  0  0  0
 11 30  1  0  0  0  0
 12 31  1  0  0  0  0
 12 32  1  0  0  0  0
 14 17  1  0  0  0  0
 14 33  1  0  0  0  0
 14 34  1  0  0  0  0
 15 18  1  0  0  0  0
 15 35  1  0  0  0  0
 15 36  1  0  0  0  0
 16 18  1  0  0  0  0
 16 37  1  0  0  0  0
 16 38  1  0  0  0  0
 17 39  1  0  0  0  0
 17 40  1  0  0  0  0
 18 41  1  0  0  0  0
 18 42  1  0  0  0  0
 20 21  1  0  0  0  0
 20 22  1  0  0  0  0
 20 44  1  0  0  0  0
 21 45  1  0  0  0  0
 21 46  1  0  0  0  0
 21 47  1  0  0  0  0
 22 48  1  0  0  0  0
 22 49  1  0  0  0  0
 22 50  1  0  0  0  0
M  END
> <PUBCHEM_COMPOUND_CID>
75537022

> <PUBCHEM_CONFORMER_RMSD>
0.8

> <PUBCHEM_CONFORMER_DIVERSEORDER>
1
37
11
38
12
25
10
30
34
31
26
22
3
19
16
14
29
28
32
21
7
18
6
35
15
33
27
8
17
24
9
36
2
23
5
13
20
4

> <PUBCHEM_MMFF94_PARTIAL_CHARGES>
16
1 -0.57
12 0.3
13 0.69
14 0.3
17 0.3
19 0.69
2 -0.57
20 0.3
3 -0.66
4 -0.66
43 0.37
5 -0.66
6 -0.73
7 0.3
8 0.3
9 0.3

> <PUBCHEM_EFFECTIVE_ROTOR_COUNT>
6.4

> <PUBCHEM_PHARMACOPHORE_FEATURES>
7
1 1 acceptor
1 2 acceptor
1 6 donor
3 20 21 22 hydrophobe
5 3 4 7 9 13 rings
6 4 5 7 12 14 17 rings
6 8 10 11 15 16 18 rings

> <PUBCHEM_HEAVY_ATOM_COUNT>
22

> <PUBCHEM_ATOM_DEF_STEREO_COUNT>
1

> <PUBCHEM_ATOM_UDEF_STEREO_COUNT>
0

> <PUBCHEM_BOND_DEF_STEREO_COUNT>
0

> <PUBCHEM_BOND_UDEF_STEREO_COUNT>
0

> <PUBCHEM_ISOTOPIC_ATOM_COUNT>
0

> <PUBCHEM_COMPONENT_COUNT>
1

> <PUBCHEM_CACTVS_TAUTO_COUNT>
2

> <PUBCHEM_CONFORMER_ID>
04809A7E00000001

> <PUBCHEM_MMFF94_ENERGY>
35.7101

> <PUBCHEM_FEATURE_SELFOVERLAP>
35.618

> <PUBCHEM_SHAPE_FINGERPRINT>
10 15 18041003930012383305
10378564 45 17918000443231541996
10493431 412 18407760339597212591
11089746 13 17703778211213340184
12236239 1 17531800385800323064
12293681 160 17989490705716216619
12390115 104 18343028791709242491
12403814 3 17313372465670695038
12422481 6 17458617874532872884
12596602 18 16732987513835284577
12616971 3 17313375764922742876
12788726 201 17560806463690913809
13540713 5 18266718264983786055
14341114 328 17312821601865741232
14790565 3 18334863873763982004
15081414 286 18339088090042492389
15183329 4 16702311121960343996
15188451 53 11746934321620770305
15196674 1 18410570661227013927
1601671 61 18408321081705666500
17857418 61 10519994755115391092
19377110 9 17675926521178169579
200 152 13829863434509623830
20281389 69 18409165493925015369
20621476 66 18335987553641983924
21033648 29 17703500108123476432
21150785 3 15339109173940566525
21279426 13 18272656718715600854
21304253 335 18334580135296827884
21421861 104 17823402813374130138
22289505 5 17418375818356521992
23402655 69 18273493472475543423
23559900 14 18341899645392491878
25122255 55 9295279565200287445
25147074 1 18337371799573097947
2916195 48 18200587111480287144
293599 30 18413110550171762373
312425 54 14490191575226677665
3472631 163 18412828023007536772
34797466 226 17131553963132110924
34934 24 18342170068263315350
350125 39 18263641767377388174
3680242 22 18260261954522583312
465052 167 8934993798133464512
5104073 3 18334574612317350387
59682541 35 18337966649635250777
59682541 52 16773519867468220508
633830 44 18200304550288222892
636775 72 18125152995261204920
7495541 125 13262401085235855902
76465 3 10087640394594256623
7808743 9 18409726270624647049

> <PUBCHEM_SHAPE_MULTIPOLES>
421.09
14.79
2.62
1.13
2.48
0.76
0.12
-12.9
0.72
1.91
0.06
-0.55
-0.42
-0.44

> <PUBCHEM_SHAPE_SELFOVERLAP>
861.521

> <PUBCHEM_SHAPE_VOLUME>
242.3

> <PUBCHEM_COORDINATE_TYPE>
2
5
10

$$$$
