71693817
  -OEChem-12032416233D

 45 46  0     1  0  0  0  0  0999 V2000
   -1.8625   -2.7338    0.4690 O   0  0  0  0  0  0  0  0  0  0  0  0
    0.7744   -3.2922    0.9797 O   0  0  0  0  0  0  0  0  0  0  0  0
   -4.4311    1.3523    1.3303 O   0  0  0  0  0  0  0  0  0  0  0  0
   -1.3968    0.1709   -0.4458 N   0  0  0  0  0  0  0  0  0  0  0  0
   -0.4209   -0.8434   -0.0634 C   0  0  2  0  0  0  0  0  0  0  0  0
    0.9065   -0.6964   -0.8416 C   0  0  2  0  0  0  0  0  0  0  0  0
   -0.8892   -2.2497   -0.4365 C   0  0  1  0  0  0  0  0  0  0  0  0
    1.4339   -2.1435   -1.0380 C   0  0  0  0  0  0  0  0  0  0  0  0
    0.4028   -3.0596   -0.3760 C   0  0  1  0  0  0  0  0  0  0  0  0
    1.8915    0.2361   -0.1697 C   0  0  0  0  0  0  0  0  0  0  0  0
   -2.4239    0.3145    0.5763 C   0  0  0  0  0  0  0  0  0  0  0  0
   -3.5249    1.3306    0.2199 C   0  0  0  0  0  0  0  0  0  0  0  0
    2.3671    1.3715   -0.8257 C   0  0  0  0  0  0  0  0  0  0  0  0
    2.3232   -0.0537    1.1245 C   0  0  0  0  0  0  0  0  0  0  0  0
    3.2743    2.2171   -0.1875 C   0  0  0  0  0  0  0  0  0  0  0  0
   -4.3187    0.9134   -1.0215 C   0  0  0  0  0  0  0  0  0  0  0  0
   -2.9619    2.7444    0.0477 C   0  0  0  0  0  0  0  0  0  0  0  0
    1.9193    1.7024   -2.2115 C   0  0  0  0  0  0  0  0  0  0  0  0
    3.2306    0.7918    1.7629 C   0  0  0  0  0  0  0  0  0  0  0  0
    3.7062    1.9273    1.1069 C   0  0  0  0  0  0  0  0  0  0  0  0
   -0.2455   -0.7884    1.0189 H   0  0  0  0  0  0  0  0  0  0  0  0
    0.6616   -0.3447   -1.8501 H   0  0  0  0  0  0  0  0  0  0  0  0
   -1.3053   -2.2700   -1.4521 H   0  0  0  0  0  0  0  0  0  0  0  0
    1.4720   -2.3566   -2.1137 H   0  0  0  0  0  0  0  0  0  0  0  0
    2.4419   -2.2932   -0.6368 H   0  0  0  0  0  0  0  0  0  0  0  0
    0.3089   -4.0305   -0.8715 H   0  0  0  0  0  0  0  0  0  0  0  0
   -0.9229    1.0656   -0.5647 H   0  0  0  0  0  0  0  0  0  0  0  0
   -1.9676    0.6164    1.5294 H   0  0  0  0  0  0  0  0  0  0  0  0
   -2.9222   -0.6394    0.7777 H   0  0  0  0  0  0  0  0  0  0  0  0
   -2.0386   -3.6618    0.2382 H   0  0  0  0  0  0  0  0  0  0  0  0
    1.6243   -3.7646    0.9716 H   0  0  0  0  0  0  0  0  0  0  0  0
    1.9759   -0.9350    1.6549 H   0  0  0  0  0  0  0  0  0  0  0  0
   -4.7610   -0.0797   -0.8831 H   0  0  0  0  0  0  0  0  0  0  0  0
   -5.1535    1.6009   -1.2004 H   0  0  0  0  0  0  0  0  0  0  0  0
   -3.6938    0.8936   -1.9199 H   0  0  0  0  0  0  0  0  0  0  0  0
   -2.4025    3.0511    0.9387 H   0  0  0  0  0  0  0  0  0  0  0  0
   -3.7720    3.4732   -0.0723 H   0  0  0  0  0  0  0  0  0  0  0  0
   -2.3038    2.8257   -0.8229 H   0  0  0  0  0  0  0  0  0  0  0  0
    3.6550    3.1059   -0.6837 H   0  0  0  0  0  0  0  0  0  0  0  0
    2.3931    2.6209   -2.5766 H   0  0  0  0  0  0  0  0  0  0  0  0
    0.8382    1.8726   -2.2427 H   0  0  0  0  0  0  0  0  0  0  0  0
    2.1957    0.9069   -2.9112 H   0  0  0  0  0  0  0  0  0  0  0  0
    3.5684    0.5653    2.7699 H   0  0  0  0  0  0  0  0  0  0  0  0
    4.4130    2.5853    1.6040 H   0  0  0  0  0  0  0  0  0  0  0  0
   -5.1387    1.9884    1.1295 H   0  0  0  0  0  0  0  0  0  0  0  0
  1  7  1  0  0  0  0
  1 30  1  0  0  0  0
  2  9  1  0  0  0  0
  2 31  1  0  0  0  0
  3 12  1  0  0  0  0
  3 45  1  0  0  0  0
  4  5  1  0  0  0  0
  4 11  1  0  0  0  0
  4 27  1  0  0  0  0
  5  6  1  0  0  0  0
  5  7  1  0  0  0  0
  5 21  1  0  0  0  0
  6  8  1  0  0  0  0
  6 10  1  0  0  0  0
  6 22  1  0  0  0  0
  7  9  1  0  0  0  0
  7 23  1  0  0  0  0
  8  9  1  0  0  0  0
  8 24  1  0  0  0  0
  8 25  1  0  0  0  0
  9 26  1  0  0  0  0
 10 13  1  0  0  0  0
 10 14  2  0  0  0  0
 11 12  1  0  0  0  0
 11 28  1  0  0  0  0
 11 29  1  0  0  0  0
 12 16  1  0  0  0  0
 12 17  1  0  0  0  0
 13 15  2  0  0  0  0
 13 18  1  0  0  0  0
 14 19  1  0  0  0  0
 14 32  1  0  0  0  0
 15 20  1  0  0  0  0
 15 39  1  0  0  0  0
 16 33  1  0  0  0  0
 16 34  1  0  0  0  0
 16 35  1  0  0  0  0
 17 36  1  0  0  0  0
 17 37  1  0  0  0  0
 17 38  1  0  0  0  0
 18 40  1  0  0  0  0
 18 41  1  0  0  0  0
 18 42  1  0  0  0  0
 19 20  2  0  0  0  0
 19 43  1  0  0  0  0
 20 44  1  0  0  0  0
M  END
> <PUBCHEM_COMPOUND_CID>
71693817

> <PUBCHEM_CONFORMER_RMSD>
0.8

> <PUBCHEM_CONFORMER_DIVERSEORDER>
1
23
32
19
22
26
27
4
12
29
16
20
10
8
2
21
31
9
30
24
3
18
17
15
25
13
28
11
5
6
14
7

> <PUBCHEM_MMFF94_PARTIAL_CHARGES>
25
1 -0.68
10 -0.14
11 0.27
12 0.28
13 -0.14
14 -0.15
15 -0.15
18 0.14
19 -0.15
2 -0.68
20 -0.15
27 0.36
3 -0.68
30 0.4
31 0.4
32 0.15
39 0.15
4 -0.9
43 0.15
44 0.15
45 0.4
5 0.27
6 0.14
7 0.28
9 0.28

> <PUBCHEM_EFFECTIVE_ROTOR_COUNT>
5

> <PUBCHEM_PHARMACOPHORE_FEATURES>
11
1 1 acceptor
1 1 donor
1 2 acceptor
1 2 donor
1 3 acceptor
1 3 donor
1 4 cation
1 4 donor
3 12 16 17 hydrophobe
5 5 6 7 8 9 rings
6 10 13 14 15 19 20 rings

> <PUBCHEM_HEAVY_ATOM_COUNT>
20

> <PUBCHEM_ATOM_DEF_STEREO_COUNT>
4

> <PUBCHEM_ATOM_UDEF_STEREO_COUNT>
0

> <PUBCHEM_BOND_DEF_STEREO_COUNT>
0

> <PUBCHEM_BOND_UDEF_STEREO_COUNT>
0

> <PUBCHEM_ISOTOPIC_ATOM_COUNT>
0

> <PUBCHEM_COMPONENT_COUNT>
1

> <PUBCHEM_CACTVS_TAUTO_COUNT>
1

> <PUBCHEM_CONFORMER_ID>
0445F5F900000001

> <PUBCHEM_MMFF94_ENERGY>
58.4984

> <PUBCHEM_FEATURE_SELFOVERLAP>
55.832

> <PUBCHEM_SHAPE_FINGERPRINT>
10165383 225 17693990410147540161
11140007 195 13912877571628989957
11582403 64 16341698856444592312
11725454 13 16772646962768113192
12035758 1 18267575815776482466
12788726 201 17758399960359080706
13134695 92 17760644763808243143
13140716 1 18410295804557523202
13294875 104 18339649923636602694
13583140 156 16660640799894468093
13878862 14 17906452126703879033
13965767 371 18260537897069979924
16752209 62 18122905588385854902
1741750 31 18341893060226750384
18186145 218 18199475372386347133
18981168 100 18198926827294306990
20291156 8 9079121080699815801
20510252 161 18053668250199686451
20671657 1 18341055090548094383
20715895 44 17898270746548971157
21427221 339 18114448055241097856
21524375 3 18272642459070711167
21731228 192 18409725201056334802
22149856 69 18267325209351785523
2255824 54 18196940963571935623
22749437 52 18410289182013345301
23419403 2 17393017570746287038
23558518 356 18263925604227967638
23559900 14 18044669598636466745
23598291 2 17750795652511378860
2748010 2 18268448947487409511
350125 39 18339940284505204646
3797600 57 17172966020515220488
427121 178 18272658943171277344
474 4 18411976932303679861
49207404 50 18263662726685729465
495365 180 18120366554666690237
5939293 188 17764588716248446871
6333272 397 18410292514897073141
633830 44 17917438600984569941
6992083 37 17970044825172940548
7097593 13 17968361416893744802
7364860 26 18127692617157708167
7808743 9 18195816382283869352
81228 2 17837784686946838987
84936 182 18129942256692728945
90316 7 17620472853894692330

> <PUBCHEM_SHAPE_MULTIPOLES>
389
7.01
3.71
1.5
5.2
2.64
-0.2
-6.89
1.67
0.23
0.02
-0.94
-0.51
-0.07

> <PUBCHEM_SHAPE_SELFOVERLAP>
804.67

> <PUBCHEM_SHAPE_VOLUME>
225.2

> <PUBCHEM_COORDINATE_TYPE>
2
5
10

$$$$
