75368692
  -OEChem-12032416393D

 40 42  0     1  0  0  0  0  0999 V2000
   -0.6238    2.2923    1.2741 O   0  0  0  0  0  0  0  0  0  0  0  0
   -2.1406    0.8368    0.2253 N   0  0  0  0  0  0  0  0  0  0  0  0
   -0.1620    1.2093   -0.7699 N   0  0  0  0  0  0  0  0  0  0  0  0
   -4.0312   -1.2264   -0.0569 N   0  0  2  0  0  0  0  0  0  0  0  0
   -2.2323    0.1366   -1.0387 C   0  0  1  0  0  0  0  0  0  0  0  0
   -0.8115    0.2054   -1.5951 C   0  0  0  0  0  0  0  0  0  0  0  0
   -2.7709   -1.2777   -0.8254 C   0  0  0  0  0  0  0  0  0  0  0  0
   -3.2741    0.8242    1.1265 C   0  0  0  0  0  0  0  0  0  0  0  0
   -3.8175   -0.6002    1.2636 C   0  0  0  0  0  0  0  0  0  0  0  0
   -0.9383    1.5444    0.3578 C   0  0  0  0  0  0  0  0  0  0  0  0
    1.1850    1.6645   -1.0345 C   0  0  0  0  0  0  0  0  0  0  0  0
   -4.5865   -2.5704    0.1006 C   0  0  0  0  0  0  0  0  0  0  0  0
    2.2151    0.7109   -0.5020 C   0  0  0  0  0  0  0  0  0  0  0  0
    2.4783    0.6620    0.8670 C   0  0  0  0  0  0  0  0  0  0  0  0
    2.9109   -0.1240   -1.3763 C   0  0  0  0  0  0  0  0  0  0  0  0
    3.4374   -0.2218    1.3616 C   0  0  0  0  0  0  0  0  0  0  0  0
    3.8700   -1.0078   -0.8816 C   0  0  0  0  0  0  0  0  0  0  0  0
    4.1332   -1.0568    0.4873 C   0  0  0  0  0  0  0  0  0  0  0  0
    5.1590   -2.0013    1.0166 C   0  0  0  0  0  0  0  0  0  0  0  0
   -2.9140    0.7146   -1.6765 H   0  0  0  0  0  0  0  0  0  0  0  0
   -0.2701   -0.7397   -1.4847 H   0  0  0  0  0  0  0  0  0  0  0  0
   -0.7967    0.5150   -2.6444 H   0  0  0  0  0  0  0  0  0  0  0  0
   -2.9429   -1.7400   -1.8050 H   0  0  0  0  0  0  0  0  0  0  0  0
   -2.0315   -1.8934   -0.2953 H   0  0  0  0  0  0  0  0  0  0  0  0
   -4.0355    1.4879    0.7007 H   0  0  0  0  0  0  0  0  0  0  0  0
   -2.9751    1.2303    2.0979 H   0  0  0  0  0  0  0  0  0  0  0  0
   -3.1146   -1.2006    1.8566 H   0  0  0  0  0  0  0  0  0  0  0  0
   -4.7625   -0.5580    1.8182 H   0  0  0  0  0  0  0  0  0  0  0  0
    1.2947    1.8206   -2.1137 H   0  0  0  0  0  0  0  0  0  0  0  0
    1.3251    2.6410   -0.5551 H   0  0  0  0  0  0  0  0  0  0  0  0
   -4.7888   -3.0196   -0.8780 H   0  0  0  0  0  0  0  0  0  0  0  0
   -5.5442   -2.5307    0.6314 H   0  0  0  0  0  0  0  0  0  0  0  0
   -3.9129   -3.2354    0.6531 H   0  0  0  0  0  0  0  0  0  0  0  0
    1.9500    1.3101    1.5603 H   0  0  0  0  0  0  0  0  0  0  0  0
    2.7139   -0.0973   -2.4447 H   0  0  0  0  0  0  0  0  0  0  0  0
    3.6334   -0.2509    2.4301 H   0  0  0  0  0  0  0  0  0  0  0  0
    4.4040   -1.6547   -1.5726 H   0  0  0  0  0  0  0  0  0  0  0  0
    4.6928   -2.9584    1.2706 H   0  0  0  0  0  0  0  0  0  0  0  0
    5.9491   -2.1805    0.2795 H   0  0  0  0  0  0  0  0  0  0  0  0
    5.6428   -1.5974    1.9125 H   0  0  0  0  0  0  0  0  0  0  0  0
  1 10  2  0  0  0  0
  2  5  1  0  0  0  0
  2  8  1  0  0  0  0
  2 10  1  0  0  0  0
  3  6  1  0  0  0  0
  3 10  1  0  0  0  0
  3 11  1  0  0  0  0
  4  7  1  0  0  0  0
  4  9  1  0  0  0  0
  4 12  1  0  0  0  0
  5  6  1  0  0  0  0
  5  7  1  0  0  0  0
  5 20  1  0  0  0  0
  6 21  1  0  0  0  0
  6 22  1  0  0  0  0
  7 23  1  0  0  0  0
  7 24  1  0  0  0  0
  8  9  1  0  0  0  0
  8 25  1  0  0  0  0
  8 26  1  0  0  0  0
  9 27  1  0  0  0  0
  9 28  1  0  0  0  0
 11 13  1  0  0  0  0
 11 29  1  0  0  0  0
 11 30  1  0  0  0  0
 12 31  1  0  0  0  0
 12 32  1  0  0  0  0
 12 33  1  0  0  0  0
 13 14  2  0  0  0  0
 13 15  1  0  0  0  0
 14 16  1  0  0  0  0
 14 34  1  0  0  0  0
 15 17  2  0  0  0  0
 15 35  1  0  0  0  0
 16 18  2  0  0  0  0
 16 36  1  0  0  0  0
 17 18  1  0  0  0  0
 17 37  1  0  0  0  0
 18 19  1  0  0  0  0
 19 38  1  0  0  0  0
 19 39  1  0  0  0  0
 19 40  1  0  0  0  0
M  END
> <PUBCHEM_COMPOUND_CID>
75368692

> <PUBCHEM_CONFORMER_RMSD>
0.6

> <PUBCHEM_CONFORMER_DIVERSEORDER>
1
6
2
9
10
11
8
4
3
5
7
12

> <PUBCHEM_MMFF94_PARTIAL_CHARGES>
23
1 -0.57
10 0.69
11 0.44
12 0.27
13 -0.14
14 -0.15
15 -0.15
16 -0.15
17 -0.15
18 -0.14
19 0.14
2 -0.66
3 -0.66
34 0.15
35 0.15
36 0.15
37 0.15
4 -0.81
5 0.3
6 0.3
7 0.27
8 0.3
9 0.27

> <PUBCHEM_EFFECTIVE_ROTOR_COUNT>
3.2

> <PUBCHEM_PHARMACOPHORE_FEATURES>
5
1 1 acceptor
1 4 cation
5 2 3 5 6 10 rings
6 13 14 15 16 17 18 rings
6 2 4 5 7 8 9 rings

> <PUBCHEM_HEAVY_ATOM_COUNT>
19

> <PUBCHEM_ATOM_DEF_STEREO_COUNT>
1

> <PUBCHEM_ATOM_UDEF_STEREO_COUNT>
0

> <PUBCHEM_BOND_DEF_STEREO_COUNT>
0

> <PUBCHEM_BOND_UDEF_STEREO_COUNT>
0

> <PUBCHEM_ISOTOPIC_ATOM_COUNT>
0

> <PUBCHEM_COMPONENT_COUNT>
1

> <PUBCHEM_CACTVS_TAUTO_COUNT>
1

> <PUBCHEM_CONFORMER_ID>
047E08F400000001

> <PUBCHEM_MMFF94_ENERGY>
43.7954

> <PUBCHEM_FEATURE_SELFOVERLAP>
25.468

> <PUBCHEM_SHAPE_FINGERPRINT>
11046707 91 18334573508352011822
11578080 2 18262221305165008557
11640471 11 10519700051644715948
11796584 16 18188485917192546367
12251169 10 16630803326722991324
12363563 72 17967532363519656980
12633257 1 16415185819609051650
12670546 177 13479133518647007427
12824470 246 18333447651178538241
12892183 10 16630533920488259863
13103583 49 18201165372833785458
13533116 47 18192435388671020115
13675066 3 17274830124967265069
14123260 362 10015577315851345634
14178342 30 18126852599254158700
1420 369 18408885156798139970
14251764 38 8861496896441945526
14848178 5 18262509411808028939
15163728 17 8141818226016414667
15188451 53 18131342042822874199
15239191 94 18259988175583616662
15342168 16 11311784981388765875
15475509 35 17833279988562579299
15475509 8 16226034593006332855
17780758 139 18198614450571415866
1813 80 18334022691480930500
18186145 218 13334735730260326973
193927 3 18334021604817456227
19784866 240 18186517696124318135
19862831 5 12973597837497883884
200 152 17022906709855718092
20281475 54 18260550026088804844
20291156 8 18407478864351457012
20361792 2 17967814920928775628
20645477 70 17532085162710202799
20671657 53 17967533497143369917
20871999 31 13045951196026991085
21033648 29 15554182410335452515
21065199 12 17418095399324132554
21475661 188 13900530047411847115
21713013 43 15140976061754549000
22620623 9 17096068226452699415
22646028 28 18259704488809518262
23503958 8 18339921494423730850
235170 7 14490474188026681026
23559900 14 17845394192195515508
238 59 15285355120084387528
270888 7 11167936978955123706
2838139 119 12534525367275630523
3472631 163 9295291642516279955
4072396 5 17846790628619824055
4259306 186 17385725777065990098
46194498 28 14130489777746415631
474 4 11743846845535210357
49207404 50 16630537231907876511
5104073 3 18201721764382656553
5262128 65 15285362799311806926
57724786 102 12823297918650215458
76465 3 18259983790327152839
7808743 9 10375575023962431986
7970288 3 18260828194010101010
90316 7 18130517357383229545
960060 61 16805320041403370943

> <PUBCHEM_SHAPE_MULTIPOLES>
370.2
9.93
2.16
1.53
1.97
0.5
0.02
8.25
-2.33
-0.83
-0.31
0.24
-0.19
-0.86

> <PUBCHEM_SHAPE_SELFOVERLAP>
780.771

> <PUBCHEM_SHAPE_VOLUME>
210.5

> <PUBCHEM_COORDINATE_TYPE>
2
5
10

$$$$
