51138113
  -OEChem-12032416273D

 65 68  0     1  0  0  0  0  0999 V2000
   -3.0857    2.2910   -1.5856 O   0  0  0  0  0  0  0  0  0  0  0  0
    6.0687    1.7660   -1.2110 O   0  0  0  0  0  0  0  0  0  0  0  0
   -2.2784   -0.2492   -0.6310 N   0  0  0  0  0  0  0  0  0  0  0  0
    2.5228   -0.0234    0.9185 N   0  0  0  0  0  0  0  0  0  0  0  0
   -3.8172    2.4498    0.6187 N   0  0  0  0  0  0  0  0  0  0  0  0
    5.9958    0.5191   -1.8202 N   0  0  0  0  0  0  0  0  0  0  0  0
   -2.0518   -1.4770    0.1431 C   0  0  2  0  0  0  0  0  0  0  0  0
   -0.6052   -1.7389    0.5744 C   0  0  0  0  0  0  0  0  0  0  0  0
    0.4356   -0.7659    0.5884 C   0  0  0  0  0  0  0  0  0  0  0  0
   -1.9993    0.9845    0.0900 C   0  0  1  0  0  0  0  0  0  0  0  0
    0.5014    0.6328    0.2607 C   0  0  0  0  0  0  0  0  0  0  0  0
   -0.6012    1.5135   -0.2238 C   0  0  0  0  0  0  0  0  0  0  0  0
   -2.6175   -2.6039   -0.7399 C   0  0  0  0  0  0  0  0  0  0  0  0
    1.7159   -1.1320    1.0194 C   0  0  0  0  0  0  0  0  0  0  0  0
   -4.1476   -2.6721   -0.7156 C   0  0  0  0  0  0  0  0  0  0  0  0
    1.8024    1.0437    0.4695 C   0  0  0  0  0  0  0  0  0  0  0  0
   -0.2684   -3.0220    1.0758 C   0  0  0  0  0  0  0  0  0  0  0  0
   -3.0177    1.9666   -0.4030 C   0  0  0  0  0  0  0  0  0  0  0  0
    2.0393   -2.4144    1.4659 C   0  0  0  0  0  0  0  0  0  0  0  0
    3.9296    0.0283    1.2549 C   0  0  0  0  0  0  0  0  0  0  0  0
    1.0171   -3.3541    1.4991 C   0  0  0  0  0  0  0  0  0  0  0  0
   -4.6138   -3.8512   -1.5729 C   0  0  0  0  0  0  0  0  0  0  0  0
   -4.8028   -1.3821   -1.2110 C   0  0  0  0  0  0  0  0  0  0  0  0
    4.7991    0.5032    0.1174 C   0  0  0  0  0  0  0  0  0  0  0  0
   -4.8620    3.4262    0.4105 C   0  0  0  0  0  0  0  0  0  0  0  0
    5.3521    1.7440   -0.0582 C   0  0  0  0  0  0  0  0  0  0  0  0
    5.2325   -0.2180   -1.0085 C   0  0  0  0  0  0  0  0  0  0  0  0
   -6.2057    2.7801    0.0952 C   0  0  0  0  0  0  0  0  0  0  0  0
    5.3240    2.9920    0.7160 C   0  0  0  0  0  0  0  0  0  0  0  0
    4.9430   -1.6195   -1.3556 C   0  0  0  0  0  0  0  0  0  0  0  0
   -6.7050    1.8826    1.2185 C   0  0  0  0  0  0  0  0  0  0  0  0
   -2.6428   -1.4307    1.0683 H   0  0  0  0  0  0  0  0  0  0  0  0
   -2.1109    0.8416    1.1724 H   0  0  0  0  0  0  0  0  0  0  0  0
   -0.4743    1.6651   -1.3049 H   0  0  0  0  0  0  0  0  0  0  0  0
   -0.4882    2.5071    0.2318 H   0  0  0  0  0  0  0  0  0  0  0  0
   -2.2608   -3.5888   -0.4254 H   0  0  0  0  0  0  0  0  0  0  0  0
   -2.2547   -2.5012   -1.7734 H   0  0  0  0  0  0  0  0  0  0  0  0
   -1.7759   -0.2798   -1.5173 H   0  0  0  0  0  0  0  0  0  0  0  0
   -4.4833   -2.8560    0.3129 H   0  0  0  0  0  0  0  0  0  0  0  0
    2.2544    2.0180    0.3399 H   0  0  0  0  0  0  0  0  0  0  0  0
   -1.0286   -3.7930    1.1780 H   0  0  0  0  0  0  0  0  0  0  0  0
    3.0339   -2.6856    1.8003 H   0  0  0  0  0  0  0  0  0  0  0  0
    4.2780   -0.9538    1.5832 H   0  0  0  0  0  0  0  0  0  0  0  0
    4.0205    0.7000    2.1171 H   0  0  0  0  0  0  0  0  0  0  0  0
    1.2194   -4.3558    1.8691 H   0  0  0  0  0  0  0  0  0  0  0  0
   -4.3216   -3.7218   -2.6207 H   0  0  0  0  0  0  0  0  0  0  0  0
   -5.7038   -3.9526   -1.5361 H   0  0  0  0  0  0  0  0  0  0  0  0
   -4.1829   -4.7917   -1.2133 H   0  0  0  0  0  0  0  0  0  0  0  0
   -4.3756   -1.0418   -2.1601 H   0  0  0  0  0  0  0  0  0  0  0  0
   -4.7426   -0.5832   -0.4671 H   0  0  0  0  0  0  0  0  0  0  0  0
   -5.8741   -1.5432   -1.3810 H   0  0  0  0  0  0  0  0  0  0  0  0
   -3.6820    2.1135    1.5673 H   0  0  0  0  0  0  0  0  0  0  0  0
   -4.5700    4.0888   -0.4115 H   0  0  0  0  0  0  0  0  0  0  0  0
   -4.9300    4.0292    1.3222 H   0  0  0  0  0  0  0  0  0  0  0  0
   -6.1292    2.1881   -0.8246 H   0  0  0  0  0  0  0  0  0  0  0  0
   -6.9456    3.5676   -0.0881 H   0  0  0  0  0  0  0  0  0  0  0  0
    6.2060    3.0593    1.3602 H   0  0  0  0  0  0  0  0  0  0  0  0
    5.3173    3.8634    0.0535 H   0  0  0  0  0  0  0  0  0  0  0  0
    4.4342    3.0502    1.3498 H   0  0  0  0  0  0  0  0  0  0  0  0
    3.8871   -1.7375   -1.6198 H   0  0  0  0  0  0  0  0  0  0  0  0
    5.5420   -1.9609   -2.2065 H   0  0  0  0  0  0  0  0  0  0  0  0
    5.1606   -2.2813   -0.5110 H   0  0  0  0  0  0  0  0  0  0  0  0
   -6.0366    1.0310    1.3790 H   0  0  0  0  0  0  0  0  0  0  0  0
   -6.7874    2.4389    2.1576 H   0  0  0  0  0  0  0  0  0  0  0  0
   -7.6953    1.4869    0.9711 H   0  0  0  0  0  0  0  0  0  0  0  0
  1 18  2  0  0  0  0
  2  6  1  0  0  0  0
  2 26  1  0  0  0  0
  3  7  1  0  0  0  0
  3 10  1  0  0  0  0
  3 38  1  0  0  0  0
  4 14  1  0  0  0  0
  4 16  1  0  0  0  0
  4 20  1  0  0  0  0
  5 18  1  0  0  0  0
  5 25  1  0  0  0  0
  5 52  1  0  0  0  0
  6 27  2  0  0  0  0
  7  8  1  0  0  0  0
  7 13  1  0  0  0  0
  7 32  1  0  0  0  0
  8  9  2  0  0  0  0
  8 17  1  0  0  0  0
  9 11  1  0  0  0  0
  9 14  1  0  0  0  0
 10 12  1  0  0  0  0
 10 18  1  0  0  0  0
 10 33  1  0  0  0  0
 11 12  1  0  0  0  0
 11 16  2  0  0  0  0
 12 34  1  0  0  0  0
 12 35  1  0  0  0  0
 13 15  1  0  0  0  0
 13 36  1  0  0  0  0
 13 37  1  0  0  0  0
 14 19  2  0  0  0  0
 15 22  1  0  0  0  0
 15 23  1  0  0  0  0
 15 39  1  0  0  0  0
 16 40  1  0  0  0  0
 17 21  2  0  0  0  0
 17 41  1  0  0  0  0
 19 21  1  0  0  0  0
 19 42  1  0  0  0  0
 20 24  1  0  0  0  0
 20 43  1  0  0  0  0
 20 44  1  0  0  0  0
 21 45  1  0  0  0  0
 22 46  1  0  0  0  0
 22 47  1  0  0  0  0
 22 48  1  0  0  0  0
 23 49  1  0  0  0  0
 23 50  1  0  0  0  0
 23 51  1  0  0  0  0
 24 26  2  0  0  0  0
 24 27  1  0  0  0  0
 25 28  1  0  0  0  0
 25 53  1  0  0  0  0
 25 54  1  0  0  0  0
 26 29  1  0  0  0  0
 27 30  1  0  0  0  0
 28 31  1  0  0  0  0
 28 55  1  0  0  0  0
 28 56  1  0  0  0  0
 29 57  1  0  0  0  0
 29 58  1  0  0  0  0
 29 59  1  0  0  0  0
 30 60  1  0  0  0  0
 30 61  1  0  0  0  0
 30 62  1  0  0  0  0
 31 63  1  0  0  0  0
 31 64  1  0  0  0  0
 31 65  1  0  0  0  0
M  END
> <PUBCHEM_COMPOUND_CID>
51138113

> <PUBCHEM_CONFORMER_RMSD>
1

> <PUBCHEM_CONFORMER_DIVERSEORDER>
1
176
52
102
85
16
122
91
128
171
125
133
126
165
146
164
39
36
148
87
187
50
72
166
15
99
108
132
119
25
73
81
60
179
13
90
186
139
156
43
66
78
96
145
129
188
100
3
173
47
84
147
101
178
157
65
181
155
114
30
67
120
180
68
163
28
34
175
137
158
49
76
136
142
162
69
41
57
111
61
103
64
144
150
189
51
35
138
105
29
153
77
20
124
38
95
168
123
22
70
172
143
18
115
94
174
121
11
7
130
131
21
48
88
83
14
141
149
9
86
161
54
127
151
33
24
117
23
6
107
58
62
140
177
55
104
19
27
12
63
89
159
40
183
154
113
4
134
92
184
45
59
160
118
80
135
56
17
185
79
53
169
109
44
2
106
170
167
32
71
98
31
82
10
46
75
26
182
74
37
93
42
152
8
97
5
110
116
112

> <PUBCHEM_MMFF94_PARTIAL_CHARGES>
30
1 -0.57
10 0.33
11 -0.18
12 0.18
14 -0.15
16 -0.3
17 -0.15
18 0.57
19 -0.15
2 -0.02
20 0.44
21 -0.15
24 -0.18
25 0.3
26 -0.04
27 0.11
29 0.18
3 -0.9
30 0.18
38 0.36
4 0.05
40 0.15
41 0.15
42 0.15
45 0.15
5 -0.73
52 0.37
6 -0.41
7 0.41
8 -0.14

> <PUBCHEM_EFFECTIVE_ROTOR_COUNT>
8.8

> <PUBCHEM_PHARMACOPHORE_FEATURES>
12
1 1 acceptor
1 3 cation
1 3 donor
1 31 hydrophobe
1 4 cation
1 5 donor
1 6 acceptor
3 15 22 23 hydrophobe
5 2 6 24 26 27 rings
5 4 9 11 14 16 rings
6 8 9 14 17 19 21 rings
7 3 7 8 9 10 11 12 rings

> <PUBCHEM_HEAVY_ATOM_COUNT>
31

> <PUBCHEM_ATOM_DEF_STEREO_COUNT>
2

> <PUBCHEM_ATOM_UDEF_STEREO_COUNT>
0

> <PUBCHEM_BOND_DEF_STEREO_COUNT>
0

> <PUBCHEM_BOND_UDEF_STEREO_COUNT>
0

> <PUBCHEM_ISOTOPIC_ATOM_COUNT>
0

> <PUBCHEM_COMPONENT_COUNT>
1

> <PUBCHEM_CACTVS_TAUTO_COUNT>
2

> <PUBCHEM_CONFORMER_ID>
030C4E4100000001

> <PUBCHEM_MMFF94_ENERGY>
52.2855

> <PUBCHEM_FEATURE_SELFOVERLAP>
61.026

> <PUBCHEM_SHAPE_FINGERPRINT>
10190108 129 18189632669270872931
10190206 1 18336260253451590718
10670039 82 18186800310079440316
11445158 3 17686045103266553071
1200032 147 15121283659174589761
12390115 104 18410581677559516249
12788726 201 18265041612592662242
12954195 1 18343303682010620839
13540713 5 18262499417097469147
13583140 156 16447269341553707947
13782708 43 16558182842972312095
1454969 45 18334295336880930629
14790565 3 18195811756624748977
14840074 17 17603311431378944956
20642791 13 18266734860726056340
21641784 216 17968366939873580135
23559900 14 17905608053770407832
25147074 1 18261379014701071739
255183 451 17553471888791558167
283562 15 18264196079909133843
3610482 184 18334872622754373380
38570 142 18265064547612105105
46194498 28 17843966073300176636
5171179 24 17914890079171128257
5252454 2 18336255735225441001
563151 40 18410020909750233099
5912855 24 18408038503450187139
59755656 520 18343022143216250677
6058803 2 18191562208740357899
7237137 82 18262224621131773391

> <PUBCHEM_SHAPE_MULTIPOLES>
606.3
15.29
4.71
1.48
2.89
1.07
0.19
-10.96
4.22
-6.21
-0.2
0.64
0.7
-2.31

> <PUBCHEM_SHAPE_SELFOVERLAP>
1288.509

> <PUBCHEM_SHAPE_VOLUME>
341.7

> <PUBCHEM_COORDINATE_TYPE>
2
5
10

$$$$
