11911795
  -OEChem-12032416363D

 62 66  0     1  0  0  0  0  0999 V2000
    1.5808   -0.4140    1.5004 O   0  0  0  0  0  0  0  0  0  0  0  0
   -0.4890    1.6902    0.6629 O   0  0  0  0  0  0  0  0  0  0  0  0
    3.0630    1.5509    0.2186 O   0  0  0  0  0  0  0  0  0  0  0  0
    3.6375   -0.1006   -1.2553 O   0  0  0  0  0  0  0  0  0  0  0  0
   -1.0905   -1.9116    0.9639 N   0  0  0  0  0  0  0  0  0  0  0  0
   -3.2821   -1.3243    0.3654 N   0  0  0  0  0  0  0  0  0  0  0  0
   -2.4612   -3.5627    0.0146 N   0  0  0  0  0  0  0  0  0  0  0  0
    5.2450    1.0108    0.0336 N   0  0  0  0  0  0  0  0  0  0  0  0
   -8.4225    2.3035   -0.3990 N   0  0  0  0  0  0  0  0  0  0  0  0
   11.0823    1.0055    0.8872 N   0  0  0  0  0  0  0  0  0  0  0  0
   -0.3383    0.3004    0.3046 C   0  0  1  0  0  0  0  0  0  0  0  0
    1.1501    0.0320    0.2041 C   0  0  1  0  0  0  0  0  0  0  0  0
   -0.7922   -0.5798    1.4453 C   0  0  2  0  0  0  0  0  0  0  0  0
    1.7065    1.3949   -0.1315 C   0  0  1  0  0  0  0  0  0  0  0  0
    0.4334   -0.6059    2.3421 C   0  0  0  0  0  0  0  0  0  0  0  0
    0.8044    2.3119    0.6633 C   0  0  0  0  0  0  0  0  0  0  0  0
   -2.3145   -2.2771    0.4318 C   0  0  0  0  0  0  0  0  0  0  0  0
    3.9705    0.7312   -0.4199 C   0  0  0  0  0  0  0  0  0  0  0  0
   -4.4625   -1.7149   -0.1583 C   0  0  0  0  0  0  0  0  0  0  0  0
   -3.6670   -3.8847   -0.4984 C   0  0  0  0  0  0  0  0  0  0  0  0
   -4.7148   -2.9939   -0.6110 C   0  0  0  0  0  0  0  0  0  0  0  0
    6.4606    0.4047   -0.3576 C   0  0  0  0  0  0  0  0  0  0  0  0
   -5.4750   -0.6883   -0.2206 C   0  0  0  0  0  0  0  0  0  0  0  0
    7.6478    0.8295    0.2171 C   0  0  0  0  0  0  0  0  0  0  0  0
    6.4413   -0.6017   -1.3102 C   0  0  0  0  0  0  0  0  0  0  0  0
   -6.8261   -1.0296   -0.1286 C   0  0  0  0  0  0  0  0  0  0  0  0
   -5.1072    0.6503   -0.3723 C   0  0  0  0  0  0  0  0  0  0  0  0
   -7.4342    1.2989   -0.3398 C   0  0  0  0  0  0  0  0  0  0  0  0
   -7.8044   -0.0373   -0.1880 C   0  0  0  0  0  0  0  0  0  0  0  0
   -6.0856    1.6428   -0.4318 C   0  0  0  0  0  0  0  0  0  0  0  0
    8.8472    0.2322   -0.1708 C   0  0  0  0  0  0  0  0  0  0  0  0
    7.6407   -1.1988   -1.6981 C   0  0  0  0  0  0  0  0  0  0  0  0
    8.8437   -0.7819   -1.1284 C   0  0  0  0  0  0  0  0  0  0  0  0
   -8.1872    3.5211   -1.1492 C   0  0  0  0  0  0  0  0  0  0  0  0
   -9.6806    2.1375    0.3011 C   0  0  0  0  0  0  0  0  0  0  0  0
   10.0798    0.6586    0.4127 C   0  0  0  0  0  0  0  0  0  0  0  0
   -0.8676    0.1464   -0.6411 H   0  0  0  0  0  0  0  0  0  0  0  0
    1.3888   -0.7552   -0.5159 H   0  0  0  0  0  0  0  0  0  0  0  0
   -1.6395   -0.1712    2.0079 H   0  0  0  0  0  0  0  0  0  0  0  0
    1.5664    1.6069   -1.2001 H   0  0  0  0  0  0  0  0  0  0  0  0
    0.5511   -1.5357    2.9072 H   0  0  0  0  0  0  0  0  0  0  0  0
    0.4141    0.2268    3.0539 H   0  0  0  0  0  0  0  0  0  0  0  0
    1.1401    2.4307    1.6996 H   0  0  0  0  0  0  0  0  0  0  0  0
    0.7320    3.3099    0.2207 H   0  0  0  0  0  0  0  0  0  0  0  0
   -0.3606   -2.6152    0.9606 H   0  0  0  0  0  0  0  0  0  0  0  0
    5.3206    1.7430    0.7356 H   0  0  0  0  0  0  0  0  0  0  0  0
   -3.7686   -4.9115   -0.8330 H   0  0  0  0  0  0  0  0  0  0  0  0
   -5.6488   -3.3137   -1.0548 H   0  0  0  0  0  0  0  0  0  0  0  0
   -7.1580   -2.0547    0.0132 H   0  0  0  0  0  0  0  0  0  0  0  0
   -4.0655    0.9516   -0.4550 H   0  0  0  0  0  0  0  0  0  0  0  0
    7.6460    1.6210    0.9634 H   0  0  0  0  0  0  0  0  0  0  0  0
    5.5520   -0.9774   -1.7948 H   0  0  0  0  0  0  0  0  0  0  0  0
   -8.8458   -0.3389   -0.1195 H   0  0  0  0  0  0  0  0  0  0  0  0
   -5.7626    2.6742   -0.5400 H   0  0  0  0  0  0  0  0  0  0  0  0
    7.6391   -1.9886   -2.4438 H   0  0  0  0  0  0  0  0  0  0  0  0
    9.7704   -1.2572   -1.4412 H   0  0  0  0  0  0  0  0  0  0  0  0
   -9.1293    4.0315   -1.3791 H   0  0  0  0  0  0  0  0  0  0  0  0
   -7.5674    4.2175   -0.5748 H   0  0  0  0  0  0  0  0  0  0  0  0
   -7.7002    3.3139   -2.1089 H   0  0  0  0  0  0  0  0  0  0  0  0
   -9.5304    1.7166    1.3017 H   0  0  0  0  0  0  0  0  0  0  0  0
  -10.1875    3.0994    0.4373 H   0  0  0  0  0  0  0  0  0  0  0  0
  -10.3564    1.4871   -0.2641 H   0  0  0  0  0  0  0  0  0  0  0  0
  1 12  1  0  0  0  0
  1 15  1  0  0  0  0
  2 11  1  0  0  0  0
  2 16  1  0  0  0  0
  3 14  1  0  0  0  0
  3 18  1  0  0  0  0
  4 18  2  0  0  0  0
  5 13  1  0  0  0  0
  5 17  1  0  0  0  0
  5 45  1  0  0  0  0
  6 17  1  0  0  0  0
  6 19  2  0  0  0  0
  7 17  2  0  0  0  0
  7 20  1  0  0  0  0
  8 18  1  0  0  0  0
  8 22  1  0  0  0  0
  8 46  1  0  0  0  0
  9 28  1  0  0  0  0
  9 34  1  0  0  0  0
  9 35  1  0  0  0  0
 10 36  3  0  0  0  0
 11 12  1  0  0  0  0
 11 13  1  0  0  0  0
 11 37  1  0  0  0  0
 12 14  1  0  0  0  0
 12 38  1  0  0  0  0
 13 15  1  0  0  0  0
 13 39  1  0  0  0  0
 14 16  1  0  0  0  0
 14 40  1  0  0  0  0
 15 41  1  0  0  0  0
 15 42  1  0  0  0  0
 16 43  1  0  0  0  0
 16 44  1  0  0  0  0
 19 21  1  0  0  0  0
 19 23  1  0  0  0  0
 20 21  2  0  0  0  0
 20 47  1  0  0  0  0
 21 48  1  0  0  0  0
 22 24  1  0  0  0  0
 22 25  2  0  0  0  0
 23 26  2  0  0  0  0
 23 27  1  0  0  0  0
 24 31  2  0  0  0  0
 24 51  1  0  0  0  0
 25 32  1  0  0  0  0
 25 52  1  0  0  0  0
 26 29  1  0  0  0  0
 26 49  1  0  0  0  0
 27 30  2  0  0  0  0
 27 50  1  0  0  0  0
 28 29  2  0  0  0  0
 28 30  1  0  0  0  0
 29 53  1  0  0  0  0
 30 54  1  0  0  0  0
 31 33  1  0  0  0  0
 31 36  1  0  0  0  0
 32 33  2  0  0  0  0
 32 55  1  0  0  0  0
 33 56  1  0  0  0  0
 34 57  1  0  0  0  0
 34 58  1  0  0  0  0
 34 59  1  0  0  0  0
 35 60  1  0  0  0  0
 35 61  1  0  0  0  0
 35 62  1  0  0  0  0
M  END
> <PUBCHEM_COMPOUND_CID>
11911795

> <PUBCHEM_CONFORMER_RMSD>
1.2

> <PUBCHEM_CONFORMER_DIVERSEORDER>
1
337
97
236
474
152
529
39
320
363
78
290
125
467
23
432
452
13
330
376
402
335
74
137
55
144
82
443
267
230
76
407
322
344
411
12
334
25
255
159
288
15
8
108
446
382
503
217
186
180
307
173
261
478
328
116
149
228
393
36
234
512
95
158
265
367
470
450
345
460
417
64
178
101
321
44
324
356
204
456
451
3
403
5
454
107
488
176
47
147
33
127
302
311
113
295
447
40
92
305
300
9
194
410
200
146
188
413
475
315
140
41
308
17
111
399
183
256
485
283
237
479
465
72
524
314
96
277
86
29
391
276
380
42
221
292
433
199
331
412
522
525
52
51
203
77
206
343
170
11
426
501
284
323
304
128
396
98
179
83
509
286
62
266
46
160
342
126
406
26
189
341
67
14
156
37
154
142
250
366
104
150
2
58
166
370
90
123
442
93
89
390
110
136
75
4
252
94
333
414
115
491
53
262
369
19
372
401
66
185
10
20
31
226
119
248
71
84
274
118
35
6
312
45
18
249
7

> <PUBCHEM_MMFF94_PARTIAL_CHARGES>
47
1 -0.56
10 -0.56
11 0.28
12 0.28
13 0.37
14 0.28
15 0.28
16 0.28
17 0.72
18 0.78
19 0.31
2 -0.56
20 0.16
21 -0.15
22 0.12
24 -0.15
25 -0.15
26 -0.15
27 -0.15
28 0.1
29 -0.15
3 -0.43
30 -0.15
31 0.07
32 -0.15
33 -0.15
34 0.37
35 0.37
36 0.48
4 -0.57
45 0.4
46 0.37
47 0.15
48 0.15
49 0.15
5 -0.87
50 0.15
51 0.15
52 0.15
53 0.15
54 0.15
55 0.15
56 0.15
6 -0.62
7 -0.62
8 -0.55
9 -0.84

> <PUBCHEM_EFFECTIVE_ROTOR_COUNT>
9.2

> <PUBCHEM_PHARMACOPHORE_FEATURES>
14
1 1 acceptor
1 10 acceptor
1 2 acceptor
1 4 acceptor
1 5 donor
1 6 acceptor
1 8 donor
1 9 cation
4 5 6 7 17 cation
5 1 11 12 13 15 rings
5 2 11 12 14 16 rings
6 22 24 25 31 32 33 rings
6 23 26 27 28 29 30 rings
6 6 7 17 19 20 21 rings

> <PUBCHEM_HEAVY_ATOM_COUNT>
36

> <PUBCHEM_ATOM_DEF_STEREO_COUNT>
4

> <PUBCHEM_ATOM_UDEF_STEREO_COUNT>
0

> <PUBCHEM_BOND_DEF_STEREO_COUNT>
0

> <PUBCHEM_BOND_UDEF_STEREO_COUNT>
0

> <PUBCHEM_ISOTOPIC_ATOM_COUNT>
0

> <PUBCHEM_COMPONENT_COUNT>
1

> <PUBCHEM_CACTVS_TAUTO_COUNT>
6

> <PUBCHEM_CONFORMER_ID>
00B5C27300000001

> <PUBCHEM_MMFF94_ENERGY>
127.9706

> <PUBCHEM_FEATURE_SELFOVERLAP>
71.764

> <PUBCHEM_SHAPE_FINGERPRINT>
10 15 8358264726395790300
10162869 55 14333405662797261520
10190206 1 18131074788741356905
10369192 42 12035718843254125762
10391435 84 18060419153680700518
10483366 6 18412266108030106371
10577160 183 18333447634241620162
10670039 82 18335977645558217767
10674148 151 18334856129921726688
10842051 180 15410902860066890790
10864689 126 18411974742398685265
10917259 69 18409446947358616633
11103572 95 18412261710812582286
11135926 11 17489321784273892455
11200772 48 18334299798555587419
11211813 128 7853571318298495945
11211813 163 18412262848651387511
11411753 29 17679317509427389025
11621639 179 18115860816087707861
11828042 53 18055354639081802465
12013929 94 9511456736617335628
12098696 120 18335144151188069653
12144603 126 18113333125113096472
12539747 91 17489301997781267896
12559415 135 18260548944501098100
12643181 29 18412262860802975327
12758862 11 18202280329222123385
12857493 111 18202847660565276992
13740195 50 9295283929218759180
13811026 1 18343584079720549992
14168556 18 8862939472370002181
14294032 229 17749665177879531557
14856354 85 16298673884276721083
150020 25 18060139847609168190
15065858 18 18202281421045759478
15183329 4 18410294717788314106
15230672 131 18409727361373020427
15274700 256 18411416220535239272
15419008 91 18058435651599128448
15444296 9 17967249780663437718
15684389 69 12967132692394981436
15890870 6 18410291381891097709
16087824 20 18336546015581856421
16992727 255 18334580144177126781
18335252 98 10809338932604656336
18603816 31 16988838419394523271
19841028 212 18410856522315438814
20609170 85 18201988929315099688
21133410 127 17754451262861302109
21756936 100 17749110015592802507
23559900 14 17988079027270112371
249057 3 18409169926167650197
3092352 35 15936411151920922088
3418910 222 8142087593570969494
38570 142 17821446872372099579
444735 79 8862939468407376661
44575985 433 18200314296108121097
4461854 278 11314320421302602913
474113 269 16056605296772670870
4760202 70 12463561911897937298
4874694 18 18060419115047081310
508180 173 18410857698402762281
57676310 115 18189057499682027653
58083652 198 15267339660855452138
59521270 166 18333730199997468972
59682541 35 7997964665778319037
6009941 240 18342740736436738631
6126387 218 18412261766429989384
6523845 18 13695868147086848732
6698420 124 16877949372918822592
9689198 14 12252174187245651958

> <PUBCHEM_SHAPE_MULTIPOLES>
687.5
35.21
3.32
1.25
42.71
1.69
-0.27
-17.69
8.23
-9.19
0.57
1.23
0.18
2.04

> <PUBCHEM_SHAPE_SELFOVERLAP>
1502.304

> <PUBCHEM_SHAPE_VOLUME>
371.1

> <PUBCHEM_COORDINATE_TYPE>
2
5
10

$$$$
