75536972
  -OEChem-12032416333D

 42 45  0     1  0  0  0  0  0999 V2000
   -4.9771   -0.5735   -1.2143 O   0  0  0  0  0  0  0  0  0  0  0  0
    1.4319   -2.7187    0.4845 O   0  0  0  0  0  0  0  0  0  0  0  0
   -2.7305   -0.1755   -0.7557 N   0  0  0  0  0  0  0  0  0  0  0  0
   -0.4741   -1.3497    0.3683 N   0  0  0  0  0  0  0  0  0  0  0  0
    1.4185   -0.4731    1.2040 N   0  0  0  0  0  0  0  0  0  0  0  0
    4.8141    2.1266   -0.4713 N   0  0  0  0  0  0  0  0  0  0  0  0
   -4.4751    1.4961   -0.2502 C   0  0  0  0  0  0  0  0  0  0  0  0
   -0.8531   -0.0219    0.8193 C   0  0  2  0  0  0  0  0  0  0  0  0
   -5.8625    1.6799    0.2660 C   0  0  0  0  0  0  0  0  0  0  0  0
   -4.7041    1.6372    1.2170 C   0  0  0  0  0  0  0  0  0  0  0  0
   -1.6525    0.7006   -0.2618 C   0  0  0  0  0  0  0  0  0  0  0  0
    0.4782    0.6337    1.1766 C   0  0  0  0  0  0  0  0  0  0  0  0
   -4.0871    0.1557   -0.7848 C   0  0  0  0  0  0  0  0  0  0  0  0
   -2.2817   -1.4798   -1.2644 C   0  0  0  0  0  0  0  0  0  0  0  0
   -1.4756   -2.2299   -0.2067 C   0  0  0  0  0  0  0  0  0  0  0  0
    0.8624   -1.6505    0.6658 C   0  0  0  0  0  0  0  0  0  0  0  0
    2.7949   -0.2986    1.6124 C   0  0  0  0  0  0  0  0  0  0  0  0
    3.6454    0.2474    0.5022 C   0  0  0  0  0  0  0  0  0  0  0  0
    4.0511   -0.5613   -0.5538 C   0  0  0  0  0  0  0  0  0  0  0  0
    4.0501    1.5726    0.4966 C   0  0  0  0  0  0  0  0  0  0  0  0
    4.8379   -0.0275   -1.5684 C   0  0  0  0  0  0  0  0  0  0  0  0
    5.1891    1.3100   -1.4814 C   0  0  0  0  0  0  0  0  0  0  0  0
   -4.0559    2.3442   -0.7829 H   0  0  0  0  0  0  0  0  0  0  0  0
   -1.4668   -0.1586    1.7189 H   0  0  0  0  0  0  0  0  0  0  0  0
   -6.5494    0.8428    0.2832 H   0  0  0  0  0  0  0  0  0  0  0  0
   -6.3408    2.6380    0.0997 H   0  0  0  0  0  0  0  0  0  0  0  0
   -4.4023    2.5646    1.6881 H   0  0  0  0  0  0  0  0  0  0  0  0
   -4.6013    0.7623    1.8473 H   0  0  0  0  0  0  0  0  0  0  0  0
   -2.0358    1.6473    0.1241 H   0  0  0  0  0  0  0  0  0  0  0  0
   -1.0212    0.9315   -1.1288 H   0  0  0  0  0  0  0  0  0  0  0  0
    0.8092    1.3536    0.4211 H   0  0  0  0  0  0  0  0  0  0  0  0
    0.4445    1.1212    2.1556 H   0  0  0  0  0  0  0  0  0  0  0  0
   -1.6583   -1.2782   -2.1438 H   0  0  0  0  0  0  0  0  0  0  0  0
   -3.1305   -2.0880   -1.5917 H   0  0  0  0  0  0  0  0  0  0  0  0
   -2.1276   -2.5494    0.6142 H   0  0  0  0  0  0  0  0  0  0  0  0
   -0.9937   -3.1180   -0.6265 H   0  0  0  0  0  0  0  0  0  0  0  0
    2.8184    0.3495    2.4958 H   0  0  0  0  0  0  0  0  0  0  0  0
    3.1959   -1.2726    1.9181 H   0  0  0  0  0  0  0  0  0  0  0  0
    3.7668   -1.6086   -0.5966 H   0  0  0  0  0  0  0  0  0  0  0  0
    3.7640    2.2542    1.2916 H   0  0  0  0  0  0  0  0  0  0  0  0
    5.1668   -0.6393   -2.4005 H   0  0  0  0  0  0  0  0  0  0  0  0
    5.8017    1.7742   -2.2472 H   0  0  0  0  0  0  0  0  0  0  0  0
  1 13  2  0  0  0  0
  2 16  2  0  0  0  0
  3 11  1  0  0  0  0
  3 13  1  0  0  0  0
  3 14  1  0  0  0  0
  4  8  1  0  0  0  0
  4 15  1  0  0  0  0
  4 16  1  0  0  0  0
  5 12  1  0  0  0  0
  5 16  1  0  0  0  0
  5 17  1  0  0  0  0
  6 20  1  0  0  0  0
  6 22  2  0  0  0  0
  7  9  1  0  0  0  0
  7 10  1  0  0  0  0
  7 13  1  0  0  0  0
  7 23  1  0  0  0  0
  8 11  1  0  0  0  0
  8 12  1  0  0  0  0
  8 24  1  0  0  0  0
  9 10  1  0  0  0  0
  9 25  1  0  0  0  0
  9 26  1  0  0  0  0
 10 27  1  0  0  0  0
 10 28  1  0  0  0  0
 11 29  1  0  0  0  0
 11 30  1  0  0  0  0
 12 31  1  0  0  0  0
 12 32  1  0  0  0  0
 14 15  1  0  0  0  0
 14 33  1  0  0  0  0
 14 34  1  0  0  0  0
 15 35  1  0  0  0  0
 15 36  1  0  0  0  0
 17 18  1  0  0  0  0
 17 37  1  0  0  0  0
 17 38  1  0  0  0  0
 18 19  1  0  0  0  0
 18 20  2  0  0  0  0
 19 21  2  0  0  0  0
 19 39  1  0  0  0  0
 20 40  1  0  0  0  0
 21 22  1  0  0  0  0
 21 41  1  0  0  0  0
 22 42  1  0  0  0  0
M  END
> <PUBCHEM_COMPOUND_CID>
75536972

> <PUBCHEM_CONFORMER_RMSD>
0.8

> <PUBCHEM_CONFORMER_DIVERSEORDER>
1
95
19
72
83
45
49
91
22
25
90
41
58
21
30
80
92
12
89
37
76
6
26
42
74
82
11
62
81
68
65
10
55
28
35
38
67
8
5
88
64
48
84
93
51
54
7
59
34
14
78
87
24
52
61
53
40
29
4
77
60
15
36
13
57
23
9
47
39
16
94
86
2
18
85
20
50
69
66
33
31
17
56
73
3
71
43
44
63
70
79
32
75
27
46

> <PUBCHEM_MMFF94_PARTIAL_CHARGES>
31
1 -0.57
10 -0.2
11 0.3
12 0.3
13 0.63
14 0.3
15 0.3
16 0.69
17 0.44
18 -0.14
19 -0.15
2 -0.57
20 0.16
21 -0.15
22 0.16
23 0.1
25 0.1
26 0.1
27 0.1
28 0.1
3 -0.66
39 0.15
4 -0.66
40 0.15
41 0.15
42 0.15
5 -0.66
6 -0.62
7 -0.1
8 0.3
9 -0.2

> <PUBCHEM_EFFECTIVE_ROTOR_COUNT>
5.8

> <PUBCHEM_PHARMACOPHORE_FEATURES>
6
1 1 acceptor
1 2 acceptor
1 6 acceptor
5 4 5 8 12 16 rings
6 3 4 8 11 14 15 rings
6 6 18 19 20 21 22 rings

> <PUBCHEM_HEAVY_ATOM_COUNT>
22

> <PUBCHEM_ATOM_DEF_STEREO_COUNT>
1

> <PUBCHEM_ATOM_UDEF_STEREO_COUNT>
0

> <PUBCHEM_BOND_DEF_STEREO_COUNT>
0

> <PUBCHEM_BOND_UDEF_STEREO_COUNT>
0

> <PUBCHEM_ISOTOPIC_ATOM_COUNT>
0

> <PUBCHEM_COMPONENT_COUNT>
1

> <PUBCHEM_CACTVS_TAUTO_COUNT>
1

> <PUBCHEM_CONFORMER_ID>
04809A4C00000001

> <PUBCHEM_MMFF94_ENERGY>
51.7406

> <PUBCHEM_FEATURE_SELFOVERLAP>
30.546

> <PUBCHEM_SHAPE_FINGERPRINT>
10447042 23 11527942344675484696
10498660 4 18334858376669449284
10670039 82 18200596878141459873
10753850 27 10303806584597983269
107951 10 18273500087010627239
11045977 3 14418132902803227117
11796584 16 14117509935400447285
12390115 104 18410583902763993155
12616971 3 18041265600425159778
12788726 201 17488749947874289585
12839892 36 11891329846565286065
12892183 10 12324228486869162022
12954195 1 16773248270736942601
13782708 43 13182435808568213133
13955234 65 17677045716594097602
1420 369 10447932771605042692
14251764 75 16880501417033242556
14366163 111 18412263934956249448
14528608 73 18409726270455958949
14573314 32 16989122050233792969
14790565 3 18341335483583696369
14840074 17 18186527587903895885
14848178 5 11671779364456531124
15163728 17 18187659036971496078
15183329 4 16988567870413601513
15188451 53 9655300293649635012
15210252 30 18409167740509883616
15342168 16 18260546701889495663
15475509 8 17059789827351884057
15885798 251 10952054463568132346
17349148 13 10951771914633332873
17857418 61 9655569712821781825
17959699 21 18413109454886504180
1813 80 11887955458343359266
18222031 100 9079115587636890330
193927 3 13038916555335149164
19784866 34 18333729126208211066
200 152 12895076223174332003
20567600 234 14635164442205724845
20645477 70 14907896124164408824
20871999 31 18271525406923287214
21315764 119 17560531598795543556
22061861 79 14836119957700698421
22079108 93 16443350883548561193
2215653 11 16200430256407044365
23366157 5 18120646929826467555
23559900 14 17203602709922544456
2838139 119 17749385992779194236
3004659 81 17988645151922049614
3009799 131 8574429782401388243
312425 54 11891598105616494444
32948 21 17489869314993397504
3459 110 16009328620192300145
3472631 163 18336267928801027692
34797466 226 16271344405944528081
38570 142 18129679503900168841
392239 28 14201401577536284277
4325135 7 16515409590283549619
44062 13 16200142240332019877
474 4 17458343061313960886
4990 188 17489861644092077554
543368 44 18337106869110858157
56616090 163 18409738347735443502
59682541 52 16199865047522560101
6034566 193 17897747567343565132
633830 44 18341043094894165302
76465 3 10087638204350729283
8988823 20 10231458701883152986
960060 61 16559032705573431692

> <PUBCHEM_SHAPE_MULTIPOLES>
421.09
12.98
2.24
1.45
2.69
0.61
-0.06
-8.52
-4.23
0.26
0.07
-0.82
-0.02
-1.36

> <PUBCHEM_SHAPE_SELFOVERLAP>
897.612

> <PUBCHEM_SHAPE_VOLUME>
233.9

> <PUBCHEM_COORDINATE_TYPE>
2
5
10

$$$$
