25338211
  -OEChem-12032416193D

 50 53  0     1  0  0  0  0  0999 V2000
    7.4712   -0.5052   -0.2752 F   0  0  0  0  0  0  0  0  0  0  0  0
   -2.8310    0.9149    1.5844 O   0  0  0  0  0  0  0  0  0  0  0  0
   -4.2977    1.9850    0.1405 O   0  0  0  0  0  0  0  0  0  0  0  0
   -2.4777    1.8892   -2.0909 O   0  0  0  0  0  0  0  0  0  0  0  0
    1.4554    1.8139   -1.0036 O   0  0  0  0  0  0  0  0  0  0  0  0
   -2.5587   -1.2588   -0.2708 N   0  0  0  0  0  0  0  0  0  0  0  0
   -0.1055    0.9964    0.4922 N   0  0  0  0  0  0  0  0  0  0  0  0
    2.0577    0.2549    0.6449 N   0  0  0  0  0  0  0  0  0  0  0  0
   -3.0784    0.0535   -0.6545 C   0  0  2  0  0  0  0  0  0  0  0  0
   -1.9272    0.9575   -1.1507 C   0  0  2  0  0  0  0  0  0  0  0  0
   -1.2331    1.7461   -0.0186 C   0  0  1  0  0  0  0  0  0  0  0  0
   -3.7953    0.7005    0.5448 C   0  0  1  0  0  0  0  0  0  0  0  0
   -2.1850    2.1116    1.1391 C   0  0  1  0  0  0  0  0  0  0  0  0
   -3.3878    2.9343    0.7173 C   0  0  0  0  0  0  0  0  0  0  0  0
   -2.3320   -2.0901   -1.4613 C   0  0  0  0  0  0  0  0  0  0  0  0
   -3.4735   -1.9186    0.6715 C   0  0  0  0  0  0  0  0  0  0  0  0
   -1.7418   -3.4491   -1.0814 C   0  0  0  0  0  0  0  0  0  0  0  0
   -2.9208   -3.2719    1.1210 C   0  0  0  0  0  0  0  0  0  0  0  0
   -2.6243   -4.1740   -0.0717 C   0  0  0  0  0  0  0  0  0  0  0  0
    1.1784    1.0897   -0.0505 C   0  0  0  0  0  0  0  0  0  0  0  0
    3.4390    0.0611    0.4102 C   0  0  0  0  0  0  0  0  0  0  0  0
    4.1655   -0.8205    1.2108 C   0  0  0  0  0  0  0  0  0  0  0  0
    4.0747    0.7515   -0.6217 C   0  0  0  0  0  0  0  0  0  0  0  0
    5.5277   -1.0116    0.9795 C   0  0  0  0  0  0  0  0  0  0  0  0
    5.4370    0.5605   -0.8530 C   0  0  0  0  0  0  0  0  0  0  0  0
    6.1634   -0.3209   -0.0524 C   0  0  0  0  0  0  0  0  0  0  0  0
   -3.8270   -0.0441   -1.4542 H   0  0  0  0  0  0  0  0  0  0  0  0
   -1.1858    0.3940   -1.7258 H   0  0  0  0  0  0  0  0  0  0  0  0
   -0.8367    2.6850   -0.4263 H   0  0  0  0  0  0  0  0  0  0  0  0
   -4.6667    0.1571    0.9187 H   0  0  0  0  0  0  0  0  0  0  0  0
   -1.6391    2.5759    1.9668 H   0  0  0  0  0  0  0  0  0  0  0  0
   -3.8890    3.3699    1.5883 H   0  0  0  0  0  0  0  0  0  0  0  0
   -3.1575    3.7306    0.0045 H   0  0  0  0  0  0  0  0  0  0  0  0
   -1.6318   -1.6143   -2.1552 H   0  0  0  0  0  0  0  0  0  0  0  0
   -3.2701   -2.2466   -2.0108 H   0  0  0  0  0  0  0  0  0  0  0  0
   -4.4695   -2.0602    0.2313 H   0  0  0  0  0  0  0  0  0  0  0  0
   -3.5783   -1.3832    1.6189 H   0  0  0  0  0  0  0  0  0  0  0  0
   -0.7394   -3.3083   -0.6572 H   0  0  0  0  0  0  0  0  0  0  0  0
   -1.6252   -4.0666   -1.9792 H   0  0  0  0  0  0  0  0  0  0  0  0
   -3.6394   -3.7653    1.7855 H   0  0  0  0  0  0  0  0  0  0  0  0
   -2.0008   -3.1208    1.7005 H   0  0  0  0  0  0  0  0  0  0  0  0
   -3.5659   -4.4670   -0.5521 H   0  0  0  0  0  0  0  0  0  0  0  0
   -2.1339   -5.0939    0.2647 H   0  0  0  0  0  0  0  0  0  0  0  0
   -0.2733    0.3161    1.2272 H   0  0  0  0  0  0  0  0  0  0  0  0
   -1.7423    2.4160   -2.4476 H   0  0  0  0  0  0  0  0  0  0  0  0
    1.6655   -0.2816    1.4145 H   0  0  0  0  0  0  0  0  0  0  0  0
    3.6823   -1.3648    2.0181 H   0  0  0  0  0  0  0  0  0  0  0  0
    3.5811    1.4494   -1.2830 H   0  0  0  0  0  0  0  0  0  0  0  0
    6.0937   -1.6979    1.6023 H   0  0  0  0  0  0  0  0  0  0  0  0
    5.9336    1.0972   -1.6561 H   0  0  0  0  0  0  0  0  0  0  0  0
  1 26  1  0  0  0  0
  2 12  1  0  0  0  0
  2 13  1  0  0  0  0
  3 12  1  0  0  0  0
  3 14  1  0  0  0  0
  4 10  1  0  0  0  0
  4 45  1  0  0  0  0
  5 20  2  0  0  0  0
  6  9  1  0  0  0  0
  6 15  1  0  0  0  0
  6 16  1  0  0  0  0
  7 11  1  0  0  0  0
  7 20  1  0  0  0  0
  7 44  1  0  0  0  0
  8 20  1  0  0  0  0
  8 21  1  0  0  0  0
  8 46  1  0  0  0  0
  9 10  1  0  0  0  0
  9 12  1  0  0  0  0
  9 27  1  0  0  0  0
 10 11  1  0  0  0  0
 10 28  1  0  0  0  0
 11 13  1  0  0  0  0
 11 29  1  0  0  0  0
 12 30  1  0  0  0  0
 13 14  1  0  0  0  0
 13 31  1  0  0  0  0
 14 32  1  0  0  0  0
 14 33  1  0  0  0  0
 15 17  1  0  0  0  0
 15 34  1  0  0  0  0
 15 35  1  0  0  0  0
 16 18  1  0  0  0  0
 16 36  1  0  0  0  0
 16 37  1  0  0  0  0
 17 19  1  0  0  0  0
 17 38  1  0  0  0  0
 17 39  1  0  0  0  0
 18 19  1  0  0  0  0
 18 40  1  0  0  0  0
 18 41  1  0  0  0  0
 19 42  1  0  0  0  0
 19 43  1  0  0  0  0
 21 22  2  0  0  0  0
 21 23  1  0  0  0  0
 22 24  1  0  0  0  0
 22 47  1  0  0  0  0
 23 25  2  0  0  0  0
 23 48  1  0  0  0  0
 24 26  2  0  0  0  0
 24 49  1  0  0  0  0
 25 26  1  0  0  0  0
 25 50  1  0  0  0  0
M  END
> <PUBCHEM_COMPOUND_CID>
25338211

> <PUBCHEM_CONFORMER_RMSD>
0.8

> <PUBCHEM_CONFORMER_DIVERSEORDER>
1
22
21
7
17
25
23
12
19
16
11
26
13
9
15
18
8
6
2
14
20
10
5
4
24
3

> <PUBCHEM_MMFF94_PARTIAL_CHARGES>
30
1 -0.19
10 0.28
11 0.3
12 0.56
13 0.28
14 0.28
15 0.27
16 0.27
2 -0.56
20 0.69
21 0.12
22 -0.15
23 -0.15
24 -0.15
25 -0.15
26 0.19
3 -0.56
4 -0.68
44 0.37
45 0.4
46 0.37
47 0.15
48 0.15
49 0.15
5 -0.57
50 0.15
6 -0.81
7 -0.73
8 -0.55
9 0.27

> <PUBCHEM_EFFECTIVE_ROTOR_COUNT>
7.4

> <PUBCHEM_PHARMACOPHORE_FEATURES>
11
1 2 acceptor
1 3 acceptor
1 4 acceptor
1 4 donor
1 5 acceptor
1 6 cation
1 7 donor
1 8 donor
6 21 22 23 24 25 26 rings
6 6 15 16 17 18 19 rings
8 2 3 9 10 11 12 13 14 rings

> <PUBCHEM_HEAVY_ATOM_COUNT>
26

> <PUBCHEM_ATOM_DEF_STEREO_COUNT>
5

> <PUBCHEM_ATOM_UDEF_STEREO_COUNT>
0

> <PUBCHEM_BOND_DEF_STEREO_COUNT>
0

> <PUBCHEM_BOND_UDEF_STEREO_COUNT>
0

> <PUBCHEM_ISOTOPIC_ATOM_COUNT>
0

> <PUBCHEM_COMPONENT_COUNT>
1

> <PUBCHEM_CACTVS_TAUTO_COUNT>
3

> <PUBCHEM_CONFORMER_ID>
0182A16300000001

> <PUBCHEM_MMFF94_ENERGY>
67.6096

> <PUBCHEM_FEATURE_SELFOVERLAP>
55.923

> <PUBCHEM_SHAPE_FINGERPRINT>
10483366 6 18058429042177431087
10616163 171 18411982477069892950
107951 10 18129383709423326701
11045977 3 17774993588477833984
11315181 36 17060334107003348248
11315621 246 18335711529231616270
11524674 6 17989486299285765215
11552529 35 18340481270211788270
12616971 3 17749112175903050324
12633257 1 17416143882439351155
12760667 363 18341047544786739143
12969540 37 17042039642403364055
13167823 11 18407761447973107456
13631057 29 18265049318206940058
13726171 33 17840903911562838436
14251757 5 18413388739361289842
14844126 61 18342737468003757291
14866123 147 18341053025529174667
15042514 8 18340209708520724267
15250474 111 18261944194475963554
15484559 13 14790756019541681468
15537594 2 18040436547573292434
15788980 27 17531245029017077052
15799311 1 18339941311835708238
17780758 139 18342737425259396792
17844677 252 17846497058862623520
20511986 3 18114169810016750144
20554085 129 17699833048098936913
20775530 9 18046900760626607363
23466295 7 18189902100690040179
235170 7 13767922395508848650
23559900 14 18270109248742501905
23598288 3 18270688700360538533
23728640 28 18413670214797157291
3268164 11 11818997387283412328
3383291 50 18272645784056679367
4015057 19 16916481732102672609
4073 2 18272089392902726266
469060 322 13768220444558899755
484985 159 18409724101798648751
497634 4 18187929516377982004
508706 21 18202008737197613710
5104073 3 18343017831153436664
531348 171 17677603169168129568
5364581 5 17914595375943085584
5486654 36 18336552719318092489
559249 180 18409446964395385305
58260988 587 17394429322924630861
602551 16 18273210902999525578
9981440 41 17131557128792033781

> <PUBCHEM_SHAPE_MULTIPOLES>
489.37
13.03
3.94
1.38
28.9
3.52
0.21
2
-0.88
-7.18
-0.04
-0.61
-0.04
-0.9

> <PUBCHEM_SHAPE_SELFOVERLAP>
1047.023

> <PUBCHEM_SHAPE_VOLUME>
269.2

> <PUBCHEM_COORDINATE_TYPE>
2
5
10

$$$$
