25390436
  -OEChem-12032416173D

 40 41  0     1  0  0  0  0  0999 V2000
    2.8315   -2.6293    0.1017 S   0  0  0  0  0  0  0  0  0  0  0  0
    0.5739    0.7265   -0.7869 O   0  0  0  0  0  0  0  0  0  0  0  0
    0.1903    3.6331    1.2878 O   0  0  0  0  0  0  0  0  0  0  0  0
    1.7202    3.5373   -0.9967 O   0  0  0  0  0  0  0  0  0  0  0  0
   -2.5164    0.6581   -1.3347 O   0  0  0  0  0  0  0  0  0  0  0  0
    3.0772   -3.7116   -0.8311 O   0  0  0  0  0  0  0  0  0  0  0  0
    1.7389   -2.7031    1.0526 O   0  0  0  0  0  0  0  0  0  0  0  0
   -3.4167   -0.2688    0.5938 N   0  0  0  0  0  0  0  0  0  0  0  0
    2.7136   -1.1514   -0.7441 N   0  0  0  0  0  0  0  0  0  0  0  0
   -0.2421    1.6307   -0.0214 C   0  0  2  0  0  0  0  0  0  0  0  0
   -4.6150   -0.7811   -0.0065 C   0  0  0  0  0  0  0  0  0  0  0  0
    0.7188    2.3901    0.8775 C   0  0  1  0  0  0  0  0  0  0  0  0
    1.9333    2.5206   -0.0181 C   0  0  1  0  0  0  0  0  0  0  0  0
    1.9481    1.1731   -0.7312 C   0  0  1  0  0  0  0  0  0  0  0  0
   -4.6287   -2.1130   -0.6977 C   0  0  0  0  0  0  0  0  0  0  0  0
   -5.3573   -1.9346    0.6020 C   0  0  0  0  0  0  0  0  0  0  0  0
   -1.2925    0.8472    0.7453 C   0  0  0  0  0  0  0  0  0  0  0  0
    2.7521    0.1145    0.0112 C   0  0  0  0  0  0  0  0  0  0  0  0
   -2.4535    0.4182   -0.1318 C   0  0  0  0  0  0  0  0  0  0  0  0
    4.3243   -2.3564    1.0285 C   0  0  0  0  0  0  0  0  0  0  0  0
   -0.7241    2.3239   -0.7231 H   0  0  0  0  0  0  0  0  0  0  0  0
   -5.2264    0.0046   -0.4397 H   0  0  0  0  0  0  0  0  0  0  0  0
    0.9658    1.7987    1.7674 H   0  0  0  0  0  0  0  0  0  0  0  0
    2.8510    2.7636    0.5250 H   0  0  0  0  0  0  0  0  0  0  0  0
    2.3020    1.2610   -1.7652 H   0  0  0  0  0  0  0  0  0  0  0  0
   -3.7244   -2.7091   -0.6895 H   0  0  0  0  0  0  0  0  0  0  0  0
   -5.2201   -2.2068   -1.6001 H   0  0  0  0  0  0  0  0  0  0  0  0
   -6.4397   -1.9099    0.5742 H   0  0  0  0  0  0  0  0  0  0  0  0
   -4.9416   -2.4121    1.4808 H   0  0  0  0  0  0  0  0  0  0  0  0
   -0.8532   -0.0553    1.1877 H   0  0  0  0  0  0  0  0  0  0  0  0
   -1.7075    1.4640    1.5517 H   0  0  0  0  0  0  0  0  0  0  0  0
    2.3270   -0.0463    1.0075 H   0  0  0  0  0  0  0  0  0  0  0  0
    3.7940    0.4340    0.1156 H   0  0  0  0  0  0  0  0  0  0  0  0
   -3.2859   -0.4180    1.5909 H   0  0  0  0  0  0  0  0  0  0  0  0
    0.8964    4.1092    1.7570 H   0  0  0  0  0  0  0  0  0  0  0  0
    2.5065    3.5596   -1.5685 H   0  0  0  0  0  0  0  0  0  0  0  0
    3.2046   -1.1036   -1.6468 H   0  0  0  0  0  0  0  0  0  0  0  0
    4.5548   -3.2791    1.5665 H   0  0  0  0  0  0  0  0  0  0  0  0
    5.1355   -2.1258    0.3353 H   0  0  0  0  0  0  0  0  0  0  0  0
    4.1733   -1.5483    1.7454 H   0  0  0  0  0  0  0  0  0  0  0  0
  1  6  2  0  0  0  0
  1  7  2  0  0  0  0
  1  9  1  0  0  0  0
  1 20  1  0  0  0  0
  2 10  1  0  0  0  0
  2 14  1  0  0  0  0
  3 12  1  0  0  0  0
  3 35  1  0  0  0  0
  4 13  1  0  0  0  0
  4 36  1  0  0  0  0
  5 19  2  0  0  0  0
  8 11  1  0  0  0  0
  8 19  1  0  0  0  0
  8 34  1  0  0  0  0
  9 18  1  0  0  0  0
  9 37  1  0  0  0  0
 10 12  1  0  0  0  0
 10 17  1  0  0  0  0
 10 21  1  0  0  0  0
 11 15  1  0  0  0  0
 11 16  1  0  0  0  0
 11 22  1  0  0  0  0
 12 13  1  0  0  0  0
 12 23  1  0  0  0  0
 13 14  1  0  0  0  0
 13 24  1  0  0  0  0
 14 18  1  0  0  0  0
 14 25  1  0  0  0  0
 15 16  1  0  0  0  0
 15 26  1  0  0  0  0
 15 27  1  0  0  0  0
 16 28  1  0  0  0  0
 16 29  1  0  0  0  0
 17 19  1  0  0  0  0
 17 30  1  0  0  0  0
 17 31  1  0  0  0  0
 18 32  1  0  0  0  0
 18 33  1  0  0  0  0
 20 38  1  0  0  0  0
 20 39  1  0  0  0  0
 20 40  1  0  0  0  0
M  END
> <PUBCHEM_COMPOUND_CID>
25390436

> <PUBCHEM_CONFORMER_RMSD>
1

> <PUBCHEM_CONFORMER_DIVERSEORDER>
1
120
30
78
146
119
67
96
127
13
4
111
12
117
94
99
126
28
18
37
142
114
113
60
54
17
84
92
134
29
69
42
53
121
23
136
106
34
83
52
132
24
131
128
112
27
41
62
141
86
133
55
45
95
100
58
20
130
46
26
110
21
76
87
103
66
116
115
40
25
70
61
19
75
109
129
15
56
63
74
22
125
51
93
101
89
50
79
5
140
105
65
59
33
124
36
32
97
138
139
47
71
85
43
123
90
98
38
135
122
64
11
72
107
35
44
137
145
48
104
108
82
68
73
118
6
91
31
102
7
9
81
10
88
49
57
80
77
39
144
143
16
8
14
2
3

> <PUBCHEM_MMFF94_PARTIAL_CHARGES>
29
1 1.33
10 0.28
11 0.05
12 0.28
13 0.28
14 0.28
15 -0.2
16 -0.2
17 0.06
18 0.36
19 0.57
2 -0.56
20 0.11
22 0.1
26 0.1
27 0.1
28 0.1
29 0.1
3 -0.68
34 0.37
35 0.4
36 0.4
37 0.42
4 -0.68
5 -0.57
6 -0.65
7 -0.65
8 -0.58
9 -0.91

> <PUBCHEM_EFFECTIVE_ROTOR_COUNT>
8.6

> <PUBCHEM_PHARMACOPHORE_FEATURES>
11
1 2 acceptor
1 3 acceptor
1 3 donor
1 4 acceptor
1 4 donor
1 5 acceptor
1 6 acceptor
1 7 acceptor
1 8 donor
1 9 donor
5 2 10 12 13 14 rings

> <PUBCHEM_HEAVY_ATOM_COUNT>
20

> <PUBCHEM_ATOM_DEF_STEREO_COUNT>
4

> <PUBCHEM_ATOM_UDEF_STEREO_COUNT>
0

> <PUBCHEM_BOND_DEF_STEREO_COUNT>
0

> <PUBCHEM_BOND_UDEF_STEREO_COUNT>
0

> <PUBCHEM_ISOTOPIC_ATOM_COUNT>
0

> <PUBCHEM_COMPONENT_COUNT>
1

> <PUBCHEM_CACTVS_TAUTO_COUNT>
2

> <PUBCHEM_CONFORMER_ID>
01836D6400000001

> <PUBCHEM_MMFF94_ENERGY>
38.7456

> <PUBCHEM_FEATURE_SELFOVERLAP>
55.854

> <PUBCHEM_SHAPE_FINGERPRINT>
114674 6 18262799691272433451
12107183 9 18198357165277758545
12403259 327 13038920905667762629
12553582 1 18195542401771278502
13533116 47 18340771567811123243
13955234 65 18195812001379953881
14848160 33 18410288103797219159
14863182 85 18339924930555751432
15352361 1 18337953381068132675
15422964 175 18340478959519142652
17859628 70 18338805623049532031
20291156 8 18339925892037932855
20567600 70 18334852827261051594
20645477 70 18188206636568993089
21421861 104 18269857383739094153
21452121 199 18410567366812810616
2255824 54 18265900344027227884
23526113 38 17967536778519463688
23559900 14 18261385706877173605
33824 294 18266461094951767889
3421961 26 18411697707647024945
4283 87 18341324613037547855
463206 1 18409451418424885619
556388 4 18410574019928440603
621550 34 18119802775700698173
6433294 58 18265618860761659115
88748 71 18335427829082524771
9709674 26 18187648046118445907

> <PUBCHEM_SHAPE_MULTIPOLES>
370.26
9.1
4.73
1.1
12.28
0.02
-0.02
-9.94
-0.34
-5.13
-0.4
-0.16
0.13
-0.47

> <PUBCHEM_SHAPE_SELFOVERLAP>
731.935

> <PUBCHEM_SHAPE_VOLUME>
222.3

> <PUBCHEM_COORDINATE_TYPE>
2
5
10

$$$$
