45361388
  -OEChem-12032416313D

 75 78  0     1  0  0  0  0  0999 V2000
    1.0362   -2.3447   -1.3877 O   0  0  0  0  0  0  0  0  0  0  0  0
    5.9065   -2.2696    0.8137 O   0  0  0  0  0  0  0  0  0  0  0  0
   -4.2704    2.0084   -1.2266 O   0  0  0  0  0  0  0  0  0  0  0  0
   -9.8506   -0.6110    0.2049 O   0  0  0  0  0  0  0  0  0  0  0  0
   -3.5431    0.1879    0.0114 N   0  0  0  0  0  0  0  0  0  0  0  0
    5.4070   -1.2285   -1.1979 N   0  0  0  0  0  0  0  0  0  0  0  0
    7.7603    2.1033    0.9093 N   0  0  0  0  0  0  0  0  0  0  0  0
    0.5931    0.4470    1.1784 C   0  0  1  0  0  0  0  0  0  0  0  0
    0.2584   -0.4577   -0.0538 C   0  0  2  0  0  0  0  0  0  0  0  0
   -1.2708   -0.8160   -0.0853 C   0  0  1  0  0  0  0  0  0  0  0  0
    1.2306   -1.6691   -0.1444 C   0  0  2  0  0  0  0  0  0  0  0  0
    2.0789    0.8734    1.1171 C   0  0  0  0  0  0  0  0  0  0  0  0
   -0.2676    1.7297    1.1108 C   0  0  0  0  0  0  0  0  0  0  0  0
    2.7167   -1.2434   -0.1003 C   0  0  1  0  0  0  0  0  0  0  0  0
   -2.1280    0.4810   -0.0773 C   0  0  2  0  0  0  0  0  0  0  0  0
    3.0354   -0.3107    1.0681 C   0  0  0  0  0  0  0  0  0  0  0  0
   -1.7615    1.4445    1.0513 C   0  0  0  0  0  0  0  0  0  0  0  0
    0.3361   -0.2691    2.5286 C   0  0  0  0  0  0  0  0  0  0  0  0
    3.6549   -2.4558   -0.0588 C   0  0  2  0  0  0  0  0  0  0  0  0
   -1.6757   -1.6822   -1.2900 C   0  0  0  0  0  0  0  0  0  0  0  0
    3.3597   -3.3060    1.1720 C   0  0  0  0  0  0  0  0  0  0  0  0
    5.1075   -1.9901   -0.0776 C   0  0  0  0  0  0  0  0  0  0  0  0
   -4.5037    0.9902   -0.5804 C   0  0  0  0  0  0  0  0  0  0  0  0
   -5.9131    0.5679   -0.3750 C   0  0  0  0  0  0  0  0  0  0  0  0
    6.7189   -0.6732   -1.4372 C   0  0  0  0  0  0  0  0  0  0  0  0
   -6.9364    1.5155   -0.4045 C   0  0  0  0  0  0  0  0  0  0  0  0
   -6.2132   -0.7757   -0.1507 C   0  0  0  0  0  0  0  0  0  0  0  0
    6.8657    0.6975   -0.8424 C   0  0  0  0  0  0  0  0  0  0  0  0
   -8.2595    1.1196   -0.2094 C   0  0  0  0  0  0  0  0  0  0  0  0
   -7.5362   -1.1718    0.0444 C   0  0  0  0  0  0  0  0  0  0  0  0
   -8.5593   -0.2241    0.0151 C   0  0  0  0  0  0  0  0  0  0  0  0
    6.2771    1.8058   -1.4413 C   0  0  0  0  0  0  0  0  0  0  0  0
    7.5907    0.8978    0.3214 C   0  0  0  0  0  0  0  0  0  0  0  0
    6.4291    3.0626   -0.8662 C   0  0  0  0  0  0  0  0  0  0  0  0
    7.1735    3.1571    0.2986 C   0  0  0  0  0  0  0  0  0  0  0  0
  -10.8469    0.4094    0.1617 C   0  0  0  0  0  0  0  0  0  0  0  0
    0.4362    0.1423   -0.9607 H   0  0  0  0  0  0  0  0  0  0  0  0
   -1.5159   -1.4031    0.8088 H   0  0  0  0  0  0  0  0  0  0  0  0
    0.9667   -2.3684    0.6507 H   0  0  0  0  0  0  0  0  0  0  0  0
    2.2487    1.4956    0.2279 H   0  0  0  0  0  0  0  0  0  0  0  0
    2.3300    1.5017    1.9814 H   0  0  0  0  0  0  0  0  0  0  0  0
   -0.0604    2.3727    1.9757 H   0  0  0  0  0  0  0  0  0  0  0  0
    0.0090    2.3129    0.2221 H   0  0  0  0  0  0  0  0  0  0  0  0
    2.9038   -0.6798   -1.0242 H   0  0  0  0  0  0  0  0  0  0  0  0
   -1.9559    1.0033   -1.0286 H   0  0  0  0  0  0  0  0  0  0  0  0
    3.0003   -0.8178    2.0346 H   0  0  0  0  0  0  0  0  0  0  0  0
    4.0498    0.0947    0.9781 H   0  0  0  0  0  0  0  0  0  0  0  0
   -2.2969    2.3935    0.9181 H   0  0  0  0  0  0  0  0  0  0  0  0
   -2.1082    1.0490    2.0138 H   0  0  0  0  0  0  0  0  0  0  0  0
   -0.7147   -0.5309    2.6769 H   0  0  0  0  0  0  0  0  0  0  0  0
    0.6252    0.3751    3.3673 H   0  0  0  0  0  0  0  0  0  0  0  0
    0.9028   -1.1995    2.6239 H   0  0  0  0  0  0  0  0  0  0  0  0
    3.5094   -3.0764   -0.9523 H   0  0  0  0  0  0  0  0  0  0  0  0
   -1.3181   -1.2487   -2.2296 H   0  0  0  0  0  0  0  0  0  0  0  0
   -2.7622   -1.7918   -1.3682 H   0  0  0  0  0  0  0  0  0  0  0  0
   -1.2871   -2.6998   -1.1930 H   0  0  0  0  0  0  0  0  0  0  0  0
   -3.8158   -0.5722    0.6257 H   0  0  0  0  0  0  0  0  0  0  0  0
    1.2137   -1.7137   -2.1059 H   0  0  0  0  0  0  0  0  0  0  0  0
    2.3630   -3.7524    1.1572 H   0  0  0  0  0  0  0  0  0  0  0  0
    4.0561   -4.1545    1.1962 H   0  0  0  0  0  0  0  0  0  0  0  0
    3.5040   -2.7861    2.1218 H   0  0  0  0  0  0  0  0  0  0  0  0
    4.7046   -1.0859   -1.9163 H   0  0  0  0  0  0  0  0  0  0  0  0
    7.4788   -1.3545   -1.0372 H   0  0  0  0  0  0  0  0  0  0  0  0
    6.8679   -0.6271   -2.5219 H   0  0  0  0  0  0  0  0  0  0  0  0
   -6.7213    2.5675   -0.5731 H   0  0  0  0  0  0  0  0  0  0  0  0
   -5.4506   -1.5490   -0.1508 H   0  0  0  0  0  0  0  0  0  0  0  0
   -9.0046    1.9071   -0.2437 H   0  0  0  0  0  0  0  0  0  0  0  0
   -7.7651   -2.2207    0.2120 H   0  0  0  0  0  0  0  0  0  0  0  0
    5.6976    1.7010   -2.3543 H   0  0  0  0  0  0  0  0  0  0  0  0
    8.0721    0.0727    0.8371 H   0  0  0  0  0  0  0  0  0  0  0  0
    5.9787    3.9404   -1.3153 H   0  0  0  0  0  0  0  0  0  0  0  0
    7.3216    4.1147    0.7868 H   0  0  0  0  0  0  0  0  0  0  0  0
  -10.7099    1.1399    0.9663 H   0  0  0  0  0  0  0  0  0  0  0  0
  -10.8957    0.8827   -0.8248 H   0  0  0  0  0  0  0  0  0  0  0  0
  -11.8138   -0.0755    0.3316 H   0  0  0  0  0  0  0  0  0  0  0  0
  1 11  1  0  0  0  0
  1 58  1  0  0  0  0
  2 22  2  0  0  0  0
  3 23  2  0  0  0  0
  4 31  1  0  0  0  0
  4 36  1  0  0  0  0
  5 15  1  0  0  0  0
  5 23  1  0  0  0  0
  5 57  1  0  0  0  0
  6 22  1  0  0  0  0
  6 25  1  0  0  0  0
  6 62  1  0  0  0  0
  7 33  1  0  0  0  0
  7 35  2  0  0  0  0
  8  9  1  0  0  0  0
  8 12  1  0  0  0  0
  8 13  1  0  0  0  0
  8 18  1  0  0  0  0
  9 10  1  0  0  0  0
  9 11  1  0  0  0  0
  9 37  1  0  0  0  0
 10 15  1  0  0  0  0
 10 20  1  0  0  0  0
 10 38  1  0  0  0  0
 11 14  1  0  0  0  0
 11 39  1  0  0  0  0
 12 16  1  0  0  0  0
 12 40  1  0  0  0  0
 12 41  1  0  0  0  0
 13 17  1  0  0  0  0
 13 42  1  0  0  0  0
 13 43  1  0  0  0  0
 14 16  1  0  0  0  0
 14 19  1  0  0  0  0
 14 44  1  0  0  0  0
 15 17  1  0  0  0  0
 15 45  1  0  0  0  0
 16 46  1  0  0  0  0
 16 47  1  0  0  0  0
 17 48  1  0  0  0  0
 17 49  1  0  0  0  0
 18 50  1  0  0  0  0
 18 51  1  0  0  0  0
 18 52  1  0  0  0  0
 19 21  1  0  0  0  0
 19 22  1  0  0  0  0
 19 53  1  0  0  0  0
 20 54  1  0  0  0  0
 20 55  1  0  0  0  0
 20 56  1  0  0  0  0
 21 59  1  0  0  0  0
 21 60  1  0  0  0  0
 21 61  1  0  0  0  0
 23 24  1  0  0  0  0
 24 26  2  0  0  0  0
 24 27  1  0  0  0  0
 25 28  1  0  0  0  0
 25 63  1  0  0  0  0
 25 64  1  0  0  0  0
 26 29  1  0  0  0  0
 26 65  1  0  0  0  0
 27 30  2  0  0  0  0
 27 66  1  0  0  0  0
 28 32  1  0  0  0  0
 28 33  2  0  0  0  0
 29 31  2  0  0  0  0
 29 67  1  0  0  0  0
 30 31  1  0  0  0  0
 30 68  1  0  0  0  0
 32 34  2  0  0  0  0
 32 69  1  0  0  0  0
 33 70  1  0  0  0  0
 34 35  1  0  0  0  0
 34 71  1  0  0  0  0
 35 72  1  0  0  0  0
 36 73  1  0  0  0  0
 36 74  1  0  0  0  0
 36 75  1  0  0  0  0
M  END
> <PUBCHEM_COMPOUND_CID>
45361388

> <PUBCHEM_CONFORMER_RMSD>
1.2

> <PUBCHEM_CONFORMER_DIVERSEORDER>
1
44
33
18
104
49
47
27
65
8
36
16
37
106
71
101
86
15
23
70
89
96
105
62
2
45
56
76
100
52
3
39
50
97
55
66
87
84
61
67
107
34
32
41
68
5
46
102
79
72
90
99
43
60
93
13
10
85
74
58
6
59
28
48
80
92
91
21
42
57
31
9
29
19
78
77
98
73
103
63
51
95
75
35
26
88
17
82
94
40
7
12
4
54
11
30
83
81
53
14
69
20
22
64
38
25
24

> <PUBCHEM_MMFF94_PARTIAL_CHARGES>
36
1 -0.68
11 0.28
15 0.3
19 0.06
2 -0.57
22 0.57
23 0.54
24 0.09
25 0.44
26 -0.15
27 -0.15
28 -0.14
29 -0.15
3 -0.57
30 -0.15
31 0.08
32 -0.15
33 0.16
34 -0.15
35 0.16
36 0.28
4 -0.36
5 -0.73
57 0.37
58 0.4
6 -0.73
62 0.37
65 0.15
66 0.15
67 0.15
68 0.15
69 0.15
7 -0.62
70 0.15
71 0.15
72 0.15

> <PUBCHEM_EFFECTIVE_ROTOR_COUNT>
10.6

> <PUBCHEM_PHARMACOPHORE_FEATURES>
13
1 1 acceptor
1 1 donor
1 2 acceptor
1 21 hydrophobe
1 3 acceptor
1 4 acceptor
1 5 donor
1 6 donor
1 7 acceptor
6 24 26 27 29 30 31 rings
6 7 28 32 33 34 35 rings
6 8 9 10 13 15 17 rings
6 8 9 11 12 14 16 rings

> <PUBCHEM_HEAVY_ATOM_COUNT>
36

> <PUBCHEM_ATOM_DEF_STEREO_COUNT>
6

> <PUBCHEM_ATOM_UDEF_STEREO_COUNT>
1

> <PUBCHEM_BOND_DEF_STEREO_COUNT>
0

> <PUBCHEM_BOND_UDEF_STEREO_COUNT>
0

> <PUBCHEM_ISOTOPIC_ATOM_COUNT>
0

> <PUBCHEM_COMPONENT_COUNT>
1

> <PUBCHEM_CACTVS_TAUTO_COUNT>
4

> <PUBCHEM_CONFORMER_ID>
02B428EC00000001

> <PUBCHEM_MMFF94_ENERGY>
114.4996

> <PUBCHEM_FEATURE_SELFOVERLAP>
65.988

> <PUBCHEM_SHAPE_FINGERPRINT>
10391435 84 17603872230413535403
10533779 47 10807939301647410749
10673678 19 18412267233781127566
10677351 14 18413099564652955829
11007060 377 18334022678959895713
11211813 74 18411418418703796380
11409948 35 11311790444413677981
13165053 68 18117565243694341855
13617811 41 18342736334718304840
13947947 19 17775278396496736103
13947947 74 18408889520864370571
14142895 15 18335142028725165437
15301273 46 12967128306806272569
15347591 1 18191863423264843633
15361156 5 18413105083417081047
15840311 113 18408608054788792062
16120349 18 18335137600587470436
16728433 110 18334296475315990701
16992787 43 18202284735806015880
17686467 74 18040720269292990245
20105231 36 17417813916090369191
20554085 129 16225765224977939872
21049683 271 18343301470414271737
21150785 3 18333453131857462325
21267235 1 17917711258524913987
21591340 7 11963394068259744057
21781055 127 15338855170328470755
22149856 69 17417535691971241698
23522609 53 17773900639117234864
23569914 2 17027358662702614844
24893992 56 18334857226130092514
3178227 256 17846212229516584123
34797466 226 18131074810078685934
3552219 110 17917720084804605481
4073 2 18260550043817820179
4098825 35 18334574603748384141
4149490 64 18186799163128851378
45270241 37 18410017602504219574
4625314 4 18336829693048290358
474113 269 8862673403678813756
5265222 85 18412825807047297223
5470011 282 18411700954821824391

> <PUBCHEM_SHAPE_MULTIPOLES>
702.44
30.23
3
1.38
49.33
0.11
0.32
-11.49
-4.81
-6.88
-0.08
-1.52
0.02
-0.19

> <PUBCHEM_SHAPE_SELFOVERLAP>
1485.946

> <PUBCHEM_SHAPE_VOLUME>
388.8

> <PUBCHEM_COORDINATE_TYPE>
2
5
10

$$$$
