25314544
  -OEChem-12032416353D

 52 54  0     1  0  0  0  0  0999 V2000
    2.4480    0.8942   -1.6177 O   0  0  0  0  0  0  0  0  0  0  0  0
    4.3178    1.2636   -0.2968 O   0  0  0  0  0  0  0  0  0  0  0  0
    2.8713    0.9868    2.1695 O   0  0  0  0  0  0  0  0  0  0  0  0
   -6.1391   -0.2412   -0.7286 O   0  0  0  0  0  0  0  0  0  0  0  0
    1.9602   -1.5944   -0.2337 N   0  0  0  0  0  0  0  0  0  0  0  0
   -0.0026    1.2148   -0.0756 N   0  0  0  0  0  0  0  0  0  0  0  0
    2.8077   -0.5273    0.3002 C   0  0  2  0  0  0  0  0  0  0  0  0
    1.3284    1.6005    0.4053 C   0  0  1  0  0  0  0  0  0  0  0  0
    1.9832    0.4349    1.1864 C   0  0  2  0  0  0  0  0  0  0  0  0
    2.1706    2.0450   -0.8125 C   0  0  1  0  0  0  0  0  0  0  0  0
    3.4734    0.2434   -0.8551 C   0  0  1  0  0  0  0  0  0  0  0  0
    3.5817    2.4844   -0.4659 C   0  0  0  0  0  0  0  0  0  0  0  0
    1.3660   -2.3675    0.8557 C   0  0  0  0  0  0  0  0  0  0  0  0
    2.7332   -2.4656   -1.1176 C   0  0  0  0  0  0  0  0  0  0  0  0
   -0.9676    1.2514    1.0098 C   0  0  0  0  0  0  0  0  0  0  0  0
    0.4830   -3.4797    0.3290 C   0  0  0  0  0  0  0  0  0  0  0  0
    3.8914   -3.1114   -0.3855 C   0  0  0  0  0  0  0  0  0  0  0  0
   -2.3451    0.8550    0.5490 C   0  0  0  0  0  0  0  0  0  0  0  0
   -3.1229    1.7551   -0.1795 C   0  0  0  0  0  0  0  0  0  0  0  0
   -2.8424   -0.4131    0.8485 C   0  0  0  0  0  0  0  0  0  0  0  0
   -4.3981    1.3870   -0.6083 C   0  0  0  0  0  0  0  0  0  0  0  0
   -4.1176   -0.7814    0.4197 C   0  0  0  0  0  0  0  0  0  0  0  0
   -4.8954    0.1186   -0.3087 C   0  0  0  0  0  0  0  0  0  0  0  0
   -6.5851   -1.5530   -0.3873 C   0  0  0  0  0  0  0  0  0  0  0  0
    3.6019   -0.9271    0.9442 H   0  0  0  0  0  0  0  0  0  0  0  0
    1.2377    2.4829    1.0533 H   0  0  0  0  0  0  0  0  0  0  0  0
    1.2601   -0.0630    1.8222 H   0  0  0  0  0  0  0  0  0  0  0  0
    1.6456    2.8053   -1.4008 H   0  0  0  0  0  0  0  0  0  0  0  0
    4.1115   -0.3510   -1.5101 H   0  0  0  0  0  0  0  0  0  0  0  0
    4.0406    3.0209   -1.3035 H   0  0  0  0  0  0  0  0  0  0  0  0
    3.6495    3.1043    0.4320 H   0  0  0  0  0  0  0  0  0  0  0  0
    0.0378    0.2794   -0.4803 H   0  0  0  0  0  0  0  0  0  0  0  0
    2.0908   -2.7547    1.5801 H   0  0  0  0  0  0  0  0  0  0  0  0
    0.6603   -1.7613    1.4264 H   0  0  0  0  0  0  0  0  0  0  0  0
    2.0987   -3.2473   -1.5503 H   0  0  0  0  0  0  0  0  0  0  0  0
    3.0806   -1.9495   -2.0176 H   0  0  0  0  0  0  0  0  0  0  0  0
    2.3475    1.5642    2.7509 H   0  0  0  0  0  0  0  0  0  0  0  0
   -1.0338    2.2660    1.4252 H   0  0  0  0  0  0  0  0  0  0  0  0
   -0.6851    0.6040    1.8464 H   0  0  0  0  0  0  0  0  0  0  0  0
   -0.1920   -3.1277   -0.4591 H   0  0  0  0  0  0  0  0  0  0  0  0
    1.0569   -4.3324   -0.0466 H   0  0  0  0  0  0  0  0  0  0  0  0
   -0.1453   -3.8662    1.1402 H   0  0  0  0  0  0  0  0  0  0  0  0
    4.6635   -2.4040   -0.0712 H   0  0  0  0  0  0  0  0  0  0  0  0
    3.5950   -3.7223    0.4706 H   0  0  0  0  0  0  0  0  0  0  0  0
    4.3926   -3.8003   -1.0773 H   0  0  0  0  0  0  0  0  0  0  0  0
   -2.7463    2.7461   -0.4192 H   0  0  0  0  0  0  0  0  0  0  0  0
   -2.2448   -1.1254    1.4116 H   0  0  0  0  0  0  0  0  0  0  0  0
   -4.9993    2.0921   -1.1757 H   0  0  0  0  0  0  0  0  0  0  0  0
   -4.4412   -1.7819    0.6858 H   0  0  0  0  0  0  0  0  0  0  0  0
   -7.5929   -1.6690   -0.7994 H   0  0  0  0  0  0  0  0  0  0  0  0
   -6.6666   -1.6808    0.6974 H   0  0  0  0  0  0  0  0  0  0  0  0
   -5.9598   -2.3237   -0.8504 H   0  0  0  0  0  0  0  0  0  0  0  0
  1 10  1  0  0  0  0
  1 11  1  0  0  0  0
  2 11  1  0  0  0  0
  2 12  1  0  0  0  0
  3  9  1  0  0  0  0
  3 37  1  0  0  0  0
  4 23  1  0  0  0  0
  4 24  1  0  0  0  0
  5  7  1  0  0  0  0
  5 13  1  0  0  0  0
  5 14  1  0  0  0  0
  6  8  1  0  0  0  0
  6 15  1  0  0  0  0
  6 32  1  0  0  0  0
  7  9  1  0  0  0  0
  7 11  1  0  0  0  0
  7 25  1  0  0  0  0
  8  9  1  0  0  0  0
  8 10  1  0  0  0  0
  8 26  1  0  0  0  0
  9 27  1  0  0  0  0
 10 12  1  0  0  0  0
 10 28  1  0  0  0  0
 11 29  1  0  0  0  0
 12 30  1  0  0  0  0
 12 31  1  0  0  0  0
 13 16  1  0  0  0  0
 13 33  1  0  0  0  0
 13 34  1  0  0  0  0
 14 17  1  0  0  0  0
 14 35  1  0  0  0  0
 14 36  1  0  0  0  0
 15 18  1  0  0  0  0
 15 38  1  0  0  0  0
 15 39  1  0  0  0  0
 16 40  1  0  0  0  0
 16 41  1  0  0  0  0
 16 42  1  0  0  0  0
 17 43  1  0  0  0  0
 17 44  1  0  0  0  0
 17 45  1  0  0  0  0
 18 19  2  0  0  0  0
 18 20  1  0  0  0  0
 19 21  1  0  0  0  0
 19 46  1  0  0  0  0
 20 22  2  0  0  0  0
 20 47  1  0  0  0  0
 21 23  2  0  0  0  0
 21 48  1  0  0  0  0
 22 23  1  0  0  0  0
 22 49  1  0  0  0  0
 24 50  1  0  0  0  0
 24 51  1  0  0  0  0
 24 52  1  0  0  0  0
M  END
> <PUBCHEM_COMPOUND_CID>
25314544

> <PUBCHEM_CONFORMER_RMSD>
0.8

> <PUBCHEM_CONFORMER_DIVERSEORDER>
1
16
20
23
37
31
15
29
12
10
13
11
7
14
24
28
27
22
9
17
30
32
6
34
18
26
25
4
2
19
8
36
5
33
38
3
21
35

> <PUBCHEM_MMFF94_PARTIAL_CHARGES>
28
1 -0.56
10 0.28
11 0.56
12 0.28
13 0.27
14 0.27
15 0.41
18 -0.14
19 -0.15
2 -0.56
20 -0.15
21 -0.15
22 -0.15
23 0.08
24 0.28
3 -0.68
32 0.36
37 0.4
4 -0.36
46 0.15
47 0.15
48 0.15
49 0.15
5 -0.81
6 -0.9
7 0.27
8 0.27
9 0.28

> <PUBCHEM_EFFECTIVE_ROTOR_COUNT>
8.2

> <PUBCHEM_PHARMACOPHORE_FEATURES>
10
1 1 acceptor
1 2 acceptor
1 3 acceptor
1 3 donor
1 4 acceptor
1 5 cation
1 6 cation
1 6 donor
6 18 19 20 21 22 23 rings
8 1 2 7 8 9 10 11 12 rings

> <PUBCHEM_HEAVY_ATOM_COUNT>
24

> <PUBCHEM_ATOM_DEF_STEREO_COUNT>
5

> <PUBCHEM_ATOM_UDEF_STEREO_COUNT>
0

> <PUBCHEM_BOND_DEF_STEREO_COUNT>
0

> <PUBCHEM_BOND_UDEF_STEREO_COUNT>
0

> <PUBCHEM_ISOTOPIC_ATOM_COUNT>
0

> <PUBCHEM_COMPONENT_COUNT>
1

> <PUBCHEM_CACTVS_TAUTO_COUNT>
1

> <PUBCHEM_CONFORMER_ID>
018244F000000001

> <PUBCHEM_MMFF94_ENERGY>
79.2306

> <PUBCHEM_FEATURE_SELFOVERLAP>
50.795

> <PUBCHEM_SHAPE_FINGERPRINT>
10693767 8 18200325312419056470
11089746 13 9151180827154753617
11370993 70 18334017232535123341
12107183 9 17838064697883222665
12596602 18 16773517793595050451
12788726 201 17417543389254172089
13150687 139 18117856601707422652
13224815 77 18272653445971841081
13533116 47 18272369768098595451
13583140 156 17916283005716281125
13836976 161 18261115226731780788
14617045 38 18339929315954964827
14863182 85 18272364270218943618
15537594 2 18131069390004141967
17138139 8 17842822585307351447
17492 54 18044121011212400630
17492 89 18340487764439749255
17818456 19 17555177952479661841
18681886 176 18335137648312756128
20028762 73 18271242712519600726
20281475 54 18271529706618366273
20567600 347 18186799201181695955
20645477 70 18335137579228665257
20691752 17 17677343696781427393
21033648 29 13326579497909252091
21033650 10 16588872244096807013
21054139 6 18340763853057712549
21521239 73 18130523985060612516
21860390 5 16081379608248533932
22393880 68 18338240362350594653
235170 7 17748817498070128895
23559900 14 18265327318370342537
238 59 18337403685515253274
25222932 49 17844801676198639375
2871803 45 18411705391317331957
3004659 81 18334574599300039763
3060560 45 18260553350678503876
312423 11 18059583434200469137
338550 245 18409725196920090903
4280585 95 17904201425931972402
4340502 62 18271801380326713496
46194498 28 17894633677562660245
463206 1 18270956960013380111
484989 97 18263942062294953667
5281201 14 18261678077937825485
543358 83 18192716648519473369
58051976 378 18335988648304580977
59755656 215 18335708251839123286
960060 61 18411419510152529677
9709674 26 18334301954929083627

> <PUBCHEM_SHAPE_MULTIPOLES>
460.47
11.73
3.4
1.22
19.52
2.52
0.24
1.91
-3.07
-3.51
-0.34
-0.77
-0.18
0.11

> <PUBCHEM_SHAPE_SELFOVERLAP>
963.478

> <PUBCHEM_SHAPE_VOLUME>
260.2

> <PUBCHEM_COORDINATE_TYPE>
2
5
10

$$$$
