45783807
  -OEChem-12032416263D

 55 58  0     1  0  0  0  0  0999 V2000
    0.6702   -3.5476    0.9749 O   0  0  0  0  0  0  0  0  0  0  0  0
   -2.5523   -2.1278   -0.0762 N   0  0  1  0  0  0  0  0  0  0  0  0
    0.3882   -1.6156   -0.1226 N   0  0  0  0  0  0  0  0  0  0  0  0
    1.9028   -2.8848    1.0303 N   0  0  0  0  0  0  0  0  0  0  0  0
    4.9246    0.0139    0.5018 N   0  0  0  0  0  0  0  0  0  0  0  0
    5.6013    2.1213   -0.3793 N   0  0  0  0  0  0  0  0  0  0  0  0
   -1.5809   -3.2291    0.0781 C   0  0  1  0  0  0  0  0  0  0  0  0
   -1.7395   -4.0724   -1.2005 C   0  0  0  0  0  0  0  0  0  0  0  0
   -3.6307   -2.6430   -0.9199 C   0  0  0  0  0  0  0  0  0  0  0  0
   -2.8621   -3.4039   -1.9813 C   0  0  0  0  0  0  0  0  0  0  0  0
   -3.0476   -1.6165    1.1953 C   0  0  0  0  0  0  0  0  0  0  0  0
   -0.1645   -2.7323    0.2787 C   0  0  0  0  0  0  0  0  0  0  0  0
   -3.6514   -0.2255    1.0088 C   0  0  0  0  0  0  0  0  0  0  0  0
   -2.6051    0.7645    0.4902 C   0  0  0  0  0  0  0  0  0  0  0  0
   -3.1953    2.1332    0.2655 C   0  0  0  0  0  0  0  0  0  0  0  0
    1.6563   -1.7542    0.3619 C   0  0  0  0  0  0  0  0  0  0  0  0
    2.6547   -0.7443    0.1591 C   0  0  0  0  0  0  0  0  0  0  0  0
   -3.7429    2.4618   -0.9745 C   0  0  0  0  0  0  0  0  0  0  0  0
   -3.1936    3.0711    1.2978 C   0  0  0  0  0  0  0  0  0  0  0  0
   -4.2889    3.7286   -1.1823 C   0  0  0  0  0  0  0  0  0  0  0  0
   -3.7396    4.3378    1.0902 C   0  0  0  0  0  0  0  0  0  0  0  0
    2.3639    0.4200   -0.5431 C   0  0  0  0  0  0  0  0  0  0  0  0
    3.9386   -0.8979    0.6570 C   0  0  0  0  0  0  0  0  0  0  0  0
   -4.2872    4.6666   -0.1499 C   0  0  0  0  0  0  0  0  0  0  0  0
    3.3522    1.3816   -0.7235 C   0  0  0  0  0  0  0  0  0  0  0  0
    4.6049    1.1328   -0.1862 C   0  0  0  0  0  0  0  0  0  0  0  0
    6.9293    1.9311    0.1611 C   0  0  0  0  0  0  0  0  0  0  0  0
    5.2946    3.3302   -1.1113 C   0  0  0  0  0  0  0  0  0  0  0  0
   -1.8542   -3.8610    0.9350 H   0  0  0  0  0  0  0  0  0  0  0  0
   -0.8284   -4.1348   -1.8055 H   0  0  0  0  0  0  0  0  0  0  0  0
   -2.0362   -5.0940   -0.9333 H   0  0  0  0  0  0  0  0  0  0  0  0
   -4.2929   -3.3262   -0.3732 H   0  0  0  0  0  0  0  0  0  0  0  0
   -4.2324   -1.8466   -1.3681 H   0  0  0  0  0  0  0  0  0  0  0  0
   -3.4854   -4.1292   -2.5125 H   0  0  0  0  0  0  0  0  0  0  0  0
   -2.4407   -2.7104   -2.7197 H   0  0  0  0  0  0  0  0  0  0  0  0
   -3.7823   -2.2929    1.6497 H   0  0  0  0  0  0  0  0  0  0  0  0
   -2.2239   -1.5260    1.9155 H   0  0  0  0  0  0  0  0  0  0  0  0
   -4.5152   -0.2632    0.3340 H   0  0  0  0  0  0  0  0  0  0  0  0
   -4.0368    0.1220    1.9759 H   0  0  0  0  0  0  0  0  0  0  0  0
   -1.7703    0.8378    1.1994 H   0  0  0  0  0  0  0  0  0  0  0  0
   -2.1636    0.4199   -0.4531 H   0  0  0  0  0  0  0  0  0  0  0  0
   -3.7519    1.7388   -1.7859 H   0  0  0  0  0  0  0  0  0  0  0  0
   -2.7714    2.8262    2.2688 H   0  0  0  0  0  0  0  0  0  0  0  0
   -4.7158    3.9844   -2.1476 H   0  0  0  0  0  0  0  0  0  0  0  0
   -3.7387    5.0681    1.8941 H   0  0  0  0  0  0  0  0  0  0  0  0
    1.3767    0.6040   -0.9594 H   0  0  0  0  0  0  0  0  0  0  0  0
    4.2466   -1.7766    1.2159 H   0  0  0  0  0  0  0  0  0  0  0  0
   -4.7124    5.6528   -0.3115 H   0  0  0  0  0  0  0  0  0  0  0  0
    3.0835    2.2736   -1.2762 H   0  0  0  0  0  0  0  0  0  0  0  0
    7.5925    2.7720   -0.0680 H   0  0  0  0  0  0  0  0  0  0  0  0
    7.3925    1.0305   -0.2568 H   0  0  0  0  0  0  0  0  0  0  0  0
    6.8935    1.8343    1.2518 H   0  0  0  0  0  0  0  0  0  0  0  0
    6.1669    3.9910   -1.1758 H   0  0  0  0  0  0  0  0  0  0  0  0
    4.5085    3.9110   -0.6157 H   0  0  0  0  0  0  0  0  0  0  0  0
    5.0024    3.1107   -2.1445 H   0  0  0  0  0  0  0  0  0  0  0  0
  1  4  1  0  0  0  0
  1 12  1  0  0  0  0
  2  7  1  0  0  0  0
  2  9  1  0  0  0  0
  2 11  1  0  0  0  0
  3 12  2  0  0  0  0
  3 16  1  0  0  0  0
  4 16  2  0  0  0  0
  5 23  1  0  0  0  0
  5 26  2  0  0  0  0
  6 26  1  0  0  0  0
  6 27  1  0  0  0  0
  6 28  1  0  0  0  0
  7  8  1  0  0  0  0
  7 12  1  0  0  0  0
  7 29  1  0  0  0  0
  8 10  1  0  0  0  0
  8 30  1  0  0  0  0
  8 31  1  0  0  0  0
  9 10  1  0  0  0  0
  9 32  1  0  0  0  0
  9 33  1  0  0  0  0
 10 34  1  0  0  0  0
 10 35  1  0  0  0  0
 11 13  1  0  0  0  0
 11 36  1  0  0  0  0
 11 37  1  0  0  0  0
 13 14  1  0  0  0  0
 13 38  1  0  0  0  0
 13 39  1  0  0  0  0
 14 15  1  0  0  0  0
 14 40  1  0  0  0  0
 14 41  1  0  0  0  0
 15 18  2  0  0  0  0
 15 19  1  0  0  0  0
 16 17  1  0  0  0  0
 17 22  1  0  0  0  0
 17 23  2  0  0  0  0
 18 20  1  0  0  0  0
 18 42  1  0  0  0  0
 19 21  2  0  0  0  0
 19 43  1  0  0  0  0
 20 24  2  0  0  0  0
 20 44  1  0  0  0  0
 21 24  1  0  0  0  0
 21 45  1  0  0  0  0
 22 25  2  0  0  0  0
 22 46  1  0  0  0  0
 23 47  1  0  0  0  0
 24 48  1  0  0  0  0
 25 26  1  0  0  0  0
 25 49  1  0  0  0  0
 27 50  1  0  0  0  0
 27 51  1  0  0  0  0
 27 52  1  0  0  0  0
 28 53  1  0  0  0  0
 28 54  1  0  0  0  0
 28 55  1  0  0  0  0
M  END
> <PUBCHEM_COMPOUND_CID>
45783807

> <PUBCHEM_CONFORMER_RMSD>
1

> <PUBCHEM_CONFORMER_DIVERSEORDER>
1
8
46
37
56
71
72
82
48
68
20
41
9
47
3
61
30
51
14
59
16
4
77
74
49
24
28
45
53
86
26
60
29
43
85
63
23
64
80
79
75
22
31
17
84
25
83
19
62
39
70
33
69
34
44
87
88
73
52
35
13
7
36
2
81
11
42
40
58
27
76
10
21
54
66
12
15
18
78
55
57
67
32
5
38
65
50
6

> <PUBCHEM_MMFF94_PARTIAL_CHARGES>
33
1 -0.02
11 0.27
12 0.3
14 0.14
15 -0.14
16 0.46
17 0.05
18 -0.15
19 -0.15
2 -0.81
20 -0.15
21 -0.15
22 -0.15
23 0.16
24 -0.15
25 -0.15
26 0.41
27 0.37
28 0.37
3 -0.57
4 -0.41
42 0.15
43 0.15
44 0.15
45 0.15
46 0.15
47 0.15
48 0.15
49 0.15
5 -0.62
6 -0.84
7 0.45
9 0.27

> <PUBCHEM_EFFECTIVE_ROTOR_COUNT>
8

> <PUBCHEM_PHARMACOPHORE_FEATURES>
7
1 2 cation
3 3 4 16 cation
3 5 6 26 cation
5 1 3 4 12 16 rings
5 2 7 8 9 10 rings
6 15 18 19 20 21 24 rings
6 5 17 22 23 25 26 rings

> <PUBCHEM_HEAVY_ATOM_COUNT>
28

> <PUBCHEM_ATOM_DEF_STEREO_COUNT>
1

> <PUBCHEM_ATOM_UDEF_STEREO_COUNT>
0

> <PUBCHEM_BOND_DEF_STEREO_COUNT>
0

> <PUBCHEM_BOND_UDEF_STEREO_COUNT>
0

> <PUBCHEM_ISOTOPIC_ATOM_COUNT>
0

> <PUBCHEM_COMPONENT_COUNT>
1

> <PUBCHEM_CACTVS_TAUTO_COUNT>
1

> <PUBCHEM_CONFORMER_ID>
02BA9AFF00000001

> <PUBCHEM_MMFF94_ENERGY>
67.355

> <PUBCHEM_FEATURE_SELFOVERLAP>
35.524

> <PUBCHEM_SHAPE_FINGERPRINT>
10087517 78 18124596633464887352
10670039 82 18267867366603667722
10838868 217 17685470084765954168
10871710 139 18339361980555292567
10937287 8 18339642218285613571
10951579 204 18267043772883049100
11059845 2 18194654057286008304
11477941 20 17769646830671543558
11478447 147 17105066436648307501
12107183 9 18191012423167140962
12788726 201 18265604554061598251
13761468 95 17985859027505186024
14251764 75 18196379121783737625
14289585 56 15895017464667585879
14394314 77 18122352534828075473
14790565 3 18334582377992286384
15064981 113 17988918973203982822
15320295 44 17909810069769531437
155225 5 18338521962214575296
15961568 22 17406539781446369792
21033648 144 17972033635623244293
21033650 10 18194143982585419894
21860390 5 17261029927548182655
22907989 373 18270666624582324639
23516275 100 17334485502886830992
23576562 1 17910954639345672543
23929065 36 18127108987543593912
245318 6 18117014190478616229
376196 1 17974288725413150025
4487111 67 18338517542434648160
474 4 17619623584884502603
4756261 7 18051728631112605817
5252454 2 18272657822517019307
53794403 172 17979923705288871661
550186 7 18129393755251651158
6036956 94 18189341341191363893
653340 110 18339353197247082024
6608658 132 18053383481278589302
7808743 9 18412830213271669282
9980921 221 18193016991973656220

> <PUBCHEM_SHAPE_MULTIPOLES>
545.45
13.08
7.29
1.31
19.25
1.65
-0.22
16.14
-1.13
-9.2
-1.24
-1.06
-0.26
-2.39

> <PUBCHEM_SHAPE_SELFOVERLAP>
1165.071

> <PUBCHEM_SHAPE_VOLUME>
304.8

> <PUBCHEM_COORDINATE_TYPE>
2
5
10

$$$$
