11942591
  -OEChem-12032416153D

 65 68  0     1  0  0  0  0  0999 V2000
    4.3725   -1.0415    1.6055 O   0  0  0  0  0  0  0  0  0  0  0  0
    3.1890    2.1317   -1.1309 N   0  0  2  0  0  0  0  0  0  0  0  0
    0.1408   -0.0871   -0.7546 N   0  0  0  0  0  0  0  0  0  0  0  0
    6.0078   -0.9986   -0.0508 N   0  0  0  0  0  0  0  0  0  0  0  0
    0.1520   -1.0910    0.1274 N   0  0  0  0  0  0  0  0  0  0  0  0
   -1.1120   -1.3160    0.4686 N   0  0  0  0  0  0  0  0  0  0  0  0
    3.7051    1.5973    1.3631 C   0  0  2  0  0  0  0  0  0  0  0  0
    4.7753    0.9974    0.4311 C   0  0  2  0  0  0  0  0  0  0  0  0
    1.9949    1.5248   -0.4844 C   0  0  2  0  0  0  0  0  0  0  0  0
    2.3207    1.0580    0.9513 C   0  0  0  0  0  0  0  0  0  0  0  0
    3.6983    3.1160    1.1118 C   0  0  0  0  0  0  0  0  0  0  0  0
    4.3502    1.2132   -1.0322 C   0  0  0  0  0  0  0  0  0  0  0  0
    3.5212    3.3777   -0.3956 C   0  0  0  0  0  0  0  0  0  0  0  0
    1.3866    0.3992   -1.3239 C   0  0  0  0  0  0  0  0  0  0  0  0
    5.0077   -0.4521    0.7351 C   0  0  0  0  0  0  0  0  0  0  0  0
    6.4393   -2.3731    0.0618 C   0  0  0  0  0  0  0  0  0  0  0  0
   -1.1084    0.3648   -1.0107 C   0  0  0  0  0  0  0  0  0  0  0  0
   -1.8966   -0.4329   -0.2198 C   0  0  0  0  0  0  0  0  0  0  0  0
    7.9205   -2.4920   -0.2724 C   0  0  0  0  0  0  0  0  0  0  0  0
    5.5972   -3.2729   -0.8341 C   0  0  0  0  0  0  0  0  0  0  0  0
   -3.3193   -0.3620   -0.1217 C   0  0  0  0  0  0  0  0  0  0  0  0
   -7.5928   -0.1496    0.1726 C   0  0  0  0  0  0  0  0  0  0  0  0
   -4.0646   -1.5105    0.1657 C   0  0  0  0  0  0  0  0  0  0  0  0
   -3.9797    0.8563   -0.3119 C   0  0  0  0  0  0  0  0  0  0  0  0
   -6.1070   -0.2234    0.0707 C   0  0  0  0  0  0  0  0  0  0  0  0
   -5.4546   -1.4414    0.2615 C   0  0  0  0  0  0  0  0  0  0  0  0
   -5.3696    0.9254   -0.2160 C   0  0  0  0  0  0  0  0  0  0  0  0
   -8.2278    0.3452   -1.1640 C   0  0  0  0  0  0  0  0  0  0  0  0
   -8.0350    0.8378    1.2970 C   0  0  0  0  0  0  0  0  0  0  0  0
   -8.3115   -1.5008    0.4995 C   0  0  0  0  0  0  0  0  0  0  0  0
    3.9067    1.3830    2.4183 H   0  0  0  0  0  0  0  0  0  0  0  0
    5.7267    1.5174    0.6130 H   0  0  0  0  0  0  0  0  0  0  0  0
    1.2251    2.3079   -0.4157 H   0  0  0  0  0  0  0  0  0  0  0  0
    1.5599    1.4470    1.6401 H   0  0  0  0  0  0  0  0  0  0  0  0
    2.3011   -0.0293    1.0451 H   0  0  0  0  0  0  0  0  0  0  0  0
    2.8827    3.5857    1.6747 H   0  0  0  0  0  0  0  0  0  0  0  0
    4.6358    3.5652    1.4599 H   0  0  0  0  0  0  0  0  0  0  0  0
    5.1893    1.6495   -1.5905 H   0  0  0  0  0  0  0  0  0  0  0  0
    4.1302    0.2728   -1.5499 H   0  0  0  0  0  0  0  0  0  0  0  0
    2.7347    4.1260   -0.5541 H   0  0  0  0  0  0  0  0  0  0  0  0
    4.4347    3.8211   -0.8119 H   0  0  0  0  0  0  0  0  0  0  0  0
    2.0522   -0.4664   -1.4162 H   0  0  0  0  0  0  0  0  0  0  0  0
    1.1593    0.7496   -2.3380 H   0  0  0  0  0  0  0  0  0  0  0  0
    6.4400   -0.4255   -0.7699 H   0  0  0  0  0  0  0  0  0  0  0  0
    6.2922   -2.6902    1.1014 H   0  0  0  0  0  0  0  0  0  0  0  0
   -1.3143    1.1705   -1.7020 H   0  0  0  0  0  0  0  0  0  0  0  0
    8.2670   -3.5240   -0.1547 H   0  0  0  0  0  0  0  0  0  0  0  0
    8.1230   -2.1795   -1.3030 H   0  0  0  0  0  0  0  0  0  0  0  0
    8.5198   -1.8559    0.3883 H   0  0  0  0  0  0  0  0  0  0  0  0
    4.5362   -3.2068   -0.5691 H   0  0  0  0  0  0  0  0  0  0  0  0
    5.9045   -4.3194   -0.7384 H   0  0  0  0  0  0  0  0  0  0  0  0
    5.6909   -2.9837   -1.8869 H   0  0  0  0  0  0  0  0  0  0  0  0
   -3.5775   -2.4715    0.3149 H   0  0  0  0  0  0  0  0  0  0  0  0
   -3.4347    1.7725   -0.5261 H   0  0  0  0  0  0  0  0  0  0  0  0
   -5.9782   -2.3642    0.4855 H   0  0  0  0  0  0  0  0  0  0  0  0
   -5.8521    1.8869   -0.3670 H   0  0  0  0  0  0  0  0  0  0  0  0
   -7.9560   -0.3186   -1.9932 H   0  0  0  0  0  0  0  0  0  0  0  0
   -7.8942    1.3552   -1.4262 H   0  0  0  0  0  0  0  0  0  0  0  0
   -9.3218    0.3728   -1.0996 H   0  0  0  0  0  0  0  0  0  0  0  0
   -9.1266    0.8710    1.3921 H   0  0  0  0  0  0  0  0  0  0  0  0
   -7.6969    1.8609    1.0995 H   0  0  0  0  0  0  0  0  0  0  0  0
   -7.6217    0.5342    2.2661 H   0  0  0  0  0  0  0  0  0  0  0  0
   -9.3985   -1.3657    0.5583 H   0  0  0  0  0  0  0  0  0  0  0  0
   -8.1241   -2.2533   -0.2753 H   0  0  0  0  0  0  0  0  0  0  0  0
   -7.9866   -1.9052    1.4652 H   0  0  0  0  0  0  0  0  0  0  0  0
  1 15  2  0  0  0  0
  2  9  1  0  0  0  0
  2 12  1  0  0  0  0
  2 13  1  0  0  0  0
  3  5  1  0  0  0  0
  3 14  1  0  0  0  0
  3 17  1  0  0  0  0
  4 15  1  0  0  0  0
  4 16  1  0  0  0  0
  4 44  1  0  0  0  0
  5  6  2  0  0  0  0
  6 18  1  0  0  0  0
  7  8  1  0  0  0  0
  7 10  1  0  0  0  0
  7 11  1  0  0  0  0
  7 31  1  0  0  0  0
  8 12  1  0  0  0  0
  8 15  1  0  0  0  0
  8 32  1  0  0  0  0
  9 10  1  0  0  0  0
  9 14  1  0  0  0  0
  9 33  1  0  0  0  0
 10 34  1  0  0  0  0
 10 35  1  0  0  0  0
 11 13  1  0  0  0  0
 11 36  1  0  0  0  0
 11 37  1  0  0  0  0
 12 38  1  0  0  0  0
 12 39  1  0  0  0  0
 13 40  1  0  0  0  0
 13 41  1  0  0  0  0
 14 42  1  0  0  0  0
 14 43  1  0  0  0  0
 16 19  1  0  0  0  0
 16 20  1  0  0  0  0
 16 45  1  0  0  0  0
 17 18  2  0  0  0  0
 17 46  1  0  0  0  0
 18 21  1  0  0  0  0
 19 47  1  0  0  0  0
 19 48  1  0  0  0  0
 19 49  1  0  0  0  0
 20 50  1  0  0  0  0
 20 51  1  0  0  0  0
 20 52  1  0  0  0  0
 21 23  2  0  0  0  0
 21 24  1  0  0  0  0
 22 25  1  0  0  0  0
 22 28  1  0  0  0  0
 22 29  1  0  0  0  0
 22 30  1  0  0  0  0
 23 26  1  0  0  0  0
 23 53  1  0  0  0  0
 24 27  2  0  0  0  0
 24 54  1  0  0  0  0
 25 26  2  0  0  0  0
 25 27  1  0  0  0  0
 26 55  1  0  0  0  0
 27 56  1  0  0  0  0
 28 57  1  0  0  0  0
 28 58  1  0  0  0  0
 28 59  1  0  0  0  0
 29 60  1  0  0  0  0
 29 61  1  0  0  0  0
 29 62  1  0  0  0  0
 30 63  1  0  0  0  0
 30 64  1  0  0  0  0
 30 65  1  0  0  0  0
M  END
> <PUBCHEM_COMPOUND_CID>
11942591

> <PUBCHEM_CONFORMER_RMSD>
1

> <PUBCHEM_CONFORMER_DIVERSEORDER>
1
18
22
11
19
2
6
7
24
9
8
17
3
21
5
15
12
14
16
10
20
23
13
4

> <PUBCHEM_MMFF94_PARTIAL_CHARGES>
28
1 -0.57
12 0.27
13 0.27
14 0.26
15 0.57
16 0.3
17 -0.3
18 0.17
2 -0.81
21 0.05
22 0.14
23 -0.15
24 -0.15
25 -0.14
26 -0.15
27 -0.15
3 0.31
4 -0.73
44 0.37
46 0.15
5 -0.42
53 0.15
54 0.15
55 0.15
56 0.15
6 -0.23
8 0.06
9 0.27

> <PUBCHEM_EFFECTIVE_ROTOR_COUNT>
8.2

> <PUBCHEM_PHARMACOPHORE_FEATURES>
8
1 1 acceptor
1 2 cation
1 4 donor
3 16 19 20 hydrophobe
4 22 28 29 30 hydrophobe
5 3 5 6 17 18 rings
6 21 23 24 25 26 27 rings
8 2 7 8 9 10 11 12 13 rings

> <PUBCHEM_HEAVY_ATOM_COUNT>
30

> <PUBCHEM_ATOM_DEF_STEREO_COUNT>
3

> <PUBCHEM_ATOM_UDEF_STEREO_COUNT>
0

> <PUBCHEM_BOND_DEF_STEREO_COUNT>
0

> <PUBCHEM_BOND_UDEF_STEREO_COUNT>
0

> <PUBCHEM_ISOTOPIC_ATOM_COUNT>
0

> <PUBCHEM_COMPONENT_COUNT>
1

> <PUBCHEM_CACTVS_TAUTO_COUNT>
2

> <PUBCHEM_CONFORMER_ID>
00B63ABF00000001

> <PUBCHEM_MMFF94_ENERGY>
77.7087

> <PUBCHEM_FEATURE_SELFOVERLAP>
40.596

> <PUBCHEM_SHAPE_FINGERPRINT>
10 15 17822576118543768453
10554248 39 18335692897310039173
10666366 153 17822004281944238303
10692045 39 18410295800568283603
11007060 377 11455897988301770031
11211813 74 9655580695407163803
11456790 92 18060146427404140633
11638347 137 18409733980745246619
117089 54 18053951650229984262
11719270 70 17847064380649751207
11761917 87 18264504918049069923
12166972 35 18342457040956849624
12516196 113 10953731214811277207
12592606 108 18410856542592328526
12717326 120 16806753835274776163
13533116 47 18411980286773384360
13617811 41 15647054850351266870
13673619 4 18113335276554244580
14142895 15 9222932773828727651
14347424 109 18272929445007804360
14675020 138 14836405817886102212
15183329 4 16917358064718879425
15301273 46 17240479204789505687
15419008 47 17967808314984270805
19301679 30 17916027842273442734
20105231 36 17240489091751935307
20281389 69 18408603699913850057
20501277 279 18130780184908880906
20554085 129 14549015459733145303
20771845 65 18272368647566364408
21130935 74 18339644555154336067
21150785 3 11674882195308240779
21315759 40 17775282772941666603
21859007 373 17604695670185856309
22899556 56 15624260742152568802
23081809 10 18201435947869171029
23389318 12 8286192809227389401
23559900 14 18114466750932959462
23569917 315 18334302002728852707
249057 25 17775576333777091705
249057 3 18342455928734581398
2838139 119 18131345320220569877
4073 2 17751081520717127672
4144715 1 18259989305555992417
46194498 28 17748827436956897748
4625314 4 18411134745795522095
57634706 280 10879698880514790326
6327066 14 9078244762466572722
9831232 110 18408043991854109838
9962374 69 18412255164564608830

> <PUBCHEM_SHAPE_MULTIPOLES>
586.61
25.36
3.03
1.19
31.47
0.24
-0.06
-11.16
-2.36
-7.79
0.03
-0.39
0.34
0.76

> <PUBCHEM_SHAPE_SELFOVERLAP>
1246.464

> <PUBCHEM_SHAPE_VOLUME>
327.5

> <PUBCHEM_COORDINATE_TYPE>
2
5
10

$$$$
