75537019
  -OEChem-12032416313D

 50 53  0     1  0  0  0  0  0999 V2000
   -3.1680   -1.5782    1.0216 S   0  0  0  0  0  0  0  0  0  0  0  0
   -4.5297    3.8139   -0.9313 F   0  0  0  0  0  0  0  0  0  0  0  0
    2.4600   -0.9322   -2.5391 O   0  0  0  0  0  0  0  0  0  0  0  0
   -3.0713   -1.5162    2.4637 O   0  0  0  0  0  0  0  0  0  0  0  0
   -4.0496   -2.5240    0.3724 O   0  0  0  0  0  0  0  0  0  0  0  0
    2.7784   -0.4018   -0.2638 N   0  0  0  0  0  0  0  0  0  0  0  0
    0.9018   -1.4791   -0.8680 N   0  0  0  0  0  0  0  0  0  0  0  0
   -1.5942   -1.7445    0.3635 N   0  0  2  0  0  0  0  0  0  0  0  0
    0.8349   -1.4163    0.5795 C   0  0  1  0  0  0  0  0  0  0  0  0
    4.0392    0.2983   -0.3103 C   0  0  0  0  0  0  0  0  0  0  0  0
    2.0008   -0.5056    0.9584 C   0  0  0  0  0  0  0  0  0  0  0  0
   -0.5336   -0.9156    1.0281 C   0  0  0  0  0  0  0  0  0  0  0  0
    5.1015   -0.4558    0.4931 C   0  0  0  0  0  0  0  0  0  0  0  0
    3.8793    1.7364    0.1899 C   0  0  0  0  0  0  0  0  0  0  0  0
    2.0939   -0.9403   -1.3712 C   0  0  0  0  0  0  0  0  0  0  0  0
   -0.1510   -2.1492   -1.6061 C   0  0  0  0  0  0  0  0  0  0  0  0
   -1.5150   -1.6569   -1.1331 C   0  0  0  0  0  0  0  0  0  0  0  0
    6.4331    0.2904    0.5049 C   0  0  0  0  0  0  0  0  0  0  0  0
    5.2126    2.4795    0.2004 C   0  0  0  0  0  0  0  0  0  0  0  0
    6.2707    1.7247    1.0001 C   0  0  0  0  0  0  0  0  0  0  0  0
   -3.5766    0.0362    0.4366 C   0  0  0  0  0  0  0  0  0  0  0  0
   -4.2082    0.1921   -0.7973 C   0  0  0  0  0  0  0  0  0  0  0  0
   -3.2673    1.1562    1.2084 C   0  0  0  0  0  0  0  0  0  0  0  0
   -4.5306    1.4681   -1.2593 C   0  0  0  0  0  0  0  0  0  0  0  0
   -3.5897    2.4321    0.7462 C   0  0  0  0  0  0  0  0  0  0  0  0
   -4.2215    2.5881   -0.4875 C   0  0  0  0  0  0  0  0  0  0  0  0
    1.0102   -2.4350    0.9485 H   0  0  0  0  0  0  0  0  0  0  0  0
    4.3642    0.3320   -1.3582 H   0  0  0  0  0  0  0  0  0  0  0  0
    1.6536    0.4906    1.2484 H   0  0  0  0  0  0  0  0  0  0  0  0
    2.5938   -0.9366    1.7689 H   0  0  0  0  0  0  0  0  0  0  0  0
   -0.6023   -0.9983    2.1171 H   0  0  0  0  0  0  0  0  0  0  0  0
   -0.6623    0.1348    0.7446 H   0  0  0  0  0  0  0  0  0  0  0  0
    4.7773   -0.5978    1.5311 H   0  0  0  0  0  0  0  0  0  0  0  0
    5.2467   -1.4591    0.0742 H   0  0  0  0  0  0  0  0  0  0  0  0
    3.1610    2.2766   -0.4387 H   0  0  0  0  0  0  0  0  0  0  0  0
    3.4775    1.7531    1.2103 H   0  0  0  0  0  0  0  0  0  0  0  0
   -0.0432   -3.2230   -1.4150 H   0  0  0  0  0  0  0  0  0  0  0  0
   -0.0167   -1.9790   -2.6788 H   0  0  0  0  0  0  0  0  0  0  0  0
   -1.6398   -0.6169   -1.4522 H   0  0  0  0  0  0  0  0  0  0  0  0
   -2.2935   -2.2712   -1.5957 H   0  0  0  0  0  0  0  0  0  0  0  0
    6.8542    0.2998   -0.5080 H   0  0  0  0  0  0  0  0  0  0  0  0
    7.1484   -0.2412    1.1426 H   0  0  0  0  0  0  0  0  0  0  0  0
    5.0742    3.4803    0.6247 H   0  0  0  0  0  0  0  0  0  0  0  0
    5.5622    2.6153   -0.8305 H   0  0  0  0  0  0  0  0  0  0  0  0
    7.2299    2.2498    0.9303 H   0  0  0  0  0  0  0  0  0  0  0  0
    5.9881    1.7145    2.0601 H   0  0  0  0  0  0  0  0  0  0  0  0
   -4.4578   -0.6650   -1.4161 H   0  0  0  0  0  0  0  0  0  0  0  0
   -2.7728    1.0591    2.1707 H   0  0  0  0  0  0  0  0  0  0  0  0
   -5.0218    1.5901   -2.2201 H   0  0  0  0  0  0  0  0  0  0  0  0
   -3.3481    3.3045    1.3462 H   0  0  0  0  0  0  0  0  0  0  0  0
  1  4  2  0  0  0  0
  1  5  2  0  0  0  0
  1  8  1  0  0  0  0
  1 21  1  0  0  0  0
  2 26  1  0  0  0  0
  3 15  2  0  0  0  0
  6 10  1  0  0  0  0
  6 11  1  0  0  0  0
  6 15  1  0  0  0  0
  7  9  1  0  0  0  0
  7 15  1  0  0  0  0
  7 16  1  0  0  0  0
  8 12  1  0  0  0  0
  8 17  1  0  0  0  0
  9 11  1  0  0  0  0
  9 12  1  0  0  0  0
  9 27  1  0  0  0  0
 10 13  1  0  0  0  0
 10 14  1  0  0  0  0
 10 28  1  0  0  0  0
 11 29  1  0  0  0  0
 11 30  1  0  0  0  0
 12 31  1  0  0  0  0
 12 32  1  0  0  0  0
 13 18  1  0  0  0  0
 13 33  1  0  0  0  0
 13 34  1  0  0  0  0
 14 19  1  0  0  0  0
 14 35  1  0  0  0  0
 14 36  1  0  0  0  0
 16 17  1  0  0  0  0
 16 37  1  0  0  0  0
 16 38  1  0  0  0  0
 17 39  1  0  0  0  0
 17 40  1  0  0  0  0
 18 20  1  0  0  0  0
 18 41  1  0  0  0  0
 18 42  1  0  0  0  0
 19 20  1  0  0  0  0
 19 43  1  0  0  0  0
 19 44  1  0  0  0  0
 20 45  1  0  0  0  0
 20 46  1  0  0  0  0
 21 22  2  0  0  0  0
 21 23  1  0  0  0  0
 22 24  1  0  0  0  0
 22 47  1  0  0  0  0
 23 25  2  0  0  0  0
 23 48  1  0  0  0  0
 24 26  2  0  0  0  0
 24 49  1  0  0  0  0
 25 26  1  0  0  0  0
 25 50  1  0  0  0  0
M  END
> <PUBCHEM_COMPOUND_CID>
75537019

> <PUBCHEM_CONFORMER_RMSD>
0.8

> <PUBCHEM_CONFORMER_DIVERSEORDER>
1
6
42
29
13
53
37
47
11
3
40
34
44
10
22
9
54
5
55
16
49
23
14
21
48
28
25
18
36
12
52
46
33
50
26
56
20
39
30
35
38
17
7
19
45
51
31
41
4
24
27
15
8
32
43
2

> <PUBCHEM_MMFF94_PARTIAL_CHARGES>
25
1 1.45
10 0.3
11 0.3
12 0.36
15 0.69
16 0.3
17 0.36
2 -0.19
21 -0.01
22 -0.15
23 -0.15
24 -0.15
25 -0.15
26 0.19
3 -0.57
4 -0.65
47 0.15
48 0.15
49 0.15
5 -0.65
50 0.15
6 -0.66
7 -0.66
8 -0.85
9 0.3

> <PUBCHEM_EFFECTIVE_ROTOR_COUNT>
5.4

> <PUBCHEM_PHARMACOPHORE_FEATURES>
7
1 3 acceptor
1 4 acceptor
1 5 acceptor
5 6 7 9 11 15 rings
6 10 13 14 18 19 20 rings
6 21 22 23 24 25 26 rings
6 7 8 9 12 16 17 rings

> <PUBCHEM_HEAVY_ATOM_COUNT>
26

> <PUBCHEM_ATOM_DEF_STEREO_COUNT>
1

> <PUBCHEM_ATOM_UDEF_STEREO_COUNT>
0

> <PUBCHEM_BOND_DEF_STEREO_COUNT>
0

> <PUBCHEM_BOND_UDEF_STEREO_COUNT>
0

> <PUBCHEM_ISOTOPIC_ATOM_COUNT>
0

> <PUBCHEM_COMPONENT_COUNT>
1

> <PUBCHEM_CACTVS_TAUTO_COUNT>
1

> <PUBCHEM_CONFORMER_ID>
04809A7B00000001

> <PUBCHEM_MMFF94_ENERGY>
41.2633

> <PUBCHEM_FEATURE_SELFOVERLAP>
35.638

> <PUBCHEM_SHAPE_FINGERPRINT>
10291535 26 18409446990692710001
10498660 4 18270402668460677021
10675989 125 17473257674574102969
10763959 59 18342183267684461164
11135609 12 9799689333166555277
11370993 144 17967808319622050770
11720765 8 17190380794709570639
12107183 9 18044643210204926938
12107698 1 18263640839152541713
12422481 6 18334573538881403100
12596602 18 17313944272358416128
12633257 1 15430044252908097538
12892183 10 18114466750949283914
12969540 114 16271928250913824494
13103583 49 13334742280143553597
13257819 101 18131349739477764516
13402501 40 18412258424096964369
13583140 156 18335142011556196690
13911987 19 17489871569750845203
13941219 33 10665219311895470557
13965767 371 17460314348202575871
14251764 38 18335425711342037460
14251764 75 17908987608975564193
14466204 15 18334853922704110480
14739800 52 18261941986271416656
14950920 106 13984963800293489205
14951699 99 18041566944480329364
14957384 54 18410567384061075914
15209294 21 17676203567674592498
15484559 13 15108937100480672744
17780758 139 12179841676202612421
17844677 252 18334862774689612826
19438510 23 18264488391209781665
20775530 9 9727052236619933773
21033648 144 18340772541950859405
21054139 6 12823291291621133884
21315764 268 18339359768304237400
21401589 2 18337398128439560569
21859007 373 18271518716303503152
22956985 138 16602671519016468731
23379529 103 10879120575863991829
23559900 14 18128263281379373446
2838139 119 18340760481767276660
312425 83 17129870409204315893
314194 84 13118273811580912872
328310 1195 18131349704975795936
341906 21 18260555532205099804
3737641 26 10881671374342670328
4144715 1 18334866030359615706
484985 159 7997699718284221469
5081480 168 17057562216883505708
5104073 3 17822004298918398914
5486654 36 11963660102174937286
5951187 136 17407112159048587517
633830 44 16629147393444871167
9849439 229 17900538978828389469
9981440 41 18334016060584552291

> <PUBCHEM_SHAPE_MULTIPOLES>
499.09
14.02
3.2
1.66
14.55
2.09
-0.2
10.19
1.66
-3.43
-0.48
-0.82
-0.66
1.98

> <PUBCHEM_SHAPE_SELFOVERLAP>
1047.055

> <PUBCHEM_SHAPE_VOLUME>
283.2

> <PUBCHEM_COORDINATE_TYPE>
2
5
10

$$$$
