75368558
  -OEChem-12032416393D

 30 32  0     1  0  0  0  0  0999 V2000
    3.8870    0.6788   -1.1977 S   0  0  0  0  0  0  0  0  0  0  0  0
   -4.1826    1.7685    0.0112 O   0  0  0  0  0  0  0  0  0  0  0  0
   -2.2438    0.4559    0.2458 N   0  0  0  0  0  0  0  0  0  0  0  0
    0.3943   -0.4331   -0.1504 N   0  0  2  0  0  0  0  0  0  0  0  0
   -4.2250   -0.5779    0.0189 N   0  0  0  0  0  0  0  0  0  0  0  0
    3.2352   -0.6215    0.9393 N   0  0  0  0  0  0  0  0  0  0  0  0
   -1.9438   -0.9499    0.4178 C   0  0  2  0  0  0  0  0  0  0  0  0
   -0.7352   -1.3428   -0.4310 C   0  0  0  0  0  0  0  0  0  0  0  0
   -1.1758    1.4277    0.3531 C   0  0  0  0  0  0  0  0  0  0  0  0
   -3.2491   -1.6442    0.0382 C   0  0  0  0  0  0  0  0  0  0  0  0
    0.0349    0.9654   -0.4617 C   0  0  0  0  0  0  0  0  0  0  0  0
   -3.6137    0.6883    0.0871 C   0  0  0  0  0  0  0  0  0  0  0  0
    1.5751   -0.8372   -0.9132 C   0  0  0  0  0  0  0  0  0  0  0  0
    2.8477   -0.3360   -0.2840 C   0  0  0  0  0  0  0  0  0  0  0  0
    4.9527    0.7541    0.1439 C   0  0  0  0  0  0  0  0  0  0  0  0
    4.4423    0.0041    1.1827 C   0  0  0  0  0  0  0  0  0  0  0  0
   -1.7310   -1.1049    1.4838 H   0  0  0  0  0  0  0  0  0  0  0  0
   -0.4627   -2.3770   -0.1879 H   0  0  0  0  0  0  0  0  0  0  0  0
   -0.9877   -1.3095   -1.4996 H   0  0  0  0  0  0  0  0  0  0  0  0
   -0.9168    1.5108    1.4148 H   0  0  0  0  0  0  0  0  0  0  0  0
   -1.5338    2.4047    0.0134 H   0  0  0  0  0  0  0  0  0  0  0  0
   -3.2234   -2.0920   -0.9600 H   0  0  0  0  0  0  0  0  0  0  0  0
   -3.5501   -2.4016    0.7670 H   0  0  0  0  0  0  0  0  0  0  0  0
   -0.1920    1.0688   -1.5314 H   0  0  0  0  0  0  0  0  0  0  0  0
    0.8677    1.6410   -0.2363 H   0  0  0  0  0  0  0  0  0  0  0  0
   -5.2218   -0.7167   -0.1134 H   0  0  0  0  0  0  0  0  0  0  0  0
    1.4912   -0.5520   -1.9700 H   0  0  0  0  0  0  0  0  0  0  0  0
    1.6644   -1.9327   -0.9055 H   0  0  0  0  0  0  0  0  0  0  0  0
    5.8706    1.3232    0.1103 H   0  0  0  0  0  0  0  0  0  0  0  0
    4.9152   -0.1200    2.1476 H   0  0  0  0  0  0  0  0  0  0  0  0
  1 14  1  0  0  0  0
  1 15  1  0  0  0  0
  2 12  2  0  0  0  0
  3  7  1  0  0  0  0
  3  9  1  0  0  0  0
  3 12  1  0  0  0  0
  4  8  1  0  0  0  0
  4 11  1  0  0  0  0
  4 13  1  0  0  0  0
  5 10  1  0  0  0  0
  5 12  1  0  0  0  0
  5 26  1  0  0  0  0
  6 14  2  0  0  0  0
  6 16  1  0  0  0  0
  7  8  1  0  0  0  0
  7 10  1  0  0  0  0
  7 17  1  0  0  0  0
  8 18  1  0  0  0  0
  8 19  1  0  0  0  0
  9 11  1  0  0  0  0
  9 20  1  0  0  0  0
  9 21  1  0  0  0  0
 10 22  1  0  0  0  0
 10 23  1  0  0  0  0
 11 24  1  0  0  0  0
 11 25  1  0  0  0  0
 13 14  1  0  0  0  0
 13 27  1  0  0  0  0
 13 28  1  0  0  0  0
 15 16  2  0  0  0  0
 15 29  1  0  0  0  0
 16 30  1  0  0  0  0
M  END
> <PUBCHEM_COMPOUND_CID>
75368558

> <PUBCHEM_CONFORMER_RMSD>
0.6

> <PUBCHEM_CONFORMER_DIVERSEORDER>
2
23
6
27
19
26
8
25
18
24
13
22
17
1
14
12
16
5
20
11
10
21
9
3
15
4
7

> <PUBCHEM_MMFF94_PARTIAL_CHARGES>
19
1 -0.08
10 0.3
11 0.27
12 0.69
13 0.45
14 0.2
15 -0.11
16 0.08
2 -0.57
26 0.37
29 0.15
3 -0.66
30 0.15
4 -0.81
5 -0.73
6 -0.57
7 0.3
8 0.27
9 0.3

> <PUBCHEM_EFFECTIVE_ROTOR_COUNT>
3.2

> <PUBCHEM_PHARMACOPHORE_FEATURES>
7
1 2 acceptor
1 4 cation
1 5 donor
1 6 acceptor
5 1 6 14 15 16 rings
5 3 5 7 10 12 rings
6 3 4 7 8 9 11 rings

> <PUBCHEM_HEAVY_ATOM_COUNT>
16

> <PUBCHEM_ATOM_DEF_STEREO_COUNT>
1

> <PUBCHEM_ATOM_UDEF_STEREO_COUNT>
0

> <PUBCHEM_BOND_DEF_STEREO_COUNT>
0

> <PUBCHEM_BOND_UDEF_STEREO_COUNT>
0

> <PUBCHEM_ISOTOPIC_ATOM_COUNT>
0

> <PUBCHEM_COMPONENT_COUNT>
1

> <PUBCHEM_CACTVS_TAUTO_COUNT>
2

> <PUBCHEM_CONFORMER_ID>
047E086E00000002

> <PUBCHEM_MMFF94_ENERGY>
27.4261

> <PUBCHEM_FEATURE_SELFOVERLAP>
35.617

> <PUBCHEM_SHAPE_FINGERPRINT>
10014705 185 18335983091128609461
10062212 137 18334296504467924295
10498660 4 18272657835449581520
10912923 1 17676489479568459858
11132069 177 18412548690855132764
11401426 45 18410571782334355877
11615757 297 15267340725569218042
12119455 92 17203605973939414142
12236239 1 17894628171150575626
12251169 10 18333447651706013532
12403814 3 17603865594266783989
12670546 56 17095233718127494581
13214271 11 18272929436137931063
13675066 3 13190343495303029902
15196674 1 18411702062696565574
15375358 24 18272933799740268687
17834072 8 8286208231595261699
17846911 113 18343299245335654352
18186145 218 15410896262648535502
19026448 5 17676490570321445534
19050596 39 18113335319340296000
200 152 16370717145633806702
20279233 1 17846782905672656686
20510252 161 18130231471115857641
20528008 55 18131913745407473846
20645477 56 18341337708582100553
20645477 70 14923935756988601018
22854114 59 17632577162798509514
23048698 100 17530966899719279900
23402539 116 18412818097010723567
23532345 42 18343585178535858580
23557571 272 18130242517803372055
23559900 14 18270972232737581142
26918003 58 16298103203091672040
296302 2 18041001747461777132
34934 24 18411976923845653055
42 15 16877662348891525802
449060 50 17346319331897526822
474 4 17242462852736923724
5104073 3 18412267198851839754
5374978 207 18407757045446941464
573450 72 18187357735908502835

> <PUBCHEM_SHAPE_MULTIPOLES>
307.33
9.95
1.52
0.96
3.59
0.13
-0.01
1.61
1.2
-1.46
-0.05
1.08
-0.03
-0.26

> <PUBCHEM_SHAPE_SELFOVERLAP>
636.709

> <PUBCHEM_SHAPE_VOLUME>
178

> <PUBCHEM_COORDINATE_TYPE>
2
5
10

$$$$
