40533382
  -OEChem-12032416263D

 48 52  0     1  0  0  0  0  0999 V2000
    0.7147   -2.5944   -1.4651 O   0  0  0  0  0  0  0  0  0  0  0  0
    1.1426   -2.4786    1.6042 O   0  0  0  0  0  0  0  0  0  0  0  0
   -1.8655   -1.1092   -0.0831 N   0  0  0  0  0  0  0  0  0  0  0  0
    3.4310   -0.8663    0.3173 N   0  0  0  0  0  0  0  0  0  0  0  0
   -1.6010   -0.2362   -1.0686 N   0  0  0  0  0  0  0  0  0  0  0  0
   -2.6423    0.5839   -1.1590 N   0  0  0  0  0  0  0  0  0  0  0  0
   -5.5778    0.3233    0.9849 N   0  0  0  0  0  0  0  0  0  0  0  0
    0.4720   -1.5987    0.6815 C   0  0  1  0  0  0  0  0  0  0  0  0
    1.2860   -1.6002   -0.5976 C   0  0  1  0  0  0  0  0  0  0  0  0
   -0.8667   -2.1925    0.2802 C   0  0  2  0  0  0  0  0  0  0  0  0
    2.6713   -2.0204   -0.1580 C   0  0  2  0  0  0  0  0  0  0  0  0
   -0.4683   -3.1309   -0.8557 C   0  0  0  0  0  0  0  0  0  0  0  0
    2.3616   -2.9461    1.0076 C   0  0  0  0  0  0  0  0  0  0  0  0
    4.1262   -0.2179   -0.7838 C   0  0  0  0  0  0  0  0  0  0  0  0
   -3.0802   -0.8734    0.4835 C   0  0  0  0  0  0  0  0  0  0  0  0
   -3.5570    0.2070   -0.2153 C   0  0  0  0  0  0  0  0  0  0  0  0
    4.9159    0.9779   -0.3220 C   0  0  0  0  0  0  0  0  0  0  0  0
   -4.8141    0.8483    0.0007 C   0  0  0  0  0  0  0  0  0  0  0  0
    4.3208    2.2393   -0.2978 C   0  0  0  0  0  0  0  0  0  0  0  0
    6.2420    0.8246    0.0819 C   0  0  0  0  0  0  0  0  0  0  0  0
    5.0520    3.3473    0.1301 C   0  0  0  0  0  0  0  0  0  0  0  0
    6.9733    1.9325    0.5098 C   0  0  0  0  0  0  0  0  0  0  0  0
   -5.1862    1.9356   -0.7735 C   0  0  0  0  0  0  0  0  0  0  0  0
    6.3784    3.1939    0.5339 C   0  0  0  0  0  0  0  0  0  0  0  0
   -6.4215    2.5218   -0.5210 C   0  0  0  0  0  0  0  0  0  0  0  0
   -6.7718    0.9193    1.2012 C   0  0  0  0  0  0  0  0  0  0  0  0
   -7.2355    2.0100    0.4835 C   0  0  0  0  0  0  0  0  0  0  0  0
    0.4099   -0.6130    1.1537 H   0  0  0  0  0  0  0  0  0  0  0  0
    1.2451   -0.6484   -1.1355 H   0  0  0  0  0  0  0  0  0  0  0  0
   -1.3504   -2.7511    1.0899 H   0  0  0  0  0  0  0  0  0  0  0  0
    3.2271   -2.5805   -0.9192 H   0  0  0  0  0  0  0  0  0  0  0  0
   -0.2142   -4.1238   -0.4691 H   0  0  0  0  0  0  0  0  0  0  0  0
   -1.2466   -3.2436   -1.6162 H   0  0  0  0  0  0  0  0  0  0  0  0
    2.1815   -3.9677    0.6531 H   0  0  0  0  0  0  0  0  0  0  0  0
    3.1466   -2.9974    1.7690 H   0  0  0  0  0  0  0  0  0  0  0  0
    4.1251   -1.1751    0.9986 H   0  0  0  0  0  0  0  0  0  0  0  0
    3.4193    0.1086   -1.5569 H   0  0  0  0  0  0  0  0  0  0  0  0
    4.8105   -0.9212   -1.2772 H   0  0  0  0  0  0  0  0  0  0  0  0
   -3.4718   -1.4712    1.2949 H   0  0  0  0  0  0  0  0  0  0  0  0
    3.2877    2.3714   -0.6081 H   0  0  0  0  0  0  0  0  0  0  0  0
    6.7165   -0.1532    0.0695 H   0  0  0  0  0  0  0  0  0  0  0  0
    4.5887    4.3294    0.1494 H   0  0  0  0  0  0  0  0  0  0  0  0
    8.0058    1.8132    0.8247 H   0  0  0  0  0  0  0  0  0  0  0  0
   -4.5539    2.3378   -1.5583 H   0  0  0  0  0  0  0  0  0  0  0  0
    6.9478    4.0566    0.8673 H   0  0  0  0  0  0  0  0  0  0  0  0
   -6.7496    3.3759   -1.1058 H   0  0  0  0  0  0  0  0  0  0  0  0
   -7.3686    0.4824    1.9951 H   0  0  0  0  0  0  0  0  0  0  0  0
   -8.2023    2.4509    0.6978 H   0  0  0  0  0  0  0  0  0  0  0  0
  1  9  1  0  0  0  0
  1 12  1  0  0  0  0
  2  8  1  0  0  0  0
  2 13  1  0  0  0  0
  3  5  1  0  0  0  0
  3 10  1  0  0  0  0
  3 15  1  0  0  0  0
  4 11  1  0  0  0  0
  4 14  1  0  0  0  0
  4 36  1  0  0  0  0
  5  6  2  0  0  0  0
  6 16  1  0  0  0  0
  7 18  1  0  0  0  0
  7 26  2  0  0  0  0
  8  9  1  0  0  0  0
  8 10  1  0  0  0  0
  8 28  1  0  0  0  0
  9 11  1  0  0  0  0
  9 29  1  0  0  0  0
 10 12  1  0  0  0  0
 10 30  1  0  0  0  0
 11 13  1  0  0  0  0
 11 31  1  0  0  0  0
 12 32  1  0  0  0  0
 12 33  1  0  0  0  0
 13 34  1  0  0  0  0
 13 35  1  0  0  0  0
 14 17  1  0  0  0  0
 14 37  1  0  0  0  0
 14 38  1  0  0  0  0
 15 16  2  0  0  0  0
 15 39  1  0  0  0  0
 16 18  1  0  0  0  0
 17 19  2  0  0  0  0
 17 20  1  0  0  0  0
 18 23  2  0  0  0  0
 19 21  1  0  0  0  0
 19 40  1  0  0  0  0
 20 22  2  0  0  0  0
 20 41  1  0  0  0  0
 21 24  2  0  0  0  0
 21 42  1  0  0  0  0
 22 24  1  0  0  0  0
 22 43  1  0  0  0  0
 23 25  1  0  0  0  0
 23 44  1  0  0  0  0
 24 45  1  0  0  0  0
 25 27  2  0  0  0  0
 25 46  1  0  0  0  0
 26 27  1  0  0  0  0
 26 47  1  0  0  0  0
 27 48  1  0  0  0  0
M  END
> <PUBCHEM_COMPOUND_CID>
40533382

> <PUBCHEM_CONFORMER_RMSD>
0.8

> <PUBCHEM_CONFORMER_DIVERSEORDER>
1
30
132
145
193
114
151
152
127
72
179
191
166
89
81
53
184
148
42
31
173
227
73
142
208
91
194
165
120
46
147
229
118
157
207
162
74
23
83
76
155
8
67
2
226
195
221
182
215
201
176
66
70
13
20
209
99
139
220
52
101
135
198
187
222
121
65
180
43
211
7
224
25
213
63
115
128
146
183
185
11
219
69
111
188
90
164
158
186
225
218
109
96
167
125
28
88
140
192
78
19
130
172
110
124
112
9
64
80
150
217
199
131
32
50
134
61
144
136
48
168
34
169
161
149
4
45
223
126
200
177
123
55
85
58
106
216
95
205
210
38
49
15
143
197
189
71
174
153
116
24
103
77
12
196
203
54
84
37
137
156
94
102
6
214
5
10
181
133
100
82
104
160
202
17
40
190
56
93
163
105
87
154
170
21
27
79
59
22
129
212
175
108
171
44
68
57
51
119
14
159
117
41
122
138
35
98
16
39
204
228
47
178
36
3
141
62
206
18
60
26
92
29
113
86
97
75
107
33

> <PUBCHEM_MMFF94_PARTIAL_CHARGES>
38
1 -0.56
10 0.26
11 0.27
12 0.28
13 0.28
14 0.41
15 -0.3
16 0.17
17 -0.14
18 0.36
19 -0.15
2 -0.56
20 -0.15
21 -0.15
22 -0.15
23 -0.15
24 -0.15
25 -0.15
26 0.16
27 -0.15
3 0.31
36 0.36
39 0.15
4 -0.9
40 0.15
41 0.15
42 0.15
43 0.15
44 0.15
45 0.15
46 0.15
47 0.15
48 0.15
5 -0.42
6 -0.23
7 -0.62
8 0.28
9 0.28

> <PUBCHEM_EFFECTIVE_ROTOR_COUNT>
6.2

> <PUBCHEM_PHARMACOPHORE_FEATURES>
10
1 1 acceptor
1 2 acceptor
1 4 cation
1 4 donor
1 7 acceptor
5 1 8 9 10 12 rings
5 2 8 9 11 13 rings
5 3 5 6 15 16 rings
6 17 19 20 21 22 24 rings
6 7 18 23 25 26 27 rings

> <PUBCHEM_HEAVY_ATOM_COUNT>
27

> <PUBCHEM_ATOM_DEF_STEREO_COUNT>
4

> <PUBCHEM_ATOM_UDEF_STEREO_COUNT>
0

> <PUBCHEM_BOND_DEF_STEREO_COUNT>
0

> <PUBCHEM_BOND_UDEF_STEREO_COUNT>
0

> <PUBCHEM_ISOTOPIC_ATOM_COUNT>
0

> <PUBCHEM_COMPONENT_COUNT>
1

> <PUBCHEM_CACTVS_TAUTO_COUNT>
1

> <PUBCHEM_CONFORMER_ID>
026A7D8600000001

> <PUBCHEM_MMFF94_ENERGY>
64.0019

> <PUBCHEM_FEATURE_SELFOVERLAP>
51.455

> <PUBCHEM_SHAPE_FINGERPRINT>
10 15 18113340799708094313
10006869 2 18336819789375496732
10050765 1 18411136952523313814
10673678 19 18342743996274587923
10693767 8 8790588270701162369
11017883 126 16916232040347663654
11621639 179 18336267839376516900
12107183 9 18335687353214381730
12633257 1 15647337489316537038
12760667 363 9079122167553330271
12895836 83 18131348639370225887
12895837 130 18197781214025880148
12925494 130 18337950211482241896
13540713 5 18268125665479056598
13885169 86 18411704317496809000
13911852 28 8430314632442186999
13944108 23 18127692630106583024
13955234 65 18042965367934879498
14168556 18 18263932193398461379
14202776 33 17916861465133979079
14251764 75 18339363066960452884
14429114 114 18339640027937624217
14461889 52 17531543035296368163
14565420 104 18186801361629490602
14739800 52 18188204303995667091
14904525 67 18127982897625348809
15183329 4 13901911077029088679
15475509 35 15937246669643056306
15510800 12 11098121250407936632
15519825 34 16298958687657518241
15803439 3 16271931553627748988
16760501 71 18334860515304836277
18335252 114 18342454795094589974
19302320 297 18259987115365848872
19438510 23 18335420183813417410
20715895 44 18341613741951454192
21033648 29 18114188579297795574
21033650 10 14476692875573069779
21307412 95 11671781593903533397
21365058 113 17482004340764256622
21585482 111 18263928735248986541
21585482 310 10375583858663141909
21585483 110 18411129221808709661
21585483 132 10738148947731156417
22122407 14 18266750086469712137
23522609 53 17058945360094142921
23569914 152 7951934565628862179
23569914 2 17099700995723703573
25269216 80 16701727355144549829
270888 7 18413387648529241204
2748736 6 18412255164432765680
2838139 119 18410849975861223990
3004659 81 11743832547610362790
3014063 24 7997971258363454640
3411729 13 18408323263379864429
3472631 163 18272090500028440510
34797466 226 18129387004153931047
397830 11 18261685817891113803
4258327 124 18202275885049219165
437795 70 14117527514960131083
445580 126 18412538804405017576
465052 167 10665232544663251290
474113 269 11746937625178492017
5104073 3 17967530181434210858
5207 123 10807934860012766539
5219985 13 18411702114399950638
5372103 7 15912462758820010528
5385378 56 18259982652920526842
56616090 13 18408321116334521242
5718773 13 8862946069482382584
5874358 3 14635732950764953585
59682541 35 18187377536783819729
59682541 52 16988575567717533892
6327066 14 18341893017271620940
636775 72 17763740289332929224
6697151 62 17176275228920215435
6712543 237 15864063269860336633
7808743 9 18339919411011391538

> <PUBCHEM_SHAPE_MULTIPOLES>
519
19.8
4.23
1.11
7.91
0.2
0.03
-25.76
3.33
-3.95
0.18
0.48
0.39
0.44

> <PUBCHEM_SHAPE_SELFOVERLAP>
1138.459

> <PUBCHEM_SHAPE_VOLUME>
279.3

> <PUBCHEM_COORDINATE_TYPE>
2
5
10

$$$$
