9421697
  -OEChem-12032416283D

 60 64  0     1  0  0  0  0  0999 V2000
   -2.0623   -2.1552    1.5371 O   0  0  0  0  0  0  0  0  0  0  0  0
    2.7556   -0.5312    2.4575 O   0  0  0  0  0  0  0  0  0  0  0  0
    2.2070    4.8351   -0.7062 O   0  0  0  0  0  0  0  0  0  0  0  0
   -0.3480   -2.1846   -0.0468 N   0  0  0  0  0  0  0  0  0  0  0  0
    2.7170   -1.4518    0.3067 N   0  0  0  0  0  0  0  0  0  0  0  0
    1.6956   -3.7162    0.1579 C   0  0  2  0  0  0  0  0  0  0  0  0
    1.5127   -2.1646   -1.7446 C   0  0  2  0  0  0  0  0  0  0  0  0
    1.7377   -3.6271   -1.3638 C   0  0  0  0  0  0  0  0  0  0  0  0
    0.2947   -3.3158    0.6375 C   0  0  0  0  0  0  0  0  0  0  0  0
    2.7945   -2.8342    0.7781 C   0  0  0  0  0  0  0  0  0  0  0  0
    2.6435   -1.2977   -1.1553 C   0  0  0  0  0  0  0  0  0  0  0  0
    0.1720   -1.6688   -1.2370 C   0  0  0  0  0  0  0  0  0  0  0  0
   -3.5453   -0.0972    0.3145 C   0  0  0  0  0  0  0  0  0  0  0  0
   -2.2645   -0.6292   -0.2549 C   0  0  0  0  0  0  0  0  0  0  0  0
   -1.5595   -1.7187    0.5006 C   0  0  0  0  0  0  0  0  0  0  0  0
   -0.4939   -0.7130   -1.9051 C   0  0  0  0  0  0  0  0  0  0  0  0
   -4.7169   -0.3534   -0.6443 C   0  0  0  0  0  0  0  0  0  0  0  0
   -3.4209    1.3993    0.6346 C   0  0  0  0  0  0  0  0  0  0  0  0
   -1.7304   -0.1881   -1.4012 C   0  0  0  0  0  0  0  0  0  0  0  0
   -6.0242    0.2238   -0.1053 C   0  0  0  0  0  0  0  0  0  0  0  0
   -4.7312    1.9732    1.1704 C   0  0  0  0  0  0  0  0  0  0  0  0
   -5.8927    1.7085    0.2181 C   0  0  0  0  0  0  0  0  0  0  0  0
    2.6946   -0.4087    1.2354 C   0  0  0  0  0  0  0  0  0  0  0  0
    2.5677    0.9612    0.7272 C   0  0  0  0  0  0  0  0  0  0  0  0
    1.3044    1.5214    0.5550 C   0  0  0  0  0  0  0  0  0  0  0  0
    3.7103    1.6956    0.4196 C   0  0  0  0  0  0  0  0  0  0  0  0
    1.1830    2.8245    0.0722 C   0  0  0  0  0  0  0  0  0  0  0  0
    3.5889    2.9987   -0.0631 C   0  0  0  0  0  0  0  0  0  0  0  0
    2.3253    3.5631   -0.2368 C   0  0  0  0  0  0  0  0  0  0  0  0
    0.8855    5.3510   -0.8580 C   0  0  0  0  0  0  0  0  0  0  0  0
    1.8848   -4.7504    0.4710 H   0  0  0  0  0  0  0  0  0  0  0  0
    1.5485   -2.0856   -2.8389 H   0  0  0  0  0  0  0  0  0  0  0  0
    0.9677   -4.2688   -1.8102 H   0  0  0  0  0  0  0  0  0  0  0  0
    2.7063   -3.9770   -1.7412 H   0  0  0  0  0  0  0  0  0  0  0  0
   -0.3821   -4.1693    0.4943 H   0  0  0  0  0  0  0  0  0  0  0  0
    0.3013   -3.1145    1.7161 H   0  0  0  0  0  0  0  0  0  0  0  0
    2.7404   -2.8748    1.8712 H   0  0  0  0  0  0  0  0  0  0  0  0
    3.7830   -3.2125    0.4901 H   0  0  0  0  0  0  0  0  0  0  0  0
    3.6122   -1.6209   -1.5563 H   0  0  0  0  0  0  0  0  0  0  0  0
    2.5135   -0.2531   -1.4483 H   0  0  0  0  0  0  0  0  0  0  0  0
   -3.7863   -0.6050    1.2566 H   0  0  0  0  0  0  0  0  0  0  0  0
   -0.1056   -0.2857   -2.8236 H   0  0  0  0  0  0  0  0  0  0  0  0
   -4.5243    0.0923   -1.6285 H   0  0  0  0  0  0  0  0  0  0  0  0
   -4.8411   -1.4315   -0.8061 H   0  0  0  0  0  0  0  0  0  0  0  0
   -2.6287    1.5602    1.3768 H   0  0  0  0  0  0  0  0  0  0  0  0
   -3.1349    1.9701   -0.2581 H   0  0  0  0  0  0  0  0  0  0  0  0
   -2.2005    0.5941   -1.9878 H   0  0  0  0  0  0  0  0  0  0  0  0
   -6.3188   -0.3227    0.7992 H   0  0  0  0  0  0  0  0  0  0  0  0
   -6.8231    0.0762   -0.8408 H   0  0  0  0  0  0  0  0  0  0  0  0
   -4.6230    3.0522    1.3290 H   0  0  0  0  0  0  0  0  0  0  0  0
   -4.9515    1.5277    2.1484 H   0  0  0  0  0  0  0  0  0  0  0  0
   -5.7393    2.2722   -0.7104 H   0  0  0  0  0  0  0  0  0  0  0  0
   -6.8252    2.0734    0.6630 H   0  0  0  0  0  0  0  0  0  0  0  0
    0.4097    0.9579    0.8038 H   0  0  0  0  0  0  0  0  0  0  0  0
    4.6993    1.2645    0.5511 H   0  0  0  0  0  0  0  0  0  0  0  0
    0.1716    3.2012   -0.0367 H   0  0  0  0  0  0  0  0  0  0  0  0
    4.4823    3.5691   -0.3020 H   0  0  0  0  0  0  0  0  0  0  0  0
    0.3661    5.4166    0.1040 H   0  0  0  0  0  0  0  0  0  0  0  0
    0.3144    4.7825   -1.6000 H   0  0  0  0  0  0  0  0  0  0  0  0
    0.9792    6.3725   -1.2410 H   0  0  0  0  0  0  0  0  0  0  0  0
  1 15  2  0  0  0  0
  2 23  2  0  0  0  0
  3 29  1  0  0  0  0
  3 30  1  0  0  0  0
  4  9  1  0  0  0  0
  4 12  1  0  0  0  0
  4 15  1  0  0  0  0
  5 10  1  0  0  0  0
  5 11  1  0  0  0  0
  5 23  1  0  0  0  0
  6  8  1  0  0  0  0
  6  9  1  0  0  0  0
  6 10  1  0  0  0  0
  6 31  1  0  0  0  0
  7  8  1  0  0  0  0
  7 11  1  0  0  0  0
  7 12  1  0  0  0  0
  7 32  1  0  0  0  0
  8 33  1  0  0  0  0
  8 34  1  0  0  0  0
  9 35  1  0  0  0  0
  9 36  1  0  0  0  0
 10 37  1  0  0  0  0
 10 38  1  0  0  0  0
 11 39  1  0  0  0  0
 11 40  1  0  0  0  0
 12 16  2  0  0  0  0
 13 14  1  0  0  0  0
 13 17  1  0  0  0  0
 13 18  1  0  0  0  0
 13 41  1  0  0  0  0
 14 15  1  0  0  0  0
 14 19  2  0  0  0  0
 16 19  1  0  0  0  0
 16 42  1  0  0  0  0
 17 20  1  0  0  0  0
 17 43  1  0  0  0  0
 17 44  1  0  0  0  0
 18 21  1  0  0  0  0
 18 45  1  0  0  0  0
 18 46  1  0  0  0  0
 19 47  1  0  0  0  0
 20 22  1  0  0  0  0
 20 48  1  0  0  0  0
 20 49  1  0  0  0  0
 21 22  1  0  0  0  0
 21 50  1  0  0  0  0
 21 51  1  0  0  0  0
 22 52  1  0  0  0  0
 22 53  1  0  0  0  0
 23 24  1  0  0  0  0
 24 25  2  0  0  0  0
 24 26  1  0  0  0  0
 25 27  1  0  0  0  0
 25 54  1  0  0  0  0
 26 28  2  0  0  0  0
 26 55  1  0  0  0  0
 27 29  2  0  0  0  0
 27 56  1  0  0  0  0
 28 29  1  0  0  0  0
 28 57  1  0  0  0  0
 30 58  1  0  0  0  0
 30 59  1  0  0  0  0
 30 60  1  0  0  0  0
M  END
> <PUBCHEM_COMPOUND_CID>
9421697

> <PUBCHEM_CONFORMER_RMSD>
0.8

> <PUBCHEM_CONFORMER_DIVERSEORDER>
1
9
13
18
10
14
5
7
19
11
12
4
15
16
8
17
2
6
3

> <PUBCHEM_MMFF94_PARTIAL_CHARGES>
29
1 -0.57
10 0.3
11 0.3
12 -0.03
13 0.14
14 -0.12
15 0.62
16 -0.15
19 -0.15
2 -0.57
23 0.54
24 0.09
25 -0.15
26 -0.15
27 -0.15
28 -0.15
29 0.08
3 -0.36
30 0.28
4 -0.47
42 0.15
47 0.15
5 -0.66
54 0.15
55 0.15
56 0.15
57 0.15
7 0.14
9 0.3

> <PUBCHEM_EFFECTIVE_ROTOR_COUNT>
6.2

> <PUBCHEM_PHARMACOPHORE_FEATURES>
8
1 1 acceptor
1 2 acceptor
1 3 acceptor
6 13 17 18 20 21 22 rings
6 24 25 26 27 28 29 rings
6 4 12 14 15 16 19 rings
6 4 6 7 8 9 12 rings
6 5 6 7 8 10 11 rings

> <PUBCHEM_HEAVY_ATOM_COUNT>
30

> <PUBCHEM_ATOM_DEF_STEREO_COUNT>
2

> <PUBCHEM_ATOM_UDEF_STEREO_COUNT>
0

> <PUBCHEM_BOND_DEF_STEREO_COUNT>
0

> <PUBCHEM_BOND_UDEF_STEREO_COUNT>
0

> <PUBCHEM_ISOTOPIC_ATOM_COUNT>
0

> <PUBCHEM_COMPONENT_COUNT>
1

> <PUBCHEM_CACTVS_TAUTO_COUNT>
1

> <PUBCHEM_CONFORMER_ID>
008FC38100000001

> <PUBCHEM_MMFF94_ENERGY>
79.6967

> <PUBCHEM_FEATURE_SELFOVERLAP>
42.183

> <PUBCHEM_SHAPE_FINGERPRINT>
10483366 6 18340505395850043196
10688039 33 17976825281094426890
10937287 8 18050848020112696072
11421498 54 17900558778374039806
12156800 1 15385637460885327802
12403259 327 17894903023156224402
12422481 6 17624944202760519490
12633257 1 18114728382913167866
12788726 201 17472159288016132022
133893 2 17915206570762592579
13761468 95 17187603922101044448
14251764 38 18411985763157373761
151778 21 18336545039975154317
15210252 30 18191045429615965388
15475509 84 17037257295113831771
18785283 64 18408888442764177873
20739085 24 18410849937227928928
21475661 188 18410858763300936295
21860390 5 18342740663416785919
22907989 373 17332792259168300470
23559900 14 18270970020840362807
3493558 16 17629203706806786289
35225 105 17337601497332104974
474 4 18413102870954879371
50150288 127 14429440593795187037
5312544 6 18267858561852074303
9980921 221 16241829407736060860
9981440 41 18195809793977195089

> <PUBCHEM_SHAPE_MULTIPOLES>
589.82
9.02
6.11
1.54
16.89
5.94
0.02
3.96
-1.82
-6.71
1.33
-0.57
-0.65
-0.41

> <PUBCHEM_SHAPE_SELFOVERLAP>
1281.576

> <PUBCHEM_SHAPE_VOLUME>
315.4

> <PUBCHEM_COORDINATE_TYPE>
2
5
10

$$$$
