75536291
  -OEChem-12032416303D

 54 56  0     1  0  0  0  0  0999 V2000
    2.2177   -0.4146    0.8326 O   0  0  0  0  0  0  0  0  0  0  0  0
    4.9508    0.5541    1.3616 O   0  0  0  0  0  0  0  0  0  0  0  0
   -1.6406   -2.7148   -1.1331 O   0  0  0  0  0  0  0  0  0  0  0  0
   -3.7547   -1.4897    0.6199 O   0  0  0  0  0  0  0  0  0  0  0  0
    0.2598    1.6552    0.7966 N   0  0  0  0  0  0  0  0  0  0  0  0
   -0.3071   -2.6339   -1.5157 N   0  0  0  0  0  0  0  0  0  0  0  0
   -0.7084    2.5509    0.1668 C   0  0  0  0  0  0  0  0  0  0  0  0
    2.6106    0.9593    0.9477 C   0  0  1  0  0  0  0  0  0  0  0  0
    4.0442    1.1740    0.4456 C   0  0  2  0  0  0  0  0  0  0  0  0
   -1.9397    2.7026    1.0666 C   0  0  0  0  0  0  0  0  0  0  0  0
   -1.0960    2.0108   -1.2141 C   0  0  0  0  0  0  0  0  0  0  0  0
    1.5974    1.8799    0.2707 C   0  0  0  0  0  0  0  0  0  0  0  0
    2.3370   -0.9735   -0.4778 C   0  0  1  0  0  0  0  0  0  0  0  0
    4.2771    0.5556   -0.9302 C   0  0  0  0  0  0  0  0  0  0  0  0
    3.7804   -0.8867   -0.9713 C   0  0  0  0  0  0  0  0  0  0  0  0
   -3.0078    3.5726    0.4059 C   0  0  0  0  0  0  0  0  0  0  0  0
   -2.1655    2.8811   -1.8721 C   0  0  0  0  0  0  0  0  0  0  0  0
   -3.3887    3.0447   -0.9743 C   0  0  0  0  0  0  0  0  0  0  0  0
    1.8762   -2.4240   -0.4012 C   0  0  0  0  0  0  0  0  0  0  0  0
    0.3751   -2.5313   -0.3716 C   0  0  0  0  0  0  0  0  0  0  0  0
   -0.4662   -2.5420    0.7543 C   0  0  0  0  0  0  0  0  0  0  0  0
   -1.7225   -2.6590    0.2209 C   0  0  0  0  0  0  0  0  0  0  0  0
   -3.0694   -2.7322    0.7995 C   0  0  0  0  0  0  0  0  0  0  0  0
   -5.0596   -1.5392    1.1725 C   0  0  0  0  0  0  0  0  0  0  0  0
   -0.2731    3.5535    0.0518 H   0  0  0  0  0  0  0  0  0  0  0  0
    2.5987    1.1697    2.0253 H   0  0  0  0  0  0  0  0  0  0  0  0
    4.2873    2.2423    0.4305 H   0  0  0  0  0  0  0  0  0  0  0  0
   -1.6566    3.1501    2.0274 H   0  0  0  0  0  0  0  0  0  0  0  0
   -2.3691    1.7164    1.2890 H   0  0  0  0  0  0  0  0  0  0  0  0
   -1.4759    0.9841   -1.1240 H   0  0  0  0  0  0  0  0  0  0  0  0
   -0.2319    1.9698   -1.8859 H   0  0  0  0  0  0  0  0  0  0  0  0
    1.9006    2.9197    0.4478 H   0  0  0  0  0  0  0  0  0  0  0  0
    1.6162    1.7216   -0.8104 H   0  0  0  0  0  0  0  0  0  0  0  0
    1.6865   -0.4249   -1.1696 H   0  0  0  0  0  0  0  0  0  0  0  0
    5.3434    0.5715   -1.1840 H   0  0  0  0  0  0  0  0  0  0  0  0
    3.7529    1.1412   -1.6944 H   0  0  0  0  0  0  0  0  0  0  0  0
    4.4276   -1.5009   -0.3324 H   0  0  0  0  0  0  0  0  0  0  0  0
    3.8636   -1.2784   -1.9915 H   0  0  0  0  0  0  0  0  0  0  0  0
    0.2723    1.8140    1.8041 H   0  0  0  0  0  0  0  0  0  0  0  0
   -2.6359    4.6006    0.3141 H   0  0  0  0  0  0  0  0  0  0  0  0
   -3.8978    3.6109    1.0440 H   0  0  0  0  0  0  0  0  0  0  0  0
   -2.4671    2.4353   -2.8267 H   0  0  0  0  0  0  0  0  0  0  0  0
   -1.7441    3.8682   -2.0989 H   0  0  0  0  0  0  0  0  0  0  0  0
   -4.1040    3.7278   -1.4461 H   0  0  0  0  0  0  0  0  0  0  0  0
   -3.8938    2.0767   -0.8671 H   0  0  0  0  0  0  0  0  0  0  0  0
    2.2828   -2.9114    0.4941 H   0  0  0  0  0  0  0  0  0  0  0  0
    2.2415   -2.9872   -1.2697 H   0  0  0  0  0  0  0  0  0  0  0  0
    5.8539    0.7411    1.0531 H   0  0  0  0  0  0  0  0  0  0  0  0
   -0.2004   -2.4738    1.7989 H   0  0  0  0  0  0  0  0  0  0  0  0
   -3.6386   -3.5346    0.3152 H   0  0  0  0  0  0  0  0  0  0  0  0
   -3.0049   -2.9565    1.8709 H   0  0  0  0  0  0  0  0  0  0  0  0
   -5.5393   -0.5701    1.0101 H   0  0  0  0  0  0  0  0  0  0  0  0
   -5.0151   -1.7286    2.2494 H   0  0  0  0  0  0  0  0  0  0  0  0
   -5.6583   -2.3106    0.6786 H   0  0  0  0  0  0  0  0  0  0  0  0
  1  8  1  0  0  0  0
  1 13  1  0  0  0  0
  2  9  1  0  0  0  0
  2 48  1  0  0  0  0
  3  6  1  0  0  0  0
  3 22  1  0  0  0  0
  4 23  1  0  0  0  0
  4 24  1  0  0  0  0
  5  7  1  0  0  0  0
  5 12  1  0  0  0  0
  5 39  1  0  0  0  0
  6 20  2  0  0  0  0
  7 10  1  0  0  0  0
  7 11  1  0  0  0  0
  7 25  1  0  0  0  0
  8  9  1  0  0  0  0
  8 12  1  0  0  0  0
  8 26  1  0  0  0  0
  9 14  1  0  0  0  0
  9 27  1  0  0  0  0
 10 16  1  0  0  0  0
 10 28  1  0  0  0  0
 10 29  1  0  0  0  0
 11 17  1  0  0  0  0
 11 30  1  0  0  0  0
 11 31  1  0  0  0  0
 12 32  1  0  0  0  0
 12 33  1  0  0  0  0
 13 15  1  0  0  0  0
 13 19  1  0  0  0  0
 13 34  1  0  0  0  0
 14 15  1  0  0  0  0
 14 35  1  0  0  0  0
 14 36  1  0  0  0  0
 15 37  1  0  0  0  0
 15 38  1  0  0  0  0
 16 18  1  0  0  0  0
 16 40  1  0  0  0  0
 16 41  1  0  0  0  0
 17 18  1  0  0  0  0
 17 42  1  0  0  0  0
 17 43  1  0  0  0  0
 18 44  1  0  0  0  0
 18 45  1  0  0  0  0
 19 20  1  0  0  0  0
 19 46  1  0  0  0  0
 19 47  1  0  0  0  0
 20 21  1  0  0  0  0
 21 22  2  0  0  0  0
 21 49  1  0  0  0  0
 22 23  1  0  0  0  0
 23 50  1  0  0  0  0
 23 51  1  0  0  0  0
 24 52  1  0  0  0  0
 24 53  1  0  0  0  0
 24 54  1  0  0  0  0
M  END
> <PUBCHEM_COMPOUND_CID>
75536291

> <PUBCHEM_CONFORMER_RMSD>
1

> <PUBCHEM_CONFORMER_DIVERSEORDER>
1
20
4
81
19
70
23
16
47
54
63
78
53
2
74
58
89
71
67
84
6
28
76
44
57
38
69
87
30
65
77
26
51
34
7
82
62
10
59
31
56
36
12
75
79
50
49
9
86
64
41
73
72
48
55
39
3
46
37
66
42
8
35
27
14
21
33
83
68
25
11
80
29
17
40
90
24
45
18
13
32
22
15
52
61
85
5
88
60
43

> <PUBCHEM_MMFF94_PARTIAL_CHARGES>
20
1 -0.56
12 0.27
13 0.28
19 0.18
2 -0.68
20 0.11
21 -0.15
22 -0.04
23 0.46
24 0.28
3 -0.02
39 0.36
4 -0.56
48 0.4
49 0.15
5 -0.9
6 -0.41
7 0.27
8 0.28
9 0.28

> <PUBCHEM_EFFECTIVE_ROTOR_COUNT>
9.4

> <PUBCHEM_PHARMACOPHORE_FEATURES>
10
1 1 acceptor
1 2 acceptor
1 2 donor
1 4 acceptor
1 5 cation
1 5 donor
1 6 acceptor
5 3 6 20 21 22 rings
6 1 8 9 13 14 15 rings
6 7 10 11 16 17 18 rings

> <PUBCHEM_HEAVY_ATOM_COUNT>
24

> <PUBCHEM_ATOM_DEF_STEREO_COUNT>
3

> <PUBCHEM_ATOM_UDEF_STEREO_COUNT>
0

> <PUBCHEM_BOND_DEF_STEREO_COUNT>
0

> <PUBCHEM_BOND_UDEF_STEREO_COUNT>
0

> <PUBCHEM_ISOTOPIC_ATOM_COUNT>
0

> <PUBCHEM_COMPONENT_COUNT>
1

> <PUBCHEM_CACTVS_TAUTO_COUNT>
1

> <PUBCHEM_CONFORMER_ID>
048097A300000001

> <PUBCHEM_MMFF94_ENERGY>
26.0713

> <PUBCHEM_FEATURE_SELFOVERLAP>
50.748

> <PUBCHEM_SHAPE_FINGERPRINT>
10006869 2 18337102364038389123
10064457 181 18194975041160913468
104564 63 18337670922844019966
10688039 33 18187931737129398115
12156800 1 17977990918196942173
12293681 25 17343805698631224334
12293681 4 18043538419809227394
12422481 6 18194149389764480345
12788726 201 18190746521461938840
13075007 39 17682421461218662131
13140716 1 18050563251169947562
13402501 40 18411702089083378979
14363568 33 17470470876500605281
14790565 3 16897649588820936000
15210252 30 17755596175843896108
17138139 8 17695860636904236437
17357779 13 18340761662714179295
19930381 70 16824472087040624769
21285901 2 18200330921044782406
22113638 7 17981891057876725483
22182313 1 18131355211529726502
2255824 54 17765989498547280228
238 59 17833835962686712328
3052486 1 18333732412237812060
4409770 3 18267846432848690374
469060 322 17895487989517770657
5047190 48 17548972707762407849
653340 110 18413393120428625817
81228 2 18336265764279714144

> <PUBCHEM_SHAPE_MULTIPOLES>
460.47
8.18
5.33
1.42
2.22
0.36
0.3
-1.3
-1.52
-6.2
0.5
-0.23
-0.35
1.86

> <PUBCHEM_SHAPE_SELFOVERLAP>
938.857

> <PUBCHEM_SHAPE_VOLUME>
266.1

> <PUBCHEM_COORDINATE_TYPE>
2
5
10

$$$$
