11912462
  -OEChem-12032416113D

 54 55  0     1  0  0  0  0  0999 V2000
    2.1592   -2.2149    0.0570 S   0  0  0  0  0  0  0  0  0  0  0  0
    2.4813   -3.1013   -1.0402 O   0  0  0  0  0  0  0  0  0  0  0  0
    2.1154   -2.6987    1.4199 O   0  0  0  0  0  0  0  0  0  0  0  0
   -2.8677    2.5411    0.4896 O   0  0  0  0  0  0  0  0  0  0  0  0
    5.9053    2.3352   -0.1374 O   0  0  0  0  0  0  0  0  0  0  0  0
    0.6891   -1.4059   -0.2923 N   0  0  1  0  0  0  0  0  0  0  0  0
   -4.9285    1.6116   -0.0294 N   0  0  0  0  0  0  0  0  0  0  0  0
   -5.8671   -1.6590    0.3857 N   0  0  0  0  0  0  0  0  0  0  0  0
   -1.3200   -0.2022    0.5392 C   0  0  2  0  0  0  0  0  0  0  0  0
   -1.4483    0.4905   -0.8393 C   0  0  1  0  0  0  0  0  0  0  0  0
   -0.7992   -0.3479   -1.9510 C   0  0  0  0  0  0  0  0  0  0  0  0
    0.1509   -0.5560    0.8116 C   0  0  0  0  0  0  0  0  0  0  0  0
    0.6429   -0.7080   -1.6087 C   0  0  0  0  0  0  0  0  0  0  0  0
   -2.2108   -1.4405    0.7027 C   0  0  0  0  0  0  0  0  0  0  0  0
   -2.8903    0.8440   -1.2027 C   0  0  0  0  0  0  0  0  0  0  0  0
   -2.1400   -1.9814    2.1149 C   0  0  0  0  0  0  0  0  0  0  0  0
   -3.5432    1.7464   -0.1698 C   0  0  0  0  0  0  0  0  0  0  0  0
    3.2804   -0.8528   -0.0014 C   0  0  0  0  0  0  0  0  0  0  0  0
    3.5375   -0.1359    1.1559 C   0  0  0  0  0  0  0  0  0  0  0  0
    3.8850   -0.5228   -1.2034 C   0  0  0  0  0  0  0  0  0  0  0  0
   -5.7074    0.6630   -0.8219 C   0  0  0  0  0  0  0  0  0  0  0  0
   -5.6991    2.4075    0.9183 C   0  0  0  0  0  0  0  0  0  0  0  0
    4.4234    0.9407    1.1099 C   0  0  0  0  0  0  0  0  0  0  0  0
    4.7710    0.5536   -1.2494 C   0  0  0  0  0  0  0  0  0  0  0  0
    5.0402    1.2854   -0.0927 C   0  0  0  0  0  0  0  0  0  0  0  0
   -5.7952   -0.6309   -0.1473 C   0  0  0  0  0  0  0  0  0  0  0  0
    6.1354    3.0391    1.0820 C   0  0  0  0  0  0  0  0  0  0  0  0
   -1.6127    0.5167    1.3151 H   0  0  0  0  0  0  0  0  0  0  0  0
   -0.8809    1.4311   -0.7786 H   0  0  0  0  0  0  0  0  0  0  0  0
   -1.3756   -1.2667   -2.1151 H   0  0  0  0  0  0  0  0  0  0  0  0
   -0.8160    0.2079   -2.8963 H   0  0  0  0  0  0  0  0  0  0  0  0
    0.2699   -1.0427    1.7815 H   0  0  0  0  0  0  0  0  0  0  0  0
    0.7270    0.3766    0.8576 H   0  0  0  0  0  0  0  0  0  0  0  0
    1.0345   -1.3584   -2.3973 H   0  0  0  0  0  0  0  0  0  0  0  0
    1.2380    0.2104   -1.5793 H   0  0  0  0  0  0  0  0  0  0  0  0
   -1.9498   -2.2307   -0.0091 H   0  0  0  0  0  0  0  0  0  0  0  0
   -3.2478   -1.1717    0.5169 H   0  0  0  0  0  0  0  0  0  0  0  0
   -2.9088    1.3910   -2.1538 H   0  0  0  0  0  0  0  0  0  0  0  0
   -3.4298   -0.0886   -1.3644 H   0  0  0  0  0  0  0  0  0  0  0  0
   -2.9371   -2.7176    2.2673 H   0  0  0  0  0  0  0  0  0  0  0  0
   -2.2742   -1.1918    2.8610 H   0  0  0  0  0  0  0  0  0  0  0  0
   -1.1970   -2.4988    2.3125 H   0  0  0  0  0  0  0  0  0  0  0  0
    3.0647   -0.3862    2.1007 H   0  0  0  0  0  0  0  0  0  0  0  0
    3.6889   -1.0777   -2.1157 H   0  0  0  0  0  0  0  0  0  0  0  0
   -6.7138    1.0774   -0.9582 H   0  0  0  0  0  0  0  0  0  0  0  0
   -5.2991    0.5636   -1.8312 H   0  0  0  0  0  0  0  0  0  0  0  0
   -5.0467    3.0672    1.4962 H   0  0  0  0  0  0  0  0  0  0  0  0
   -6.4198    3.0177    0.3662 H   0  0  0  0  0  0  0  0  0  0  0  0
   -6.2269    1.7395    1.6049 H   0  0  0  0  0  0  0  0  0  0  0  0
    4.5862    1.4663    2.0447 H   0  0  0  0  0  0  0  0  0  0  0  0
    5.2483    0.8177   -2.1892 H   0  0  0  0  0  0  0  0  0  0  0  0
    6.6002    2.3956    1.8367 H   0  0  0  0  0  0  0  0  0  0  0  0
    6.8484    3.8408    0.8629 H   0  0  0  0  0  0  0  0  0  0  0  0
    5.2209    3.5166    1.4499 H   0  0  0  0  0  0  0  0  0  0  0  0
  1  2  2  0  0  0  0
  1  3  2  0  0  0  0
  1  6  1  0  0  0  0
  1 18  1  0  0  0  0
  4 17  2  0  0  0  0
  5 25  1  0  0  0  0
  5 27  1  0  0  0  0
  6 12  1  0  0  0  0
  6 13  1  0  0  0  0
  7 17  1  0  0  0  0
  7 21  1  0  0  0  0
  7 22  1  0  0  0  0
  8 26  3  0  0  0  0
  9 10  1  0  0  0  0
  9 12  1  0  0  0  0
  9 14  1  0  0  0  0
  9 28  1  0  0  0  0
 10 11  1  0  0  0  0
 10 15  1  0  0  0  0
 10 29  1  0  0  0  0
 11 13  1  0  0  0  0
 11 30  1  0  0  0  0
 11 31  1  0  0  0  0
 12 32  1  0  0  0  0
 12 33  1  0  0  0  0
 13 34  1  0  0  0  0
 13 35  1  0  0  0  0
 14 16  1  0  0  0  0
 14 36  1  0  0  0  0
 14 37  1  0  0  0  0
 15 17  1  0  0  0  0
 15 38  1  0  0  0  0
 15 39  1  0  0  0  0
 16 40  1  0  0  0  0
 16 41  1  0  0  0  0
 16 42  1  0  0  0  0
 18 19  2  0  0  0  0
 18 20  1  0  0  0  0
 19 23  1  0  0  0  0
 19 43  1  0  0  0  0
 20 24  2  0  0  0  0
 20 44  1  0  0  0  0
 21 26  1  0  0  0  0
 21 45  1  0  0  0  0
 21 46  1  0  0  0  0
 22 47  1  0  0  0  0
 22 48  1  0  0  0  0
 22 49  1  0  0  0  0
 23 25  2  0  0  0  0
 23 50  1  0  0  0  0
 24 25  1  0  0  0  0
 24 51  1  0  0  0  0
 27 52  1  0  0  0  0
 27 53  1  0  0  0  0
 27 54  1  0  0  0  0
M  END
> <PUBCHEM_COMPOUND_CID>
11912462

> <PUBCHEM_CONFORMER_RMSD>
1

> <PUBCHEM_CONFORMER_DIVERSEORDER>
3
201
76
228
189
92
108
251
220
217
213
352
105
172
164
231
321
62
246
295
237
143
10
136
287
63
349
132
114
316
36
275
327
116
243
154
207
195
277
53
282
254
334
268
286
253
353
278
21
168
173
148
239
144
216
81
293
236
122
271
188
115
212
34
1
167
39
319
323
329
64
247
73
259
270
147
45
70
111
233
160
89
197
46
223
75
149
127
240
265
72
191
38
260
343
141
119
279
337
273
190
205
304
103
140
241
186
74
206
312
280
71
77
347
314
192
234
159
79
130
199
338
307
290
91
320
49
226
296
264
61
87
285
328
229
117
303
187
342
169
292
297
261
272
138
60
137
66
194
225
162
32
221
161
283
267
50
306
131
153
250
203
109
23
142
182
146
263
82
238
310
176
126
29
325
33
40
86
262
129
341
257
289
211
330
215
44
219
163
185
59
96
198
100
181
288
55
244
269
305
158
256
227
56
318
350
19
151
175
110
255
107
12
113
156
209
97
128
196
98
248
214
313
104
276
333
99
11
134
165
150
139
348
26
155
69
332
274
331
58
121
57
80
298
83
351
184
345
340
78
124
311
335
174
5
112
85
245
41
84
235
42
133
157
183
179
54
193
48
210
346
118
309
326
177
224
322
222
218
28
339
90
120
166
294
135
6
171
31
20
208
35
15
65
101
200
102
27
18
180
30
52
2
4
178
252
9
336
106
43
123
258
242
93
14
344
145
291
281
202
170
299
204
232
7
230
24
315
94
16
88
37
249
301
51
25
302
13
67
324
266
8
22
47
95
125
284
308
152
17
300
68
317

> <PUBCHEM_MMFF94_PARTIAL_CHARGES>
26
1 1.45
12 0.36
13 0.36
15 0.06
17 0.57
18 -0.01
19 -0.15
2 -0.65
20 -0.15
21 0.5
22 0.3
23 -0.15
24 -0.15
25 0.08
26 0.36
27 0.28
3 -0.65
4 -0.57
43 0.15
44 0.15
5 -0.36
50 0.15
51 0.15
6 -0.85
7 -0.66
8 -0.56

> <PUBCHEM_EFFECTIVE_ROTOR_COUNT>
9.2

> <PUBCHEM_PHARMACOPHORE_FEATURES>
8
1 16 hydrophobe
1 2 acceptor
1 3 acceptor
1 4 acceptor
1 5 acceptor
1 8 acceptor
6 18 19 20 23 24 25 rings
6 6 9 10 11 12 13 rings

> <PUBCHEM_HEAVY_ATOM_COUNT>
27

> <PUBCHEM_ATOM_DEF_STEREO_COUNT>
2

> <PUBCHEM_ATOM_UDEF_STEREO_COUNT>
0

> <PUBCHEM_BOND_DEF_STEREO_COUNT>
0

> <PUBCHEM_BOND_UDEF_STEREO_COUNT>
0

> <PUBCHEM_ISOTOPIC_ATOM_COUNT>
0

> <PUBCHEM_COMPONENT_COUNT>
1

> <PUBCHEM_CACTVS_TAUTO_COUNT>
1

> <PUBCHEM_CONFORMER_ID>
00B5C50E00000003

> <PUBCHEM_MMFF94_ENERGY>
62.0481

> <PUBCHEM_FEATURE_SELFOVERLAP>
40.616

> <PUBCHEM_SHAPE_FINGERPRINT>
11135609 201 18268416005694793624
11578080 2 18337405871569263043
11796584 16 10737293437025410069
12403259 415 18338248154144001118
12422481 6 15864344701808219455
12596602 18 18341614802244010181
12633257 1 16732984262792474020
12730499 353 18343305872887235446
13955234 65 18190459359890980554
14251751 18 7997966869033374521
14257110 125 18411135870734185636
14787075 74 18335136471475353457
14849402 71 18335417921177931178
14955137 171 12319156474533256807
15183329 4 10303812077623699941
15510800 12 11171003496017056792
17349148 13 16732994085271799727
17980427 23 17749673003319792790
19377110 9 18336250302091746495
20511986 3 17967521360293745999
21033648 29 18267296711853918712
21641784 216 15482390838113916561
23559900 14 18041858202870261742
3246875 12 18339077215174327112
34797466 226 18060706061379142733
4340502 62 18114181904206649515
44062 13 10375882865484637264
5104073 3 18114464474489711667
6913067 236 16732698337981640503
8988823 20 14634875257794353878
960060 61 12031494523895957800

> <PUBCHEM_SHAPE_MULTIPOLES>
521.08
15.07
3.07
1.6
3.05
0.29
0.04
10.78
-1.47
-1.45
-1
-0.3
-0.43
1.06

> <PUBCHEM_SHAPE_SELFOVERLAP>
1054.991

> <PUBCHEM_SHAPE_VOLUME>
304.7

> <PUBCHEM_COORDINATE_TYPE>
2
5
10

$$$$
