11887353
  -OEChem-12032416283D

 54 58  0     1  0  0  0  0  0999 V2000
   -1.7259   -5.2643   -0.7590 F   0  0  0  0  0  0  0  0  0  0  0  0
    0.9274    2.5346    1.2778 O   0  0  0  0  0  0  0  0  0  0  0  0
   -3.2351   -0.2380    2.6024 O   0  0  0  0  0  0  0  0  0  0  0  0
    2.9039   -1.1717   -1.1437 O   0  0  0  0  0  0  0  0  0  0  0  0
   -3.6365    0.6798    0.4878 N   0  0  0  0  0  0  0  0  0  0  0  0
   -0.8955    2.1507   -0.1324 N   0  0  0  0  0  0  0  0  0  0  0  0
    2.6007    0.9331   -0.2008 N   0  0  0  0  0  0  0  0  0  0  0  0
   -3.2212    3.1274    0.3144 C   0  0  1  0  0  0  0  0  0  0  0  0
   -2.8551    1.6830   -1.6453 C   0  0  2  0  0  0  0  0  0  0  0  0
   -3.3922    3.0417   -1.1984 C   0  0  0  0  0  0  0  0  0  0  0  0
   -4.0026    1.9969    1.0080 C   0  0  0  0  0  0  0  0  0  0  0  0
   -1.7243    3.0824    0.6458 C   0  0  0  0  0  0  0  0  0  0  0  0
   -3.6738    0.5592   -0.9787 C   0  0  0  0  0  0  0  0  0  0  0  0
   -1.3895    1.5302   -1.2845 C   0  0  0  0  0  0  0  0  0  0  0  0
   -0.5805    0.7739   -2.0452 C   0  0  0  0  0  0  0  0  0  0  0  0
    0.4429    1.9959    0.2816 C   0  0  0  0  0  0  0  0  0  0  0  0
   -3.2683   -0.3328    1.3768 C   0  0  0  0  0  0  0  0  0  0  0  0
    1.3041    1.1231   -0.5779 C   0  0  0  0  0  0  0  0  0  0  0  0
    0.7928    0.5673   -1.6813 C   0  0  0  0  0  0  0  0  0  0  0  0
   -2.8639   -1.6260    0.8157 C   0  0  0  0  0  0  0  0  0  0  0  0
   -1.5263   -1.8590    0.5061 C   0  0  0  0  0  0  0  0  0  0  0  0
   -3.8190   -2.6154    0.5963 C   0  0  0  0  0  0  0  0  0  0  0  0
    3.3272   -0.2093   -0.5079 C   0  0  0  0  0  0  0  0  0  0  0  0
   -1.1414   -3.0895   -0.0263 C   0  0  0  0  0  0  0  0  0  0  0  0
   -3.4340   -3.8459    0.0641 C   0  0  0  0  0  0  0  0  0  0  0  0
   -2.0952   -4.0830   -0.2472 C   0  0  0  0  0  0  0  0  0  0  0  0
    4.7345   -0.2256   -0.0308 C   0  0  0  0  0  0  0  0  0  0  0  0
    5.6617   -0.9806   -0.7182 C   0  0  0  0  0  0  0  0  0  0  0  0
    5.0677    0.5146    1.0840 C   0  0  0  0  0  0  0  0  0  0  0  0
    6.9827   -0.9960   -0.2701 C   0  0  0  0  0  0  0  0  0  0  0  0
    6.3887    0.4994    1.5320 C   0  0  0  0  0  0  0  0  0  0  0  0
    7.3460   -0.2560    0.8549 C   0  0  0  0  0  0  0  0  0  0  0  0
   -3.6260    4.0804    0.6768 H   0  0  0  0  0  0  0  0  0  0  0  0
   -2.9804    1.6056   -2.7331 H   0  0  0  0  0  0  0  0  0  0  0  0
   -2.8515    3.8569   -1.6955 H   0  0  0  0  0  0  0  0  0  0  0  0
   -4.4497    3.1444   -1.4706 H   0  0  0  0  0  0  0  0  0  0  0  0
   -3.8509    2.0415    2.0917 H   0  0  0  0  0  0  0  0  0  0  0  0
   -5.0774    2.1214    0.8277 H   0  0  0  0  0  0  0  0  0  0  0  0
   -1.2955    4.0779    0.4664 H   0  0  0  0  0  0  0  0  0  0  0  0
   -1.5731    2.8774    1.7131 H   0  0  0  0  0  0  0  0  0  0  0  0
   -4.7273    0.6356   -1.2753 H   0  0  0  0  0  0  0  0  0  0  0  0
   -3.3214   -0.4186   -1.3157 H   0  0  0  0  0  0  0  0  0  0  0  0
   -0.9435    0.2741   -2.9372 H   0  0  0  0  0  0  0  0  0  0  0  0
    1.3632   -0.0261   -2.3853 H   0  0  0  0  0  0  0  0  0  0  0  0
    2.9644    1.6189    0.4517 H   0  0  0  0  0  0  0  0  0  0  0  0
   -0.7741   -1.0961    0.6846 H   0  0  0  0  0  0  0  0  0  0  0  0
   -4.8646   -2.4404    0.8352 H   0  0  0  0  0  0  0  0  0  0  0  0
   -0.0986   -3.2743   -0.2673 H   0  0  0  0  0  0  0  0  0  0  0  0
   -4.1764   -4.6195   -0.1084 H   0  0  0  0  0  0  0  0  0  0  0  0
    5.3964   -1.5580   -1.5987 H   0  0  0  0  0  0  0  0  0  0  0  0
    4.3538    1.0815    1.6707 H   0  0  0  0  0  0  0  0  0  0  0  0
    7.7285   -1.5835   -0.7976 H   0  0  0  0  0  0  0  0  0  0  0  0
    6.6704    1.0673    2.4141 H   0  0  0  0  0  0  0  0  0  0  0  0
    8.3740   -0.2696    1.2051 H   0  0  0  0  0  0  0  0  0  0  0  0
  1 26  1  0  0  0  0
  2 16  2  0  0  0  0
  3 17  2  0  0  0  0
  4 23  2  0  0  0  0
  5 11  1  0  0  0  0
  5 13  1  0  0  0  0
  5 17  1  0  0  0  0
  6 12  1  0  0  0  0
  6 14  1  0  0  0  0
  6 16  1  0  0  0  0
  7 18  1  0  0  0  0
  7 23  1  0  0  0  0
  7 45  1  0  0  0  0
  8 10  1  0  0  0  0
  8 11  1  0  0  0  0
  8 12  1  0  0  0  0
  8 33  1  0  0  0  0
  9 10  1  0  0  0  0
  9 13  1  0  0  0  0
  9 14  1  0  0  0  0
  9 34  1  0  0  0  0
 10 35  1  0  0  0  0
 10 36  1  0  0  0  0
 11 37  1  0  0  0  0
 11 38  1  0  0  0  0
 12 39  1  0  0  0  0
 12 40  1  0  0  0  0
 13 41  1  0  0  0  0
 13 42  1  0  0  0  0
 14 15  2  0  0  0  0
 15 19  1  0  0  0  0
 15 43  1  0  0  0  0
 16 18  1  0  0  0  0
 17 20  1  0  0  0  0
 18 19  2  0  0  0  0
 19 44  1  0  0  0  0
 20 21  2  0  0  0  0
 20 22  1  0  0  0  0
 21 24  1  0  0  0  0
 21 46  1  0  0  0  0
 22 25  2  0  0  0  0
 22 47  1  0  0  0  0
 23 27  1  0  0  0  0
 24 26  2  0  0  0  0
 24 48  1  0  0  0  0
 25 26  1  0  0  0  0
 25 49  1  0  0  0  0
 27 28  2  0  0  0  0
 27 29  1  0  0  0  0
 28 30  1  0  0  0  0
 28 50  1  0  0  0  0
 29 31  2  0  0  0  0
 29 51  1  0  0  0  0
 30 32  2  0  0  0  0
 30 52  1  0  0  0  0
 31 32  1  0  0  0  0
 31 53  1  0  0  0  0
 32 54  1  0  0  0  0
M  END
> <PUBCHEM_COMPOUND_CID>
11887353

> <PUBCHEM_CONFORMER_RMSD>
0.8

> <PUBCHEM_CONFORMER_DIVERSEORDER>
1
8
10
6
15
9
5
7
12
3
14
4
11
13
2

> <PUBCHEM_MMFF94_PARTIAL_CHARGES>
42
1 -0.19
11 0.3
12 0.3
13 0.3
14 -0.03
15 -0.15
16 0.62
17 0.54
18 0.12
19 -0.15
2 -0.57
20 0.09
21 -0.15
22 -0.15
23 0.54
24 -0.15
25 -0.15
26 0.19
27 0.09
28 -0.15
29 -0.15
3 -0.57
30 -0.15
31 -0.15
32 -0.15
4 -0.57
43 0.15
44 0.15
45 0.37
46 0.15
47 0.15
48 0.15
49 0.15
5 -0.66
50 0.15
51 0.15
52 0.15
53 0.15
54 0.15
6 -0.47
7 -0.54
9 0.14

> <PUBCHEM_EFFECTIVE_ROTOR_COUNT>
6

> <PUBCHEM_PHARMACOPHORE_FEATURES>
9
1 2 acceptor
1 3 acceptor
1 4 acceptor
1 7 donor
6 20 21 22 24 25 26 rings
6 27 28 29 30 31 32 rings
6 5 8 9 10 11 13 rings
6 6 14 15 16 18 19 rings
6 6 8 9 10 12 14 rings

> <PUBCHEM_HEAVY_ATOM_COUNT>
32

> <PUBCHEM_ATOM_DEF_STEREO_COUNT>
2

> <PUBCHEM_ATOM_UDEF_STEREO_COUNT>
0

> <PUBCHEM_BOND_DEF_STEREO_COUNT>
0

> <PUBCHEM_BOND_UDEF_STEREO_COUNT>
0

> <PUBCHEM_ISOTOPIC_ATOM_COUNT>
0

> <PUBCHEM_COMPONENT_COUNT>
1

> <PUBCHEM_CACTVS_TAUTO_COUNT>
2

> <PUBCHEM_CONFORMER_ID>
00B562F900000001

> <PUBCHEM_MMFF94_ENERGY>
97.8459

> <PUBCHEM_FEATURE_SELFOVERLAP>
47.254

> <PUBCHEM_SHAPE_FINGERPRINT>
10290309 65 18265902354140909702
10483366 6 18337092554797192471
11014199 57 17977108182074971002
11112241 14 18059571321960190604
11135609 149 17405403982104510711
11513181 2 18198621030019013967
11524674 6 18336542712176200517
12633257 1 18128560295415385833
12712778 12 18408039628303739750
13004483 165 18192999446620352687
14114206 34 16153972634368794133
14659021 117 18269821133940841565
14674994 50 18263067946735258015
14844126 61 18335702771202683187
14856354 85 18413390943228373220
14950920 106 17988933317998807144
15183329 4 8790882982993783124
15348495 7 18342734127199455792
19611394 137 18271802463402063248
20511986 3 17458894947685238336
20775530 9 17762353800109854007
23559900 14 18336819909213321909
3383291 50 18411135849153925531
3459 110 18269551805453748296
397830 11 18269544092288519000
4073 2 18341044143731303094
4409770 3 18335134280973246573
484985 159 18261944224123821135
5080951 261 17968916649007167092
5085150 59 18336254648888586159
5364581 5 18268420403952756352
9981440 41 18192716648735744801

> <PUBCHEM_SHAPE_MULTIPOLES>
618.72
13.48
4.88
1.64
33.48
5.34
-0.09
1.9
-3.72
-8.51
0.38
-0.56
-0.52
1.01

> <PUBCHEM_SHAPE_SELFOVERLAP>
1372.014

> <PUBCHEM_SHAPE_VOLUME>
327.7

> <PUBCHEM_COORDINATE_TYPE>
2
5
10

$$$$
