71693012
  -OEChem-12032416303D

 48 50  0     1  0  0  0  0  0999 V2000
   -4.1431   -0.2018    2.1585 N   0  0  0  0  0  0  0  0  0  0  0  0
    1.8053    0.4759    0.8625 N   0  0  0  0  0  0  0  0  0  0  0  0
    2.2967   -1.4730   -0.0971 N   0  0  0  0  0  0  0  0  0  0  0  0
    4.6261   -0.9868   -0.5775 N   0  0  0  0  0  0  0  0  0  0  0  0
   -2.4244    0.8683   -0.0628 C   0  0  2  0  0  0  0  0  0  0  0  0
   -1.2657    0.3381   -0.9209 C   0  0  0  0  0  0  0  0  0  0  0  0
   -3.6826   -0.0166   -0.2471 C   0  0  1  0  0  0  0  0  0  0  0  0
   -0.8965   -1.1150   -0.5677 C   0  0  2  0  0  0  0  0  0  0  0  0
   -2.7027    2.3329   -0.4148 C   0  0  0  0  0  0  0  0  0  0  0  0
   -2.1231   -1.9990   -0.4664 C   0  0  0  0  0  0  0  0  0  0  0  0
   -3.3611   -1.4900   -0.3370 C   0  0  0  0  0  0  0  0  0  0  0  0
   -0.0677   -1.1768    0.7202 C   0  0  0  0  0  0  0  0  0  0  0  0
   -4.6936    0.2175    0.8812 C   0  0  0  0  0  0  0  0  0  0  0  0
   -1.7208    3.2497    0.3079 C   0  0  0  0  0  0  0  0  0  0  0  0
   -2.6266    2.5411   -1.9240 C   0  0  0  0  0  0  0  0  0  0  0  0
   -1.8984   -3.4824   -0.5631 C   0  0  0  0  0  0  0  0  0  0  0  0
    1.3542   -0.7582    0.4782 C   0  0  0  0  0  0  0  0  0  0  0  0
    3.1250    0.5611    0.5111 C   0  0  0  0  0  0  0  0  0  0  0  0
    3.4048   -0.6638   -0.0838 C   0  0  0  0  0  0  0  0  0  0  0  0
    4.0904    1.5532    0.6433 C   0  0  0  0  0  0  0  0  0  0  0  0
    5.3496    1.2361    0.1407 C   0  0  0  0  0  0  0  0  0  0  0  0
    5.5542   -0.0104   -0.4413 C   0  0  0  0  0  0  0  0  0  0  0  0
   -2.1137    0.8261    0.9878 H   0  0  0  0  0  0  0  0  0  0  0  0
   -0.3842    0.9825   -0.8492 H   0  0  0  0  0  0  0  0  0  0  0  0
   -1.5501    0.3191   -1.9813 H   0  0  0  0  0  0  0  0  0  0  0  0
   -4.1802    0.2443   -1.1897 H   0  0  0  0  0  0  0  0  0  0  0  0
   -0.2888   -1.4949   -1.4019 H   0  0  0  0  0  0  0  0  0  0  0  0
   -3.7053    2.6227   -0.0843 H   0  0  0  0  0  0  0  0  0  0  0  0
   -4.2098   -2.1711   -0.3175 H   0  0  0  0  0  0  0  0  0  0  0  0
   -0.0239   -2.2018    1.1084 H   0  0  0  0  0  0  0  0  0  0  0  0
   -0.5105   -0.5766    1.5228 H   0  0  0  0  0  0  0  0  0  0  0  0
   -5.6134   -0.3482    0.6874 H   0  0  0  0  0  0  0  0  0  0  0  0
   -4.9875    1.2689    0.9438 H   0  0  0  0  0  0  0  0  0  0  0  0
   -0.6831    3.0613    0.0155 H   0  0  0  0  0  0  0  0  0  0  0  0
   -1.7949    3.1251    1.3936 H   0  0  0  0  0  0  0  0  0  0  0  0
   -1.9405    4.2991    0.0822 H   0  0  0  0  0  0  0  0  0  0  0  0
   -1.6029    2.5110   -2.3116 H   0  0  0  0  0  0  0  0  0  0  0  0
   -3.0078    3.5403   -2.1686 H   0  0  0  0  0  0  0  0  0  0  0  0
   -3.2449    1.8306   -2.4806 H   0  0  0  0  0  0  0  0  0  0  0  0
   -1.3535   -3.7249   -1.4813 H   0  0  0  0  0  0  0  0  0  0  0  0
   -1.3225   -3.8496    0.2909 H   0  0  0  0  0  0  0  0  0  0  0  0
   -2.8410   -4.0399   -0.5858 H   0  0  0  0  0  0  0  0  0  0  0  0
   -3.9825   -1.2078    2.1641 H   0  0  0  0  0  0  0  0  0  0  0  0
   -4.8250   -0.0242    2.8950 H   0  0  0  0  0  0  0  0  0  0  0  0
    1.2618    1.1959    1.3201 H   0  0  0  0  0  0  0  0  0  0  0  0
    3.8799    2.5098    1.1054 H   0  0  0  0  0  0  0  0  0  0  0  0
    6.1614    1.9536    0.2027 H   0  0  0  0  0  0  0  0  0  0  0  0
    6.5340   -0.2661   -0.8361 H   0  0  0  0  0  0  0  0  0  0  0  0
  1 13  1  0  0  0  0
  1 43  1  0  0  0  0
  1 44  1  0  0  0  0
  2 17  1  0  0  0  0
  2 18  1  0  0  0  0
  2 45  1  0  0  0  0
  3 17  2  0  0  0  0
  3 19  1  0  0  0  0
  4 19  1  0  0  0  0
  4 22  2  0  0  0  0
  5  6  1  0  0  0  0
  5  7  1  0  0  0  0
  5  9  1  0  0  0  0
  5 23  1  0  0  0  0
  6  8  1  0  0  0  0
  6 24  1  0  0  0  0
  6 25  1  0  0  0  0
  7 11  1  0  0  0  0
  7 13  1  0  0  0  0
  7 26  1  0  0  0  0
  8 10  1  0  0  0  0
  8 12  1  0  0  0  0
  8 27  1  0  0  0  0
  9 14  1  0  0  0  0
  9 15  1  0  0  0  0
  9 28  1  0  0  0  0
 10 11  2  0  0  0  0
 10 16  1  0  0  0  0
 11 29  1  0  0  0  0
 12 17  1  0  0  0  0
 12 30  1  0  0  0  0
 12 31  1  0  0  0  0
 13 32  1  0  0  0  0
 13 33  1  0  0  0  0
 14 34  1  0  0  0  0
 14 35  1  0  0  0  0
 14 36  1  0  0  0  0
 15 37  1  0  0  0  0
 15 38  1  0  0  0  0
 15 39  1  0  0  0  0
 16 40  1  0  0  0  0
 16 41  1  0  0  0  0
 16 42  1  0  0  0  0
 18 19  2  0  0  0  0
 18 20  1  0  0  0  0
 20 21  2  0  0  0  0
 20 46  1  0  0  0  0
 21 22  1  0  0  0  0
 21 47  1  0  0  0  0
 22 48  1  0  0  0  0
M  END
> <PUBCHEM_COMPOUND_CID>
71693012

> <PUBCHEM_CONFORMER_RMSD>
0.8

> <PUBCHEM_CONFORMER_DIVERSEORDER>
1
16
12
5
20
6
14
19
17
7
9
8
21
13
10
2
4
18
11
3
15

> <PUBCHEM_MMFF94_PARTIAL_CHARGES>
24
1 -0.99
10 -0.28
11 -0.29
12 0.18
13 0.27
16 0.14
17 0.01
18 -0.15
19 0.48
2 0.03
20 -0.15
21 -0.15
22 0.16
29 0.15
3 -0.57
4 -0.57
43 0.36
44 0.36
45 0.27
46 0.15
47 0.15
48 0.15
7 0.14
8 0.14

> <PUBCHEM_EFFECTIVE_ROTOR_COUNT>
4.8

> <PUBCHEM_PHARMACOPHORE_FEATURES>
9
1 1 cation
1 1 donor
1 2 donor
1 4 acceptor
3 2 3 17 cation
3 9 14 15 hydrophobe
5 2 3 17 18 19 rings
6 4 18 19 20 21 22 rings
6 5 6 7 8 10 11 rings

> <PUBCHEM_HEAVY_ATOM_COUNT>
22

> <PUBCHEM_ATOM_DEF_STEREO_COUNT>
3

> <PUBCHEM_ATOM_UDEF_STEREO_COUNT>
0

> <PUBCHEM_BOND_DEF_STEREO_COUNT>
0

> <PUBCHEM_BOND_UDEF_STEREO_COUNT>
0

> <PUBCHEM_ISOTOPIC_ATOM_COUNT>
0

> <PUBCHEM_COMPONENT_COUNT>
1

> <PUBCHEM_CACTVS_TAUTO_COUNT>
5

> <PUBCHEM_CONFORMER_ID>
0445F2D400000001

> <PUBCHEM_MMFF94_ENERGY>
41.4615

> <PUBCHEM_FEATURE_SELFOVERLAP>
45.799

> <PUBCHEM_SHAPE_FINGERPRINT>
10165383 225 18201727228103263683
10369192 42 16552532586219867056
10498660 4 18261944138129646620
10670039 82 18041289790208628596
11014199 57 17906452482505052423
11552529 35 17631446950560392383
11595378 159 17749376062508759592
12011746 2 18341323445117068869
12173636 292 18339351990017913103
12390115 104 18199198299688317937
12403814 3 18408885144450892657
12596602 18 16298389101948234960
12916748 109 18187368731525790928
13140716 1 18119254101948789625
14142880 1 17677040249237600325
14251751 93 18410006603071400728
14251757 17 18129668482993072582
14341114 176 18410579487484826244
14787075 74 17677622032627733147
14790565 3 18270404880517014985
15183329 4 18341615881050831110
15575132 122 18187079534150754077
15961568 22 17974558406468694812
18186145 218 18201996621220945394
19489759 90 8070037644347019998
20510252 161 18340763759006405121
20645477 56 18411983554974568718
20645477 70 17275110509877137126
21033648 29 18339910537503826888
21202864 24 18342464768045970467
21623110 236 18196091264390568905
21652331 79 18409446985754294177
221357 26 18273209798829154396
23198884 109 17203615890697062682
23227448 37 18411695530035555852
23557571 272 18341896337476558582
23559900 14 18201152136757792246
4028521 119 18336536149197276749
4214541 1 18343301496199340686
469060 322 17095532777080415333
497634 4 17845937432828494263
5104073 3 18115021884251773768
5281201 14 18341897372932942044
6287921 2 18264488571530063580

> <PUBCHEM_SHAPE_MULTIPOLES>
432.83
10.85
3.08
1.2
12.71
0.39
0.12
1.94
0.93
-2.96
-0.82
-1.2
0.35
0.68

> <PUBCHEM_SHAPE_SELFOVERLAP>
916.712

> <PUBCHEM_SHAPE_VOLUME>
237.7

> <PUBCHEM_COORDINATE_TYPE>
2
5
10

$$$$
