7143920
  -OEChem-12032416233D

 48 51  0     1  0  0  0  0  0999 V2000
    8.8073    0.8252   -0.6686 Cl  0  0  0  0  0  0  0  0  0  0  0  0
   -4.4281    2.3431   -0.3817 S   0  0  0  0  0  0  0  0  0  0  0  0
   -4.5023    2.6066   -1.8023 O   0  0  0  0  0  0  0  0  0  0  0  0
   -3.6226    3.1580    0.5015 O   0  0  0  0  0  0  0  0  0  0  0  0
    0.1645   -1.3536   -1.9048 O   0  0  0  0  0  0  0  0  0  0  0  0
   -4.0133    0.6995   -0.1468 N   0  0  2  0  0  0  0  0  0  0  0  0
   -1.5537   -1.2778   -0.3312 N   0  0  0  0  0  0  0  0  0  0  0  0
   -4.0085   -1.6631   -0.9543 C   0  0  1  0  0  0  0  0  0  0  0  0
   -3.4043   -1.1708    1.3744 C   0  0  2  0  0  0  0  0  0  0  0  0
   -4.1476   -2.1582    0.4790 C   0  0  0  0  0  0  0  0  0  0  0  0
   -4.6272   -0.2637   -1.1050 C   0  0  0  0  0  0  0  0  0  0  0  0
   -4.0607    0.2176    1.2660 C   0  0  0  0  0  0  0  0  0  0  0  0
   -2.5271   -1.6940   -1.3506 C   0  0  0  0  0  0  0  0  0  0  0  0
   -1.9363   -1.0921    0.9990 C   0  0  0  0  0  0  0  0  0  0  0  0
   -1.0109   -0.8240    1.9337 C   0  0  0  0  0  0  0  0  0  0  0  0
   -0.2091   -1.1775   -0.7436 C   0  0  0  0  0  0  0  0  0  0  0  0
    0.8019   -0.8490    0.3222 C   0  0  0  0  0  0  0  0  0  0  0  0
    0.3755   -0.7003    1.5840 C   0  0  0  0  0  0  0  0  0  0  0  0
   -6.0831    2.3131    0.2572 C   0  0  0  0  0  0  0  0  0  0  0  0
    2.1943   -0.7132   -0.0243 C   0  0  0  0  0  0  0  0  0  0  0  0
    3.0315    0.0982    0.6338 C   0  0  0  0  0  0  0  0  0  0  0  0
    4.4579    0.2776    0.3116 C   0  0  0  0  0  0  0  0  0  0  0  0
    5.1129   -0.6900   -0.4329 C   0  0  0  0  0  0  0  0  0  0  0  0
    5.1172    1.4111    0.7596 C   0  0  0  0  0  0  0  0  0  0  0  0
    6.4634   -0.5199   -0.7374 C   0  0  0  0  0  0  0  0  0  0  0  0
    6.4677    1.5814    0.4550 C   0  0  0  0  0  0  0  0  0  0  0  0
    7.1409    0.6158   -0.2937 C   0  0  0  0  0  0  0  0  0  0  0  0
   -4.5548   -2.3366   -1.6266 H   0  0  0  0  0  0  0  0  0  0  0  0
   -3.4999   -1.5163    2.4123 H   0  0  0  0  0  0  0  0  0  0  0  0
   -3.7309   -3.1681    0.5817 H   0  0  0  0  0  0  0  0  0  0  0  0
   -5.2049   -2.2167    0.7645 H   0  0  0  0  0  0  0  0  0  0  0  0
   -4.4721    0.0815   -2.1327 H   0  0  0  0  0  0  0  0  0  0  0  0
   -5.7059   -0.3284   -0.9264 H   0  0  0  0  0  0  0  0  0  0  0  0
   -5.0999    0.1431    1.6042 H   0  0  0  0  0  0  0  0  0  0  0  0
   -3.5371    0.9254    1.9183 H   0  0  0  0  0  0  0  0  0  0  0  0
   -2.2567   -2.7266   -1.6114 H   0  0  0  0  0  0  0  0  0  0  0  0
   -2.3584   -1.1009   -2.2581 H   0  0  0  0  0  0  0  0  0  0  0  0
   -1.2814   -0.6692    2.9730 H   0  0  0  0  0  0  0  0  0  0  0  0
    1.0447   -0.4905    2.4128 H   0  0  0  0  0  0  0  0  0  0  0  0
   -6.6858    1.5818   -0.2809 H   0  0  0  0  0  0  0  0  0  0  0  0
   -6.0715    2.1181    1.3297 H   0  0  0  0  0  0  0  0  0  0  0  0
   -6.5095    3.3064    0.0911 H   0  0  0  0  0  0  0  0  0  0  0  0
    2.5200   -1.3015   -0.8759 H   0  0  0  0  0  0  0  0  0  0  0  0
    2.6774    0.7174    1.4551 H   0  0  0  0  0  0  0  0  0  0  0  0
    4.6335   -1.5998   -0.7796 H   0  0  0  0  0  0  0  0  0  0  0  0
    4.6066    2.1731    1.3425 H   0  0  0  0  0  0  0  0  0  0  0  0
    6.9770   -1.2827   -1.3171 H   0  0  0  0  0  0  0  0  0  0  0  0
    6.9828    2.4715    0.8073 H   0  0  0  0  0  0  0  0  0  0  0  0
  1 27  1  0  0  0  0
  2  3  2  0  0  0  0
  2  4  2  0  0  0  0
  2  6  1  0  0  0  0
  2 19  1  0  0  0  0
  5 16  2  0  0  0  0
  6 11  1  0  0  0  0
  6 12  1  0  0  0  0
  7 13  1  0  0  0  0
  7 14  1  0  0  0  0
  7 16  1  0  0  0  0
  8 10  1  0  0  0  0
  8 11  1  0  0  0  0
  8 13  1  0  0  0  0
  8 28  1  0  0  0  0
  9 10  1  0  0  0  0
  9 12  1  0  0  0  0
  9 14  1  0  0  0  0
  9 29  1  0  0  0  0
 10 30  1  0  0  0  0
 10 31  1  0  0  0  0
 11 32  1  0  0  0  0
 11 33  1  0  0  0  0
 12 34  1  0  0  0  0
 12 35  1  0  0  0  0
 13 36  1  0  0  0  0
 13 37  1  0  0  0  0
 14 15  2  0  0  0  0
 15 18  1  0  0  0  0
 15 38  1  0  0  0  0
 16 17  1  0  0  0  0
 17 18  2  0  0  0  0
 17 20  1  0  0  0  0
 18 39  1  0  0  0  0
 19 40  1  0  0  0  0
 19 41  1  0  0  0  0
 19 42  1  0  0  0  0
 20 21  2  0  0  0  0
 20 43  1  0  0  0  0
 21 22  1  0  0  0  0
 21 44  1  0  0  0  0
 22 23  2  0  0  0  0
 22 24  1  0  0  0  0
 23 25  1  0  0  0  0
 23 45  1  0  0  0  0
 24 26  2  0  0  0  0
 24 46  1  0  0  0  0
 25 27  2  0  0  0  0
 25 47  1  0  0  0  0
 26 27  1  0  0  0  0
 26 48  1  0  0  0  0
M  END
> <PUBCHEM_COMPOUND_CID>
7143920

> <PUBCHEM_CONFORMER_RMSD>
0.8

> <PUBCHEM_CONFORMER_DIVERSEORDER>
1
6
5
4
3
2

> <PUBCHEM_MMFF94_PARTIAL_CHARGES>
33
1 -0.18
11 0.36
12 0.36
13 0.3
14 -0.03
15 -0.15
16 0.62
17 0.01
18 -0.15
19 0.11
2 1.33
20 -0.15
21 -0.18
22 0.03
23 -0.15
24 -0.15
25 -0.15
26 -0.15
27 0.18
3 -0.65
38 0.15
39 0.15
4 -0.65
43 0.15
44 0.15
45 0.15
46 0.15
47 0.15
48 0.15
5 -0.57
6 -0.85
7 -0.47
9 0.14

> <PUBCHEM_EFFECTIVE_ROTOR_COUNT>
4

> <PUBCHEM_PHARMACOPHORE_FEATURES>
7
1 3 acceptor
1 4 acceptor
1 5 acceptor
6 22 23 24 25 26 27 rings
6 6 8 9 10 11 12 rings
6 7 14 15 16 17 18 rings
6 7 8 9 10 13 14 rings

> <PUBCHEM_HEAVY_ATOM_COUNT>
27

> <PUBCHEM_ATOM_DEF_STEREO_COUNT>
2

> <PUBCHEM_ATOM_UDEF_STEREO_COUNT>
0

> <PUBCHEM_BOND_DEF_STEREO_COUNT>
1

> <PUBCHEM_BOND_UDEF_STEREO_COUNT>
0

> <PUBCHEM_ISOTOPIC_ATOM_COUNT>
0

> <PUBCHEM_COMPONENT_COUNT>
1

> <PUBCHEM_CACTVS_TAUTO_COUNT>
1

> <PUBCHEM_CONFORMER_ID>
006D01F000000001

> <PUBCHEM_MMFF94_ENERGY>
69.771

> <PUBCHEM_FEATURE_SELFOVERLAP>
37.123

> <PUBCHEM_SHAPE_FINGERPRINT>
10087517 78 18113615685851915428
10165383 225 17775573023032591315
10291535 26 18407762534594532993
105312 117 18060139829838598719
10554248 39 17203336581301903780
10763959 59 18341612646777251680
11135926 11 16845584101625951118
11315181 36 17386006221034297734
11578080 2 18200318706389810295
11991303 11 17203320165172073182
12082328 90 18335140916835388358
12166972 35 17631736101038923512
12236239 1 17775292698838233394
12616971 3 13254799091727102050
12633257 1 13407943328326544397
12760667 363 8502361236181492209
12895837 130 18410577275693148597
13690498 29 17631157774823605487
13911987 19 16988562390288487695
14068700 675 16807305837319525915
14251751 18 9655569729917183664
14251752 14 18344143688168277138
14347329 18 18201430325066196241
14856354 85 17168152268456708338
14904525 67 17968381247191274524
14950920 106 14057305064099674237
15183329 4 17846781806588199242
15209294 21 17530963549481460315
15352257 5 9727641605254627332
15604295 49 18199743804260595512
15876981 60 18334859480365236405
17780758 139 8070031077552858543
17844677 252 18336831991308850380
17980427 23 17821736047655284599
19489759 90 18261111906463611082
19958102 18 16702031859529893580
21033648 29 18342164605729735472
21236236 1 18408602565103435157
21267235 1 16486696994907090807
21623969 137 12251901486776331800
21756936 100 18113338600774496691
21792961 116 17632863026984364095
21859007 373 18059840741834393392
22122407 14 18114473365621029540
22956985 138 16964366834219933003
23081809 10 17822284700453997802
23198884 109 18408318903993756018
23379529 103 12749510831434583245
23522609 53 15936993872289185134
23559900 14 15984816108337436314
23569914 2 17694168514374747512
2838139 119 18340762646156610524
3004659 81 17418099854170732138
4015057 19 14907887340925244818
4098825 35 18202002084540899039
44802255 64 18202284714436668574
5104073 3 17240478083381243850
5283173 99 18342737408074396016
531348 171 18272367555436830678
5718773 13 8069438415533447617
6126387 218 18270953550368497234
6327066 14 18265609893360328325
7226269 152 16877938356485645204
9953998 17 8718831993707903190

> <PUBCHEM_SHAPE_MULTIPOLES>
533.8
19.8
2.53
1.51
38.91
1.89
0.02
10.78
-3.55
-4.96
-0.38
-1.24
-0.31
0.79

> <PUBCHEM_SHAPE_SELFOVERLAP>
1134.625

> <PUBCHEM_SHAPE_VOLUME>
299.3

> <PUBCHEM_COORDINATE_TYPE>
2
5
10

$$$$
