45361202
  -OEChem-12032416233D

 61 64  0     1  0  0  0  0  0999 V2000
    1.1653   -1.0913    0.8927 O   0  0  0  0  0  0  0  0  0  0  0  0
   -4.6180    1.9655    0.1745 O   0  0  0  0  0  0  0  0  0  0  0  0
   -5.6616   -4.0169    0.4818 O   0  0  0  0  0  0  0  0  0  0  0  0
    0.2035    2.3716   -0.5469 N   0  0  1  0  0  0  0  0  0  0  0  0
    3.2273    0.3689   -0.0604 N   0  0  1  0  0  0  0  0  0  0  0  0
    0.0542    0.6939    1.7953 N   0  0  0  0  0  0  0  0  0  0  0  0
   -4.2958   -0.2153   -0.5592 N   0  0  0  0  0  0  0  0  0  0  0  0
    4.5888   -2.4784    0.2638 N   0  0  0  0  0  0  0  0  0  0  0  0
    6.2730   -1.1515   -0.3147 N   0  0  0  0  0  0  0  0  0  0  0  0
    1.6618    2.1987   -0.3656 C   0  0  1  0  0  0  0  0  0  0  0  0
    2.1611    1.1147    0.6344 C   0  0  1  0  0  0  0  0  0  0  0  0
    2.4107    1.8142   -1.6553 C   0  0  0  0  0  0  0  0  0  0  0  0
   -0.5196    2.8263    0.6735 C   0  0  2  0  0  0  0  0  0  0  0  0
    3.7056    1.2172   -1.1462 C   0  0  0  0  0  0  0  0  0  0  0  0
   -0.0960    2.1238    1.9783 C   0  0  0  0  0  0  0  0  0  0  0  0
    1.0975    0.1205    1.0934 C   0  0  0  0  0  0  0  0  0  0  0  0
   -2.0400    2.6203    0.5080 C   0  0  0  0  0  0  0  0  0  0  0  0
    4.3072   -0.0521    0.8231 C   0  0  0  0  0  0  0  0  0  0  0  0
   -0.0804    3.2755   -1.6745 C   0  0  0  0  0  0  0  0  0  0  0  0
   -2.3731    1.2249    0.0167 C   0  0  0  0  0  0  0  0  0  0  0  0
    5.0857   -1.2048    0.2469 C   0  0  0  0  0  0  0  0  0  0  0  0
   -3.8630    1.0333   -0.1138 C   0  0  0  0  0  0  0  0  0  0  0  0
   -3.4210   -1.3422   -0.9092 C   0  0  0  0  0  0  0  0  0  0  0  0
   -5.7264   -0.4630   -0.7556 C   0  0  0  0  0  0  0  0  0  0  0  0
   -3.8288   -2.5998   -0.1473 C   0  0  0  0  0  0  0  0  0  0  0  0
   -6.1742   -1.7033    0.0103 C   0  0  0  0  0  0  0  0  0  0  0  0
   -5.3114   -2.9147   -0.3465 C   0  0  0  0  0  0  0  0  0  0  0  0
    5.5186   -3.2888   -0.3245 C   0  0  0  0  0  0  0  0  0  0  0  0
    6.5487   -2.4474   -0.6731 C   0  0  0  0  0  0  0  0  0  0  0  0
    2.0836    3.1608   -0.0355 H   0  0  0  0  0  0  0  0  0  0  0  0
    2.5722    1.6168    1.5204 H   0  0  0  0  0  0  0  0  0  0  0  0
    1.8500    1.0637   -2.2284 H   0  0  0  0  0  0  0  0  0  0  0  0
    2.5994    2.6764   -2.3032 H   0  0  0  0  0  0  0  0  0  0  0  0
   -0.3425    3.8998    0.8281 H   0  0  0  0  0  0  0  0  0  0  0  0
    4.3736    2.0130   -0.7928 H   0  0  0  0  0  0  0  0  0  0  0  0
    4.2152    0.6458   -1.9281 H   0  0  0  0  0  0  0  0  0  0  0  0
    0.8445    2.5408    2.3519 H   0  0  0  0  0  0  0  0  0  0  0  0
   -0.8329    2.2733    2.7754 H   0  0  0  0  0  0  0  0  0  0  0  0
   -2.4469    3.3666   -0.1855 H   0  0  0  0  0  0  0  0  0  0  0  0
   -2.5490    2.8199    1.4606 H   0  0  0  0  0  0  0  0  0  0  0  0
    3.8977   -0.3982    1.7821 H   0  0  0  0  0  0  0  0  0  0  0  0
    4.9865    0.7748    1.0663 H   0  0  0  0  0  0  0  0  0  0  0  0
   -0.6460    0.0775    2.1961 H   0  0  0  0  0  0  0  0  0  0  0  0
    0.3425    4.2729   -1.5096 H   0  0  0  0  0  0  0  0  0  0  0  0
    0.3149    2.8807   -2.6157 H   0  0  0  0  0  0  0  0  0  0  0  0
   -1.1527    3.3859   -1.8578 H   0  0  0  0  0  0  0  0  0  0  0  0
   -2.0443    0.4640    0.7217 H   0  0  0  0  0  0  0  0  0  0  0  0
   -1.9290    1.0342   -0.9653 H   0  0  0  0  0  0  0  0  0  0  0  0
   -2.3690   -1.1290   -0.7138 H   0  0  0  0  0  0  0  0  0  0  0  0
   -3.5210   -1.5030   -1.9894 H   0  0  0  0  0  0  0  0  0  0  0  0
   -5.8900   -0.5964   -1.8315 H   0  0  0  0  0  0  0  0  0  0  0  0
   -6.3193    0.4009   -0.4394 H   0  0  0  0  0  0  0  0  0  0  0  0
   -3.2195   -3.4529   -0.4683 H   0  0  0  0  0  0  0  0  0  0  0  0
   -3.6237   -2.4685    0.9235 H   0  0  0  0  0  0  0  0  0  0  0  0
   -6.1128   -1.5176    1.0907 H   0  0  0  0  0  0  0  0  0  0  0  0
   -7.2285   -1.9188   -0.1995 H   0  0  0  0  0  0  0  0  0  0  0  0
   -5.4876   -3.2071   -1.3885 H   0  0  0  0  0  0  0  0  0  0  0  0
    3.6965   -2.7691    0.6409 H   0  0  0  0  0  0  0  0  0  0  0  0
    5.3660   -4.3523   -0.4369 H   0  0  0  0  0  0  0  0  0  0  0  0
    7.4747   -2.7087   -1.1641 H   0  0  0  0  0  0  0  0  0  0  0  0
   -6.6072   -4.1973    0.3447 H   0  0  0  0  0  0  0  0  0  0  0  0
  1 16  2  0  0  0  0
  2 22  2  0  0  0  0
  3 27  1  0  0  0  0
  3 61  1  0  0  0  0
  4 10  1  0  0  0  0
  4 13  1  0  0  0  0
  4 19  1  0  0  0  0
  5 11  1  0  0  0  0
  5 14  1  0  0  0  0
  5 18  1  0  0  0  0
  6 15  1  0  0  0  0
  6 16  1  0  0  0  0
  6 43  1  0  0  0  0
  7 22  1  0  0  0  0
  7 23  1  0  0  0  0
  7 24  1  0  0  0  0
  8 21  1  0  0  0  0
  8 28  1  0  0  0  0
  8 58  1  0  0  0  0
  9 21  2  0  0  0  0
  9 29  1  0  0  0  0
 10 11  1  0  0  0  0
 10 12  1  0  0  0  0
 10 30  1  0  0  0  0
 11 16  1  0  0  0  0
 11 31  1  0  0  0  0
 12 14  1  0  0  0  0
 12 32  1  0  0  0  0
 12 33  1  0  0  0  0
 13 15  1  0  0  0  0
 13 17  1  0  0  0  0
 13 34  1  0  0  0  0
 14 35  1  0  0  0  0
 14 36  1  0  0  0  0
 15 37  1  0  0  0  0
 15 38  1  0  0  0  0
 17 20  1  0  0  0  0
 17 39  1  0  0  0  0
 17 40  1  0  0  0  0
 18 21  1  0  0  0  0
 18 41  1  0  0  0  0
 18 42  1  0  0  0  0
 19 44  1  0  0  0  0
 19 45  1  0  0  0  0
 19 46  1  0  0  0  0
 20 22  1  0  0  0  0
 20 47  1  0  0  0  0
 20 48  1  0  0  0  0
 23 25  1  0  0  0  0
 23 49  1  0  0  0  0
 23 50  1  0  0  0  0
 24 26  1  0  0  0  0
 24 51  1  0  0  0  0
 24 52  1  0  0  0  0
 25 27  1  0  0  0  0
 25 53  1  0  0  0  0
 25 54  1  0  0  0  0
 26 27  1  0  0  0  0
 26 55  1  0  0  0  0
 26 56  1  0  0  0  0
 27 57  1  0  0  0  0
 28 29  2  0  0  0  0
 28 59  1  0  0  0  0
 29 60  1  0  0  0  0
M  END
> <PUBCHEM_COMPOUND_CID>
45361202

> <PUBCHEM_CONFORMER_RMSD>
1

> <PUBCHEM_CONFORMER_DIVERSEORDER>
1
121
177
167
13
65
90
108
104
148
109
91
169
178
9
152
28
136
113
47
52
68
55
43
138
67
66
50
2
99
161
76
134
19
78
112
54
128
101
165
154
115
114
131
126
10
116
41
8
117
162
73
123
107
5
137
175
92
71
158
11
172
62
59
23
26
72
132
125
100
34
25
38
95
140
75
97
89
30
127
102
153
124
155
149
106
61
64
105
45
74
163
4
122
120
176
63
129
58
84
83
44
168
159
82
77
146
35
103
31
87
160
96
98
3
46
17
147
20
32
166
139
56
12
143
6
170
171
145
135
49
157
60
79
14
119
33
142
144
18
70
141
42
156
81
51
24
93
27
7
85
69
16
37
173
57
110
133
174
88
40
29
86
111
15
94
150
21
80
48
36
130
164
22
118
151
53
39

> <PUBCHEM_MMFF94_PARTIAL_CHARGES>
30
1 -0.57
10 0.27
11 0.33
13 0.27
14 0.27
15 0.3
16 0.57
18 0.45
19 0.27
2 -0.57
20 0.06
21 0.01
22 0.57
23 0.3
24 0.3
27 0.28
28 -0.3
29 0.08
3 -0.68
4 -0.81
43 0.37
5 -0.81
58 0.27
59 0.15
6 -0.73
60 0.15
61 0.4
7 -0.66
8 0.03
9 -0.57

> <PUBCHEM_EFFECTIVE_ROTOR_COUNT>
8.6

> <PUBCHEM_PHARMACOPHORE_FEATURES>
13
1 1 acceptor
1 2 acceptor
1 3 acceptor
1 3 donor
1 4 cation
1 5 cation
1 6 donor
1 8 donor
3 8 9 21 cation
5 5 10 11 12 14 rings
5 8 9 21 28 29 rings
6 7 23 24 25 26 27 rings
7 4 6 10 11 13 15 16 rings

> <PUBCHEM_HEAVY_ATOM_COUNT>
29

> <PUBCHEM_ATOM_DEF_STEREO_COUNT>
3

> <PUBCHEM_ATOM_UDEF_STEREO_COUNT>
0

> <PUBCHEM_BOND_DEF_STEREO_COUNT>
0

> <PUBCHEM_BOND_UDEF_STEREO_COUNT>
0

> <PUBCHEM_ISOTOPIC_ATOM_COUNT>
0

> <PUBCHEM_COMPONENT_COUNT>
1

> <PUBCHEM_CACTVS_TAUTO_COUNT>
3

> <PUBCHEM_CONFORMER_ID>
02B4283200000001

> <PUBCHEM_MMFF94_ENERGY>
61.9058

> <PUBCHEM_FEATURE_SELFOVERLAP>
66.01

> <PUBCHEM_SHAPE_FINGERPRINT>
10042902 136 18409730625800600148
10391435 84 18339910550926090848
11135609 99 18272084986129423110
11285246 1 17895195549247240227
11315621 136 18334013921495321710
11497681 19 18411704267053778622
117089 54 18264777721734943691
11796584 16 18270964522944256228
12166972 35 17967817179880912039
12422481 6 17489301954367280166
12633257 1 15697709415198131085
13009979 54 18412830178965217329
1361 4 18411139177289265430
1361 87 17750516359647717003
13690498 29 17967812704910221869
14068700 675 18336544924569777944
14251751 18 18343582915225198134
14251764 30 18411417332287807327
14289585 56 17168138984132834021
14420673 8 18412826889705810851
14866123 147 18271249327353987017
15163728 17 12468634967674239229
15803439 3 16523596764064752092
17492 89 18338516464644958085
17909252 39 18194967571953888041
19438510 23 9115398878320996499
20775438 99 17900255604837265402
20775530 9 18337939143567849615
21033648 29 14836134221703748753
21223535 225 15502651559889687940
21585480 29 17557961099745249246
22393880 68 17895180087412485773
23379529 103 18337389460836899675
23559900 14 18265886034140228765
23569914 2 12903527233240344062
2838139 119 10737581526499195624
3004659 81 18261386754263410482
329604 57 18411983589207732447
439807 62 18409733989066253231
463206 1 18336831896492561576
5104073 3 17846221072295156113
5326457 24 18339926996387684510
563151 248 18055937406387737393
7288768 16 11671773871225183821
7970288 3 18339077194016346023

> <PUBCHEM_SHAPE_MULTIPOLES>
549.31
15.7
4.62
1.33
0.37
1.84
-0.1
19.98
2.65
-1.54
0.46
0.46
-0.91
-0.28

> <PUBCHEM_SHAPE_SELFOVERLAP>
1150.608

> <PUBCHEM_SHAPE_VOLUME>
307.6

> <PUBCHEM_COORDINATE_TYPE>
2
5
10

$$$$
