71693460
  -OEChem-12032416233D

 57 60  0     1  0  0  0  0  0999 V2000
   -8.6868    0.8480    1.4407 F   0  0  0  0  0  0  0  0  0  0  0  0
   -8.8729   -1.1516    0.6221 F   0  0  0  0  0  0  0  0  0  0  0  0
   -9.0645    0.5767   -0.6833 F   0  0  0  0  0  0  0  0  0  0  0  0
    4.0423   -1.8479   -1.6455 O   0  0  0  0  0  0  0  0  0  0  0  0
    5.7660   -1.4897    2.7216 O   0  0  0  0  0  0  0  0  0  0  0  0
    6.4355    0.5976   -1.6436 O   0  0  0  0  0  0  0  0  0  0  0  0
   -2.2316    0.7930   -1.5047 O   0  0  0  0  0  0  0  0  0  0  0  0
    5.1199   -0.1252    0.1435 N   0  0  0  0  0  0  0  0  0  0  0  0
   -1.9496   -0.9879    0.0045 N   0  0  0  0  0  0  0  0  0  0  0  0
    2.1177    3.9050    0.2102 N   0  0  0  0  0  0  0  0  0  0  0  0
    4.4293   -1.2659    0.7551 C   0  0  1  0  0  0  0  0  0  0  0  0
    3.6371   -2.0901   -0.2939 C   0  0  1  0  0  0  0  0  0  0  0  0
    5.4204   -2.1514    1.5221 C   0  0  0  0  0  0  0  0  0  0  0  0
    2.1509   -1.7963   -0.2142 C   0  0  0  0  0  0  0  0  0  0  0  0
    5.2771    1.0850    0.9361 C   0  0  0  0  0  0  0  0  0  0  0  0
    5.7185   -0.2451   -1.1082 C   0  0  0  0  0  0  0  0  0  0  0  0
    5.4187   -1.5616   -1.7844 C   0  0  0  0  0  0  0  0  0  0  0  0
    4.1731    2.0702    0.6822 C   0  0  0  0  0  0  0  0  0  0  0  0
    1.5985   -0.7766   -0.9893 C   0  0  0  0  0  0  0  0  0  0  0  0
    1.3364   -2.5465    0.6341 C   0  0  0  0  0  0  0  0  0  0  0  0
    0.2319   -0.5072   -0.9163 C   0  0  0  0  0  0  0  0  0  0  0  0
   -0.0301   -2.2773    0.7072 C   0  0  0  0  0  0  0  0  0  0  0  0
   -0.5825   -1.2576   -0.0681 C   0  0  0  0  0  0  0  0  0  0  0  0
    4.1599    2.8172   -0.4906 C   0  0  0  0  0  0  0  0  0  0  0  0
    3.1597    2.2395    1.6191 C   0  0  0  0  0  0  0  0  0  0  0  0
    3.1195    3.7131   -0.6772 C   0  0  0  0  0  0  0  0  0  0  0  0
    2.1640    3.1612    1.3382 C   0  0  0  0  0  0  0  0  0  0  0  0
   -2.6745   -0.0123   -0.6926 C   0  0  0  0  0  0  0  0  0  0  0  0
   -4.1357    0.0113   -0.4207 C   0  0  0  0  0  0  0  0  0  0  0  0
   -5.0182    0.4898   -1.3892 C   0  0  0  0  0  0  0  0  0  0  0  0
   -4.6243   -0.4449    0.8035 C   0  0  0  0  0  0  0  0  0  0  0  0
   -6.8776    0.0564    0.0910 C   0  0  0  0  0  0  0  0  0  0  0  0
   -6.3891    0.5125   -1.1333 C   0  0  0  0  0  0  0  0  0  0  0  0
   -5.9952   -0.4222    1.0595 C   0  0  0  0  0  0  0  0  0  0  0  0
   -8.3437    0.0808    0.3642 C   0  0  0  0  0  0  0  0  0  0  0  0
    3.7261   -0.8571    1.4939 H   0  0  0  0  0  0  0  0  0  0  0  0
    3.7710   -3.1659   -0.1233 H   0  0  0  0  0  0  0  0  0  0  0  0
    6.3329   -2.3490    0.9520 H   0  0  0  0  0  0  0  0  0  0  0  0
    4.9600   -3.1055    1.7983 H   0  0  0  0  0  0  0  0  0  0  0  0
    6.2334    1.5591    0.6808 H   0  0  0  0  0  0  0  0  0  0  0  0
    5.3413    0.8356    1.9998 H   0  0  0  0  0  0  0  0  0  0  0  0
    5.6364   -1.4663   -2.8525 H   0  0  0  0  0  0  0  0  0  0  0  0
    6.0377   -2.3659   -1.3759 H   0  0  0  0  0  0  0  0  0  0  0  0
    2.2140   -0.1676   -1.6459 H   0  0  0  0  0  0  0  0  0  0  0  0
    1.7558   -3.3416    1.2447 H   0  0  0  0  0  0  0  0  0  0  0  0
    6.3880   -2.0646    3.1992 H   0  0  0  0  0  0  0  0  0  0  0  0
   -0.1184    0.3003   -1.5434 H   0  0  0  0  0  0  0  0  0  0  0  0
   -0.6524   -2.8696    1.3733 H   0  0  0  0  0  0  0  0  0  0  0  0
    4.9349    2.7235   -1.2419 H   0  0  0  0  0  0  0  0  0  0  0  0
    3.1366    1.6722    2.5433 H   0  0  0  0  0  0  0  0  0  0  0  0
   -2.4592   -1.6198    0.6153 H   0  0  0  0  0  0  0  0  0  0  0  0
    3.0643    4.3213   -1.5740 H   0  0  0  0  0  0  0  0  0  0  0  0
    1.3503    3.3296    2.0358 H   0  0  0  0  0  0  0  0  0  0  0  0
   -4.6586    0.8449   -2.3514 H   0  0  0  0  0  0  0  0  0  0  0  0
   -3.9739   -0.7898    1.6016 H   0  0  0  0  0  0  0  0  0  0  0  0
   -7.0597    0.8881   -1.9013 H   0  0  0  0  0  0  0  0  0  0  0  0
   -6.3665   -0.7716    2.0194 H   0  0  0  0  0  0  0  0  0  0  0  0
  1 35  1  0  0  0  0
  2 35  1  0  0  0  0
  3 35  1  0  0  0  0
  4 12  1  0  0  0  0
  4 17  1  0  0  0  0
  5 13  1  0  0  0  0
  5 46  1  0  0  0  0
  6 16  2  0  0  0  0
  7 28  2  0  0  0  0
  8 11  1  0  0  0  0
  8 15  1  0  0  0  0
  8 16  1  0  0  0  0
  9 23  1  0  0  0  0
  9 28  1  0  0  0  0
  9 51  1  0  0  0  0
 10 26  2  0  0  0  0
 10 27  1  0  0  0  0
 11 12  1  0  0  0  0
 11 13  1  0  0  0  0
 11 36  1  0  0  0  0
 12 14  1  0  0  0  0
 12 37  1  0  0  0  0
 13 38  1  0  0  0  0
 13 39  1  0  0  0  0
 14 19  2  0  0  0  0
 14 20  1  0  0  0  0
 15 18  1  0  0  0  0
 15 40  1  0  0  0  0
 15 41  1  0  0  0  0
 16 17  1  0  0  0  0
 17 42  1  0  0  0  0
 17 43  1  0  0  0  0
 18 24  2  0  0  0  0
 18 25  1  0  0  0  0
 19 21  1  0  0  0  0
 19 44  1  0  0  0  0
 20 22  2  0  0  0  0
 20 45  1  0  0  0  0
 21 23  2  0  0  0  0
 21 47  1  0  0  0  0
 22 23  1  0  0  0  0
 22 48  1  0  0  0  0
 24 26  1  0  0  0  0
 24 49  1  0  0  0  0
 25 27  2  0  0  0  0
 25 50  1  0  0  0  0
 26 52  1  0  0  0  0
 27 53  1  0  0  0  0
 28 29  1  0  0  0  0
 29 30  2  0  0  0  0
 29 31  1  0  0  0  0
 30 33  1  0  0  0  0
 30 54  1  0  0  0  0
 31 34  2  0  0  0  0
 31 55  1  0  0  0  0
 32 33  2  0  0  0  0
 32 34  1  0  0  0  0
 32 35  1  0  0  0  0
 33 56  1  0  0  0  0
 34 57  1  0  0  0  0
M  END
> <PUBCHEM_COMPOUND_CID>
71693460

> <PUBCHEM_CONFORMER_RMSD>
1

> <PUBCHEM_CONFORMER_DIVERSEORDER>
1
10
31
19
29
37
36
33
12
28
16
8
15
13
34
21
2
30
3
7
20
18
24
6
35
14
23
11
4
9
25
32
26
27
17
22
5

> <PUBCHEM_MMFF94_PARTIAL_CHARGES>
49
1 -0.34
10 -0.62
11 0.3
12 0.42
13 0.28
14 -0.14
15 0.44
16 0.57
17 0.34
18 -0.14
19 -0.15
2 -0.34
20 -0.15
21 -0.15
22 -0.15
23 0.12
24 -0.15
25 -0.15
26 0.16
27 0.16
28 0.54
29 0.09
3 -0.34
30 -0.15
31 -0.15
32 -0.14
33 -0.15
34 -0.15
35 1.16
4 -0.56
44 0.15
45 0.15
46 0.4
47 0.15
48 0.15
49 0.15
5 -0.68
50 0.15
51 0.37
52 0.15
53 0.15
54 0.15
55 0.15
56 0.15
57 0.15
6 -0.57
7 -0.57
8 -0.66
9 -0.55

> <PUBCHEM_EFFECTIVE_ROTOR_COUNT>
9

> <PUBCHEM_PHARMACOPHORE_FEATURES>
11
1 10 acceptor
1 4 acceptor
1 5 acceptor
1 5 donor
1 6 acceptor
1 7 acceptor
1 9 donor
6 10 18 24 25 26 27 rings
6 14 19 20 21 22 23 rings
6 29 30 31 32 33 34 rings
6 4 8 11 12 16 17 rings

> <PUBCHEM_HEAVY_ATOM_COUNT>
35

> <PUBCHEM_ATOM_DEF_STEREO_COUNT>
2

> <PUBCHEM_ATOM_UDEF_STEREO_COUNT>
0

> <PUBCHEM_BOND_DEF_STEREO_COUNT>
0

> <PUBCHEM_BOND_UDEF_STEREO_COUNT>
0

> <PUBCHEM_ISOTOPIC_ATOM_COUNT>
0

> <PUBCHEM_COMPONENT_COUNT>
1

> <PUBCHEM_CACTVS_TAUTO_COUNT>
4

> <PUBCHEM_CONFORMER_ID>
0445F49400000001

> <PUBCHEM_MMFF94_ENERGY>
101.1729

> <PUBCHEM_FEATURE_SELFOVERLAP>
55.825

> <PUBCHEM_SHAPE_FINGERPRINT>
10 15 17385447626272751223
10162869 55 18130210637084047239
10165383 225 17967537900576689710
10675989 125 18057881536309617256
11456790 92 18189041032692441234
11966995 178 18271253793508168221
12522641 24 18342458170907683909
12596602 18 14996001047349356556
12717326 120 16227189200642991075
12925494 130 18267864080447264969
13560911 43 18334008376756391928
13617811 41 14620800409874422049
14537116 161 18342184353720265860
14849402 71 18408891758511228629
15183329 4 15841558504786617841
15328829 1 17346883338840106347
15419008 47 18186800262492747213
15721738 202 18131634460880181769
15840311 113 16774072964423578250
15968369 153 17845354584002330401
16090146 7 16845305959359642135
19309040 13 17912365630259223708
20554085 129 17240198833587923843
21033648 29 18189051057330868746
21716022 299 14403806193664251286
21792934 111 17967249777117406749
24893992 56 18334858346330774594
249057 3 17988646298472882070
255183 451 17629777677688870854
3178227 256 18335415751460259466
394071 54 18343868813728209887
397830 11 18262808500925486843
4093350 32 17561084708920438502
4112364 45 17059765719452518593
437795 51 18408888451512445835
44317340 157 18202283645274465943
4625314 4 18342457046301388551
4760202 170 18341600505274400013
5109719 28 18409735062522993995
53794403 172 18190463955490124268
57359948 33 12535354506068600115
58902169 19 17846777408051241047
60111433 81 17058350717129431784
68570916 9 18200870786287615327
70251023 43 17843413878124888718

> <PUBCHEM_SHAPE_MULTIPOLES>
660.04
23.42
3.46
1.68
57.46
3.19
-0.22
0.61
-2.19
-7.14
-0.65
-1.83
-0.2
0.45

> <PUBCHEM_SHAPE_SELFOVERLAP>
1433.492

> <PUBCHEM_SHAPE_VOLUME>
359.1

> <PUBCHEM_COORDINATE_TYPE>
2
5
10

$$$$
