11882576
  -OEChem-12032416123D

 62 64  0     1  0  0  0  0  0999 V2000
    6.8421    0.4143    2.4695 F   0  0  0  0  0  0  0  0  0  0  0  0
   -1.6984   -2.4847    2.1151 O   0  0  0  0  0  0  0  0  0  0  0  0
    0.5735   -4.3272   -1.3420 O   0  0  0  0  0  0  0  0  0  0  0  0
   -2.2485   -4.6234   -1.5792 O   0  0  0  0  0  0  0  0  0  0  0  0
   -3.3722   -0.6002    2.4214 O   0  0  0  0  0  0  0  0  0  0  0  0
    2.6623   -1.3547    1.2228 O   0  0  0  0  0  0  0  0  0  0  0  0
   -5.8868   -0.3904   -0.6594 O   0  0  0  0  0  0  0  0  0  0  0  0
    1.1688    4.5102   -0.3155 O   0  0  0  0  0  0  0  0  0  0  0  0
    1.4580   -1.6219   -0.7319 N   0  0  0  0  0  0  0  0  0  0  0  0
   -3.3111    0.0592    0.1898 N   0  0  0  0  0  0  0  0  0  0  0  0
    3.5247   -0.6358   -0.8388 N   0  0  0  0  0  0  0  0  0  0  0  0
   -6.5962    1.1527    0.8873 N   0  0  0  0  0  0  0  0  0  0  0  0
   -1.9727   -1.7972    0.9000 C   0  0  1  0  0  0  0  0  0  0  0  0
    0.3045   -2.2549   -0.1308 C   0  0  1  0  0  0  0  0  0  0  0  0
   -0.6916   -1.1853    0.3299 C   0  0  0  0  0  0  0  0  0  0  0  0
   -0.3367   -3.2489   -1.1082 C   0  0  2  0  0  0  0  0  0  0  0  0
   -2.6115   -2.7687   -0.0903 C   0  0  0  0  0  0  0  0  0  0  0  0
   -1.6307   -3.8479   -0.5517 C   0  0  1  0  0  0  0  0  0  0  0  0
   -2.9510   -0.7223    1.2741 C   0  0  0  0  0  0  0  0  0  0  0  0
   -4.2569    1.1481    0.2794 C   0  0  1  0  0  0  0  0  0  0  0  0
    2.5716   -1.2119    0.0058 C   0  0  0  0  0  0  0  0  0  0  0  0
   -3.9928    2.2330   -0.7710 C   0  0  0  0  0  0  0  0  0  0  0  0
   -5.6445    0.5531    0.0895 C   0  0  0  0  0  0  0  0  0  0  0  0
   -2.6166    2.8407   -0.6494 C   0  0  0  0  0  0  0  0  0  0  0  0
    4.7847   -0.0982   -0.4870 C   0  0  0  0  0  0  0  0  0  0  0  0
   -2.4161    3.9580    0.1613 C   0  0  0  0  0  0  0  0  0  0  0  0
   -1.5450    2.2844   -1.3479 C   0  0  0  0  0  0  0  0  0  0  0  0
    5.1999   -0.1072    0.8447 C   0  0  0  0  0  0  0  0  0  0  0  0
    5.6120    0.4414   -1.4720 C   0  0  0  0  0  0  0  0  0  0  0  0
   -1.1439    4.5191    0.2733 C   0  0  0  0  0  0  0  0  0  0  0  0
   -0.2729    2.8456   -1.2360 C   0  0  0  0  0  0  0  0  0  0  0  0
   -0.0724    3.9628   -0.4253 C   0  0  0  0  0  0  0  0  0  0  0  0
    6.4425    0.4234    1.1913 C   0  0  0  0  0  0  0  0  0  0  0  0
    6.8544    0.9719   -1.1252 C   0  0  0  0  0  0  0  0  0  0  0  0
    7.2697    0.9630    0.2064 C   0  0  0  0  0  0  0  0  0  0  0  0
    0.6623   -2.8058    0.7491 H   0  0  0  0  0  0  0  0  0  0  0  0
   -0.9037   -0.5278   -0.5205 H   0  0  0  0  0  0  0  0  0  0  0  0
   -0.2132   -0.5542    1.0913 H   0  0  0  0  0  0  0  0  0  0  0  0
   -0.5241   -2.7791   -2.0814 H   0  0  0  0  0  0  0  0  0  0  0  0
   -3.4853   -3.2595    0.3595 H   0  0  0  0  0  0  0  0  0  0  0  0
   -2.9997   -2.2556   -0.9791 H   0  0  0  0  0  0  0  0  0  0  0  0
   -1.4044   -4.5353    0.2726 H   0  0  0  0  0  0  0  0  0  0  0  0
    1.4251   -1.3979   -1.7218 H   0  0  0  0  0  0  0  0  0  0  0  0
   -2.5075   -2.9439    2.3985 H   0  0  0  0  0  0  0  0  0  0  0  0
    0.7679   -4.7485   -0.4874 H   0  0  0  0  0  0  0  0  0  0  0  0
   -3.0613   -5.0071   -1.2077 H   0  0  0  0  0  0  0  0  0  0  0  0
   -2.9763   -0.1800   -0.7375 H   0  0  0  0  0  0  0  0  0  0  0  0
   -4.1797    1.5762    1.2869 H   0  0  0  0  0  0  0  0  0  0  0  0
   -4.7501    3.0242   -0.6912 H   0  0  0  0  0  0  0  0  0  0  0  0
   -4.1152    1.8216   -1.7826 H   0  0  0  0  0  0  0  0  0  0  0  0
    3.2926   -0.5945   -1.8280 H   0  0  0  0  0  0  0  0  0  0  0  0
   -7.5614    0.8404    0.8697 H   0  0  0  0  0  0  0  0  0  0  0  0
   -6.3810    1.9289    1.5048 H   0  0  0  0  0  0  0  0  0  0  0  0
   -3.2428    4.3986    0.7121 H   0  0  0  0  0  0  0  0  0  0  0  0
   -1.6877    1.4197   -1.9902 H   0  0  0  0  0  0  0  0  0  0  0  0
    4.6169   -0.5067    1.6623 H   0  0  0  0  0  0  0  0  0  0  0  0
    5.3004    0.4547   -2.5133 H   0  0  0  0  0  0  0  0  0  0  0  0
   -0.9937    5.3890    0.9069 H   0  0  0  0  0  0  0  0  0  0  0  0
    0.5534    2.4028   -1.7857 H   0  0  0  0  0  0  0  0  0  0  0  0
    7.4987    1.3922   -1.8920 H   0  0  0  0  0  0  0  0  0  0  0  0
    8.2371    1.3759    0.4766 H   0  0  0  0  0  0  0  0  0  0  0  0
    1.7883    3.9984   -0.8637 H   0  0  0  0  0  0  0  0  0  0  0  0
  1 33  1  0  0  0  0
  2 13  1  0  0  0  0
  2 44  1  0  0  0  0
  3 16  1  0  0  0  0
  3 45  1  0  0  0  0
  4 18  1  0  0  0  0
  4 46  1  0  0  0  0
  5 19  2  0  0  0  0
  6 21  2  0  0  0  0
  7 23  2  0  0  0  0
  8 32  1  0  0  0  0
  8 62  1  0  0  0  0
  9 14  1  0  0  0  0
  9 21  1  0  0  0  0
  9 43  1  0  0  0  0
 10 19  1  0  0  0  0
 10 20  1  0  0  0  0
 10 47  1  0  0  0  0
 11 21  1  0  0  0  0
 11 25  1  0  0  0  0
 11 51  1  0  0  0  0
 12 23  1  0  0  0  0
 12 52  1  0  0  0  0
 12 53  1  0  0  0  0
 13 15  1  0  0  0  0
 13 17  1  0  0  0  0
 13 19  1  0  0  0  0
 14 15  1  0  0  0  0
 14 16  1  0  0  0  0
 14 36  1  0  0  0  0
 15 37  1  0  0  0  0
 15 38  1  0  0  0  0
 16 18  1  0  0  0  0
 16 39  1  0  0  0  0
 17 18  1  0  0  0  0
 17 40  1  0  0  0  0
 17 41  1  0  0  0  0
 18 42  1  0  0  0  0
 20 22  1  0  0  0  0
 20 23  1  0  0  0  0
 20 48  1  0  0  0  0
 22 24  1  0  0  0  0
 22 49  1  0  0  0  0
 22 50  1  0  0  0  0
 24 26  2  0  0  0  0
 24 27  1  0  0  0  0
 25 28  2  0  0  0  0
 25 29  1  0  0  0  0
 26 30  1  0  0  0  0
 26 54  1  0  0  0  0
 27 31  2  0  0  0  0
 27 55  1  0  0  0  0
 28 33  1  0  0  0  0
 28 56  1  0  0  0  0
 29 34  2  0  0  0  0
 29 57  1  0  0  0  0
 30 32  2  0  0  0  0
 30 58  1  0  0  0  0
 31 32  1  0  0  0  0
 31 59  1  0  0  0  0
 33 35  2  0  0  0  0
 34 35  1  0  0  0  0
 34 60  1  0  0  0  0
 35 61  1  0  0  0  0
M  END
> <PUBCHEM_COMPOUND_CID>
11882576

> <PUBCHEM_CONFORMER_RMSD>
1.4

> <PUBCHEM_CONFORMER_DIVERSEORDER>
1
111
76
128
150
144
85
130
8
51
115
45
9
33
93
100
106
41
42
97
27
125
37
120
103
65
90
40
39
25
72
131
74
23
31
101
112
29
68
118
5
146
83
127
49
46
28
12
21
96
121
95
124
58
13
89
149
34
98
10
148
67
61
48
47
91
64
129
136
26
66
107
6
152
110
56
99
14
38
102
133
77
18
134
78
11
44
145
123
126
135
7
59
105
137
75
138
43
54
55
117
53
151
19
119
70
139
71
147
108
57
87
63
132
94
84
4
104
16
24
52
60
114
81
2
143
82
17
122
30
62
35
141
140
15
113
92
36
142
69
88
116
50
80
73
20
109
79
32
86
3
22

> <PUBCHEM_MMFF94_PARTIAL_CHARGES>
50
1 -0.19
10 -0.73
11 -0.55
12 -0.8
13 0.34
14 0.3
16 0.28
18 0.28
19 0.57
2 -0.68
20 0.36
21 0.69
22 0.14
23 0.57
24 -0.14
25 0.12
26 -0.15
27 -0.15
28 -0.15
29 -0.15
3 -0.68
30 -0.15
31 -0.15
32 0.08
33 0.19
34 -0.15
35 -0.15
4 -0.68
43 0.37
44 0.4
45 0.4
46 0.4
47 0.37
5 -0.57
51 0.37
52 0.37
53 0.37
54 0.15
55 0.15
56 0.15
57 0.15
58 0.15
59 0.15
6 -0.57
60 0.15
61 0.15
62 0.45
7 -0.57
8 -0.53
9 -0.73

> <PUBCHEM_EFFECTIVE_ROTOR_COUNT>
11.2

> <PUBCHEM_PHARMACOPHORE_FEATURES>
17
1 10 donor
1 11 donor
1 12 donor
1 2 acceptor
1 2 donor
1 3 acceptor
1 3 donor
1 4 acceptor
1 4 donor
1 5 acceptor
1 6 acceptor
1 7 acceptor
1 8 donor
1 9 donor
6 13 14 15 16 17 18 rings
6 24 26 27 30 31 32 rings
6 25 28 29 33 34 35 rings

> <PUBCHEM_HEAVY_ATOM_COUNT>
35

> <PUBCHEM_ATOM_DEF_STEREO_COUNT>
5

> <PUBCHEM_ATOM_UDEF_STEREO_COUNT>
0

> <PUBCHEM_BOND_DEF_STEREO_COUNT>
0

> <PUBCHEM_BOND_UDEF_STEREO_COUNT>
0

> <PUBCHEM_ISOTOPIC_ATOM_COUNT>
0

> <PUBCHEM_COMPONENT_COUNT>
1

> <PUBCHEM_CACTVS_TAUTO_COUNT>
24

> <PUBCHEM_CONFORMER_ID>
00B5505000000001

> <PUBCHEM_MMFF94_ENERGY>
88.3581

> <PUBCHEM_FEATURE_SELFOVERLAP>
86.358

> <PUBCHEM_SHAPE_FINGERPRINT>
10006869 2 18189327983388794650
10675989 125 16962652145103641629
10864689 126 18267866082477771796
11513181 2 18197502813823890743
13402501 40 18410292480147464369
14251764 38 17904482904902437363
14904385 31 18410291368304543348
15513586 35 17830477315726212792
15876981 60 18188775092639184310
18393751 57 18337114462924403987
19319366 153 17749385945138980290
19611394 137 18042986435282138571
20764821 26 18265614458129731956
20771845 165 18271819964719048574
21859007 373 18341331068926969926
24771293 8 18340774750471515073
25019877 29 17775005700101155271
3383291 50 18411698798806309325
373842 8 18189333477358529584
44249763 50 18130495449197586082
5085150 59 18334851671867434629
6004065 56 18411417324425587309
6608658 132 18337379513344489095
70634741 139 10591754386409316146
9961470 85 18055624268770247273

> <PUBCHEM_SHAPE_MULTIPOLES>
652
15.17
6.24
1.59
24.27
0.96
0.6
5.52
3.28
-5.56
-2.24
0.78
-0.66
0.16

> <PUBCHEM_SHAPE_SELFOVERLAP>
1386.446

> <PUBCHEM_SHAPE_VOLUME>
360.9

> <PUBCHEM_COORDINATE_TYPE>
2
5
10

$$$$
