11887564
  -OEChem-12032416133D

 51 52  0     1  0  0  0  0  0999 V2000
    2.3533   -0.9709    1.3417 O   0  0  0  0  0  0  0  0  0  0  0  0
    1.9424    2.7960   -0.0844 O   0  0  0  0  0  0  0  0  0  0  0  0
   -2.0459   -3.4696    0.6514 O   0  0  0  0  0  0  0  0  0  0  0  0
   -1.2698   -2.6538   -1.3537 O   0  0  0  0  0  0  0  0  0  0  0  0
   -4.6586    2.7686   -0.9511 O   0  0  0  0  0  0  0  0  0  0  0  0
    3.4627    1.0351   -0.0553 N   0  0  0  0  0  0  0  0  0  0  0  0
    4.4700   -1.4061   -1.1971 N   0  0  0  0  0  0  0  0  0  0  0  0
    0.5384   -0.9867   -0.1161 N   0  0  0  0  0  0  0  0  0  0  0  0
    2.5564    0.1302   -0.7694 C   0  0  1  0  0  0  0  0  0  0  0  0
    3.2776   -0.7763   -1.7675 C   0  0  0  0  0  0  0  0  0  0  0  0
    4.7358    0.4539    0.3941 C   0  0  0  0  0  0  0  0  0  0  0  0
    5.3920   -0.3908   -0.6931 C   0  0  0  0  0  0  0  0  0  0  0  0
    1.8242   -0.6583    0.2783 C   0  0  0  0  0  0  0  0  0  0  0  0
   -0.3657   -1.7620    0.7021 C   0  0  1  0  0  0  0  0  0  0  0  0
    3.0120    2.3120    0.2951 C   0  0  0  0  0  0  0  0  0  0  0  0
   -1.1750   -0.8616    1.6473 C   0  0  0  0  0  0  0  0  0  0  0  0
    3.9128    3.1246    1.1912 C   0  0  0  0  0  0  0  0  0  0  0  0
   -2.1049    0.1081    0.9537 C   0  0  0  0  0  0  0  0  0  0  0  0
   -1.2628   -2.6714   -0.1271 C   0  0  0  0  0  0  0  0  0  0  0  0
   -1.6521    1.3801    0.6032 C   0  0  0  0  0  0  0  0  0  0  0  0
   -3.4160   -0.2697    0.6640 C   0  0  0  0  0  0  0  0  0  0  0  0
   -2.5103    2.2741   -0.0367 C   0  0  0  0  0  0  0  0  0  0  0  0
   -4.2743    0.6243    0.0241 C   0  0  0  0  0  0  0  0  0  0  0  0
   -3.8215    1.8963   -0.3262 C   0  0  0  0  0  0  0  0  0  0  0  0
   -2.9347   -4.3438   -0.0516 C   0  0  0  0  0  0  0  0  0  0  0  0
   -5.9859    2.3175   -1.2170 C   0  0  0  0  0  0  0  0  0  0  0  0
    1.8276    0.7366   -1.3216 H   0  0  0  0  0  0  0  0  0  0  0  0
    3.5716   -0.1886   -2.6466 H   0  0  0  0  0  0  0  0  0  0  0  0
    2.6021   -1.5626   -2.1233 H   0  0  0  0  0  0  0  0  0  0  0  0
    5.4360    1.2438    0.6779 H   0  0  0  0  0  0  0  0  0  0  0  0
    4.5573   -0.1371    1.2974 H   0  0  0  0  0  0  0  0  0  0  0  0
    6.2797   -0.8834   -0.2818 H   0  0  0  0  0  0  0  0  0  0  0  0
    5.7309    0.2486   -1.5178 H   0  0  0  0  0  0  0  0  0  0  0  0
    4.9355   -1.9578   -1.9172 H   0  0  0  0  0  0  0  0  0  0  0  0
    0.2544   -2.4307    1.3136 H   0  0  0  0  0  0  0  0  0  0  0  0
    0.2017   -0.6743   -1.0223 H   0  0  0  0  0  0  0  0  0  0  0  0
   -1.7649   -1.4779    2.3388 H   0  0  0  0  0  0  0  0  0  0  0  0
   -0.4890   -0.2912    2.2885 H   0  0  0  0  0  0  0  0  0  0  0  0
    3.3923    4.0374    1.4975 H   0  0  0  0  0  0  0  0  0  0  0  0
    4.1656    2.5619    2.0937 H   0  0  0  0  0  0  0  0  0  0  0  0
    4.8190    3.4101    0.6509 H   0  0  0  0  0  0  0  0  0  0  0  0
   -0.6340    1.6877    0.8253 H   0  0  0  0  0  0  0  0  0  0  0  0
   -3.7854   -1.2541    0.9376 H   0  0  0  0  0  0  0  0  0  0  0  0
   -2.1518    3.2636   -0.3069 H   0  0  0  0  0  0  0  0  0  0  0  0
   -5.2799    0.2666   -0.1694 H   0  0  0  0  0  0  0  0  0  0  0  0
   -3.5003   -4.9186    0.6866 H   0  0  0  0  0  0  0  0  0  0  0  0
   -2.3664   -5.0383   -0.6775 H   0  0  0  0  0  0  0  0  0  0  0  0
   -3.6371   -3.7626   -0.6568 H   0  0  0  0  0  0  0  0  0  0  0  0
   -6.5118    3.1374   -1.7172 H   0  0  0  0  0  0  0  0  0  0  0  0
   -6.5317    2.1051   -0.2915 H   0  0  0  0  0  0  0  0  0  0  0  0
   -5.9911    1.4667   -1.9066 H   0  0  0  0  0  0  0  0  0  0  0  0
  1 13  2  0  0  0  0
  2 15  2  0  0  0  0
  3 19  1  0  0  0  0
  3 25  1  0  0  0  0
  4 19  2  0  0  0  0
  5 24  1  0  0  0  0
  5 26  1  0  0  0  0
  6  9  1  0  0  0  0
  6 11  1  0  0  0  0
  6 15  1  0  0  0  0
  7 10  1  0  0  0  0
  7 12  1  0  0  0  0
  7 34  1  0  0  0  0
  8 13  1  0  0  0  0
  8 14  1  0  0  0  0
  8 36  1  0  0  0  0
  9 10  1  0  0  0  0
  9 13  1  0  0  0  0
  9 27  1  0  0  0  0
 10 28  1  0  0  0  0
 10 29  1  0  0  0  0
 11 12  1  0  0  0  0
 11 30  1  0  0  0  0
 11 31  1  0  0  0  0
 12 32  1  0  0  0  0
 12 33  1  0  0  0  0
 14 16  1  0  0  0  0
 14 19  1  0  0  0  0
 14 35  1  0  0  0  0
 15 17  1  0  0  0  0
 16 18  1  0  0  0  0
 16 37  1  0  0  0  0
 16 38  1  0  0  0  0
 17 39  1  0  0  0  0
 17 40  1  0  0  0  0
 17 41  1  0  0  0  0
 18 20  2  0  0  0  0
 18 21  1  0  0  0  0
 20 22  1  0  0  0  0
 20 42  1  0  0  0  0
 21 23  2  0  0  0  0
 21 43  1  0  0  0  0
 22 24  2  0  0  0  0
 22 44  1  0  0  0  0
 23 24  1  0  0  0  0
 23 45  1  0  0  0  0
 25 46  1  0  0  0  0
 25 47  1  0  0  0  0
 25 48  1  0  0  0  0
 26 49  1  0  0  0  0
 26 50  1  0  0  0  0
 26 51  1  0  0  0  0
M  END
> <PUBCHEM_COMPOUND_CID>
11887564

> <PUBCHEM_CONFORMER_RMSD>
1

> <PUBCHEM_CONFORMER_DIVERSEORDER>
1
109
147
138
58
43
120
55
68
108
98
28
95
54
126
60
84
75
139
38
130
47
15
113
143
65
72
17
114
121
145
127
97
77
46
42
73
64
9
101
132
104
102
91
81
111
12
74
34
150
32
93
31
44
27
82
151
66
123
146
3
107
70
105
8
96
86
57
33
26
24
153
78
116
118
90
35
2
48
62
100
148
88
36
10
85
133
61
39
134
80
89
11
30
128
37
103
51
141
29
149
79
76
152
59
92
7
106
21
122
129
87
115
112
40
110
22
6
19
5
135
131
25
41
99
50
63
142
13
125
144
23
69
140
67
45
53
119
56
137
49
14
52
83
124
16
71
154
20
94
136
117
4
18

> <PUBCHEM_MMFF94_PARTIAL_CHARGES>
32
1 -0.57
10 0.27
11 0.3
12 0.27
13 0.57
14 0.36
15 0.57
16 0.14
17 0.06
18 -0.14
19 0.66
2 -0.57
20 -0.15
21 -0.15
22 -0.15
23 -0.15
24 0.08
25 0.28
26 0.28
3 -0.43
34 0.36
36 0.37
4 -0.57
42 0.15
43 0.15
44 0.15
45 0.15
5 -0.36
6 -0.66
7 -0.9
8 -0.73
9 0.36

> <PUBCHEM_EFFECTIVE_ROTOR_COUNT>
10.2

> <PUBCHEM_PHARMACOPHORE_FEATURES>
9
1 1 acceptor
1 2 acceptor
1 4 acceptor
1 5 acceptor
1 7 cation
1 7 donor
1 8 donor
6 18 20 21 22 23 24 rings
6 6 7 9 10 11 12 rings

> <PUBCHEM_HEAVY_ATOM_COUNT>
26

> <PUBCHEM_ATOM_DEF_STEREO_COUNT>
2

> <PUBCHEM_ATOM_UDEF_STEREO_COUNT>
0

> <PUBCHEM_BOND_DEF_STEREO_COUNT>
0

> <PUBCHEM_BOND_UDEF_STEREO_COUNT>
0

> <PUBCHEM_ISOTOPIC_ATOM_COUNT>
0

> <PUBCHEM_COMPONENT_COUNT>
1

> <PUBCHEM_CACTVS_TAUTO_COUNT>
2

> <PUBCHEM_CONFORMER_ID>
00B563CC00000001

> <PUBCHEM_MMFF94_ENERGY>
70.2632

> <PUBCHEM_FEATURE_SELFOVERLAP>
45.672

> <PUBCHEM_SHAPE_FINGERPRINT>
10498660 4 18336830797134265169
11045515 52 17835239322156171539
11578080 2 16915647297297619482
12011746 2 18335425604125805388
12403259 415 18335147491950355273
12422481 6 18052005746391841219
12596602 18 14491347213238989085
12892183 10 11530771388046169165
13402501 40 18336266747595707468
13583140 156 18188505639207538762
13944108 23 17541939784957406717
14251764 38 18192989542157145532
15003188 100 18410289194845727381
15219462 58 17822860908549885106
15238133 3 17603588500383724128
15484559 13 18123458398506721855
17349148 13 17203338754291636962
17492 89 18198067082918203750
18681886 176 17977930307629659875
20775438 99 17914583233732312159
21033648 144 18272656791677713000
21033648 29 18334575745740485424
21524375 3 18115313258859004419
21703447 108 18124870407660611002
22393880 68 18408881815635174741
23227448 37 18339924921596486751
23558518 356 18116995696412106080
23559900 14 18202290195421326058
2838139 119 18188198789748509749
3004659 81 12391499884905237417
508706 21 18409725200866651557
7164475 11 18122067773536784126
7399639 24 17481420899874390456
9709674 26 18341054128480824512

> <PUBCHEM_SHAPE_MULTIPOLES>
490.78
11.19
4.42
1.31
1.21
2.23
0.1
-6.88
3.32
-4.03
0.12
0.26
0.1
2.33

> <PUBCHEM_SHAPE_SELFOVERLAP>
1012.254

> <PUBCHEM_SHAPE_VOLUME>
279.8

> <PUBCHEM_COORDINATE_TYPE>
2
5
10

$$$$
