38030170
  -OEChem-12032416413D

 51 52  0     1  0  0  0  0  0999 V2000
    5.5395   -1.2223    1.2041 O   0  0  0  0  0  0  0  0  0  0  0  0
   -1.1422    2.3393   -1.1074 O   0  0  0  0  0  0  0  0  0  0  0  0
   -1.6880    1.7499    1.0733 N   0  0  0  0  0  0  0  0  0  0  0  0
   -5.0212   -0.7258   -1.0998 N   0  0  0  0  0  0  0  0  0  0  0  0
    1.9754   -1.0360    0.0058 C   0  0  2  0  0  0  0  0  0  0  0  0
    1.2943   -0.1014   -1.0056 C   0  0  0  0  0  0  0  0  0  0  0  0
    3.5022   -0.7762    0.0388 C   0  0  1  0  0  0  0  0  0  0  0  0
    1.5295    1.3847   -0.6758 C   0  0  2  0  0  0  0  0  0  0  0  0
    1.6537   -2.4940   -0.3370 C   0  0  0  0  0  0  0  0  0  0  0  0
    2.9851    1.6690   -0.3655 C   0  0  0  0  0  0  0  0  0  0  0  0
    3.8549    0.6893   -0.0614 C   0  0  0  0  0  0  0  0  0  0  0  0
    0.6237    1.8461    0.4712 C   0  0  0  0  0  0  0  0  0  0  0  0
    4.1369   -1.3689    1.3021 C   0  0  0  0  0  0  0  0  0  0  0  0
    0.2796   -2.8770    0.2033 C   0  0  0  0  0  0  0  0  0  0  0  0
    1.7226   -2.7136   -1.8448 C   0  0  0  0  0  0  0  0  0  0  0  0
    3.4296    3.1023   -0.4574 C   0  0  0  0  0  0  0  0  0  0  0  0
   -0.8128    2.0124    0.0296 C   0  0  0  0  0  0  0  0  0  0  0  0
   -3.1242    1.8331    0.9388 C   0  0  0  0  0  0  0  0  0  0  0  0
   -3.7255    0.5247    0.5134 C   0  0  0  0  0  0  0  0  0  0  0  0
   -3.5704   -0.6201    1.2873 C   0  0  0  0  0  0  0  0  0  0  0  0
   -4.4533    0.4200   -0.6609 C   0  0  0  0  0  0  0  0  0  0  0  0
   -4.1401   -1.8177    0.8691 C   0  0  0  0  0  0  0  0  0  0  0  0
   -4.8493   -1.8177   -0.3212 C   0  0  0  0  0  0  0  0  0  0  0  0
    1.5821   -0.8226    1.0084 H   0  0  0  0  0  0  0  0  0  0  0  0
    0.2189   -0.2999   -1.0720 H   0  0  0  0  0  0  0  0  0  0  0  0
    1.7064   -0.2510   -2.0118 H   0  0  0  0  0  0  0  0  0  0  0  0
    3.9802   -1.2487   -0.8294 H   0  0  0  0  0  0  0  0  0  0  0  0
    1.2763    1.9488   -1.5842 H   0  0  0  0  0  0  0  0  0  0  0  0
    2.3772   -3.1666    0.1348 H   0  0  0  0  0  0  0  0  0  0  0  0
    4.8968    0.9578    0.0994 H   0  0  0  0  0  0  0  0  0  0  0  0
    0.9282    2.8325    0.8415 H   0  0  0  0  0  0  0  0  0  0  0  0
    0.6903    1.1632    1.3251 H   0  0  0  0  0  0  0  0  0  0  0  0
    3.9204   -2.4343    1.4120 H   0  0  0  0  0  0  0  0  0  0  0  0
    3.7912   -0.8498    2.2032 H   0  0  0  0  0  0  0  0  0  0  0  0
   -0.5234   -2.2809   -0.2414 H   0  0  0  0  0  0  0  0  0  0  0  0
    0.2355   -2.7471    1.2900 H   0  0  0  0  0  0  0  0  0  0  0  0
    0.0642   -3.9296   -0.0106 H   0  0  0  0  0  0  0  0  0  0  0  0
    0.8788   -2.2694   -2.3834 H   0  0  0  0  0  0  0  0  0  0  0  0
    1.6754   -3.7896   -2.0540 H   0  0  0  0  0  0  0  0  0  0  0  0
    2.6595   -2.3553   -2.2817 H   0  0  0  0  0  0  0  0  0  0  0  0
    3.1836    3.5138   -1.4417 H   0  0  0  0  0  0  0  0  0  0  0  0
    4.5112    3.2073   -0.3205 H   0  0  0  0  0  0  0  0  0  0  0  0
    2.9428    3.7140    0.3074 H   0  0  0  0  0  0  0  0  0  0  0  0
    5.9253   -1.5939    2.0156 H   0  0  0  0  0  0  0  0  0  0  0  0
   -1.3193    1.4820    1.9812 H   0  0  0  0  0  0  0  0  0  0  0  0
   -3.3667    2.6278    0.2242 H   0  0  0  0  0  0  0  0  0  0  0  0
   -3.5345    2.1268    1.9113 H   0  0  0  0  0  0  0  0  0  0  0  0
   -3.0117   -0.5918    2.2188 H   0  0  0  0  0  0  0  0  0  0  0  0
   -4.6095    1.2770   -1.3088 H   0  0  0  0  0  0  0  0  0  0  0  0
   -4.0322   -2.7224    1.4563 H   0  0  0  0  0  0  0  0  0  0  0  0
   -5.3128   -2.7261   -0.6914 H   0  0  0  0  0  0  0  0  0  0  0  0
  1 13  1  0  0  0  0
  1 44  1  0  0  0  0
  2 17  2  0  0  0  0
  3 17  1  0  0  0  0
  3 18  1  0  0  0  0
  3 45  1  0  0  0  0
  4 21  1  0  0  0  0
  4 23  2  0  0  0  0
  5  6  1  0  0  0  0
  5  7  1  0  0  0  0
  5  9  1  0  0  0  0
  5 24  1  0  0  0  0
  6  8  1  0  0  0  0
  6 25  1  0  0  0  0
  6 26  1  0  0  0  0
  7 11  1  0  0  0  0
  7 13  1  0  0  0  0
  7 27  1  0  0  0  0
  8 10  1  0  0  0  0
  8 12  1  0  0  0  0
  8 28  1  0  0  0  0
  9 14  1  0  0  0  0
  9 15  1  0  0  0  0
  9 29  1  0  0  0  0
 10 11  2  0  0  0  0
 10 16  1  0  0  0  0
 11 30  1  0  0  0  0
 12 17  1  0  0  0  0
 12 31  1  0  0  0  0
 12 32  1  0  0  0  0
 13 33  1  0  0  0  0
 13 34  1  0  0  0  0
 14 35  1  0  0  0  0
 14 36  1  0  0  0  0
 14 37  1  0  0  0  0
 15 38  1  0  0  0  0
 15 39  1  0  0  0  0
 15 40  1  0  0  0  0
 16 41  1  0  0  0  0
 16 42  1  0  0  0  0
 16 43  1  0  0  0  0
 18 19  1  0  0  0  0
 18 46  1  0  0  0  0
 18 47  1  0  0  0  0
 19 20  1  0  0  0  0
 19 21  2  0  0  0  0
 20 22  2  0  0  0  0
 20 48  1  0  0  0  0
 21 49  1  0  0  0  0
 22 23  1  0  0  0  0
 22 50  1  0  0  0  0
 23 51  1  0  0  0  0
M  END
> <PUBCHEM_COMPOUND_CID>
38030170

> <PUBCHEM_CONFORMER_RMSD>
1

> <PUBCHEM_CONFORMER_DIVERSEORDER>
1
112
66
58
22
74
54
95
82
113
3
81
31
64
108
25
88
20
42
87
49
32
92
5
105
59
90
62
29
70
86
33
21
57
18
99
52
47
14
77
84
96
7
56
46
41
91
48
35
76
115
55
8
73
104
37
26
97
98
15
27
4
114
16
110
67
40
2
72
44
36
50
13
107
109
94
19
11
12
61
6
24
102
39
89
80
78
69
83
30
17
45
43
68
23
106
93
103
71
75
28
100
51
10
65
9
101
85
34
53
38
79
111
60
63

> <PUBCHEM_MMFF94_PARTIAL_CHARGES>
25
1 -0.68
10 -0.28
11 -0.29
12 0.06
13 0.28
16 0.14
17 0.57
18 0.44
19 -0.14
2 -0.57
20 -0.15
21 0.16
22 -0.15
23 0.16
3 -0.73
30 0.15
4 -0.62
44 0.4
45 0.37
48 0.15
49 0.15
50 0.15
51 0.15
7 0.14
8 0.14

> <PUBCHEM_EFFECTIVE_ROTOR_COUNT>
7.8

> <PUBCHEM_PHARMACOPHORE_FEATURES>
8
1 1 acceptor
1 1 donor
1 2 acceptor
1 3 donor
1 4 acceptor
3 9 14 15 hydrophobe
6 4 19 20 21 22 23 rings
6 5 6 7 8 10 11 rings

> <PUBCHEM_HEAVY_ATOM_COUNT>
23

> <PUBCHEM_ATOM_DEF_STEREO_COUNT>
3

> <PUBCHEM_ATOM_UDEF_STEREO_COUNT>
0

> <PUBCHEM_BOND_DEF_STEREO_COUNT>
0

> <PUBCHEM_BOND_UDEF_STEREO_COUNT>
0

> <PUBCHEM_ISOTOPIC_ATOM_COUNT>
0

> <PUBCHEM_COMPONENT_COUNT>
1

> <PUBCHEM_CACTVS_TAUTO_COUNT>
2

> <PUBCHEM_CONFORMER_ID>
02444B5A00000001

> <PUBCHEM_MMFF94_ENERGY>
48.3299

> <PUBCHEM_FEATURE_SELFOVERLAP>
40.596

> <PUBCHEM_SHAPE_FINGERPRINT>
10447042 23 18339637949183106181
10616163 171 18342184345193491117
10759866 29 17897457309311253604
11118852 30 18202848759506282711
11488393 25 17201098988897695110
12553582 1 18119831135068468825
12596599 1 17771926947194373027
12596602 18 15769485495884223839
12633257 1 18336272223588838993
12838863 1 18338779183363343891
12839892 36 18341887459805810690
13083527 12 18335696126956899508
13224815 77 18341341036891455161
13402501 40 18046919439972140915
13911882 115 17988083284042118814
14178342 30 18126289632084412896
14787075 74 17701830005458550649
14790565 3 17323525562796653500
14955137 171 18201719497536728792
17349148 13 18408891736687589497
20028762 73 18272646848934275606
21315764 371 16988552550513384495
21673915 165 18341896289883693399
23559900 14 18341051800671951120
339767 52 18342728599270441055
3797600 57 17703798028350952752
392239 28 17774997981917765016
439807 62 18191582155122212271
445580 102 18194133030171408203
46194498 28 17387689647226437421
463206 1 18127406985523463407
474229 33 18340772662305032132
5104073 3 18413394249978924201
5312544 6 18264773336372354700
6287921 2 17773050678053320567
9709674 26 18339088064504251349

> <PUBCHEM_SHAPE_MULTIPOLES>
451.63
10.66
3.61
1.29
6.14
0.15
-0.07
2.68
1.63
-1.61
-0.51
-0.05
0.42
-0.69

> <PUBCHEM_SHAPE_SELFOVERLAP>
925.129

> <PUBCHEM_SHAPE_VOLUME>
258.8

> <PUBCHEM_COORDINATE_TYPE>
2
5
10

$$$$
