75536815
  -OEChem-12032416323D

 38 39  0     1  0  0  0  0  0999 V2000
    0.0977   -1.3668    0.3019 O   0  0  0  0  0  0  0  0  0  0  0  0
   -5.9044    0.6445   -0.7061 O   0  0  0  0  0  0  0  0  0  0  0  0
   -1.0805    2.0269    0.2954 O   0  0  0  0  0  0  0  0  0  0  0  0
    3.5196    1.4738   -0.3027 O   0  0  0  0  0  0  0  0  0  0  0  0
    5.7714    0.1233   -0.8967 O   0  0  0  0  0  0  0  0  0  0  0  0
   -3.3259   -0.1592    0.5306 N   0  0  0  0  0  0  0  0  0  0  0  0
    2.6752   -0.2805    0.9716 N   0  0  0  0  0  0  0  0  0  0  0  0
   -1.9681   -0.2301    0.0156 C   0  0  1  0  0  0  0  0  0  0  0  0
   -0.9952    0.6854    0.7354 C   0  0  1  0  0  0  0  0  0  0  0  0
    0.3369    0.0492    0.3622 C   0  0  1  0  0  0  0  0  0  0  0  0
   -4.2593   -0.6943   -0.4687 C   0  0  0  0  0  0  0  0  0  0  0  0
   -1.3220   -1.5881    0.2355 C   0  0  0  0  0  0  0  0  0  0  0  0
   -4.6648    0.4250   -1.4276 C   0  0  0  0  0  0  0  0  0  0  0  0
   -5.6861   -0.5653    0.0644 C   0  0  0  0  0  0  0  0  0  0  0  0
    1.4424    0.3409    1.3613 C   0  0  0  0  0  0  0  0  0  0  0  0
    3.6219    0.3425    0.1640 C   0  0  0  0  0  0  0  0  0  0  0  0
    4.8251   -0.5412   -0.0868 C   0  0  0  0  0  0  0  0  0  0  0  0
    6.9162   -0.6862   -1.1494 C   0  0  0  0  0  0  0  0  0  0  0  0
   -1.9434    0.0256   -1.0531 H   0  0  0  0  0  0  0  0  0  0  0  0
   -1.1560    0.6585    1.8204 H   0  0  0  0  0  0  0  0  0  0  0  0
    0.6534    0.3699   -0.6391 H   0  0  0  0  0  0  0  0  0  0  0  0
   -4.0147   -1.6642   -0.9092 H   0  0  0  0  0  0  0  0  0  0  0  0
   -1.6185   -2.0476    1.1854 H   0  0  0  0  0  0  0  0  0  0  0  0
   -1.5418   -2.2947   -0.5705 H   0  0  0  0  0  0  0  0  0  0  0  0
   -3.3785   -0.6176    1.4397 H   0  0  0  0  0  0  0  0  0  0  0  0
   -4.0473    1.3282   -1.4519 H   0  0  0  0  0  0  0  0  0  0  0  0
   -4.8666    0.1010   -2.4541 H   0  0  0  0  0  0  0  0  0  0  0  0
   -6.3719   -1.3567   -0.2563 H   0  0  0  0  0  0  0  0  0  0  0  0
   -5.8130   -0.3939    1.1378 H   0  0  0  0  0  0  0  0  0  0  0  0
    1.1900   -0.0679    2.3458 H   0  0  0  0  0  0  0  0  0  0  0  0
    1.5973    1.4205    1.4617 H   0  0  0  0  0  0  0  0  0  0  0  0
   -0.9413    2.0427   -0.6666 H   0  0  0  0  0  0  0  0  0  0  0  0
    2.8529   -1.2262    1.2977 H   0  0  0  0  0  0  0  0  0  0  0  0
    5.2748   -0.7973    0.8796 H   0  0  0  0  0  0  0  0  0  0  0  0
    4.4842   -1.4565   -0.5844 H   0  0  0  0  0  0  0  0  0  0  0  0
    7.6066   -0.1178   -1.7782 H   0  0  0  0  0  0  0  0  0  0  0  0
    6.6288   -1.5991   -1.6800 H   0  0  0  0  0  0  0  0  0  0  0  0
    7.4211   -0.9370   -0.2116 H   0  0  0  0  0  0  0  0  0  0  0  0
  1 10  1  0  0  0  0
  1 12  1  0  0  0  0
  2 13  1  0  0  0  0
  2 14  1  0  0  0  0
  3  9  1  0  0  0  0
  3 32  1  0  0  0  0
  4 16  2  0  0  0  0
  5 17  1  0  0  0  0
  5 18  1  0  0  0  0
  6  8  1  0  0  0  0
  6 11  1  0  0  0  0
  6 25  1  0  0  0  0
  7 15  1  0  0  0  0
  7 16  1  0  0  0  0
  7 33  1  0  0  0  0
  8  9  1  0  0  0  0
  8 12  1  0  0  0  0
  8 19  1  0  0  0  0
  9 10  1  0  0  0  0
  9 20  1  0  0  0  0
 10 15  1  0  0  0  0
 10 21  1  0  0  0  0
 11 13  1  0  0  0  0
 11 14  1  0  0  0  0
 11 22  1  0  0  0  0
 12 23  1  0  0  0  0
 12 24  1  0  0  0  0
 13 26  1  0  0  0  0
 13 27  1  0  0  0  0
 14 28  1  0  0  0  0
 14 29  1  0  0  0  0
 15 30  1  0  0  0  0
 15 31  1  0  0  0  0
 16 17  1  0  0  0  0
 17 34  1  0  0  0  0
 17 35  1  0  0  0  0
 18 36  1  0  0  0  0
 18 37  1  0  0  0  0
 18 38  1  0  0  0  0
M  END
> <PUBCHEM_COMPOUND_CID>
75536815

> <PUBCHEM_CONFORMER_RMSD>
0.8

> <PUBCHEM_CONFORMER_DIVERSEORDER>
1
85
107
46
119
40
31
8
120
92
23
82
88
35
32
122
84
94
3
108
39
74
4
15
95
79
53
72
29
96
90
60
75
110
17
99
20
57
25
77
115
81
56
101
93
123
68
37
65
87
38
34
112
73
71
13
45
12
61
118
27
113
26
52
55
11
121
105
86
21
97
102
114
42
28
14
2
9
16
41
104
98
51
91
67
116
83
80
48
63
30
5
47
44
70
43
54
111
36
62
117
89
59
69
7
6
22
109
78
24
50
103
64
10
66
106
19
18
49
58
76
100
33

> <PUBCHEM_MMFF94_PARTIAL_CHARGES>
21
1 -0.56
10 0.28
11 0.21
12 0.28
13 0.26
14 0.26
15 0.3
16 0.57
17 0.34
18 0.28
2 -0.52
25 0.36
3 -0.68
32 0.4
33 0.37
4 -0.57
5 -0.56
6 -0.84
7 -0.73
8 0.27
9 0.28

> <PUBCHEM_EFFECTIVE_ROTOR_COUNT>
8.8

> <PUBCHEM_PHARMACOPHORE_FEATURES>
11
1 1 acceptor
1 2 acceptor
1 3 acceptor
1 3 donor
1 4 acceptor
1 5 acceptor
1 6 cation
1 6 donor
1 7 donor
4 2 11 13 14 rings
5 1 8 9 10 12 rings

> <PUBCHEM_HEAVY_ATOM_COUNT>
18

> <PUBCHEM_ATOM_DEF_STEREO_COUNT>
3

> <PUBCHEM_ATOM_UDEF_STEREO_COUNT>
0

> <PUBCHEM_BOND_DEF_STEREO_COUNT>
0

> <PUBCHEM_BOND_UDEF_STEREO_COUNT>
0

> <PUBCHEM_ISOTOPIC_ATOM_COUNT>
0

> <PUBCHEM_COMPONENT_COUNT>
1

> <PUBCHEM_CACTVS_TAUTO_COUNT>
2

> <PUBCHEM_CONFORMER_ID>
048099AF00000001

> <PUBCHEM_MMFF94_ENERGY>
36.3697

> <PUBCHEM_FEATURE_SELFOVERLAP>
55.83

> <PUBCHEM_SHAPE_FINGERPRINT>
106641 1 10953749897718684829
117890 112 14129055906919157750
12236239 1 17385439916795645538
12555020 224 17917991693618749751
12596602 18 11746929872055920253
12670543 26 18342174436266037495
12954195 1 18058734593680414777
13288520 33 16774079566115229603
13533116 47 14908180855106456194
13544592 145 17988356065561514562
13668630 136 17060341820838107862
13760787 19 17458337559455950771
13955234 65 13118264968396920160
14123238 8 15213012752756359187
14251752 14 18408880711791494006
14911166 2 18341609339024166619
15048467 5 15647050460778197143
15183329 4 18408606929349091254
17834072 8 18409168818292655230
17834076 25 15719109158406422794
187816 3 18411699893864590923
19489759 90 13901912206895826395
19784866 240 16056887935569382658
200 152 16630528435878242114
20281389 69 13334732440732005822
20871999 31 18411420575056759136
21150785 3 17821732757715739926
21267235 1 18271807960833561987
21637258 2 15410888544254610038
22224240 67 11674879992143135233
23035841 295 18202565090334085283
23402539 116 17917714582397201449
23559900 14 18200307848759893736
25147074 1 18198062465099776330
266924 87 18267864969695437773
2916195 48 12612749120921024135
29717793 49 18059862762010094860
3004659 81 18412544319343231960
3759504 43 17821725074436355995
42 15 12895074037109740633
465052 167 16486974041713789188
542803 24 15864067680733375482
59682541 35 12396310244646714405
59755656 215 18201441342179712118

> <PUBCHEM_SHAPE_MULTIPOLES>
331.12
15.34
1.28
1.09
9.29
0.19
-0.11
-2.26
-7.28
-0.04
0.04
0.14
0.04
0.52

> <PUBCHEM_SHAPE_SELFOVERLAP>
663.661

> <PUBCHEM_SHAPE_VOLUME>
197.1

> <PUBCHEM_COORDINATE_TYPE>
2
5
10

$$$$
