28959868
  -OEChem-12032416413D

 63 65  0     1  0  0  0  0  0999 V2000
    3.9602   -0.5636    1.0957 O   0  0  0  0  0  0  0  0  0  0  0  0
   -3.3349   -4.3052    0.2677 O   0  0  0  0  0  0  0  0  0  0  0  0
   -1.8622   -4.9104   -1.3589 O   0  0  0  0  0  0  0  0  0  0  0  0
   -6.2898    2.9189    0.8194 O   0  0  0  0  0  0  0  0  0  0  0  0
    2.4177   -1.8446   -0.0778 N   0  0  0  0  0  0  0  0  0  0  0  0
   -1.9654    0.7064   -0.2500 N   0  0  0  0  0  0  0  0  0  0  0  0
   -4.0630    2.5944    0.2437 N   0  0  0  0  0  0  0  0  0  0  0  0
    0.0818   -2.4756   -0.6421 C   0  0  2  0  0  0  0  0  0  0  0  0
    0.2495   -3.7393    0.2397 C   0  0  1  0  0  0  0  0  0  0  0  0
    1.4542   -2.0218   -1.1717 C   0  0  0  0  0  0  0  0  0  0  0  0
    1.3035   -3.5259    1.3393 C   0  0  0  0  0  0  0  0  0  0  0  0
   -0.6276   -1.3131    0.0637 C   0  0  0  0  0  0  0  0  0  0  0  0
    2.6232   -3.0301    0.7539 C   0  0  0  0  0  0  0  0  0  0  0  0
   -1.0664   -4.2303    0.8424 C   0  0  0  0  0  0  0  0  0  0  0  0
   -1.3120   -0.4020   -0.9450 C   0  0  0  0  0  0  0  0  0  0  0  0
   -2.1818    1.8351   -1.1669 C   0  0  0  0  0  0  0  0  0  0  0  0
   -3.2407    0.2684    0.3360 C   0  0  0  0  0  0  0  0  0  0  0  0
    3.1360   -0.6786    0.1850 C   0  0  0  0  0  0  0  0  0  0  0  0
   -2.8367    3.0124   -0.4419 C   0  0  0  0  0  0  0  0  0  0  0  0
   -3.9106    1.4143    1.0934 C   0  0  0  0  0  0  0  0  0  0  0  0
   -2.0875   -4.5269   -0.2208 C   0  0  0  0  0  0  0  0  0  0  0  0
    2.8650    0.4998   -0.7159 C   0  0  0  0  0  0  0  0  0  0  0  0
   -5.2701    3.2917    0.2336 C   0  0  0  0  0  0  0  0  0  0  0  0
    3.7336    1.6603   -0.3424 C   0  0  0  0  0  0  0  0  0  0  0  0
   -5.3003    4.5761   -0.5559 C   0  0  0  0  0  0  0  0  0  0  0  0
    3.2887    2.5906    0.5968 C   0  0  0  0  0  0  0  0  0  0  0  0
    4.9878    1.8113   -0.9337 C   0  0  0  0  0  0  0  0  0  0  0  0
    4.0981    3.6720    0.9446 C   0  0  0  0  0  0  0  0  0  0  0  0
    5.7973    2.8927   -0.5857 C   0  0  0  0  0  0  0  0  0  0  0  0
    5.3524    3.8230    0.3536 C   0  0  0  0  0  0  0  0  0  0  0  0
   -0.5128   -2.7560   -1.5205 H   0  0  0  0  0  0  0  0  0  0  0  0
    0.6310   -4.5359   -0.4168 H   0  0  0  0  0  0  0  0  0  0  0  0
    1.8690   -2.7975   -1.8282 H   0  0  0  0  0  0  0  0  0  0  0  0
    1.3586   -1.1261   -1.7857 H   0  0  0  0  0  0  0  0  0  0  0  0
    1.4768   -4.4617    1.8835 H   0  0  0  0  0  0  0  0  0  0  0  0
    0.9338   -2.7943    2.0689 H   0  0  0  0  0  0  0  0  0  0  0  0
    0.0751   -0.7388    0.6797 H   0  0  0  0  0  0  0  0  0  0  0  0
   -1.3819   -1.6925    0.7509 H   0  0  0  0  0  0  0  0  0  0  0  0
    3.3296   -2.8218    1.5636 H   0  0  0  0  0  0  0  0  0  0  0  0
    3.0739   -3.8015    0.1183 H   0  0  0  0  0  0  0  0  0  0  0  0
   -0.8946   -5.1714    1.3801 H   0  0  0  0  0  0  0  0  0  0  0  0
   -1.4691   -3.5287    1.5786 H   0  0  0  0  0  0  0  0  0  0  0  0
   -2.0220   -0.9585   -1.5706 H   0  0  0  0  0  0  0  0  0  0  0  0
   -0.5460   -0.0049   -1.6213 H   0  0  0  0  0  0  0  0  0  0  0  0
   -2.8122    1.5279   -2.0121 H   0  0  0  0  0  0  0  0  0  0  0  0
   -1.2239    2.1783   -1.5759 H   0  0  0  0  0  0  0  0  0  0  0  0
   -3.0978   -0.5495    1.0488 H   0  0  0  0  0  0  0  0  0  0  0  0
   -3.9206   -0.0944   -0.4468 H   0  0  0  0  0  0  0  0  0  0  0  0
   -2.1623    3.4158    0.3234 H   0  0  0  0  0  0  0  0  0  0  0  0
   -3.0290    3.8117   -1.1605 H   0  0  0  0  0  0  0  0  0  0  0  0
   -4.8817    1.0864    1.4782 H   0  0  0  0  0  0  0  0  0  0  0  0
   -3.3021    1.7132    1.9560 H   0  0  0  0  0  0  0  0  0  0  0  0
    1.8096    0.7852   -0.6394 H   0  0  0  0  0  0  0  0  0  0  0  0
    3.0628    0.2198   -1.7570 H   0  0  0  0  0  0  0  0  0  0  0  0
   -4.0277   -4.4879   -0.4022 H   0  0  0  0  0  0  0  0  0  0  0  0
   -5.1708    4.3650   -1.6206 H   0  0  0  0  0  0  0  0  0  0  0  0
   -4.5229    5.2591   -0.2030 H   0  0  0  0  0  0  0  0  0  0  0  0
   -6.2695    5.0653   -0.4180 H   0  0  0  0  0  0  0  0  0  0  0  0
    2.3140    2.4831    1.0657 H   0  0  0  0  0  0  0  0  0  0  0  0
    5.3470    1.0923   -1.6652 H   0  0  0  0  0  0  0  0  0  0  0  0
    3.7519    4.3963    1.6763 H   0  0  0  0  0  0  0  0  0  0  0  0
    6.7742    3.0101   -1.0455 H   0  0  0  0  0  0  0  0  0  0  0  0
    5.9827    4.6649    0.6248 H   0  0  0  0  0  0  0  0  0  0  0  0
  1 18  2  0  0  0  0
  2 21  1  0  0  0  0
  2 55  1  0  0  0  0
  3 21  2  0  0  0  0
  4 23  2  0  0  0  0
  5 10  1  0  0  0  0
  5 13  1  0  0  0  0
  5 18  1  0  0  0  0
  6 15  1  0  0  0  0
  6 16  1  0  0  0  0
  6 17  1  0  0  0  0
  7 19  1  0  0  0  0
  7 20  1  0  0  0  0
  7 23  1  0  0  0  0
  8  9  1  0  0  0  0
  8 10  1  0  0  0  0
  8 12  1  0  0  0  0
  8 31  1  0  0  0  0
  9 11  1  0  0  0  0
  9 14  1  0  0  0  0
  9 32  1  0  0  0  0
 10 33  1  0  0  0  0
 10 34  1  0  0  0  0
 11 13  1  0  0  0  0
 11 35  1  0  0  0  0
 11 36  1  0  0  0  0
 12 15  1  0  0  0  0
 12 37  1  0  0  0  0
 12 38  1  0  0  0  0
 13 39  1  0  0  0  0
 13 40  1  0  0  0  0
 14 21  1  0  0  0  0
 14 41  1  0  0  0  0
 14 42  1  0  0  0  0
 15 43  1  0  0  0  0
 15 44  1  0  0  0  0
 16 19  1  0  0  0  0
 16 45  1  0  0  0  0
 16 46  1  0  0  0  0
 17 20  1  0  0  0  0
 17 47  1  0  0  0  0
 17 48  1  0  0  0  0
 18 22  1  0  0  0  0
 19 49  1  0  0  0  0
 19 50  1  0  0  0  0
 20 51  1  0  0  0  0
 20 52  1  0  0  0  0
 22 24  1  0  0  0  0
 22 53  1  0  0  0  0
 22 54  1  0  0  0  0
 23 25  1  0  0  0  0
 24 26  2  0  0  0  0
 24 27  1  0  0  0  0
 25 56  1  0  0  0  0
 25 57  1  0  0  0  0
 25 58  1  0  0  0  0
 26 28  1  0  0  0  0
 26 59  1  0  0  0  0
 27 29  2  0  0  0  0
 27 60  1  0  0  0  0
 28 30  2  0  0  0  0
 28 61  1  0  0  0  0
 29 30  1  0  0  0  0
 29 62  1  0  0  0  0
 30 63  1  0  0  0  0
M  END
> <PUBCHEM_COMPOUND_CID>
28959868

> <PUBCHEM_CONFORMER_RMSD>
1

> <PUBCHEM_CONFORMER_DIVERSEORDER>
2
78
160
23
237
274
153
31
131
217
75
258
128
269
241
194
38
150
262
18
261
204
177
9
94
149
214
263
165
189
127
96
273
279
166
109
101
278
178
182
142
253
265
248
138
151
215
210
244
213
136
135
144
1
245
246
209
271
103
60
232
124
137
207
227
84
88
229
179
255
155
238
195
71
159
130
29
174
67
55
20
69
184
89
170
181
216
15
188
108
66
256
139
24
230
223
92
249
25
212
186
267
53
3
260
115
132
77
180
280
281
112
270
116
154
37
85
104
187
247
97
226
264
5
72
168
250
93
240
191
141
205
162
63
17
196
45
169
199
235
231
243
220
68
80
211
28
272
107
239
54
126
157
86
32
198
106
47
233
46
61
81
19
197
219
44
122
242
183
56
120
58
113
192
111
193
173
48
91
201
100
49
190
252
266
121
175
110
146
208
105
222
40
277
158
27
129
102
10
26
52
87
119
152
50
148
114
21
22
164
73
8
254
62
134
33
30
79
156
218
36
123
42
228
202
140
185
257
83
147
11
268
133
163
171
74
39
51
34
143
251
118
167
206
99
90
98
6
225
65
13
221
176
276
161
117
275
234
145
259
172
200
4
43
12
41
16
236
203
64
125
14
57
224
95
76
70
35
82
7
59

> <PUBCHEM_MMFF94_PARTIAL_CHARGES>
32
1 -0.57
10 0.3
13 0.3
14 0.06
15 0.27
16 0.27
17 0.27
18 0.57
19 0.3
2 -0.65
20 0.3
21 0.66
22 0.2
23 0.57
24 -0.14
25 0.06
26 -0.15
27 -0.15
28 -0.15
29 -0.15
3 -0.57
30 -0.15
4 -0.57
5 -0.66
55 0.5
59 0.15
6 -0.81
60 0.15
61 0.15
62 0.15
63 0.15
7 -0.66

> <PUBCHEM_EFFECTIVE_ROTOR_COUNT>
11.4

> <PUBCHEM_PHARMACOPHORE_FEATURES>
9
1 1 acceptor
1 2 acceptor
1 3 acceptor
1 4 acceptor
1 6 cation
3 2 3 21 anion
6 24 26 27 28 29 30 rings
6 5 8 9 10 11 13 rings
6 6 7 16 17 19 20 rings

> <PUBCHEM_HEAVY_ATOM_COUNT>
30

> <PUBCHEM_ATOM_DEF_STEREO_COUNT>
2

> <PUBCHEM_ATOM_UDEF_STEREO_COUNT>
0

> <PUBCHEM_BOND_DEF_STEREO_COUNT>
0

> <PUBCHEM_BOND_UDEF_STEREO_COUNT>
0

> <PUBCHEM_ISOTOPIC_ATOM_COUNT>
0

> <PUBCHEM_COMPONENT_COUNT>
1

> <PUBCHEM_CACTVS_TAUTO_COUNT>
1

> <PUBCHEM_CONFORMER_ID>
01B9E47C00000002

> <PUBCHEM_MMFF94_ENERGY>
63.6265

> <PUBCHEM_FEATURE_SELFOVERLAP>
45.729

> <PUBCHEM_SHAPE_FINGERPRINT>
10006869 2 18265884946512020894
10675989 125 18199188391125595640
10937287 8 18410291415137674956
1100329 8 18410007694631702786
11059845 2 18122032495551680640
12107183 9 18335124385943785378
12293681 160 17685751907102843830
12788726 201 17975400631995366994
13944108 23 17904491697096774692
13965767 371 18041273305907712252
14251764 75 18410859879951229120
14394314 77 16969149717868290581
14790565 3 18339641144976260949
14849402 71 18192994816476952002
151778 21 18337951195225184696
15439362 3 18339925918667547300
15927050 60 18411703200884180086
19427546 62 18338237042657294519
21133410 62 18341068349281527689
21716022 299 13899946120569030044
22122407 14 18053395292761166697
23559900 14 17831866742373517123
23845131 108 18408323272354920869
283562 15 18048026669149797062
4058900 60 18338251366157735120
469060 322 17830744514231423914
5252454 2 18333454235848960188
57527585 21 18055618762695579262
653340 110 18194681699094423376
7808743 9 18338518659399938304
9777508 108 18339361993165770936
9849439 229 18341036476297464472

> <PUBCHEM_SHAPE_MULTIPOLES>
578.97
12.29
8.66
1.13
0.41
4.69
0.02
-21.7
-1.08
-6.45
-0.51
0.13
0.26
-0.46

> <PUBCHEM_SHAPE_SELFOVERLAP>
1195.435

> <PUBCHEM_SHAPE_VOLUME>
327.7

> <PUBCHEM_COORDINATE_TYPE>
2
5
10

$$$$
