40777440
  -OEChem-12032416173D

 73 77  0     1  0  0  0  0  0999 V2000
   -2.4942   -3.5354   -1.0850 O   0  0  0  0  0  0  0  0  0  0  0  0
    4.6407   -0.3218   -1.8408 O   0  0  0  0  0  0  0  0  0  0  0  0
    9.8047    2.5881    0.2720 O   0  0  0  0  0  0  0  0  0  0  0  0
   -3.7625   -1.8677   -0.0817 N   0  0  0  0  0  0  0  0  0  0  0  0
    1.5684   -3.3880    2.3326 N   0  0  0  0  0  0  0  0  0  0  0  0
    3.3514   -0.8323   -1.9316 N   0  0  0  0  0  0  0  0  0  0  0  0
   -0.1322   -2.9152   -0.0319 C   0  0  1  0  0  0  0  0  0  0  0  0
    1.2385   -2.2246    0.1638 C   0  0  2  0  0  0  0  0  0  0  0  0
   -0.1529   -4.2262    0.7717 C   0  0  0  0  0  0  0  0  0  0  0  0
   -1.3327   -2.0333    0.3320 C   0  0  0  0  0  0  0  0  0  0  0  0
    1.6007   -2.0927    1.6527 C   0  0  0  0  0  0  0  0  0  0  0  0
   -5.9039    0.0304   -0.5572 C   0  0  0  0  0  0  0  0  0  0  0  0
    0.2563   -4.0231    2.2299 C   0  0  0  0  0  0  0  0  0  0  0  0
    1.3305   -0.8668   -0.5338 C   0  0  0  0  0  0  0  0  0  0  0  0
   -4.5620    0.4604    0.0547 C   0  0  0  0  0  0  0  0  0  0  0  0
   -5.7110   -1.2122   -1.4395 C   0  0  0  0  0  0  0  0  0  0  0  0
   -3.8921   -0.6969    0.7937 C   0  0  0  0  0  0  0  0  0  0  0  0
   -5.0193   -2.3345   -0.6692 C   0  0  0  0  0  0  0  0  0  0  0  0
   -2.5766   -2.5524   -0.3441 C   0  0  0  0  0  0  0  0  0  0  0  0
   -6.5277    1.1725   -1.3557 C   0  0  0  0  0  0  0  0  0  0  0  0
    2.7580   -0.4780   -0.7881 C   0  0  0  0  0  0  0  0  0  0  0  0
   -7.1914    2.1798   -0.4574 C   0  0  0  0  0  0  0  0  0  0  0  0
    3.6153    0.2504    0.0546 C   0  0  0  0  0  0  0  0  0  0  0  0
    4.7857    0.3208   -0.6537 C   0  0  0  0  0  0  0  0  0  0  0  0
   -8.5351    2.0303   -0.1140 C   0  0  0  0  0  0  0  0  0  0  0  0
   -6.4629    3.2638    0.0324 C   0  0  0  0  0  0  0  0  0  0  0  0
   -9.1503    2.9648    0.7192 C   0  0  0  0  0  0  0  0  0  0  0  0
   -7.0780    4.1982    0.8657 C   0  0  0  0  0  0  0  0  0  0  0  0
    6.0741    0.9039   -0.4164 C   0  0  0  0  0  0  0  0  0  0  0  0
   -8.4217    4.0487    1.2089 C   0  0  0  0  0  0  0  0  0  0  0  0
    6.3225    1.5858    0.7749 C   0  0  0  0  0  0  0  0  0  0  0  0
    7.0794    0.7887   -1.3766 C   0  0  0  0  0  0  0  0  0  0  0  0
    7.5757    2.1527    1.0059 C   0  0  0  0  0  0  0  0  0  0  0  0
    8.3327    1.3555   -1.1457 C   0  0  0  0  0  0  0  0  0  0  0  0
    8.5808    2.0375    0.0455 C   0  0  0  0  0  0  0  0  0  0  0  0
    9.9910    3.2686    1.5123 C   0  0  0  0  0  0  0  0  0  0  0  0
   -0.1858   -3.1749   -1.0983 H   0  0  0  0  0  0  0  0  0  0  0  0
    1.9852   -2.8945   -0.2912 H   0  0  0  0  0  0  0  0  0  0  0  0
    0.5450   -4.9346    0.3050 H   0  0  0  0  0  0  0  0  0  0  0  0
   -1.1376   -4.7048    0.7373 H   0  0  0  0  0  0  0  0  0  0  0  0
   -1.1886   -1.0132   -0.0355 H   0  0  0  0  0  0  0  0  0  0  0  0
   -1.4883   -1.9924    1.4132 H   0  0  0  0  0  0  0  0  0  0  0  0
    2.6143   -1.6976    1.7664 H   0  0  0  0  0  0  0  0  0  0  0  0
    0.9269   -1.3895    2.1579 H   0  0  0  0  0  0  0  0  0  0  0  0
   -6.5788   -0.2546    0.2626 H   0  0  0  0  0  0  0  0  0  0  0  0
   -0.4929   -3.4394    2.7757 H   0  0  0  0  0  0  0  0  0  0  0  0
    0.3055   -5.0016    2.7208 H   0  0  0  0  0  0  0  0  0  0  0  0
    0.8484   -0.0803    0.0599 H   0  0  0  0  0  0  0  0  0  0  0  0
    0.8067   -0.9016   -1.4980 H   0  0  0  0  0  0  0  0  0  0  0  0
   -4.6983    1.2812    0.7652 H   0  0  0  0  0  0  0  0  0  0  0  0
   -3.8897    0.8184   -0.7355 H   0  0  0  0  0  0  0  0  0  0  0  0
   -5.1055   -0.9495   -2.3167 H   0  0  0  0  0  0  0  0  0  0  0  0
   -6.6795   -1.5686   -1.8093 H   0  0  0  0  0  0  0  0  0  0  0  0
   -2.9291   -0.3623    1.1824 H   0  0  0  0  0  0  0  0  0  0  0  0
   -4.4990   -1.0026    1.6543 H   0  0  0  0  0  0  0  0  0  0  0  0
   -5.6549   -2.6849    0.1526 H   0  0  0  0  0  0  0  0  0  0  0  0
   -4.8465   -3.1863   -1.3344 H   0  0  0  0  0  0  0  0  0  0  0  0
    1.8046   -3.2590    3.3159 H   0  0  0  0  0  0  0  0  0  0  0  0
   -7.2851    0.7804   -2.0478 H   0  0  0  0  0  0  0  0  0  0  0  0
   -5.7827    1.6661   -1.9933 H   0  0  0  0  0  0  0  0  0  0  0  0
    3.4030    0.6622    1.0305 H   0  0  0  0  0  0  0  0  0  0  0  0
   -9.1131    1.1890   -0.4870 H   0  0  0  0  0  0  0  0  0  0  0  0
   -5.4183    3.3996   -0.2344 H   0  0  0  0  0  0  0  0  0  0  0  0
  -10.1964    2.8483    0.9869 H   0  0  0  0  0  0  0  0  0  0  0  0
   -6.5115    5.0434    1.2454 H   0  0  0  0  0  0  0  0  0  0  0  0
   -8.9007    4.7765    1.8573 H   0  0  0  0  0  0  0  0  0  0  0  0
    5.5587    1.6913    1.5412 H   0  0  0  0  0  0  0  0  0  0  0  0
    6.9249    0.2652   -2.3167 H   0  0  0  0  0  0  0  0  0  0  0  0
    7.7009    2.6681    1.9521 H   0  0  0  0  0  0  0  0  0  0  0  0
    9.1124    1.2624   -1.8969 H   0  0  0  0  0  0  0  0  0  0  0  0
   11.0200    3.6427    1.5242 H   0  0  0  0  0  0  0  0  0  0  0  0
    9.8885    2.5879    2.3642 H   0  0  0  0  0  0  0  0  0  0  0  0
    9.3330    4.1403    1.5957 H   0  0  0  0  0  0  0  0  0  0  0  0
  1 19  2  0  0  0  0
  2  6  1  0  0  0  0
  2 24  1  0  0  0  0
  3 35  1  0  0  0  0
  3 36  1  0  0  0  0
  4 17  1  0  0  0  0
  4 18  1  0  0  0  0
  4 19  1  0  0  0  0
  5 11  1  0  0  0  0
  5 13  1  0  0  0  0
  5 58  1  0  0  0  0
  6 21  2  0  0  0  0
  7  8  1  0  0  0  0
  7  9  1  0  0  0  0
  7 10  1  0  0  0  0
  7 37  1  0  0  0  0
  8 11  1  0  0  0  0
  8 14  1  0  0  0  0
  8 38  1  0  0  0  0
  9 13  1  0  0  0  0
  9 39  1  0  0  0  0
  9 40  1  0  0  0  0
 10 19  1  0  0  0  0
 10 41  1  0  0  0  0
 10 42  1  0  0  0  0
 11 43  1  0  0  0  0
 11 44  1  0  0  0  0
 12 15  1  0  0  0  0
 12 16  1  0  0  0  0
 12 20  1  0  0  0  0
 12 45  1  0  0  0  0
 13 46  1  0  0  0  0
 13 47  1  0  0  0  0
 14 21  1  0  0  0  0
 14 48  1  0  0  0  0
 14 49  1  0  0  0  0
 15 17  1  0  0  0  0
 15 50  1  0  0  0  0
 15 51  1  0  0  0  0
 16 18  1  0  0  0  0
 16 52  1  0  0  0  0
 16 53  1  0  0  0  0
 17 54  1  0  0  0  0
 17 55  1  0  0  0  0
 18 56  1  0  0  0  0
 18 57  1  0  0  0  0
 20 22  1  0  0  0  0
 20 59  1  0  0  0  0
 20 60  1  0  0  0  0
 21 23  1  0  0  0  0
 22 25  2  0  0  0  0
 22 26  1  0  0  0  0
 23 24  2  0  0  0  0
 23 61  1  0  0  0  0
 24 29  1  0  0  0  0
 25 27  1  0  0  0  0
 25 62  1  0  0  0  0
 26 28  2  0  0  0  0
 26 63  1  0  0  0  0
 27 30  2  0  0  0  0
 27 64  1  0  0  0  0
 28 30  1  0  0  0  0
 28 65  1  0  0  0  0
 29 31  2  0  0  0  0
 29 32  1  0  0  0  0
 30 66  1  0  0  0  0
 31 33  1  0  0  0  0
 31 67  1  0  0  0  0
 32 34  2  0  0  0  0
 32 68  1  0  0  0  0
 33 35  2  0  0  0  0
 33 69  1  0  0  0  0
 34 35  1  0  0  0  0
 34 70  1  0  0  0  0
 36 71  1  0  0  0  0
 36 72  1  0  0  0  0
 36 73  1  0  0  0  0
M  END
> <PUBCHEM_COMPOUND_CID>
40777440

> <PUBCHEM_CONFORMER_RMSD>
1.4

> <PUBCHEM_CONFORMER_DIVERSEORDER>
1
6
73
61
34
69
129
47
122
107
115
125
153
52
98
99
161
18
117
66
53
70
43
83
16
49
84
151
157
76
78
8
135
108
50
112
109
62
90
58
75
149
102
111
156
118
137
114
136
159
3
48
35
92
162
81
100
23
96
124
132
85
139
29
105
56
152
144
97
68
57
55
45
143
148
22
163
77
27
142
88
133
32
82
13
33
31
123
64
110
71
141
130
103
24
67
9
36
20
51
63
10
113
154
4
155
121
128
2
131
59
39
87
95
41
101
12
145
37
146
26
127
15
119
14
94
158
106
104
28
89
30
7
44
21
46
150
147
72
11
79
25
164
65
160
38
140
134
74
120
42
126
116
91
54
5
40
93
86
60
138
19
80
17

> <PUBCHEM_MMFF94_PARTIAL_CHARGES>
41
1 -0.57
10 0.06
11 0.27
13 0.27
14 0.18
17 0.3
18 0.3
19 0.57
2 -0.02
20 0.14
21 0.11
22 -0.14
23 -0.15
24 0.09
25 -0.15
26 -0.15
27 -0.15
28 -0.15
29 0.05
3 -0.36
30 -0.15
31 -0.15
32 -0.15
33 -0.15
34 -0.15
35 0.08
36 0.28
4 -0.66
5 -0.9
58 0.36
6 -0.41
61 0.15
62 0.15
63 0.15
64 0.15
65 0.15
66 0.15
67 0.15
68 0.15
69 0.15
70 0.15

> <PUBCHEM_EFFECTIVE_ROTOR_COUNT>
11.4

> <PUBCHEM_PHARMACOPHORE_FEATURES>
10
1 1 acceptor
1 3 acceptor
1 5 cation
1 5 donor
1 6 acceptor
5 2 6 21 23 24 rings
6 22 25 26 27 28 30 rings
6 29 31 32 33 34 35 rings
6 4 12 15 16 17 18 rings
6 5 7 8 9 11 13 rings

> <PUBCHEM_HEAVY_ATOM_COUNT>
36

> <PUBCHEM_ATOM_DEF_STEREO_COUNT>
2

> <PUBCHEM_ATOM_UDEF_STEREO_COUNT>
0

> <PUBCHEM_BOND_DEF_STEREO_COUNT>
0

> <PUBCHEM_BOND_UDEF_STEREO_COUNT>
0

> <PUBCHEM_ISOTOPIC_ATOM_COUNT>
0

> <PUBCHEM_COMPONENT_COUNT>
1

> <PUBCHEM_CACTVS_TAUTO_COUNT>
1

> <PUBCHEM_CONFORMER_ID>
026E36E000000001

> <PUBCHEM_MMFF94_ENERGY>
83.3825

> <PUBCHEM_FEATURE_SELFOVERLAP>
50.748

> <PUBCHEM_SHAPE_FINGERPRINT>
10055352 69 18272934930445672665
10280341 67 18411978057205823060
10533779 1 18261100856177877965
10939801 23 18339081472320925805
11181472 205 18333450959490500532
11421887 45 18341881975408010409
11497681 19 10519445017182725884
11578821 258 18194401324368845420
117089 54 9583226267568356557
11973864 47 18413666921163623851
1200032 147 18186804643137336227
12013929 29 17912088249092921609
12061779 8 18199185093228261645
12133447 93 18410587179729192732
1361 87 13542164131491156149
13726171 33 18341899546534813483
14040222 383 18409728495644787385
14394314 77 18261108586443510604
15145347 29 12757154584873452776
15289351 153 18409438194600031906
15347591 1 18412265000415003487
15439362 3 18410576145785018758
15685185 35 18413672397073404513
16067689 68 11891607980521547581
16126227 98 18411704249826735189
17899979 129 18269840822213968655
19302320 297 17821737138603981725
19304671 126 18200603475126285319
19438510 23 18260270720608843971
208703 8 9655568592009221987
21298829 104 18409451358653617485
21424621 283 18334575771990278418
21756936 100 18189051065389034170
21774942 28 18412823590738034414
21796203 349 15502378954479678134
22899556 56 17970639694807446066
23522609 53 16662349510306060326
23729417 116 11167955649025505538
255183 451 10807924960203158259
3504750 166 8718828700660620423
3918712 181 18412822465082803528
393628 194 18335143128596028997
406291 66 9439395827102051445
4112364 45 18114740413322415611
437795 171 17828196594014934485
44802255 64 17560803285563211039
44880568 143 18270405022223971100
4516262 110 18261385599930077647
474113 269 8285903650965954449
4756326 101 17632003239947485096
5372103 7 17917714595260887820
54039377 194 9871748005278386217
5718773 13 8934707895577760351
5776283 40 18272367564807591553
5937810 71 17917718981182392489
6201320 82 18271540735588454192
636775 72 18340204188849770293
6673363 416 18201997768858266157
6698420 124 18187367631941278466
9896288 288 18115312322763038443
999808 66 12252165404079703698

> <PUBCHEM_SHAPE_MULTIPOLES>
708.31
33.63
6
1.64
21.52
0.94
-0.3
-57.35
-1.23
-6.69
-3.32
1.25
0.77
-1.44

> <PUBCHEM_SHAPE_SELFOVERLAP>
1512.506

> <PUBCHEM_SHAPE_VOLUME>
389.4

> <PUBCHEM_COORDINATE_TYPE>
2
5
10

$$$$
