45361631
  -OEChem-12032416313D

 67 70  0     1  0  0  0  0  0999 V2000
    0.7868   -1.7737   -1.6222 O   0  0  0  0  0  0  0  0  0  0  0  0
    5.3225   -1.6086    1.0980 O   0  0  0  0  0  0  0  0  0  0  0  0
   -4.7561    2.1861   -0.7669 O   0  0  0  0  0  0  0  0  0  0  0  0
    6.2093    1.2740    0.2966 O   0  0  0  0  0  0  0  0  0  0  0  0
   -3.9986    0.1474    0.0364 N   0  0  0  0  0  0  0  0  0  0  0  0
    5.3077   -1.1058   -1.1663 N   0  0  0  0  0  0  0  0  0  0  0  0
   -8.7307    0.9132   -0.2757 N   0  0  0  0  0  0  0  0  0  0  0  0
   -7.8979   -1.3328   -0.5374 N   0  0  0  0  0  0  0  0  0  0  0  0
    0.0445    0.2777    1.5108 C   0  0  1  0  0  0  0  0  0  0  0  0
   -0.1693   -0.3076    0.0753 C   0  0  2  0  0  0  0  0  0  0  0  0
   -1.6718   -0.7086   -0.1469 C   0  0  1  0  0  0  0  0  0  0  0  0
    0.8729   -1.4186   -0.2414 C   0  0  2  0  0  0  0  0  0  0  0  0
    1.5052    0.7659    1.6568 C   0  0  0  0  0  0  0  0  0  0  0  0
   -0.8816    1.5015    1.6994 C   0  0  0  0  0  0  0  0  0  0  0  0
    2.3280   -0.9571    0.0064 C   0  0  1  0  0  0  0  0  0  0  0  0
   -2.5994    0.5103    0.1187 C   0  0  2  0  0  0  0  0  0  0  0  0
    2.5278   -0.3297    1.3859 C   0  0  0  0  0  0  0  0  0  0  0  0
   -2.3514    1.1795    1.4704 C   0  0  0  0  0  0  0  0  0  0  0  0
   -0.2474   -0.7594    2.6248 C   0  0  0  0  0  0  0  0  0  0  0  0
    3.3289   -2.1032   -0.1850 C   0  0  2  0  0  0  0  0  0  0  0  0
   -1.9592   -1.2663   -1.5512 C   0  0  0  0  0  0  0  0  0  0  0  0
    3.0131   -3.2422    0.7782 C   0  0  0  0  0  0  0  0  0  0  0  0
    4.7518   -1.5888    0.0094 C   0  0  0  0  0  0  0  0  0  0  0  0
   -4.9679    1.0314   -0.4059 C   0  0  0  0  0  0  0  0  0  0  0  0
   -6.3607    0.5147   -0.4064 C   0  0  0  0  0  0  0  0  0  0  0  0
    6.6451   -0.5640   -1.2334 C   0  0  0  0  0  0  0  0  0  0  0  0
   -7.4534    1.3477   -0.2795 C   0  0  0  0  0  0  0  0  0  0  0  0
   -6.6462   -0.8295   -0.5332 C   0  0  0  0  0  0  0  0  0  0  0  0
    6.6719    0.9056   -0.9270 C   0  0  0  0  0  0  0  0  0  0  0  0
    7.0791    2.0080   -1.6418 C   0  0  0  0  0  0  0  0  0  0  0  0
   -8.8782   -0.4190   -0.4066 C   0  0  0  0  0  0  0  0  0  0  0  0
    6.8524    3.1256   -0.8036 C   0  0  0  0  0  0  0  0  0  0  0  0
    6.3225    2.6264    0.3636 C   0  0  0  0  0  0  0  0  0  0  0  0
    0.0256    0.5044   -0.6436 H   0  0  0  0  0  0  0  0  0  0  0  0
   -1.9334   -1.5078    0.5582 H   0  0  0  0  0  0  0  0  0  0  0  0
    0.6069   -2.3037    0.3394 H   0  0  0  0  0  0  0  0  0  0  0  0
    1.6888    1.5944    0.9593 H   0  0  0  0  0  0  0  0  0  0  0  0
    1.6718    1.1717    2.6630 H   0  0  0  0  0  0  0  0  0  0  0  0
   -0.7596    1.9188    2.7070 H   0  0  0  0  0  0  0  0  0  0  0  0
   -0.5887    2.2968    1.0008 H   0  0  0  0  0  0  0  0  0  0  0  0
    2.5666   -0.1856   -0.7410 H   0  0  0  0  0  0  0  0  0  0  0  0
   -2.4036    1.2579   -0.6626 H   0  0  0  0  0  0  0  0  0  0  0  0
    2.4752   -1.0565    2.1987 H   0  0  0  0  0  0  0  0  0  0  0  0
    3.5156    0.1393    1.4574 H   0  0  0  0  0  0  0  0  0  0  0  0
   -2.9309    2.1095    1.5365 H   0  0  0  0  0  0  0  0  0  0  0  0
   -2.7288    0.5448    2.2815 H   0  0  0  0  0  0  0  0  0  0  0  0
    0.3659   -1.6597    2.5296 H   0  0  0  0  0  0  0  0  0  0  0  0
   -0.0440   -0.3304    3.6130 H   0  0  0  0  0  0  0  0  0  0  0  0
   -1.2880   -1.0935    2.6318 H   0  0  0  0  0  0  0  0  0  0  0  0
    3.2493   -2.5010   -1.2050 H   0  0  0  0  0  0  0  0  0  0  0  0
   -1.5742   -0.6000   -2.3300 H   0  0  0  0  0  0  0  0  0  0  0  0
   -3.0317   -1.3971   -1.7277 H   0  0  0  0  0  0  0  0  0  0  0  0
   -1.5201   -2.2597   -1.6790 H   0  0  0  0  0  0  0  0  0  0  0  0
   -4.2647   -0.7564    0.4136 H   0  0  0  0  0  0  0  0  0  0  0  0
    0.9716   -0.9787   -2.1507 H   0  0  0  0  0  0  0  0  0  0  0  0
    3.0331   -2.9633    1.8337 H   0  0  0  0  0  0  0  0  0  0  0  0
    3.7790   -4.0214    0.6699 H   0  0  0  0  0  0  0  0  0  0  0  0
    2.0621   -3.7334    0.5586 H   0  0  0  0  0  0  0  0  0  0  0  0
    4.7522   -1.1012   -2.0168 H   0  0  0  0  0  0  0  0  0  0  0  0
    7.2904   -1.0964   -0.5264 H   0  0  0  0  0  0  0  0  0  0  0  0
    7.0206   -0.7460   -2.2455 H   0  0  0  0  0  0  0  0  0  0  0  0
   -7.3430    2.4220   -0.1701 H   0  0  0  0  0  0  0  0  0  0  0  0
   -5.8758   -1.5820   -0.6638 H   0  0  0  0  0  0  0  0  0  0  0  0
    7.4885    2.0086   -2.6419 H   0  0  0  0  0  0  0  0  0  0  0  0
   -9.8937   -0.7955   -0.4068 H   0  0  0  0  0  0  0  0  0  0  0  0
    7.0500    4.1649   -1.0226 H   0  0  0  0  0  0  0  0  0  0  0  0
    5.9907    3.0776    1.2873 H   0  0  0  0  0  0  0  0  0  0  0  0
  1 12  1  0  0  0  0
  1 55  1  0  0  0  0
  2 23  2  0  0  0  0
  3 24  2  0  0  0  0
  4 29  1  0  0  0  0
  4 33  1  0  0  0  0
  5 16  1  0  0  0  0
  5 24  1  0  0  0  0
  5 54  1  0  0  0  0
  6 23  1  0  0  0  0
  6 26  1  0  0  0  0
  6 59  1  0  0  0  0
  7 27  2  0  0  0  0
  7 31  1  0  0  0  0
  8 28  1  0  0  0  0
  8 31  2  0  0  0  0
  9 10  1  0  0  0  0
  9 13  1  0  0  0  0
  9 14  1  0  0  0  0
  9 19  1  0  0  0  0
 10 11  1  0  0  0  0
 10 12  1  0  0  0  0
 10 34  1  0  0  0  0
 11 16  1  0  0  0  0
 11 21  1  0  0  0  0
 11 35  1  0  0  0  0
 12 15  1  0  0  0  0
 12 36  1  0  0  0  0
 13 17  1  0  0  0  0
 13 37  1  0  0  0  0
 13 38  1  0  0  0  0
 14 18  1  0  0  0  0
 14 39  1  0  0  0  0
 14 40  1  0  0  0  0
 15 17  1  0  0  0  0
 15 20  1  0  0  0  0
 15 41  1  0  0  0  0
 16 18  1  0  0  0  0
 16 42  1  0  0  0  0
 17 43  1  0  0  0  0
 17 44  1  0  0  0  0
 18 45  1  0  0  0  0
 18 46  1  0  0  0  0
 19 47  1  0  0  0  0
 19 48  1  0  0  0  0
 19 49  1  0  0  0  0
 20 22  1  0  0  0  0
 20 23  1  0  0  0  0
 20 50  1  0  0  0  0
 21 51  1  0  0  0  0
 21 52  1  0  0  0  0
 21 53  1  0  0  0  0
 22 56  1  0  0  0  0
 22 57  1  0  0  0  0
 22 58  1  0  0  0  0
 24 25  1  0  0  0  0
 25 27  1  0  0  0  0
 25 28  2  0  0  0  0
 26 29  1  0  0  0  0
 26 60  1  0  0  0  0
 26 61  1  0  0  0  0
 27 62  1  0  0  0  0
 28 63  1  0  0  0  0
 29 30  2  0  0  0  0
 30 32  1  0  0  0  0
 30 64  1  0  0  0  0
 31 65  1  0  0  0  0
 32 33  2  0  0  0  0
 32 66  1  0  0  0  0
 33 67  1  0  0  0  0
M  END
> <PUBCHEM_COMPOUND_CID>
45361631

> <PUBCHEM_CONFORMER_RMSD>
1

> <PUBCHEM_CONFORMER_DIVERSEORDER>
1
165
90
30
69
79
34
122
91
45
18
161
67
58
156
171
29
135
44
81
169
70
33
155
173
66
142
107
118
86
120
176
77
174
82
62
43
164
126
2
76
31
61
157
129
172
167
123
121
151
103
163
8
5
101
119
63
47
145
100
25
57
59
3
154
46
113
60
114
134
116
152
160
130
68
144
16
36
117
55
159
35
140
89
74
51
127
80
75
153
10
109
148
111
97
158
71
147
112
7
146
102
83
136
22
37
96
54
73
162
38
23
32
28
11
128
99
72
26
56
64
65
12
168
98
143
92
175
115
95
78
42
53
131
50
39
19
133
150
166
124
108
170
40
24
110
94
48
132
104
49
138
88
93
13
41
15
137
17
105
9
27
6
141
84
87
139
125
21
52
14
85
20
149
4
106

> <PUBCHEM_MMFF94_PARTIAL_CHARGES>
31
1 -0.68
12 0.28
16 0.3
2 -0.57
20 0.06
23 0.57
24 0.54
25 0.09
26 0.48
27 0.16
28 0.16
29 -0.04
3 -0.57
30 -0.15
31 0.47
32 -0.15
33 -0.01
4 -0.28
5 -0.73
54 0.37
55 0.4
59 0.37
6 -0.73
62 0.15
63 0.15
64 0.15
65 0.15
66 0.15
67 0.15
7 -0.62
8 -0.62

> <PUBCHEM_EFFECTIVE_ROTOR_COUNT>
9.6

> <PUBCHEM_PHARMACOPHORE_FEATURES>
14
1 1 acceptor
1 1 donor
1 2 acceptor
1 22 hydrophobe
1 3 acceptor
1 4 acceptor
1 5 donor
1 6 donor
1 7 acceptor
3 7 8 31 cation
5 4 29 30 32 33 rings
6 7 8 25 27 28 31 rings
6 9 10 11 14 16 18 rings
6 9 10 12 13 15 17 rings

> <PUBCHEM_HEAVY_ATOM_COUNT>
33

> <PUBCHEM_ATOM_DEF_STEREO_COUNT>
6

> <PUBCHEM_ATOM_UDEF_STEREO_COUNT>
1

> <PUBCHEM_BOND_DEF_STEREO_COUNT>
0

> <PUBCHEM_BOND_UDEF_STEREO_COUNT>
0

> <PUBCHEM_ISOTOPIC_ATOM_COUNT>
0

> <PUBCHEM_COMPONENT_COUNT>
1

> <PUBCHEM_CACTVS_TAUTO_COUNT>
4

> <PUBCHEM_CONFORMER_ID>
02B429DF00000001

> <PUBCHEM_MMFF94_ENERGY>
85.4079

> <PUBCHEM_FEATURE_SELFOVERLAP>
71.062

> <PUBCHEM_SHAPE_FINGERPRINT>
10 15 12685100284684933022
10319688 67 15213018279799462201
10533779 47 10375595949428324781
10673678 19 18411986879716878702
10677351 14 18341606028696424205
10906281 52 17845949437235940323
11007060 377 18260838089988336233
11211813 74 18334293154457360821
11331351 85 12967126112420980555
11408170 132 18201998781611393705
12717326 25 12823018677262150213
13165053 68 18046349897106685695
13617811 41 16702306745990101712
13673619 4 13110968604533173594
13782708 43 12391510875979950180
14142895 15 18335140938035476893
14251757 52 18335137596366485852
150020 25 18409176527680038158
15082195 135 18272092682657589314
15131766 46 18115870888139613892
15183329 4 17846502525643776153
15301273 46 13039188095894216249
15361156 5 18343297098801656903
15840311 113 18335424573750029044
16994733 274 17822006493578374517
17686467 74 17967817172266942677
20105231 36 16702586034807438431
2026 5 14907356131423362676
20554085 129 16081367470792722504
20771845 171 17846506894221693942
21033648 29 16660652886443830042
21049683 118 17968649536886697330
21049683 271 18272932747943481393
21150785 3 18409730651549200781
21267235 1 17274821329375474187
21344244 181 14477245964080866540
21362857 166 17417541203189359902
21521721 280 18334862697153582347
21591340 7 12468640556265033041
21781051 124 17417811789886216079
21781055 127 15338857378063097107
21792934 111 12540682722131404903
22224240 67 16443063898429366747
23522609 53 17702125610793049081
23569914 2 17099979202246145836
23576562 1 17844800576829754325
25269216 80 14476974376461788144
34797466 226 18343588408599341462
3552219 110 17989216936649949801
4073 2 18260548940058710835
4098825 35 18409727327466533949
4258327 124 18335990860170313285
445580 167 18334852836151036517
44880568 143 18263645065854717461
4625314 4 18337110064423945943
5104073 3 12902418779289559972
5265222 85 18341330072067458239
5470011 282 18341896268619970983
5776283 40 18339360876853842139
58260988 647 12175634962422079444
6081469 158 11527950045831486339
9831232 110 12175627256992787188

> <PUBCHEM_SHAPE_MULTIPOLES>
635.72
24.86
2.71
1.67
26.47
0.23
-0.67
10.91
11.13
-5.13
0.24
-1.11
0
-1.27

> <PUBCHEM_SHAPE_SELFOVERLAP>
1347.055

> <PUBCHEM_SHAPE_VOLUME>
349.7

> <PUBCHEM_COORDINATE_TYPE>
2
5
10

$$$$
