51136656
  -OEChem-12032416143D

 59 62  0     1  0  0  0  0  0999 V2000
   -3.8873    1.4639    0.8125 F   0  0  0  0  0  0  0  0  0  0  0  0
    0.8268    3.4718    1.6655 O   0  0  0  0  0  0  0  0  0  0  0  0
    6.1992   -2.7749    0.8282 O   0  0  0  0  0  0  0  0  0  0  0  0
    6.4949   -0.5867    0.2760 O   0  0  0  0  0  0  0  0  0  0  0  0
   -5.1050   -1.8341    1.3079 O   0  0  0  0  0  0  0  0  0  0  0  0
    1.8683    2.0409    0.1353 N   0  0  0  0  0  0  0  0  0  0  0  0
    0.3943   -1.7277   -1.9715 N   0  0  0  0  0  0  0  0  0  0  0  0
    2.3097   -0.2570   -0.7020 C   0  0  2  0  0  0  0  0  0  0  0  0
    3.7130   -0.1837   -0.0478 C   0  0  1  0  0  0  0  0  0  0  0  0
    3.7301    0.7843    1.1475 C   0  0  0  0  0  0  0  0  0  0  0  0
    1.8142    1.1611   -1.0407 C   0  0  0  0  0  0  0  0  0  0  0  0
    3.1865    2.1557    0.7561 C   0  0  0  0  0  0  0  0  0  0  0  0
    1.2663   -0.9977    0.1438 C   0  0  0  0  0  0  0  0  0  0  0  0
    4.2583   -1.5522    0.3594 C   0  0  0  0  0  0  0  0  0  0  0  0
    0.1298   -1.4619   -0.7349 C   0  0  0  0  0  0  0  0  0  0  0  0
    0.7873    2.7391    0.6784 C   0  0  0  0  0  0  0  0  0  0  0  0
   -1.2275   -1.5831   -0.1443 C   0  0  0  0  0  0  0  0  0  0  0  0
    5.7579   -1.5416    0.4705 C   0  0  0  0  0  0  0  0  0  0  0  0
   -2.3033   -1.6323   -1.0400 C   0  0  0  0  0  0  0  0  0  0  0  0
   -2.0209   -1.5462   -2.5105 C   0  0  0  0  0  0  0  0  0  0  0  0
   -0.6967   -2.2365   -2.8096 C   0  0  0  0  0  0  0  0  0  0  0  0
   -0.5208    2.5993    0.0287 C   0  0  0  0  0  0  0  0  0  0  0  0
   -1.4500   -1.6328    1.2331 C   0  0  0  0  0  0  0  0  0  0  0  0
   -3.6089   -1.7056   -0.5468 C   0  0  0  0  0  0  0  0  0  0  0  0
   -2.7564   -1.7217    1.7157 C   0  0  0  0  0  0  0  0  0  0  0  0
   -3.8330   -1.7552    0.8291 C   0  0  0  0  0  0  0  0  0  0  0  0
   -1.6036    2.0876    0.7437 C   0  0  0  0  0  0  0  0  0  0  0  0
   -0.6811    2.9772   -1.3044 C   0  0  0  0  0  0  0  0  0  0  0  0
   -2.8470    1.9539    0.1257 C   0  0  0  0  0  0  0  0  0  0  0  0
   -1.9245    2.8433   -1.9226 C   0  0  0  0  0  0  0  0  0  0  0  0
   -3.0075    2.3319   -1.2074 C   0  0  0  0  0  0  0  0  0  0  0  0
   -5.2630   -1.8790    2.7253 C   0  0  0  0  0  0  0  0  0  0  0  0
    2.4693   -0.7799   -1.6533 H   0  0  0  0  0  0  0  0  0  0  0  0
    4.3807    0.2407   -0.8126 H   0  0  0  0  0  0  0  0  0  0  0  0
    3.1194    0.3761    1.9629 H   0  0  0  0  0  0  0  0  0  0  0  0
    4.7448    0.9049    1.5419 H   0  0  0  0  0  0  0  0  0  0  0  0
    0.8214    1.0875   -1.4787 H   0  0  0  0  0  0  0  0  0  0  0  0
    2.4642    1.6119   -1.8010 H   0  0  0  0  0  0  0  0  0  0  0  0
    3.1458    2.8022    1.6385 H   0  0  0  0  0  0  0  0  0  0  0  0
    3.8504    2.6373    0.0285 H   0  0  0  0  0  0  0  0  0  0  0  0
    1.6846   -1.9045    0.5921 H   0  0  0  0  0  0  0  0  0  0  0  0
    0.9074   -0.3603    0.9563 H   0  0  0  0  0  0  0  0  0  0  0  0
    4.0006   -2.2953   -0.4046 H   0  0  0  0  0  0  0  0  0  0  0  0
    3.8447   -1.8718    1.3223 H   0  0  0  0  0  0  0  0  0  0  0  0
   -2.8187   -2.0236   -3.0904 H   0  0  0  0  0  0  0  0  0  0  0  0
   -1.9757   -0.4896   -2.7998 H   0  0  0  0  0  0  0  0  0  0  0  0
   -0.7789   -3.3214   -2.6674 H   0  0  0  0  0  0  0  0  0  0  0  0
   -0.4357   -2.0713   -3.8606 H   0  0  0  0  0  0  0  0  0  0  0  0
   -0.6331   -1.6183    1.9475 H   0  0  0  0  0  0  0  0  0  0  0  0
   -4.4520   -1.7246   -1.2328 H   0  0  0  0  0  0  0  0  0  0  0  0
    7.1763   -2.8040    0.9103 H   0  0  0  0  0  0  0  0  0  0  0  0
   -2.8629   -1.7597    2.7946 H   0  0  0  0  0  0  0  0  0  0  0  0
   -1.4911    1.7869    1.7821 H   0  0  0  0  0  0  0  0  0  0  0  0
    0.1457    3.3977   -1.8715 H   0  0  0  0  0  0  0  0  0  0  0  0
   -2.0505    3.1408   -2.9594 H   0  0  0  0  0  0  0  0  0  0  0  0
   -3.9755    2.2272   -1.6882 H   0  0  0  0  0  0  0  0  0  0  0  0
   -4.8060   -2.7777    3.1531 H   0  0  0  0  0  0  0  0  0  0  0  0
   -4.8991   -0.9613    3.1998 H   0  0  0  0  0  0  0  0  0  0  0  0
   -6.3372   -1.9393    2.9288 H   0  0  0  0  0  0  0  0  0  0  0  0
  1 29  1  0  0  0  0
  2 16  2  0  0  0  0
  3 18  1  0  0  0  0
  3 51  1  0  0  0  0
  4 18  2  0  0  0  0
  5 26  1  0  0  0  0
  5 32  1  0  0  0  0
  6 11  1  0  0  0  0
  6 12  1  0  0  0  0
  6 16  1  0  0  0  0
  7 15  2  0  0  0  0
  7 21  1  0  0  0  0
  8  9  1  0  0  0  0
  8 11  1  0  0  0  0
  8 13  1  0  0  0  0
  8 33  1  0  0  0  0
  9 10  1  0  0  0  0
  9 14  1  0  0  0  0
  9 34  1  0  0  0  0
 10 12  1  0  0  0  0
 10 35  1  0  0  0  0
 10 36  1  0  0  0  0
 11 37  1  0  0  0  0
 11 38  1  0  0  0  0
 12 39  1  0  0  0  0
 12 40  1  0  0  0  0
 13 15  1  0  0  0  0
 13 41  1  0  0  0  0
 13 42  1  0  0  0  0
 14 18  1  0  0  0  0
 14 43  1  0  0  0  0
 14 44  1  0  0  0  0
 15 17  1  0  0  0  0
 16 22  1  0  0  0  0
 17 19  2  0  0  0  0
 17 23  1  0  0  0  0
 19 20  1  0  0  0  0
 19 24  1  0  0  0  0
 20 21  1  0  0  0  0
 20 45  1  0  0  0  0
 20 46  1  0  0  0  0
 21 47  1  0  0  0  0
 21 48  1  0  0  0  0
 22 27  2  0  0  0  0
 22 28  1  0  0  0  0
 23 25  2  0  0  0  0
 23 49  1  0  0  0  0
 24 26  2  0  0  0  0
 24 50  1  0  0  0  0
 25 26  1  0  0  0  0
 25 52  1  0  0  0  0
 27 29  1  0  0  0  0
 27 53  1  0  0  0  0
 28 30  2  0  0  0  0
 28 54  1  0  0  0  0
 29 31  2  0  0  0  0
 30 31  1  0  0  0  0
 30 55  1  0  0  0  0
 31 56  1  0  0  0  0
 32 57  1  0  0  0  0
 32 58  1  0  0  0  0
 32 59  1  0  0  0  0
M  END
> <PUBCHEM_COMPOUND_CID>
51136656

> <PUBCHEM_CONFORMER_RMSD>
1

> <PUBCHEM_CONFORMER_DIVERSEORDER>
1
109
6
134
72
100
39
104
106
43
137
159
66
166
143
153
151
49
41
122
88
165
136
144
112
129
15
123
167
53
14
110
107
131
127
61
93
95
74
135
80
60
51
138
118
139
130
98
125
162
27
32
132
173
111
19
21
87
174
152
91
175
142
64
126
5
73
82
62
161
56
12
16
149
102
120
13
83
52
124
164
119
25
68
4
128
46
75
133
114
48
79
99
148
115
17
90
170
140
147
37
71
63
85
168
55
154
34
97
116
163
3
150
54
42
47
59
57
78
156
89
26
169
121
94
81
176
77
9
18
96
24
157
58
45
2
11
29
30
92
105
108
113
40
145
50
146
158
117
23
7
67
160
86
44
171
84
70
28
33
103
76
69
101
38
31
8
172
22
141
20
65
36
155
10
35

> <PUBCHEM_MMFF94_PARTIAL_CHARGES>
37
1 -0.19
11 0.3
12 0.3
13 0.06
14 0.06
15 0.3
16 0.54
17 0.09
18 0.66
19 -0.14
2 -0.57
20 0.14
21 0.25
22 0.09
23 -0.15
24 -0.15
25 -0.15
26 0.08
27 -0.15
28 -0.15
29 0.19
3 -0.65
30 -0.15
31 -0.15
32 0.28
4 -0.57
49 0.15
5 -0.36
50 0.15
51 0.5
52 0.15
53 0.15
54 0.15
55 0.15
56 0.15
6 -0.66
7 -0.7

> <PUBCHEM_EFFECTIVE_ROTOR_COUNT>
8.6

> <PUBCHEM_PHARMACOPHORE_FEATURES>
10
1 2 acceptor
1 3 acceptor
1 4 acceptor
1 5 acceptor
1 7 acceptor
3 3 4 18 anion
6 17 19 23 24 25 26 rings
6 22 27 28 29 30 31 rings
6 6 8 9 10 11 12 rings
6 7 15 17 19 20 21 rings

> <PUBCHEM_HEAVY_ATOM_COUNT>
32

> <PUBCHEM_ATOM_DEF_STEREO_COUNT>
2

> <PUBCHEM_ATOM_UDEF_STEREO_COUNT>
0

> <PUBCHEM_BOND_DEF_STEREO_COUNT>
0

> <PUBCHEM_BOND_UDEF_STEREO_COUNT>
0

> <PUBCHEM_ISOTOPIC_ATOM_COUNT>
0

> <PUBCHEM_COMPONENT_COUNT>
1

> <PUBCHEM_CACTVS_TAUTO_COUNT>
1

> <PUBCHEM_CONFORMER_ID>
030C489000000001

> <PUBCHEM_MMFF94_ENERGY>
94.6455

> <PUBCHEM_FEATURE_SELFOVERLAP>
50.831

> <PUBCHEM_SHAPE_FINGERPRINT>
10119406 146 17622163465467508214
10190108 129 18118979215874417288
10688039 33 18114184180755490317
10764073 3 18338530655565278017
11135609 12 18260545658328981176
12107698 1 18411420630764642627
12156800 1 15254480726107692525
12166972 35 16806180985236801811
12422481 6 18342470244192122145
13140716 1 18341612594736386680
13965767 371 17844819276510309462
14840074 17 17980491370731710413
16728300 4 18261668156268797850
17492 54 17979040853202278469
20764821 26 18130777976114438276
22182313 1 17915752976692147358
24893992 56 17894346714746561107
3380486 145 18131348570619035982
35225 105 18120630471131084677
469060 322 16660363653833276822
513202 73 18337110073235770498
70251023 43 18124851676675223950

> <PUBCHEM_SHAPE_MULTIPOLES>
617.83
10.25
4.28
2.18
11.18
2.86
-0.65
-8.16
5.65
-1.06
-0.03
-2.49
-0.95
1.38

> <PUBCHEM_SHAPE_SELFOVERLAP>
1332.375

> <PUBCHEM_SHAPE_VOLUME>
339.2

> <PUBCHEM_COORDINATE_TYPE>
2
5
10

$$$$
