38030116
  -OEChem-12032416143D

 49 49  0     1  0  0  0  0  0999 V2000
    5.0199   -0.3043    1.1277 O   0  0  0  0  0  0  0  0  0  0  0  0
   -2.3347    1.6408   -1.0634 O   0  0  0  0  0  0  0  0  0  0  0  0
   -3.8908   -0.8763   -0.4157 O   0  0  0  0  0  0  0  0  0  0  0  0
   -2.6573    1.1605    1.1874 N   0  0  0  0  0  0  0  0  0  0  0  0
    1.4437   -0.9359    0.1348 C   0  0  2  0  0  0  0  0  0  0  0  0
    0.5458   -0.2519   -0.9074 C   0  0  0  0  0  0  0  0  0  0  0  0
    2.8868   -0.3785    0.0543 C   0  0  1  0  0  0  0  0  0  0  0  0
    0.4905    1.2756   -0.7162 C   0  0  2  0  0  0  0  0  0  0  0  0
    1.4082   -2.4541   -0.0665 C   0  0  0  0  0  0  0  0  0  0  0  0
    1.8707    1.8686   -0.5186 C   0  0  0  0  0  0  0  0  0  0  0  0
    2.9323    1.1121   -0.1876 C   0  0  0  0  0  0  0  0  0  0  0  0
   -0.4402    1.6539    0.4414 C   0  0  0  0  0  0  0  0  0  0  0  0
    3.6810   -0.7146    1.3217 C   0  0  0  0  0  0  0  0  0  0  0  0
    0.1638   -3.0484    0.5853 C   0  0  0  0  0  0  0  0  0  0  0  0
    1.4559   -2.7949   -1.5525 C   0  0  0  0  0  0  0  0  0  0  0  0
    2.0128    3.3465   -0.7550 C   0  0  0  0  0  0  0  0  0  0  0  0
   -1.8982    1.4922    0.0748 C   0  0  0  0  0  0  0  0  0  0  0  0
   -4.0852    0.9463    1.1332 C   0  0  0  0  0  0  0  0  0  0  0  0
   -4.4207   -0.5068    0.8507 C   0  0  0  0  0  0  0  0  0  0  0  0
   -4.1844   -2.2310   -0.7285 C   0  0  0  0  0  0  0  0  0  0  0  0
    1.0585   -0.7119    1.1383 H   0  0  0  0  0  0  0  0  0  0  0  0
   -0.4693   -0.6636   -0.8925 H   0  0  0  0  0  0  0  0  0  0  0  0
    0.9366   -0.4101   -1.9208 H   0  0  0  0  0  0  0  0  0  0  0  0
    3.4129   -0.8261   -0.7992 H   0  0  0  0  0  0  0  0  0  0  0  0
    0.0903    1.6918   -1.6510 H   0  0  0  0  0  0  0  0  0  0  0  0
    2.2719   -2.9242    0.4148 H   0  0  0  0  0  0  0  0  0  0  0  0
    3.9045    1.5943   -0.1125 H   0  0  0  0  0  0  0  0  0  0  0  0
   -0.3253    2.7111    0.7099 H   0  0  0  0  0  0  0  0  0  0  0  0
   -0.2012    1.0800    1.3431 H   0  0  0  0  0  0  0  0  0  0  0  0
    3.6886   -1.7868    1.5319 H   0  0  0  0  0  0  0  0  0  0  0  0
    3.2764   -0.1923    2.1961 H   0  0  0  0  0  0  0  0  0  0  0  0
   -0.7610   -2.6652    0.1428 H   0  0  0  0  0  0  0  0  0  0  0  0
    0.1415   -2.8304    1.6584 H   0  0  0  0  0  0  0  0  0  0  0  0
    0.1556   -4.1380    0.4713 H   0  0  0  0  0  0  0  0  0  0  0  0
    0.5177   -2.5778   -2.0740 H   0  0  0  0  0  0  0  0  0  0  0  0
    1.6178   -3.8738   -1.6688 H   0  0  0  0  0  0  0  0  0  0  0  0
    2.2818   -2.3012   -2.0731 H   0  0  0  0  0  0  0  0  0  0  0  0
    1.6473    3.6084   -1.7532 H   0  0  0  0  0  0  0  0  0  0  0  0
    3.0560    3.6748   -0.6927 H   0  0  0  0  0  0  0  0  0  0  0  0
    1.4458    3.9187   -0.0152 H   0  0  0  0  0  0  0  0  0  0  0  0
    5.5067   -0.5154    1.9424 H   0  0  0  0  0  0  0  0  0  0  0  0
   -2.2055    1.0598    2.0915 H   0  0  0  0  0  0  0  0  0  0  0  0
   -4.5018    1.5888    0.3498 H   0  0  0  0  0  0  0  0  0  0  0  0
   -4.5012    1.2541    2.0974 H   0  0  0  0  0  0  0  0  0  0  0  0
   -5.5088   -0.6373    0.8466 H   0  0  0  0  0  0  0  0  0  0  0  0
   -3.9896   -1.1504    1.6269 H   0  0  0  0  0  0  0  0  0  0  0  0
   -3.7547   -2.4585   -1.7077 H   0  0  0  0  0  0  0  0  0  0  0  0
   -5.2662   -2.3884   -0.7762 H   0  0  0  0  0  0  0  0  0  0  0  0
   -3.7372   -2.9011    0.0122 H   0  0  0  0  0  0  0  0  0  0  0  0
  1 13  1  0  0  0  0
  1 41  1  0  0  0  0
  2 17  2  0  0  0  0
  3 19  1  0  0  0  0
  3 20  1  0  0  0  0
  4 17  1  0  0  0  0
  4 18  1  0  0  0  0
  4 42  1  0  0  0  0
  5  6  1  0  0  0  0
  5  7  1  0  0  0  0
  5  9  1  0  0  0  0
  5 21  1  0  0  0  0
  6  8  1  0  0  0  0
  6 22  1  0  0  0  0
  6 23  1  0  0  0  0
  7 11  1  0  0  0  0
  7 13  1  0  0  0  0
  7 24  1  0  0  0  0
  8 10  1  0  0  0  0
  8 12  1  0  0  0  0
  8 25  1  0  0  0  0
  9 14  1  0  0  0  0
  9 15  1  0  0  0  0
  9 26  1  0  0  0  0
 10 11  2  0  0  0  0
 10 16  1  0  0  0  0
 11 27  1  0  0  0  0
 12 17  1  0  0  0  0
 12 28  1  0  0  0  0
 12 29  1  0  0  0  0
 13 30  1  0  0  0  0
 13 31  1  0  0  0  0
 14 32  1  0  0  0  0
 14 33  1  0  0  0  0
 14 34  1  0  0  0  0
 15 35  1  0  0  0  0
 15 36  1  0  0  0  0
 15 37  1  0  0  0  0
 16 38  1  0  0  0  0
 16 39  1  0  0  0  0
 16 40  1  0  0  0  0
 18 19  1  0  0  0  0
 18 43  1  0  0  0  0
 18 44  1  0  0  0  0
 19 45  1  0  0  0  0
 19 46  1  0  0  0  0
 20 47  1  0  0  0  0
 20 48  1  0  0  0  0
 20 49  1  0  0  0  0
M  END
> <PUBCHEM_COMPOUND_CID>
38030116

> <PUBCHEM_CONFORMER_RMSD>
0.8

> <PUBCHEM_CONFORMER_DIVERSEORDER>
1
76
41
38
54
106
101
120
103
96
35
74
69
61
110
90
104
3
26
33
62
95
48
77
124
65
20
81
72
68
60
27
57
121
127
97
36
49
83
92
63
70
109
116
59
117
79
55
23
24
7
123
29
66
25
114
85
64
91
73
21
67
28
9
80
10
51
5
108
113
75
86
118
93
87
56
22
105
16
32
98
52
88
30
13
50
14
82
115
42
15
94
58
40
18
99
34
17
84
6
37
39
78
71
19
126
102
125
44
31
111
46
43
47
100
45
119
89
11
4
107
122
8
112
53
12
2

> <PUBCHEM_MMFF94_PARTIAL_CHARGES>
18
1 -0.68
10 -0.28
11 -0.29
12 0.06
13 0.28
16 0.14
17 0.57
18 0.3
19 0.28
2 -0.57
20 0.28
27 0.15
3 -0.56
4 -0.73
41 0.4
42 0.37
7 0.14
8 0.14

> <PUBCHEM_EFFECTIVE_ROTOR_COUNT>
8.8

> <PUBCHEM_PHARMACOPHORE_FEATURES>
7
1 1 acceptor
1 1 donor
1 2 acceptor
1 3 acceptor
1 4 donor
3 9 14 15 hydrophobe
6 5 6 7 8 10 11 rings

> <PUBCHEM_HEAVY_ATOM_COUNT>
20

> <PUBCHEM_ATOM_DEF_STEREO_COUNT>
3

> <PUBCHEM_ATOM_UDEF_STEREO_COUNT>
0

> <PUBCHEM_BOND_DEF_STEREO_COUNT>
0

> <PUBCHEM_BOND_UDEF_STEREO_COUNT>
0

> <PUBCHEM_ISOTOPIC_ATOM_COUNT>
0

> <PUBCHEM_COMPONENT_COUNT>
1

> <PUBCHEM_CACTVS_TAUTO_COUNT>
2

> <PUBCHEM_CONFORMER_ID>
02444B2400000001

> <PUBCHEM_MMFF94_ENERGY>
37.1178

> <PUBCHEM_FEATURE_SELFOVERLAP>
35.522

> <PUBCHEM_SHAPE_FINGERPRINT>
10616163 171 18342466979980345783
10759866 29 17680717230520789150
11118852 30 18272934937901671623
12553582 1 18336560308747025821
12633257 1 18334018289329219523
12839892 36 18342448244868971922
13083527 12 18334850645311799517
13140716 1 18338518667467315376
13583140 156 17774712074767614641
14081887 123 18059850632642597651
14178342 30 18269559338314728049
14787075 74 17988634259404932712
15422964 175 18120940499240569084
16945 1 18268429040741208300
19433438 48 18413389817719782531
20028762 73 18271802470969293446
20442098 301 18270688558705680047
20645477 70 18334017194492594153
21673915 165 18342737407874039587
2255824 54 18336841882260545228
23419403 2 14594797127476156942
2748010 2 17689713065561415228
392239 28 17846207878149711722
474229 33 18412538834353691690
6287921 2 18130801005513106751
6442390 28 17988636420111378002
7064713 232 18201719535542400051
7097593 13 18198636427782140057
81228 2 17178845839861127180
9709674 26 18335715918403440227

> <PUBCHEM_SHAPE_MULTIPOLES>
389
8.03
3.61
1.25
5.88
0.8
0.03
1.05
2.58
-0.87
-0.99
-0.13
0.23
-0.99

> <PUBCHEM_SHAPE_SELFOVERLAP>
763.803

> <PUBCHEM_SHAPE_VOLUME>
233

> <PUBCHEM_COORDINATE_TYPE>
2
5
10

$$$$
