7144127
  -OEChem-12032416113D

 50 54  0     1  0  0  0  0  0999 V2000
   -6.0917    0.7929    1.3038 Cl  0  0  0  0  0  0  0  0  0  0  0  0
   -1.8712   -4.6226   -1.3146 F   0  0  0  0  0  0  0  0  0  0  0  0
    3.0949    1.9404   -2.6098 O   0  0  0  0  0  0  0  0  0  0  0  0
    3.4367   -1.9754    0.5995 O   0  0  0  0  0  0  0  0  0  0  0  0
    1.9698   -0.4442    1.5848 N   0  0  0  0  0  0  0  0  0  0  0  0
    1.7903    1.7556   -0.6734 N   0  0  0  0  0  0  0  0  0  0  0  0
    2.8369    1.8798    1.6660 C   0  0  1  0  0  0  0  0  0  0  0  0
    0.4201    1.4922    1.4171 C   0  0  2  0  0  0  0  0  0  0  0  0
    1.4647    2.3791    2.0936 C   0  0  0  0  0  0  0  0  0  0  0  0
    3.0374    0.4155    2.0920 C   0  0  0  0  0  0  0  0  0  0  0  0
    2.9684    2.0595    0.1524 C   0  0  0  0  0  0  0  0  0  0  0  0
    0.6089    0.0300    1.8761 C   0  0  0  0  0  0  0  0  0  0  0  0
    0.5115    1.5772   -0.1085 C   0  0  0  0  0  0  0  0  0  0  0  0
   -0.5744    1.4544   -0.9157 C   0  0  0  0  0  0  0  0  0  0  0  0
    2.0040    1.7754   -2.0630 C   0  0  0  0  0  0  0  0  0  0  0  0
    2.2968   -1.5811    0.8417 C   0  0  0  0  0  0  0  0  0  0  0  0
   -0.3918    1.4657   -2.3544 C   0  0  0  0  0  0  0  0  0  0  0  0
    0.8085    1.5992   -2.9185 C   0  0  0  0  0  0  0  0  0  0  0  0
   -1.9385    1.2905   -0.3665 C   0  0  0  0  0  0  0  0  0  0  0  0
    1.2029   -2.3793    0.2757 C   0  0  0  0  0  0  0  0  0  0  0  0
   -2.4279    0.0154   -0.1004 C   0  0  0  0  0  0  0  0  0  0  0  0
   -2.7230    2.4132   -0.1197 C   0  0  0  0  0  0  0  0  0  0  0  0
    0.7202   -2.0889   -0.9977 C   0  0  0  0  0  0  0  0  0  0  0  0
    0.6531   -3.4236    1.0149 C   0  0  0  0  0  0  0  0  0  0  0  0
   -3.7141   -0.1387    0.4170 C   0  0  0  0  0  0  0  0  0  0  0  0
   -4.0091    2.2592    0.3978 C   0  0  0  0  0  0  0  0  0  0  0  0
   -4.5047    0.9832    0.6663 C   0  0  0  0  0  0  0  0  0  0  0  0
   -0.3195   -2.8476   -1.5355 C   0  0  0  0  0  0  0  0  0  0  0  0
   -0.3864   -4.1825    0.4771 C   0  0  0  0  0  0  0  0  0  0  0  0
   -0.8728   -3.8945   -0.7982 C   0  0  0  0  0  0  0  0  0  0  0  0
    3.6155    2.4773    2.1560 H   0  0  0  0  0  0  0  0  0  0  0  0
   -0.5596    1.8362    1.7666 H   0  0  0  0  0  0  0  0  0  0  0  0
    1.3267    3.4294    1.8080 H   0  0  0  0  0  0  0  0  0  0  0  0
    1.3622    2.3270    3.1845 H   0  0  0  0  0  0  0  0  0  0  0  0
    4.0172    0.0556    1.7606 H   0  0  0  0  0  0  0  0  0  0  0  0
    3.0180    0.3376    3.1859 H   0  0  0  0  0  0  0  0  0  0  0  0
    3.2063    3.1125   -0.0536 H   0  0  0  0  0  0  0  0  0  0  0  0
    3.8208    1.4812   -0.2266 H   0  0  0  0  0  0  0  0  0  0  0  0
    0.4797   -0.0366    2.9637 H   0  0  0  0  0  0  0  0  0  0  0  0
   -0.1437   -0.6229    1.4347 H   0  0  0  0  0  0  0  0  0  0  0  0
   -1.2680    1.3460   -2.9848 H   0  0  0  0  0  0  0  0  0  0  0  0
    0.9364    1.5996   -3.9943 H   0  0  0  0  0  0  0  0  0  0  0  0
   -1.8330   -0.8686   -0.2898 H   0  0  0  0  0  0  0  0  0  0  0  0
   -2.3496    3.4136   -0.3236 H   0  0  0  0  0  0  0  0  0  0  0  0
    1.1532   -1.2853   -1.5852 H   0  0  0  0  0  0  0  0  0  0  0  0
    1.0245   -3.6553    2.0096 H   0  0  0  0  0  0  0  0  0  0  0  0
   -4.0870   -1.1392    0.6205 H   0  0  0  0  0  0  0  0  0  0  0  0
   -4.6138    3.1424    0.5870 H   0  0  0  0  0  0  0  0  0  0  0  0
   -0.6971   -2.6241   -2.5290 H   0  0  0  0  0  0  0  0  0  0  0  0
   -0.8178   -4.9972    1.0512 H   0  0  0  0  0  0  0  0  0  0  0  0
  1 27  1  0  0  0  0
  2 30  1  0  0  0  0
  3 15  2  0  0  0  0
  4 16  2  0  0  0  0
  5 10  1  0  0  0  0
  5 12  1  0  0  0  0
  5 16  1  0  0  0  0
  6 11  1  0  0  0  0
  6 13  1  0  0  0  0
  6 15  1  0  0  0  0
  7  9  1  0  0  0  0
  7 10  1  0  0  0  0
  7 11  1  0  0  0  0
  7 31  1  0  0  0  0
  8  9  1  0  0  0  0
  8 12  1  0  0  0  0
  8 13  1  0  0  0  0
  8 32  1  0  0  0  0
  9 33  1  0  0  0  0
  9 34  1  0  0  0  0
 10 35  1  0  0  0  0
 10 36  1  0  0  0  0
 11 37  1  0  0  0  0
 11 38  1  0  0  0  0
 12 39  1  0  0  0  0
 12 40  1  0  0  0  0
 13 14  2  0  0  0  0
 14 17  1  0  0  0  0
 14 19  1  0  0  0  0
 15 18  1  0  0  0  0
 16 20  1  0  0  0  0
 17 18  2  0  0  0  0
 17 41  1  0  0  0  0
 18 42  1  0  0  0  0
 19 21  2  0  0  0  0
 19 22  1  0  0  0  0
 20 23  2  0  0  0  0
 20 24  1  0  0  0  0
 21 25  1  0  0  0  0
 21 43  1  0  0  0  0
 22 26  2  0  0  0  0
 22 44  1  0  0  0  0
 23 28  1  0  0  0  0
 23 45  1  0  0  0  0
 24 29  2  0  0  0  0
 24 46  1  0  0  0  0
 25 27  2  0  0  0  0
 25 47  1  0  0  0  0
 26 27  1  0  0  0  0
 26 48  1  0  0  0  0
 28 30  2  0  0  0  0
 28 49  1  0  0  0  0
 29 30  1  0  0  0  0
 29 50  1  0  0  0  0
M  END
> <PUBCHEM_COMPOUND_CID>
7144127

> <PUBCHEM_CONFORMER_RMSD>
0.8

> <PUBCHEM_CONFORMER_DIVERSEORDER>
1
2

> <PUBCHEM_MMFF94_PARTIAL_CHARGES>
38
1 -0.18
10 0.3
11 0.3
12 0.3
13 -0.03
14 -0.03
15 0.62
16 0.54
17 -0.15
18 -0.14
19 0.03
2 -0.19
20 0.09
21 -0.15
22 -0.15
23 -0.15
24 -0.15
25 -0.15
26 -0.15
27 0.18
28 -0.15
29 -0.15
3 -0.57
30 0.19
4 -0.57
41 0.15
42 0.15
43 0.15
44 0.15
45 0.15
46 0.15
47 0.15
48 0.15
49 0.15
5 -0.66
50 0.15
6 -0.47
8 0.14

> <PUBCHEM_EFFECTIVE_ROTOR_COUNT>
4

> <PUBCHEM_PHARMACOPHORE_FEATURES>
7
1 3 acceptor
1 4 acceptor
6 19 21 22 25 26 27 rings
6 20 23 24 28 29 30 rings
6 5 7 8 9 10 12 rings
6 6 13 14 15 17 18 rings
6 6 7 8 9 11 13 rings

> <PUBCHEM_HEAVY_ATOM_COUNT>
30

> <PUBCHEM_ATOM_DEF_STEREO_COUNT>
2

> <PUBCHEM_ATOM_UDEF_STEREO_COUNT>
0

> <PUBCHEM_BOND_DEF_STEREO_COUNT>
0

> <PUBCHEM_BOND_UDEF_STEREO_COUNT>
0

> <PUBCHEM_ISOTOPIC_ATOM_COUNT>
0

> <PUBCHEM_COMPONENT_COUNT>
1

> <PUBCHEM_CACTVS_TAUTO_COUNT>
1

> <PUBCHEM_CONFORMER_ID>
006D02BF00000001

> <PUBCHEM_MMFF94_ENERGY>
88.0267

> <PUBCHEM_FEATURE_SELFOVERLAP>
37.107

> <PUBCHEM_SHAPE_FINGERPRINT>
10006869 2 16326786463173009353
10064457 181 18341600547199932960
104564 63 17834944653034198418
11421498 54 17981641223650310921
11513181 2 17988073508264491855
11578080 2 16691936362148239640
12156800 1 18123762116871164468
12422481 6 18115845487412647800
12788726 201 17256254163847474189
13009979 54 17612008770703172106
13583140 156 18057584513635553985
14863182 85 18335710429245565697
15324884 4 17682361834076745684
15664445 248 17463991054608306485
17138139 8 17123617727437857103
17492 54 17388573486596710486
20600515 1 17184196041755454797
20775530 9 17401212171074133419
21304303 282 16454064791254258125
23419403 2 17615665367971763204
23559900 14 18190749618339406061
3052486 1 17905610252355631703
3493558 16 11467186965445389289
35225 105 17772174569048647261
469060 322 16161526352725365784
563151 248 18042125522083170340
6287921 2 18336265643941527899

> <PUBCHEM_SHAPE_MULTIPOLES>
590.28
6.65
5.1
2.47
11.13
7.46
-1.08
-3.31
3.26
-1.28
-1.21
-1.73
-1.47
-0.74

> <PUBCHEM_SHAPE_SELFOVERLAP>
1301.933

> <PUBCHEM_SHAPE_VOLUME>
317

> <PUBCHEM_COORDINATE_TYPE>
2
5
10

$$$$
