11866344
  -OEChem-12032416113D

 58 59  0     1  0  0  0  0  0999 V2000
   -1.1632    1.7466   -1.8324 O   0  0  0  0  0  0  0  0  0  0  0  0
   -3.7270    0.5331   -2.7255 O   0  0  0  0  0  0  0  0  0  0  0  0
    1.9466    2.6811    1.9655 O   0  0  0  0  0  0  0  0  0  0  0  0
   -5.4057    0.5654   -1.1887 O   0  0  0  0  0  0  0  0  0  0  0  0
    3.9283    3.2297   -1.0601 O   0  0  0  0  0  0  0  0  0  0  0  0
    4.3176   -1.4087   -0.9941 O   0  0  0  0  0  0  0  0  0  0  0  0
    0.0014   -3.2031    0.6047 O   0  0  0  0  0  0  0  0  0  0  0  0
   -0.0965    2.0482    0.2107 N   0  0  0  0  0  0  0  0  0  0  0  0
    2.6419   -1.9367    0.5381 N   0  0  0  0  0  0  0  0  0  0  0  0
   -0.2555   -4.5080   -1.2704 N   0  0  0  0  0  0  0  0  0  0  0  0
   -2.9255    0.4875    0.6165 C   0  0  0  0  0  0  0  0  0  0  0  0
   -1.8655   -0.1774    1.5054 C   0  0  0  0  0  0  0  0  0  0  0  0
   -4.1360    0.5345    1.5591 C   0  0  0  0  0  0  0  0  0  0  0  0
   -2.6243   -1.2336    2.3056 C   0  0  0  0  0  0  0  0  0  0  0  0
   -4.0827   -0.7770    2.3391 C   0  0  0  0  0  0  0  0  0  0  0  0
   -2.4962    1.8900    0.1808 C   0  0  0  0  0  0  0  0  0  0  0  0
   -3.2213   -0.3620   -0.6302 C   0  0  0  0  0  0  0  0  0  0  0  0
   -1.2026    1.8839   -0.6128 C   0  0  0  0  0  0  0  0  0  0  0  0
    1.2587    2.0772   -0.2831 C   0  0  1  0  0  0  0  0  0  0  0  0
   -4.2575    0.2871   -1.5000 C   0  0  0  0  0  0  0  0  0  0  0  0
    2.1603    2.9768    0.5836 C   0  0  2  0  0  0  0  0  0  0  0  0
    3.6442    2.7663    0.2583 C   0  0  1  0  0  0  0  0  0  0  0  0
    4.0650    1.2936    0.4021 C   0  0  0  0  0  0  0  0  0  0  0  0
    1.7639    0.6646   -0.3995 C   0  0  0  0  0  0  0  0  0  0  0  0
    3.0224    0.3257   -0.0809 C   0  0  0  0  0  0  0  0  0  0  0  0
    3.4050   -1.0805   -0.2365 C   0  0  0  0  0  0  0  0  0  0  0  0
    2.8309   -3.3696    0.5515 C   0  0  0  0  0  0  0  0  0  0  0  0
    1.9823   -4.0724   -0.4991 C   0  0  0  0  0  0  0  0  0  0  0  0
    0.4911   -3.8623   -0.3077 C   0  0  0  0  0  0  0  0  0  0  0  0
   -1.4415    0.5445    2.2145 H   0  0  0  0  0  0  0  0  0  0  0  0
   -1.0380   -0.6202    0.9427 H   0  0  0  0  0  0  0  0  0  0  0  0
   -5.1094    0.6805    1.0913 H   0  0  0  0  0  0  0  0  0  0  0  0
   -4.0170    1.3602    2.2740 H   0  0  0  0  0  0  0  0  0  0  0  0
   -2.2095   -1.3427    3.3129 H   0  0  0  0  0  0  0  0  0  0  0  0
   -2.5519   -2.2116    1.8163 H   0  0  0  0  0  0  0  0  0  0  0  0
   -4.7210   -1.5320    1.8660 H   0  0  0  0  0  0  0  0  0  0  0  0
   -4.4412   -0.6435    3.3648 H   0  0  0  0  0  0  0  0  0  0  0  0
   -3.2612    2.3932   -0.4220 H   0  0  0  0  0  0  0  0  0  0  0  0
   -2.3642    2.5350    1.0602 H   0  0  0  0  0  0  0  0  0  0  0  0
   -2.3065   -0.5472   -1.2060 H   0  0  0  0  0  0  0  0  0  0  0  0
   -3.6026   -1.3572   -0.3720 H   0  0  0  0  0  0  0  0  0  0  0  0
    1.2342    2.4863   -1.3018 H   0  0  0  0  0  0  0  0  0  0  0  0
   -0.2286    2.1137    1.2153 H   0  0  0  0  0  0  0  0  0  0  0  0
    1.8746    4.0232    0.4214 H   0  0  0  0  0  0  0  0  0  0  0  0
    4.2563    3.3656    0.9434 H   0  0  0  0  0  0  0  0  0  0  0  0
    5.0027    1.1248   -0.1407 H   0  0  0  0  0  0  0  0  0  0  0  0
    4.2539    1.0780    1.4614 H   0  0  0  0  0  0  0  0  0  0  0  0
    1.0758   -0.0842   -0.7869 H   0  0  0  0  0  0  0  0  0  0  0  0
   -4.3750    0.9606   -3.3252 H   0  0  0  0  0  0  0  0  0  0  0  0
    2.5059    3.2846    2.4836 H   0  0  0  0  0  0  0  0  0  0  0  0
    4.8827    3.1211   -1.2111 H   0  0  0  0  0  0  0  0  0  0  0  0
    1.9143   -1.5588    1.1386 H   0  0  0  0  0  0  0  0  0  0  0  0
    3.8900   -3.5913    0.3818 H   0  0  0  0  0  0  0  0  0  0  0  0
    2.5668   -3.7174    1.5560 H   0  0  0  0  0  0  0  0  0  0  0  0
    2.1824   -5.1497   -0.4657 H   0  0  0  0  0  0  0  0  0  0  0  0
    2.2490   -3.7115   -1.4999 H   0  0  0  0  0  0  0  0  0  0  0  0
   -1.2688   -4.4574   -1.2652 H   0  0  0  0  0  0  0  0  0  0  0  0
    0.1709   -5.0510   -2.0144 H   0  0  0  0  0  0  0  0  0  0  0  0
  1 18  2  0  0  0  0
  2 20  1  0  0  0  0
  2 49  1  0  0  0  0
  3 21  1  0  0  0  0
  3 50  1  0  0  0  0
  4 20  2  0  0  0  0
  5 22  1  0  0  0  0
  5 51  1  0  0  0  0
  6 26  2  0  0  0  0
  7 29  2  0  0  0  0
  8 18  1  0  0  0  0
  8 19  1  0  0  0  0
  8 43  1  0  0  0  0
  9 26  1  0  0  0  0
  9 27  1  0  0  0  0
  9 52  1  0  0  0  0
 10 29  1  0  0  0  0
 10 57  1  0  0  0  0
 10 58  1  0  0  0  0
 11 12  1  0  0  0  0
 11 13  1  0  0  0  0
 11 16  1  0  0  0  0
 11 17  1  0  0  0  0
 12 14  1  0  0  0  0
 12 30  1  0  0  0  0
 12 31  1  0  0  0  0
 13 15  1  0  0  0  0
 13 32  1  0  0  0  0
 13 33  1  0  0  0  0
 14 15  1  0  0  0  0
 14 34  1  0  0  0  0
 14 35  1  0  0  0  0
 15 36  1  0  0  0  0
 15 37  1  0  0  0  0
 16 18  1  0  0  0  0
 16 38  1  0  0  0  0
 16 39  1  0  0  0  0
 17 20  1  0  0  0  0
 17 40  1  0  0  0  0
 17 41  1  0  0  0  0
 19 21  1  0  0  0  0
 19 24  1  0  0  0  0
 19 42  1  0  0  0  0
 21 22  1  0  0  0  0
 21 44  1  0  0  0  0
 22 23  1  0  0  0  0
 22 45  1  0  0  0  0
 23 25  1  0  0  0  0
 23 46  1  0  0  0  0
 23 47  1  0  0  0  0
 24 25  2  0  0  0  0
 24 48  1  0  0  0  0
 25 26  1  0  0  0  0
 27 28  1  0  0  0  0
 27 53  1  0  0  0  0
 27 54  1  0  0  0  0
 28 29  1  0  0  0  0
 28 55  1  0  0  0  0
 28 56  1  0  0  0  0
M  END
> <PUBCHEM_COMPOUND_CID>
11866344

> <PUBCHEM_CONFORMER_RMSD>
1.2

> <PUBCHEM_CONFORMER_DIVERSEORDER>
1
21
52
50
71
53
88
85
30
54
35
33
38
47
63
58
61
45
89
77
97
70
11
60
49
41
29
27
75
10
18
42
74
2
40
87
95
76
94
90
28
31
92
64
57
67
48
56
7
17
39
26
79
25
80
81
69
93
6
91
46
15
65
72
43
24
32
4
34
59
73
55
23
86
37
19
8
68
14
62
82
51
84
12
9
5
16
78
22
36
44
96
3
20
13
66
83

> <PUBCHEM_MMFF94_PARTIAL_CHARGES>
32
1 -0.57
10 -0.8
16 0.06
17 0.06
18 0.57
19 0.44
2 -0.65
20 0.66
21 0.28
22 0.28
23 0.14
24 -0.29
25 -0.12
26 0.62
27 0.3
28 0.06
29 0.57
3 -0.68
4 -0.57
43 0.37
48 0.15
49 0.5
5 -0.68
50 0.4
51 0.4
52 0.37
57 0.37
58 0.37
6 -0.57
7 -0.57
8 -0.73
9 -0.73

> <PUBCHEM_EFFECTIVE_ROTOR_COUNT>
12.8

> <PUBCHEM_PHARMACOPHORE_FEATURES>
15
1 1 acceptor
1 10 donor
1 2 acceptor
1 3 acceptor
1 3 donor
1 4 acceptor
1 5 acceptor
1 5 donor
1 6 acceptor
1 7 acceptor
1 8 donor
1 9 donor
3 2 4 20 anion
5 11 12 13 14 15 rings
6 19 21 22 23 24 25 rings

> <PUBCHEM_HEAVY_ATOM_COUNT>
29

> <PUBCHEM_ATOM_DEF_STEREO_COUNT>
3

> <PUBCHEM_ATOM_UDEF_STEREO_COUNT>
0

> <PUBCHEM_BOND_DEF_STEREO_COUNT>
0

> <PUBCHEM_BOND_UDEF_STEREO_COUNT>
0

> <PUBCHEM_ISOTOPIC_ATOM_COUNT>
0

> <PUBCHEM_COMPONENT_COUNT>
1

> <PUBCHEM_CACTVS_TAUTO_COUNT>
8

> <PUBCHEM_CONFORMER_ID>
00B510E800000001

> <PUBCHEM_MMFF94_ENERGY>
55.9899

> <PUBCHEM_FEATURE_SELFOVERLAP>
76.19

> <PUBCHEM_SHAPE_FINGERPRINT>
10064457 181 17981904226109513216
10190206 1 15954159808331408020
12100795 323 18191594253184495050
12156800 1 16973024293575233915
12539773 59 17417521424495955599
12553582 1 18267588996550981186
12788726 201 16822773341216969154
13122387 1 18410579517259810826
13402501 40 18115324313957391379
13533116 47 18272085011619632205
13583140 156 17987814037085324249
1361 2 18337376245459835551
14251757 17 17532094891074943771
14251757 5 15750096329757047094
14363568 33 18194994905458685730
14659021 117 16824167521908819666
17138139 8 17342067623638980495
19930381 70 18411131399229878399
20511986 3 17489292088885598129
20645477 70 18335693957713656493
20764821 26 18338229474803970182
20775530 9 17831308203051263834
21315764 371 17416944189080744907
21796203 349 18123498015222328474
23559900 14 18113339717187003188
238 59 18337099090587364450
3493558 16 15111142656940449883
463206 1 18268146461773442103
5309563 4 18123761850156450114
9709674 26 18189334576221544697

> <PUBCHEM_SHAPE_MULTIPOLES>
540.78
9.16
5.24
1.91
3.92
5.45
0.05
-2.35
-0.55
-6.17
-0.64
2.87
-0.07
1.13

> <PUBCHEM_SHAPE_SELFOVERLAP>
1115.772

> <PUBCHEM_SHAPE_VOLUME>
307.1

> <PUBCHEM_COORDINATE_TYPE>
2
5
10

$$$$
