7687250
  -OEChem-12032416153D

 54 57  0     1  0  0  0  0  0999 V2000
   -7.6171    1.0033   -0.4688 Cl  0  0  0  0  0  0  0  0  0  0  0  0
    2.2364    2.3404    1.0043 S   0  0  0  0  0  0  0  0  0  0  0  0
    3.5959    2.5207    1.4653 O   0  0  0  0  0  0  0  0  0  0  0  0
    1.1306    2.2155    1.9287 O   0  0  0  0  0  0  0  0  0  0  0  0
    3.6557   -3.5840    1.1087 O   0  0  0  0  0  0  0  0  0  0  0  0
    2.1944    1.0230   -0.0869 N   0  0  2  0  0  0  0  0  0  0  0  0
    2.3119   -2.1361   -0.1495 N   0  0  0  0  0  0  0  0  0  0  0  0
    3.3362   -0.4276   -1.7644 C   0  0  1  0  0  0  0  0  0  0  0  0
    0.9005   -0.5580   -1.5026 C   0  0  2  0  0  0  0  0  0  0  0  0
    2.0331   -0.5892   -2.5261 C   0  0  0  0  0  0  0  0  0  0  0  0
    3.3645    0.9064   -1.0023 C   0  0  0  0  0  0  0  0  0  0  0  0
    0.8945    0.8071   -0.7883 C   0  0  0  0  0  0  0  0  0  0  0  0
    3.5072   -1.6340   -0.8410 C   0  0  0  0  0  0  0  0  0  0  0  0
    1.0140   -1.6952   -0.4815 C   0  0  0  0  0  0  0  0  0  0  0  0
   -0.0746   -2.2589    0.1091 C   0  0  0  0  0  0  0  0  0  0  0  0
    2.5470   -3.1517    0.7930 C   0  0  0  0  0  0  0  0  0  0  0  0
    1.8614    3.6571   -0.1244 C   0  0  0  0  0  0  0  0  0  0  0  0
    0.1410   -3.3136    1.0870 C   0  0  0  0  0  0  0  0  0  0  0  0
    1.3537   -3.7439    1.4330 C   0  0  0  0  0  0  0  0  0  0  0  0
   -1.4355   -1.8320   -0.1731 C   0  0  0  0  0  0  0  0  0  0  0  0
    1.8282    5.0010    0.5844 C   0  0  0  0  0  0  0  0  0  0  0  0
    1.4877    6.1279   -0.3764 C   0  0  0  0  0  0  0  0  0  0  0  0
   -2.0363   -0.8608    0.5124 C   0  0  0  0  0  0  0  0  0  0  0  0
   -3.4147   -0.4005    0.2701 C   0  0  0  0  0  0  0  0  0  0  0  0
   -4.0161   -0.6706   -0.9486 C   0  0  0  0  0  0  0  0  0  0  0  0
   -4.0833    0.2935    1.2657 C   0  0  0  0  0  0  0  0  0  0  0  0
   -5.3210   -0.2346   -1.1781 C   0  0  0  0  0  0  0  0  0  0  0  0
   -5.3883    0.7293    1.0362 C   0  0  0  0  0  0  0  0  0  0  0  0
   -6.0071    0.4654   -0.1858 C   0  0  0  0  0  0  0  0  0  0  0  0
    4.1743   -0.4175   -2.4726 H   0  0  0  0  0  0  0  0  0  0  0  0
   -0.0372   -0.6550   -2.0641 H   0  0  0  0  0  0  0  0  0  0  0  0
    2.0240   -1.5321   -3.0871 H   0  0  0  0  0  0  0  0  0  0  0  0
    1.9130    0.2194   -3.2575 H   0  0  0  0  0  0  0  0  0  0  0  0
    3.3555    1.7301   -1.7242 H   0  0  0  0  0  0  0  0  0  0  0  0
    4.2955    0.9659   -0.4287 H   0  0  0  0  0  0  0  0  0  0  0  0
    0.0744    0.8644   -0.0692 H   0  0  0  0  0  0  0  0  0  0  0  0
    0.7391    1.5863   -1.5422 H   0  0  0  0  0  0  0  0  0  0  0  0
    4.2857   -1.4342   -0.0935 H   0  0  0  0  0  0  0  0  0  0  0  0
    3.8770   -2.4792   -1.4383 H   0  0  0  0  0  0  0  0  0  0  0  0
    0.8780    3.4717   -0.5620 H   0  0  0  0  0  0  0  0  0  0  0  0
    2.6206    3.6709   -0.9101 H   0  0  0  0  0  0  0  0  0  0  0  0
   -0.7326   -3.7568    1.5570 H   0  0  0  0  0  0  0  0  0  0  0  0
    1.4931   -4.5282    2.1674 H   0  0  0  0  0  0  0  0  0  0  0  0
   -1.9219   -2.3877   -0.9684 H   0  0  0  0  0  0  0  0  0  0  0  0
    1.0892    4.9834    1.3939 H   0  0  0  0  0  0  0  0  0  0  0  0
    2.7996    5.2053    1.0496 H   0  0  0  0  0  0  0  0  0  0  0  0
    0.5032    5.9738   -0.8295 H   0  0  0  0  0  0  0  0  0  0  0  0
    1.4712    7.0856    0.1532 H   0  0  0  0  0  0  0  0  0  0  0  0
    2.2289    6.1967   -1.1790 H   0  0  0  0  0  0  0  0  0  0  0  0
   -1.5091   -0.3645    1.3248 H   0  0  0  0  0  0  0  0  0  0  0  0
   -3.5137   -1.1906   -1.7580 H   0  0  0  0  0  0  0  0  0  0  0  0
   -3.6150    0.5058    2.2232 H   0  0  0  0  0  0  0  0  0  0  0  0
   -5.7894   -0.4427   -2.1369 H   0  0  0  0  0  0  0  0  0  0  0  0
   -5.9111    1.2733    1.8187 H   0  0  0  0  0  0  0  0  0  0  0  0
  1 29  1  0  0  0  0
  2  3  2  0  0  0  0
  2  4  2  0  0  0  0
  2  6  1  0  0  0  0
  2 17  1  0  0  0  0
  5 16  2  0  0  0  0
  6 11  1  0  0  0  0
  6 12  1  0  0  0  0
  7 13  1  0  0  0  0
  7 14  1  0  0  0  0
  7 16  1  0  0  0  0
  8 10  1  0  0  0  0
  8 11  1  0  0  0  0
  8 13  1  0  0  0  0
  8 30  1  0  0  0  0
  9 10  1  0  0  0  0
  9 12  1  0  0  0  0
  9 14  1  0  0  0  0
  9 31  1  0  0  0  0
 10 32  1  0  0  0  0
 10 33  1  0  0  0  0
 11 34  1  0  0  0  0
 11 35  1  0  0  0  0
 12 36  1  0  0  0  0
 12 37  1  0  0  0  0
 13 38  1  0  0  0  0
 13 39  1  0  0  0  0
 14 15  2  0  0  0  0
 15 18  1  0  0  0  0
 15 20  1  0  0  0  0
 16 19  1  0  0  0  0
 17 21  1  0  0  0  0
 17 40  1  0  0  0  0
 17 41  1  0  0  0  0
 18 19  2  0  0  0  0
 18 42  1  0  0  0  0
 19 43  1  0  0  0  0
 20 23  2  0  0  0  0
 20 44  1  0  0  0  0
 21 22  1  0  0  0  0
 21 45  1  0  0  0  0
 21 46  1  0  0  0  0
 22 47  1  0  0  0  0
 22 48  1  0  0  0  0
 22 49  1  0  0  0  0
 23 24  1  0  0  0  0
 23 50  1  0  0  0  0
 24 25  2  0  0  0  0
 24 26  1  0  0  0  0
 25 27  1  0  0  0  0
 25 51  1  0  0  0  0
 26 28  2  0  0  0  0
 26 52  1  0  0  0  0
 27 29  2  0  0  0  0
 27 53  1  0  0  0  0
 28 29  1  0  0  0  0
 28 54  1  0  0  0  0
M  END
> <PUBCHEM_COMPOUND_CID>
7687250

> <PUBCHEM_CONFORMER_RMSD>
0.8

> <PUBCHEM_CONFORMER_DIVERSEORDER>
1
7
14
8
10
3
12
2
6
11
13
17
15
4
16
5
9

> <PUBCHEM_MMFF94_PARTIAL_CHARGES>
32
1 -0.18
11 0.36
12 0.36
13 0.3
14 -0.03
16 0.62
17 0.11
18 -0.15
19 -0.14
2 1.33
20 -0.15
23 -0.18
24 0.03
25 -0.15
26 -0.15
27 -0.15
28 -0.15
29 0.18
3 -0.65
4 -0.65
42 0.15
43 0.15
44 0.15
5 -0.57
50 0.15
51 0.15
52 0.15
53 0.15
54 0.15
6 -0.85
7 -0.47
9 0.14

> <PUBCHEM_EFFECTIVE_ROTOR_COUNT>
6

> <PUBCHEM_PHARMACOPHORE_FEATURES>
8
1 22 hydrophobe
1 3 acceptor
1 4 acceptor
1 5 acceptor
6 24 25 26 27 28 29 rings
6 6 8 9 10 11 12 rings
6 7 14 15 16 18 19 rings
6 7 8 9 10 13 14 rings

> <PUBCHEM_HEAVY_ATOM_COUNT>
29

> <PUBCHEM_ATOM_DEF_STEREO_COUNT>
2

> <PUBCHEM_ATOM_UDEF_STEREO_COUNT>
0

> <PUBCHEM_BOND_DEF_STEREO_COUNT>
1

> <PUBCHEM_BOND_UDEF_STEREO_COUNT>
0

> <PUBCHEM_ISOTOPIC_ATOM_COUNT>
0

> <PUBCHEM_COMPONENT_COUNT>
1

> <PUBCHEM_CACTVS_TAUTO_COUNT>
1

> <PUBCHEM_CONFORMER_ID>
00754C5200000001

> <PUBCHEM_MMFF94_ENERGY>
69.386

> <PUBCHEM_FEATURE_SELFOVERLAP>
42.188

> <PUBCHEM_SHAPE_FINGERPRINT>
10165383 225 18040730176864670838
10675989 125 18270685380409828489
11331351 85 17762322631400857163
11456790 92 17825956923420014217
12156800 1 16884383495900039296
12293681 160 18046945720971321382
12788726 201 18121516656793731046
13134695 92 18336259025101967447
13583140 156 18335430088420023219
13590594 115 18194966236124164987
13761468 95 16613111359978087184
13878862 14 18115287987951917359
13965767 371 17751343187389142972
14114206 34 17690049640536176108
14251764 38 18053663856727678509
14848178 96 18269278026974120253
14849402 71 18409730685571348689
14955137 171 18266180526245877114
15326921 28 17120564533687535384
15439362 3 18268151048645981580
15475509 84 17903919950553659640
17980427 26 18267568273318058398
18681886 176 17561082505476076374
20771845 140 11025812993356738478
21033648 29 18188777270150374045
21344244 78 17900805077052061011
21475661 188 18269273645854030572
21860390 5 18131077060087842940
21987440 362 17905899428531510588
22122407 14 18195541303235636409
23558518 356 17980756357244575758
24893992 56 18409731789995486035
345986 75 17754726139897580298
376196 1 17912643802326435524
4058900 60 18194411210439003177
474 4 18269834392668687405
495365 180 18187364316194565179
513532 50 17917989469163189602
57091435 61 18340199800057727929
57527306 92 18130785642931468742
5895379 119 17202216105331958091
6086070 43 18411990173498488507
7471813 234 18195522593398258531
9777508 108 17970081134716601163
9981440 41 17553195910686313216

> <PUBCHEM_SHAPE_MULTIPOLES>
574.96
11.31
6.28
1.7
28.84
8.47
0.32
2.99
1.46
-9.51
-2.56
-0.99
-0.27
0.12

> <PUBCHEM_SHAPE_SELFOVERLAP>
1210.531

> <PUBCHEM_SHAPE_VOLUME>
324.4

> <PUBCHEM_COORDINATE_TYPE>
2
5
10

$$$$
