51136673
  -OEChem-12032416143D

 61 64  0     1  0  0  0  0  0999 V2000
   -6.4512   -1.8317   -1.7806 O   0  0  0  0  0  0  0  0  0  0  0  0
   -0.6171    3.7447   -0.2674 O   0  0  0  0  0  0  0  0  0  0  0  0
   -6.6310    0.0750   -0.5506 O   0  0  0  0  0  0  0  0  0  0  0  0
    4.8829   -1.9635   -1.2370 O   0  0  0  0  0  0  0  0  0  0  0  0
   -1.8263    2.0229    0.6897 N   0  0  0  0  0  0  0  0  0  0  0  0
   -0.8633   -2.3387    1.5647 N   0  0  0  0  0  0  0  0  0  0  0  0
    0.5010    2.1858    1.0371 N   0  0  0  0  0  0  0  0  0  0  0  0
   -2.5361   -0.3522    0.7287 C   0  0  2  0  0  0  0  0  0  0  0  0
   -3.8664    0.0719    0.0517 C   0  0  1  0  0  0  0  0  0  0  0  0
   -3.7092    1.3758   -0.7519 C   0  0  0  0  0  0  0  0  0  0  0  0
   -1.9710    0.8288    1.5358 C   0  0  0  0  0  0  0  0  0  0  0  0
   -1.4819   -0.8881   -0.2468 C   0  0  0  0  0  0  0  0  0  0  0  0
   -3.0812    2.4831    0.0933 C   0  0  0  0  0  0  0  0  0  0  0  0
   -4.4738   -1.0278   -0.8187 C   0  0  0  0  0  0  0  0  0  0  0  0
   -0.4688   -1.7223    0.4996 C   0  0  0  0  0  0  0  0  0  0  0  0
   -0.6340    2.7359    0.4426 C   0  0  0  0  0  0  0  0  0  0  0  0
    0.9224   -1.7887   -0.0162 C   0  0  0  0  0  0  0  0  0  0  0  0
   -5.9528   -0.8325   -1.0080 C   0  0  0  0  0  0  0  0  0  0  0  0
    1.9062   -2.2308    0.8775 C   0  0  0  0  0  0  0  0  0  0  0  0
    1.5006   -2.5880    2.2765 C   0  0  0  0  0  0  0  0  0  0  0  0
    0.1048   -3.1971    2.2556 C   0  0  0  0  0  0  0  0  0  0  0  0
    1.2630   -1.4205   -1.3191 C   0  0  0  0  0  0  0  0  0  0  0  0
    3.2411   -2.2778    0.4662 C   0  0  0  0  0  0  0  0  0  0  0  0
    2.5965   -1.4858   -1.7255 C   0  0  0  0  0  0  0  0  0  0  0  0
    3.5833   -1.9103   -0.8352 C   0  0  0  0  0  0  0  0  0  0  0  0
    1.8358    2.2520    0.5663 C   0  0  0  0  0  0  0  0  0  0  0  0
    2.8611    1.6420    1.2888 C   0  0  0  0  0  0  0  0  0  0  0  0
    2.1245    2.9272   -0.6196 C   0  0  0  0  0  0  0  0  0  0  0  0
    4.1752    1.7072    0.8256 C   0  0  0  0  0  0  0  0  0  0  0  0
    3.4384    2.9925   -1.0829 C   0  0  0  0  0  0  0  0  0  0  0  0
    5.1635   -1.5715   -2.5798 C   0  0  0  0  0  0  0  0  0  0  0  0
    4.4639    2.3825   -0.3603 C   0  0  0  0  0  0  0  0  0  0  0  0
   -2.8219   -1.1303    1.4475 H   0  0  0  0  0  0  0  0  0  0  0  0
   -4.5658    0.2880    0.8732 H   0  0  0  0  0  0  0  0  0  0  0  0
   -3.0744    1.1932   -1.6285 H   0  0  0  0  0  0  0  0  0  0  0  0
   -4.6769    1.7238   -1.1288 H   0  0  0  0  0  0  0  0  0  0  0  0
   -2.6671    1.0966    2.3410 H   0  0  0  0  0  0  0  0  0  0  0  0
   -1.0437    0.5337    2.0249 H   0  0  0  0  0  0  0  0  0  0  0  0
   -1.0027   -0.0671   -0.7864 H   0  0  0  0  0  0  0  0  0  0  0  0
   -1.9277   -1.5578   -0.9893 H   0  0  0  0  0  0  0  0  0  0  0  0
   -2.9234    3.3718   -0.5252 H   0  0  0  0  0  0  0  0  0  0  0  0
   -3.7517    2.7698    0.9120 H   0  0  0  0  0  0  0  0  0  0  0  0
   -4.0013   -1.0558   -1.8067 H   0  0  0  0  0  0  0  0  0  0  0  0
   -4.3410   -2.0010   -0.3312 H   0  0  0  0  0  0  0  0  0  0  0  0
    1.5129   -1.6784    2.8891 H   0  0  0  0  0  0  0  0  0  0  0  0
    2.2031   -3.3044    2.7167 H   0  0  0  0  0  0  0  0  0  0  0  0
    0.1141   -4.1829    1.7738 H   0  0  0  0  0  0  0  0  0  0  0  0
   -0.2358   -3.3486    3.2857 H   0  0  0  0  0  0  0  0  0  0  0  0
    0.3909    1.6629    1.8979 H   0  0  0  0  0  0  0  0  0  0  0  0
    0.5172   -1.0955   -2.0375 H   0  0  0  0  0  0  0  0  0  0  0  0
    4.0151   -2.6009    1.1577 H   0  0  0  0  0  0  0  0  0  0  0  0
   -7.4167   -1.7352   -1.9251 H   0  0  0  0  0  0  0  0  0  0  0  0
    2.7961   -1.1893   -2.7498 H   0  0  0  0  0  0  0  0  0  0  0  0
    2.6496    1.1104    2.2130 H   0  0  0  0  0  0  0  0  0  0  0  0
    1.3722    3.3960   -1.2410 H   0  0  0  0  0  0  0  0  0  0  0  0
    4.9732    1.2296    1.3866 H   0  0  0  0  0  0  0  0  0  0  0  0
    3.6633    3.5117   -2.0100 H   0  0  0  0  0  0  0  0  0  0  0  0
    4.6777   -2.2353   -3.3030 H   0  0  0  0  0  0  0  0  0  0  0  0
    4.9170   -0.5181   -2.7511 H   0  0  0  0  0  0  0  0  0  0  0  0
    6.2436   -1.6744   -2.7273 H   0  0  0  0  0  0  0  0  0  0  0  0
    5.4865    2.4304   -0.7228 H   0  0  0  0  0  0  0  0  0  0  0  0
  1 18  1  0  0  0  0
  1 52  1  0  0  0  0
  2 16  2  0  0  0  0
  3 18  2  0  0  0  0
  4 25  1  0  0  0  0
  4 31  1  0  0  0  0
  5 11  1  0  0  0  0
  5 13  1  0  0  0  0
  5 16  1  0  0  0  0
  6 15  2  0  0  0  0
  6 21  1  0  0  0  0
  7 16  1  0  0  0  0
  7 26  1  0  0  0  0
  7 49  1  0  0  0  0
  8  9  1  0  0  0  0
  8 11  1  0  0  0  0
  8 12  1  0  0  0  0
  8 33  1  0  0  0  0
  9 10  1  0  0  0  0
  9 14  1  0  0  0  0
  9 34  1  0  0  0  0
 10 13  1  0  0  0  0
 10 35  1  0  0  0  0
 10 36  1  0  0  0  0
 11 37  1  0  0  0  0
 11 38  1  0  0  0  0
 12 15  1  0  0  0  0
 12 39  1  0  0  0  0
 12 40  1  0  0  0  0
 13 41  1  0  0  0  0
 13 42  1  0  0  0  0
 14 18  1  0  0  0  0
 14 43  1  0  0  0  0
 14 44  1  0  0  0  0
 15 17  1  0  0  0  0
 17 19  2  0  0  0  0
 17 22  1  0  0  0  0
 19 20  1  0  0  0  0
 19 23  1  0  0  0  0
 20 21  1  0  0  0  0
 20 45  1  0  0  0  0
 20 46  1  0  0  0  0
 21 47  1  0  0  0  0
 21 48  1  0  0  0  0
 22 24  2  0  0  0  0
 22 50  1  0  0  0  0
 23 25  2  0  0  0  0
 23 51  1  0  0  0  0
 24 25  1  0  0  0  0
 24 53  1  0  0  0  0
 26 27  2  0  0  0  0
 26 28  1  0  0  0  0
 27 29  1  0  0  0  0
 27 54  1  0  0  0  0
 28 30  2  0  0  0  0
 28 55  1  0  0  0  0
 29 32  2  0  0  0  0
 29 56  1  0  0  0  0
 30 32  1  0  0  0  0
 30 57  1  0  0  0  0
 31 58  1  0  0  0  0
 31 59  1  0  0  0  0
 31 60  1  0  0  0  0
 32 61  1  0  0  0  0
M  END
> <PUBCHEM_COMPOUND_CID>
51136673

> <PUBCHEM_CONFORMER_RMSD>
1

> <PUBCHEM_CONFORMER_DIVERSEORDER>
1
51
80
50
75
48
82
62
105
95
88
111
20
116
120
41
102
109
5
98
114
113
55
14
26
16
13
25
86
74
46
101
107
67
70
38
87
35
121
12
78
24
89
83
49
91
3
115
42
45
23
59
57
63
66
99
4
72
104
69
103
76
36
108
31
60
97
119
54
81
47
17
56
92
7
106
71
29
43
19
30
33
11
96
37
118
27
77
85
22
68
6
32
112
52
34
53
122
58
40
2
93
110
117
21
100
65
73
39
94
84
61
18
44
9
10
90
15
28
79
8
64

> <PUBCHEM_MMFF94_PARTIAL_CHARGES>
39
1 -0.65
11 0.3
12 0.06
13 0.3
14 0.06
15 0.3
16 0.69
17 0.09
18 0.66
19 -0.14
2 -0.57
20 0.14
21 0.25
22 -0.15
23 -0.15
24 -0.15
25 0.08
26 0.12
27 -0.15
28 -0.15
29 -0.15
3 -0.57
30 -0.15
31 0.28
32 -0.15
4 -0.36
49 0.37
5 -0.66
50 0.15
51 0.15
52 0.5
53 0.15
54 0.15
55 0.15
56 0.15
57 0.15
6 -0.7
61 0.15
7 -0.55

> <PUBCHEM_EFFECTIVE_ROTOR_COUNT>
9.6

> <PUBCHEM_PHARMACOPHORE_FEATURES>
11
1 1 acceptor
1 2 acceptor
1 3 acceptor
1 4 acceptor
1 6 acceptor
1 7 donor
3 1 3 18 anion
6 17 19 22 23 24 25 rings
6 26 27 28 29 30 32 rings
6 5 8 9 10 11 13 rings
6 6 15 17 19 20 21 rings

> <PUBCHEM_HEAVY_ATOM_COUNT>
32

> <PUBCHEM_ATOM_DEF_STEREO_COUNT>
2

> <PUBCHEM_ATOM_UDEF_STEREO_COUNT>
0

> <PUBCHEM_BOND_DEF_STEREO_COUNT>
0

> <PUBCHEM_BOND_UDEF_STEREO_COUNT>
0

> <PUBCHEM_ISOTOPIC_ATOM_COUNT>
0

> <PUBCHEM_COMPONENT_COUNT>
1

> <PUBCHEM_CACTVS_TAUTO_COUNT>
2

> <PUBCHEM_CONFORMER_ID>
030C48A100000001

> <PUBCHEM_MMFF94_ENERGY>
97.4651

> <PUBCHEM_FEATURE_SELFOVERLAP>
55.905

> <PUBCHEM_SHAPE_FINGERPRINT>
10032420 55 17971764272580837332
10675989 125 18267581497802586609
11135609 187 18267864080843871457
12107698 1 18342739576811288982
12156800 1 14132688517676128604
12166972 35 17532643534376777450
12422481 6 18270380739116871472
12645989 146 18128549163135130734
12838863 1 18337655487064225130
13636023 20 18267845294919857253
14784336 7 18116145572119421586
14931854 50 18263376827866453878
15721738 202 17489874829747359771
16112460 7 18128828602766808563
17909252 39 17846504707845618390
19026451 147 18412538799545826838
20642791 35 18267586797860314497
20691752 17 18187374194207636200
20764821 26 17971466308850520636
20775438 99 18128238168341857295
20905425 154 18343018865623447248
21344244 246 18270398433538365111
22393880 68 18337668594940337653
27425 322 16372129034560084828
3298306 158 18265891552476962697
437795 51 18260841431779178795
463206 1 18198333151609086781
508706 21 18261121763455727168
59755656 215 18341891951966900140
70251023 43 18270967842975204927

> <PUBCHEM_SHAPE_MULTIPOLES>
620.12
11.17
4.66
1.92
12.85
1.91
0.05
-1.63
7.37
-3.56
-0.94
-1.14
-1.54
0.11

> <PUBCHEM_SHAPE_SELFOVERLAP>
1326.577

> <PUBCHEM_SHAPE_VOLUME>
339.8

> <PUBCHEM_COORDINATE_TYPE>
2
5
10

$$$$
