75536745
  -OEChem-12032416343D

 49 51  0     1  0  0  0  0  0999 V2000
    0.4442    0.9982    0.3980 O   0  0  0  0  0  0  0  0  0  0  0  0
    1.6386   -2.3887    0.3103 O   0  0  0  0  0  0  0  0  0  0  0  0
   -6.7951    1.1116   -0.5376 O   0  0  0  0  0  0  0  0  0  0  0  0
   -2.8382   -1.8577   -0.4443 O   0  0  0  0  0  0  0  0  0  0  0  0
    3.8586   -0.2073    0.7447 N   0  0  0  0  0  0  0  0  0  0  0  0
   -2.1687   -0.1189    0.8947 N   0  0  0  0  0  0  0  0  0  0  0  0
   -4.2006    0.0146   -0.3061 N   0  0  0  0  0  0  0  0  0  0  0  0
    4.8387    0.4533   -0.0985 C   0  0  0  0  0  0  0  0  0  0  0  0
    2.5273   -0.1194    0.1670 C   0  0  1  0  0  0  0  0  0  0  0  0
    1.5251   -1.0667    0.8001 C   0  0  1  0  0  0  0  0  0  0  0  0
    6.1072    0.8308    0.6570 C   0  0  0  0  0  0  0  0  0  0  0  0
    5.3733   -0.4522   -1.2014 C   0  0  0  0  0  0  0  0  0  0  0  0
    0.2094   -0.4197    0.3885 C   0  0  1  0  0  0  0  0  0  0  0  0
    7.1280    1.0727   -0.4518 C   0  0  0  0  0  0  0  0  0  0  0  0
    6.6553    0.2447   -1.6499 C   0  0  0  0  0  0  0  0  0  0  0  0
    1.8643    1.2265    0.4104 C   0  0  0  0  0  0  0  0  0  0  0  0
   -0.9420   -0.7557    1.3192 C   0  0  0  0  0  0  0  0  0  0  0  0
   -3.0555   -0.7326    0.0178 C   0  0  0  0  0  0  0  0  0  0  0  0
   -5.1859   -0.5527   -1.2294 C   0  0  0  0  0  0  0  0  0  0  0  0
   -4.4615    1.4101    0.0753 C   0  0  0  0  0  0  0  0  0  0  0  0
   -6.6028   -0.2889   -0.7444 C   0  0  0  0  0  0  0  0  0  0  0  0
   -5.9196    1.5980    0.4804 C   0  0  0  0  0  0  0  0  0  0  0  0
    4.4332    1.3743   -0.5392 H   0  0  0  0  0  0  0  0  0  0  0  0
    2.5598   -0.3362   -0.9096 H   0  0  0  0  0  0  0  0  0  0  0  0
    1.6328   -1.0836    1.8918 H   0  0  0  0  0  0  0  0  0  0  0  0
    6.4480    0.0041    1.2936 H   0  0  0  0  0  0  0  0  0  0  0  0
    5.9732    1.7106    1.2943 H   0  0  0  0  0  0  0  0  0  0  0  0
    4.6699   -0.5794   -2.0301 H   0  0  0  0  0  0  0  0  0  0  0  0
    5.6199   -1.4496   -0.8150 H   0  0  0  0  0  0  0  0  0  0  0  0
    4.1173   -1.1831    0.8855 H   0  0  0  0  0  0  0  0  0  0  0  0
   -0.0562   -0.6998   -0.6394 H   0  0  0  0  0  0  0  0  0  0  0  0
    8.1365    0.7901   -0.1335 H   0  0  0  0  0  0  0  0  0  0  0  0
    7.1537    2.1347   -0.7223 H   0  0  0  0  0  0  0  0  0  0  0  0
    6.4533    0.9058   -2.5006 H   0  0  0  0  0  0  0  0  0  0  0  0
    7.4119   -0.4793   -1.9687 H   0  0  0  0  0  0  0  0  0  0  0  0
    2.1154    1.6430    1.3928 H   0  0  0  0  0  0  0  0  0  0  0  0
    2.1161    1.9686   -0.3531 H   0  0  0  0  0  0  0  0  0  0  0  0
   -1.0934   -1.8388    1.3759 H   0  0  0  0  0  0  0  0  0  0  0  0
   -0.7409   -0.3816    2.3293 H   0  0  0  0  0  0  0  0  0  0  0  0
    1.5450   -2.3656   -0.6571 H   0  0  0  0  0  0  0  0  0  0  0  0
   -2.3359    0.8078    1.2590 H   0  0  0  0  0  0  0  0  0  0  0  0
   -5.0272   -1.6265   -1.3669 H   0  0  0  0  0  0  0  0  0  0  0  0
   -5.0207   -0.0604   -2.1952 H   0  0  0  0  0  0  0  0  0  0  0  0
   -3.8236    1.7684    0.8810 H   0  0  0  0  0  0  0  0  0  0  0  0
   -4.2431    2.0107   -0.8158 H   0  0  0  0  0  0  0  0  0  0  0  0
   -7.3257   -0.6207   -1.4961 H   0  0  0  0  0  0  0  0  0  0  0  0
   -6.8153   -0.8273    0.1869 H   0  0  0  0  0  0  0  0  0  0  0  0
   -6.1386    1.0811    1.4225 H   0  0  0  0  0  0  0  0  0  0  0  0
   -6.1329    2.6615    0.6271 H   0  0  0  0  0  0  0  0  0  0  0  0
  1 13  1  0  0  0  0
  1 16  1  0  0  0  0
  2 10  1  0  0  0  0
  2 40  1  0  0  0  0
  3 21  1  0  0  0  0
  3 22  1  0  0  0  0
  4 18  2  0  0  0  0
  5  8  1  0  0  0  0
  5  9  1  0  0  0  0
  5 30  1  0  0  0  0
  6 17  1  0  0  0  0
  6 18  1  0  0  0  0
  6 41  1  0  0  0  0
  7 18  1  0  0  0  0
  7 19  1  0  0  0  0
  7 20  1  0  0  0  0
  8 11  1  0  0  0  0
  8 12  1  0  0  0  0
  8 23  1  0  0  0  0
  9 10  1  0  0  0  0
  9 16  1  0  0  0  0
  9 24  1  0  0  0  0
 10 13  1  0  0  0  0
 10 25  1  0  0  0  0
 11 14  1  0  0  0  0
 11 26  1  0  0  0  0
 11 27  1  0  0  0  0
 12 15  1  0  0  0  0
 12 28  1  0  0  0  0
 12 29  1  0  0  0  0
 13 17  1  0  0  0  0
 13 31  1  0  0  0  0
 14 15  1  0  0  0  0
 14 32  1  0  0  0  0
 14 33  1  0  0  0  0
 15 34  1  0  0  0  0
 15 35  1  0  0  0  0
 16 36  1  0  0  0  0
 16 37  1  0  0  0  0
 17 38  1  0  0  0  0
 17 39  1  0  0  0  0
 19 21  1  0  0  0  0
 19 42  1  0  0  0  0
 19 43  1  0  0  0  0
 20 22  1  0  0  0  0
 20 44  1  0  0  0  0
 20 45  1  0  0  0  0
 21 46  1  0  0  0  0
 21 47  1  0  0  0  0
 22 48  1  0  0  0  0
 22 49  1  0  0  0  0
M  END
> <PUBCHEM_COMPOUND_CID>
75536745

> <PUBCHEM_CONFORMER_RMSD>
1

> <PUBCHEM_CONFORMER_DIVERSEORDER>
1
43
19
30
12
9
34
24
40
4
27
45
36
39
15
11
28
22
35
7
44
2
42
33
10
41
5
17
31
16
3
32
6
23
20
38
21
37
14
8
26
13
18
25
29

> <PUBCHEM_MMFF94_PARTIAL_CHARGES>
21
1 -0.56
10 0.28
13 0.28
16 0.28
17 0.3
18 0.69
19 0.3
2 -0.68
20 0.3
21 0.28
22 0.28
3 -0.56
30 0.36
4 -0.57
40 0.4
41 0.37
5 -0.9
6 -0.73
7 -0.66
8 0.27
9 0.27

> <PUBCHEM_EFFECTIVE_ROTOR_COUNT>
9.2

> <PUBCHEM_PHARMACOPHORE_FEATURES>
11
1 1 acceptor
1 2 acceptor
1 2 donor
1 3 acceptor
1 4 acceptor
1 5 cation
1 5 donor
1 6 donor
5 1 9 10 13 16 rings
5 8 11 12 14 15 rings
6 3 7 19 20 21 22 rings

> <PUBCHEM_HEAVY_ATOM_COUNT>
22

> <PUBCHEM_ATOM_DEF_STEREO_COUNT>
3

> <PUBCHEM_ATOM_UDEF_STEREO_COUNT>
0

> <PUBCHEM_BOND_DEF_STEREO_COUNT>
0

> <PUBCHEM_BOND_UDEF_STEREO_COUNT>
0

> <PUBCHEM_ISOTOPIC_ATOM_COUNT>
0

> <PUBCHEM_COMPONENT_COUNT>
1

> <PUBCHEM_CACTVS_TAUTO_COUNT>
2

> <PUBCHEM_CONFORMER_ID>
0480996900000001

> <PUBCHEM_MMFF94_ENERGY>
37.2568

> <PUBCHEM_FEATURE_SELFOVERLAP>
55.822

> <PUBCHEM_SHAPE_FINGERPRINT>
10 15 14057004927209921916
106641 1 15213027059561629401
10906281 52 18041573463606993096
11315181 36 16702024205397031385
11646440 116 11530481121208295214
117890 112 16805604789651147186
12166972 35 12823291316800412642
12670543 26 18272374157233554894
13533116 47 17895184460374677546
13668630 136 16272210799057379269
13685833 64 13901906726047876295
13862211 1 11527948945982150728
14251752 14 17131832045348278581
14251764 18 17385723620860226947
14528608 73 18342457045620561978
14849402 71 10954044579805032502
15048467 5 17312822693161967724
15183329 4 18131071506547117267
15348495 7 12107800626436899748
15461852 350 14923943483946262651
15475509 35 13542184919186025398
15706992 2 15213316218166021062
15716309 27 11024108750201504992
1577012 14 18338792326526765177
17834072 8 18202283619346101068
18222031 100 14764626409112245762
18335252 98 18259991483653128883
18681886 176 17703500086347848859
20281389 69 16588019121857569116
20735858 18 8286202742885649928
21150785 3 17775286084161102140
21267235 1 18272933869277396779
21521239 73 17418381272943824086
21637258 2 13830132767634835770
22224240 67 12612753527652675353
22393880 68 18129934684570472747
22956985 138 12101918175369214004
23035841 295 12319735873567901893
23081809 10 18335413543667597811
23198884 109 18272933813047247949
23402655 69 18409726261802805435
23559900 14 16702009924615117043
2767999 5 17749105599769965484
2838139 119 17022896887038536118
29717793 49 17560806541475025964
3009799 131 18059856181729878704
34797466 226 17418091061671057456
3545911 37 18410290320432483699
4072396 5 18186790375783350130
4073 2 17967818241191956659
4340502 62 14345791643888161128
465052 167 13398632771067680628
59682541 35 7781507106169152228
5969126 39 14189580710893291811
59755656 215 18202285784078294190
59755656 520 16950278533739419003
9953998 17 12035448337956048621

> <PUBCHEM_SHAPE_MULTIPOLES>
414.33
20.52
1.55
1.16
0.54
0.26
0.2
-7.28
7.9
-0.9
-0.15
0.65
0.13
-0.36

> <PUBCHEM_SHAPE_SELFOVERLAP>
845.766

> <PUBCHEM_SHAPE_VOLUME>
241.4

> <PUBCHEM_COORDINATE_TYPE>
2
5
10

$$$$
