11882032
  -OEChem-12032416363D

 75 79  0     1  0  0  0  0  0999 V2000
    5.8685   -3.7569    1.2403 S   0  0  0  0  0  0  0  0  0  0  0  0
   -2.2964    1.1904   -0.7120 O   0  0  0  0  0  0  0  0  0  0  0  0
   -5.2093    1.0266    0.2288 O   0  0  0  0  0  0  0  0  0  0  0  0
    1.0873   -2.5381    1.6468 O   0  0  0  0  0  0  0  0  0  0  0  0
   -2.1402    4.8253    0.9087 O   0  0  0  0  0  0  0  0  0  0  0  0
   -3.6009   -0.5169    0.8227 N   0  0  0  0  0  0  0  0  0  0  0  0
   -0.6693   -1.6744    0.4161 N   0  0  0  0  0  0  0  0  0  0  0  0
   -1.2256    2.2383    1.0697 N   0  0  0  0  0  0  0  0  0  0  0  0
   -6.0433   -1.2840   -1.6003 N   0  0  0  0  0  0  0  0  0  0  0  0
    1.3734   -1.9364   -0.6042 N   0  0  0  0  0  0  0  0  0  0  0  0
    3.2401    0.7992    1.2463 N   0  0  0  0  0  0  0  0  0  0  0  0
   -1.0834    5.0352   -1.1198 N   0  0  0  0  0  0  0  0  0  0  0  0
   -1.6517   -1.7188    1.4693 C   0  0  1  0  0  0  0  0  0  0  0  0
   -2.7440    0.4390    1.5095 C   0  0  1  0  0  0  0  0  0  0  0  0
   -1.7201   -0.4097    2.2608 C   0  0  0  0  0  0  0  0  0  0  0  0
   -3.0645   -1.8767    0.9172 C   0  0  0  0  0  0  0  0  0  0  0  0
   -2.0842    1.3194    0.4908 C   0  0  0  0  0  0  0  0  0  0  0  0
   -4.8296   -0.1443    0.2702 C   0  0  0  0  0  0  0  0  0  0  0  0
   -0.4502    3.1872    0.3038 C   0  0  2  0  0  0  0  0  0  0  0  0
   -5.6405   -1.2166   -0.2921 C   0  0  0  0  0  0  0  0  0  0  0  0
    0.6560   -2.0959    0.5846 C   0  0  0  0  0  0  0  0  0  0  0  0
    0.8504    3.5827    1.0145 C   0  0  0  0  0  0  0  0  0  0  0  0
    1.9371    2.5560    0.8686 C   0  0  0  0  0  0  0  0  0  0  0  0
   -6.1384   -2.3228    0.3602 C   0  0  0  0  0  0  0  0  0  0  0  0
   -1.3294    4.4098    0.0844 C   0  0  0  0  0  0  0  0  0  0  0  0
   -6.7902   -2.4169   -1.7930 C   0  0  0  0  0  0  0  0  0  0  0  0
    2.9130    2.4955   -0.1653 C   0  0  0  0  0  0  0  0  0  0  0  0
   -6.8660   -3.0821   -0.5894 C   0  0  0  0  0  0  0  0  0  0  0  0
   -5.7359   -0.3180   -2.6321 C   0  0  0  0  0  0  0  0  0  0  0  0
    2.1641    1.5000    1.7209 C   0  0  0  0  0  0  0  0  0  0  0  0
    3.7178    1.3843    0.0953 C   0  0  0  0  0  0  0  0  0  0  0  0
    2.7329   -2.2433   -0.8456 C   0  0  0  0  0  0  0  0  0  0  0  0
    3.1898    3.2818   -1.3012 C   0  0  0  0  0  0  0  0  0  0  0  0
    4.7898    1.0187   -0.7266 C   0  0  0  0  0  0  0  0  0  0  0  0
    4.2588    2.9283   -2.1324 C   0  0  0  0  0  0  0  0  0  0  0  0
    5.0453    1.8137   -1.8476 C   0  0  0  0  0  0  0  0  0  0  0  0
    3.5208   -2.7740    0.1757 C   0  0  0  0  0  0  0  0  0  0  0  0
    3.2854   -2.0149   -2.1059 C   0  0  0  0  0  0  0  0  0  0  0  0
    4.8613   -3.0766   -0.0634 C   0  0  0  0  0  0  0  0  0  0  0  0
    4.6258   -2.3175   -2.3450 C   0  0  0  0  0  0  0  0  0  0  0  0
    5.4138   -2.8483   -1.3238 C   0  0  0  0  0  0  0  0  0  0  0  0
    5.7811   -2.4483    2.4950 C   0  0  0  0  0  0  0  0  0  0  0  0
   -1.3984   -2.5576    2.1269 H   0  0  0  0  0  0  0  0  0  0  0  0
   -3.3427    1.0638    2.1822 H   0  0  0  0  0  0  0  0  0  0  0  0
   -2.1194   -0.6294    3.2596 H   0  0  0  0  0  0  0  0  0  0  0  0
   -0.7395    0.0557    2.3950 H   0  0  0  0  0  0  0  0  0  0  0  0
   -3.6798   -2.4215    1.6405 H   0  0  0  0  0  0  0  0  0  0  0  0
   -3.1123   -2.3814   -0.0527 H   0  0  0  0  0  0  0  0  0  0  0  0
   -0.9316   -1.2572   -0.4718 H   0  0  0  0  0  0  0  0  0  0  0  0
   -1.1950    2.3109    2.0828 H   0  0  0  0  0  0  0  0  0  0  0  0
   -0.2314    2.7359   -0.6727 H   0  0  0  0  0  0  0  0  0  0  0  0
    1.2206    4.5359    0.6146 H   0  0  0  0  0  0  0  0  0  0  0  0
    0.6625    3.7646    2.0813 H   0  0  0  0  0  0  0  0  0  0  0  0
   -6.0130   -2.5588    1.4079 H   0  0  0  0  0  0  0  0  0  0  0  0
    0.8643   -1.5526   -1.3964 H   0  0  0  0  0  0  0  0  0  0  0  0
   -7.2074   -2.6580   -2.7615 H   0  0  0  0  0  0  0  0  0  0  0  0
   -7.3916   -4.0103   -0.4147 H   0  0  0  0  0  0  0  0  0  0  0  0
   -6.0422   -0.7121   -3.6045 H   0  0  0  0  0  0  0  0  0  0  0  0
   -4.6576   -0.1385   -2.6336 H   0  0  0  0  0  0  0  0  0  0  0  0
   -6.2827    0.6026   -2.4139 H   0  0  0  0  0  0  0  0  0  0  0  0
    1.6579    1.1827    2.6218 H   0  0  0  0  0  0  0  0  0  0  0  0
    3.6282   -0.0284    1.6775 H   0  0  0  0  0  0  0  0  0  0  0  0
   -0.3925    4.6941   -1.7806 H   0  0  0  0  0  0  0  0  0  0  0  0
   -1.5923    5.8718   -1.3854 H   0  0  0  0  0  0  0  0  0  0  0  0
    2.5857    4.1529   -1.5388 H   0  0  0  0  0  0  0  0  0  0  0  0
    5.4122    0.1616   -0.4967 H   0  0  0  0  0  0  0  0  0  0  0  0
    4.4771    3.5312   -3.0099 H   0  0  0  0  0  0  0  0  0  0  0  0
    5.8727    1.5587   -2.5049 H   0  0  0  0  0  0  0  0  0  0  0  0
    3.1398   -2.9791    1.1658 H   0  0  0  0  0  0  0  0  0  0  0  0
    2.6830   -1.6000   -2.9097 H   0  0  0  0  0  0  0  0  0  0  0  0
    5.0564   -2.1380   -3.3258 H   0  0  0  0  0  0  0  0  0  0  0  0
    6.4568   -3.0767   -1.5287 H   0  0  0  0  0  0  0  0  0  0  0  0
    6.0971   -1.4918    2.0696 H   0  0  0  0  0  0  0  0  0  0  0  0
    4.7653   -2.3533    2.8870 H   0  0  0  0  0  0  0  0  0  0  0  0
    6.4494   -2.7007    3.3225 H   0  0  0  0  0  0  0  0  0  0  0  0
  1 39  1  0  0  0  0
  1 42  1  0  0  0  0
  2 17  2  0  0  0  0
  3 18  2  0  0  0  0
  4 21  2  0  0  0  0
  5 25  2  0  0  0  0
  6 14  1  0  0  0  0
  6 16  1  0  0  0  0
  6 18  1  0  0  0  0
  7 13  1  0  0  0  0
  7 21  1  0  0  0  0
  7 49  1  0  0  0  0
  8 17  1  0  0  0  0
  8 19  1  0  0  0  0
  8 50  1  0  0  0  0
  9 20  1  0  0  0  0
  9 26  1  0  0  0  0
  9 29  1  0  0  0  0
 10 21  1  0  0  0  0
 10 32  1  0  0  0  0
 10 55  1  0  0  0  0
 11 30  1  0  0  0  0
 11 31  1  0  0  0  0
 11 62  1  0  0  0  0
 12 25  1  0  0  0  0
 12 63  1  0  0  0  0
 12 64  1  0  0  0  0
 13 15  1  0  0  0  0
 13 16  1  0  0  0  0
 13 43  1  0  0  0  0
 14 15  1  0  0  0  0
 14 17  1  0  0  0  0
 14 44  1  0  0  0  0
 15 45  1  0  0  0  0
 15 46  1  0  0  0  0
 16 47  1  0  0  0  0
 16 48  1  0  0  0  0
 18 20  1  0  0  0  0
 19 22  1  0  0  0  0
 19 25  1  0  0  0  0
 19 51  1  0  0  0  0
 20 24  2  0  0  0  0
 22 23  1  0  0  0  0
 22 52  1  0  0  0  0
 22 53  1  0  0  0  0
 23 27  1  0  0  0  0
 23 30  2  0  0  0  0
 24 28  1  0  0  0  0
 24 54  1  0  0  0  0
 26 28  2  0  0  0  0
 26 56  1  0  0  0  0
 27 31  1  0  0  0  0
 27 33  2  0  0  0  0
 28 57  1  0  0  0  0
 29 58  1  0  0  0  0
 29 59  1  0  0  0  0
 29 60  1  0  0  0  0
 30 61  1  0  0  0  0
 31 34  2  0  0  0  0
 32 37  2  0  0  0  0
 32 38  1  0  0  0  0
 33 35  1  0  0  0  0
 33 65  1  0  0  0  0
 34 36  1  0  0  0  0
 34 66  1  0  0  0  0
 35 36  2  0  0  0  0
 35 67  1  0  0  0  0
 36 68  1  0  0  0  0
 37 39  1  0  0  0  0
 37 69  1  0  0  0  0
 38 40  2  0  0  0  0
 38 70  1  0  0  0  0
 39 41  2  0  0  0  0
 40 41  1  0  0  0  0
 40 71  1  0  0  0  0
 41 72  1  0  0  0  0
 42 73  1  0  0  0  0
 42 74  1  0  0  0  0
 42 75  1  0  0  0  0
M  END
> <PUBCHEM_COMPOUND_CID>
11882032

> <PUBCHEM_CONFORMER_RMSD>
1.2

> <PUBCHEM_CONFORMER_DIVERSEORDER>
1
99
89
114
18
137
42
51
126
87
69
29
40
37
95
4
70
57
27
91
76
92
139
115
10
22
82
67
127
129
52
136
39
3
80
30
59
44
58
47
17
118
24
64
84
78
16
21
131
106
108
130
20
31
107
96
54
7
55
86
2
50
123
122
23
72
104
119
128
36
13
100
113
34
49
38
62
124
132
14
135
48
28
109
33
35
112
125
90
75
103
116
88
117
46
66
61
68
65
94
85
81
26
138
110
105
32
101
98
73
77
41
56
140
83
71
133
93
11
102
9
45
6
43
63
120
8
60
111
134
79
97
15
12
121
5
74
25
53
19

> <PUBCHEM_MMFF94_PARTIAL_CHARGES>
58
1 -0.33
10 -0.55
11 0.03
12 -0.8
13 0.3
14 0.36
16 0.3
17 0.57
18 0.71
19 0.36
2 -0.57
20 -0.24
21 0.69
22 0.18
23 -0.18
24 -0.15
25 0.57
26 -0.3
28 -0.15
29 0.26
3 -0.57
30 -0.3
31 -0.15
32 0.12
33 -0.15
34 -0.15
35 -0.15
36 -0.15
37 -0.15
38 -0.15
39 0.1
4 -0.57
40 -0.15
41 -0.15
42 0.23
49 0.37
5 -0.57
50 0.37
54 0.15
55 0.37
56 0.15
57 0.15
6 -0.66
61 0.15
62 0.27
63 0.37
64 0.37
65 0.15
66 0.15
67 0.15
68 0.15
69 0.15
7 -0.73
70 0.15
71 0.15
72 0.15
8 -0.73
9 0.05

> <PUBCHEM_EFFECTIVE_ROTOR_COUNT>
14

> <PUBCHEM_PHARMACOPHORE_FEATURES>
17
1 10 donor
1 11 cation
1 11 donor
1 12 donor
1 2 acceptor
1 3 acceptor
1 4 acceptor
1 42 hydrophobe
1 5 acceptor
1 7 donor
1 8 donor
1 9 cation
5 11 23 27 30 31 rings
5 6 13 14 15 16 rings
5 9 20 24 26 28 rings
6 27 31 33 34 35 36 rings
6 32 37 38 39 40 41 rings

> <PUBCHEM_HEAVY_ATOM_COUNT>
42

> <PUBCHEM_ATOM_DEF_STEREO_COUNT>
3

> <PUBCHEM_ATOM_UDEF_STEREO_COUNT>
0

> <PUBCHEM_BOND_DEF_STEREO_COUNT>
0

> <PUBCHEM_BOND_UDEF_STEREO_COUNT>
0

> <PUBCHEM_ISOTOPIC_ATOM_COUNT>
0

> <PUBCHEM_COMPONENT_COUNT>
1

> <PUBCHEM_CACTVS_TAUTO_COUNT>
12

> <PUBCHEM_CONFORMER_ID>
00B54E3000000001

> <PUBCHEM_MMFF94_ENERGY>
96.6214

> <PUBCHEM_FEATURE_SELFOVERLAP>
86.418

> <PUBCHEM_SHAPE_FINGERPRINT>
10556698 54 17609732567528799325
10675989 125 18193012610885590820
11093857 51 18050572038689301012
11170278 133 17611176066976980029
11513181 2 18128274314727610830
12107698 1 18337954476432265446
12147406 95 18410851079715174538
12645989 146 18127422150647245694
1361 2 18054225698669312145
13636023 20 18411125957770058843
14068700 675 18335702676460032415
16067689 302 18195540400918587355
19315092 285 17560807653449478664
20764821 26 18192730959403407080
21344244 246 18269274741440196351
3388396 114 18337971076544460908
3504750 166 17471563340040687010
3882209 13 18336531738798587600
4066623 53 18334287660903506292
45266715 3 18128536170805857496
513532 50 17560810965517824134
6371009 1 18262518092026592018

> <PUBCHEM_SHAPE_MULTIPOLES>
809.85
16.14
6.53
2.27
15.8
5.53
0.52
-16.51
6.59
-4.17
0.21
-1.11
-0.69
-2.55

> <PUBCHEM_SHAPE_SELFOVERLAP>
1740.74

> <PUBCHEM_SHAPE_VOLUME>
451.3

> <PUBCHEM_COORDINATE_TYPE>
2
5
10

$$$$
