38030690
  -OEChem-12032416363D

 66 69  0     1  0  0  0  0  0999 V2000
   -0.8769    2.0571   -0.6521 O   0  0  0  0  0  0  0  0  0  0  0  0
    2.2310   -2.6762    0.8053 N   0  0  0  0  0  0  0  0  0  0  0  0
    0.1871    2.2412    1.3071 N   0  0  0  0  0  0  0  0  0  0  0  0
   -1.0893    1.7727    1.5566 N   0  0  0  0  0  0  0  0  0  0  0  0
   -0.2779   -3.2324   -0.6215 N   0  0  0  0  0  0  0  0  0  0  0  0
    3.3660   -0.4788   -0.7595 C   0  0  1  0  0  0  0  0  0  0  0  0
    3.4480   -0.5435    0.7835 C   0  0  1  0  0  0  0  0  0  0  0  0
    2.3499    0.5843   -1.2001 C   0  0  0  0  0  0  0  0  0  0  0  0
    2.6560    1.9909   -0.6427 C   0  0  2  0  0  0  0  0  0  0  0  0
    4.7445   -0.2207   -1.3826 C   0  0  0  0  0  0  0  0  0  0  0  0
    3.1497    1.9670    0.7960 C   0  0  0  0  0  0  0  0  0  0  0  0
    3.4875    0.8228    1.4189 C   0  0  0  0  0  0  0  0  0  0  0  0
    2.2843   -1.3427    1.3790 C   0  0  0  0  0  0  0  0  0  0  0  0
    1.4159    2.8734   -0.8330 C   0  0  0  0  0  0  0  0  0  0  0  0
    4.6481   -0.2181   -2.9049 C   0  0  0  0  0  0  0  0  0  0  0  0
    5.7481   -1.2659   -0.9059 C   0  0  0  0  0  0  0  0  0  0  0  0
    3.3091    3.2877    1.4978 C   0  0  0  0  0  0  0  0  0  0  0  0
    0.2665    2.3926    0.0057 C   0  0  0  0  0  0  0  0  0  0  0  0
    1.1200   -3.4414    1.3587 C   0  0  0  0  0  0  0  0  0  0  0  0
   -0.1908   -3.0703    0.7178 C   0  0  0  0  0  0  0  0  0  0  0  0
   -1.6740    1.6807    0.3850 C   0  0  0  0  0  0  0  0  0  0  0  0
   -1.2222   -2.5926    1.5101 C   0  0  0  0  0  0  0  0  0  0  0  0
   -2.9974    1.2526    0.0359 C   0  0  0  0  0  0  0  0  0  0  0  0
   -2.4203   -2.2601    0.8878 C   0  0  0  0  0  0  0  0  0  0  0  0
   -1.4577   -2.8986   -1.1912 C   0  0  0  0  0  0  0  0  0  0  0  0
   -3.2761    0.8405   -1.2673 C   0  0  0  0  0  0  0  0  0  0  0  0
   -4.0058    1.2470    0.9997 C   0  0  0  0  0  0  0  0  0  0  0  0
   -2.5485   -2.4131   -0.4882 C   0  0  0  0  0  0  0  0  0  0  0  0
   -4.5629    0.4234   -1.6068 C   0  0  0  0  0  0  0  0  0  0  0  0
   -5.2928    0.8299    0.6602 C   0  0  0  0  0  0  0  0  0  0  0  0
   -5.5713    0.4181   -0.6430 C   0  0  0  0  0  0  0  0  0  0  0  0
   -6.9475   -0.0277   -1.0063 C   0  0  0  0  0  0  0  0  0  0  0  0
    3.0177   -1.4394   -1.1597 H   0  0  0  0  0  0  0  0  0  0  0  0
    4.3526   -1.0644    1.1074 H   0  0  0  0  0  0  0  0  0  0  0  0
    1.3652    0.2408   -0.8589 H   0  0  0  0  0  0  0  0  0  0  0  0
    2.2497    0.6302   -2.2897 H   0  0  0  0  0  0  0  0  0  0  0  0
    3.4609    2.4279   -1.2493 H   0  0  0  0  0  0  0  0  0  0  0  0
    5.1358    0.7578   -1.0792 H   0  0  0  0  0  0  0  0  0  0  0  0
    3.8354    0.8584    2.4491 H   0  0  0  0  0  0  0  0  0  0  0  0
    1.3424   -0.8079    1.2053 H   0  0  0  0  0  0  0  0  0  0  0  0
    2.4134   -1.4101    2.4679 H   0  0  0  0  0  0  0  0  0  0  0  0
    1.6297    3.9164   -0.5731 H   0  0  0  0  0  0  0  0  0  0  0  0
    1.1225    2.8766   -1.8904 H   0  0  0  0  0  0  0  0  0  0  0  0
    4.1426   -1.1144   -3.2801 H   0  0  0  0  0  0  0  0  0  0  0  0
    5.6471   -0.1912   -3.3552 H   0  0  0  0  0  0  0  0  0  0  0  0
    4.1227    0.6636   -3.2830 H   0  0  0  0  0  0  0  0  0  0  0  0
    5.3313   -2.2783   -0.9395 H   0  0  0  0  0  0  0  0  0  0  0  0
    6.1091   -1.0629    0.1066 H   0  0  0  0  0  0  0  0  0  0  0  0
    6.6417   -1.2608   -1.5410 H   0  0  0  0  0  0  0  0  0  0  0  0
    3.9065    3.9698    0.8836 H   0  0  0  0  0  0  0  0  0  0  0  0
    3.8271    3.1817    2.4575 H   0  0  0  0  0  0  0  0  0  0  0  0
    2.3444    3.7588    1.7022 H   0  0  0  0  0  0  0  0  0  0  0  0
    3.1049   -3.1599    1.0129 H   0  0  0  0  0  0  0  0  0  0  0  0
    1.0827   -3.3655    2.4526 H   0  0  0  0  0  0  0  0  0  0  0  0
    1.2909   -4.5028    1.1389 H   0  0  0  0  0  0  0  0  0  0  0  0
   -1.1151   -2.4766    2.5832 H   0  0  0  0  0  0  0  0  0  0  0  0
   -3.2558   -1.8933    1.4761 H   0  0  0  0  0  0  0  0  0  0  0  0
   -2.5108    0.8243   -2.0395 H   0  0  0  0  0  0  0  0  0  0  0  0
   -3.8099    1.5643    2.0211 H   0  0  0  0  0  0  0  0  0  0  0  0
   -1.5088   -3.0428   -2.2653 H   0  0  0  0  0  0  0  0  0  0  0  0
   -3.4804   -2.1911   -0.9925 H   0  0  0  0  0  0  0  0  0  0  0  0
   -4.7669    0.1005   -2.6243 H   0  0  0  0  0  0  0  0  0  0  0  0
   -6.0695    0.8281    1.4204 H   0  0  0  0  0  0  0  0  0  0  0  0
   -7.0432   -1.1079   -0.8585 H   0  0  0  0  0  0  0  0  0  0  0  0
   -7.7019    0.4784   -0.3944 H   0  0  0  0  0  0  0  0  0  0  0  0
   -7.1746    0.2054   -2.0522 H   0  0  0  0  0  0  0  0  0  0  0  0
  1 18  1  0  0  0  0
  1 21  1  0  0  0  0
  2 13  1  0  0  0  0
  2 19  1  0  0  0  0
  2 53  1  0  0  0  0
  3  4  1  0  0  0  0
  3 18  2  0  0  0  0
  4 21  2  0  0  0  0
  5 20  1  0  0  0  0
  5 25  2  0  0  0  0
  6  7  1  0  0  0  0
  6  8  1  0  0  0  0
  6 10  1  0  0  0  0
  6 33  1  0  0  0  0
  7 12  1  0  0  0  0
  7 13  1  0  0  0  0
  7 34  1  0  0  0  0
  8  9  1  0  0  0  0
  8 35  1  0  0  0  0
  8 36  1  0  0  0  0
  9 11  1  0  0  0  0
  9 14  1  0  0  0  0
  9 37  1  0  0  0  0
 10 15  1  0  0  0  0
 10 16  1  0  0  0  0
 10 38  1  0  0  0  0
 11 12  2  0  0  0  0
 11 17  1  0  0  0  0
 12 39  1  0  0  0  0
 13 40  1  0  0  0  0
 13 41  1  0  0  0  0
 14 18  1  0  0  0  0
 14 42  1  0  0  0  0
 14 43  1  0  0  0  0
 15 44  1  0  0  0  0
 15 45  1  0  0  0  0
 15 46  1  0  0  0  0
 16 47  1  0  0  0  0
 16 48  1  0  0  0  0
 16 49  1  0  0  0  0
 17 50  1  0  0  0  0
 17 51  1  0  0  0  0
 17 52  1  0  0  0  0
 19 20  1  0  0  0  0
 19 54  1  0  0  0  0
 19 55  1  0  0  0  0
 20 22  2  0  0  0  0
 21 23  1  0  0  0  0
 22 24  1  0  0  0  0
 22 56  1  0  0  0  0
 23 26  2  0  0  0  0
 23 27  1  0  0  0  0
 24 28  2  0  0  0  0
 24 57  1  0  0  0  0
 25 28  1  0  0  0  0
 25 60  1  0  0  0  0
 26 29  1  0  0  0  0
 26 58  1  0  0  0  0
 27 30  2  0  0  0  0
 27 59  1  0  0  0  0
 28 61  1  0  0  0  0
 29 31  2  0  0  0  0
 29 62  1  0  0  0  0
 30 31  1  0  0  0  0
 30 63  1  0  0  0  0
 31 32  1  0  0  0  0
 32 64  1  0  0  0  0
 32 65  1  0  0  0  0
 32 66  1  0  0  0  0
M  END
> <PUBCHEM_COMPOUND_CID>
38030690

> <PUBCHEM_CONFORMER_RMSD>
1

> <PUBCHEM_CONFORMER_DIVERSEORDER>
40
258
220
18
177
169
83
106
152
190
199
112
98
120
129
29
50
265
95
208
10
137
155
238
166
193
94
26
17
249
175
234
12
143
188
90
42
171
197
125
102
138
182
213
170
229
121
55
148
218
142
160
58
236
49
139
64
180
56
60
222
179
257
53
217
23
1
114
252
105
239
71
232
153
96
113
134
73
88
162
19
192
135
35
59
167
146
196
176
97
161
63
47
262
57
44
254
101
200
263
5
237
108
77
51
61
227
68
76
216
75
131
130
147
43
228
103
240
118
157
69
48
207
22
191
183
215
264
31
115
235
248
128
122
186
187
203
132
150
154
52
255
256
111
158
246
144
163
36
127
104
165
204
107
13
6
66
141
178
84
219
110
117
28
195
124
245
109
62
41
46
145
70
159
184
261
116
260
202
173
214
133
241
25
181
225
231
174
30
72
65
244
164
16
149
194
221
242
54
210
140
205
27
198
211
67
82
247
7
185
87
209
253
81
206
243
99
91
259
189
45
226
89
230
156
37
136
11
85
74
172
15
126
34
80
2
14
233
39
9
33
8
123
78
79
250
3
224
168
24
223
100
86
4
93
212
32
92
201
21
20
38
119
251
151

> <PUBCHEM_MMFF94_PARTIAL_CHARGES>
37
1 -0.28
11 -0.28
12 -0.29
13 0.27
14 0.18
17 0.14
18 0.3
19 0.41
2 -0.9
20 0.17
21 0.43
22 -0.15
23 0.05
24 -0.15
25 0.16
26 -0.15
27 -0.15
28 -0.15
29 -0.15
3 -0.34
30 -0.15
31 -0.14
32 0.14
39 0.15
4 -0.34
5 -0.62
53 0.36
56 0.15
57 0.15
58 0.15
59 0.15
60 0.15
61 0.15
62 0.15
63 0.15
7 0.14
9 0.14

> <PUBCHEM_EFFECTIVE_ROTOR_COUNT>
8.8

> <PUBCHEM_PHARMACOPHORE_FEATURES>
8
1 2 cation
1 2 donor
1 5 acceptor
3 10 15 16 hydrophobe
5 1 3 4 18 21 rings
6 23 26 27 29 30 31 rings
6 5 20 22 24 25 28 rings
6 6 7 8 9 11 12 rings

> <PUBCHEM_HEAVY_ATOM_COUNT>
32

> <PUBCHEM_ATOM_DEF_STEREO_COUNT>
3

> <PUBCHEM_ATOM_UDEF_STEREO_COUNT>
0

> <PUBCHEM_BOND_DEF_STEREO_COUNT>
0

> <PUBCHEM_BOND_UDEF_STEREO_COUNT>
0

> <PUBCHEM_ISOTOPIC_ATOM_COUNT>
0

> <PUBCHEM_COMPONENT_COUNT>
1

> <PUBCHEM_CACTVS_TAUTO_COUNT>
1

> <PUBCHEM_CONFORMER_ID>
02444D6200000028

> <PUBCHEM_MMFF94_ENERGY>
65.9844

> <PUBCHEM_FEATURE_SELFOVERLAP>
40.597

> <PUBCHEM_SHAPE_FINGERPRINT>
10816530 23 17058352911318842712
1100329 8 18410291428122602426
11513181 2 17914341165176052983
12156800 1 16166456498165347658
12788726 201 18200035010435082761
13122387 1 18337382725948098611
13140716 1 18409725200987815256
1361 2 18334851728039190753
13617811 41 18040708182938788157
14114211 68 18041859319197800790
14117953 113 17547277914114792111
14840074 17 18187091624478235573
14931854 50 18337676308458878662
15001296 14 18339632430371715825
15297060 5 17703792458105651691
15968369 153 18197776816290702627
16067690 210 16343992390513496531
17492 54 18261956258822267539
19319366 153 17968097482769861778
20465049 17 18335708247159534055
20764821 26 18335973280863999659
20775438 99 18057022791441113878
23559900 14 18341619269078816884
24941158 1 16773239634111513664
3052486 1 18261393390805423938
3298306 158 18260539001392961661
338550 245 18189892196458025253
340366 18 17895480340044243709
35225 105 18339070498088284214
354706 35 16536776700230249815
463206 1 18410288129619562481
484989 97 18262529211823567483
508706 21 18116995687622120707
6287921 2 17626950777395654487
6669772 16 18338221773600392001

> <PUBCHEM_SHAPE_MULTIPOLES>
632.75
11.75
4.35
1.91
8.95
2.12
-0.52
-2.04
-4.96
-1.11
1.46
-1.43
0.09
0.51

> <PUBCHEM_SHAPE_SELFOVERLAP>
1347.635

> <PUBCHEM_SHAPE_VOLUME>
351

> <PUBCHEM_COORDINATE_TYPE>
2
5
10

$$$$
