45360675
  -OEChem-12032416383D

 67 71  0     1  0  0  0  0  0999 V2000
   -1.4352   -3.0734    2.1121 O   0  0  0  0  0  0  0  0  0  0  0  0
   -4.9691    2.8364    0.2620 O   0  0  0  0  0  0  0  0  0  0  0  0
   -1.4045    0.3780    0.9246 N   0  0  1  0  0  0  0  0  0  0  0  0
    2.1337   -0.1340    0.3296 N   0  0  0  0  0  0  0  0  0  0  0  0
   -2.1285   -1.1717    3.1490 N   0  0  0  0  0  0  0  0  0  0  0  0
    6.3263   -1.5552   -0.3388 N   0  0  0  0  0  0  0  0  0  0  0  0
   -3.5764    1.9444   -1.3670 N   0  0  0  0  0  0  0  0  0  0  0  0
   -1.3947   -1.0824    0.7718 C   0  0  1  0  0  0  0  0  0  0  0  0
    0.6991   -0.0455    0.1101 C   0  0  1  0  0  0  0  0  0  0  0  0
   -0.0056   -1.3998    0.1959 C   0  0  0  0  0  0  0  0  0  0  0  0
   -2.4262    0.8795    1.8368 C   0  0  1  0  0  0  0  0  0  0  0  0
   -0.0236    0.7973    1.1520 C   0  0  0  0  0  0  0  0  0  0  0  0
   -2.2667    0.2647    3.2184 C   0  0  0  0  0  0  0  0  0  0  0  0
   -1.6299   -1.8551    2.0664 C   0  0  0  0  0  0  0  0  0  0  0  0
   -2.4537    2.4065    1.9154 C   0  0  0  0  0  0  0  0  0  0  0  0
   -2.5705    3.0270    0.5300 C   0  0  0  0  0  0  0  0  0  0  0  0
    2.8199   -0.5911   -0.8723 C   0  0  0  0  0  0  0  0  0  0  0  0
    4.3026   -0.7035   -0.6645 C   0  0  0  0  0  0  0  0  0  0  0  0
   -3.8458    2.6079   -0.1789 C   0  0  0  0  0  0  0  0  0  0  0  0
    5.2330    0.3714   -0.6033 C   0  0  0  0  0  0  0  0  0  0  0  0
    5.0047   -1.8750   -0.4986 C   0  0  0  0  0  0  0  0  0  0  0  0
    6.4951   -0.1902   -0.3983 C   0  0  0  0  0  0  0  0  0  0  0  0
    5.1223    1.7725   -0.7029 C   0  0  0  0  0  0  0  0  0  0  0  0
    7.6566    0.5824   -0.2875 C   0  0  0  0  0  0  0  0  0  0  0  0
   -4.6238    1.4437   -2.2251 C   0  0  0  0  0  0  0  0  0  0  0  0
    7.3808   -2.5250   -0.1347 C   0  0  0  0  0  0  0  0  0  0  0  0
    6.2756    2.5580   -0.5940 C   0  0  0  0  0  0  0  0  0  0  0  0
    7.5222    1.9700   -0.3895 C   0  0  0  0  0  0  0  0  0  0  0  0
   -5.0106    0.0355   -1.8767 C   0  0  0  0  0  0  0  0  0  0  0  0
   -4.3590   -1.0372   -2.4851 C   0  0  0  0  0  0  0  0  0  0  0  0
   -6.0212   -0.2002   -0.9447 C   0  0  0  0  0  0  0  0  0  0  0  0
   -4.7180   -2.3458   -2.1616 C   0  0  0  0  0  0  0  0  0  0  0  0
   -6.3803   -1.5086   -0.6211 C   0  0  0  0  0  0  0  0  0  0  0  0
   -5.7286   -2.5814   -1.2296 C   0  0  0  0  0  0  0  0  0  0  0  0
   -2.1811   -1.3827    0.0697 H   0  0  0  0  0  0  0  0  0  0  0  0
    0.4950    0.4051   -0.8732 H   0  0  0  0  0  0  0  0  0  0  0  0
    0.5537   -2.0936    0.8355 H   0  0  0  0  0  0  0  0  0  0  0  0
   -0.0811   -1.8531   -0.7992 H   0  0  0  0  0  0  0  0  0  0  0  0
   -3.3979    0.5462    1.4459 H   0  0  0  0  0  0  0  0  0  0  0  0
    0.3218    0.5543    2.1642 H   0  0  0  0  0  0  0  0  0  0  0  0
    0.1431    1.8637    0.9733 H   0  0  0  0  0  0  0  0  0  0  0  0
   -1.3854    0.6487    3.7439 H   0  0  0  0  0  0  0  0  0  0  0  0
   -3.1414    0.4764    3.8429 H   0  0  0  0  0  0  0  0  0  0  0  0
   -1.5559    2.7942    2.4118 H   0  0  0  0  0  0  0  0  0  0  0  0
   -3.3076    2.7183    2.5304 H   0  0  0  0  0  0  0  0  0  0  0  0
    2.4892    0.7880    0.5837 H   0  0  0  0  0  0  0  0  0  0  0  0
   -2.3010   -1.7010    3.9981 H   0  0  0  0  0  0  0  0  0  0  0  0
   -2.6166    4.1186    0.6323 H   0  0  0  0  0  0  0  0  0  0  0  0
   -1.6878    2.8268   -0.0847 H   0  0  0  0  0  0  0  0  0  0  0  0
    2.4358   -1.5717   -1.1801 H   0  0  0  0  0  0  0  0  0  0  0  0
    2.6390    0.1000   -1.7058 H   0  0  0  0  0  0  0  0  0  0  0  0
    4.6707   -2.9042   -0.4810 H   0  0  0  0  0  0  0  0  0  0  0  0
   -2.6153    1.7711   -1.6456 H   0  0  0  0  0  0  0  0  0  0  0  0
    4.1584    2.2471   -0.8629 H   0  0  0  0  0  0  0  0  0  0  0  0
    8.6301    0.1309   -0.1282 H   0  0  0  0  0  0  0  0  0  0  0  0
   -5.4964    2.1051   -2.1649 H   0  0  0  0  0  0  0  0  0  0  0  0
   -4.2571    1.4969   -3.2565 H   0  0  0  0  0  0  0  0  0  0  0  0
    6.9578   -3.5328   -0.1306 H   0  0  0  0  0  0  0  0  0  0  0  0
    7.8567   -2.3196    0.8276 H   0  0  0  0  0  0  0  0  0  0  0  0
    8.1002   -2.4292   -0.9520 H   0  0  0  0  0  0  0  0  0  0  0  0
    6.1962    3.6392   -0.6702 H   0  0  0  0  0  0  0  0  0  0  0  0
    8.4049    2.5992   -0.3078 H   0  0  0  0  0  0  0  0  0  0  0  0
   -3.5679   -0.8667   -3.2104 H   0  0  0  0  0  0  0  0  0  0  0  0
   -6.5399    0.6251   -0.4649 H   0  0  0  0  0  0  0  0  0  0  0  0
   -4.2097   -3.1811   -2.6343 H   0  0  0  0  0  0  0  0  0  0  0  0
   -7.1674   -1.6922    0.1044 H   0  0  0  0  0  0  0  0  0  0  0  0
   -6.0078   -3.6002   -0.9773 H   0  0  0  0  0  0  0  0  0  0  0  0
  1 14  2  0  0  0  0
  2 19  2  0  0  0  0
  3  8  1  0  0  0  0
  3 11  1  0  0  0  0
  3 12  1  0  0  0  0
  4  9  1  0  0  0  0
  4 17  1  0  0  0  0
  4 46  1  0  0  0  0
  5 13  1  0  0  0  0
  5 14  1  0  0  0  0
  5 47  1  0  0  0  0
  6 21  1  0  0  0  0
  6 22  1  0  0  0  0
  6 26  1  0  0  0  0
  7 19  1  0  0  0  0
  7 25  1  0  0  0  0
  7 53  1  0  0  0  0
  8 10  1  0  0  0  0
  8 14  1  0  0  0  0
  8 35  1  0  0  0  0
  9 10  1  0  0  0  0
  9 12  1  0  0  0  0
  9 36  1  0  0  0  0
 10 37  1  0  0  0  0
 10 38  1  0  0  0  0
 11 13  1  0  0  0  0
 11 15  1  0  0  0  0
 11 39  1  0  0  0  0
 12 40  1  0  0  0  0
 12 41  1  0  0  0  0
 13 42  1  0  0  0  0
 13 43  1  0  0  0  0
 15 16  1  0  0  0  0
 15 44  1  0  0  0  0
 15 45  1  0  0  0  0
 16 19  1  0  0  0  0
 16 48  1  0  0  0  0
 16 49  1  0  0  0  0
 17 18  1  0  0  0  0
 17 50  1  0  0  0  0
 17 51  1  0  0  0  0
 18 20  1  0  0  0  0
 18 21  2  0  0  0  0
 20 22  1  0  0  0  0
 20 23  2  0  0  0  0
 21 52  1  0  0  0  0
 22 24  2  0  0  0  0
 23 27  1  0  0  0  0
 23 54  1  0  0  0  0
 24 28  1  0  0  0  0
 24 55  1  0  0  0  0
 25 29  1  0  0  0  0
 25 56  1  0  0  0  0
 25 57  1  0  0  0  0
 26 58  1  0  0  0  0
 26 59  1  0  0  0  0
 26 60  1  0  0  0  0
 27 28  2  0  0  0  0
 27 61  1  0  0  0  0
 28 62  1  0  0  0  0
 29 30  2  0  0  0  0
 29 31  1  0  0  0  0
 30 32  1  0  0  0  0
 30 63  1  0  0  0  0
 31 33  2  0  0  0  0
 31 64  1  0  0  0  0
 32 34  2  0  0  0  0
 32 65  1  0  0  0  0
 33 34  1  0  0  0  0
 33 66  1  0  0  0  0
 34 67  1  0  0  0  0
M  END
> <PUBCHEM_COMPOUND_CID>
45360675

> <PUBCHEM_CONFORMER_RMSD>
1.2

> <PUBCHEM_CONFORMER_DIVERSEORDER>
1
62
25
203
18
81
211
74
107
204
195
173
146
196
52
105
22
165
212
6
209
86
56
202
83
147
31
178
28
122
91
207
41
157
45
120
190
89
44
162
7
125
67
206
13
137
199
205
19
77
100
153
187
46
168
36
70
213
145
155
97
177
149
106
103
131
208
179
121
24
200
158
110
58
35
71
151
51
201
181
124
109
210
128
43
172
197
102
73
12
90
143
160
182
111
136
169
154
101
79
118
198
161
144
113
39
92
2
54
135
184
189
76
55
191
63
108
138
194
64
119
164
34
176
53
15
142
150
26
148
174
29
139
37
192
49
8
87
78
132
65
69
84
5
170
61
156
140
186
10
183
152
40
130
14
85
42
141
163
185
171
47
127
123
20
115
66
16
72
99
60
50
94
167
129
30
93
175
32
23
9
75
112
98
104
11
116
48
3
166
88
95
188
134
33
57
96
4
17
21
180
82
27
68
38
126
114
193
80
117
133
59
159

> <PUBCHEM_MMFF94_PARTIAL_CHARGES>
44
1 -0.57
11 0.27
12 0.27
13 0.3
14 0.57
16 0.06
17 0.45
18 -0.18
19 0.57
2 -0.57
21 -0.3
22 -0.15
23 -0.15
24 -0.15
25 0.44
26 0.26
27 -0.15
28 -0.15
29 -0.14
3 -0.81
30 -0.15
31 -0.15
32 -0.15
33 -0.15
34 -0.15
4 -0.9
46 0.36
47 0.37
5 -0.73
52 0.15
53 0.37
54 0.15
55 0.15
6 0.05
61 0.15
62 0.15
63 0.15
64 0.15
65 0.15
66 0.15
67 0.15
7 -0.73
8 0.33
9 0.27

> <PUBCHEM_EFFECTIVE_ROTOR_COUNT>
10.2

> <PUBCHEM_PHARMACOPHORE_FEATURES>
13
1 1 acceptor
1 2 acceptor
1 3 cation
1 4 cation
1 4 donor
1 5 donor
1 6 cation
1 7 donor
5 3 8 9 10 12 rings
5 6 18 20 21 22 rings
6 20 22 23 24 27 28 rings
6 29 30 31 32 33 34 rings
6 3 5 8 11 13 14 rings

> <PUBCHEM_HEAVY_ATOM_COUNT>
34

> <PUBCHEM_ATOM_DEF_STEREO_COUNT>
3

> <PUBCHEM_ATOM_UDEF_STEREO_COUNT>
0

> <PUBCHEM_BOND_DEF_STEREO_COUNT>
0

> <PUBCHEM_BOND_UDEF_STEREO_COUNT>
0

> <PUBCHEM_ISOTOPIC_ATOM_COUNT>
0

> <PUBCHEM_COMPONENT_COUNT>
1

> <PUBCHEM_CACTVS_TAUTO_COUNT>
6

> <PUBCHEM_CONFORMER_ID>
02B4262300000001

> <PUBCHEM_MMFF94_ENERGY>
66.9107

> <PUBCHEM_FEATURE_SELFOVERLAP>
66.253

> <PUBCHEM_SHAPE_FINGERPRINT>
10554248 39 17968385568085836982
10577160 103 18043248157028839092
10577160 183 16950554451165650730
11007060 377 17458059357149035763
12373685 5 18114168754003220426
12422481 6 8935002594057480312
12655364 131 13046760436385451769
12988421 55 13840547282013535365
13692115 27 15982546784360839070
14068700 675 16916783041216658899
14400156 147 16983204693322541703
14932701 244 18413392029833869789
15183329 4 17676482826659402334
15461852 350 18202568367831618788
20101258 96 13686292453134391507
22889206 1 8645953086181571805
2838139 119 18189057491007703340
3117164 225 8214136369670792863
3383291 50 16588025744807928627
4015057 19 18410858771975890968
4098825 35 18411979161043423741
4938544 92 11242262844031969541
497634 4 16630259059734714192
504579 68 18343029926050133758
6086070 43 16443344321150035404
70634741 139 17988921193031654326

> <PUBCHEM_SHAPE_MULTIPOLES>
663.06
21.24
3.42
2.52
33.26
0.73
1.62
-2.22
-11.59
-1.91
-0.03
-4.81
-0.45
-1.78

> <PUBCHEM_SHAPE_SELFOVERLAP>
1428.995

> <PUBCHEM_SHAPE_VOLUME>
365.7

> <PUBCHEM_COORDINATE_TYPE>
2
5
10

$$$$
