45784326
  -OEChem-12032416383D

 44 47  0     1  0  0  0  0  0999 V2000
   -2.0414   -0.2482   -0.1603 N   0  0  1  0  0  0  0  0  0  0  0  0
    2.6167   -1.2456    0.3560 N   0  0  0  0  0  0  0  0  0  0  0  0
    2.0288    0.8775    0.0615 N   0  0  0  0  0  0  0  0  0  0  0  0
    8.5854   -0.6568   -0.2125 N   0  0  0  0  0  0  0  0  0  0  0  0
    0.1555   -0.7679    0.4744 C   0  0  1  0  0  0  0  0  0  0  0  0
   -0.5744   -0.0949    1.6499 C   0  0  0  0  0  0  0  0  0  0  0  0
   -0.7187   -0.4653   -0.7500 C   0  0  0  0  0  0  0  0  0  0  0  0
   -1.7952    0.5699    1.0271 C   0  0  0  0  0  0  0  0  0  0  0  0
    1.5936   -0.3410    0.2917 C   0  0  0  0  0  0  0  0  0  0  0  0
   -2.9658    0.3863   -1.0884 C   0  0  0  0  0  0  0  0  0  0  0  0
   -4.3985    0.2135   -0.6589 C   0  0  0  0  0  0  0  0  0  0  0  0
    3.7901   -0.5656    0.1535 C   0  0  0  0  0  0  0  0  0  0  0  0
    3.3966    0.7573   -0.0277 C   0  0  0  0  0  0  0  0  0  0  0  0
   -5.0403   -1.0104   -0.8482 C   0  0  0  0  0  0  0  0  0  0  0  0
   -5.0847    1.2780   -0.0745 C   0  0  0  0  0  0  0  0  0  0  0  0
    5.1214   -0.9814    0.1146 C   0  0  0  0  0  0  0  0  0  0  0  0
    4.3759    1.7371   -0.2628 C   0  0  0  0  0  0  0  0  0  0  0  0
   -6.3684   -1.1698   -0.4531 C   0  0  0  0  0  0  0  0  0  0  0  0
   -6.4129    1.1186    0.3206 C   0  0  0  0  0  0  0  0  0  0  0  0
    6.0830    0.0068   -0.1205 C   0  0  0  0  0  0  0  0  0  0  0  0
   -7.0548   -0.1053    0.1315 C   0  0  0  0  0  0  0  0  0  0  0  0
    5.7190    1.3425   -0.3060 C   0  0  0  0  0  0  0  0  0  0  0  0
   -8.4752   -0.2760    0.5533 C   0  0  0  0  0  0  0  0  0  0  0  0
    7.4644   -0.3595   -0.1713 C   0  0  0  0  0  0  0  0  0  0  0  0
    0.1345   -1.8527    0.6541 H   0  0  0  0  0  0  0  0  0  0  0  0
   -0.8887   -0.8611    2.3697 H   0  0  0  0  0  0  0  0  0  0  0  0
    0.0442    0.6316    2.1875 H   0  0  0  0  0  0  0  0  0  0  0  0
   -0.7207   -1.3049   -1.4538 H   0  0  0  0  0  0  0  0  0  0  0  0
   -0.3663    0.4282   -1.2825 H   0  0  0  0  0  0  0  0  0  0  0  0
   -1.5555    1.6091    0.7672 H   0  0  0  0  0  0  0  0  0  0  0  0
   -2.6399    0.5685    1.7230 H   0  0  0  0  0  0  0  0  0  0  0  0
   -2.7285    1.4469   -1.2484 H   0  0  0  0  0  0  0  0  0  0  0  0
   -2.8753   -0.0794   -2.0801 H   0  0  0  0  0  0  0  0  0  0  0  0
    2.5281   -2.2392    0.5226 H   0  0  0  0  0  0  0  0  0  0  0  0
   -4.5163   -1.8472   -1.3025 H   0  0  0  0  0  0  0  0  0  0  0  0
   -4.5958    2.2362    0.0799 H   0  0  0  0  0  0  0  0  0  0  0  0
    5.3879   -2.0232    0.2608 H   0  0  0  0  0  0  0  0  0  0  0  0
    4.1031    2.7774   -0.4082 H   0  0  0  0  0  0  0  0  0  0  0  0
   -6.8571   -2.1286   -0.6043 H   0  0  0  0  0  0  0  0  0  0  0  0
   -6.9364    1.9548    0.7766 H   0  0  0  0  0  0  0  0  0  0  0  0
    6.4780    2.1011   -0.4880 H   0  0  0  0  0  0  0  0  0  0  0  0
   -8.9942   -0.9955   -0.0892 H   0  0  0  0  0  0  0  0  0  0  0  0
   -9.0244    0.6692    0.4841 H   0  0  0  0  0  0  0  0  0  0  0  0
   -8.5197   -0.6326    1.5871 H   0  0  0  0  0  0  0  0  0  0  0  0
  1  7  1  0  0  0  0
  1  8  1  0  0  0  0
  1 10  1  0  0  0  0
  2  9  1  0  0  0  0
  2 12  1  0  0  0  0
  2 34  1  0  0  0  0
  3  9  2  0  0  0  0
  3 13  1  0  0  0  0
  4 24  3  0  0  0  0
  5  6  1  0  0  0  0
  5  7  1  0  0  0  0
  5  9  1  0  0  0  0
  5 25  1  0  0  0  0
  6  8  1  0  0  0  0
  6 26  1  0  0  0  0
  6 27  1  0  0  0  0
  7 28  1  0  0  0  0
  7 29  1  0  0  0  0
  8 30  1  0  0  0  0
  8 31  1  0  0  0  0
 10 11  1  0  0  0  0
 10 32  1  0  0  0  0
 10 33  1  0  0  0  0
 11 14  2  0  0  0  0
 11 15  1  0  0  0  0
 12 13  2  0  0  0  0
 12 16  1  0  0  0  0
 13 17  1  0  0  0  0
 14 18  1  0  0  0  0
 14 35  1  0  0  0  0
 15 19  2  0  0  0  0
 15 36  1  0  0  0  0
 16 20  2  0  0  0  0
 16 37  1  0  0  0  0
 17 22  2  0  0  0  0
 17 38  1  0  0  0  0
 18 21  2  0  0  0  0
 18 39  1  0  0  0  0
 19 21  1  0  0  0  0
 19 40  1  0  0  0  0
 20 22  1  0  0  0  0
 20 24  1  0  0  0  0
 21 23  1  0  0  0  0
 22 41  1  0  0  0  0
 23 42  1  0  0  0  0
 23 43  1  0  0  0  0
 23 44  1  0  0  0  0
M  END
> <PUBCHEM_COMPOUND_CID>
45784326

> <PUBCHEM_CONFORMER_RMSD>
0.8

> <PUBCHEM_CONFORMER_DIVERSEORDER>
1
28
4
31
35
14
37
41
42
24
27
17
30
38
40
29
26
36
6
34
8
44
15
16
43
19
11
32
12
5
2
10
39
7
13
20
25
33
23
3
22
18
9
21

> <PUBCHEM_MMFF94_PARTIAL_CHARGES>
31
1 -0.81
10 0.41
11 -0.14
12 -0.15
13 0.23
14 -0.15
15 -0.15
16 -0.15
17 -0.15
18 -0.15
19 -0.15
2 0.03
20 0.07
21 -0.14
22 -0.15
23 0.14
24 0.48
3 -0.57
34 0.27
35 0.15
36 0.15
37 0.15
38 0.15
39 0.15
4 -0.56
40 0.15
41 0.15
5 0.18
7 0.27
8 0.27
9 0.01

> <PUBCHEM_EFFECTIVE_ROTOR_COUNT>
4

> <PUBCHEM_PHARMACOPHORE_FEATURES>
8
1 1 cation
1 2 donor
1 4 acceptor
3 2 3 9 cation
5 1 5 6 7 8 rings
5 2 3 9 12 13 rings
6 11 14 15 18 19 21 rings
6 12 13 16 17 20 22 rings

> <PUBCHEM_HEAVY_ATOM_COUNT>
24

> <PUBCHEM_ATOM_DEF_STEREO_COUNT>
1

> <PUBCHEM_ATOM_UDEF_STEREO_COUNT>
0

> <PUBCHEM_BOND_DEF_STEREO_COUNT>
0

> <PUBCHEM_BOND_UDEF_STEREO_COUNT>
0

> <PUBCHEM_ISOTOPIC_ATOM_COUNT>
0

> <PUBCHEM_COMPONENT_COUNT>
1

> <PUBCHEM_CACTVS_TAUTO_COUNT>
2

> <PUBCHEM_CONFORMER_ID>
02BA9D0600000001

> <PUBCHEM_MMFF94_ENERGY>
47.9144

> <PUBCHEM_FEATURE_SELFOVERLAP>
40.704

> <PUBCHEM_SHAPE_FINGERPRINT>
10 15 13479134609674078572
10066227 49 17845941711059663614
10299344 5 18343301474972450143
10595046 47 18410290294525516793
106641 1 12829495856594117212
11315181 36 10953458519106389951
11408170 108 17631175192045047454
11524674 6 15841549704635869535
11646440 116 16950286199929065973
12166972 35 18408041831554105412
12236239 1 18273494580682561812
12643181 29 14764623123040180549
12730499 353 17822290167441002506
12838862 33 12391508633906671644
13533116 47 17095793327197513082
13668630 136 18060423500076438486
14123256 10 16773799190428639563
14251752 14 17704071789560819609
14251764 18 17675920985097115730
14251764 46 13830131689703461446
14294032 229 17130164017384673377
14849402 71 18189341323921953765
14856354 85 17917713531079396703
14933364 13 18410856560077788997
15183329 4 18410287004031948269
15419008 47 16008741429416970709
15461852 350 14562536202112983939
15537594 2 16128653046529259295
17093844 174 13254795746759714615
18006028 8 12535628271405252371
18335252 98 18410016529094698011
19489759 90 10665225943846994007
21033648 29 17677612133192592736
21095086 128 18408321099323288071
21150785 3 18410012135311102778
21267235 1 18411139121818427620
21315763 28 18411699893706478085
21792961 116 17703791380110401761
22224240 67 9583515413435317676
23035841 295 17988924483599088599
23198884 109 18409167718997246897
23536379 177 18413106152220099337
23569943 247 17170101535026924955
23622692 88 14418136227150125166
249057 3 18411980286293349622
2747138 104 17095530612791516029
29717793 49 17918279749360648252
3004659 81 18343861121990279056
314173 85 14333129689156640643
335352 9 18333736815339017294
3545911 37 17894629257887954286
4073 2 18041283278510979074
4325135 7 18408885140256061175
4339292 15 16343126048924720959
5283156 175 17346884429672199782
5758199 1 17676488337302318827
59682541 35 16298110912763923961
59755656 520 17676482873724837778
8209 1 18410573985156745398
9663363 56 15482669065625780875

> <PUBCHEM_SHAPE_MULTIPOLES>
473.98
24.61
1.29
0.95
1.3
0.25
-0.14
-1.17
1.5
-0.37
0.07
0.67
-0.01
-0.54

> <PUBCHEM_SHAPE_SELFOVERLAP>
1037.983

> <PUBCHEM_SHAPE_VOLUME>
256.1

> <PUBCHEM_COORDINATE_TYPE>
2
5
10

$$$$
