38027741
  -OEChem-12032416243D

 67 68  0     1  0  0  0  0  0999 V2000
    0.4375   -3.4049    0.8137 O   0  0  0  0  0  0  0  0  0  0  0  0
   -1.5481    3.4715   -0.4285 O   0  0  0  0  0  0  0  0  0  0  0  0
    5.2427    0.9253   -1.6108 O   0  0  0  0  0  0  0  0  0  0  0  0
   -3.1720    1.8602   -0.0200 N   0  0  0  0  0  0  0  0  0  0  0  0
    0.7996   -1.5505    2.1667 N   0  0  0  0  0  0  0  0  0  0  0  0
   -2.2340    3.0265    1.7430 N   0  0  0  0  0  0  0  0  0  0  0  0
   -1.5828   -0.3108   -1.3634 C   0  0  1  0  0  0  0  0  0  0  0  0
   -3.0899   -0.0193   -1.5722 C   0  0  1  0  0  0  0  0  0  0  0  0
   -1.3532   -1.8133   -1.1396 C   0  0  0  0  0  0  0  0  0  0  0  0
   -2.1270   -2.3454    0.0814 C   0  0  2  0  0  0  0  0  0  0  0  0
   -0.7406    0.1717   -2.5486 C   0  0  0  0  0  0  0  0  0  0  0  0
   -3.5667   -1.8729    0.0852 C   0  0  0  0  0  0  0  0  0  0  0  0
   -3.9813   -0.8404   -0.6703 C   0  0  0  0  0  0  0  0  0  0  0  0
   -3.3976    1.4696   -1.3763 C   0  0  0  0  0  0  0  0  0  0  0  0
   -1.4222   -1.9683    1.3892 C   0  0  0  0  0  0  0  0  0  0  0  0
    0.6958    0.4358   -2.1082 C   0  0  0  0  0  0  0  0  0  0  0  0
   -0.7803   -0.8501   -3.6804 C   0  0  0  0  0  0  0  0  0  0  0  0
   -4.5301   -2.6440    0.9440 C   0  0  0  0  0  0  0  0  0  0  0  0
    0.0236   -2.4109    1.4039 C   0  0  0  0  0  0  0  0  0  0  0  0
   -2.2522    2.8450    0.3624 C   0  0  0  0  0  0  0  0  0  0  0  0
    2.2203   -1.7302    2.3589 C   0  0  0  0  0  0  0  0  0  0  0  0
    3.0236   -1.0251    1.3046 C   0  0  0  0  0  0  0  0  0  0  0  0
   -1.3720    3.9841    2.3950 C   0  0  0  0  0  0  0  0  0  0  0  0
    3.8860   -1.7506    0.4825 C   0  0  0  0  0  0  0  0  0  0  0  0
    2.9071    0.3559    1.1468 C   0  0  0  0  0  0  0  0  0  0  0  0
    0.0380    3.4508    2.5423 C   0  0  0  0  0  0  0  0  0  0  0  0
    4.6319   -1.0952   -0.4969 C   0  0  0  0  0  0  0  0  0  0  0  0
    3.6531    1.0115    0.1675 C   0  0  0  0  0  0  0  0  0  0  0  0
    4.5155    0.2859   -0.6544 C   0  0  0  0  0  0  0  0  0  0  0  0
    5.0753    2.3383   -1.7173 C   0  0  0  0  0  0  0  0  0  0  0  0
   -1.2414    0.2146   -0.4630 H   0  0  0  0  0  0  0  0  0  0  0  0
   -3.3743   -0.2777   -2.6000 H   0  0  0  0  0  0  0  0  0  0  0  0
   -0.2873   -2.0444   -1.0794 H   0  0  0  0  0  0  0  0  0  0  0  0
   -1.7361   -2.3859   -1.9952 H   0  0  0  0  0  0  0  0  0  0  0  0
   -2.1283   -3.4412   -0.0050 H   0  0  0  0  0  0  0  0  0  0  0  0
   -1.1309    1.1192   -2.9338 H   0  0  0  0  0  0  0  0  0  0  0  0
   -5.0367   -0.5749   -0.6635 H   0  0  0  0  0  0  0  0  0  0  0  0
   -4.4555    1.6677   -1.5875 H   0  0  0  0  0  0  0  0  0  0  0  0
   -2.8206    2.1001   -2.0581 H   0  0  0  0  0  0  0  0  0  0  0  0
   -1.9083   -2.4560    2.2430 H   0  0  0  0  0  0  0  0  0  0  0  0
   -1.4905   -0.8871    1.5609 H   0  0  0  0  0  0  0  0  0  0  0  0
    0.7275    1.1919   -1.3165 H   0  0  0  0  0  0  0  0  0  0  0  0
    1.1893   -0.4674   -1.7367 H   0  0  0  0  0  0  0  0  0  0  0  0
    1.2907    0.8139   -2.9468 H   0  0  0  0  0  0  0  0  0  0  0  0
   -0.1949   -1.7510   -3.4685 H   0  0  0  0  0  0  0  0  0  0  0  0
   -1.7995   -1.1377   -3.9548 H   0  0  0  0  0  0  0  0  0  0  0  0
   -0.3313   -0.4086   -4.5788 H   0  0  0  0  0  0  0  0  0  0  0  0
   -4.5146   -3.7049    0.6739 H   0  0  0  0  0  0  0  0  0  0  0  0
   -5.5601   -2.2900    0.8285 H   0  0  0  0  0  0  0  0  0  0  0  0
   -4.2667   -2.5493    2.0016 H   0  0  0  0  0  0  0  0  0  0  0  0
   -3.7534    1.4513    0.7052 H   0  0  0  0  0  0  0  0  0  0  0  0
    0.3656   -0.7494    2.6160 H   0  0  0  0  0  0  0  0  0  0  0  0
    2.4409   -2.8035    2.3731 H   0  0  0  0  0  0  0  0  0  0  0  0
    2.4769   -1.3288    3.3458 H   0  0  0  0  0  0  0  0  0  0  0  0
   -2.8420    2.4521    2.3188 H   0  0  0  0  0  0  0  0  0  0  0  0
   -1.3652    4.9100    1.8104 H   0  0  0  0  0  0  0  0  0  0  0  0
   -1.8030    4.1984    3.3778 H   0  0  0  0  0  0  0  0  0  0  0  0
    3.9862   -2.8270    0.5928 H   0  0  0  0  0  0  0  0  0  0  0  0
    2.2410    0.9333    1.7826 H   0  0  0  0  0  0  0  0  0  0  0  0
    0.0459    2.5179    3.1160 H   0  0  0  0  0  0  0  0  0  0  0  0
    0.4899    3.2429    1.5668 H   0  0  0  0  0  0  0  0  0  0  0  0
    0.6691    4.1782    3.0617 H   0  0  0  0  0  0  0  0  0  0  0  0
    5.3015   -1.6657   -1.1348 H   0  0  0  0  0  0  0  0  0  0  0  0
    3.5136    2.0850    0.0990 H   0  0  0  0  0  0  0  0  0  0  0  0
    5.7279    2.6811   -2.5269 H   0  0  0  0  0  0  0  0  0  0  0  0
    5.3995    2.8518   -0.8058 H   0  0  0  0  0  0  0  0  0  0  0  0
    4.0502    2.6014   -1.9998 H   0  0  0  0  0  0  0  0  0  0  0  0
  1 19  2  0  0  0  0
  2 20  2  0  0  0  0
  3 29  1  0  0  0  0
  3 30  1  0  0  0  0
  4 14  1  0  0  0  0
  4 20  1  0  0  0  0
  4 51  1  0  0  0  0
  5 19  1  0  0  0  0
  5 21  1  0  0  0  0
  5 52  1  0  0  0  0
  6 20  1  0  0  0  0
  6 23  1  0  0  0  0
  6 55  1  0  0  0  0
  7  8  1  0  0  0  0
  7  9  1  0  0  0  0
  7 11  1  0  0  0  0
  7 31  1  0  0  0  0
  8 13  1  0  0  0  0
  8 14  1  0  0  0  0
  8 32  1  0  0  0  0
  9 10  1  0  0  0  0
  9 33  1  0  0  0  0
  9 34  1  0  0  0  0
 10 12  1  0  0  0  0
 10 15  1  0  0  0  0
 10 35  1  0  0  0  0
 11 16  1  0  0  0  0
 11 17  1  0  0  0  0
 11 36  1  0  0  0  0
 12 13  2  0  0  0  0
 12 18  1  0  0  0  0
 13 37  1  0  0  0  0
 14 38  1  0  0  0  0
 14 39  1  0  0  0  0
 15 19  1  0  0  0  0
 15 40  1  0  0  0  0
 15 41  1  0  0  0  0
 16 42  1  0  0  0  0
 16 43  1  0  0  0  0
 16 44  1  0  0  0  0
 17 45  1  0  0  0  0
 17 46  1  0  0  0  0
 17 47  1  0  0  0  0
 18 48  1  0  0  0  0
 18 49  1  0  0  0  0
 18 50  1  0  0  0  0
 21 22  1  0  0  0  0
 21 53  1  0  0  0  0
 21 54  1  0  0  0  0
 22 24  2  0  0  0  0
 22 25  1  0  0  0  0
 23 26  1  0  0  0  0
 23 56  1  0  0  0  0
 23 57  1  0  0  0  0
 24 27  1  0  0  0  0
 24 58  1  0  0  0  0
 25 28  2  0  0  0  0
 25 59  1  0  0  0  0
 26 60  1  0  0  0  0
 26 61  1  0  0  0  0
 26 62  1  0  0  0  0
 27 29  2  0  0  0  0
 27 63  1  0  0  0  0
 28 29  1  0  0  0  0
 28 64  1  0  0  0  0
 30 65  1  0  0  0  0
 30 66  1  0  0  0  0
 30 67  1  0  0  0  0
M  END
> <PUBCHEM_COMPOUND_CID>
38027741

> <PUBCHEM_CONFORMER_RMSD>
1.2

> <PUBCHEM_CONFORMER_DIVERSEORDER>
1
37
9
39
41
46
28
26
33
55
21
53
36
56
15
24
5
40
50
52
57
59
58
48
29
54
32
27
31
34
11
23
30
13
10
42
8
18
12
17
49
7
47
51
38
25
22
3
2
14
35
16
4
44
20
19
6
43
45

> <PUBCHEM_MMFF94_PARTIAL_CHARGES>
32
1 -0.57
10 0.14
12 -0.28
13 -0.29
14 0.3
15 0.06
18 0.14
19 0.57
2 -0.57
20 0.69
21 0.44
22 -0.14
23 0.3
24 -0.15
25 -0.15
27 -0.15
28 -0.15
29 0.08
3 -0.36
30 0.28
37 0.15
4 -0.73
5 -0.73
51 0.37
52 0.37
55 0.37
58 0.15
59 0.15
6 -0.73
63 0.15
64 0.15
8 0.14

> <PUBCHEM_EFFECTIVE_ROTOR_COUNT>
12.8

> <PUBCHEM_PHARMACOPHORE_FEATURES>
9
1 1 acceptor
1 2 acceptor
1 3 acceptor
1 4 donor
1 5 donor
1 6 donor
3 11 16 17 hydrophobe
6 22 24 25 27 28 29 rings
6 7 8 9 10 12 13 rings

> <PUBCHEM_HEAVY_ATOM_COUNT>
30

> <PUBCHEM_ATOM_DEF_STEREO_COUNT>
3

> <PUBCHEM_ATOM_UDEF_STEREO_COUNT>
0

> <PUBCHEM_BOND_DEF_STEREO_COUNT>
0

> <PUBCHEM_BOND_UDEF_STEREO_COUNT>
0

> <PUBCHEM_ISOTOPIC_ATOM_COUNT>
0

> <PUBCHEM_COMPONENT_COUNT>
1

> <PUBCHEM_CACTVS_TAUTO_COUNT>
6

> <PUBCHEM_CONFORMER_ID>
024441DD00000001

> <PUBCHEM_MMFF94_ENERGY>
60.8107

> <PUBCHEM_FEATURE_SELFOVERLAP>
45.719

> <PUBCHEM_SHAPE_FINGERPRINT>
10498660 4 17023168445015602286
10708813 3 17967249775877385054
11578080 2 17129892460088470747
12156800 1 17399015578368781193
12539773 59 17694743416941474101
12788726 201 18342181080744156792
14279260 333 18196652900817369954
14840074 17 16515692138633196590
15664445 248 16763603543711455879
15721738 202 17750524046894663169
16067690 210 18201168671828266836
20764821 26 17256505939210190456
21623110 236 17531243971890652727
21987440 362 15616356198151442520
3459 83 18048876295971198554
3493558 16 16623214239865074070
35225 105 18197763436676317245
469060 322 15937271030227527408
50150288 127 17407735874020113840
5081480 168 17560239265998973392

> <PUBCHEM_SHAPE_MULTIPOLES>
584.83
9.11
4.56
3.07
8.97
4.14
-0.97
-0.55
-2.59
-2.88
3.68
0.19
0.73
-1.46

> <PUBCHEM_SHAPE_SELFOVERLAP>
1191.176

> <PUBCHEM_SHAPE_VOLUME>
338.4

> <PUBCHEM_COORDINATE_TYPE>
2
5
10

$$$$
