51137819
  -OEChem-12032416223D

 50 53  0     1  0  0  0  0  0999 V2000
   -2.1390   -1.1931    0.1876 O   0  0  0  0  0  0  0  0  0  0  0  0
    1.9370   -1.0603    2.1281 O   0  0  0  0  0  0  0  0  0  0  0  0
    4.0936    0.4993   -2.1969 O   0  0  0  0  0  0  0  0  0  0  0  0
    0.9173   -2.1303    0.3719 N   0  0  0  0  0  0  0  0  0  0  0  0
   -3.5195   -2.8731   -0.3381 N   0  0  0  0  0  0  0  0  0  0  0  0
    2.6628   -0.6301   -0.0472 N   0  0  0  0  0  0  0  0  0  0  0  0
   -4.2342   -1.6924   -0.4164 N   0  0  0  0  0  0  0  0  0  0  0  0
   -1.0850   -3.4096    0.2580 C   0  0  1  0  0  0  0  0  0  0  0  0
   -0.2744   -3.6157   -1.0300 C   0  0  0  0  0  0  0  0  0  0  0  0
   -0.0213   -2.8610    1.2168 C   0  0  0  0  0  0  0  0  0  0  0  0
    0.7105   -2.4524   -1.0381 C   0  0  0  0  0  0  0  0  0  0  0  0
   -2.3024   -2.5336    0.0172 C   0  0  0  0  0  0  0  0  0  0  0  0
    1.8608   -1.2485    0.9126 C   0  0  0  0  0  0  0  0  0  0  0  0
   -3.3890   -0.7389   -0.1015 C   0  0  0  0  0  0  0  0  0  0  0  0
    3.7040    0.3073    0.1632 C   0  0  0  0  0  0  0  0  0  0  0  0
   -3.5759    0.6805   -0.0172 C   0  0  0  0  0  0  0  0  0  0  0  0
    4.3981    0.8534   -0.9163 C   0  0  0  0  0  0  0  0  0  0  0  0
    4.0323    0.6832    1.4657 C   0  0  0  0  0  0  0  0  0  0  0  0
   -4.8239    1.2373   -0.2966 C   0  0  0  0  0  0  0  0  0  0  0  0
   -2.5100    1.5043    0.3447 C   0  0  0  0  0  0  0  0  0  0  0  0
   -5.0061    2.6177   -0.2145 C   0  0  0  0  0  0  0  0  0  0  0  0
   -2.6920    2.8848    0.4269 C   0  0  0  0  0  0  0  0  0  0  0  0
    5.4208    1.7755   -0.6933 C   0  0  0  0  0  0  0  0  0  0  0  0
   -3.9400    3.4415    0.1473 C   0  0  0  0  0  0  0  0  0  0  0  0
    5.0550    1.6052    1.6887 C   0  0  0  0  0  0  0  0  0  0  0  0
    5.7492    2.1514    0.6092 C   0  0  0  0  0  0  0  0  0  0  0  0
   -4.1348    4.9175    0.2348 C   0  0  0  0  0  0  0  0  0  0  0  0
    3.1060    1.2800   -2.8667 C   0  0  0  0  0  0  0  0  0  0  0  0
   -1.4620   -4.3692    0.6319 H   0  0  0  0  0  0  0  0  0  0  0  0
    0.2830   -4.5584   -0.9573 H   0  0  0  0  0  0  0  0  0  0  0  0
   -0.8791   -3.6520   -1.9414 H   0  0  0  0  0  0  0  0  0  0  0  0
   -0.4203   -2.2147    2.0050 H   0  0  0  0  0  0  0  0  0  0  0  0
    0.5415   -3.6766    1.6857 H   0  0  0  0  0  0  0  0  0  0  0  0
    0.2912   -1.5679   -1.5295 H   0  0  0  0  0  0  0  0  0  0  0  0
    1.6553   -2.7194   -1.5204 H   0  0  0  0  0  0  0  0  0  0  0  0
    2.4909   -0.8496   -1.0230 H   0  0  0  0  0  0  0  0  0  0  0  0
    3.5530    0.3081    2.3575 H   0  0  0  0  0  0  0  0  0  0  0  0
   -5.6689    0.6144   -0.5801 H   0  0  0  0  0  0  0  0  0  0  0  0
   -1.5231    1.1076    0.5700 H   0  0  0  0  0  0  0  0  0  0  0  0
   -5.9836    3.0396   -0.4329 H   0  0  0  0  0  0  0  0  0  0  0  0
   -1.8544    3.5163    0.7114 H   0  0  0  0  0  0  0  0  0  0  0  0
    5.9667    2.2046   -1.5292 H   0  0  0  0  0  0  0  0  0  0  0  0
    5.3129    1.8980    2.7024 H   0  0  0  0  0  0  0  0  0  0  0  0
    6.5458    2.8689    0.7829 H   0  0  0  0  0  0  0  0  0  0  0  0
   -4.8955    5.2585   -0.4758 H   0  0  0  0  0  0  0  0  0  0  0  0
   -3.2100    5.4532   -0.0050 H   0  0  0  0  0  0  0  0  0  0  0  0
   -4.4492    5.1956    1.2456 H   0  0  0  0  0  0  0  0  0  0  0  0
    2.1572    1.2609   -2.3211 H   0  0  0  0  0  0  0  0  0  0  0  0
    3.4504    2.3124   -2.9834 H   0  0  0  0  0  0  0  0  0  0  0  0
    2.9460    0.8508   -3.8596 H   0  0  0  0  0  0  0  0  0  0  0  0
  1 12  1  0  0  0  0
  1 14  1  0  0  0  0
  2 13  2  0  0  0  0
  3 17  1  0  0  0  0
  3 28  1  0  0  0  0
  4 10  1  0  0  0  0
  4 11  1  0  0  0  0
  4 13  1  0  0  0  0
  5  7  1  0  0  0  0
  5 12  2  0  0  0  0
  6 13  1  0  0  0  0
  6 15  1  0  0  0  0
  6 36  1  0  0  0  0
  7 14  2  0  0  0  0
  8  9  1  0  0  0  0
  8 10  1  0  0  0  0
  8 12  1  0  0  0  0
  8 29  1  0  0  0  0
  9 11  1  0  0  0  0
  9 30  1  0  0  0  0
  9 31  1  0  0  0  0
 10 32  1  0  0  0  0
 10 33  1  0  0  0  0
 11 34  1  0  0  0  0
 11 35  1  0  0  0  0
 14 16  1  0  0  0  0
 15 17  1  0  0  0  0
 15 18  2  0  0  0  0
 16 19  2  0  0  0  0
 16 20  1  0  0  0  0
 17 23  2  0  0  0  0
 18 25  1  0  0  0  0
 18 37  1  0  0  0  0
 19 21  1  0  0  0  0
 19 38  1  0  0  0  0
 20 22  2  0  0  0  0
 20 39  1  0  0  0  0
 21 24  2  0  0  0  0
 21 40  1  0  0  0  0
 22 24  1  0  0  0  0
 22 41  1  0  0  0  0
 23 26  1  0  0  0  0
 23 42  1  0  0  0  0
 24 27  1  0  0  0  0
 25 26  2  0  0  0  0
 25 43  1  0  0  0  0
 26 44  1  0  0  0  0
 27 45  1  0  0  0  0
 27 46  1  0  0  0  0
 27 47  1  0  0  0  0
 28 48  1  0  0  0  0
 28 49  1  0  0  0  0
 28 50  1  0  0  0  0
M  END
> <PUBCHEM_COMPOUND_CID>
51137819

> <PUBCHEM_CONFORMER_RMSD>
1

> <PUBCHEM_CONFORMER_DIVERSEORDER>
1
28
56
78
48
89
16
143
94
74
102
25
112
125
30
139
38
100
59
146
120
75
96
107
82
140
33
88
84
46
69
50
3
148
133
51
121
66
144
134
108
35
54
103
85
135
65
57
122
13
145
12
67
93
106
53
119
79
124
116
45
55
95
138
114
4
117
62
77
11
58
63
81
20
52
7
86
6
61
123
34
126
90
101
147
15
137
98
72
105
128
32
104
131
64
70
71
132
18
49
9
142
31
36
60
97
91
41
19
80
37
27
21
127
130
68
76
113
22
109
92
29
42
23
73
141
39
24
14
10
26
40
99
43
17
44
8
111
129
5
83
2
118
87
110
136
47
115

> <PUBCHEM_MMFF94_PARTIAL_CHARGES>
36
1 -0.28
10 0.3
11 0.3
12 0.3
13 0.69
14 0.43
15 0.12
16 0.05
17 0.08
18 -0.15
19 -0.15
2 -0.57
20 -0.15
21 -0.15
22 -0.15
23 -0.15
24 -0.14
25 -0.15
26 -0.15
27 0.14
28 0.28
3 -0.36
36 0.37
37 0.15
38 0.15
39 0.15
4 -0.66
40 0.15
41 0.15
42 0.15
43 0.15
44 0.15
5 -0.34
6 -0.55
7 -0.34
8 0.18

> <PUBCHEM_EFFECTIVE_ROTOR_COUNT>
7

> <PUBCHEM_PHARMACOPHORE_FEATURES>
7
1 2 acceptor
1 3 acceptor
1 6 donor
5 1 5 7 12 14 rings
5 4 8 9 10 11 rings
6 15 17 18 23 25 26 rings
6 16 19 20 21 22 24 rings

> <PUBCHEM_HEAVY_ATOM_COUNT>
28

> <PUBCHEM_ATOM_DEF_STEREO_COUNT>
1

> <PUBCHEM_ATOM_UDEF_STEREO_COUNT>
0

> <PUBCHEM_BOND_DEF_STEREO_COUNT>
0

> <PUBCHEM_BOND_UDEF_STEREO_COUNT>
0

> <PUBCHEM_ISOTOPIC_ATOM_COUNT>
0

> <PUBCHEM_COMPONENT_COUNT>
1

> <PUBCHEM_CACTVS_TAUTO_COUNT>
2

> <PUBCHEM_CONFORMER_ID>
030C4D1B00000001

> <PUBCHEM_MMFF94_ENERGY>
79.8973

> <PUBCHEM_FEATURE_SELFOVERLAP>
35.523

> <PUBCHEM_SHAPE_FINGERPRINT>
10498660 4 18343019986551486715
10615611 76 17676778668280119236
10670039 82 18336553793376447254
10871710 139 18340480153984612455
10937287 8 18338233744038145283
11059048 146 17914064087855690681
11059845 2 18122313880043284738
11135609 187 18264191540746348293
11434127 23 17775289352690068216
11513181 2 18201716236807791254
11720765 8 17341819920306674518
12107183 9 18190725450548045082
12422481 6 17241323556062089981
12788726 201 17901684969942578126
12978246 48 18334300893819531845
13617811 41 18335975424971331877
13965767 371 17970061136941694710
14251757 17 17846509153210486104
14251764 75 18197503926648025769
14468879 13 18263371304643850387
14739800 52 18266157600284373514
14790565 3 17981889636559646641
14932702 115 18130779045150072761
14950920 106 15719392875403827064
15163728 17 18411144601838325819
15198563 99 17984410004862360623
15297060 5 18271814496987816392
155225 5 18411697725017772752
15575132 122 18410293635957273667
16067690 210 17902773486654809872
161222 10 18196397886427528868
16988056 13 17331959421980447814
16992787 43 18341044131079133637
21033650 10 18118140267117031254
21302155 148 18408602556703372441
21792965 68 18268972328830623420
21859007 373 18201433727735030128
22122407 14 16008735935784468735
235170 7 17417821676868841126
23559900 14 17696185907804686823
241686 156 16970272834489568049
245318 6 18044670706474909045
38570 142 17241633730891013206
44249763 50 17414982845784731808
4756261 7 9363349089051846270
50150288 127 16521642837502355558
5048184 11 18338237046799625457
508706 21 18270677696311512504
5283173 99 18342740771371255936
53794403 172 17980198578916932317
550186 7 18200885092216530076
550186 72 18409728448906945165
57527585 21 18199445763092987599
5895379 119 18263375848867260788
6034566 193 18269004098518894785
6036956 94 18189335848049609021
6608658 132 18198324342710849631
6700243 42 17550986957540999718
7064713 232 18334011679364300364
7288768 16 18113057112849821075
7808743 9 18411695491581212875
9849439 229 18337951165413380825
9981440 41 18334576849937536027

> <PUBCHEM_SHAPE_MULTIPOLES>
538.69
12.94
5.56
1.63
6.33
0.44
-0.67
14.39
-0.29
-7.17
0.15
2.94
0.22
-0.52

> <PUBCHEM_SHAPE_SELFOVERLAP>
1168.343

> <PUBCHEM_SHAPE_VOLUME>
295.9

> <PUBCHEM_COORDINATE_TYPE>
2
5
10

$$$$
