11912395
  -OEChem-12032416253D

 54 56  0     1  0  0  0  0  0999 V2000
    7.3806   -1.3441   -0.7828 F   0  0  0  0  0  0  0  0  0  0  0  0
    6.8601   -0.9168    1.2789 F   0  0  0  0  0  0  0  0  0  0  0  0
    5.8537   -2.5258    0.2175 F   0  0  0  0  0  0  0  0  0  0  0  0
   -5.6011    0.6969    0.8920 O   0  0  0  0  0  0  0  0  0  0  0  0
    0.9831    2.8529   -0.2211 O   0  0  0  0  0  0  0  0  0  0  0  0
   -0.3484    1.3793    0.9616 N   0  0  0  0  0  0  0  0  0  0  0  0
   -6.2642   -1.1203   -0.3913 N   0  0  0  0  0  0  0  0  0  0  0  0
    1.9644    0.9783    0.7300 N   0  0  0  0  0  0  0  0  0  0  0  0
   -2.8893    0.0039    0.7968 C   0  0  1  0  0  0  0  0  0  0  0  0
   -1.5805   -0.7664    1.1154 C   0  0  2  0  0  0  0  0  0  0  0  0
   -2.6141    1.2993    0.0115 C   0  0  0  0  0  0  0  0  0  0  0  0
   -7.6703   -0.8349   -0.3774 C   0  0  0  0  0  0  0  0  0  0  0  0
   -0.5756    0.1840    1.7877 C   0  0  0  0  0  0  0  0  0  0  0  0
   -3.9294   -0.8529    0.0756 C   0  0  0  0  0  0  0  0  0  0  0  0
   -8.5756   -1.3443   -1.4604 C   0  0  0  0  0  0  0  0  0  0  0  0
   -8.2784    0.1231   -1.3592 C   0  0  0  0  0  0  0  0  0  0  0  0
   -1.5586    2.1609    0.7035 C   0  0  0  0  0  0  0  0  0  0  0  0
   -0.9437   -1.4464   -0.1020 C   0  0  0  0  0  0  0  0  0  0  0  0
   -5.3337   -0.3182    0.2543 C   0  0  0  0  0  0  0  0  0  0  0  0
    0.2731   -2.2547    0.2971 C   0  0  0  0  0  0  0  0  0  0  0  0
    0.8893    1.8197    0.4464 C   0  0  0  0  0  0  0  0  0  0  0  0
    3.1282    0.7770   -0.0528 C   0  0  0  0  0  0  0  0  0  0  0  0
    4.1160   -0.1078    0.3795 C   0  0  0  0  0  0  0  0  0  0  0  0
    3.2856    1.4642   -1.2563 C   0  0  0  0  0  0  0  0  0  0  0  0
    5.2614   -0.3052   -0.3918 C   0  0  0  0  0  0  0  0  0  0  0  0
    4.4309    1.2668   -2.0277 C   0  0  0  0  0  0  0  0  0  0  0  0
    5.4188    0.3821   -1.5953 C   0  0  0  0  0  0  0  0  0  0  0  0
    6.3178   -1.2506    0.0703 C   0  0  0  0  0  0  0  0  0  0  0  0
   -3.3039    0.3025    1.7711 H   0  0  0  0  0  0  0  0  0  0  0  0
   -1.8317   -1.5515    1.8424 H   0  0  0  0  0  0  0  0  0  0  0  0
   -2.2682    1.0533   -1.0004 H   0  0  0  0  0  0  0  0  0  0  0  0
   -3.5295    1.8894   -0.1047 H   0  0  0  0  0  0  0  0  0  0  0  0
   -8.0806   -0.8364    0.6279 H   0  0  0  0  0  0  0  0  0  0  0  0
    0.3378   -0.3341    2.0700 H   0  0  0  0  0  0  0  0  0  0  0  0
   -0.9996    0.5440    2.7348 H   0  0  0  0  0  0  0  0  0  0  0  0
   -3.7131   -0.9233   -0.9970 H   0  0  0  0  0  0  0  0  0  0  0  0
   -3.9223   -1.8700    0.4877 H   0  0  0  0  0  0  0  0  0  0  0  0
   -8.1378   -1.8898   -2.2873 H   0  0  0  0  0  0  0  0  0  0  0  0
   -9.5653   -1.6795   -1.1754 H   0  0  0  0  0  0  0  0  0  0  0  0
   -9.0672    0.7753   -1.0051 H   0  0  0  0  0  0  0  0  0  0  0  0
   -7.6405    0.5605   -2.1176 H   0  0  0  0  0  0  0  0  0  0  0  0
   -1.3398    3.0381    0.0870 H   0  0  0  0  0  0  0  0  0  0  0  0
   -1.9307    2.5250    1.6684 H   0  0  0  0  0  0  0  0  0  0  0  0
   -0.6623   -0.7197   -0.8718 H   0  0  0  0  0  0  0  0  0  0  0  0
   -1.6637   -2.1315   -0.5630 H   0  0  0  0  0  0  0  0  0  0  0  0
   -5.9551   -1.9490   -0.8926 H   0  0  0  0  0  0  0  0  0  0  0  0
    0.5860   -2.8843   -0.5433 H   0  0  0  0  0  0  0  0  0  0  0  0
    0.0574   -2.9182    1.1409 H   0  0  0  0  0  0  0  0  0  0  0  0
    1.1316   -1.6326    0.5526 H   0  0  0  0  0  0  0  0  0  0  0  0
    1.9352    0.4272    1.5797 H   0  0  0  0  0  0  0  0  0  0  0  0
    3.9963   -0.6460    1.3172 H   0  0  0  0  0  0  0  0  0  0  0  0
    2.5451    2.1419   -1.6615 H   0  0  0  0  0  0  0  0  0  0  0  0
    4.5512    1.7966   -2.9682 H   0  0  0  0  0  0  0  0  0  0  0  0
    6.3030    0.2407   -2.2106 H   0  0  0  0  0  0  0  0  0  0  0  0
  1 28  1  0  0  0  0
  2 28  1  0  0  0  0
  3 28  1  0  0  0  0
  4 19  2  0  0  0  0
  5 21  2  0  0  0  0
  6 13  1  0  0  0  0
  6 17  1  0  0  0  0
  6 21  1  0  0  0  0
  7 12  1  0  0  0  0
  7 19  1  0  0  0  0
  7 46  1  0  0  0  0
  8 21  1  0  0  0  0
  8 22  1  0  0  0  0
  8 50  1  0  0  0  0
  9 10  1  0  0  0  0
  9 11  1  0  0  0  0
  9 14  1  0  0  0  0
  9 29  1  0  0  0  0
 10 13  1  0  0  0  0
 10 18  1  0  0  0  0
 10 30  1  0  0  0  0
 11 17  1  0  0  0  0
 11 31  1  0  0  0  0
 11 32  1  0  0  0  0
 12 15  1  0  0  0  0
 12 16  1  0  0  0  0
 12 33  1  0  0  0  0
 13 34  1  0  0  0  0
 13 35  1  0  0  0  0
 14 19  1  0  0  0  0
 14 36  1  0  0  0  0
 14 37  1  0  0  0  0
 15 16  1  0  0  0  0
 15 38  1  0  0  0  0
 15 39  1  0  0  0  0
 16 40  1  0  0  0  0
 16 41  1  0  0  0  0
 17 42  1  0  0  0  0
 17 43  1  0  0  0  0
 18 20  1  0  0  0  0
 18 44  1  0  0  0  0
 18 45  1  0  0  0  0
 20 47  1  0  0  0  0
 20 48  1  0  0  0  0
 20 49  1  0  0  0  0
 22 23  1  0  0  0  0
 22 24  2  0  0  0  0
 23 25  2  0  0  0  0
 23 51  1  0  0  0  0
 24 26  1  0  0  0  0
 24 52  1  0  0  0  0
 25 27  1  0  0  0  0
 25 28  1  0  0  0  0
 26 27  2  0  0  0  0
 26 53  1  0  0  0  0
 27 54  1  0  0  0  0
M  END
> <PUBCHEM_COMPOUND_CID>
11912395

> <PUBCHEM_CONFORMER_RMSD>
1.2

> <PUBCHEM_CONFORMER_DIVERSEORDER>
1
106
92
64
16
96
104
11
86
137
82
132
131
95
50
109
33
119
112
70
136
77
114
118
17
80
87
76
30
129
67
130
107
126
52
115
111
36
62
44
49
117
63
122
120
9
138
110
97
85
125
15
83
93
48
88
98
134
123
94
68
25
133
72
10
41
20
46
55
100
21
102
73
108
91
19
14
34
23
99
124
43
103
84
89
13
29
69
101
47
6
128
53
121
60
28
127
38
90
57
42
139
40
135
116
79
35
5
71
105
45
58
59
12
66
24
22
26
54
2
78
113
18
61
37
4
32
39
51
27
65
56
74
75
31
3
8
7
81

> <PUBCHEM_MMFF94_PARTIAL_CHARGES>
34
1 -0.34
12 0.05
13 0.3
14 0.06
15 -0.2
16 -0.2
17 0.3
19 0.57
2 -0.34
21 0.69
22 0.12
23 -0.15
24 -0.15
25 -0.14
26 -0.15
27 -0.15
28 1.16
3 -0.34
33 0.1
38 0.1
39 0.1
4 -0.57
40 0.1
41 0.1
46 0.37
5 -0.57
50 0.37
51 0.15
52 0.15
53 0.15
54 0.15
6 -0.66
7 -0.58
8 -0.55

> <PUBCHEM_EFFECTIVE_ROTOR_COUNT>
10.8

> <PUBCHEM_PHARMACOPHORE_FEATURES>
7
1 20 hydrophobe
1 4 acceptor
1 5 acceptor
1 7 donor
1 8 donor
6 22 23 24 25 26 27 rings
6 6 9 10 11 13 17 rings

> <PUBCHEM_HEAVY_ATOM_COUNT>
28

> <PUBCHEM_ATOM_DEF_STEREO_COUNT>
2

> <PUBCHEM_ATOM_UDEF_STEREO_COUNT>
0

> <PUBCHEM_BOND_DEF_STEREO_COUNT>
0

> <PUBCHEM_BOND_UDEF_STEREO_COUNT>
0

> <PUBCHEM_ISOTOPIC_ATOM_COUNT>
0

> <PUBCHEM_COMPONENT_COUNT>
1

> <PUBCHEM_CACTVS_TAUTO_COUNT>
4

> <PUBCHEM_CONFORMER_ID>
00B5C4CB00000001

> <PUBCHEM_MMFF94_ENERGY>
63.0715

> <PUBCHEM_FEATURE_SELFOVERLAP>
35.52

> <PUBCHEM_SHAPE_FINGERPRINT>
10 15 10231758899049301853
106641 1 14405181785551942418
10670039 82 17240474781063414125
10693767 8 18201718440500572943
11386260 185 17603588568538933364
11578080 2 16879614987665164255
11991303 11 17968376874840745707
12838863 1 18411696544255057598
13177829 20 11887955462843944317
13862211 1 18343586248167364233
13914758 101 17749106652079073231
14068700 675 18131636681357584145
15183329 4 18113902658391727521
15188451 53 17560804329065650304
15326923 82 17967245404982799000
15706992 2 12540696973555592983
18335252 114 17676482874019658973
190975 80 12319733679219331013
20028762 73 17989209256530817735
20105231 36 18335422431390334811
2026 5 17346600781848688167
21033648 29 13623817197152870453
21315764 119 17313388949997782735
21344244 78 15626225727844320336
21637258 2 17418094338968571833
21781051 124 18261680384583690491
221357 26 17749106699081568820
22224240 67 10664101160283865277
23522609 53 18053137057430631313
23559900 14 18337394971116728712
23576562 1 16806735173873476375
3004659 81 18186526501672158776
335352 9 18410575106164529670
3633792 109 17822012008189489620
4093350 32 14273725232013082777
4098825 35 17822003165294653341
4340502 62 14117518736041527364
58260988 393 13254528538841961322
59682541 35 14908174266151857494
59682541 52 16298382436274718130
59755656 215 18410290320553958863
6138700 20 18410296886831058259
6438161 24 18273209824720056559
9689198 14 14779550093236308053
9862260 156 18272367594544495723

> <PUBCHEM_SHAPE_MULTIPOLES>
527.72
22.59
2.22
1.44
21.44
0.22
0.31
-11.05
10.5
-1.78
-0.06
-0.18
0.25
-1.58

> <PUBCHEM_SHAPE_SELFOVERLAP>
1096.881

> <PUBCHEM_SHAPE_VOLUME>
300.2

> <PUBCHEM_COORDINATE_TYPE>
2
5
10

$$$$
