45361418
  -OEChem-12032416363D

 74 76  0     1  0  0  0  0  0999 V2000
    0.6643   -1.8384   -1.7996 O   0  0  0  0  0  0  0  0  0  0  0  0
    4.9578   -1.5424    1.2789 O   0  0  0  0  0  0  0  0  0  0  0  0
   -5.0778    1.9535   -1.4167 O   0  0  0  0  0  0  0  0  0  0  0  0
    5.8261    1.3629    0.5416 O   0  0  0  0  0  0  0  0  0  0  0  0
   -4.2916   -0.0501   -0.5416 N   0  0  0  0  0  0  0  0  0  0  0  0
    5.1129   -1.0433   -0.9809 N   0  0  0  0  0  0  0  0  0  0  0  0
   -0.3868    0.1957    1.2554 C   0  0  1  0  0  0  0  0  0  0  0  0
   -0.4669   -0.3974   -0.1906 C   0  0  2  0  0  0  0  0  0  0  0  0
   -1.9347   -0.8408   -0.5324 C   0  0  1  0  0  0  0  0  0  0  0  0
    0.6281   -1.4792   -0.4177 C   0  0  2  0  0  0  0  0  0  0  0  0
    1.0430    0.7248    1.5176 C   0  0  0  0  0  0  0  0  0  0  0  0
   -1.3589    1.3932    1.3638 C   0  0  0  0  0  0  0  0  0  0  0  0
    2.0448   -0.9767   -0.0543 C   0  0  1  0  0  0  0  0  0  0  0  0
   -2.9144    0.3521   -0.3474 C   0  0  2  0  0  0  0  0  0  0  0  0
    2.1144   -0.3420    1.3346 C   0  0  0  0  0  0  0  0  0  0  0  0
   -2.7957    1.0297    1.0175 C   0  0  0  0  0  0  0  0  0  0  0  0
   -0.7392   -0.8477    2.3458 C   0  0  0  0  0  0  0  0  0  0  0  0
    3.0895   -2.0945   -0.1597 C   0  0  2  0  0  0  0  0  0  0  0  0
   -2.0915   -1.4082   -1.9534 C   0  0  0  0  0  0  0  0  0  0  0  0
    2.7284   -3.2406    0.7788 C   0  0  0  0  0  0  0  0  0  0  0  0
    4.4770   -1.5401    0.1476 C   0  0  0  0  0  0  0  0  0  0  0  0
   -5.2586    0.7904   -1.0622 C   0  0  0  0  0  0  0  0  0  0  0  0
   -6.6260    0.1333   -1.1574 C   0  0  0  0  0  0  0  0  0  0  0  0
   -7.4917    0.2545    0.1191 C   0  0  0  0  0  0  0  0  0  0  0  0
    6.4357   -0.4643   -0.9413 C   0  0  0  0  0  0  0  0  0  0  0  0
   -7.7295    1.7246    0.5011 C   0  0  0  0  0  0  0  0  0  0  0  0
   -8.8475   -0.4485   -0.0623 C   0  0  0  0  0  0  0  0  0  0  0  0
   -6.7374   -0.4328    1.2744 C   0  0  0  0  0  0  0  0  0  0  0  0
    6.3966    1.0059   -0.6391 C   0  0  0  0  0  0  0  0  0  0  0  0
    6.8296    2.1184   -1.3226 C   0  0  0  0  0  0  0  0  0  0  0  0
    6.5045    3.2303   -0.5095 C   0  0  0  0  0  0  0  0  0  0  0  0
    5.8957    2.7180    0.6127 C   0  0  0  0  0  0  0  0  0  0  0  0
   -0.2371    0.4188   -0.8943 H   0  0  0  0  0  0  0  0  0  0  0  0
   -2.2303   -1.6460    0.1521 H   0  0  0  0  0  0  0  0  0  0  0  0
    0.3405   -2.3706    0.1429 H   0  0  0  0  0  0  0  0  0  0  0  0
    1.2595    1.5572    0.8343 H   0  0  0  0  0  0  0  0  0  0  0  0
    1.1160    1.1365    2.5325 H   0  0  0  0  0  0  0  0  0  0  0  0
   -1.3308    1.8152    2.3765 H   0  0  0  0  0  0  0  0  0  0  0  0
   -1.0325    2.1954    0.6883 H   0  0  0  0  0  0  0  0  0  0  0  0
    2.3218   -0.1998   -0.7827 H   0  0  0  0  0  0  0  0  0  0  0  0
   -2.6797    1.1043   -1.1133 H   0  0  0  0  0  0  0  0  0  0  0  0
    2.0163   -1.0689    2.1430 H   0  0  0  0  0  0  0  0  0  0  0  0
    3.0797    0.1547    1.4842 H   0  0  0  0  0  0  0  0  0  0  0  0
   -3.4055    1.9424    1.0333 H   0  0  0  0  0  0  0  0  0  0  0  0
   -3.2186    0.3852    1.7977 H   0  0  0  0  0  0  0  0  0  0  0  0
   -0.0952   -1.7306    2.3041 H   0  0  0  0  0  0  0  0  0  0  0  0
   -0.6288   -0.4118    3.3457 H   0  0  0  0  0  0  0  0  0  0  0  0
   -1.7672   -1.2110    2.2695 H   0  0  0  0  0  0  0  0  0  0  0  0
    3.1040   -2.4958   -1.1814 H   0  0  0  0  0  0  0  0  0  0  0  0
   -1.6627   -0.7327   -2.7007 H   0  0  0  0  0  0  0  0  0  0  0  0
   -3.1419   -1.5690   -2.2165 H   0  0  0  0  0  0  0  0  0  0  0  0
   -1.6162   -2.3892   -2.0413 H   0  0  0  0  0  0  0  0  0  0  0  0
   -4.5547   -0.9849   -0.2445 H   0  0  0  0  0  0  0  0  0  0  0  0
    0.8692   -1.0393   -2.3142 H   0  0  0  0  0  0  0  0  0  0  0  0
    2.6548   -2.9598    1.8315 H   0  0  0  0  0  0  0  0  0  0  0  0
    3.5220   -3.9981    0.7358 H   0  0  0  0  0  0  0  0  0  0  0  0
    1.8124   -3.7586    0.4846 H   0  0  0  0  0  0  0  0  0  0  0  0
   -6.4925   -0.9228   -1.4267 H   0  0  0  0  0  0  0  0  0  0  0  0
   -7.1485    0.5949   -2.0055 H   0  0  0  0  0  0  0  0  0  0  0  0
    4.6283   -1.0555   -1.8737 H   0  0  0  0  0  0  0  0  0  0  0  0
    7.0360   -0.9774   -0.1823 H   0  0  0  0  0  0  0  0  0  0  0  0
    6.8970   -0.6371   -1.9189 H   0  0  0  0  0  0  0  0  0  0  0  0
   -8.2196    2.2657   -0.3159 H   0  0  0  0  0  0  0  0  0  0  0  0
   -8.3728    1.8031    1.3850 H   0  0  0  0  0  0  0  0  0  0  0  0
   -6.7940    2.2440    0.7343 H   0  0  0  0  0  0  0  0  0  0  0  0
   -9.4170    0.0078   -0.8795 H   0  0  0  0  0  0  0  0  0  0  0  0
   -8.7124   -1.5092   -0.3018 H   0  0  0  0  0  0  0  0  0  0  0  0
   -9.4569   -0.3855    0.8461 H   0  0  0  0  0  0  0  0  0  0  0  0
   -7.3716   -0.4881    2.1677 H   0  0  0  0  0  0  0  0  0  0  0  0
   -6.4558   -1.4598    1.0169 H   0  0  0  0  0  0  0  0  0  0  0  0
   -5.8383    0.1151    1.5720 H   0  0  0  0  0  0  0  0  0  0  0  0
    7.3186    2.1291   -2.2861 H   0  0  0  0  0  0  0  0  0  0  0  0
    6.6902    4.2744   -0.7156 H   0  0  0  0  0  0  0  0  0  0  0  0
    5.4775    3.1610    1.5047 H   0  0  0  0  0  0  0  0  0  0  0  0
  1 10  1  0  0  0  0
  1 54  1  0  0  0  0
  2 21  2  0  0  0  0
  3 22  2  0  0  0  0
  4 29  1  0  0  0  0
  4 32  1  0  0  0  0
  5 14  1  0  0  0  0
  5 22  1  0  0  0  0
  5 53  1  0  0  0  0
  6 21  1  0  0  0  0
  6 25  1  0  0  0  0
  6 60  1  0  0  0  0
  7  8  1  0  0  0  0
  7 11  1  0  0  0  0
  7 12  1  0  0  0  0
  7 17  1  0  0  0  0
  8  9  1  0  0  0  0
  8 10  1  0  0  0  0
  8 33  1  0  0  0  0
  9 14  1  0  0  0  0
  9 19  1  0  0  0  0
  9 34  1  0  0  0  0
 10 13  1  0  0  0  0
 10 35  1  0  0  0  0
 11 15  1  0  0  0  0
 11 36  1  0  0  0  0
 11 37  1  0  0  0  0
 12 16  1  0  0  0  0
 12 38  1  0  0  0  0
 12 39  1  0  0  0  0
 13 15  1  0  0  0  0
 13 18  1  0  0  0  0
 13 40  1  0  0  0  0
 14 16  1  0  0  0  0
 14 41  1  0  0  0  0
 15 42  1  0  0  0  0
 15 43  1  0  0  0  0
 16 44  1  0  0  0  0
 16 45  1  0  0  0  0
 17 46  1  0  0  0  0
 17 47  1  0  0  0  0
 17 48  1  0  0  0  0
 18 20  1  0  0  0  0
 18 21  1  0  0  0  0
 18 49  1  0  0  0  0
 19 50  1  0  0  0  0
 19 51  1  0  0  0  0
 19 52  1  0  0  0  0
 20 55  1  0  0  0  0
 20 56  1  0  0  0  0
 20 57  1  0  0  0  0
 22 23  1  0  0  0  0
 23 24  1  0  0  0  0
 23 58  1  0  0  0  0
 23 59  1  0  0  0  0
 24 26  1  0  0  0  0
 24 27  1  0  0  0  0
 24 28  1  0  0  0  0
 25 29  1  0  0  0  0
 25 61  1  0  0  0  0
 25 62  1  0  0  0  0
 26 63  1  0  0  0  0
 26 64  1  0  0  0  0
 26 65  1  0  0  0  0
 27 66  1  0  0  0  0
 27 67  1  0  0  0  0
 27 68  1  0  0  0  0
 28 69  1  0  0  0  0
 28 70  1  0  0  0  0
 28 71  1  0  0  0  0
 29 30  2  0  0  0  0
 30 31  1  0  0  0  0
 30 72  1  0  0  0  0
 31 32  2  0  0  0  0
 31 73  1  0  0  0  0
 32 74  1  0  0  0  0
M  END
> <PUBCHEM_COMPOUND_CID>
45361418

> <PUBCHEM_CONFORMER_RMSD>
1.2

> <PUBCHEM_CONFORMER_DIVERSEORDER>
1
61
51
80
58
41
73
97
89
99
45
75
65
85
23
92
44
35
78
91
42
33
6
52
98
17
43
27
50
11
107
79
101
49
30
34
72
88
54
40
95
2
82
32
20
71
59
56
63
31
110
105
47
64
18
90
19
109
48
81
76
100
28
77
39
66
87
38
111
8
22
67
103
26
68
70
9
113
36
104
83
53
14
93
62
60
7
13
84
86
10
24
69
21
15
55
25
102
5
37
96
112
108
4
3
46
94
16
57
74
12
29
106

> <PUBCHEM_MMFF94_PARTIAL_CHARGES>
23
1 -0.68
10 0.28
14 0.3
18 0.06
2 -0.57
21 0.57
22 0.57
23 0.06
25 0.48
29 -0.04
3 -0.57
30 -0.15
31 -0.15
32 -0.01
4 -0.28
5 -0.73
53 0.37
54 0.4
6 -0.73
60 0.37
72 0.15
73 0.15
74 0.15

> <PUBCHEM_EFFECTIVE_ROTOR_COUNT>
10.6

> <PUBCHEM_PHARMACOPHORE_FEATURES>
12
1 1 acceptor
1 1 donor
1 2 acceptor
1 20 hydrophobe
1 3 acceptor
1 4 acceptor
1 5 donor
1 6 donor
4 24 26 27 28 hydrophobe
5 4 29 30 31 32 rings
6 7 8 10 11 13 15 rings
6 7 8 9 12 14 16 rings

> <PUBCHEM_HEAVY_ATOM_COUNT>
32

> <PUBCHEM_ATOM_DEF_STEREO_COUNT>
6

> <PUBCHEM_ATOM_UDEF_STEREO_COUNT>
1

> <PUBCHEM_BOND_DEF_STEREO_COUNT>
0

> <PUBCHEM_BOND_UDEF_STEREO_COUNT>
0

> <PUBCHEM_ISOTOPIC_ATOM_COUNT>
0

> <PUBCHEM_COMPONENT_COUNT>
1

> <PUBCHEM_CACTVS_TAUTO_COUNT>
4

> <PUBCHEM_CONFORMER_ID>
02B4290A00000001

> <PUBCHEM_MMFF94_ENERGY>
79.8787

> <PUBCHEM_FEATURE_SELFOVERLAP>
60.911

> <PUBCHEM_SHAPE_FINGERPRINT>
10319688 67 15719393966436446393
10391435 84 17313107480154900779
10673678 19 18411422830151622318
10906281 52 17775013371023462831
11211813 74 18407757024036038725
11409948 35 11455626352615586453
11719270 70 11963390726121268153
12522641 24 17168133513167587824
12539765 74 18130795516755789143
13165053 68 18046631376483858615
13617811 41 16343708729251082248
14251757 52 18411136943753069720
14461889 52 17240490216505651027
14849402 71 18413390964788079289
14856354 85 17489585685045430405
15183329 4 17775287170402985601
15361156 5 18272365400349178607
15475509 8 15267345128037297155
15685185 35 18194123143315156348
15840311 113 18409452492429856604
16994733 274 18040432162264639385
17686467 74 18113621210313819077
19319366 153 18341043043429313646
20157964 124 18334295362381163356
20554085 129 16298382474428712240
21033648 29 17022908986657734122
21049683 118 18041828632690037250
21049683 271 18272088323092496649
21150785 3 18411700980638990117
21267235 1 17418092083841703019
21521721 280 18335422357193722787
21792934 111 12252170875545967375
23522609 53 17702966758968978777
23559900 14 16629945737733843834
23569914 2 17028480159962140868
23576562 1 17773586304005060085
24771293 8 15430325698147540431
3418910 222 18040445395249121101
34797466 226 18343306942154588598
3552219 110 17988653986743994809
4073 2 18334295392552086027
4093350 32 18334012774754813078
4098825 35 18410011001503449513
4149490 64 18260546710744045466
4258327 124 18338523039791482541
4340502 62 17821727208908546874
437795 51 18335422395631806409
439807 62 12895082808282830972
44317340 157 18411418423673496822
4625314 4 18410013200120516815
474113 269 8069759476595497081
5080951 261 15286199643936437227
5109719 28 17530972401209175540
513202 73 10879725289994899110
5265222 85 18411417337094711431
9831232 110 12463568491514073732

> <PUBCHEM_SHAPE_MULTIPOLES>
625.11
23.18
2.72
1.69
18.95
0.42
-0.19
12.73
4.72
-5.64
0.12
0.35
-0.18
-0.69

> <PUBCHEM_SHAPE_SELFOVERLAP>
1288.988

> <PUBCHEM_SHAPE_VOLUME>
356.8

> <PUBCHEM_COORDINATE_TYPE>
2
5
10

$$$$
