51136974
  -OEChem-12032416233D

 62 66  0     1  0  0  0  0  0999 V2000
   -1.0959   -2.5818    0.6699 O   0  0  0  0  0  0  0  0  0  0  0  0
    1.0076   -3.2790   -1.3444 O   0  0  0  0  0  0  0  0  0  0  0  0
   -2.2443   -5.1423    0.4975 O   0  0  0  0  0  0  0  0  0  0  0  0
   -1.5480    1.8465    0.6584 O   0  0  0  0  0  0  0  0  0  0  0  0
    2.2277   -1.1272    0.1059 N   0  0  0  0  0  0  0  0  0  0  0  0
    4.6267    0.4228    0.0648 N   0  0  0  0  0  0  0  0  0  0  0  0
   -1.9691   -0.1407   -0.4632 N   0  0  0  0  0  0  0  0  0  0  0  0
   -7.0528    0.8041   -1.5161 N   0  0  0  0  0  0  0  0  0  0  0  0
   -7.8750    2.0950    0.0956 N   0  0  0  0  0  0  0  0  0  0  0  0
    1.2047   -1.9713    0.6978 C   0  0  1  0  0  0  0  0  0  0  0  0
   -0.2287   -1.4261    0.6623 C   0  0  1  0  0  0  0  0  0  0  0  0
    1.0620   -3.3514    0.0745 C   0  0  1  0  0  0  0  0  0  0  0  0
   -0.2898   -3.7753    0.6367 C   0  0  2  0  0  0  0  0  0  0  0  0
    3.5386   -1.7846    0.1699 C   0  0  0  0  0  0  0  0  0  0  0  0
    2.2853    0.1697    0.7918 C   0  0  0  0  0  0  0  0  0  0  0  0
   -0.6097   -0.5833   -0.5498 C   0  0  0  0  0  0  0  0  0  0  0  0
    4.6165   -0.9296   -0.5011 C   0  0  0  0  0  0  0  0  0  0  0  0
    3.3206    1.0896    0.1407 C   0  0  0  0  0  0  0  0  0  0  0  0
   -1.0174   -4.8491   -0.1513 C   0  0  0  0  0  0  0  0  0  0  0  0
    5.7665    1.2232   -0.0703 C   0  0  0  0  0  0  0  0  0  0  0  0
   -2.3366    1.0580    0.1435 C   0  0  0  0  0  0  0  0  0  0  0  0
    6.0751    2.1685    0.9078 C   0  0  0  0  0  0  0  0  0  0  0  0
    6.5942    1.0757   -1.1833 C   0  0  0  0  0  0  0  0  0  0  0  0
   -3.7906    1.3612    0.1747 C   0  0  0  0  0  0  0  0  0  0  0  0
    7.2113    2.9665    0.7730 C   0  0  0  0  0  0  0  0  0  0  0  0
    7.7304    1.8734   -1.3182 C   0  0  0  0  0  0  0  0  0  0  0  0
    8.0388    2.8189   -0.3401 C   0  0  0  0  0  0  0  0  0  0  0  0
   -4.6217    0.8266   -0.8154 C   0  0  0  0  0  0  0  0  0  0  0  0
   -4.3021    2.1727    1.1899 C   0  0  0  0  0  0  0  0  0  0  0  0
   -5.9778    1.1446   -0.7356 C   0  0  0  0  0  0  0  0  0  0  0  0
   -5.6674    2.4788    1.2499 C   0  0  0  0  0  0  0  0  0  0  0  0
   -6.5170    1.9503    0.2634 C   0  0  0  0  0  0  0  0  0  0  0  0
   -8.1623    1.3956   -0.9793 C   0  0  0  0  0  0  0  0  0  0  0  0
    1.4462   -2.1372    1.7605 H   0  0  0  0  0  0  0  0  0  0  0  0
   -0.4347   -0.8580    1.5781 H   0  0  0  0  0  0  0  0  0  0  0  0
    1.8549   -4.0496    0.3613 H   0  0  0  0  0  0  0  0  0  0  0  0
   -0.1830   -4.0910    1.6826 H   0  0  0  0  0  0  0  0  0  0  0  0
    3.5323   -2.7449   -0.3564 H   0  0  0  0  0  0  0  0  0  0  0  0
    3.8247   -1.9834    1.2118 H   0  0  0  0  0  0  0  0  0  0  0  0
    2.5586    0.0234    1.8468 H   0  0  0  0  0  0  0  0  0  0  0  0
    1.3329    0.7035    0.8012 H   0  0  0  0  0  0  0  0  0  0  0  0
    0.0219    0.2934   -0.6972 H   0  0  0  0  0  0  0  0  0  0  0  0
   -0.5557   -1.1830   -1.4647 H   0  0  0  0  0  0  0  0  0  0  0  0
    4.4270   -0.8812   -1.5812 H   0  0  0  0  0  0  0  0  0  0  0  0
    5.5851   -1.4217   -0.3472 H   0  0  0  0  0  0  0  0  0  0  0  0
    3.3717    2.0137    0.7280 H   0  0  0  0  0  0  0  0  0  0  0  0
    2.9962    1.3666   -0.8707 H   0  0  0  0  0  0  0  0  0  0  0  0
   -1.2640   -4.5052   -1.1608 H   0  0  0  0  0  0  0  0  0  0  0  0
   -0.4212   -5.7646   -0.2118 H   0  0  0  0  0  0  0  0  0  0  0  0
    1.0247   -4.1889   -1.6862 H   0  0  0  0  0  0  0  0  0  0  0  0
   -2.6774   -0.7808   -0.8057 H   0  0  0  0  0  0  0  0  0  0  0  0
   -2.6865   -5.8334   -0.0246 H   0  0  0  0  0  0  0  0  0  0  0  0
    5.4507    2.2889    1.7893 H   0  0  0  0  0  0  0  0  0  0  0  0
    6.3772    0.3601   -1.9712 H   0  0  0  0  0  0  0  0  0  0  0  0
    7.4534    3.7004    1.5360 H   0  0  0  0  0  0  0  0  0  0  0  0
    8.3734    1.7611   -2.1862 H   0  0  0  0  0  0  0  0  0  0  0  0
    8.9235    3.4401   -0.4452 H   0  0  0  0  0  0  0  0  0  0  0  0
   -4.2597    0.2180   -1.6356 H   0  0  0  0  0  0  0  0  0  0  0  0
   -3.6490    2.5799    1.9586 H   0  0  0  0  0  0  0  0  0  0  0  0
   -6.0555    3.1095    2.0433 H   0  0  0  0  0  0  0  0  0  0  0  0
   -7.0290    0.2200   -2.3413 H   0  0  0  0  0  0  0  0  0  0  0  0
   -9.1430    1.2775   -1.4175 H   0  0  0  0  0  0  0  0  0  0  0  0
  1 11  1  0  0  0  0
  1 13  1  0  0  0  0
  2 12  1  0  0  0  0
  2 50  1  0  0  0  0
  3 19  1  0  0  0  0
  3 52  1  0  0  0  0
  4 21  2  0  0  0  0
  5 10  1  0  0  0  0
  5 14  1  0  0  0  0
  5 15  1  0  0  0  0
  6 17  1  0  0  0  0
  6 18  1  0  0  0  0
  6 20  1  0  0  0  0
  7 16  1  0  0  0  0
  7 21  1  0  0  0  0
  7 51  1  0  0  0  0
  8 30  1  0  0  0  0
  8 33  1  0  0  0  0
  8 61  1  0  0  0  0
  9 32  1  0  0  0  0
  9 33  2  0  0  0  0
 10 11  1  0  0  0  0
 10 12  1  0  0  0  0
 10 34  1  0  0  0  0
 11 16  1  0  0  0  0
 11 35  1  0  0  0  0
 12 13  1  0  0  0  0
 12 36  1  0  0  0  0
 13 19  1  0  0  0  0
 13 37  1  0  0  0  0
 14 17  1  0  0  0  0
 14 38  1  0  0  0  0
 14 39  1  0  0  0  0
 15 18  1  0  0  0  0
 15 40  1  0  0  0  0
 15 41  1  0  0  0  0
 16 42  1  0  0  0  0
 16 43  1  0  0  0  0
 17 44  1  0  0  0  0
 17 45  1  0  0  0  0
 18 46  1  0  0  0  0
 18 47  1  0  0  0  0
 19 48  1  0  0  0  0
 19 49  1  0  0  0  0
 20 22  2  0  0  0  0
 20 23  1  0  0  0  0
 21 24  1  0  0  0  0
 22 25  1  0  0  0  0
 22 53  1  0  0  0  0
 23 26  2  0  0  0  0
 23 54  1  0  0  0  0
 24 28  2  0  0  0  0
 24 29  1  0  0  0  0
 25 27  2  0  0  0  0
 25 55  1  0  0  0  0
 26 27  1  0  0  0  0
 26 56  1  0  0  0  0
 27 57  1  0  0  0  0
 28 30  1  0  0  0  0
 28 58  1  0  0  0  0
 29 31  2  0  0  0  0
 29 59  1  0  0  0  0
 30 32  2  0  0  0  0
 31 32  1  0  0  0  0
 31 60  1  0  0  0  0
 33 62  1  0  0  0  0
M  END
> <PUBCHEM_COMPOUND_CID>
51136974

> <PUBCHEM_CONFORMER_RMSD>
1

> <PUBCHEM_CONFORMER_DIVERSEORDER>
1
47
28
8
43
42
48
21
50
37
31
22
14
6
39
32
45
46
9
7
5
27
49
18
33
40
36
25
13
20
2
15
11
19
24
23
4
41
38
16
44
30
29
12
35
34
3
17
26
10

> <PUBCHEM_MMFF94_PARTIAL_CHARGES>
46
1 -0.56
10 0.27
11 0.28
12 0.28
13 0.28
14 0.27
15 0.27
16 0.3
17 0.37
18 0.37
19 0.28
2 -0.68
20 0.1
21 0.54
22 -0.15
23 -0.15
24 0.09
25 -0.15
26 -0.15
27 -0.15
28 -0.15
29 -0.15
3 -0.68
30 -0.15
31 -0.15
32 0.23
33 0.04
4 -0.57
5 -0.81
50 0.4
51 0.37
52 0.4
53 0.15
54 0.15
55 0.15
56 0.15
57 0.15
58 0.15
59 0.15
6 -0.84
60 0.15
61 0.27
62 0.15
7 -0.73
8 0.03
9 -0.57

> <PUBCHEM_EFFECTIVE_ROTOR_COUNT>
9.2

> <PUBCHEM_PHARMACOPHORE_FEATURES>
16
1 1 acceptor
1 2 acceptor
1 2 donor
1 3 acceptor
1 3 donor
1 4 acceptor
1 5 cation
1 6 cation
1 7 donor
1 8 donor
3 8 9 33 cation
5 1 10 11 12 13 rings
5 8 9 30 32 33 rings
6 20 22 23 25 26 27 rings
6 24 28 29 30 31 32 rings
6 5 6 14 15 17 18 rings

> <PUBCHEM_HEAVY_ATOM_COUNT>
33

> <PUBCHEM_ATOM_DEF_STEREO_COUNT>
4

> <PUBCHEM_ATOM_UDEF_STEREO_COUNT>
0

> <PUBCHEM_BOND_DEF_STEREO_COUNT>
0

> <PUBCHEM_BOND_UDEF_STEREO_COUNT>
0

> <PUBCHEM_ISOTOPIC_ATOM_COUNT>
0

> <PUBCHEM_COMPONENT_COUNT>
1

> <PUBCHEM_CACTVS_TAUTO_COUNT>
7

> <PUBCHEM_CONFORMER_ID>
030C49CE00000001

> <PUBCHEM_MMFF94_ENERGY>
95.3309

> <PUBCHEM_FEATURE_SELFOVERLAP>
81.313

> <PUBCHEM_SHAPE_FINGERPRINT>
10 15 17095243618338744428
10050765 1 18410013265220759586
10190206 1 18266727164208505199
10904742 90 18410011035557076836
11007060 377 18130509712267323689
11062273 23 18119522386844538826
11135609 187 18336823105459904145
11273773 42 18272368672381398837
11297010 23 18202291278190760046
11443803 9 18334563672771377200
11823591 26 18334290972571256584
1200032 147 18261110773261911480
12107183 9 18262224540408720282
12144603 126 18130785600657646041
12522641 68 18272651268154897638
12539765 74 18201725002877610111
12677640 9 18194967576560656317
12758862 56 10159690292620892765
12788726 201 18046334503817744762
12925494 130 18268988872817768592
13150687 139 18410581661023088782
13248334 5 18121779426639890938
13540713 5 18188751947477833010
1361 2 18410011001139407297
14068700 686 18116993287078683781
14190465 44 18341319064166090026
14294032 229 18262240039869524478
14415360 78 18337943605902155620
14565420 104 18188207606999844554
14664723 55 18336000735345495948
14849402 71 18122627150463212714
14931854 50 17988644073310804072
14937079 2 18193277387224867242
15064981 194 18193572266229701004
15183329 4 17060342902943376352
15685185 35 18338516451354653932
15803439 3 17060340742754169278
16114785 44 18188215423651134219
16126227 98 18410295838837990801
16992610 120 18335432283453929540
18365409 1 18339643463989972303
19319366 153 18268983207618527463
21360443 126 18336827584883745512
21521721 280 18411703149792575873
21772528 278 18413671305760944919
23516275 137 17059516066094239607
23522609 53 17487628429535741433
23729398 52 18050013194946738746
23729417 116 17619629528265997671
335352 9 18339084783983213446
3627633 1 17761213619236831226
3918712 181 18411409627233140264
4073 2 18336831897515863523
4258327 124 18041571350488819700
4403749 210 18261114114699248083
45377200 153 16199573810717559245
5758199 1 18411138026354197889
5776283 40 18201434835172786472
6057620 51 18343015568032835505
6058803 2 17697598789115914945
6327066 14 18408886256699657708
6712543 237 14851604379712316056
6898599 12 18266746968660629758

> <PUBCHEM_SHAPE_MULTIPOLES>
630.74
23.27
5.43
1.13
0.03
8.62
0.13
-33.19
5.55
-0.29
-0.86
-0.25
-0.34
-0.17

> <PUBCHEM_SHAPE_SELFOVERLAP>
1369.621

> <PUBCHEM_SHAPE_VOLUME>
342.6

> <PUBCHEM_COORDINATE_TYPE>
2
5
10

$$$$
