40780076
  -OEChem-12032416163D

 56 60  0     1  0  0  0  0  0999 V2000
    4.2131    4.3006    0.4621 S   0  0  0  0  0  0  0  0  0  0  0  0
   -2.0452   -1.6243   -0.1053 O   0  0  0  0  0  0  0  0  0  0  0  0
   -3.0060   -0.6262    1.7141 O   0  0  0  0  0  0  0  0  0  0  0  0
    1.0312   -3.5789    0.6364 N   0  0  2  0  0  0  0  0  0  0  0  0
    4.3291   -0.1483    0.6793 N   0  0  0  0  0  0  0  0  0  0  0  0
    4.4799    1.1862    0.7285 N   0  0  0  0  0  0  0  0  0  0  0  0
   -3.9506   -0.4679   -0.4220 N   0  0  0  0  0  0  0  0  0  0  0  0
    2.0597   -2.4205   -1.4573 C   0  0  2  0  0  0  0  0  0  0  0  0
    2.8381   -2.0162   -0.1747 C   0  0  2  0  0  0  0  0  0  0  0  0
   -0.0397   -2.9218   -0.1584 C   0  0  2  0  0  0  0  0  0  0  0  0
    0.5693   -2.0591   -1.2846 C   0  0  0  0  0  0  0  0  0  0  0  0
    2.1442   -3.9584   -1.5630 C   0  0  0  0  0  0  0  0  0  0  0  0
    2.0495   -2.5784    1.0425 C   0  0  0  0  0  0  0  0  0  0  0  0
    1.6902   -4.5834   -0.2323 C   0  0  0  0  0  0  0  0  0  0  0  0
    3.2133   -0.5524    0.0067 C   0  0  0  0  0  0  0  0  0  0  0  0
   -1.0052   -2.1190    0.7160 C   0  0  0  0  0  0  0  0  0  0  0  0
    2.5908    0.5978   -0.4129 C   0  0  0  0  0  0  0  0  0  0  0  0
    3.4151    1.6366    0.0597 C   0  0  0  0  0  0  0  0  0  0  0  0
    5.3155   -0.9932    1.3117 C   0  0  0  0  0  0  0  0  0  0  0  0
    3.1747    3.0775   -0.1362 C   0  0  0  0  0  0  0  0  0  0  0  0
   -3.0177   -0.8706    0.5138 C   0  0  0  0  0  0  0  0  0  0  0  0
    2.0972    3.6012   -0.8164 C   0  0  0  0  0  0  0  0  0  0  0  0
    2.1249    5.0255   -0.8470 C   0  0  0  0  0  0  0  0  0  0  0  0
    3.2220    5.5360   -0.1889 C   0  0  0  0  0  0  0  0  0  0  0  0
   -5.1074    0.3175   -0.2155 C   0  0  0  0  0  0  0  0  0  0  0  0
   -5.9410    0.6272   -1.2902 C   0  0  0  0  0  0  0  0  0  0  0  0
   -5.4154    0.7831    1.0627 C   0  0  0  0  0  0  0  0  0  0  0  0
   -7.0825    1.4027   -1.0866 C   0  0  0  0  0  0  0  0  0  0  0  0
   -6.5568    1.5585    1.2664 C   0  0  0  0  0  0  0  0  0  0  0  0
   -7.3904    1.8683    0.1916 C   0  0  0  0  0  0  0  0  0  0  0  0
    2.4768   -1.9428   -2.3500 H   0  0  0  0  0  0  0  0  0  0  0  0
    3.7907   -2.5643   -0.2289 H   0  0  0  0  0  0  0  0  0  0  0  0
   -0.6475   -3.7061   -0.6337 H   0  0  0  0  0  0  0  0  0  0  0  0
    0.4364   -0.9953   -1.0836 H   0  0  0  0  0  0  0  0  0  0  0  0
    0.0373   -2.2660   -2.2221 H   0  0  0  0  0  0  0  0  0  0  0  0
    3.1700   -4.2712   -1.7906 H   0  0  0  0  0  0  0  0  0  0  0  0
    1.5081   -4.3112   -2.3839 H   0  0  0  0  0  0  0  0  0  0  0  0
    2.7540   -3.0560    1.7363 H   0  0  0  0  0  0  0  0  0  0  0  0
    1.5853   -1.7764    1.6280 H   0  0  0  0  0  0  0  0  0  0  0  0
    1.0046   -5.4173   -0.4272 H   0  0  0  0  0  0  0  0  0  0  0  0
    2.5471   -5.0244    0.2929 H   0  0  0  0  0  0  0  0  0  0  0  0
   -0.5010   -1.2751    1.1998 H   0  0  0  0  0  0  0  0  0  0  0  0
   -1.4312   -2.7674    1.4914 H   0  0  0  0  0  0  0  0  0  0  0  0
    1.6821    0.6819   -0.9873 H   0  0  0  0  0  0  0  0  0  0  0  0
    5.8367   -1.5571    0.5346 H   0  0  0  0  0  0  0  0  0  0  0  0
    6.0304   -0.3715    1.8577 H   0  0  0  0  0  0  0  0  0  0  0  0
    4.8100   -1.6632    2.0104 H   0  0  0  0  0  0  0  0  0  0  0  0
    1.3135    3.0144   -1.2788 H   0  0  0  0  0  0  0  0  0  0  0  0
   -3.7882   -0.7726   -1.3787 H   0  0  0  0  0  0  0  0  0  0  0  0
    1.3779    5.6442   -1.3271 H   0  0  0  0  0  0  0  0  0  0  0  0
    3.4891    6.5753   -0.0592 H   0  0  0  0  0  0  0  0  0  0  0  0
   -5.7125    0.2707   -2.2914 H   0  0  0  0  0  0  0  0  0  0  0  0
   -4.8181    0.5841    1.9416 H   0  0  0  0  0  0  0  0  0  0  0  0
   -7.7316    1.6439   -1.9234 H   0  0  0  0  0  0  0  0  0  0  0  0
   -6.7977    1.9217    2.2613 H   0  0  0  0  0  0  0  0  0  0  0  0
   -8.2791    2.4721    0.3502 H   0  0  0  0  0  0  0  0  0  0  0  0
  1 20  1  0  0  0  0
  1 24  1  0  0  0  0
  2 16  1  0  0  0  0
  2 21  1  0  0  0  0
  3 21  2  0  0  0  0
  4 10  1  0  0  0  0
  4 13  1  0  0  0  0
  4 14  1  0  0  0  0
  5  6  1  0  0  0  0
  5 15  1  0  0  0  0
  5 19  1  0  0  0  0
  6 18  2  0  0  0  0
  7 21  1  0  0  0  0
  7 25  1  0  0  0  0
  7 49  1  0  0  0  0
  8  9  1  0  0  0  0
  8 11  1  0  0  0  0
  8 12  1  0  0  0  0
  8 31  1  0  0  0  0
  9 13  1  0  0  0  0
  9 15  1  0  0  0  0
  9 32  1  0  0  0  0
 10 11  1  0  0  0  0
 10 16  1  0  0  0  0
 10 33  1  0  0  0  0
 11 34  1  0  0  0  0
 11 35  1  0  0  0  0
 12 14  1  0  0  0  0
 12 36  1  0  0  0  0
 12 37  1  0  0  0  0
 13 38  1  0  0  0  0
 13 39  1  0  0  0  0
 14 40  1  0  0  0  0
 14 41  1  0  0  0  0
 15 17  2  0  0  0  0
 16 42  1  0  0  0  0
 16 43  1  0  0  0  0
 17 18  1  0  0  0  0
 17 44  1  0  0  0  0
 18 20  1  0  0  0  0
 19 45  1  0  0  0  0
 19 46  1  0  0  0  0
 19 47  1  0  0  0  0
 20 22  2  0  0  0  0
 22 23  1  0  0  0  0
 22 48  1  0  0  0  0
 23 24  2  0  0  0  0
 23 50  1  0  0  0  0
 24 51  1  0  0  0  0
 25 26  2  0  0  0  0
 25 27  1  0  0  0  0
 26 28  1  0  0  0  0
 26 52  1  0  0  0  0
 27 29  2  0  0  0  0
 27 53  1  0  0  0  0
 28 30  2  0  0  0  0
 28 54  1  0  0  0  0
 29 30  1  0  0  0  0
 29 55  1  0  0  0  0
 30 56  1  0  0  0  0
M  END
> <PUBCHEM_COMPOUND_CID>
40780076

> <PUBCHEM_CONFORMER_RMSD>
1

> <PUBCHEM_CONFORMER_DIVERSEORDER>
1
94
121
13
8
119
116
123
49
79
9
64
53
11
111
32
15
124
90
59
85
113
7
4
60
20
109
88
110
23
19
37
63
5
16
120
75
81
31
122
28
6
43
35
24
26
125
57
106
51
69
52
39
41
129
108
65
76
12
50
66
48
78
3
105
54
68
107
84
22
96
91
14
86
95
98
38
126
56
102
127
67
103
82
33
27
40
34
30
87
21
46
29
114
101
93
17
55
25
92
115
80
18
36
61
112
2
10
71
70
44
100
58
72
99
128
77
97
74
47
42
117
45
83
62
104
73
118
89

> <PUBCHEM_MMFF94_PARTIAL_CHARGES>
37
1 -0.08
10 0.27
13 0.27
14 0.27
15 -0.33
16 0.28
17 -0.15
18 0.29
19 0.26
2 -0.43
20 0.04
21 0.78
22 -0.15
23 -0.15
24 -0.11
25 0.12
26 -0.15
27 -0.15
28 -0.15
29 -0.15
3 -0.57
30 -0.15
4 -0.81
44 0.15
48 0.15
49 0.37
5 0.31
50 0.15
51 0.15
52 0.15
53 0.15
54 0.15
55 0.15
56 0.15
6 -0.71
7 -0.55
9 0.18

> <PUBCHEM_EFFECTIVE_ROTOR_COUNT>
8.2

> <PUBCHEM_PHARMACOPHORE_FEATURES>
8
1 3 acceptor
1 4 cation
1 6 acceptor
1 7 donor
5 1 20 22 23 24 rings
5 5 6 15 17 18 rings
6 25 26 27 28 29 30 rings
8 4 8 9 10 11 12 13 14 rings

> <PUBCHEM_HEAVY_ATOM_COUNT>
30

> <PUBCHEM_ATOM_DEF_STEREO_COUNT>
3

> <PUBCHEM_ATOM_UDEF_STEREO_COUNT>
0

> <PUBCHEM_BOND_DEF_STEREO_COUNT>
0

> <PUBCHEM_BOND_UDEF_STEREO_COUNT>
0

> <PUBCHEM_ISOTOPIC_ATOM_COUNT>
0

> <PUBCHEM_COMPONENT_COUNT>
1

> <PUBCHEM_CACTVS_TAUTO_COUNT>
2

> <PUBCHEM_CONFORMER_ID>
026E412C00000001

> <PUBCHEM_MMFF94_ENERGY>
69.5107

> <PUBCHEM_FEATURE_SELFOVERLAP>
40.597

> <PUBCHEM_SHAPE_FINGERPRINT>
10439779 11 18338510829199752480
10673678 19 18340209691187699161
10675989 125 18413394241183553145
10811444 77 18408598167642739957
10838868 217 18265310950498670392
10917259 69 18122349240906034788
10937287 8 18195810897340788510
10951579 204 16533717854794324716
11059845 2 17836903957471109976
11386260 185 18198341754539500615
12107183 9 18119793962854795616
13944108 23 18335711485660146100
14117953 113 18411981347846746812
14223995 32 17981882253411014968
14251764 75 18267309913955788337
14747282 540 18259989254059168460
15081414 286 18338803295208548951
15198563 99 17837236791877112798
15320295 44 18130215048015746551
15400415 2 18122345941632471605
15419008 47 17751081301816487119
15448158 71 17978797032087962528
155225 5 16824467198920234716
16067689 134 18045503282350543604
16087824 20 18409166581100386792
16988056 13 18340218379758807158
19304152 47 17249500938008549768
20715895 44 18412542115297106658
21033648 29 17314234359319529223
21388113 180 18336266855291493701
21475661 188 18408603694838193466
21716022 299 15122402991322419878
21860390 5 18342464694620122294
21987440 362 18049735297962246628
23522609 53 17560253449262704209
245318 6 17971766711595104909
3103668 31 17115805314490533822
376196 1 18336548342715289138
394071 54 18339928121711307649
397830 11 18335155181012570883
4487111 67 16896805159965212125
44880168 125 13985479509827769648
4760202 170 18120359970952045517
5109719 28 18337121146082758233
53794403 172 18410019870220337429
5951187 136 18271820020120554533
6201320 77 15577482135887439728

> <PUBCHEM_SHAPE_MULTIPOLES>
589.57
15.67
7.51
1.33
37.48
5.48
0.04
13.83
-1.88
-12.54
1.73
0.47
-0.45
0.03

> <PUBCHEM_SHAPE_SELFOVERLAP>
1267.009

> <PUBCHEM_SHAPE_VOLUME>
327

> <PUBCHEM_COORDINATE_TYPE>
2
5
10

$$$$
