40777469
  -OEChem-12032416353D

 71 74  0     1  0  0  0  0  0999 V2000
    3.8042    1.4694   -2.1401 O   0  0  0  0  0  0  0  0  0  0  0  0
   -2.9678   -2.5121   -1.8301 O   0  0  0  0  0  0  0  0  0  0  0  0
    8.3650   -1.4141    2.5473 O   0  0  0  0  0  0  0  0  0  0  0  0
   -0.7354    2.6353    0.3593 N   0  0  0  0  0  0  0  0  0  0  0  0
    4.9715    0.7428   -0.2683 N   0  0  0  0  0  0  0  0  0  0  0  0
    7.1956   -0.7504    0.6538 N   0  0  0  0  0  0  0  0  0  0  0  0
   -1.7058   -1.9690   -2.0385 N   0  0  0  0  0  0  0  0  0  0  0  0
   -5.4233   -2.0039    0.5370 N   0  0  1  0  0  0  0  0  0  0  0  0
    1.3359    1.2078   -1.1831 C   0  0  1  0  0  0  0  0  0  0  0  0
   -0.0156    0.5599   -0.7985 C   0  0  2  0  0  0  0  0  0  0  0  0
    1.1699    2.7365   -1.2096 C   0  0  0  0  0  0  0  0  0  0  0  0
   -0.6011    1.1831    0.4798 C   0  0  0  0  0  0  0  0  0  0  0  0
    2.5031    0.8015   -0.2756 C   0  0  0  0  0  0  0  0  0  0  0  0
    0.5461    3.2779    0.0760 C   0  0  0  0  0  0  0  0  0  0  0  0
    0.0655   -0.9615   -0.6659 C   0  0  0  0  0  0  0  0  0  0  0  0
    3.8127    1.0379   -0.9845 C   0  0  0  0  0  0  0  0  0  0  0  0
   -1.2850   -1.5973   -0.8261 C   0  0  0  0  0  0  0  0  0  0  0  0
    6.2844    0.9420   -0.8872 C   0  0  0  0  0  0  0  0  0  0  0  0
    5.0177    0.2997    1.1315 C   0  0  0  0  0  0  0  0  0  0  0  0
    7.1495   -0.3075   -0.7460 C   0  0  0  0  0  0  0  0  0  0  0  0
    5.8826   -0.9500    1.2723 C   0  0  0  0  0  0  0  0  0  0  0  0
   -2.2299   -1.8781    0.1760 C   0  0  0  0  0  0  0  0  0  0  0  0
   -3.2687   -2.4523   -0.5077 C   0  0  0  0  0  0  0  0  0  0  0  0
    8.3543   -1.0434    1.3708 C   0  0  0  0  0  0  0  0  0  0  0  0
   -4.5757   -2.9877   -0.1082 C   0  0  0  0  0  0  0  0  0  0  0  0
    9.6609   -0.8842    0.6354 C   0  0  0  0  0  0  0  0  0  0  0  0
   -6.0214   -1.0995   -0.4511 C   0  0  0  0  0  0  0  0  0  0  0  0
   -6.4771   -2.6552    1.3223 C   0  0  0  0  0  0  0  0  0  0  0  0
   -6.4259    0.2112    0.1594 C   0  0  0  0  0  0  0  0  0  0  0  0
   -7.7063    0.3674    0.6901 C   0  0  0  0  0  0  0  0  0  0  0  0
   -5.5216    1.2724    0.1957 C   0  0  0  0  0  0  0  0  0  0  0  0
   -8.0825    1.5850    1.2574 C   0  0  0  0  0  0  0  0  0  0  0  0
   -5.8976    2.4901    0.7628 C   0  0  0  0  0  0  0  0  0  0  0  0
   -7.1781    2.6464    1.2937 C   0  0  0  0  0  0  0  0  0  0  0  0
    1.5447    0.8756   -2.2095 H   0  0  0  0  0  0  0  0  0  0  0  0
   -0.7113    0.7955   -1.6193 H   0  0  0  0  0  0  0  0  0  0  0  0
    0.5225    3.0043   -2.0557 H   0  0  0  0  0  0  0  0  0  0  0  0
    2.1249    3.2428   -1.3875 H   0  0  0  0  0  0  0  0  0  0  0  0
   -1.6010    0.7854    0.6759 H   0  0  0  0  0  0  0  0  0  0  0  0
    0.0160    0.9368    1.3528 H   0  0  0  0  0  0  0  0  0  0  0  0
    2.4672   -0.2681   -0.0488 H   0  0  0  0  0  0  0  0  0  0  0  0
    2.4865    1.3548    0.6670 H   0  0  0  0  0  0  0  0  0  0  0  0
    1.2259    3.1632    0.9274 H   0  0  0  0  0  0  0  0  0  0  0  0
    0.3755    4.3539   -0.0421 H   0  0  0  0  0  0  0  0  0  0  0  0
    0.7324   -1.3724   -1.4352 H   0  0  0  0  0  0  0  0  0  0  0  0
    0.4835   -1.2551    0.3048 H   0  0  0  0  0  0  0  0  0  0  0  0
   -1.1176    3.0120    1.2262 H   0  0  0  0  0  0  0  0  0  0  0  0
    6.7537    1.7901   -0.3743 H   0  0  0  0  0  0  0  0  0  0  0  0
    6.1831    1.2082   -1.9438 H   0  0  0  0  0  0  0  0  0  0  0  0
    4.0253    0.0987    1.5373 H   0  0  0  0  0  0  0  0  0  0  0  0
    5.4482    1.1263    1.7096 H   0  0  0  0  0  0  0  0  0  0  0  0
    6.7202   -1.1341   -1.3249 H   0  0  0  0  0  0  0  0  0  0  0  0
    8.1447   -0.1078   -1.1467 H   0  0  0  0  0  0  0  0  0  0  0  0
    5.9832   -1.2178    2.3286 H   0  0  0  0  0  0  0  0  0  0  0  0
    5.4131   -1.7974    0.7583 H   0  0  0  0  0  0  0  0  0  0  0  0
   -2.1664   -1.6943    1.2385 H   0  0  0  0  0  0  0  0  0  0  0  0
   -5.0878   -3.4554   -0.9601 H   0  0  0  0  0  0  0  0  0  0  0  0
   -4.3609   -3.8089    0.5900 H   0  0  0  0  0  0  0  0  0  0  0  0
    9.8100    0.1619    0.3552 H   0  0  0  0  0  0  0  0  0  0  0  0
    9.6791   -1.5254   -0.2499 H   0  0  0  0  0  0  0  0  0  0  0  0
   10.4855   -1.1843    1.2894 H   0  0  0  0  0  0  0  0  0  0  0  0
   -6.8744   -1.5634   -0.9665 H   0  0  0  0  0  0  0  0  0  0  0  0
   -5.3096   -0.8668   -1.2551 H   0  0  0  0  0  0  0  0  0  0  0  0
   -6.0381   -3.3611    2.0376 H   0  0  0  0  0  0  0  0  0  0  0  0
   -7.1832   -3.2101    0.6938 H   0  0  0  0  0  0  0  0  0  0  0  0
   -7.0318   -1.9379    1.9331 H   0  0  0  0  0  0  0  0  0  0  0  0
   -8.4276   -0.4447    0.6574 H   0  0  0  0  0  0  0  0  0  0  0  0
   -4.5197    1.1634   -0.2114 H   0  0  0  0  0  0  0  0  0  0  0  0
   -9.0805    1.7078    1.6679 H   0  0  0  0  0  0  0  0  0  0  0  0
   -5.1931    3.3161    0.7918 H   0  0  0  0  0  0  0  0  0  0  0  0
   -7.4711    3.5946    1.7348 H   0  0  0  0  0  0  0  0  0  0  0  0
  1 16  2  0  0  0  0
  2  7  1  0  0  0  0
  2 23  1  0  0  0  0
  3 24  2  0  0  0  0
  4 12  1  0  0  0  0
  4 14  1  0  0  0  0
  4 47  1  0  0  0  0
  5 16  1  0  0  0  0
  5 18  1  0  0  0  0
  5 19  1  0  0  0  0
  6 20  1  0  0  0  0
  6 21  1  0  0  0  0
  6 24  1  0  0  0  0
  7 17  2  0  0  0  0
  8 25  1  0  0  0  0
  8 27  1  0  0  0  0
  8 28  1  0  0  0  0
  9 10  1  0  0  0  0
  9 11  1  0  0  0  0
  9 13  1  0  0  0  0
  9 35  1  0  0  0  0
 10 12  1  0  0  0  0
 10 15  1  0  0  0  0
 10 36  1  0  0  0  0
 11 14  1  0  0  0  0
 11 37  1  0  0  0  0
 11 38  1  0  0  0  0
 12 39  1  0  0  0  0
 12 40  1  0  0  0  0
 13 16  1  0  0  0  0
 13 41  1  0  0  0  0
 13 42  1  0  0  0  0
 14 43  1  0  0  0  0
 14 44  1  0  0  0  0
 15 17  1  0  0  0  0
 15 45  1  0  0  0  0
 15 46  1  0  0  0  0
 17 22  1  0  0  0  0
 18 20  1  0  0  0  0
 18 48  1  0  0  0  0
 18 49  1  0  0  0  0
 19 21  1  0  0  0  0
 19 50  1  0  0  0  0
 19 51  1  0  0  0  0
 20 52  1  0  0  0  0
 20 53  1  0  0  0  0
 21 54  1  0  0  0  0
 21 55  1  0  0  0  0
 22 23  2  0  0  0  0
 22 56  1  0  0  0  0
 23 25  1  0  0  0  0
 24 26  1  0  0  0  0
 25 57  1  0  0  0  0
 25 58  1  0  0  0  0
 26 59  1  0  0  0  0
 26 60  1  0  0  0  0
 26 61  1  0  0  0  0
 27 29  1  0  0  0  0
 27 62  1  0  0  0  0
 27 63  1  0  0  0  0
 28 64  1  0  0  0  0
 28 65  1  0  0  0  0
 28 66  1  0  0  0  0
 29 30  2  0  0  0  0
 29 31  1  0  0  0  0
 30 32  1  0  0  0  0
 30 67  1  0  0  0  0
 31 33  2  0  0  0  0
 31 68  1  0  0  0  0
 32 34  2  0  0  0  0
 32 69  1  0  0  0  0
 33 34  1  0  0  0  0
 33 70  1  0  0  0  0
 34 71  1  0  0  0  0
M  END
> <PUBCHEM_COMPOUND_CID>
40777469

> <PUBCHEM_CONFORMER_RMSD>
1.6

> <PUBCHEM_CONFORMER_DIVERSEORDER>
1
23
92
107
14
10
46
51
49
44
2
20
11
103
94
3
74
5
70
98
91
37
79
24
87
111
53
19
71
38
109
36
75
30
90
105
61
48
97
80
42
76
33
45
101
25
58
112
82
41
26
60
67
62
39
63
55
54
18
84
56
100
50
47
102
99
35
8
22
57
7
83
68
59
52
77
72
81
88
93
43
96
106
64
21
110
78
9
34
73
89
15
86
65
104
12
16
69
29
28
108
17
66
32
13
6
95
85
31
27
4
40

> <PUBCHEM_MMFF94_PARTIAL_CHARGES>
38
1 -0.57
12 0.27
13 0.06
14 0.27
15 0.18
16 0.57
17 0.11
18 0.3
19 0.3
2 -0.02
20 0.3
21 0.3
22 -0.15
23 -0.04
24 0.57
25 0.45
26 0.06
27 0.41
28 0.27
29 -0.14
3 -0.57
30 -0.15
31 -0.15
32 -0.15
33 -0.15
34 -0.15
4 -0.9
47 0.36
5 -0.66
56 0.15
6 -0.66
67 0.15
68 0.15
69 0.15
7 -0.41
70 0.15
71 0.15
8 -0.81

> <PUBCHEM_EFFECTIVE_ROTOR_COUNT>
12.4

> <PUBCHEM_PHARMACOPHORE_FEATURES>
10
1 1 acceptor
1 3 acceptor
1 4 cation
1 4 donor
1 7 acceptor
1 8 cation
5 2 7 17 22 23 rings
6 29 30 31 32 33 34 rings
6 4 9 10 11 12 14 rings
6 5 6 18 19 20 21 rings

> <PUBCHEM_HEAVY_ATOM_COUNT>
34

> <PUBCHEM_ATOM_DEF_STEREO_COUNT>
2

> <PUBCHEM_ATOM_UDEF_STEREO_COUNT>
0

> <PUBCHEM_BOND_DEF_STEREO_COUNT>
0

> <PUBCHEM_BOND_UDEF_STEREO_COUNT>
0

> <PUBCHEM_ISOTOPIC_ATOM_COUNT>
0

> <PUBCHEM_COMPONENT_COUNT>
1

> <PUBCHEM_CACTVS_TAUTO_COUNT>
1

> <PUBCHEM_CONFORMER_ID>
026E36FD00000001

> <PUBCHEM_MMFF94_ENERGY>
68.0191

> <PUBCHEM_FEATURE_SELFOVERLAP>
50.747

> <PUBCHEM_SHAPE_FINGERPRINT>
10076449 9 14273462452955281284
10533779 1 18057045710690066881
10653451 467 17775281651570854081
10674148 151 18408882945739003954
10838868 229 18053384297702930382
11103572 95 18130507444989256382
11973863 73 17822845386743142626
12107183 9 18408886248062302343
12144603 126 18261681458731377964
12498461 61 18336260142784851786
12838863 1 18270954761517496327
13383668 254 16629658757437228392
14428016 545 18334855004771916943
14466204 15 18342463672876393047
15021287 119 17531250578093855085
15183329 4 18113896100171871647
15320294 125 18335419058447713303
15392192 29 18040719173749470530
15419008 145 18408886231257180921
15444296 121 18334860549917964619
16120349 21 18335137579218128964
19246450 95 18344145895244118271
20105231 36 14490190518157678123
21859007 373 17989207053550041961
22149856 69 18343860014754036186
23522609 53 17897186781884759269
397638 26 17989490727713473731
4173938 306 16773798086712021230
5085150 59 18059862753383074533
6299153 45 18335144189457640401
6636735 143 17203030989815241842

> <PUBCHEM_SHAPE_MULTIPOLES>
657.19
28.36
3.55
1.63
26.84
0.22
0.02
-4.6
15.81
-6.2
-0.07
1.71
-0.33
-3.86

> <PUBCHEM_SHAPE_SELFOVERLAP>
1370.675

> <PUBCHEM_SHAPE_VOLUME>
370.7

> <PUBCHEM_COORDINATE_TYPE>
2
5
10

$$$$
