45783790
  -OEChem-12032416273D

 43 46  0     1  0  0  0  0  0999 V2000
   -1.0728   -0.2837    2.0178 O   0  0  0  0  0  0  0  0  0  0  0  0
   -3.3924   -0.5610   -0.6073 N   0  0  1  0  0  0  0  0  0  0  0  0
   -0.3437   -0.9892    0.0209 N   0  0  0  0  0  0  0  0  0  0  0  0
   -1.9751    2.0057   -1.3608 N   0  0  0  0  0  0  0  0  0  0  0  0
   -2.5042    2.5889    0.7156 N   0  0  0  0  0  0  0  0  0  0  0  0
    0.3053   -0.0345    1.9961 N   0  0  0  0  0  0  0  0  0  0  0  0
    4.3223    0.1788    0.7189 N   0  0  0  0  0  0  0  0  0  0  0  0
    5.9532   -0.2308   -0.9685 N   0  0  0  0  0  0  0  0  0  0  0  0
   -2.8234   -1.2143    0.5885 C   0  0  1  0  0  0  0  0  0  0  0  0
   -3.0229   -2.7213    0.3432 C   0  0  0  0  0  0  0  0  0  0  0  0
   -3.7648   -2.8137   -0.9827 C   0  0  0  0  0  0  0  0  0  0  0  0
   -4.4306   -1.4587   -1.1140 C   0  0  0  0  0  0  0  0  0  0  0  0
   -3.9062    0.7765   -0.3415 C   0  0  0  0  0  0  0  0  0  0  0  0
   -1.3724   -0.8464    0.8178 C   0  0  0  0  0  0  0  0  0  0  0  0
   -2.8040    1.8011   -0.2930 C   0  0  0  0  0  0  0  0  0  0  0  0
    0.6628   -0.4772    0.7869 C   0  0  0  0  0  0  0  0  0  0  0  0
   -1.0903    2.9864   -1.0107 C   0  0  0  0  0  0  0  0  0  0  0  0
    2.0162   -0.4239    0.3148 C   0  0  0  0  0  0  0  0  0  0  0  0
   -1.4367    3.3304    0.2748 C   0  0  0  0  0  0  0  0  0  0  0  0
    2.3533   -0.8953   -0.9493 C   0  0  0  0  0  0  0  0  0  0  0  0
    3.0285    0.0989    1.1030 C   0  0  0  0  0  0  0  0  0  0  0  0
    3.6739   -0.8304   -1.3800 C   0  0  0  0  0  0  0  0  0  0  0  0
    4.6121   -0.2892   -0.5159 C   0  0  0  0  0  0  0  0  0  0  0  0
    7.0118    0.3029   -0.1747 C   0  0  0  0  0  0  0  0  0  0  0  0
   -3.3994   -0.9511    1.4870 H   0  0  0  0  0  0  0  0  0  0  0  0
   -2.0902   -3.2945    0.3081 H   0  0  0  0  0  0  0  0  0  0  0  0
   -3.6459   -3.1445    1.1407 H   0  0  0  0  0  0  0  0  0  0  0  0
   -4.4838   -3.6380   -0.9980 H   0  0  0  0  0  0  0  0  0  0  0  0
   -3.0495   -2.9694   -1.7998 H   0  0  0  0  0  0  0  0  0  0  0  0
   -4.6944   -1.2396   -2.1533 H   0  0  0  0  0  0  0  0  0  0  0  0
   -5.3385   -1.4196   -0.4987 H   0  0  0  0  0  0  0  0  0  0  0  0
   -4.5772    1.0850   -1.1550 H   0  0  0  0  0  0  0  0  0  0  0  0
   -4.5016    0.8165    0.5792 H   0  0  0  0  0  0  0  0  0  0  0  0
   -2.0076    1.5192   -2.2469 H   0  0  0  0  0  0  0  0  0  0  0  0
   -0.3217    3.3352   -1.6848 H   0  0  0  0  0  0  0  0  0  0  0  0
   -0.9710    4.0733    0.9056 H   0  0  0  0  0  0  0  0  0  0  0  0
    1.6086   -1.3177   -1.6190 H   0  0  0  0  0  0  0  0  0  0  0  0
    2.8492    0.4877    2.1010 H   0  0  0  0  0  0  0  0  0  0  0  0
    3.9434   -1.1973   -2.3650 H   0  0  0  0  0  0  0  0  0  0  0  0
    6.1127   -0.3677   -1.9609 H   0  0  0  0  0  0  0  0  0  0  0  0
    6.8351    1.3563    0.0661 H   0  0  0  0  0  0  0  0  0  0  0  0
    7.9571    0.2404   -0.7228 H   0  0  0  0  0  0  0  0  0  0  0  0
    7.1310   -0.2593    0.7572 H   0  0  0  0  0  0  0  0  0  0  0  0
  1  6  1  0  0  0  0
  1 14  1  0  0  0  0
  2  9  1  0  0  0  0
  2 12  1  0  0  0  0
  2 13  1  0  0  0  0
  3 14  2  0  0  0  0
  3 16  1  0  0  0  0
  4 15  1  0  0  0  0
  4 17  1  0  0  0  0
  4 34  1  0  0  0  0
  5 15  2  0  0  0  0
  5 19  1  0  0  0  0
  6 16  2  0  0  0  0
  7 21  1  0  0  0  0
  7 23  2  0  0  0  0
  8 23  1  0  0  0  0
  8 24  1  0  0  0  0
  8 40  1  0  0  0  0
  9 10  1  0  0  0  0
  9 14  1  0  0  0  0
  9 25  1  0  0  0  0
 10 11  1  0  0  0  0
 10 26  1  0  0  0  0
 10 27  1  0  0  0  0
 11 12  1  0  0  0  0
 11 28  1  0  0  0  0
 11 29  1  0  0  0  0
 12 30  1  0  0  0  0
 12 31  1  0  0  0  0
 13 15  1  0  0  0  0
 13 32  1  0  0  0  0
 13 33  1  0  0  0  0
 16 18  1  0  0  0  0
 17 19  2  0  0  0  0
 17 35  1  0  0  0  0
 18 20  1  0  0  0  0
 18 21  2  0  0  0  0
 19 36  1  0  0  0  0
 20 22  2  0  0  0  0
 20 37  1  0  0  0  0
 21 38  1  0  0  0  0
 22 23  1  0  0  0  0
 22 39  1  0  0  0  0
 24 41  1  0  0  0  0
 24 42  1  0  0  0  0
 24 43  1  0  0  0  0
M  END
> <PUBCHEM_COMPOUND_CID>
45783790

> <PUBCHEM_CONFORMER_RMSD>
0.8

> <PUBCHEM_CONFORMER_DIVERSEORDER>
1
6
19
61
15
18
35
25
57
27
23
50
7
5
31
8
28
22
58
32
55
54
20
3
16
43
9
44
36
60
4
13
53
56
2
45
34
14
33
12
47
59
21
41
39
49
51
42
24
40
29
37
11
10
48
52
38
30
17
26
46

> <PUBCHEM_MMFF94_PARTIAL_CHARGES>
29
1 -0.02
12 0.27
13 0.45
14 0.3
15 0.01
16 0.46
17 -0.3
18 0.05
19 0.08
2 -0.81
20 -0.15
21 0.16
22 -0.15
23 0.41
24 0.37
3 -0.57
34 0.27
35 0.15
36 0.15
37 0.15
38 0.15
39 0.15
4 0.03
40 0.4
5 -0.57
6 -0.41
7 -0.62
8 -0.87
9 0.45

> <PUBCHEM_EFFECTIVE_ROTOR_COUNT>
6

> <PUBCHEM_PHARMACOPHORE_FEATURES>
10
1 2 cation
1 4 donor
1 8 donor
3 3 6 16 cation
3 4 5 15 cation
3 7 8 23 cation
5 1 3 6 14 16 rings
5 2 9 10 11 12 rings
5 4 5 15 17 19 rings
6 7 18 20 21 22 23 rings

> <PUBCHEM_HEAVY_ATOM_COUNT>
24

> <PUBCHEM_ATOM_DEF_STEREO_COUNT>
1

> <PUBCHEM_ATOM_UDEF_STEREO_COUNT>
0

> <PUBCHEM_BOND_DEF_STEREO_COUNT>
0

> <PUBCHEM_BOND_UDEF_STEREO_COUNT>
0

> <PUBCHEM_ISOTOPIC_ATOM_COUNT>
0

> <PUBCHEM_COMPONENT_COUNT>
1

> <PUBCHEM_CACTVS_TAUTO_COUNT>
8

> <PUBCHEM_CONFORMER_ID>
02BA9AEE00000001

> <PUBCHEM_MMFF94_ENERGY>
44.1584

> <PUBCHEM_FEATURE_SELFOVERLAP>
50.751

> <PUBCHEM_SHAPE_FINGERPRINT>
10087517 78 18187085053458256764
10291535 26 18260557718485975864
10498660 4 18263070055342646989
10871710 139 17822568296854649333
10937287 8 17617939136628245517
11101153 10 18264498463129838212
11315181 36 17385730231669457158
11477941 20 18410853309014913220
11488393 25 17038109983424541091
12788726 201 18334005078099695715
13947920 75 18261106361618328454
13994607 96 17241345598187472441
14251764 38 18334866039139889532
14713325 29 18341056224440637239
14910302 57 18200871777591454902
15183329 4 17749672892769208026
15463212 79 18188490151338866283
15849732 13 18342468041375052595
15961568 22 18191859244536529824
17349148 13 17385722495869030074
17357779 13 18199450208183489893
17492 54 17969764329855183029
17818456 19 17902210240390836418
17980427 23 17822587066045914372
19438510 23 13479949283698425455
19489759 90 18261110781746493354
20300324 65 18335139786609681829
20775438 99 16897906857894911495
21033650 10 18117863026924982708
21623110 236 18261966252869079652
22393880 68 18198913522187842086
2297311 6 18410858797613559263
23402539 116 18259985998288619606
23557571 272 18413388747835121159
23559900 14 18272645766517393200
3268164 11 18408321081589245246
469060 322 17678201380824534105
497634 4 17703520951478424912
531348 171 18339366236920792950

> <PUBCHEM_SHAPE_MULTIPOLES>
453.17
11.52
3.07
1.44
20.05
2.11
0.29
-3.11
-3.6
-5.21
-0.63
0.04
-0.08
0.1

> <PUBCHEM_SHAPE_SELFOVERLAP>
983.483

> <PUBCHEM_SHAPE_VOLUME>
248.2

> <PUBCHEM_COORDINATE_TYPE>
2
5
10

$$$$
