7143792
  -OEChem-12032416373D

 50 54  0     1  0  0  0  0  0999 V2000
    1.8298    3.4773    0.2168 S   0  0  0  0  0  0  0  0  0  0  0  0
    2.0187    0.4743   -2.0482 O   0  0  0  0  0  0  0  0  0  0  0  0
   -1.7928   -1.3287    1.9242 O   0  0  0  0  0  0  0  0  0  0  0  0
   -0.7734   -2.8342    0.4927 N   0  0  0  0  0  0  0  0  0  0  0  0
    1.8301   -1.3267   -0.5785 N   0  0  0  0  0  0  0  0  0  0  0  0
   -2.5840   -1.5156   -0.2480 N   0  0  0  0  0  0  0  0  0  0  0  0
   -3.3398    3.9633    1.8410 N   0  0  0  0  0  0  0  0  0  0  0  0
    0.8350   -3.5776   -1.2794 C   0  0  1  0  0  0  0  0  0  0  0  0
    1.6212   -3.2573    1.0258 C   0  0  2  0  0  0  0  0  0  0  0  0
    1.7355   -4.1613   -0.1990 C   0  0  0  0  0  0  0  0  0  0  0  0
   -0.6309   -3.5134   -0.8052 C   0  0  0  0  0  0  0  0  0  0  0  0
    1.3703   -2.1945   -1.6709 C   0  0  0  0  0  0  0  0  0  0  0  0
    0.1677   -3.2735    1.5305 C   0  0  0  0  0  0  0  0  0  0  0  0
    2.0389   -1.8344    0.7058 C   0  0  0  0  0  0  0  0  0  0  0  0
    2.5747   -1.0555    1.6588 C   0  0  0  0  0  0  0  0  0  0  0  0
    2.1530    0.0018   -0.9180 C   0  0  0  0  0  0  0  0  0  0  0  0
   -1.7274   -1.8398    0.8033 C   0  0  0  0  0  0  0  0  0  0  0  0
    2.7130    0.8626    0.1821 C   0  0  0  0  0  0  0  0  0  0  0  0
    2.9097    0.3142    1.3904 C   0  0  0  0  0  0  0  0  0  0  0  0
    3.0331    2.2822   -0.0477 C   0  0  0  0  0  0  0  0  0  0  0  0
   -3.2754   -0.2947   -0.4440 C   0  0  0  0  0  0  0  0  0  0  0  0
    4.2234    2.8455   -0.4697 C   0  0  0  0  0  0  0  0  0  0  0  0
    4.1436    4.2641   -0.5751 C   0  0  0  0  0  0  0  0  0  0  0  0
   -3.0573    0.7716    0.4239 C   0  0  0  0  0  0  0  0  0  0  0  0
   -4.1695   -0.1689   -1.5036 C   0  0  0  0  0  0  0  0  0  0  0  0
    2.8971    4.7391   -0.2310 C   0  0  0  0  0  0  0  0  0  0  0  0
   -3.7388    1.9732    0.2307 C   0  0  0  0  0  0  0  0  0  0  0  0
   -4.8510    1.0327   -1.6969 C   0  0  0  0  0  0  0  0  0  0  0  0
   -4.6356    2.1037   -0.8296 C   0  0  0  0  0  0  0  0  0  0  0  0
   -3.5188    3.0707    1.1188 C   0  0  0  0  0  0  0  0  0  0  0  0
    0.8659   -4.2199   -2.1684 H   0  0  0  0  0  0  0  0  0  0  0  0
    2.2675   -3.6653    1.8139 H   0  0  0  0  0  0  0  0  0  0  0  0
    2.7744   -4.2150   -0.5478 H   0  0  0  0  0  0  0  0  0  0  0  0
    1.4256   -5.1843    0.0469 H   0  0  0  0  0  0  0  0  0  0  0  0
   -1.0194   -4.5296   -0.6665 H   0  0  0  0  0  0  0  0  0  0  0  0
   -1.2262   -3.0443   -1.5898 H   0  0  0  0  0  0  0  0  0  0  0  0
    0.6251   -1.6481   -2.2627 H   0  0  0  0  0  0  0  0  0  0  0  0
    2.2398   -2.3270   -2.3293 H   0  0  0  0  0  0  0  0  0  0  0  0
   -0.1231   -4.2937    1.8101 H   0  0  0  0  0  0  0  0  0  0  0  0
    0.0699   -2.6589    2.4319 H   0  0  0  0  0  0  0  0  0  0  0  0
    2.7368   -1.4215    2.6672 H   0  0  0  0  0  0  0  0  0  0  0  0
    3.3104    0.8914    2.2187 H   0  0  0  0  0  0  0  0  0  0  0  0
   -2.7784   -2.2259   -0.9453 H   0  0  0  0  0  0  0  0  0  0  0  0
    5.1118    2.2679   -0.6934 H   0  0  0  0  0  0  0  0  0  0  0  0
    4.9588    4.9037   -0.8875 H   0  0  0  0  0  0  0  0  0  0  0  0
   -2.3438    0.7289    1.2385 H   0  0  0  0  0  0  0  0  0  0  0  0
   -4.3460   -0.9960   -2.1862 H   0  0  0  0  0  0  0  0  0  0  0  0
    2.5622    5.7667   -0.2212 H   0  0  0  0  0  0  0  0  0  0  0  0
   -5.5492    1.1344   -2.5225 H   0  0  0  0  0  0  0  0  0  0  0  0
   -5.1744    3.0340   -0.9934 H   0  0  0  0  0  0  0  0  0  0  0  0
  1 20  1  0  0  0  0
  1 26  1  0  0  0  0
  2 16  2  0  0  0  0
  3 17  2  0  0  0  0
  4 11  1  0  0  0  0
  4 13  1  0  0  0  0
  4 17  1  0  0  0  0
  5 12  1  0  0  0  0
  5 14  1  0  0  0  0
  5 16  1  0  0  0  0
  6 17  1  0  0  0  0
  6 21  1  0  0  0  0
  6 43  1  0  0  0  0
  7 30  3  0  0  0  0
  8 10  1  0  0  0  0
  8 11  1  0  0  0  0
  8 12  1  0  0  0  0
  8 31  1  0  0  0  0
  9 10  1  0  0  0  0
  9 13  1  0  0  0  0
  9 14  1  0  0  0  0
  9 32  1  0  0  0  0
 10 33  1  0  0  0  0
 10 34  1  0  0  0  0
 11 35  1  0  0  0  0
 11 36  1  0  0  0  0
 12 37  1  0  0  0  0
 12 38  1  0  0  0  0
 13 39  1  0  0  0  0
 13 40  1  0  0  0  0
 14 15  2  0  0  0  0
 15 19  1  0  0  0  0
 15 41  1  0  0  0  0
 16 18  1  0  0  0  0
 18 19  2  0  0  0  0
 18 20  1  0  0  0  0
 19 42  1  0  0  0  0
 20 22  2  0  0  0  0
 21 24  1  0  0  0  0
 21 25  2  0  0  0  0
 22 23  1  0  0  0  0
 22 44  1  0  0  0  0
 23 26  2  0  0  0  0
 23 45  1  0  0  0  0
 24 27  2  0  0  0  0
 24 46  1  0  0  0  0
 25 28  1  0  0  0  0
 25 47  1  0  0  0  0
 26 48  1  0  0  0  0
 27 29  1  0  0  0  0
 27 30  1  0  0  0  0
 28 29  2  0  0  0  0
 28 49  1  0  0  0  0
 29 50  1  0  0  0  0
M  END
> <PUBCHEM_COMPOUND_CID>
7143792

> <PUBCHEM_CONFORMER_RMSD>
0.8

> <PUBCHEM_CONFORMER_DIVERSEORDER>
1
46
7
44
33
83
60
85
39
18
76
43
82
74
47
42
5
54
45
34
70
48
56
41
72
77
36
4
57
59
81
63
40
69
62
52
66
79
35
67
51
22
78
49
50
65
73
84
8
3
64
14
68
24
58
75
71
16
37
38
21
30
32
20
55
61
17
19
2
53
6
26
28
23
31
15
29
11
12
80
27
9
25
13
10

> <PUBCHEM_MMFF94_PARTIAL_CHARGES>
38
1 -0.08
11 0.3
12 0.3
13 0.3
14 -0.03
15 -0.15
16 0.62
17 0.69
18 0.06
19 -0.15
2 -0.57
20 -0.01
21 0.12
22 -0.15
23 -0.15
24 -0.15
25 -0.15
26 -0.11
27 0.07
28 -0.15
29 -0.15
3 -0.57
30 0.48
4 -0.66
41 0.15
42 0.15
43 0.37
44 0.15
45 0.15
46 0.15
47 0.15
48 0.15
49 0.15
5 -0.47
50 0.15
6 -0.55
7 -0.56
9 0.14

> <PUBCHEM_EFFECTIVE_ROTOR_COUNT>
5

> <PUBCHEM_PHARMACOPHORE_FEATURES>
9
1 2 acceptor
1 3 acceptor
1 6 donor
1 7 acceptor
5 1 20 22 23 26 rings
6 21 24 25 27 28 29 rings
6 4 8 9 10 11 13 rings
6 5 14 15 16 18 19 rings
6 5 8 9 10 12 14 rings

> <PUBCHEM_HEAVY_ATOM_COUNT>
30

> <PUBCHEM_ATOM_DEF_STEREO_COUNT>
2

> <PUBCHEM_ATOM_UDEF_STEREO_COUNT>
0

> <PUBCHEM_BOND_DEF_STEREO_COUNT>
0

> <PUBCHEM_BOND_UDEF_STEREO_COUNT>
0

> <PUBCHEM_ISOTOPIC_ATOM_COUNT>
0

> <PUBCHEM_COMPONENT_COUNT>
1

> <PUBCHEM_CACTVS_TAUTO_COUNT>
2

> <PUBCHEM_CONFORMER_ID>
006D017000000001

> <PUBCHEM_MMFF94_ENERGY>
79.6284

> <PUBCHEM_FEATURE_SELFOVERLAP>
47.241

> <PUBCHEM_SHAPE_FINGERPRINT>
10439779 11 18268132185322645624
10483366 6 18124616206031776110
10675989 125 18337662015304472541
10871710 139 17616810371856397055
10937287 8 18264199386775040492
11059048 146 18341061786386843233
12633257 1 18042385989841475928
12788726 201 17615952740044157154
13590594 115 17545321873901661619
13761468 95 17836114494757117208
14289585 56 16470109376259195753
150020 26 14635993319460137625
15210252 30 17905910088496789806
17974551 9 15290093881702986253
20764821 26 18196638812733470961
21860390 5 18195797488379440430
238 59 18413111636777668707
25019877 29 16190347975193740198
474 4 18264197033460315171
550186 7 17619086352953021188
5895379 119 17556009195964776971
6201320 215 17476928325856934496
9981440 41 18265043803125833219

> <PUBCHEM_SHAPE_MULTIPOLES>
589.57
8.64
7.14
1.72
5.9
1.35
-0.07
11.49
1.76
-4.01
-0.55
0.54
-0.37
-1.25

> <PUBCHEM_SHAPE_SELFOVERLAP>
1285.548

> <PUBCHEM_SHAPE_VOLUME>
318.8

> <PUBCHEM_COORDINATE_TYPE>
2
5
10

$$$$
