56774163
  -OEChem-12032416213D

 52 54  0     1  0  0  0  0  0999 V2000
    1.5488    1.6655    1.0788 O   0  0  0  0  0  0  0  0  0  0  0  0
    3.9872    0.4497   -0.1939 O   0  0  0  0  0  0  0  0  0  0  0  0
   -4.8951   -1.3474   -0.4258 N   0  0  0  0  0  0  0  0  0  0  0  0
    0.3032    2.2253    0.8217 N   0  0  0  0  0  0  0  0  0  0  0  0
   -4.1601    1.0087   -0.1537 C   0  0  0  0  0  0  0  0  0  0  0  0
   -2.7060    1.0526    0.3607 C   0  0  1  0  0  0  0  0  0  0  0  0
   -4.2636   -0.3909    0.4872 C   0  0  2  0  0  0  0  0  0  0  0  0
   -2.7315   -0.4900    0.3346 C   0  0  0  0  0  0  0  0  0  0  0  0
   -1.6727    1.6805   -0.5466 C   0  0  0  0  0  0  0  0  0  0  0  0
   -5.1143    2.0029    0.4860 C   0  0  0  0  0  0  0  0  0  0  0  0
   -4.2796    1.1019   -1.6599 C   0  0  0  0  0  0  0  0  0  0  0  0
   -6.2722   -1.5856    0.0042 C   0  0  0  0  0  0  0  0  0  0  0  0
   -0.2813    1.3871   -0.0390 C   0  0  0  0  0  0  0  0  0  0  0  0
   -6.2989   -2.5628    1.1762 C   0  0  0  0  0  0  0  0  0  0  0  0
   -7.0863   -2.1172   -1.1711 C   0  0  0  0  0  0  0  0  0  0  0  0
    0.5394    0.2916   -0.3581 C   0  0  0  0  0  0  0  0  0  0  0  0
    1.6777    0.5144    0.3706 C   0  0  0  0  0  0  0  0  0  0  0  0
    2.9434   -0.2123    0.5259 C   0  0  0  0  0  0  0  0  0  0  0  0
    5.2112   -0.1584   -0.1884 C   0  0  0  0  0  0  0  0  0  0  0  0
    5.3895   -1.3608    0.4957 C   0  0  0  0  0  0  0  0  0  0  0  0
    6.2818    0.4234   -0.8671 C   0  0  0  0  0  0  0  0  0  0  0  0
    6.6387   -1.9815    0.5012 C   0  0  0  0  0  0  0  0  0  0  0  0
    7.5309   -0.1972   -0.8616 C   0  0  0  0  0  0  0  0  0  0  0  0
    7.7095   -1.3996   -0.1775 C   0  0  0  0  0  0  0  0  0  0  0  0
   -2.6370    1.4448    1.3872 H   0  0  0  0  0  0  0  0  0  0  0  0
   -4.5734   -0.4127    1.5387 H   0  0  0  0  0  0  0  0  0  0  0  0
   -2.3735   -0.9400   -0.6004 H   0  0  0  0  0  0  0  0  0  0  0  0
   -2.2146   -0.9786    1.1667 H   0  0  0  0  0  0  0  0  0  0  0  0
   -1.8226    2.7660   -0.5954 H   0  0  0  0  0  0  0  0  0  0  0  0
   -1.7250    1.3072   -1.5752 H   0  0  0  0  0  0  0  0  0  0  0  0
   -5.0554    1.9755    1.5799 H   0  0  0  0  0  0  0  0  0  0  0  0
   -4.8809    3.0273    0.1748 H   0  0  0  0  0  0  0  0  0  0  0  0
   -6.1533    1.7960    0.2075 H   0  0  0  0  0  0  0  0  0  0  0  0
   -4.0025    2.0988   -2.0225 H   0  0  0  0  0  0  0  0  0  0  0  0
   -3.6591    0.3721   -2.1915 H   0  0  0  0  0  0  0  0  0  0  0  0
   -5.3131    0.9307   -1.9853 H   0  0  0  0  0  0  0  0  0  0  0  0
   -4.4075   -2.2398   -0.5028 H   0  0  0  0  0  0  0  0  0  0  0  0
   -6.7443   -0.6454    0.3163 H   0  0  0  0  0  0  0  0  0  0  0  0
   -5.8404   -3.5220    0.9094 H   0  0  0  0  0  0  0  0  0  0  0  0
   -5.7781   -2.1750    2.0568 H   0  0  0  0  0  0  0  0  0  0  0  0
   -7.3325   -2.7662    1.4780 H   0  0  0  0  0  0  0  0  0  0  0  0
   -6.6884   -3.0699   -1.5386 H   0  0  0  0  0  0  0  0  0  0  0  0
   -7.0826   -1.4053   -2.0041 H   0  0  0  0  0  0  0  0  0  0  0  0
   -8.1292   -2.2800   -0.8780 H   0  0  0  0  0  0  0  0  0  0  0  0
    0.3360   -0.5376   -1.0195 H   0  0  0  0  0  0  0  0  0  0  0  0
    2.7925   -1.2253    0.1310 H   0  0  0  0  0  0  0  0  0  0  0  0
    3.1892   -0.2567    1.5946 H   0  0  0  0  0  0  0  0  0  0  0  0
    4.6084   -1.8689    1.0501 H   0  0  0  0  0  0  0  0  0  0  0  0
    6.1487    1.3599   -1.4017 H   0  0  0  0  0  0  0  0  0  0  0  0
    6.7794   -2.9171    1.0348 H   0  0  0  0  0  0  0  0  0  0  0  0
    8.3647    0.2559   -1.3900 H   0  0  0  0  0  0  0  0  0  0  0  0
    8.6823   -1.8826   -0.1730 H   0  0  0  0  0  0  0  0  0  0  0  0
  1  4  1  0  0  0  0
  1 17  1  0  0  0  0
  2 18  1  0  0  0  0
  2 19  1  0  0  0  0
  3  7  1  0  0  0  0
  3 12  1  0  0  0  0
  3 37  1  0  0  0  0
  4 13  2  0  0  0  0
  5  6  1  0  0  0  0
  5  7  1  0  0  0  0
  5 10  1  0  0  0  0
  5 11  1  0  0  0  0
  6  8  1  0  0  0  0
  6  9  1  0  0  0  0
  6 25  1  0  0  0  0
  7  8  1  0  0  0  0
  7 26  1  0  0  0  0
  8 27  1  0  0  0  0
  8 28  1  0  0  0  0
  9 13  1  0  0  0  0
  9 29  1  0  0  0  0
  9 30  1  0  0  0  0
 10 31  1  0  0  0  0
 10 32  1  0  0  0  0
 10 33  1  0  0  0  0
 11 34  1  0  0  0  0
 11 35  1  0  0  0  0
 11 36  1  0  0  0  0
 12 14  1  0  0  0  0
 12 15  1  0  0  0  0
 12 38  1  0  0  0  0
 13 16  1  0  0  0  0
 14 39  1  0  0  0  0
 14 40  1  0  0  0  0
 14 41  1  0  0  0  0
 15 42  1  0  0  0  0
 15 43  1  0  0  0  0
 15 44  1  0  0  0  0
 16 17  2  0  0  0  0
 16 45  1  0  0  0  0
 17 18  1  0  0  0  0
 18 46  1  0  0  0  0
 18 47  1  0  0  0  0
 19 20  2  0  0  0  0
 19 21  1  0  0  0  0
 20 22  1  0  0  0  0
 20 48  1  0  0  0  0
 21 23  2  0  0  0  0
 21 49  1  0  0  0  0
 22 24  2  0  0  0  0
 22 50  1  0  0  0  0
 23 24  1  0  0  0  0
 23 51  1  0  0  0  0
 24 52  1  0  0  0  0
M  END
> <PUBCHEM_COMPOUND_CID>
56774163

> <PUBCHEM_CONFORMER_RMSD>
1.2

> <PUBCHEM_CONFORMER_DIVERSEORDER>
1
98
18
90
5
81
25
88
50
27
31
53
11
21
107
59
2
43
100
16
9
62
109
97
92
49
79
23
30
111
73
91
28
58
69
102
22
36
17
33
35
39
19
41
110
60
34
72
95
74
106
83
101
67
10
61
42
51
55
46
47
103
108
104
26
85
96
38
44
94
12
66
8
37
99
56
6
76
45
89
29
77
75
82
40
80
64
71
54
78
84
15
57
7
3
87
63
24
86
93
13
20
65
14
105
48
32
4
68
70
52

> <PUBCHEM_MMFF94_PARTIAL_CHARGES>
24
1 -0.02
12 0.27
13 0.11
16 -0.15
17 -0.04
18 0.46
19 0.08
2 -0.36
20 -0.15
21 -0.15
22 -0.15
23 -0.15
24 -0.15
3 -0.84
37 0.36
4 -0.41
45 0.15
48 0.15
49 0.15
50 0.15
51 0.15
52 0.15
7 0.21
9 0.18

> <PUBCHEM_EFFECTIVE_ROTOR_COUNT>
7.8

> <PUBCHEM_PHARMACOPHORE_FEATURES>
9
1 2 acceptor
1 3 cation
1 3 donor
1 4 acceptor
3 12 14 15 hydrophobe
3 5 10 11 hydrophobe
4 5 6 7 8 rings
5 1 4 13 16 17 rings
6 19 20 21 22 23 24 rings

> <PUBCHEM_HEAVY_ATOM_COUNT>
24

> <PUBCHEM_ATOM_DEF_STEREO_COUNT>
2

> <PUBCHEM_ATOM_UDEF_STEREO_COUNT>
0

> <PUBCHEM_BOND_DEF_STEREO_COUNT>
0

> <PUBCHEM_BOND_UDEF_STEREO_COUNT>
0

> <PUBCHEM_ISOTOPIC_ATOM_COUNT>
0

> <PUBCHEM_COMPONENT_COUNT>
1

> <PUBCHEM_CACTVS_TAUTO_COUNT>
1

> <PUBCHEM_CONFORMER_ID>
03624E1300000001

> <PUBCHEM_MMFF94_ENERGY>
55.3355

> <PUBCHEM_FEATURE_SELFOVERLAP>
45.671

> <PUBCHEM_SHAPE_FINGERPRINT>
10 15 11600009872972924071
10299344 5 18408327670301127320
10554248 39 12396564244353538496
10595046 47 18187649072979541884
11315181 36 18413392020790611593
11524674 6 16988841683284890023
117089 54 17754465878387337315
117890 112 9295285045799427464
11963148 33 18343014459494118958
12166972 35 18409451422535086920
12236239 1 18261115149833748020
12760667 363 18340768247859302147
13288520 33 18410856564647121225
13631057 29 18410009914253887328
13668630 136 18271530810799254374
13673619 4 18343582962222367025
13685833 64 18202283627825265906
13690498 29 18261105279798519981
13782708 43 18412822503615410042
13862211 1 18342175566206517554
14123256 34 18343866623569221394
14178184 131 18128257981443036631
14251764 18 18343305889887671982
14729087 3 8070027753232477222
14849402 71 14260769772571623794
14931854 50 17894620466385818603
15183329 4 17022618663621236490
15352257 5 18411983550764250674
15461852 350 11602830115960796929
17093844 174 16988273188465424297
1768 4 7997692034846503815
17780758 139 17989211421874511569
18335252 98 18413109490074346176
18643901 69 18260550022432043671
21150785 3 17022620905230265238
21196832 93 17823146785672914594
21267235 1 18409451423162269395
21307412 95 18115017641552662983
21585483 132 17532919529577034762
21623969 137 17918277528562109998
21774942 28 13190602924445277782
21781051 124 17988937660923218238
22288116 15 13335026062124098043
23035841 295 18336829701959711808
23081809 10 18187369809510074964
23424782 7 18336265730278756192
23522609 53 18122658073758570064
23559900 14 18334855035185490952
3004659 81 18187363221225317976
312425 54 14333408947956561676
3383291 50 18343298197338234763
406291 66 17773023384269917415
4107672 100 17967809393654200829
439807 62 18334577953580197387
465052 167 18131071537334614012
5104073 3 15194707060410555403
5385378 56 10231490609227181372
5470011 282 17676491687050145430
559249 180 18412543194019582815
5718773 13 18271238430647748311
59682541 52 14852155192783776466
6327066 14 9439136325520769507
636775 8 18272379633966009670
8863177 126 18271240646286162722
999808 66 18261682549268137571

> <PUBCHEM_SHAPE_MULTIPOLES>
472.21
23.52
2.42
1.06
21.51
0.57
0.18
16.51
3.89
-3.53
-0.35
-0.81
0
-0.26

> <PUBCHEM_SHAPE_SELFOVERLAP>
988.91

> <PUBCHEM_SHAPE_VOLUME>
271.4

> <PUBCHEM_COORDINATE_TYPE>
2
5
10

$$$$
