7686467
  -OEChem-12032416343D

 56 60  0     1  0  0  0  0  0999 V2000
   -7.2593   -1.3997   -1.0339 Cl  0  0  0  0  0  0  0  0  0  0  0  0
    4.6284   -1.6083    2.0083 O   0  0  0  0  0  0  0  0  0  0  0  0
    2.2242    1.1223   -1.4346 N   0  0  2  0  0  0  0  0  0  0  0  0
    3.0784   -1.4435    0.2606 N   0  0  0  0  0  0  0  0  0  0  0  0
   -0.4920    2.1666    3.8668 N   0  0  0  0  0  0  0  0  0  0  0  0
    3.7871   -0.7201   -2.0967 C   0  0  1  0  0  0  0  0  0  0  0  0
    1.4428   -1.2416   -1.6339 C   0  0  2  0  0  0  0  0  0  0  0  0
    2.6207   -1.5825   -2.5436 C   0  0  0  0  0  0  0  0  0  0  0  0
    3.4229    0.7746   -2.2066 C   0  0  0  0  0  0  0  0  0  0  0  0
    1.0906    0.2564   -1.7898 C   0  0  0  0  0  0  0  0  0  0  0  0
    4.1692   -1.1322   -0.6741 C   0  0  0  0  0  0  0  0  0  0  0  0
    1.7407   -1.5726   -0.1675 C   0  0  0  0  0  0  0  0  0  0  0  0
    1.8805    2.5316   -1.6075 C   0  0  0  0  0  0  0  0  0  0  0  0
    0.7734   -1.9577    0.7083 C   0  0  0  0  0  0  0  0  0  0  0  0
    3.4752   -1.6924    1.5854 C   0  0  0  0  0  0  0  0  0  0  0  0
    1.1578   -2.2242    2.0854 C   0  0  0  0  0  0  0  0  0  0  0  0
    0.7160    2.9352   -0.7426 C   0  0  0  0  0  0  0  0  0  0  0  0
    2.4095   -2.0995    2.5252 C   0  0  0  0  0  0  0  0  0  0  0  0
   -0.6254   -2.0845    0.3329 C   0  0  0  0  0  0  0  0  0  0  0  0
    0.6781    2.5318    0.5846 C   0  0  0  0  0  0  0  0  0  0  0  0
   -0.3027    3.7056   -1.2854 C   0  0  0  0  0  0  0  0  0  0  0  0
   -1.4827   -1.0685    0.4171 C   0  0  0  0  0  0  0  0  0  0  0  0
   -0.4007    2.9065    1.3855 C   0  0  0  0  0  0  0  0  0  0  0  0
   -1.3814    4.0802   -0.4845 C   0  0  0  0  0  0  0  0  0  0  0  0
   -1.4305    3.6807    0.8510 C   0  0  0  0  0  0  0  0  0  0  0  0
   -2.9092   -1.1507    0.0580 C   0  0  0  0  0  0  0  0  0  0  0  0
   -3.5256   -2.3905    0.0035 C   0  0  0  0  0  0  0  0  0  0  0  0
   -3.6076    0.0139   -0.2177 C   0  0  0  0  0  0  0  0  0  0  0  0
   -0.4511    2.4984    2.7539 C   0  0  0  0  0  0  0  0  0  0  0  0
   -4.8764   -2.4678   -0.3356 C   0  0  0  0  0  0  0  0  0  0  0  0
   -4.9584   -0.0634   -0.5568 C   0  0  0  0  0  0  0  0  0  0  0  0
   -5.5928   -1.3042   -0.6159 C   0  0  0  0  0  0  0  0  0  0  0  0
    4.6489   -0.8987   -2.7519 H   0  0  0  0  0  0  0  0  0  0  0  0
    0.5887   -1.8337   -1.9856 H   0  0  0  0  0  0  0  0  0  0  0  0
    2.8717   -2.6486   -2.4779 H   0  0  0  0  0  0  0  0  0  0  0  0
    2.3691   -1.3756   -3.5910 H   0  0  0  0  0  0  0  0  0  0  0  0
    4.2729    1.3703   -1.8511 H   0  0  0  0  0  0  0  0  0  0  0  0
    3.2791    1.0240   -3.2669 H   0  0  0  0  0  0  0  0  0  0  0  0
    0.7892    0.4385   -2.8312 H   0  0  0  0  0  0  0  0  0  0  0  0
    0.2116    0.4672   -1.1769 H   0  0  0  0  0  0  0  0  0  0  0  0
    4.7785   -2.0452   -0.7289 H   0  0  0  0  0  0  0  0  0  0  0  0
    4.8138   -0.3705   -0.2169 H   0  0  0  0  0  0  0  0  0  0  0  0
    1.6657    2.7464   -2.6630 H   0  0  0  0  0  0  0  0  0  0  0  0
    2.7311    3.1638   -1.3208 H   0  0  0  0  0  0  0  0  0  0  0  0
    0.3798   -2.5285    2.7801 H   0  0  0  0  0  0  0  0  0  0  0  0
    2.6745   -2.2983    3.5567 H   0  0  0  0  0  0  0  0  0  0  0  0
   -0.9009   -3.0653   -0.0418 H   0  0  0  0  0  0  0  0  0  0  0  0
    1.4844    1.9390    1.0109 H   0  0  0  0  0  0  0  0  0  0  0  0
   -0.2760    4.0237   -2.3237 H   0  0  0  0  0  0  0  0  0  0  0  0
   -1.1444   -0.1020    0.7818 H   0  0  0  0  0  0  0  0  0  0  0  0
   -2.1835    4.6825   -0.9009 H   0  0  0  0  0  0  0  0  0  0  0  0
   -2.2786    3.9799    1.4624 H   0  0  0  0  0  0  0  0  0  0  0  0
   -3.0148   -3.3196    0.2355 H   0  0  0  0  0  0  0  0  0  0  0  0
   -3.1265    0.9874   -0.1779 H   0  0  0  0  0  0  0  0  0  0  0  0
   -5.3595   -3.4409   -0.3729 H   0  0  0  0  0  0  0  0  0  0  0  0
   -5.5039    0.8516   -0.7731 H   0  0  0  0  0  0  0  0  0  0  0  0
  1 32  1  0  0  0  0
  2 15  2  0  0  0  0
  3  9  1  0  0  0  0
  3 10  1  0  0  0  0
  3 13  1  0  0  0  0
  4 11  1  0  0  0  0
  4 12  1  0  0  0  0
  4 15  1  0  0  0  0
  5 29  3  0  0  0  0
  6  8  1  0  0  0  0
  6  9  1  0  0  0  0
  6 11  1  0  0  0  0
  6 33  1  0  0  0  0
  7  8  1  0  0  0  0
  7 10  1  0  0  0  0
  7 12  1  0  0  0  0
  7 34  1  0  0  0  0
  8 35  1  0  0  0  0
  8 36  1  0  0  0  0
  9 37  1  0  0  0  0
  9 38  1  0  0  0  0
 10 39  1  0  0  0  0
 10 40  1  0  0  0  0
 11 41  1  0  0  0  0
 11 42  1  0  0  0  0
 12 14  2  0  0  0  0
 13 17  1  0  0  0  0
 13 43  1  0  0  0  0
 13 44  1  0  0  0  0
 14 16  1  0  0  0  0
 14 19  1  0  0  0  0
 15 18  1  0  0  0  0
 16 18  2  0  0  0  0
 16 45  1  0  0  0  0
 17 20  2  0  0  0  0
 17 21  1  0  0  0  0
 18 46  1  0  0  0  0
 19 22  2  0  0  0  0
 19 47  1  0  0  0  0
 20 23  1  0  0  0  0
 20 48  1  0  0  0  0
 21 24  2  0  0  0  0
 21 49  1  0  0  0  0
 22 26  1  0  0  0  0
 22 50  1  0  0  0  0
 23 25  2  0  0  0  0
 23 29  1  0  0  0  0
 24 25  1  0  0  0  0
 24 51  1  0  0  0  0
 25 52  1  0  0  0  0
 26 27  2  0  0  0  0
 26 28  1  0  0  0  0
 27 30  1  0  0  0  0
 27 53  1  0  0  0  0
 28 31  2  0  0  0  0
 28 54  1  0  0  0  0
 30 32  2  0  0  0  0
 30 55  1  0  0  0  0
 31 32  1  0  0  0  0
 31 56  1  0  0  0  0
M  END
> <PUBCHEM_COMPOUND_CID>
7686467

> <PUBCHEM_CONFORMER_RMSD>
0.8

> <PUBCHEM_CONFORMER_DIVERSEORDER>
1
14
18
13
12
2
6
15
19
22
9
11
17
4
20
5
8
21
16
10
3
7

> <PUBCHEM_MMFF94_PARTIAL_CHARGES>
41
1 -0.18
10 0.27
11 0.3
12 -0.03
13 0.41
15 0.62
16 -0.15
17 -0.14
18 -0.14
19 -0.15
2 -0.57
20 -0.15
21 -0.15
22 -0.18
23 0.07
24 -0.15
25 -0.15
26 0.03
27 -0.15
28 -0.15
29 0.48
3 -0.81
30 -0.15
31 -0.15
32 0.18
4 -0.47
45 0.15
46 0.15
47 0.15
48 0.15
49 0.15
5 -0.56
50 0.15
51 0.15
52 0.15
53 0.15
54 0.15
55 0.15
56 0.15
7 0.14
9 0.27

> <PUBCHEM_EFFECTIVE_ROTOR_COUNT>
5

> <PUBCHEM_PHARMACOPHORE_FEATURES>
8
1 2 acceptor
1 3 cation
1 5 acceptor
6 17 20 21 23 24 25 rings
6 26 27 28 30 31 32 rings
6 3 6 7 8 9 10 rings
6 4 12 14 15 16 18 rings
6 4 6 7 8 11 12 rings

> <PUBCHEM_HEAVY_ATOM_COUNT>
32

> <PUBCHEM_ATOM_DEF_STEREO_COUNT>
2

> <PUBCHEM_ATOM_UDEF_STEREO_COUNT>
0

> <PUBCHEM_BOND_DEF_STEREO_COUNT>
1

> <PUBCHEM_BOND_UDEF_STEREO_COUNT>
0

> <PUBCHEM_ISOTOPIC_ATOM_COUNT>
0

> <PUBCHEM_COMPONENT_COUNT>
1

> <PUBCHEM_CACTVS_TAUTO_COUNT>
1

> <PUBCHEM_CONFORMER_ID>
0075494300000001

> <PUBCHEM_MMFF94_ENERGY>
88.7029

> <PUBCHEM_FEATURE_SELFOVERLAP>
42.141

> <PUBCHEM_SHAPE_FINGERPRINT>
10064457 181 8574148276795716174
10675989 125 18119257396274095901
11421498 54 18188198789416564675
12156800 1 16375742909941859960
12166972 35 17822562829002558987
12539745 222 18050543181426948282
12788726 201 18336554806714357253
14004853 49 17261595072178034505
14068700 675 18114449068906413066
14931854 50 18261971733072341470
14932702 115 18123455091234989861
15297060 5 17554055337916280113
15392192 104 10375310115597917959
17974551 9 12258306283146261215
18681886 176 18340205305404559022
19026451 147 18411418449074282311
20600515 1 18201995530156905691
20764821 26 18116130218059087933
20775438 99 17554587867176247695
21344244 78 17897417572037078387
21860390 5 18197208376561890639
23557571 272 17916304948339673371
23559900 14 18269271447611529359
238 59 17264147527821648141
3052486 1 18192435164689025352
3380486 77 18334579035927994922
345986 75 17533471505197391338
35225 105 17622980431890182676
4066623 53 18189313759370026493
469060 322 18191589657469463321
513532 50 18200308964960604607
57527306 92 18270116941666576348
5895379 119 18269282265637102838
6086070 43 18336251453981901967

> <PUBCHEM_SHAPE_MULTIPOLES>
639.6
9.78
4.96
2.84
17.08
5.89
-1.78
-9.22
4.16
0.48
-1.3
-2.92
0.59
-1.92

> <PUBCHEM_SHAPE_SELFOVERLAP>
1395.634

> <PUBCHEM_SHAPE_VOLUME>
344.6

> <PUBCHEM_COORDINATE_TYPE>
2
5
10

$$$$
