45783474
  -OEChem-12032416293D

 59 62  0     1  0  0  0  0  0999 V2000
   -1.6657   -2.9000    1.2975 O   0  0  0  0  0  0  0  0  0  0  0  0
    7.5763    1.5052    0.1958 O   0  0  0  0  0  0  0  0  0  0  0  0
   -3.8874   -0.5378   -0.4314 N   0  0  1  0  0  0  0  0  0  0  0  0
   -1.0156   -1.2906   -0.1184 N   0  0  0  0  0  0  0  0  0  0  0  0
   -0.2750   -2.8013    1.4320 N   0  0  0  0  0  0  0  0  0  0  0  0
    3.7261   -1.5622    0.9141 N   0  0  0  0  0  0  0  0  0  0  0  0
    5.3000   -0.1434   -0.1748 N   0  0  0  0  0  0  0  0  0  0  0  0
   -4.0844    1.8308    0.1966 C   0  0  0  0  0  0  0  0  0  0  0  0
   -4.2025    0.3790    0.6566 C   0  0  0  0  0  0  0  0  0  0  0  0
   -3.4949   -1.8824    0.0358 C   0  0  1  0  0  0  0  0  0  0  0  0
   -4.3924    2.7923    1.3524 C   0  0  0  0  0  0  0  0  0  0  0  0
   -2.6904    2.1036   -0.3843 C   0  0  0  0  0  0  0  0  0  0  0  0
   -5.0213   -0.7291   -1.3359 C   0  0  0  0  0  0  0  0  0  0  0  0
   -3.9107   -2.8297   -1.1049 C   0  0  0  0  0  0  0  0  0  0  0  0
   -4.5816   -1.9366   -2.1389 C   0  0  0  0  0  0  0  0  0  0  0  0
   -4.2290    4.2509    0.9310 C   0  0  0  0  0  0  0  0  0  0  0  0
   -2.5297    3.5634   -0.8026 C   0  0  0  0  0  0  0  0  0  0  0  0
   -2.8452    4.5161    0.3462 C   0  0  0  0  0  0  0  0  0  0  0  0
   -2.0200   -1.9767    0.3655 C   0  0  0  0  0  0  0  0  0  0  0  0
    0.0338   -1.8317    0.5658 C   0  0  0  0  0  0  0  0  0  0  0  0
    1.3800   -1.3817    0.3590 C   0  0  0  0  0  0  0  0  0  0  0  0
    1.6658   -0.3709   -0.5522 C   0  0  0  0  0  0  0  0  0  0  0  0
    2.4363   -1.9398    1.0608 C   0  0  0  0  0  0  0  0  0  0  0  0
    2.9806    0.0448   -0.7311 C   0  0  0  0  0  0  0  0  0  0  0  0
    3.9653   -0.5771    0.0195 C   0  0  0  0  0  0  0  0  0  0  0  0
    5.6483    0.8880   -1.0970 C   0  0  0  0  0  0  0  0  0  0  0  0
    7.1531    1.0971   -1.0989 C   0  0  0  0  0  0  0  0  0  0  0  0
    8.9802    1.7196    0.2416 C   0  0  0  0  0  0  0  0  0  0  0  0
   -4.8263    2.0178   -0.5919 H   0  0  0  0  0  0  0  0  0  0  0  0
   -5.1965    0.1813    1.0785 H   0  0  0  0  0  0  0  0  0  0  0  0
   -3.4904    0.2324    1.4802 H   0  0  0  0  0  0  0  0  0  0  0  0
   -4.0715   -2.1586    0.9301 H   0  0  0  0  0  0  0  0  0  0  0  0
   -5.4168    2.6322    1.7093 H   0  0  0  0  0  0  0  0  0  0  0  0
   -3.7250    2.5860    2.1990 H   0  0  0  0  0  0  0  0  0  0  0  0
   -2.4998    1.4772   -1.2632 H   0  0  0  0  0  0  0  0  0  0  0  0
   -1.9199    1.8554    0.3572 H   0  0  0  0  0  0  0  0  0  0  0  0
   -5.1909    0.1349   -1.9854 H   0  0  0  0  0  0  0  0  0  0  0  0
   -5.9485   -0.9558   -0.7945 H   0  0  0  0  0  0  0  0  0  0  0  0
   -3.0748   -3.3801   -1.5501 H   0  0  0  0  0  0  0  0  0  0  0  0
   -4.6343   -3.5633   -0.7290 H   0  0  0  0  0  0  0  0  0  0  0  0
   -5.4172   -2.4365   -2.6374 H   0  0  0  0  0  0  0  0  0  0  0  0
   -3.8538   -1.6422   -2.9053 H   0  0  0  0  0  0  0  0  0  0  0  0
   -4.9945    4.5035    0.1870 H   0  0  0  0  0  0  0  0  0  0  0  0
   -4.3954    4.9045    1.7947 H   0  0  0  0  0  0  0  0  0  0  0  0
   -3.1962    3.7764   -1.6474 H   0  0  0  0  0  0  0  0  0  0  0  0
   -1.5055    3.7355   -1.1526 H   0  0  0  0  0  0  0  0  0  0  0  0
   -2.7859    5.5519   -0.0065 H   0  0  0  0  0  0  0  0  0  0  0  0
   -2.0889    4.4022    1.1326 H   0  0  0  0  0  0  0  0  0  0  0  0
    0.8842    0.1104   -1.1346 H   0  0  0  0  0  0  0  0  0  0  0  0
    2.2984   -2.7327    1.7899 H   0  0  0  0  0  0  0  0  0  0  0  0
    3.1678    0.8357   -1.4476 H   0  0  0  0  0  0  0  0  0  0  0  0
    6.0104   -0.6036    0.3828 H   0  0  0  0  0  0  0  0  0  0  0  0
    5.3396    0.6274   -2.1159 H   0  0  0  0  0  0  0  0  0  0  0  0
    5.1683    1.8303   -0.8061 H   0  0  0  0  0  0  0  0  0  0  0  0
    7.6657    0.1674   -1.3748 H   0  0  0  0  0  0  0  0  0  0  0  0
    7.4132    1.8718   -1.8295 H   0  0  0  0  0  0  0  0  0  0  0  0
    9.5173    0.7955    0.0071 H   0  0  0  0  0  0  0  0  0  0  0  0
    9.2705    2.5120   -0.4551 H   0  0  0  0  0  0  0  0  0  0  0  0
    9.2479    2.0309    1.2549 H   0  0  0  0  0  0  0  0  0  0  0  0
  1  5  1  0  0  0  0
  1 19  1  0  0  0  0
  2 27  1  0  0  0  0
  2 28  1  0  0  0  0
  3  9  1  0  0  0  0
  3 10  1  0  0  0  0
  3 13  1  0  0  0  0
  4 19  2  0  0  0  0
  4 20  1  0  0  0  0
  5 20  2  0  0  0  0
  6 23  1  0  0  0  0
  6 25  2  0  0  0  0
  7 25  1  0  0  0  0
  7 26  1  0  0  0  0
  7 52  1  0  0  0  0
  8  9  1  0  0  0  0
  8 11  1  0  0  0  0
  8 12  1  0  0  0  0
  8 29  1  0  0  0  0
  9 30  1  0  0  0  0
  9 31  1  0  0  0  0
 10 14  1  0  0  0  0
 10 19  1  0  0  0  0
 10 32  1  0  0  0  0
 11 16  1  0  0  0  0
 11 33  1  0  0  0  0
 11 34  1  0  0  0  0
 12 17  1  0  0  0  0
 12 35  1  0  0  0  0
 12 36  1  0  0  0  0
 13 15  1  0  0  0  0
 13 37  1  0  0  0  0
 13 38  1  0  0  0  0
 14 15  1  0  0  0  0
 14 39  1  0  0  0  0
 14 40  1  0  0  0  0
 15 41  1  0  0  0  0
 15 42  1  0  0  0  0
 16 18  1  0  0  0  0
 16 43  1  0  0  0  0
 16 44  1  0  0  0  0
 17 18  1  0  0  0  0
 17 45  1  0  0  0  0
 17 46  1  0  0  0  0
 18 47  1  0  0  0  0
 18 48  1  0  0  0  0
 20 21  1  0  0  0  0
 21 22  1  0  0  0  0
 21 23  2  0  0  0  0
 22 24  2  0  0  0  0
 22 49  1  0  0  0  0
 23 50  1  0  0  0  0
 24 25  1  0  0  0  0
 24 51  1  0  0  0  0
 26 27  1  0  0  0  0
 26 53  1  0  0  0  0
 26 54  1  0  0  0  0
 27 55  1  0  0  0  0
 27 56  1  0  0  0  0
 28 57  1  0  0  0  0
 28 58  1  0  0  0  0
 28 59  1  0  0  0  0
M  END
> <PUBCHEM_COMPOUND_CID>
45783474

> <PUBCHEM_CONFORMER_RMSD>
1

> <PUBCHEM_CONFORMER_DIVERSEORDER>
1
65
31
53
49
11
47
15
32
76
27
24
72
29
58
8
56
61
50
17
62
5
38
70
52
59
6
60
36
71
23
51
3
14
69
44
37
41
64
10
20
35
48
74
42
26
43
9
34
63
45
55
25
21
18
4
57
73
13
66
22
46
67
75
33
68
54
12
40
39
19
30
28
2
16
7

> <PUBCHEM_MMFF94_PARTIAL_CHARGES>
24
1 -0.02
10 0.45
13 0.27
19 0.3
2 -0.56
20 0.46
21 0.05
22 -0.15
23 0.16
24 -0.15
25 0.41
26 0.37
27 0.28
28 0.28
3 -0.81
4 -0.57
49 0.15
5 -0.41
50 0.15
51 0.15
52 0.4
6 -0.62
7 -0.87
9 0.27

> <PUBCHEM_EFFECTIVE_ROTOR_COUNT>
10.2

> <PUBCHEM_PHARMACOPHORE_FEATURES>
9
1 2 acceptor
1 3 cation
1 7 donor
3 4 5 20 cation
3 6 7 25 cation
5 1 4 5 19 20 rings
5 3 10 13 14 15 rings
6 6 21 22 23 24 25 rings
6 8 11 12 16 17 18 rings

> <PUBCHEM_HEAVY_ATOM_COUNT>
28

> <PUBCHEM_ATOM_DEF_STEREO_COUNT>
1

> <PUBCHEM_ATOM_UDEF_STEREO_COUNT>
0

> <PUBCHEM_BOND_DEF_STEREO_COUNT>
0

> <PUBCHEM_BOND_UDEF_STEREO_COUNT>
0

> <PUBCHEM_ISOTOPIC_ATOM_COUNT>
0

> <PUBCHEM_COMPONENT_COUNT>
1

> <PUBCHEM_CACTVS_TAUTO_COUNT>
8

> <PUBCHEM_CONFORMER_ID>
02BA99B200000001

> <PUBCHEM_MMFF94_ENERGY>
50.58

> <PUBCHEM_FEATURE_SELFOVERLAP>
45.672

> <PUBCHEM_SHAPE_FINGERPRINT>
10087517 78 18409730681524665068
10291535 26 18335146426919622963
10454371 7 18343869913620087620
10670039 82 18410007767144908960
10871710 139 18338795620787702229
10917259 128 18270670984311851384
10951579 204 18265917799961528732
11477941 20 18058436759325981989
11578080 2 17345210925524415343
11761917 142 18412258416440986296
12107183 9 17831854660161788650
12788726 201 18410568488094706043
14114211 80 17699013882087899737
14202776 33 18202558501405646844
14251764 75 17908997508590137081
14394314 77 18408609132979459965
14765038 42 18127709148745937017
15064981 113 17987785307342245302
15183329 4 17967812765456508102
15289351 153 18337664305428538976
15419008 47 17987234606703636504
155225 5 18338802208741040000
15876981 60 18338518659399621007
16126227 98 18271252603929256993
20771845 165 18201169779898090558
21033648 29 15647044924682118399
21033650 10 18269293303882629022
21774942 28 18413393125546466996
2838139 119 18340491157743357880
312425 83 18129669569203632759
397830 11 10881691273505869254
437795 83 18340768234563158228
445580 204 18409731777152385676
44802255 64 17632299012406282814
50677037 204 18260831501398403380
5104073 3 17748547039711413186
5171179 24 17916296315498100760
5252454 2 18053376609710782249
531348 171 18201725011521065054
550186 7 18131351882276074943
563151 74 15141232196413936777
6058803 2 18192693563245149387
6201320 215 18272087168062727384
636775 72 18339643456059849032
6371009 1 18188205507251648540
6608658 132 18411691119267705903
6700243 42 17552400881901493935
7288768 16 17750249023554969531
7808743 9 18340206267829829729
9982175 49 17750254619629039308

> <PUBCHEM_SHAPE_MULTIPOLES>
539.58
18.02
5.09
1.36
46.69
5.02
-0.23
12.22
-3.48
-8.64
1.05
-0.99
-0.53
-2.86

> <PUBCHEM_SHAPE_SELFOVERLAP>
1130.847

> <PUBCHEM_SHAPE_VOLUME>
305.2

> <PUBCHEM_COORDINATE_TYPE>
2
5
10

$$$$
