75368554
  -OEChem-12032416393D

 46 48  0     1  0  0  0  0  0999 V2000
   -6.2623    0.2935    0.3302 O   0  0  0  0  0  0  0  0  0  0  0  0
    3.6293    2.1969    0.7980 O   0  0  0  0  0  0  0  0  0  0  0  0
    3.3901   -2.4235   -0.4401 O   0  0  0  0  0  0  0  0  0  0  0  0
    4.7298   -0.3451    0.8072 O   0  0  0  0  0  0  0  0  0  0  0  0
   -3.9112    0.3510    0.2491 N   0  0  0  0  0  0  0  0  0  0  0  0
   -1.3237    0.7263   -0.7855 N   0  0  2  0  0  0  0  0  0  0  0  0
   -4.9151   -1.4368    1.1665 N   0  0  0  0  0  0  0  0  0  0  0  0
   -2.8242   -0.4509    0.7700 C   0  0  2  0  0  0  0  0  0  0  0  0
   -1.7253   -0.6028   -0.2813 C   0  0  0  0  0  0  0  0  0  0  0  0
   -3.6157    1.6101   -0.4019 C   0  0  0  0  0  0  0  0  0  0  0  0
   -3.5048   -1.7538    1.1816 C   0  0  0  0  0  0  0  0  0  0  0  0
   -2.4703    1.4255   -1.4006 C   0  0  0  0  0  0  0  0  0  0  0  0
   -5.1627   -0.1940    0.5535 C   0  0  0  0  0  0  0  0  0  0  0  0
   -0.2304    0.5964   -1.7485 C   0  0  0  0  0  0  0  0  0  0  0  0
    1.0892    0.3460   -1.0683 C   0  0  0  0  0  0  0  0  0  0  0  0
    1.6405   -0.9353   -1.0658 C   0  0  0  0  0  0  0  0  0  0  0  0
    1.7604    1.3952   -0.4405 C   0  0  0  0  0  0  0  0  0  0  0  0
    2.9829    1.1631    0.1899 C   0  0  0  0  0  0  0  0  0  0  0  0
    2.8631   -1.1674   -0.4355 C   0  0  0  0  0  0  0  0  0  0  0  0
    3.5343   -0.1181    0.1922 C   0  0  0  0  0  0  0  0  0  0  0  0
    2.9970    3.4744    0.7495 C   0  0  0  0  0  0  0  0  0  0  0  0
    2.6396   -3.4386   -1.1042 C   0  0  0  0  0  0  0  0  0  0  0  0
    4.6892   -0.7122    2.1844 C   0  0  0  0  0  0  0  0  0  0  0  0
   -2.4379    0.0686    1.6569 H   0  0  0  0  0  0  0  0  0  0  0  0
   -0.8841   -1.1204    0.1920 H   0  0  0  0  0  0  0  0  0  0  0  0
   -2.0762   -1.2318   -1.1108 H   0  0  0  0  0  0  0  0  0  0  0  0
   -3.3328    2.3228    0.3813 H   0  0  0  0  0  0  0  0  0  0  0  0
   -4.5164    1.9880   -0.8957 H   0  0  0  0  0  0  0  0  0  0  0  0
   -3.3377   -2.5693    0.4712 H   0  0  0  0  0  0  0  0  0  0  0  0
   -3.2148   -2.0813    2.1836 H   0  0  0  0  0  0  0  0  0  0  0  0
   -2.8328    0.8607   -2.2700 H   0  0  0  0  0  0  0  0  0  0  0  0
   -2.1642    2.4167   -1.7559 H   0  0  0  0  0  0  0  0  0  0  0  0
   -0.4409   -0.1752   -2.5017 H   0  0  0  0  0  0  0  0  0  0  0  0
   -0.1139    1.5278   -2.3207 H   0  0  0  0  0  0  0  0  0  0  0  0
   -5.6466   -2.0667    1.4802 H   0  0  0  0  0  0  0  0  0  0  0  0
    1.0741   -1.7114   -1.5694 H   0  0  0  0  0  0  0  0  0  0  0  0
    1.2830    2.3688   -0.4751 H   0  0  0  0  0  0  0  0  0  0  0  0
    3.6478    4.1759    1.2820 H   0  0  0  0  0  0  0  0  0  0  0  0
    2.0369    3.4702    1.2768 H   0  0  0  0  0  0  0  0  0  0  0  0
    2.9080    3.8425   -0.2783 H   0  0  0  0  0  0  0  0  0  0  0  0
    3.2057   -4.3711   -1.0091 H   0  0  0  0  0  0  0  0  0  0  0  0
    2.5436   -3.2341   -2.1760 H   0  0  0  0  0  0  0  0  0  0  0  0
    1.6706   -3.6055   -0.6216 H   0  0  0  0  0  0  0  0  0  0  0  0
    5.7162   -0.8586    2.5301 H   0  0  0  0  0  0  0  0  0  0  0  0
    4.1387   -1.6489    2.3176 H   0  0  0  0  0  0  0  0  0  0  0  0
    4.2292    0.0815    2.7814 H   0  0  0  0  0  0  0  0  0  0  0  0
  1 13  2  0  0  0  0
  2 18  1  0  0  0  0
  2 21  1  0  0  0  0
  3 19  1  0  0  0  0
  3 22  1  0  0  0  0
  4 20  1  0  0  0  0
  4 23  1  0  0  0  0
  5  8  1  0  0  0  0
  5 10  1  0  0  0  0
  5 13  1  0  0  0  0
  6  9  1  0  0  0  0
  6 12  1  0  0  0  0
  6 14  1  0  0  0  0
  7 11  1  0  0  0  0
  7 13  1  0  0  0  0
  7 35  1  0  0  0  0
  8  9  1  0  0  0  0
  8 11  1  0  0  0  0
  8 24  1  0  0  0  0
  9 25  1  0  0  0  0
  9 26  1  0  0  0  0
 10 12  1  0  0  0  0
 10 27  1  0  0  0  0
 10 28  1  0  0  0  0
 11 29  1  0  0  0  0
 11 30  1  0  0  0  0
 12 31  1  0  0  0  0
 12 32  1  0  0  0  0
 14 15  1  0  0  0  0
 14 33  1  0  0  0  0
 14 34  1  0  0  0  0
 15 16  2  0  0  0  0
 15 17  1  0  0  0  0
 16 19  1  0  0  0  0
 16 36  1  0  0  0  0
 17 18  2  0  0  0  0
 17 37  1  0  0  0  0
 18 20  1  0  0  0  0
 19 20  2  0  0  0  0
 21 38  1  0  0  0  0
 21 39  1  0  0  0  0
 21 40  1  0  0  0  0
 22 41  1  0  0  0  0
 22 42  1  0  0  0  0
 22 43  1  0  0  0  0
 23 44  1  0  0  0  0
 23 45  1  0  0  0  0
 23 46  1  0  0  0  0
M  END
> <PUBCHEM_COMPOUND_CID>
75368554

> <PUBCHEM_CONFORMER_RMSD>
0.8

> <PUBCHEM_CONFORMER_DIVERSEORDER>
1
27
5
25
19
21
23
32
13
20
30
22
6
16
33
26
11
18
14
10
24
12
9
8
17
29
4
31
7
15
28
3
2

> <PUBCHEM_MMFF94_PARTIAL_CHARGES>
26
1 -0.57
10 0.3
11 0.3
12 0.27
13 0.69
14 0.41
15 -0.14
16 -0.15
17 -0.15
18 0.08
19 0.08
2 -0.36
20 0.08
21 0.28
22 0.28
23 0.28
3 -0.36
35 0.37
36 0.15
37 0.15
4 -0.36
5 -0.66
6 -0.81
7 -0.73
8 0.3
9 0.27

> <PUBCHEM_EFFECTIVE_ROTOR_COUNT>
6.2

> <PUBCHEM_PHARMACOPHORE_FEATURES>
9
1 1 acceptor
1 2 acceptor
1 3 acceptor
1 4 acceptor
1 6 cation
1 7 donor
5 5 7 8 11 13 rings
6 15 16 17 18 19 20 rings
6 5 6 8 9 10 12 rings

> <PUBCHEM_HEAVY_ATOM_COUNT>
23

> <PUBCHEM_ATOM_DEF_STEREO_COUNT>
1

> <PUBCHEM_ATOM_UDEF_STEREO_COUNT>
0

> <PUBCHEM_BOND_DEF_STEREO_COUNT>
0

> <PUBCHEM_BOND_UDEF_STEREO_COUNT>
0

> <PUBCHEM_ISOTOPIC_ATOM_COUNT>
0

> <PUBCHEM_COMPONENT_COUNT>
1

> <PUBCHEM_CACTVS_TAUTO_COUNT>
2

> <PUBCHEM_CONFORMER_ID>
047E086A00000001

> <PUBCHEM_MMFF94_ENERGY>
86.9658

> <PUBCHEM_FEATURE_SELFOVERLAP>
45.776

> <PUBCHEM_SHAPE_FINGERPRINT>
10366900 7 18336560377192065980
10498660 4 13326589418851312371
10670039 82 14404924486598254768
11370993 144 18340495456826403009
114674 6 18334863762179533522
11796584 16 16952795165684230890
12596602 18 16558459868278338271
12633257 1 18411973698124831850
12892183 10 18130507422769893597
13533116 47 18340496586471276167
13583140 156 18413102840737251533
13675066 3 18260834817202098677
14289901 80 18202560692002412917
14341114 176 18334013912742162096
14739800 52 13612795616020232258
14866123 147 16611111833668477342
14955137 171 18413951681621601020
15142526 21 17628630066242045312
15163728 17 14331991798123386776
15183329 4 13407062696853684439
16752209 62 15864345835900976037
1813 80 16153428385103633781
18785283 64 18337105778574273732
20403669 9 17967817128462668683
20739085 24 18409727400665834836
21065198 57 18411986828003379405
21065199 12 18409731763835259541
21756936 100 17626100112026026916
21859007 373 17750220427837072029
22122407 14 17560815350658893913
23503953 91 18131345349498889678
23557571 272 17967250884348634837
23559900 14 18260844699626435101
2838139 119 13541028391914737978
31174 14 18412827962845878276
3421961 26 18198909098171164382
3472631 163 14189566459854413889
49207404 50 18410574032570411644
5104073 3 18262529186259031321
602551 16 17530684290570620210
6823239 73 18264780874187827574
8988823 20 18342175587839544877
960060 61 12901552364158397407
9709674 26 18335425642875261663

> <PUBCHEM_SHAPE_MULTIPOLES>
434.91
11.78
2.89
1.51
10.41
0.04
0.16
1.41
5.61
-3.4
-0.11
-0.7
0.24
1.97

> <PUBCHEM_SHAPE_SELFOVERLAP>
917.107

> <PUBCHEM_SHAPE_VOLUME>
246.9

> <PUBCHEM_COORDINATE_TYPE>
2
5
10

$$$$
