51138082
  -OEChem-12032416323D

 54 56  0     1  0  0  0  0  0999 V2000
   -2.7461   -2.5481    1.2029 O   0  0  0  0  0  0  0  0  0  0  0  0
   -1.6361    0.2346    0.4887 N   0  0  0  0  0  0  0  0  0  0  0  0
    3.3308   -0.5555    0.9465 N   0  0  0  0  0  0  0  0  0  0  0  0
   -3.2641   -1.9148   -0.9766 N   0  0  0  0  0  0  0  0  0  0  0  0
   -0.9893    1.3377   -0.2344 C   0  0  2  0  0  0  0  0  0  0  0  0
    0.5332    1.4304   -0.0908 C   0  0  0  0  0  0  0  0  0  0  0  0
    1.3781    0.3839    0.3795 C   0  0  0  0  0  0  0  0  0  0  0  0
   -1.2552   -1.0956    0.0358 C   0  0  1  0  0  0  0  0  0  0  0  0
   -1.7072    2.6045    0.2648 C   0  0  0  0  0  0  0  0  0  0  0  0
   -0.1528   -1.6912    0.9093 C   0  0  0  0  0  0  0  0  0  0  0  0
    1.1478   -0.9655    0.8201 C   0  0  0  0  0  0  0  0  0  0  0  0
   -3.0951    2.7897   -0.3564 C   0  0  0  0  0  0  0  0  0  0  0  0
    2.7603    0.5929    0.4504 C   0  0  0  0  0  0  0  0  0  0  0  0
    2.3723   -1.5000    1.1665 C   0  0  0  0  0  0  0  0  0  0  0  0
    1.1850    2.6126   -0.5253 C   0  0  0  0  0  0  0  0  0  0  0  0
   -2.4938   -1.9272    0.1737 C   0  0  0  0  0  0  0  0  0  0  0  0
    3.3789    1.7820    0.0611 C   0  0  0  0  0  0  0  0  0  0  0  0
    2.5650    2.7884   -0.4426 C   0  0  0  0  0  0  0  0  0  0  0  0
   -3.7059    4.0972    0.1536 C   0  0  0  0  0  0  0  0  0  0  0  0
   -4.0379    1.6251   -0.0503 C   0  0  0  0  0  0  0  0  0  0  0  0
    4.7434   -0.7584    1.1874 C   0  0  0  0  0  0  0  0  0  0  0  0
   -4.4980   -2.6550   -1.1098 C   0  0  0  0  0  0  0  0  0  0  0  0
    5.4857   -0.9973   -0.0570 C   0  0  0  0  0  0  0  0  0  0  0  0
    6.0948   -1.1923   -1.0735 C   0  0  0  0  0  0  0  0  0  0  0  0
   -5.6430   -1.8520   -0.6814 C   0  0  0  0  0  0  0  0  0  0  0  0
    6.8347   -1.4295   -2.3120 C   0  0  0  0  0  0  0  0  0  0  0  0
   -6.5855   -1.1963   -0.3303 C   0  0  0  0  0  0  0  0  0  0  0  0
   -1.1884    1.2254   -1.3091 H   0  0  0  0  0  0  0  0  0  0  0  0
   -0.9413   -1.0970   -1.0167 H   0  0  0  0  0  0  0  0  0  0  0  0
   -1.7763    2.5997    1.3628 H   0  0  0  0  0  0  0  0  0  0  0  0
   -1.1434    3.5128    0.0340 H   0  0  0  0  0  0  0  0  0  0  0  0
   -0.4562   -1.7140    1.9655 H   0  0  0  0  0  0  0  0  0  0  0  0
    0.0058   -2.7390    0.6184 H   0  0  0  0  0  0  0  0  0  0  0  0
   -1.5055    0.3329    1.4948 H   0  0  0  0  0  0  0  0  0  0  0  0
   -2.9935    2.8740   -1.4459 H   0  0  0  0  0  0  0  0  0  0  0  0
    2.6273   -2.4809    1.5462 H   0  0  0  0  0  0  0  0  0  0  0  0
    0.6176    3.4230   -0.9769 H   0  0  0  0  0  0  0  0  0  0  0  0
    4.4527    1.9218    0.1227 H   0  0  0  0  0  0  0  0  0  0  0  0
    3.0101    3.7187   -0.7855 H   0  0  0  0  0  0  0  0  0  0  0  0
   -3.8493    4.0728    1.2393 H   0  0  0  0  0  0  0  0  0  0  0  0
   -4.6804    4.2796   -0.3120 H   0  0  0  0  0  0  0  0  0  0  0  0
   -3.0617    4.9501   -0.0853 H   0  0  0  0  0  0  0  0  0  0  0  0
   -4.0322    1.3548    1.0105 H   0  0  0  0  0  0  0  0  0  0  0  0
   -3.8024    0.7541   -0.6632 H   0  0  0  0  0  0  0  0  0  0  0  0
   -5.0691    1.8949   -0.3075 H   0  0  0  0  0  0  0  0  0  0  0  0
    4.8537   -1.6105    1.8678 H   0  0  0  0  0  0  0  0  0  0  0  0
    5.1232    0.1235    1.7147 H   0  0  0  0  0  0  0  0  0  0  0  0
   -2.9725   -1.3451   -1.7657 H   0  0  0  0  0  0  0  0  0  0  0  0
   -4.5958   -2.9350   -2.1632 H   0  0  0  0  0  0  0  0  0  0  0  0
   -4.4309   -3.5736   -0.5177 H   0  0  0  0  0  0  0  0  0  0  0  0
    7.8819   -1.6657   -2.1008 H   0  0  0  0  0  0  0  0  0  0  0  0
    6.4034   -2.2669   -2.8687 H   0  0  0  0  0  0  0  0  0  0  0  0
    6.8093   -0.5451   -2.9558 H   0  0  0  0  0  0  0  0  0  0  0  0
   -7.4202   -0.6130   -0.0186 H   0  0  0  0  0  0  0  0  0  0  0  0
  1 16  2  0  0  0  0
  2  5  1  0  0  0  0
  2  8  1  0  0  0  0
  2 34  1  0  0  0  0
  3 13  1  0  0  0  0
  3 14  1  0  0  0  0
  3 21  1  0  0  0  0
  4 16  1  0  0  0  0
  4 22  1  0  0  0  0
  4 48  1  0  0  0  0
  5  6  1  0  0  0  0
  5  9  1  0  0  0  0
  5 28  1  0  0  0  0
  6  7  2  0  0  0  0
  6 15  1  0  0  0  0
  7 11  1  0  0  0  0
  7 13  1  0  0  0  0
  8 10  1  0  0  0  0
  8 16  1  0  0  0  0
  8 29  1  0  0  0  0
  9 12  1  0  0  0  0
  9 30  1  0  0  0  0
  9 31  1  0  0  0  0
 10 11  1  0  0  0  0
 10 32  1  0  0  0  0
 10 33  1  0  0  0  0
 11 14  2  0  0  0  0
 12 19  1  0  0  0  0
 12 20  1  0  0  0  0
 12 35  1  0  0  0  0
 13 17  2  0  0  0  0
 14 36  1  0  0  0  0
 15 18  2  0  0  0  0
 15 37  1  0  0  0  0
 17 18  1  0  0  0  0
 17 38  1  0  0  0  0
 18 39  1  0  0  0  0
 19 40  1  0  0  0  0
 19 41  1  0  0  0  0
 19 42  1  0  0  0  0
 20 43  1  0  0  0  0
 20 44  1  0  0  0  0
 20 45  1  0  0  0  0
 21 23  1  0  0  0  0
 21 46  1  0  0  0  0
 21 47  1  0  0  0  0
 22 25  1  0  0  0  0
 22 49  1  0  0  0  0
 22 50  1  0  0  0  0
 23 24  3  0  0  0  0
 24 26  1  0  0  0  0
 25 27  3  0  0  0  0
 26 51  1  0  0  0  0
 26 52  1  0  0  0  0
 26 53  1  0  0  0  0
 27 54  1  0  0  0  0
M  END
> <PUBCHEM_COMPOUND_CID>
51138082

> <PUBCHEM_CONFORMER_RMSD>
0.8

> <PUBCHEM_CONFORMER_DIVERSEORDER>
1
32
59
25
68
70
65
89
6
76
124
33
111
17
52
67
13
14
106
104
75
3
94
113
110
42
79
109
39
46
103
16
10
50
93
18
34
115
86
102
20
54
57
107
90
31
84
21
123
45
12
99
44
36
81
5
19
101
28
29
66
40
121
60
122
114
119
96
7
108
82
80
47
118
2
56
116
15
98
49
112
100
87
83
95
4
71
26
92
30
105
53
23
125
27
117
11
43
63
91
38
9
97
41
35
62
8
120
24
69
55
64
22
73
48
72
51
58
85
37
77
61
74
78
88

> <PUBCHEM_MMFF94_PARTIAL_CHARGES>
29
1 -0.57
10 0.18
11 -0.18
13 -0.15
14 -0.3
15 -0.15
16 0.57
17 -0.15
18 -0.15
2 -0.9
21 0.46
22 0.5
23 -0.2
24 -0.2
25 -0.2
26 0.2
27 -0.18
3 0.05
34 0.36
36 0.15
37 0.15
38 0.15
39 0.15
4 -0.73
48 0.37
5 0.41
54 0.18
6 -0.14
8 0.33

> <PUBCHEM_EFFECTIVE_ROTOR_COUNT>
6.8

> <PUBCHEM_PHARMACOPHORE_FEATURES>
11
1 1 acceptor
1 2 cation
1 2 donor
1 26 hydrophobe
1 27 hydrophobe
1 3 cation
1 4 donor
3 12 19 20 hydrophobe
5 3 7 11 13 14 rings
6 6 7 13 15 17 18 rings
7 2 5 6 7 8 10 11 rings

> <PUBCHEM_HEAVY_ATOM_COUNT>
27

> <PUBCHEM_ATOM_DEF_STEREO_COUNT>
2

> <PUBCHEM_ATOM_UDEF_STEREO_COUNT>
0

> <PUBCHEM_BOND_DEF_STEREO_COUNT>
0

> <PUBCHEM_BOND_UDEF_STEREO_COUNT>
0

> <PUBCHEM_ISOTOPIC_ATOM_COUNT>
0

> <PUBCHEM_COMPONENT_COUNT>
1

> <PUBCHEM_CACTVS_TAUTO_COUNT>
2

> <PUBCHEM_CONFORMER_ID>
030C4E2200000001

> <PUBCHEM_MMFF94_ENERGY>
50.4493

> <PUBCHEM_FEATURE_SELFOVERLAP>
55.951

> <PUBCHEM_SHAPE_FINGERPRINT>
1100329 8 18336261245869175960
12107698 1 18411415133243420454
12788726 201 18411419548934011193
12954195 1 18341895147744146111
13140716 1 18335126580324245176
13690498 29 18411142432947887606
13757389 114 18194694656974495172
13782708 43 17489582364012863366
14117953 113 18343860018584981439
14790565 3 17831866750901064048
15420108 30 17905316335196671041
15510800 12 16987168124347197534
16087824 20 18337946776816991861
19591789 44 17544188281982263346
20028762 73 18341607131411677887
20691752 17 17313096450373065688
21267235 1 18409168831235845731
21279426 13 18262224617216711463
21307412 95 17842292367552634470
221357 26 18410008870745723638
23558518 356 18114468954151267424
23559900 14 18190171480811699634
23576562 1 18186809058095321716
23622692 118 18411412942620188724
244849 19 17202461378203462882
25147074 1 18186798071953495312
3004659 81 18187918534109916163
350125 39 18408036321205510025
59755656 520 17844257228779634785
7164475 11 18339070583892696901

> <PUBCHEM_SHAPE_MULTIPOLES>
534.83
13.81
4.13
1.23
5.17
3.02
-0.33
-8.68
-6.07
-5.19
-0.46
1.63
-0.79
-0.18

> <PUBCHEM_SHAPE_SELFOVERLAP>
1124.809

> <PUBCHEM_SHAPE_VOLUME>
300.1

> <PUBCHEM_COORDINATE_TYPE>
2
5
10

$$$$
