71693480
  -OEChem-12032416233D

 57 58  0     1  0  0  0  0  0999 V2000
    1.3089    2.4812    0.1881 O   0  0  0  0  0  0  0  0  0  0  0  0
    2.0898   -1.2717   -1.3850 O   0  0  0  0  0  0  0  0  0  0  0  0
    4.8589    2.3413    0.4551 O   0  0  0  0  0  0  0  0  0  0  0  0
    4.7414   -0.6724   -1.3437 O   0  0  0  0  0  0  0  0  0  0  0  0
   -5.3233    0.0999   -1.9612 O   0  0  0  0  0  0  0  0  0  0  0  0
    3.3171    0.5945    0.5227 N   0  0  0  0  0  0  0  0  0  0  0  0
    5.9812   -1.9696    0.1266 N   0  0  0  0  0  0  0  0  0  0  0  0
   -4.5851    0.3502    0.2580 N   0  0  0  0  0  0  0  0  0  0  0  0
    1.8947    0.1737    0.5073 C   0  0  1  0  0  0  0  0  0  0  0  0
    1.0287    1.1660   -0.2929 C   0  0  1  0  0  0  0  0  0  0  0  0
    1.7098   -1.2549   -0.0243 C   0  0  0  0  0  0  0  0  0  0  0  0
   -0.4630    0.9486   -0.1461 C   0  0  0  0  0  0  0  0  0  0  0  0
    3.7069    1.9209    0.3271 C   0  0  0  0  0  0  0  0  0  0  0  0
    4.3123   -0.3645    0.9945 C   0  0  0  0  0  0  0  0  0  0  0  0
    2.6207    2.8669   -0.1448 C   0  0  0  0  0  0  0  0  0  0  0  0
   -1.0475    0.9524    1.1203 C   0  0  0  0  0  0  0  0  0  0  0  0
   -1.2524    0.7451   -1.2780 C   0  0  0  0  0  0  0  0  0  0  0  0
    5.0193   -1.0032   -0.1880 C   0  0  0  0  0  0  0  0  0  0  0  0
   -2.4215    0.7530    1.2549 C   0  0  0  0  0  0  0  0  0  0  0  0
   -2.6262    0.5455   -1.1436 C   0  0  0  0  0  0  0  0  0  0  0  0
   -3.2108    0.5495    0.1230 C   0  0  0  0  0  0  0  0  0  0  0  0
   -7.0571   -1.2067    0.8207 C   0  0  0  0  0  0  0  0  0  0  0  0
   -6.9337   -0.0388   -0.1702 C   0  0  0  0  0  0  0  0  0  0  0  0
   -5.5347    0.1314   -0.7534 C   0  0  0  0  0  0  0  0  0  0  0  0
    6.2919   -2.3434    1.5009 C   0  0  0  0  0  0  0  0  0  0  0  0
    6.7453   -2.6758   -0.8988 C   0  0  0  0  0  0  0  0  0  0  0  0
   -6.7018   -2.5234    0.1272 C   0  0  0  0  0  0  0  0  0  0  0  0
   -8.4698   -1.2957    1.4036 C   0  0  0  0  0  0  0  0  0  0  0  0
    1.6046    0.1892    1.5654 H   0  0  0  0  0  0  0  0  0  0  0  0
    1.2920    1.1342   -1.3592 H   0  0  0  0  0  0  0  0  0  0  0  0
    0.6626   -1.5666    0.0460 H   0  0  0  0  0  0  0  0  0  0  0  0
    2.2984   -1.9989    0.5175 H   0  0  0  0  0  0  0  0  0  0  0  0
    3.8393   -1.1045    1.6442 H   0  0  0  0  0  0  0  0  0  0  0  0
    5.0605    0.1812    1.5806 H   0  0  0  0  0  0  0  0  0  0  0  0
    2.8014    3.8442    0.3147 H   0  0  0  0  0  0  0  0  0  0  0  0
    2.7104    2.9871   -1.2307 H   0  0  0  0  0  0  0  0  0  0  0  0
   -0.4532    1.1207    2.0139 H   0  0  0  0  0  0  0  0  0  0  0  0
   -0.8100    0.7384   -2.2706 H   0  0  0  0  0  0  0  0  0  0  0  0
   -2.8640    0.7609    2.2478 H   0  0  0  0  0  0  0  0  0  0  0  0
   -3.1694    0.3926   -2.0654 H   0  0  0  0  0  0  0  0  0  0  0  0
    1.9538   -2.1776   -1.7110 H   0  0  0  0  0  0  0  0  0  0  0  0
   -6.3653   -1.0694    1.6593 H   0  0  0  0  0  0  0  0  0  0  0  0
   -7.6329   -0.1730   -1.0049 H   0  0  0  0  0  0  0  0  0  0  0  0
   -7.2035    0.9027    0.3242 H   0  0  0  0  0  0  0  0  0  0  0  0
   -4.9285    0.3921    1.2144 H   0  0  0  0  0  0  0  0  0  0  0  0
    5.9753   -3.3801    1.6516 H   0  0  0  0  0  0  0  0  0  0  0  0
    5.8211   -1.7239    2.2621 H   0  0  0  0  0  0  0  0  0  0  0  0
    7.3758   -2.2797    1.6414 H   0  0  0  0  0  0  0  0  0  0  0  0
    7.8083   -2.4596   -0.7595 H   0  0  0  0  0  0  0  0  0  0  0  0
    6.4439   -2.3583   -1.9002 H   0  0  0  0  0  0  0  0  0  0  0  0
    6.5683   -3.7500   -0.7943 H   0  0  0  0  0  0  0  0  0  0  0  0
   -5.6624   -2.5291   -0.2162 H   0  0  0  0  0  0  0  0  0  0  0  0
   -6.8201   -3.3669    0.8161 H   0  0  0  0  0  0  0  0  0  0  0  0
   -7.3477   -2.7049   -0.7389 H   0  0  0  0  0  0  0  0  0  0  0  0
   -8.5446   -2.1191    2.1217 H   0  0  0  0  0  0  0  0  0  0  0  0
   -9.2144   -1.4616    0.6176 H   0  0  0  0  0  0  0  0  0  0  0  0
   -8.7299   -0.3697    1.9270 H   0  0  0  0  0  0  0  0  0  0  0  0
  1 10  1  0  0  0  0
  1 15  1  0  0  0  0
  2 11  1  0  0  0  0
  2 41  1  0  0  0  0
  3 13  2  0  0  0  0
  4 18  2  0  0  0  0
  5 24  2  0  0  0  0
  6  9  1  0  0  0  0
  6 13  1  0  0  0  0
  6 14  1  0  0  0  0
  7 18  1  0  0  0  0
  7 25  1  0  0  0  0
  7 26  1  0  0  0  0
  8 21  1  0  0  0  0
  8 24  1  0  0  0  0
  8 45  1  0  0  0  0
  9 10  1  0  0  0  0
  9 11  1  0  0  0  0
  9 29  1  0  0  0  0
 10 12  1  0  0  0  0
 10 30  1  0  0  0  0
 11 31  1  0  0  0  0
 11 32  1  0  0  0  0
 12 16  2  0  0  0  0
 12 17  1  0  0  0  0
 13 15  1  0  0  0  0
 14 18  1  0  0  0  0
 14 33  1  0  0  0  0
 14 34  1  0  0  0  0
 15 35  1  0  0  0  0
 15 36  1  0  0  0  0
 16 19  1  0  0  0  0
 16 37  1  0  0  0  0
 17 20  2  0  0  0  0
 17 38  1  0  0  0  0
 19 21  2  0  0  0  0
 19 39  1  0  0  0  0
 20 21  1  0  0  0  0
 20 40  1  0  0  0  0
 22 23  1  0  0  0  0
 22 27  1  0  0  0  0
 22 28  1  0  0  0  0
 22 42  1  0  0  0  0
 23 24  1  0  0  0  0
 23 43  1  0  0  0  0
 23 44  1  0  0  0  0
 25 46  1  0  0  0  0
 25 47  1  0  0  0  0
 25 48  1  0  0  0  0
 26 49  1  0  0  0  0
 26 50  1  0  0  0  0
 26 51  1  0  0  0  0
 27 52  1  0  0  0  0
 27 53  1  0  0  0  0
 27 54  1  0  0  0  0
 28 55  1  0  0  0  0
 28 56  1  0  0  0  0
 28 57  1  0  0  0  0
M  END
> <PUBCHEM_COMPOUND_CID>
71693480

> <PUBCHEM_CONFORMER_RMSD>
1

> <PUBCHEM_CONFORMER_DIVERSEORDER>
1
3
89
55
62
46
22
69
7
81
85
77
6
50
66
52
93
70
44
39
35
94
42
53
83
95
45
24
91
79
31
67
76
59
97
61
80
72
58
68
78
11
36
71
40
86
74
75
33
60
64
87
41
38
20
8
88
9
43
28
73
56
47
13
82
92
32
90
51
37
15
26
17
65
16
4
63
25
21
54
30
49
18
34
23
12
84
14
5
48
19
57
96
29
2
27
10

> <PUBCHEM_MMFF94_PARTIAL_CHARGES>
31
1 -0.56
10 0.42
11 0.28
12 -0.14
13 0.57
14 0.36
15 0.34
16 -0.15
17 -0.15
18 0.57
19 -0.15
2 -0.68
20 -0.15
21 0.12
23 0.06
24 0.57
25 0.3
26 0.3
3 -0.57
37 0.15
38 0.15
39 0.15
4 -0.57
40 0.15
41 0.4
45 0.37
5 -0.57
6 -0.66
7 -0.66
8 -0.55
9 0.3

> <PUBCHEM_EFFECTIVE_ROTOR_COUNT>
10

> <PUBCHEM_PHARMACOPHORE_FEATURES>
10
1 1 acceptor
1 2 acceptor
1 2 donor
1 3 acceptor
1 4 acceptor
1 5 acceptor
1 8 donor
3 22 27 28 hydrophobe
6 1 6 9 10 13 15 rings
6 12 16 17 19 20 21 rings

> <PUBCHEM_HEAVY_ATOM_COUNT>
28

> <PUBCHEM_ATOM_DEF_STEREO_COUNT>
2

> <PUBCHEM_ATOM_UDEF_STEREO_COUNT>
0

> <PUBCHEM_BOND_DEF_STEREO_COUNT>
0

> <PUBCHEM_BOND_UDEF_STEREO_COUNT>
0

> <PUBCHEM_ISOTOPIC_ATOM_COUNT>
0

> <PUBCHEM_COMPONENT_COUNT>
1

> <PUBCHEM_CACTVS_TAUTO_COUNT>
6

> <PUBCHEM_CONFORMER_ID>
0445F4A800000001

> <PUBCHEM_MMFF94_ENERGY>
80.4597

> <PUBCHEM_FEATURE_SELFOVERLAP>
50.754

> <PUBCHEM_SHAPE_FINGERPRINT>
10 15 12391505395295523891
10411042 1 18339643318583465320
11135609 99 18411136952776001838
117089 54 17982456988744250742
12166972 35 18260269646176053213
12236239 1 17846494833394382529
12616971 3 17845925295003191237
13533116 47 18201434800823083904
1361 4 18193556899042548035
13668630 136 18260548922714778411
13685833 64 18410855447248534666
13782708 43 18186798067510633415
13862211 1 18338231541189622194
14123256 34 18408604742973542607
14294032 229 15431424037939984389
15183329 4 13912322378634502927
15352257 5 18260551138965804643
1813 80 18200601281331907116
18222031 100 18340201896011980280
19377110 9 17632589266354129233
20028762 73 18059851736629177486
21033650 10 16226606270053685453
21130935 74 18342177825707566299
21267235 1 18343024363386866254
21344244 181 18333454248243888506
21344244 78 17704064080590812184
21585482 310 18340776965572444135
21623969 137 18341618157246406171
21792934 111 17060337388822261585
2303208 19 18040711481235787365
23081809 10 17274535529530434805
23522609 53 18044969829003247380
23559900 14 18187363272269547057
23569943 247 17751634360550091795
23576562 1 13840563925333417483
24771293 8 12967119528341259731
3178227 256 18343021086184888366
34797466 226 16950568809104073540
4340502 62 18341051934200721309
46194498 28 18040711498104972836
465052 167 18411981356130388534
5104073 3 16127802123714625435
5718773 13 18261387798267985530

> <PUBCHEM_SHAPE_MULTIPOLES>
531.94
21.35
2.71
1.34
23.57
0.18
-0.17
17.53
2.78
-4.13
0.24
0.43
0.28
1.22

> <PUBCHEM_SHAPE_SELFOVERLAP>
1092.67

> <PUBCHEM_SHAPE_VOLUME>
303.3

> <PUBCHEM_COORDINATE_TYPE>
2
5
10

$$$$
