45783936
  -OEChem-12032416353D

 74 78  0     1  0  0  0  0  0999 V2000
    3.8362   -0.1126    0.6909 O   0  0  0  0  0  0  0  0  0  0  0  0
   -2.4327   -0.9847    0.7035 N   0  0  0  0  0  0  0  0  0  0  0  0
   -4.7314    0.6756    0.3595 N   0  0  0  0  0  0  0  0  0  0  0  0
    4.8912   -1.6014   -0.6034 N   0  0  0  0  0  0  0  0  0  0  0  0
    5.3318   -0.3397   -0.9571 N   0  0  0  0  0  0  0  0  0  0  0  0
   -5.9191    2.6337    0.8184 N   0  0  0  0  0  0  0  0  0  0  0  0
   -6.6383    1.1202   -0.9137 N   0  0  0  0  0  0  0  0  0  0  0  0
   -0.1693   -2.1665   -0.7369 C   0  0  1  0  0  0  0  0  0  0  0  0
   -0.9687   -2.9330    0.3424 C   0  0  2  0  0  0  0  0  0  0  0  0
    1.2119   -1.7658   -0.2000 C   0  0  0  0  0  0  0  0  0  0  0  0
    2.0449   -2.9652    0.3008 C   0  0  2  0  0  0  0  0  0  0  0  0
   -0.0463   -2.9854   -2.0290 C   0  0  0  0  0  0  0  0  0  0  0  0
   -1.5926   -1.9806    1.3677 C   0  0  0  0  0  0  0  0  0  0  0  0
   -0.1317   -3.9585    1.0637 C   0  0  0  0  0  0  0  0  0  0  0  0
    1.2133   -3.9973    1.0476 C   0  0  0  0  0  0  0  0  0  0  0  0
    3.2201   -2.4328    1.1303 C   0  0  0  0  0  0  0  0  0  0  0  0
   -1.4260   -3.4035   -2.5274 C   0  0  0  0  0  0  0  0  0  0  0  0
    0.6954   -2.1871   -3.0962 C   0  0  0  0  0  0  0  0  0  0  0  0
   -2.6524    0.1714    1.5808 C   0  0  0  0  0  0  0  0  0  0  0  0
   -3.7221   -1.5725    0.3195 C   0  0  0  0  0  0  0  0  0  0  0  0
    1.9475   -5.1174    1.7321 C   0  0  0  0  0  0  0  0  0  0  0  0
   -3.4839    1.2466    0.8766 C   0  0  0  0  0  0  0  0  0  0  0  0
   -4.5883   -0.5557   -0.4275 C   0  0  0  0  0  0  0  0  0  0  0  0
    4.0200   -1.4204    0.3616 C   0  0  0  0  0  0  0  0  0  0  0  0
   -5.8135    1.5158    0.0747 C   0  0  0  0  0  0  0  0  0  0  0  0
    4.6896    0.4974   -0.1763 C   0  0  0  0  0  0  0  0  0  0  0  0
    4.7478    1.9282   -0.0973 C   0  0  0  0  0  0  0  0  0  0  0  0
   -6.9733    3.4202    0.5175 C   0  0  0  0  0  0  0  0  0  0  0  0
   -7.6703    1.9533   -1.1615 C   0  0  0  0  0  0  0  0  0  0  0  0
   -7.8902    3.1278   -0.4714 C   0  0  0  0  0  0  0  0  0  0  0  0
    5.5951    2.6395   -0.9468 C   0  0  0  0  0  0  0  0  0  0  0  0
    3.9569    2.6086    0.8287 C   0  0  0  0  0  0  0  0  0  0  0  0
    5.6518    4.0311   -0.8704 C   0  0  0  0  0  0  0  0  0  0  0  0
    4.0136    4.0001    0.9052 C   0  0  0  0  0  0  0  0  0  0  0  0
    4.8609    4.7113    0.0557 C   0  0  0  0  0  0  0  0  0  0  0  0
    4.9219    6.1993    0.1375 C   0  0  0  0  0  0  0  0  0  0  0  0
   -0.6907   -1.2387   -1.0043 H   0  0  0  0  0  0  0  0  0  0  0  0
   -1.7892   -3.4981   -0.1001 H   0  0  0  0  0  0  0  0  0  0  0  0
    1.0560   -1.0652    0.6325 H   0  0  0  0  0  0  0  0  0  0  0  0
    1.7622   -1.1862   -0.9474 H   0  0  0  0  0  0  0  0  0  0  0  0
    2.4598   -3.4741   -0.5811 H   0  0  0  0  0  0  0  0  0  0  0  0
    0.5223   -3.9072   -1.8573 H   0  0  0  0  0  0  0  0  0  0  0  0
   -0.7828   -1.4794    1.9151 H   0  0  0  0  0  0  0  0  0  0  0  0
   -2.1608   -2.5367    2.1267 H   0  0  0  0  0  0  0  0  0  0  0  0
   -0.6810   -4.7205    1.6129 H   0  0  0  0  0  0  0  0  0  0  0  0
    2.8634   -1.9862    2.0671 H   0  0  0  0  0  0  0  0  0  0  0  0
    3.9011   -3.2469    1.4053 H   0  0  0  0  0  0  0  0  0  0  0  0
   -1.3711   -3.7485   -3.5667 H   0  0  0  0  0  0  0  0  0  0  0  0
   -1.8367   -4.2460   -1.9637 H   0  0  0  0  0  0  0  0  0  0  0  0
   -2.1391   -2.5727   -2.5000 H   0  0  0  0  0  0  0  0  0  0  0  0
    0.2631   -1.1896   -3.2294 H   0  0  0  0  0  0  0  0  0  0  0  0
    0.6469   -2.6983   -4.0645 H   0  0  0  0  0  0  0  0  0  0  0  0
    1.7591   -2.0792   -2.8650 H   0  0  0  0  0  0  0  0  0  0  0  0
   -1.6916    0.6193    1.8627 H   0  0  0  0  0  0  0  0  0  0  0  0
   -3.1553   -0.1361    2.5077 H   0  0  0  0  0  0  0  0  0  0  0  0
   -4.2642   -1.9293    1.2060 H   0  0  0  0  0  0  0  0  0  0  0  0
   -3.5908   -2.4315   -0.3455 H   0  0  0  0  0  0  0  0  0  0  0  0
    2.6539   -5.5874    1.0399 H   0  0  0  0  0  0  0  0  0  0  0  0
    1.2682   -5.9008    2.0855 H   0  0  0  0  0  0  0  0  0  0  0  0
    2.4988   -4.7453    2.6010 H   0  0  0  0  0  0  0  0  0  0  0  0
   -2.9145    1.6864    0.0479 H   0  0  0  0  0  0  0  0  0  0  0  0
   -3.6753    2.0443    1.6038 H   0  0  0  0  0  0  0  0  0  0  0  0
   -5.5596   -1.0334   -0.6062 H   0  0  0  0  0  0  0  0  0  0  0  0
   -4.1438   -0.3203   -1.4030 H   0  0  0  0  0  0  0  0  0  0  0  0
   -7.0635    4.3222    1.1133 H   0  0  0  0  0  0  0  0  0  0  0  0
   -8.3382    1.6399   -1.9568 H   0  0  0  0  0  0  0  0  0  0  0  0
   -8.7269    3.7772   -0.6914 H   0  0  0  0  0  0  0  0  0  0  0  0
    6.2200    2.1301   -1.6765 H   0  0  0  0  0  0  0  0  0  0  0  0
    3.2840    2.0896    1.5066 H   0  0  0  0  0  0  0  0  0  0  0  0
    6.3145    4.5744   -1.5388 H   0  0  0  0  0  0  0  0  0  0  0  0
    3.3914    4.5193    1.6294 H   0  0  0  0  0  0  0  0  0  0  0  0
    4.1869    6.6432   -0.5412 H   0  0  0  0  0  0  0  0  0  0  0  0
    4.7154    6.5482    1.1551 H   0  0  0  0  0  0  0  0  0  0  0  0
    5.9171    6.5693   -0.1318 H   0  0  0  0  0  0  0  0  0  0  0  0
  1 24  1  0  0  0  0
  1 26  1  0  0  0  0
  2 13  1  0  0  0  0
  2 19  1  0  0  0  0
  2 20  1  0  0  0  0
  3 22  1  0  0  0  0
  3 23  1  0  0  0  0
  3 25  1  0  0  0  0
  4  5  1  0  0  0  0
  4 24  2  0  0  0  0
  5 26  2  0  0  0  0
  6 25  2  0  0  0  0
  6 28  1  0  0  0  0
  7 25  1  0  0  0  0
  7 29  2  0  0  0  0
  8  9  1  0  0  0  0
  8 10  1  0  0  0  0
  8 12  1  0  0  0  0
  8 37  1  0  0  0  0
  9 13  1  0  0  0  0
  9 14  1  0  0  0  0
  9 38  1  0  0  0  0
 10 11  1  0  0  0  0
 10 39  1  0  0  0  0
 10 40  1  0  0  0  0
 11 15  1  0  0  0  0
 11 16  1  0  0  0  0
 11 41  1  0  0  0  0
 12 17  1  0  0  0  0
 12 18  1  0  0  0  0
 12 42  1  0  0  0  0
 13 43  1  0  0  0  0
 13 44  1  0  0  0  0
 14 15  2  0  0  0  0
 14 45  1  0  0  0  0
 15 21  1  0  0  0  0
 16 24  1  0  0  0  0
 16 46  1  0  0  0  0
 16 47  1  0  0  0  0
 17 48  1  0  0  0  0
 17 49  1  0  0  0  0
 17 50  1  0  0  0  0
 18 51  1  0  0  0  0
 18 52  1  0  0  0  0
 18 53  1  0  0  0  0
 19 22  1  0  0  0  0
 19 54  1  0  0  0  0
 19 55  1  0  0  0  0
 20 23  1  0  0  0  0
 20 56  1  0  0  0  0
 20 57  1  0  0  0  0
 21 58  1  0  0  0  0
 21 59  1  0  0  0  0
 21 60  1  0  0  0  0
 22 61  1  0  0  0  0
 22 62  1  0  0  0  0
 23 63  1  0  0  0  0
 23 64  1  0  0  0  0
 26 27  1  0  0  0  0
 27 31  2  0  0  0  0
 27 32  1  0  0  0  0
 28 30  2  0  0  0  0
 28 65  1  0  0  0  0
 29 30  1  0  0  0  0
 29 66  1  0  0  0  0
 30 67  1  0  0  0  0
 31 33  1  0  0  0  0
 31 68  1  0  0  0  0
 32 34  2  0  0  0  0
 32 69  1  0  0  0  0
 33 35  2  0  0  0  0
 33 70  1  0  0  0  0
 34 35  1  0  0  0  0
 34 71  1  0  0  0  0
 35 36  1  0  0  0  0
 36 72  1  0  0  0  0
 36 73  1  0  0  0  0
 36 74  1  0  0  0  0
M  END
> <PUBCHEM_COMPOUND_CID>
45783936

> <PUBCHEM_CONFORMER_RMSD>
1.2

> <PUBCHEM_CONFORMER_DIVERSEORDER>
9
45
156
127
146
113
112
130
56
17
7
148
48
151
68
118
128
159
108
145
11
104
63
91
160
73
109
107
133
85
28
52
126
101
111
100
143
74
51
36
43
152
140
32
154
157
93
129
134
149
77
86
65
150
131
22
34
125
64
69
75
144
153
98
37
114
162
58
67
38
47
79
141
117
147
60
19
137
155
23
50
20
106
18
110
40
116
61
27
5
81
119
82
78
83
90
94
25
12
31
139
29
121
105
135
54
99
138
132
49
44
26
158
24
30
92
115
57
103
62
16
120
123
80
95
96
4
35
14
84
142
76
122
15
102
66
21
46
70
1
42
59
8
13
87
2
71
3
89
88
161
6
55
10
97
39
136
33
72
53
41
124

> <PUBCHEM_MMFF94_PARTIAL_CHARGES>
39
1 -0.28
11 0.14
13 0.27
14 -0.29
15 -0.28
16 0.18
19 0.27
2 -0.81
20 0.27
21 0.14
22 0.37
23 0.37
24 0.3
25 0.72
26 0.43
27 0.05
28 0.16
29 0.16
3 -0.84
30 -0.15
31 -0.15
32 -0.15
33 -0.15
34 -0.15
35 -0.14
36 0.14
4 -0.34
45 0.15
5 -0.34
6 -0.62
65 0.15
66 0.15
67 0.15
68 0.15
69 0.15
7 -0.62
70 0.15
71 0.15
9 0.14

> <PUBCHEM_EFFECTIVE_ROTOR_COUNT>
9

> <PUBCHEM_PHARMACOPHORE_FEATURES>
9
1 2 cation
1 7 acceptor
3 12 17 18 hydrophobe
4 3 6 7 25 cation
5 1 4 5 24 26 rings
6 2 3 19 20 22 23 rings
6 27 31 32 33 34 35 rings
6 6 7 25 28 29 30 rings
6 8 9 10 11 14 15 rings

> <PUBCHEM_HEAVY_ATOM_COUNT>
36

> <PUBCHEM_ATOM_DEF_STEREO_COUNT>
3

> <PUBCHEM_ATOM_UDEF_STEREO_COUNT>
0

> <PUBCHEM_BOND_DEF_STEREO_COUNT>
0

> <PUBCHEM_BOND_UDEF_STEREO_COUNT>
0

> <PUBCHEM_ISOTOPIC_ATOM_COUNT>
0

> <PUBCHEM_COMPONENT_COUNT>
1

> <PUBCHEM_CACTVS_TAUTO_COUNT>
1

> <PUBCHEM_CONFORMER_ID>
02BA9B8000000009

> <PUBCHEM_MMFF94_ENERGY>
89.0722

> <PUBCHEM_FEATURE_SELFOVERLAP>
45.673

> <PUBCHEM_SHAPE_FINGERPRINT>
10673678 19 18341614785475318587
10675989 125 18409729534810816200
10864689 126 18338243781815507804
10928967 22 9652814397318682052
11374522 174 18115041791051397884
11386260 185 18198345044157693870
11505856 67 18124871523835461351
12925494 130 18334579061813343065
13944108 23 18266463113950738224
14400156 147 10775847279672000111
15082195 135 17774439374382345195
15198563 99 17623007210869882207
15400415 2 18264491856863793680
15530120 55 17774991444850959757
15705408 1 16839410167473474223
15979999 66 17624425177432742854
19053607 189 18268419304103486192
20691028 202 18262800803948583348
21223535 225 18053390083429754996
21716022 299 14475287587463595182
22122407 14 18337116678699721835
23522609 53 17844817976232900825
27425 322 18411136918205585671
3472631 163 18340206263904633967
353859 123 15099573256244946393
354706 132 17901679477502911164
4760202 170 17974838472663990309
5109719 28 18338811056710533265
57527585 21 17693361649201838806
5951187 136 18341902831240562270
7288768 16 17752762709005121370
7970288 3 9583527498903543920

> <PUBCHEM_SHAPE_MULTIPOLES>
705.11
18.7
8.54
1.79
25.11
4.7
1.19
33.8
2.33
-9.32
-1.17
0.22
-2.05
-0.89

> <PUBCHEM_SHAPE_SELFOVERLAP>
1504.392

> <PUBCHEM_SHAPE_VOLUME>
389.6

> <PUBCHEM_COORDINATE_TYPE>
2
5
10

$$$$
