51137359
  -OEChem-12032416243D

 49 53  0     1  0  0  0  0  0999 V2000
    5.1382   -0.7594   -1.4338 Cl  0  0  0  0  0  0  0  0  0  0  0  0
   -2.4865    0.2042    0.1376 O   0  0  0  0  0  0  0  0  0  0  0  0
   -0.1371    2.8191    0.6119 N   0  0  2  0  0  0  0  0  0  0  0  0
   -4.1011    1.0211   -1.1779 N   0  0  0  0  0  0  0  0  0  0  0  0
   -4.2929   -0.3432   -1.0634 N   0  0  0  0  0  0  0  0  0  0  0  0
    0.0296   -3.6204   -1.2602 N   0  0  0  0  0  0  0  0  0  0  0  0
   -2.3562    2.6244   -0.2155 C   0  0  1  0  0  0  0  0  0  0  0  0
   -2.3483    3.0218    1.2680 C   0  0  0  0  0  0  0  0  0  0  0  0
   -0.8790    2.6809   -0.6454 C   0  0  0  0  0  0  0  0  0  0  0  0
   -0.9775    3.6424    1.4790 C   0  0  0  0  0  0  0  0  0  0  0  0
    1.1895    3.3842    0.4189 C   0  0  0  0  0  0  0  0  0  0  0  0
   -3.0364    1.2959   -0.4611 C   0  0  0  0  0  0  0  0  0  0  0  0
    2.1782    2.3479   -0.0453 C   0  0  0  0  0  0  0  0  0  0  0  0
   -3.3278   -0.7780   -0.2872 C   0  0  0  0  0  0  0  0  0  0  0  0
   -3.0418   -2.1419    0.1750 C   0  0  0  0  0  0  0  0  0  0  0  0
    2.9105    1.6154    0.8889 C   0  0  0  0  0  0  0  0  0  0  0  0
    2.3618    2.1201   -1.4092 C   0  0  0  0  0  0  0  0  0  0  0  0
   -1.6491   -2.6553   -0.1751 C   0  0  0  0  0  0  0  0  0  0  0  0
   -0.4736   -2.5228    0.6157 C   0  0  0  0  0  0  0  0  0  0  0  0
    0.5650   -3.1366   -0.0877 C   0  0  0  0  0  0  0  0  0  0  0  0
   -1.3078   -3.3343   -1.3221 C   0  0  0  0  0  0  0  0  0  0  0  0
    3.8265    0.6552    0.4594 C   0  0  0  0  0  0  0  0  0  0  0  0
    3.2779    1.1601   -1.8388 C   0  0  0  0  0  0  0  0  0  0  0  0
    4.0103    0.4277   -0.9045 C   0  0  0  0  0  0  0  0  0  0  0  0
   -0.1926   -1.9377    1.8664 C   0  0  0  0  0  0  0  0  0  0  0  0
    1.8757   -3.1949    0.3989 C   0  0  0  0  0  0  0  0  0  0  0  0
    1.1139   -1.9884    2.3657 C   0  0  0  0  0  0  0  0  0  0  0  0
    2.1306   -2.6077    1.6416 C   0  0  0  0  0  0  0  0  0  0  0  0
   -2.9099    3.3860   -0.7809 H   0  0  0  0  0  0  0  0  0  0  0  0
   -3.1526    3.7274    1.5020 H   0  0  0  0  0  0  0  0  0  0  0  0
   -2.4716    2.1509    1.9241 H   0  0  0  0  0  0  0  0  0  0  0  0
   -0.7370    3.5545   -1.2951 H   0  0  0  0  0  0  0  0  0  0  0  0
   -0.5721    1.7878   -1.1997 H   0  0  0  0  0  0  0  0  0  0  0  0
   -0.9825    4.6935    1.1634 H   0  0  0  0  0  0  0  0  0  0  0  0
   -0.6706    3.5881    2.5282 H   0  0  0  0  0  0  0  0  0  0  0  0
    1.1835    4.2443   -0.2645 H   0  0  0  0  0  0  0  0  0  0  0  0
    1.5629    3.7853    1.3718 H   0  0  0  0  0  0  0  0  0  0  0  0
   -3.1767   -2.1911    1.2625 H   0  0  0  0  0  0  0  0  0  0  0  0
   -3.7808   -2.8319   -0.2518 H   0  0  0  0  0  0  0  0  0  0  0  0
    2.7747    1.7801    1.9545 H   0  0  0  0  0  0  0  0  0  0  0  0
    1.8010    2.6863   -2.1480 H   0  0  0  0  0  0  0  0  0  0  0  0
   -1.8950   -3.6397   -2.1769 H   0  0  0  0  0  0  0  0  0  0  0  0
    4.3890    0.0908    1.1987 H   0  0  0  0  0  0  0  0  0  0  0  0
    3.4108    0.9933   -2.9047 H   0  0  0  0  0  0  0  0  0  0  0  0
    0.5496   -4.1148   -1.9720 H   0  0  0  0  0  0  0  0  0  0  0  0
   -0.9726   -1.4489    2.4430 H   0  0  0  0  0  0  0  0  0  0  0  0
    2.6685   -3.6752   -0.1647 H   0  0  0  0  0  0  0  0  0  0  0  0
    1.3370   -1.5369    3.3287 H   0  0  0  0  0  0  0  0  0  0  0  0
    3.1388   -2.6336    2.0473 H   0  0  0  0  0  0  0  0  0  0  0  0
  1 24  1  0  0  0  0
  2 12  1  0  0  0  0
  2 14  1  0  0  0  0
  3  9  1  0  0  0  0
  3 10  1  0  0  0  0
  3 11  1  0  0  0  0
  4  5  1  0  0  0  0
  4 12  2  0  0  0  0
  5 14  2  0  0  0  0
  6 20  1  0  0  0  0
  6 21  1  0  0  0  0
  6 45  1  0  0  0  0
  7  8  1  0  0  0  0
  7  9  1  0  0  0  0
  7 12  1  0  0  0  0
  7 29  1  0  0  0  0
  8 10  1  0  0  0  0
  8 30  1  0  0  0  0
  8 31  1  0  0  0  0
  9 32  1  0  0  0  0
  9 33  1  0  0  0  0
 10 34  1  0  0  0  0
 10 35  1  0  0  0  0
 11 13  1  0  0  0  0
 11 36  1  0  0  0  0
 11 37  1  0  0  0  0
 13 16  2  0  0  0  0
 13 17  1  0  0  0  0
 14 15  1  0  0  0  0
 15 18  1  0  0  0  0
 15 38  1  0  0  0  0
 15 39  1  0  0  0  0
 16 22  1  0  0  0  0
 16 40  1  0  0  0  0
 17 23  2  0  0  0  0
 17 41  1  0  0  0  0
 18 19  1  0  0  0  0
 18 21  2  0  0  0  0
 19 20  1  0  0  0  0
 19 25  2  0  0  0  0
 20 26  2  0  0  0  0
 21 42  1  0  0  0  0
 22 24  2  0  0  0  0
 22 43  1  0  0  0  0
 23 24  1  0  0  0  0
 23 44  1  0  0  0  0
 25 27  1  0  0  0  0
 25 46  1  0  0  0  0
 26 28  1  0  0  0  0
 26 47  1  0  0  0  0
 27 28  2  0  0  0  0
 27 48  1  0  0  0  0
 28 49  1  0  0  0  0
M  END
> <PUBCHEM_COMPOUND_CID>
51137359

> <PUBCHEM_CONFORMER_RMSD>
1.4

> <PUBCHEM_CONFORMER_DIVERSEORDER>
1
27
31
10
54
7
38
32
20
30
55
58
36
5
51
24
40
33
28
41
42
37
22
47
56
34
3
57
48
39
61
21
2
29
25
8
19
35
52
9
60
50
23
53
12
26
46
18
59
45
4
43
14
44
15
62
11
17
16
13
49
63
6

> <PUBCHEM_MMFF94_PARTIAL_CHARGES>
36
1 -0.18
10 0.27
11 0.41
12 0.3
13 -0.14
14 0.3
15 0.36
16 -0.15
17 -0.15
18 -0.18
2 -0.28
20 -0.15
21 -0.3
22 -0.15
23 -0.15
24 0.18
25 -0.15
26 -0.15
27 -0.15
28 -0.15
3 -0.81
4 -0.34
40 0.15
41 0.15
42 0.15
43 0.15
44 0.15
45 0.27
46 0.15
47 0.15
48 0.15
49 0.15
5 -0.34
6 0.03
7 0.18
9 0.27

> <PUBCHEM_EFFECTIVE_ROTOR_COUNT>
6

> <PUBCHEM_PHARMACOPHORE_FEATURES>
8
1 3 cation
1 6 cation
1 6 donor
5 2 4 5 12 14 rings
5 3 7 8 9 10 rings
5 6 18 19 20 21 rings
6 13 16 17 22 23 24 rings
6 19 20 25 26 27 28 rings

> <PUBCHEM_HEAVY_ATOM_COUNT>
28

> <PUBCHEM_ATOM_DEF_STEREO_COUNT>
1

> <PUBCHEM_ATOM_UDEF_STEREO_COUNT>
0

> <PUBCHEM_BOND_DEF_STEREO_COUNT>
0

> <PUBCHEM_BOND_UDEF_STEREO_COUNT>
0

> <PUBCHEM_ISOTOPIC_ATOM_COUNT>
0

> <PUBCHEM_COMPONENT_COUNT>
1

> <PUBCHEM_CACTVS_TAUTO_COUNT>
1

> <PUBCHEM_CONFORMER_ID>
030C4B4F00000001

> <PUBCHEM_MMFF94_ENERGY>
47.542

> <PUBCHEM_FEATURE_SELFOVERLAP>
40.691

> <PUBCHEM_SHAPE_FINGERPRINT>
11513181 2 17843106014246411478
12038231 1 16466422687505573482
12422481 6 17833579029918652835
12539773 59 16405594496217713085
12712778 12 18337380635090426824
12788726 201 18265342887906644768
13122387 1 17113534814309639252
1361 2 15171639646042650934
14114207 22 15740128629769253331
14117953 113 16967156831303866332
14251757 5 18047772656620719356
14725015 67 17615669070323223803
14931854 50 18409168779379448508
15297060 5 17770775724181407450
19930381 70 16466140787459742606
20764821 26 18123471837032298084
20775438 99 16835121380962577535
3027735 51 18341618071020207537
3298306 158 18262504992607824317
35225 105 18262808500218196132
354706 35 12783609431216210646
463206 1 18264209102023290936
474144 1 18041266669935307178
58250162 1 18339624720557130248
6287921 2 17622439437661840170

> <PUBCHEM_SHAPE_MULTIPOLES>
552.3
7.23
6.04
1.78
2.51
0.45
-0.41
-1.42
3.39
-1.22
-1.08
0.76
0.49
-1.06

> <PUBCHEM_SHAPE_SELFOVERLAP>
1207.744

> <PUBCHEM_SHAPE_VOLUME>
303.7

> <PUBCHEM_COORDINATE_TYPE>
2
5
10

$$$$
