11866302
  -OEChem-12032416153D

 58 60  0     1  0  0  0  0  0999 V2000
    6.7216    2.3237   -1.4880 S   0  0  0  0  0  0  0  0  0  0  0  0
   -0.4398   -1.9873   -2.0005 O   0  0  0  0  0  0  0  0  0  0  0  0
    0.1258   -4.4916    0.6056 O   0  0  0  0  0  0  0  0  0  0  0  0
    3.5408   -1.5990    1.8866 O   0  0  0  0  0  0  0  0  0  0  0  0
   -3.7463   -1.6007    0.6391 O   0  0  0  0  0  0  0  0  0  0  0  0
    2.4937    2.1683    2.6498 O   0  0  0  0  0  0  0  0  0  0  0  0
   -1.7732   -0.5911   -0.0188 N   0  0  0  0  0  0  0  0  0  0  0  0
    2.9382    0.3028    0.6806 N   0  0  0  0  0  0  0  0  0  0  0  0
   -3.7468    0.5472   -0.3080 N   0  0  0  0  0  0  0  0  0  0  0  0
    4.6965    1.9488    3.2634 N   0  0  0  0  0  0  0  0  0  0  0  0
   -0.7105   -2.6844   -0.7825 C   0  0  1  0  0  0  0  0  0  0  0  0
    0.4481   -3.6482   -0.4984 C   0  0  1  0  0  0  0  0  0  0  0  0
   -0.8962   -1.6709    0.3629 C   0  0  1  0  0  0  0  0  0  0  0  0
    1.7668   -2.9040   -0.2265 C   0  0  0  0  0  0  0  0  0  0  0  0
    1.5879   -1.6501    0.5815 C   0  0  0  0  0  0  0  0  0  0  0  0
    0.4005   -1.0916    0.8603 C   0  0  0  0  0  0  0  0  0  0  0  0
    2.7855   -1.0000    1.1217 C   0  0  0  0  0  0  0  0  0  0  0  0
    4.0416    1.1470    1.0790 C   0  0  1  0  0  0  0  0  0  0  0  0
   -3.1620   -0.6363    0.1510 C   0  0  0  0  0  0  0  0  0  0  0  0
    4.3811    2.2007    0.0177 C   0  0  0  0  0  0  0  0  0  0  0  0
    3.6415    1.8188    2.3847 C   0  0  0  0  0  0  0  0  0  0  0  0
    5.2007    1.6303   -1.1157 C   0  0  0  0  0  0  0  0  0  0  0  0
   -5.1183    0.8930   -0.3125 C   0  0  0  0  0  0  0  0  0  0  0  0
    4.8961    0.5754   -1.9476 C   0  0  0  0  0  0  0  0  0  0  0  0
   -5.5239    2.1294   -0.8152 C   0  0  0  0  0  0  0  0  0  0  0  0
   -6.0650   -0.0020    0.1856 C   0  0  0  0  0  0  0  0  0  0  0  0
    5.9249    0.3331   -2.9030 C   0  0  0  0  0  0  0  0  0  0  0  0
    6.9765    1.2120   -2.7651 C   0  0  0  0  0  0  0  0  0  0  0  0
   -6.8762    2.4706   -0.8197 C   0  0  0  0  0  0  0  0  0  0  0  0
   -7.4175    0.3393    0.1811 C   0  0  0  0  0  0  0  0  0  0  0  0
   -7.8231    1.5756   -0.3217 C   0  0  0  0  0  0  0  0  0  0  0  0
   -9.2690    1.9411   -0.3275 C   0  0  0  0  0  0  0  0  0  0  0  0
   -1.6464   -3.2395   -0.9203 H   0  0  0  0  0  0  0  0  0  0  0  0
    0.5978   -4.3040   -1.3648 H   0  0  0  0  0  0  0  0  0  0  0  0
   -1.3551   -2.1908    1.2141 H   0  0  0  0  0  0  0  0  0  0  0  0
    2.4681   -3.5740    0.2852 H   0  0  0  0  0  0  0  0  0  0  0  0
    2.2212   -2.6205   -1.1843 H   0  0  0  0  0  0  0  0  0  0  0  0
    0.3411   -0.2069    1.4911 H   0  0  0  0  0  0  0  0  0  0  0  0
   -1.3726    0.2202   -0.4809 H   0  0  0  0  0  0  0  0  0  0  0  0
   -0.3571   -2.6518   -2.7056 H   0  0  0  0  0  0  0  0  0  0  0  0
    0.8624   -5.1148    0.7248 H   0  0  0  0  0  0  0  0  0  0  0  0
    4.9100    0.5023    1.2682 H   0  0  0  0  0  0  0  0  0  0  0  0
    2.2318    0.7092    0.0732 H   0  0  0  0  0  0  0  0  0  0  0  0
    3.4640    2.6382   -0.3989 H   0  0  0  0  0  0  0  0  0  0  0  0
    4.9249    3.0306    0.4879 H   0  0  0  0  0  0  0  0  0  0  0  0
   -3.1172    1.2509   -0.6857 H   0  0  0  0  0  0  0  0  0  0  0  0
    3.9800    0.0022   -1.8900 H   0  0  0  0  0  0  0  0  0  0  0  0
    4.5628    2.3668    4.1782 H   0  0  0  0  0  0  0  0  0  0  0  0
    5.6394    1.6526    3.0330 H   0  0  0  0  0  0  0  0  0  0  0  0
   -4.7962    2.8358   -1.2067 H   0  0  0  0  0  0  0  0  0  0  0  0
   -5.8291   -0.9760    0.5903 H   0  0  0  0  0  0  0  0  0  0  0  0
    5.8943   -0.4451   -3.6544 H   0  0  0  0  0  0  0  0  0  0  0  0
    7.8822    1.2547   -3.3536 H   0  0  0  0  0  0  0  0  0  0  0  0
   -7.1801    3.4360   -1.2157 H   0  0  0  0  0  0  0  0  0  0  0  0
   -8.1470   -0.3664    0.5699 H   0  0  0  0  0  0  0  0  0  0  0  0
   -9.4036    3.0221   -0.2138 H   0  0  0  0  0  0  0  0  0  0  0  0
   -9.8009    1.4634    0.5023 H   0  0  0  0  0  0  0  0  0  0  0  0
   -9.7321    1.6267   -1.2680 H   0  0  0  0  0  0  0  0  0  0  0  0
  1 22  1  0  0  0  0
  1 28  1  0  0  0  0
  2 11  1  0  0  0  0
  2 40  1  0  0  0  0
  3 12  1  0  0  0  0
  3 41  1  0  0  0  0
  4 17  2  0  0  0  0
  5 19  2  0  0  0  0
  6 21  2  0  0  0  0
  7 13  1  0  0  0  0
  7 19  1  0  0  0  0
  7 39  1  0  0  0  0
  8 17  1  0  0  0  0
  8 18  1  0  0  0  0
  8 43  1  0  0  0  0
  9 19  1  0  0  0  0
  9 23  1  0  0  0  0
  9 46  1  0  0  0  0
 10 21  1  0  0  0  0
 10 48  1  0  0  0  0
 10 49  1  0  0  0  0
 11 12  1  0  0  0  0
 11 13  1  0  0  0  0
 11 33  1  0  0  0  0
 12 14  1  0  0  0  0
 12 34  1  0  0  0  0
 13 16  1  0  0  0  0
 13 35  1  0  0  0  0
 14 15  1  0  0  0  0
 14 36  1  0  0  0  0
 14 37  1  0  0  0  0
 15 16  2  0  0  0  0
 15 17  1  0  0  0  0
 16 38  1  0  0  0  0
 18 20  1  0  0  0  0
 18 21  1  0  0  0  0
 18 42  1  0  0  0  0
 20 22  1  0  0  0  0
 20 44  1  0  0  0  0
 20 45  1  0  0  0  0
 22 24  2  0  0  0  0
 23 25  2  0  0  0  0
 23 26  1  0  0  0  0
 24 27  1  0  0  0  0
 24 47  1  0  0  0  0
 25 29  1  0  0  0  0
 25 50  1  0  0  0  0
 26 30  2  0  0  0  0
 26 51  1  0  0  0  0
 27 28  2  0  0  0  0
 27 52  1  0  0  0  0
 28 53  1  0  0  0  0
 29 31  2  0  0  0  0
 29 54  1  0  0  0  0
 30 31  1  0  0  0  0
 30 55  1  0  0  0  0
 31 32  1  0  0  0  0
 32 56  1  0  0  0  0
 32 57  1  0  0  0  0
 32 58  1  0  0  0  0
M  END
> <PUBCHEM_COMPOUND_CID>
11866302

> <PUBCHEM_CONFORMER_RMSD>
1.2

> <PUBCHEM_CONFORMER_DIVERSEORDER>
1
77
28
83
9
29
57
97
84
91
33
56
72
93
71
47
87
40
23
74
67
15
43
90
98
86
36
55
26
21
85
96
37
11
3
95
22
49
70
78
51
17
12
80
52
34
75
45
39
5
58
60
53
19
24
7
18
68
14
65
41
27
50
30
94
62
81
89
42
64
6
69
76
73
4
44
66
35
79
16
46
63
20
82
59
54
25
8
32
92
10
2
61
31
88
38
48
13

> <PUBCHEM_MMFF94_PARTIAL_CHARGES>
47
1 -0.08
10 -0.8
11 0.28
12 0.28
13 0.44
14 0.14
15 -0.12
16 -0.29
17 0.62
18 0.36
19 0.69
2 -0.68
20 0.18
21 0.57
22 -0.14
23 0.12
24 -0.15
25 -0.15
26 -0.15
27 -0.15
28 -0.11
29 -0.15
3 -0.68
30 -0.15
31 -0.14
32 0.14
38 0.15
39 0.37
4 -0.57
40 0.4
41 0.4
43 0.37
46 0.37
47 0.15
48 0.37
49 0.37
5 -0.57
50 0.15
51 0.15
52 0.15
53 0.15
54 0.15
55 0.15
6 -0.57
7 -0.73
8 -0.73
9 -0.55

> <PUBCHEM_EFFECTIVE_ROTOR_COUNT>
10.8

> <PUBCHEM_PHARMACOPHORE_FEATURES>
14
1 10 donor
1 2 acceptor
1 2 donor
1 3 acceptor
1 3 donor
1 4 acceptor
1 5 acceptor
1 6 acceptor
1 7 donor
1 8 donor
1 9 donor
5 1 22 24 27 28 rings
6 11 12 13 14 15 16 rings
6 23 25 26 29 30 31 rings

> <PUBCHEM_HEAVY_ATOM_COUNT>
32

> <PUBCHEM_ATOM_DEF_STEREO_COUNT>
4

> <PUBCHEM_ATOM_UDEF_STEREO_COUNT>
0

> <PUBCHEM_BOND_DEF_STEREO_COUNT>
0

> <PUBCHEM_BOND_UDEF_STEREO_COUNT>
0

> <PUBCHEM_ISOTOPIC_ATOM_COUNT>
0

> <PUBCHEM_COMPONENT_COUNT>
1

> <PUBCHEM_CACTVS_TAUTO_COUNT>
12

> <PUBCHEM_CONFORMER_ID>
00B510BE00000001

> <PUBCHEM_MMFF94_ENERGY>
69.1025

> <PUBCHEM_FEATURE_SELFOVERLAP>
71.108

> <PUBCHEM_SHAPE_FINGERPRINT>
10 15 17530969086232595833
10190206 1 18271544021549626560
11621639 336 17967813787575115388
11720765 8 17346606270858881696
11966995 178 18060699481985559065
1200032 147 17458068183829296024
12047536 79 15430303703556356847
13782708 43 11383827178411906337
14068700 675 12391526247926404606
14114211 68 18410019805658463294
14294032 229 18265622150986026779
14537116 161 17989486299291474677
14931854 50 17988933257669103152
14951699 99 17821452365508397319
15198563 99 17907579482362068639
15350500 16 15913057452892254628
19053607 189 18262228933416945533
19301679 30 8358261432014093071
21033648 29 18340761658440512464
21315763 87 13262395561955885969
21344244 78 12901552325567470263
21585481 104 15841557358225815001
21895439 516 16917069979898127967
23569943 247 11167944654747380781
3918712 181 18408320007969747581
3986486 107 17917447397257148668
4046055 4 17044304060478466327
4058900 60 18335431127285008203
4066623 53 17846223207595547824
4073 2 18187369805948714459
439807 62 11887951056218229789
444735 82 18264205812991160013
50009960 94 9798822819452800413
513532 50 17703783748117222576
5219985 13 18339913905053131163
57527293 21 17095513019914472851
57676310 82 12180720242382156094
5951187 136 17916854829351373624
59682541 52 16988850479720809500
6438161 24 11167938040064837709
9658208 31 18270114742353443098
9849439 229 18338223959801945306

> <PUBCHEM_SHAPE_MULTIPOLES>
613.12
22.92
4.05
2.43
37.35
3.69
0.82
-26.28
-9.19
-0.78
-0.23
-7.12
-1.46
0.26

> <PUBCHEM_SHAPE_SELFOVERLAP>
1282.861

> <PUBCHEM_SHAPE_VOLUME>
347

> <PUBCHEM_COORDINATE_TYPE>
2
5
10

$$$$
