45783273
  -OEChem-12032416273D

 53 56  0     1  0  0  0  0  0999 V2000
   -1.6877    3.5213   -0.4897 O   0  0  0  0  0  0  0  0  0  0  0  0
    4.8912   -2.9308   -0.2047 O   0  0  0  0  0  0  0  0  0  0  0  0
   -3.2295    0.1837    0.1076 N   0  0  1  0  0  0  0  0  0  0  0  0
   -0.6539    1.5733   -0.0983 N   0  0  0  0  0  0  0  0  0  0  0  0
   -0.3157    3.8029   -0.4834 N   0  0  0  0  0  0  0  0  0  0  0  0
    4.0364   -0.3043    0.4332 N   0  0  0  0  0  0  0  0  0  0  0  0
    4.4061    2.0149    0.0317 N   0  0  0  0  0  0  0  0  0  0  0  0
   -3.2045    1.6247   -0.2134 C   0  0  1  0  0  0  0  0  0  0  0  0
   -4.0761    2.2825    0.8723 C   0  0  0  0  0  0  0  0  0  0  0  0
   -4.5955    1.1289    1.7184 C   0  0  0  0  0  0  0  0  0  0  0  0
   -4.4990   -0.0656    0.7908 C   0  0  0  0  0  0  0  0  0  0  0  0
   -3.0600   -0.6684   -1.0623 C   0  0  0  0  0  0  0  0  0  0  0  0
   -1.7992    2.1875   -0.2553 C   0  0  0  0  0  0  0  0  0  0  0  0
   -2.6018   -2.0525   -0.6862 C   0  0  0  0  0  0  0  0  0  0  0  0
   -1.2389   -2.3380   -0.6045 C   0  0  0  0  0  0  0  0  0  0  0  0
   -3.5404   -3.0492   -0.4196 C   0  0  0  0  0  0  0  0  0  0  0  0
    0.2269    2.6048   -0.2467 C   0  0  0  0  0  0  0  0  0  0  0  0
    1.6440    2.4049   -0.1511 C   0  0  0  0  0  0  0  0  0  0  0  0
   -0.8146   -3.6203   -0.2563 C   0  0  0  0  0  0  0  0  0  0  0  0
   -3.1162   -4.3314   -0.0714 C   0  0  0  0  0  0  0  0  0  0  0  0
   -1.7532   -4.6170    0.0103 C   0  0  0  0  0  0  0  0  0  0  0  0
    2.1550    1.1356    0.0969 C   0  0  0  0  0  0  0  0  0  0  0  0
    2.5127    3.4794   -0.3078 C   0  0  0  0  0  0  0  0  0  0  0  0
    3.5310    0.9950    0.1785 C   0  0  0  0  0  0  0  0  0  0  0  0
    3.8726    3.2339   -0.2082 C   0  0  0  0  0  0  0  0  0  0  0  0
    3.1901   -1.4401    0.6032 C   0  0  0  0  0  0  0  0  0  0  0  0
    4.0276   -2.6734    0.8953 C   0  0  0  0  0  0  0  0  0  0  0  0
    5.6926   -4.0823    0.0204 C   0  0  0  0  0  0  0  0  0  0  0  0
   -3.6761    1.8119   -1.1883 H   0  0  0  0  0  0  0  0  0  0  0  0
   -3.5418    3.0073    1.4960 H   0  0  0  0  0  0  0  0  0  0  0  0
   -4.9204    2.8012    0.4019 H   0  0  0  0  0  0  0  0  0  0  0  0
   -5.6154    1.3031    2.0738 H   0  0  0  0  0  0  0  0  0  0  0  0
   -3.9488    0.9876    2.5933 H   0  0  0  0  0  0  0  0  0  0  0  0
   -5.3491   -0.0721    0.0969 H   0  0  0  0  0  0  0  0  0  0  0  0
   -4.4969   -0.9973    1.3639 H   0  0  0  0  0  0  0  0  0  0  0  0
   -2.2984   -0.2472   -1.7331 H   0  0  0  0  0  0  0  0  0  0  0  0
   -3.9722   -0.7188   -1.6725 H   0  0  0  0  0  0  0  0  0  0  0  0
   -0.4967   -1.5702   -0.8070 H   0  0  0  0  0  0  0  0  0  0  0  0
   -4.6053   -2.8429   -0.4852 H   0  0  0  0  0  0  0  0  0  0  0  0
    0.2467   -3.8419   -0.1916 H   0  0  0  0  0  0  0  0  0  0  0  0
   -3.8469   -5.1079    0.1350 H   0  0  0  0  0  0  0  0  0  0  0  0
   -1.4229   -5.6154    0.2815 H   0  0  0  0  0  0  0  0  0  0  0  0
    1.4746    0.3002    0.2164 H   0  0  0  0  0  0  0  0  0  0  0  0
    2.1724    4.4910   -0.5030 H   0  0  0  0  0  0  0  0  0  0  0  0
    4.5923    4.0378   -0.3227 H   0  0  0  0  0  0  0  0  0  0  0  0
    5.0446   -0.3944    0.4870 H   0  0  0  0  0  0  0  0  0  0  0  0
    2.4966   -1.2951    1.4398 H   0  0  0  0  0  0  0  0  0  0  0  0
    2.6152   -1.6222   -0.3130 H   0  0  0  0  0  0  0  0  0  0  0  0
    4.6259   -2.5208    1.8020 H   0  0  0  0  0  0  0  0  0  0  0  0
    3.3672   -3.5345    1.0507 H   0  0  0  0  0  0  0  0  0  0  0  0
    5.0637   -4.9686    0.1485 H   0  0  0  0  0  0  0  0  0  0  0  0
    6.3327   -4.2323   -0.8531 H   0  0  0  0  0  0  0  0  0  0  0  0
    6.3292   -3.9410    0.8993 H   0  0  0  0  0  0  0  0  0  0  0  0
  1  5  1  0  0  0  0
  1 13  1  0  0  0  0
  2 27  1  0  0  0  0
  2 28  1  0  0  0  0
  3  8  1  0  0  0  0
  3 11  1  0  0  0  0
  3 12  1  0  0  0  0
  4 13  2  0  0  0  0
  4 17  1  0  0  0  0
  5 17  2  0  0  0  0
  6 24  1  0  0  0  0
  6 26  1  0  0  0  0
  6 46  1  0  0  0  0
  7 24  2  0  0  0  0
  7 25  1  0  0  0  0
  8  9  1  0  0  0  0
  8 13  1  0  0  0  0
  8 29  1  0  0  0  0
  9 10  1  0  0  0  0
  9 30  1  0  0  0  0
  9 31  1  0  0  0  0
 10 11  1  0  0  0  0
 10 32  1  0  0  0  0
 10 33  1  0  0  0  0
 11 34  1  0  0  0  0
 11 35  1  0  0  0  0
 12 14  1  0  0  0  0
 12 36  1  0  0  0  0
 12 37  1  0  0  0  0
 14 15  2  0  0  0  0
 14 16  1  0  0  0  0
 15 19  1  0  0  0  0
 15 38  1  0  0  0  0
 16 20  2  0  0  0  0
 16 39  1  0  0  0  0
 17 18  1  0  0  0  0
 18 22  2  0  0  0  0
 18 23  1  0  0  0  0
 19 21  2  0  0  0  0
 19 40  1  0  0  0  0
 20 21  1  0  0  0  0
 20 41  1  0  0  0  0
 21 42  1  0  0  0  0
 22 24  1  0  0  0  0
 22 43  1  0  0  0  0
 23 25  2  0  0  0  0
 23 44  1  0  0  0  0
 25 45  1  0  0  0  0
 26 27  1  0  0  0  0
 26 47  1  0  0  0  0
 26 48  1  0  0  0  0
 27 49  1  0  0  0  0
 27 50  1  0  0  0  0
 28 51  1  0  0  0  0
 28 52  1  0  0  0  0
 28 53  1  0  0  0  0
M  END
> <PUBCHEM_COMPOUND_CID>
45783273

> <PUBCHEM_CONFORMER_RMSD>
1

> <PUBCHEM_CONFORMER_DIVERSEORDER>
1
90
65
103
69
113
128
118
30
108
29
117
41
10
84
81
102
99
106
80
123
46
60
121
28
18
114
15
57
59
37
63
134
33
19
85
66
23
44
122
116
26
132
79
112
96
100
71
91
31
68
111
51
49
52
53
78
109
64
61
16
125
83
5
110
115
36
136
58
7
21
104
56
75
35
133
67
25
32
89
77
34
13
127
8
82
39
101
70
105
27
62
124
9
38
87
130
135
47
14
107
48
119
76
54
94
45
40
50
93
86
129
17
42
73
72
55
120
131
20
88
6
11
98
92
95
43
97
4
2
74
22
126
3
12
24

> <PUBCHEM_MMFF94_PARTIAL_CHARGES>
35
1 -0.02
11 0.27
12 0.41
13 0.3
14 -0.14
15 -0.15
16 -0.15
17 0.46
18 0.05
19 -0.15
2 -0.56
20 -0.15
21 -0.15
22 -0.15
23 -0.15
24 0.41
25 0.16
26 0.37
27 0.28
28 0.28
3 -0.81
38 0.15
39 0.15
4 -0.57
40 0.15
41 0.15
42 0.15
43 0.15
44 0.15
45 0.15
46 0.4
5 -0.41
6 -0.87
7 -0.62
8 0.45

> <PUBCHEM_EFFECTIVE_ROTOR_COUNT>
9

> <PUBCHEM_PHARMACOPHORE_FEATURES>
9
1 2 acceptor
1 3 cation
1 6 donor
3 4 5 17 cation
3 6 7 24 cation
5 1 4 5 13 17 rings
5 3 8 9 10 11 rings
6 14 15 16 19 20 21 rings
6 7 18 22 23 24 25 rings

> <PUBCHEM_HEAVY_ATOM_COUNT>
28

> <PUBCHEM_ATOM_DEF_STEREO_COUNT>
1

> <PUBCHEM_ATOM_UDEF_STEREO_COUNT>
0

> <PUBCHEM_BOND_DEF_STEREO_COUNT>
0

> <PUBCHEM_BOND_UDEF_STEREO_COUNT>
0

> <PUBCHEM_ISOTOPIC_ATOM_COUNT>
0

> <PUBCHEM_COMPONENT_COUNT>
1

> <PUBCHEM_CACTVS_TAUTO_COUNT>
2

> <PUBCHEM_CONFORMER_ID>
02BA98E900000001

> <PUBCHEM_MMFF94_ENERGY>
66.1367

> <PUBCHEM_FEATURE_SELFOVERLAP>
45.672

> <PUBCHEM_SHAPE_FINGERPRINT>
10616163 171 18196373842941363372
1100329 8 18339079276737757470
11135926 11 18335978770666102388
11513181 2 18059295465254910910
11552529 35 18128541659573679729
12107183 9 18269280071061548793
12633257 1 18270964539923353758
13631057 29 17836648895688453532
14117953 113 18051973615203156333
14251757 5 18266471918929425878
14866123 147 18125448763993811323
15250474 111 18266453389975786560
15320467 1 18122061168078192350
15403338 16 16664290950965534907
16110190 28 18340485565490210306
16628084 112 18339069485161940919
19930381 70 17472130056463544387
20775530 9 17617085254548373087
21796203 349 17905646274478387520
229767 44 18268708303551233938
3246872 21 17763178446588967886
325973 47 18411132524564668358
3882209 13 17834910430777683190
463206 1 18336830896045139632
56633871 153 18412266125442343963
9961470 85 18341316856114828721

> <PUBCHEM_SHAPE_MULTIPOLES>
539.58
10.88
7.48
0.92
7.58
5.19
-0.19
5.01
-2.18
2.26
0.66
-0.75
-0.08
-1.78

> <PUBCHEM_SHAPE_SELFOVERLAP>
1153.695

> <PUBCHEM_SHAPE_VOLUME>
300.1

> <PUBCHEM_COORDINATE_TYPE>
2
5
10

$$$$
