56774712
  -OEChem-12032416273D

 59 60  0     1  0  0  0  0  0999 V2000
   -2.3614   -2.3551   -0.6931 O   0  0  0  0  0  0  0  0  0  0  0  0
   -2.3890    0.9664    1.8908 O   0  0  0  0  0  0  0  0  0  0  0  0
   -5.7842   -1.6747    0.2351 O   0  0  0  0  0  0  0  0  0  0  0  0
    4.6840   -1.1902    1.3626 O   0  0  0  0  0  0  0  0  0  0  0  0
   -4.0296   -0.1822   -0.0969 N   0  0  0  0  0  0  0  0  0  0  0  0
    3.7678    0.7647    0.4387 N   0  0  0  0  0  0  0  0  0  0  0  0
   -2.5869   -0.0073   -0.3060 C   0  0  1  0  0  0  0  0  0  0  0  0
   -1.8404   -0.0389    1.0309 C   0  0  1  0  0  0  0  0  0  0  0  0
   -4.7992    0.9899    0.2980 C   0  0  0  0  0  0  0  0  0  0  0  0
   -2.0633   -1.0812   -1.2522 C   0  0  0  0  0  0  0  0  0  0  0  0
   -6.0391    1.1963   -0.5793 C   0  0  0  0  0  0  0  0  0  0  0  0
   -4.6212   -1.4439   -0.1007 C   0  0  0  0  0  0  0  0  0  0  0  0
   -0.3720    0.1716    0.8751 C   0  0  0  0  0  0  0  0  0  0  0  0
   -3.7537   -2.5728   -0.6456 C   0  0  0  0  0  0  0  0  0  0  0  0
    6.6838    0.1416   -0.9221 C   0  0  0  0  0  0  0  0  0  0  0  0
   -5.6231    1.3835   -2.0387 C   0  0  0  0  0  0  0  0  0  0  0  0
   -6.8663    2.3967   -0.1142 C   0  0  0  0  0  0  0  0  0  0  0  0
    6.1669    0.4754    0.4977 C   0  0  0  0  0  0  0  0  0  0  0  0
    0.1065    1.3366    0.2757 C   0  0  0  0  0  0  0  0  0  0  0  0
    0.5230   -0.7971    1.3297 C   0  0  0  0  0  0  0  0  0  0  0  0
    6.8073   -1.3782   -1.1228 C   0  0  0  0  0  0  0  0  0  0  0  0
    5.7657    0.7238   -2.0092 C   0  0  0  0  0  0  0  0  0  0  0  0
    8.0829    0.7689   -1.0798 C   0  0  0  0  0  0  0  0  0  0  0  0
    2.3746    0.5647    0.5856 C   0  0  0  0  0  0  0  0  0  0  0  0
    1.4797    1.5332    0.1310 C   0  0  0  0  0  0  0  0  0  0  0  0
    1.8963   -0.6005    1.1850 C   0  0  0  0  0  0  0  0  0  0  0  0
    4.7910   -0.0915    0.8246 C   0  0  0  0  0  0  0  0  0  0  0  0
   -2.4620    0.9640   -0.8007 H   0  0  0  0  0  0  0  0  0  0  0  0
   -2.0348   -0.9917    1.5388 H   0  0  0  0  0  0  0  0  0  0  0  0
   -4.1685    1.8856    0.2616 H   0  0  0  0  0  0  0  0  0  0  0  0
   -5.1105    0.8394    1.3389 H   0  0  0  0  0  0  0  0  0  0  0  0
   -2.5343   -1.0005   -2.2406 H   0  0  0  0  0  0  0  0  0  0  0  0
   -0.9837   -1.0171   -1.4133 H   0  0  0  0  0  0  0  0  0  0  0  0
   -6.7029    0.3281   -0.5326 H   0  0  0  0  0  0  0  0  0  0  0  0
   -3.9252   -3.4567   -0.0224 H   0  0  0  0  0  0  0  0  0  0  0  0
   -4.1090   -2.8061   -1.6563 H   0  0  0  0  0  0  0  0  0  0  0  0
   -5.1287    0.4915   -2.4363 H   0  0  0  0  0  0  0  0  0  0  0  0
   -6.4990    1.5746   -2.6684 H   0  0  0  0  0  0  0  0  0  0  0  0
   -4.9388    2.2314   -2.1522 H   0  0  0  0  0  0  0  0  0  0  0  0
   -7.7585    2.5216   -0.7368 H   0  0  0  0  0  0  0  0  0  0  0  0
   -7.1961    2.2601    0.9211 H   0  0  0  0  0  0  0  0  0  0  0  0
   -6.2845    3.3233   -0.1653 H   0  0  0  0  0  0  0  0  0  0  0  0
    6.8621    0.0865    1.2536 H   0  0  0  0  0  0  0  0  0  0  0  0
    6.1437    1.5634    0.6451 H   0  0  0  0  0  0  0  0  0  0  0  0
   -0.5729    2.1088   -0.0746 H   0  0  0  0  0  0  0  0  0  0  0  0
    0.1645   -1.7100    1.7981 H   0  0  0  0  0  0  0  0  0  0  0  0
   -1.7892    1.0783    2.6481 H   0  0  0  0  0  0  0  0  0  0  0  0
    5.8297   -1.8707   -1.0864 H   0  0  0  0  0  0  0  0  0  0  0  0
    7.2537   -1.6127   -2.0960 H   0  0  0  0  0  0  0  0  0  0  0  0
    7.4397   -1.8288   -0.3498 H   0  0  0  0  0  0  0  0  0  0  0  0
    4.7865    0.2345   -2.0212 H   0  0  0  0  0  0  0  0  0  0  0  0
    6.2022    0.5857   -3.0055 H   0  0  0  0  0  0  0  0  0  0  0  0
    5.6108    1.7987   -1.8644 H   0  0  0  0  0  0  0  0  0  0  0  0
    8.7802    0.3749   -0.3317 H   0  0  0  0  0  0  0  0  0  0  0  0
    8.5044    0.5586   -2.0693 H   0  0  0  0  0  0  0  0  0  0  0  0
    8.0440    1.8576   -0.9598 H   0  0  0  0  0  0  0  0  0  0  0  0
    1.8395    2.4466   -0.3358 H   0  0  0  0  0  0  0  0  0  0  0  0
    2.5256   -1.3941    1.5624 H   0  0  0  0  0  0  0  0  0  0  0  0
    4.0296    1.6449    0.0005 H   0  0  0  0  0  0  0  0  0  0  0  0
  1 10  1  0  0  0  0
  1 14  1  0  0  0  0
  2  8  1  0  0  0  0
  2 47  1  0  0  0  0
  3 12  2  0  0  0  0
  4 27  2  0  0  0  0
  5  7  1  0  0  0  0
  5  9  1  0  0  0  0
  5 12  1  0  0  0  0
  6 24  1  0  0  0  0
  6 27  1  0  0  0  0
  6 59  1  0  0  0  0
  7  8  1  0  0  0  0
  7 10  1  0  0  0  0
  7 28  1  0  0  0  0
  8 13  1  0  0  0  0
  8 29  1  0  0  0  0
  9 11  1  0  0  0  0
  9 30  1  0  0  0  0
  9 31  1  0  0  0  0
 10 32  1  0  0  0  0
 10 33  1  0  0  0  0
 11 16  1  0  0  0  0
 11 17  1  0  0  0  0
 11 34  1  0  0  0  0
 12 14  1  0  0  0  0
 13 19  2  0  0  0  0
 13 20  1  0  0  0  0
 14 35  1  0  0  0  0
 14 36  1  0  0  0  0
 15 18  1  0  0  0  0
 15 21  1  0  0  0  0
 15 22  1  0  0  0  0
 15 23  1  0  0  0  0
 16 37  1  0  0  0  0
 16 38  1  0  0  0  0
 16 39  1  0  0  0  0
 17 40  1  0  0  0  0
 17 41  1  0  0  0  0
 17 42  1  0  0  0  0
 18 27  1  0  0  0  0
 18 43  1  0  0  0  0
 18 44  1  0  0  0  0
 19 25  1  0  0  0  0
 19 45  1  0  0  0  0
 20 26  2  0  0  0  0
 20 46  1  0  0  0  0
 21 48  1  0  0  0  0
 21 49  1  0  0  0  0
 21 50  1  0  0  0  0
 22 51  1  0  0  0  0
 22 52  1  0  0  0  0
 22 53  1  0  0  0  0
 23 54  1  0  0  0  0
 23 55  1  0  0  0  0
 23 56  1  0  0  0  0
 24 25  2  0  0  0  0
 24 26  1  0  0  0  0
 25 57  1  0  0  0  0
 26 58  1  0  0  0  0
M  END
> <PUBCHEM_COMPOUND_CID>
56774712

> <PUBCHEM_CONFORMER_RMSD>
1

> <PUBCHEM_CONFORMER_DIVERSEORDER>
1
29
21
19
30
4
40
35
14
23
11
10
22
41
32
28
16
42
33
38
39
25
7
37
12
31
20
17
24
18
34
3
15
27
5
8
9
26
36
6
13
2

> <PUBCHEM_MMFF94_PARTIAL_CHARGES>
26
1 -0.56
10 0.28
12 0.57
13 -0.14
14 0.34
18 0.06
19 -0.15
2 -0.68
20 -0.15
24 0.12
25 -0.15
26 -0.15
27 0.57
3 -0.57
4 -0.57
45 0.15
46 0.15
47 0.4
5 -0.66
57 0.15
58 0.15
59 0.37
6 -0.55
7 0.3
8 0.42
9 0.3

> <PUBCHEM_EFFECTIVE_ROTOR_COUNT>
9

> <PUBCHEM_PHARMACOPHORE_FEATURES>
10
1 1 acceptor
1 2 acceptor
1 2 donor
1 3 acceptor
1 4 acceptor
1 6 donor
3 11 16 17 hydrophobe
4 15 21 22 23 hydrophobe
6 1 5 7 10 12 14 rings
6 13 19 20 24 25 26 rings

> <PUBCHEM_HEAVY_ATOM_COUNT>
27

> <PUBCHEM_ATOM_DEF_STEREO_COUNT>
2

> <PUBCHEM_ATOM_UDEF_STEREO_COUNT>
0

> <PUBCHEM_BOND_DEF_STEREO_COUNT>
0

> <PUBCHEM_BOND_UDEF_STEREO_COUNT>
0

> <PUBCHEM_ISOTOPIC_ATOM_COUNT>
0

> <PUBCHEM_COMPONENT_COUNT>
1

> <PUBCHEM_CACTVS_TAUTO_COUNT>
6

> <PUBCHEM_CONFORMER_ID>
0362503800000001

> <PUBCHEM_MMFF94_ENERGY>
77.7455

> <PUBCHEM_FEATURE_SELFOVERLAP>
50.747

> <PUBCHEM_SHAPE_FINGERPRINT>
10 15 15213023730366239785
10638233 991 17313106392705235732
106641 1 10303802177929648788
11135609 187 18333168384485145570
11315181 36 17917716824480841608
11524674 6 15698001846694332958
11796584 16 17988918998752103066
12236239 1 18334570243955347098
12760667 363 15626231216627764458
13782708 43 15482674559300551716
14251752 14 18409446977354120860
14856354 85 17531251699122633627
15183329 4 18342737390514575488
15276724 80 17676482809426877388
15419008 91 17987781000017775704
1577012 14 17748540437945232162
20567600 75 16559035978159020220
21130935 74 10591771969773434508
21150785 3 17822294638844660258
21267235 1 18340490083896272939
21304303 64 16660366986801849404
21315764 119 18341900666988306902
220451 1 18259981565533963978
2215653 11 17203608181716010894
22224240 67 14707210994405305825
23081809 10 17313092056003882474
23198884 109 17168143451036016609
23522609 53 17822304448038774972
23559900 14 17774994743317498192
23569917 315 11095884891155531524
249057 3 18341891909545065953
2838139 119 15719668844791400198
29717793 49 17561081410860789280
3004659 81 18341048601353520488
335352 9 18413384333426821261
4015057 19 15625647432004346547
4073 2 17312825961516354747
4107672 100 18411138039402162799
4340502 62 12973603322925885256
5265222 85 18268149927695817022
559249 180 18342172276261724851
59682541 35 11386380235394822413
59755656 215 17846500301224983886

> <PUBCHEM_SHAPE_MULTIPOLES>
522.21
21.13
2.05
1.57
19.19
0.6
0.28
-4.8
8.85
-3.49
0.47
0.78
-0.11
-0.33

> <PUBCHEM_SHAPE_SELFOVERLAP>
1071.841

> <PUBCHEM_SHAPE_VOLUME>
298.6

> <PUBCHEM_COORDINATE_TYPE>
2
5
10

$$$$
