45783398
  -OEChem-12032416313D

 60 64  0     1  0  0  0  0  0999 V2000
   -0.8306    0.3842    3.0701 O   0  0  0  0  0  0  0  0  0  0  0  0
   -0.3982   -2.9267   -1.8735 O   0  0  0  0  0  0  0  0  0  0  0  0
   -3.0660   -0.0940    0.1927 N   0  0  1  0  0  0  0  0  0  0  0  0
   -0.2035    3.3690   -0.4222 N   0  0  0  0  0  0  0  0  0  0  0  0
   -0.2234   -0.3856    1.0563 N   0  0  0  0  0  0  0  0  0  0  0  0
    0.5698    0.4003    3.0531 N   0  0  0  0  0  0  0  0  0  0  0  0
    1.5532   -2.0782   -0.0458 N   0  0  0  0  0  0  0  0  0  0  0  0
    3.8143   -1.3814   -0.0176 N   0  0  0  0  0  0  0  0  0  0  0  0
   -2.7075   -0.2070    1.6207 C   0  0  1  0  0  0  0  0  0  0  0  0
   -3.2758   -1.5690    2.0600 C   0  0  0  0  0  0  0  0  0  0  0  0
   -4.2856   -0.8809    0.0092 C   0  0  0  0  0  0  0  0  0  0  0  0
   -3.9870   -2.1182    0.8314 C   0  0  0  0  0  0  0  0  0  0  0  0
   -3.2309    1.2843   -0.2508 C   0  0  0  0  0  0  0  0  0  0  0  0
   -1.2162   -0.0920    1.8574 C   0  0  0  0  0  0  0  0  0  0  0  0
   -1.9069    1.9491   -0.5194 C   0  0  0  0  0  0  0  0  0  0  0  0
   -0.9156    1.5188   -1.4453 C   0  0  0  0  0  0  0  0  0  0  0  0
   -1.4402    3.0887    0.0940 C   0  0  0  0  0  0  0  0  0  0  0  0
    0.1424    2.4267   -1.3645 C   0  0  0  0  0  0  0  0  0  0  0  0
   -0.8167    0.4406   -2.3470 C   0  0  0  0  0  0  0  0  0  0  0  0
    0.8521   -0.0671    1.8334 C   0  0  0  0  0  0  0  0  0  0  0  0
    1.2990    2.3099   -2.1435 C   0  0  0  0  0  0  0  0  0  0  0  0
    0.6099    4.4973   -0.0236 C   0  0  0  0  0  0  0  0  0  0  0  0
    0.3344    0.3111   -3.1326 C   0  0  0  0  0  0  0  0  0  0  0  0
    1.3747    1.2326   -3.0308 C   0  0  0  0  0  0  0  0  0  0  0  0
    2.1970   -0.2293    1.3613 C   0  0  0  0  0  0  0  0  0  0  0  0
    2.5564   -1.2045    0.4451 C   0  0  0  0  0  0  0  0  0  0  0  0
    3.1924    0.6193    1.8330 C   0  0  0  0  0  0  0  0  0  0  0  0
    4.4985    0.4687    1.3803 C   0  0  0  0  0  0  0  0  0  0  0  0
    1.8277   -3.1113   -0.9898 C   0  0  0  0  0  0  0  0  0  0  0  0
    4.7550   -0.5378    0.4632 C   0  0  0  0  0  0  0  0  0  0  0  0
    0.5463   -3.8474   -1.3419 C   0  0  0  0  0  0  0  0  0  0  0  0
   -1.6188   -3.5701   -2.2127 C   0  0  0  0  0  0  0  0  0  0  0  0
   -3.2131    0.5698    2.2114 H   0  0  0  0  0  0  0  0  0  0  0  0
   -4.0019   -1.4220    2.8689 H   0  0  0  0  0  0  0  0  0  0  0  0
   -2.5146   -2.2721    2.4152 H   0  0  0  0  0  0  0  0  0  0  0  0
   -4.4609   -1.1300   -1.0420 H   0  0  0  0  0  0  0  0  0  0  0  0
   -5.1680   -0.3634    0.4065 H   0  0  0  0  0  0  0  0  0  0  0  0
   -4.8905   -2.6772    1.0917 H   0  0  0  0  0  0  0  0  0  0  0  0
   -3.3163   -2.7904    0.2845 H   0  0  0  0  0  0  0  0  0  0  0  0
   -3.8312    1.8741    0.4540 H   0  0  0  0  0  0  0  0  0  0  0  0
   -3.7788    1.3011   -1.2034 H   0  0  0  0  0  0  0  0  0  0  0  0
   -1.8867    3.7173    0.8532 H   0  0  0  0  0  0  0  0  0  0  0  0
   -1.6205   -0.2828   -2.4441 H   0  0  0  0  0  0  0  0  0  0  0  0
    2.1131    3.0229   -2.0680 H   0  0  0  0  0  0  0  0  0  0  0  0
    1.5483    4.1165    0.3877 H   0  0  0  0  0  0  0  0  0  0  0  0
    0.7949    5.1177   -0.9041 H   0  0  0  0  0  0  0  0  0  0  0  0
    0.0828    5.0804    0.7358 H   0  0  0  0  0  0  0  0  0  0  0  0
    0.4162   -0.5188   -3.8295 H   0  0  0  0  0  0  0  0  0  0  0  0
    2.2602    1.1118   -3.6496 H   0  0  0  0  0  0  0  0  0  0  0  0
    2.9804    1.4123    2.5459 H   0  0  0  0  0  0  0  0  0  0  0  0
    0.7373   -2.1975    0.5455 H   0  0  0  0  0  0  0  0  0  0  0  0
    5.2904    1.1199    1.7321 H   0  0  0  0  0  0  0  0  0  0  0  0
    2.2440   -2.6701   -1.9034 H   0  0  0  0  0  0  0  0  0  0  0  0
    2.5571   -3.8232   -0.5875 H   0  0  0  0  0  0  0  0  0  0  0  0
    5.7570   -0.6964    0.0785 H   0  0  0  0  0  0  0  0  0  0  0  0
    0.7609   -4.6241   -2.0848 H   0  0  0  0  0  0  0  0  0  0  0  0
    0.1270   -4.3234   -0.4470 H   0  0  0  0  0  0  0  0  0  0  0  0
   -1.4551   -4.2951   -3.0158 H   0  0  0  0  0  0  0  0  0  0  0  0
   -2.0492   -4.0696   -1.3399 H   0  0  0  0  0  0  0  0  0  0  0  0
   -2.3233   -2.8121   -2.5651 H   0  0  0  0  0  0  0  0  0  0  0  0
  1  6  1  0  0  0  0
  1 14  1  0  0  0  0
  2 31  1  0  0  0  0
  2 32  1  0  0  0  0
  3  9  1  0  0  0  0
  3 11  1  0  0  0  0
  3 13  1  0  0  0  0
  4 17  1  0  0  0  0
  4 18  1  0  0  0  0
  4 22  1  0  0  0  0
  5 14  2  0  0  0  0
  5 20  1  0  0  0  0
  6 20  2  0  0  0  0
  7 26  1  0  0  0  0
  7 29  1  0  0  0  0
  7 51  1  0  0  0  0
  8 26  1  0  0  0  0
  8 30  2  0  0  0  0
  9 10  1  0  0  0  0
  9 14  1  0  0  0  0
  9 33  1  0  0  0  0
 10 12  1  0  0  0  0
 10 34  1  0  0  0  0
 10 35  1  0  0  0  0
 11 12  1  0  0  0  0
 11 36  1  0  0  0  0
 11 37  1  0  0  0  0
 12 38  1  0  0  0  0
 12 39  1  0  0  0  0
 13 15  1  0  0  0  0
 13 40  1  0  0  0  0
 13 41  1  0  0  0  0
 15 16  1  0  0  0  0
 15 17  2  0  0  0  0
 16 18  1  0  0  0  0
 16 19  2  0  0  0  0
 17 42  1  0  0  0  0
 18 21  2  0  0  0  0
 19 23  1  0  0  0  0
 19 43  1  0  0  0  0
 20 25  1  0  0  0  0
 21 24  1  0  0  0  0
 21 44  1  0  0  0  0
 22 45  1  0  0  0  0
 22 46  1  0  0  0  0
 22 47  1  0  0  0  0
 23 24  2  0  0  0  0
 23 48  1  0  0  0  0
 24 49  1  0  0  0  0
 25 26  2  0  0  0  0
 25 27  1  0  0  0  0
 27 28  2  0  0  0  0
 27 50  1  0  0  0  0
 28 30  1  0  0  0  0
 28 52  1  0  0  0  0
 29 31  1  0  0  0  0
 29 53  1  0  0  0  0
 29 54  1  0  0  0  0
 30 55  1  0  0  0  0
 31 56  1  0  0  0  0
 31 57  1  0  0  0  0
 32 58  1  0  0  0  0
 32 59  1  0  0  0  0
 32 60  1  0  0  0  0
M  END
> <PUBCHEM_COMPOUND_CID>
45783398

> <PUBCHEM_CONFORMER_RMSD>
1

> <PUBCHEM_CONFORMER_DIVERSEORDER>
1
32
9
18
113
151
119
184
117
181
31
141
149
205
180
4
144
195
166
100
120
165
201
167
104
36
44
103
194
161
182
49
8
152
193
197
2
87
142
105
140
97
16
189
168
40
171
203
19
196
56
169
202
174
91
208
192
157
190
88
211
54
210
63
38
108
21
94
123
17
173
126
170
29
172
150
83
102
164
121
65
116
127
93
124
25
110
207
96
46
136
81
61
78
34
50
160
39
186
130
206
52
177
199
68
12
82
23
138
147
137
5
112
175
156
131
80
109
13
75
89
48
158
72
128
162
59
139
143
106
33
159
86
30
178
42
132
90
35
3
198
98
67
26
28
183
74
41
204
55
69
15
185
92
148
84
51
6
129
10
101
45
11
163
58
114
191
79
14
60
188
209
53
70
95
99
122
107
73
125
76
62
176
37
20
153
85
118
57
43
187
27
179
71
133
134
154
47
22
24
7
135
146
145
111
115
155
77
200
64
66

> <PUBCHEM_MMFF94_PARTIAL_CHARGES>
38
1 -0.02
11 0.27
13 0.45
14 0.3
15 -0.18
17 -0.3
18 -0.15
19 -0.15
2 -0.56
20 0.46
21 -0.15
22 0.26
23 -0.15
24 -0.15
25 0.05
26 0.41
27 -0.15
28 -0.15
29 0.37
3 -0.81
30 0.16
31 0.28
32 0.28
4 0.05
42 0.15
43 0.15
44 0.15
48 0.15
49 0.15
5 -0.57
50 0.15
51 0.4
52 0.15
55 0.15
6 -0.41
7 -0.87
8 -0.62
9 0.45

> <PUBCHEM_EFFECTIVE_ROTOR_COUNT>
9

> <PUBCHEM_PHARMACOPHORE_FEATURES>
12
1 2 acceptor
1 3 cation
1 4 cation
1 7 cation
1 7 donor
1 8 acceptor
3 5 6 20 cation
5 1 5 6 14 20 rings
5 3 9 10 11 12 rings
5 4 15 16 17 18 rings
6 16 18 19 21 23 24 rings
6 8 25 26 27 28 30 rings

> <PUBCHEM_HEAVY_ATOM_COUNT>
32

> <PUBCHEM_ATOM_DEF_STEREO_COUNT>
1

> <PUBCHEM_ATOM_UDEF_STEREO_COUNT>
0

> <PUBCHEM_BOND_DEF_STEREO_COUNT>
0

> <PUBCHEM_BOND_UDEF_STEREO_COUNT>
0

> <PUBCHEM_ISOTOPIC_ATOM_COUNT>
0

> <PUBCHEM_COMPONENT_COUNT>
1

> <PUBCHEM_CACTVS_TAUTO_COUNT>
8

> <PUBCHEM_CONFORMER_ID>
02BA996600000001

> <PUBCHEM_MMFF94_ENERGY>
68.7117

> <PUBCHEM_FEATURE_SELFOVERLAP>
60.99

> <PUBCHEM_SHAPE_FINGERPRINT>
10675989 125 12735003561622017152
11578080 2 17768841691617876712
12156800 1 17767444255257283880
12166972 35 14779555590304207306
128993 33 16236177299440050964
133893 2 16807322277900173437
15274700 242 16530613924556352252
20600515 1 17676492713552272273
20691752 17 15482127036706354761
20905425 154 17244457357527143545
229495 10 17628615484632350501
23419403 2 17534034613953780525
23557571 272 18188214186747122170
238 59 17622970570408031094
35225 105 17202178884934595295
469060 322 17982978345742721070
57091435 65 17831588943498960851
6287921 2 18193003616917663276
9925002 15 17979068619859748130

> <PUBCHEM_SHAPE_MULTIPOLES>
616.92
6.2
4.52
3.27
1.35
0.72
-0.58
-2.97
3.26
-0.34
-2.87
0.23
-0.34
0.06

> <PUBCHEM_SHAPE_SELFOVERLAP>
1343.045

> <PUBCHEM_SHAPE_VOLUME>
339.8

> <PUBCHEM_COORDINATE_TYPE>
2
5
10

$$$$
