11886192
  -OEChem-12032416133D

 53 57  0     1  0  0  0  0  0999 V2000
   -0.1290   -2.2587    1.7600 O   0  0  0  0  0  0  0  0  0  0  0  0
    0.3494   -2.4870   -1.3401 O   0  0  0  0  0  0  0  0  0  0  0  0
    4.3490   -0.1692   -0.1743 O   0  0  0  0  0  0  0  0  0  0  0  0
   -4.3190   -1.8394    0.7456 O   0  0  0  0  0  0  0  0  0  0  0  0
    2.1783   -0.1434    0.7817 N   0  0  0  0  0  0  0  0  0  0  0  0
   -2.6439   -1.8711   -0.8623 N   0  0  0  0  0  0  0  0  0  0  0  0
    1.4233    0.7039    1.4871 N   0  0  0  0  0  0  0  0  0  0  0  0
    3.4056    1.6175    1.0324 N   0  0  0  0  0  0  0  0  0  0  0  0
   -4.6586   -0.8637   -1.3319 N   0  0  0  0  0  0  0  0  0  0  0  0
    2.1810    1.7833    1.6390 N   0  0  0  0  0  0  0  0  0  0  0  0
    0.3945   -1.3976   -0.4006 C   0  0  1  0  0  0  0  0  0  0  0  0
   -0.7132   -1.6299    0.6084 C   0  0  1  0  0  0  0  0  0  0  0  0
    1.6749   -1.4683    0.4097 C   0  0  2  0  0  0  0  0  0  0  0  0
   -1.6579   -2.5843   -0.0869 C   0  0  2  0  0  0  0  0  0  0  0  0
    1.2900   -2.3650    1.5813 C   0  0  0  0  0  0  0  0  0  0  0  0
   -0.7204   -3.3730   -0.9820 C   0  0  0  0  0  0  0  0  0  0  0  0
    3.3808    0.4140    0.5076 C   0  0  0  0  0  0  0  0  0  0  0  0
   -3.9115   -1.5516   -0.3790 C   0  0  0  0  0  0  0  0  0  0  0  0
   -6.0090   -0.4126   -1.0913 C   0  0  0  0  0  0  0  0  0  0  0  0
    5.5641    0.4520   -0.4277 C   0  0  0  0  0  0  0  0  0  0  0  0
   -6.0440    0.9712   -0.5099 C   0  0  0  0  0  0  0  0  0  0  0  0
    6.5982    0.2958    0.4751 C   0  0  0  0  0  0  0  0  0  0  0  0
    5.7033    1.2088   -1.5751 C   0  0  0  0  0  0  0  0  0  0  0  0
   -6.0169    1.1381    0.8698 C   0  0  0  0  0  0  0  0  0  0  0  0
   -6.1026    2.0717   -1.3569 C   0  0  0  0  0  0  0  0  0  0  0  0
    7.8189    0.9209    0.2206 C   0  0  0  0  0  0  0  0  0  0  0  0
    6.9242    1.8337   -1.8295 C   0  0  0  0  0  0  0  0  0  0  0  0
   -6.0492    2.4237    1.4101 C   0  0  0  0  0  0  0  0  0  0  0  0
   -6.1346    3.3573   -0.8165 C   0  0  0  0  0  0  0  0  0  0  0  0
    7.9820    1.6897   -0.9316 C   0  0  0  0  0  0  0  0  0  0  0  0
   -6.1079    3.5332    0.5670 C   0  0  0  0  0  0  0  0  0  0  0  0
    0.2674   -0.4727   -0.9726 H   0  0  0  0  0  0  0  0  0  0  0  0
   -1.1846   -0.7016    0.9469 H   0  0  0  0  0  0  0  0  0  0  0  0
    2.4846   -1.9457   -0.1549 H   0  0  0  0  0  0  0  0  0  0  0  0
   -2.1762   -3.2509    0.6107 H   0  0  0  0  0  0  0  0  0  0  0  0
    1.5082   -3.4141    1.3533 H   0  0  0  0  0  0  0  0  0  0  0  0
    1.7934   -2.1054    2.5175 H   0  0  0  0  0  0  0  0  0  0  0  0
   -1.1941   -3.7568   -1.8907 H   0  0  0  0  0  0  0  0  0  0  0  0
   -0.2777   -4.2163   -0.4405 H   0  0  0  0  0  0  0  0  0  0  0  0
   -2.3815   -1.5289   -1.7819 H   0  0  0  0  0  0  0  0  0  0  0  0
   -4.2305   -0.6505   -2.2276 H   0  0  0  0  0  0  0  0  0  0  0  0
   -6.5182   -1.1200   -0.4260 H   0  0  0  0  0  0  0  0  0  0  0  0
   -6.5406   -0.4413   -2.0493 H   0  0  0  0  0  0  0  0  0  0  0  0
    6.4736   -0.3029    1.3722 H   0  0  0  0  0  0  0  0  0  0  0  0
    4.8815    1.3215   -2.2756 H   0  0  0  0  0  0  0  0  0  0  0  0
   -5.9749    0.2828    1.5379 H   0  0  0  0  0  0  0  0  0  0  0  0
   -6.1219    1.9464   -2.4360 H   0  0  0  0  0  0  0  0  0  0  0  0
    8.6425    0.8086    0.9197 H   0  0  0  0  0  0  0  0  0  0  0  0
    7.0513    2.4323   -2.7268 H   0  0  0  0  0  0  0  0  0  0  0  0
   -6.0292    2.5607    2.4873 H   0  0  0  0  0  0  0  0  0  0  0  0
   -6.1798    4.2214   -1.4729 H   0  0  0  0  0  0  0  0  0  0  0  0
    8.9325    2.1763   -1.1297 H   0  0  0  0  0  0  0  0  0  0  0  0
   -6.1330    4.5342    0.9877 H   0  0  0  0  0  0  0  0  0  0  0  0
  1 12  1  0  0  0  0
  1 15  1  0  0  0  0
  2 11  1  0  0  0  0
  2 16  1  0  0  0  0
  3 17  1  0  0  0  0
  3 20  1  0  0  0  0
  4 18  2  0  0  0  0
  5  7  1  0  0  0  0
  5 13  1  0  0  0  0
  5 17  1  0  0  0  0
  6 14  1  0  0  0  0
  6 18  1  0  0  0  0
  6 40  1  0  0  0  0
  7 10  2  0  0  0  0
  8 10  1  0  0  0  0
  8 17  2  0  0  0  0
  9 18  1  0  0  0  0
  9 19  1  0  0  0  0
  9 41  1  0  0  0  0
 11 12  1  0  0  0  0
 11 13  1  0  0  0  0
 11 32  1  0  0  0  0
 12 14  1  0  0  0  0
 12 33  1  0  0  0  0
 13 15  1  0  0  0  0
 13 34  1  0  0  0  0
 14 16  1  0  0  0  0
 14 35  1  0  0  0  0
 15 36  1  0  0  0  0
 15 37  1  0  0  0  0
 16 38  1  0  0  0  0
 16 39  1  0  0  0  0
 19 21  1  0  0  0  0
 19 42  1  0  0  0  0
 19 43  1  0  0  0  0
 20 22  2  0  0  0  0
 20 23  1  0  0  0  0
 21 24  2  0  0  0  0
 21 25  1  0  0  0  0
 22 26  1  0  0  0  0
 22 44  1  0  0  0  0
 23 27  2  0  0  0  0
 23 45  1  0  0  0  0
 24 28  1  0  0  0  0
 24 46  1  0  0  0  0
 25 29  2  0  0  0  0
 25 47  1  0  0  0  0
 26 30  2  0  0  0  0
 26 48  1  0  0  0  0
 27 30  1  0  0  0  0
 27 49  1  0  0  0  0
 28 31  2  0  0  0  0
 28 50  1  0  0  0  0
 29 31  1  0  0  0  0
 29 51  1  0  0  0  0
 30 52  1  0  0  0  0
 31 53  1  0  0  0  0
M  END
> <PUBCHEM_COMPOUND_CID>
11886192

> <PUBCHEM_CONFORMER_RMSD>
1

> <PUBCHEM_CONFORMER_DIVERSEORDER>
1
267
23
184
251
380
42
300
340
181
85
344
59
116
343
390
283
345
386
263
210
57
242
106
19
291
314
323
239
393
124
82
354
69
213
286
366
48
364
320
241
5
252
351
94
136
182
387
24
141
174
39
199
350
238
219
212
375
284
163
207
171
279
200
131
79
211
264
352
292
130
112
355
379
164
285
74
41
336
168
170
187
243
333
254
302
64
266
91
194
21
60
353
15
235
359
17
262
274
245
71
220
370
176
180
3
156
326
363
234
190
315
192
382
327
362
319
8
332
179
225
204
127
260
67
294
317
201
221
22
121
244
290
62
158
258
65
49
37
270
30
102
173
337
313
280
142
312
224
385
261
318
202
196
100
175
185
36
384
20
93
388
177
159
342
392
172
374
191
32
289
110
128
228
109
209
369
321
339
217
298
25
231
381
348
152
38
295
189
86
154
256
378
304
246
46
77
356
137
371
34
117
347
54
75
120
322
133
307
250
331
255
113
52
139
167
160
97
229
151
68
104
299
16
96
126
134
394
56
10
310
391
122
146
293
135
81
27
296
206
45
98
268
215
325
70
257
301
349
119
107
305
61
87
372
4
145
233
330
341
328
237
358
35
58
40
73
276
193
7
155
103
169
29
51
50
197
205
376
9
248
227
236
208
129
316
249
92
338
72
147
361
368
149
282
334
383
183
195
297
397
281
288
272
2
230
11
165
259
367
287
214
232
223
148
90
278
157
222
31
306
311
153
186
203
125
373
329
161
53
84
144
101
66
108
240
303
277
253
111
105
389
123
63
44
6
309
269
47
247
114
377
324
218
88
13
89
365
18
162
308
271
178
357
99
95
226
33
14
395
12
273
150
198
166
83
43
28
138
80
78
143
55
360
26
118
346
216
76
265
396
140
115
188
275
335
132

> <PUBCHEM_MMFF94_PARTIAL_CHARGES>
42
1 -0.56
11 0.28
12 0.28
13 0.26
14 0.3
15 0.28
16 0.28
17 0.25
18 0.69
19 0.44
2 -0.56
20 0.08
21 -0.14
22 -0.15
23 -0.15
24 -0.15
25 -0.15
26 -0.15
27 -0.15
28 -0.15
29 -0.15
3 -0.15
30 -0.15
31 -0.15
4 -0.57
40 0.37
41 0.37
44 0.15
45 0.15
46 0.15
47 0.15
48 0.15
49 0.15
5 0.31
50 0.15
51 0.15
52 0.15
53 0.15
6 -0.73
7 -0.42
8 -0.34
9 -0.73

> <PUBCHEM_EFFECTIVE_ROTOR_COUNT>
9.2

> <PUBCHEM_PHARMACOPHORE_FEATURES>
11
1 1 acceptor
1 2 acceptor
1 4 acceptor
1 6 donor
1 9 donor
3 5 8 17 cation
5 1 11 12 13 15 rings
5 2 11 12 14 16 rings
5 5 7 8 10 17 rings
6 20 22 23 26 27 30 rings
6 21 24 25 28 29 31 rings

> <PUBCHEM_HEAVY_ATOM_COUNT>
31

> <PUBCHEM_ATOM_DEF_STEREO_COUNT>
4

> <PUBCHEM_ATOM_UDEF_STEREO_COUNT>
0

> <PUBCHEM_BOND_DEF_STEREO_COUNT>
0

> <PUBCHEM_BOND_UDEF_STEREO_COUNT>
0

> <PUBCHEM_ISOTOPIC_ATOM_COUNT>
0

> <PUBCHEM_COMPONENT_COUNT>
1

> <PUBCHEM_CACTVS_TAUTO_COUNT>
3

> <PUBCHEM_CONFORMER_ID>
00B55E7000000001

> <PUBCHEM_MMFF94_ENERGY>
73.2977

> <PUBCHEM_FEATURE_SELFOVERLAP>
56.565

> <PUBCHEM_SHAPE_FINGERPRINT>
10670039 82 18342733040408952389
10674148 151 18334852845310702568
11135609 201 18408892811432090659
11181472 205 18260552247821513884
11475781 23 18131072628372410324
1200032 147 18269565953265562115
12218070 45 14129357233646551505
12664476 115 18343302591885272721
13782708 43 9655578491740476350
14150022 121 18041574636993246379
14294032 229 18260824852926458356
14347329 18 18412256247001466481
15183329 4 17917434263178221290
15350500 16 11602831241849175689
15604295 49 18196368337780629672
15728490 51 9511462226007435588
15803439 3 16702016461655783623
16120349 67 18413111654173614263
16728433 281 18201446856659783736
16992727 255 18410578392347670208
19303781 99 10879695595123849149
19304152 47 17458344101144829397
21223535 225 18130494314777938020
21424621 283 18261111889605534178
21458453 9 11891343074874329068
21792965 106 18200307711247165600
21859007 373 18130774699080654840
22864921 47 10879723048386195404
23559900 14 16486131881007454114
255183 313 14201401615831975961
2838139 119 18341607157138705447
3711267 37 17676777569328278588
397830 11 11602827942718245430
4058900 60 18334575724566504907
406291 66 9294990363814917965
4169191 19 18187358822735851407
508180 173 18060137677854340192
5223283 242 17023187077591002150
5911458 16 18259706704765106901
59682541 35 11602819129909083766
6036956 94 18050565137305292373
6328613 192 18334856125679363846
6431902 208 8502367841783099873
6636798 310 14635168806853255769
6703917 75 17968105282003274746
9953998 17 12324233958815720509
9980921 52 13972583218108598004

> <PUBCHEM_SHAPE_MULTIPOLES>
584.6
23.08
3.98
1.63
12.4
0.14
-0.05
-25.11
5.95
-5.71
0.2
0.16
-0.21
-1.86

> <PUBCHEM_SHAPE_SELFOVERLAP>
1273.213

> <PUBCHEM_SHAPE_VOLUME>
317.6

> <PUBCHEM_COORDINATE_TYPE>
2
5
10

$$$$
