11913055
  -OEChem-12032416123D

 69 73  0     1  0  0  0  0  0999 V2000
    0.3767    1.1311   -1.9315 O   0  0  0  0  0  0  0  0  0  0  0  0
   -1.3884   -1.3046   -1.3275 O   0  0  0  0  0  0  0  0  0  0  0  0
    2.1687   -0.8833   -1.2743 O   0  0  0  0  0  0  0  0  0  0  0  0
    3.0139   -0.6165    0.8338 O   0  0  0  0  0  0  0  0  0  0  0  0
   -8.9806   -2.9099    0.4759 O   0  0  0  0  0  0  0  0  0  0  0  0
   -2.3088    2.2006   -0.7868 N   0  0  0  0  0  0  0  0  0  0  0  0
   -4.3224    1.2747   -0.0934 N   0  0  0  0  0  0  0  0  0  0  0  0
    4.4032   -0.6746   -1.0495 N   0  0  0  0  0  0  0  0  0  0  0  0
   -3.6424    3.4714    0.6272 N   0  0  0  0  0  0  0  0  0  0  0  0
   -1.3018   -0.0067   -0.7024 C   0  0  1  0  0  0  0  0  0  0  0  0
    0.1605    0.3915   -0.7187 C   0  0  1  0  0  0  0  0  0  0  0  0
   -1.9730    1.0313   -1.5707 C   0  0  2  0  0  0  0  0  0  0  0  0
    0.8633   -0.9446   -0.7458 C   0  0  1  0  0  0  0  0  0  0  0  0
   -0.8847    1.3656   -2.5761 C   0  0  0  0  0  0  0  0  0  0  0  0
   -0.0616   -1.7736   -1.6082 C   0  0  0  0  0  0  0  0  0  0  0  0
   -3.4753    2.3207   -0.0522 C   0  0  0  0  0  0  0  0  0  0  0  0
    3.1993   -0.7127   -0.3732 C   0  0  0  0  0  0  0  0  0  0  0  0
    9.6282   -0.0330    1.1218 C   0  0  0  0  0  0  0  0  0  0  0  0
    5.6999   -0.5155   -0.5100 C   0  0  0  0  0  0  0  0  0  0  0  0
   -5.4490    1.4256    0.6334 C   0  0  0  0  0  0  0  0  0  0  0  0
    8.2596   -0.2015    0.5540 C   0  0  0  0  0  0  0  0  0  0  0  0
   -4.7900    3.5549    1.3319 C   0  0  0  0  0  0  0  0  0  0  0  0
   -5.7390    2.5540    1.3729 C   0  0  0  0  0  0  0  0  0  0  0  0
    6.8095   -0.5011   -1.3552 C   0  0  0  0  0  0  0  0  0  0  0  0
    5.8701   -0.3730    0.8670 C   0  0  0  0  0  0  0  0  0  0  0  0
    9.6957    0.1162    2.6781 C   0  0  0  0  0  0  0  0  0  0  0  0
   10.5362   -1.2557    0.7827 C   0  0  0  0  0  0  0  0  0  0  0  0
   10.3240    1.2420    0.5521 C   0  0  0  0  0  0  0  0  0  0  0  0
    8.0893   -0.3441   -0.8232 C   0  0  0  0  0  0  0  0  0  0  0  0
    7.1499   -0.2161    1.3990 C   0  0  0  0  0  0  0  0  0  0  0  0
   -6.3591    0.3061    0.5927 C   0  0  0  0  0  0  0  0  0  0  0  0
   -7.6566    0.4808    0.1113 C   0  0  0  0  0  0  0  0  0  0  0  0
   -5.9427   -0.9494    1.0355 C   0  0  0  0  0  0  0  0  0  0  0  0
   -8.5377   -0.5998    0.0728 C   0  0  0  0  0  0  0  0  0  0  0  0
   -6.8237   -2.0300    0.9970 C   0  0  0  0  0  0  0  0  0  0  0  0
   -8.1211   -1.8552    0.5157 C   0  0  0  0  0  0  0  0  0  0  0  0
   -8.4901   -4.1653    0.9440 C   0  0  0  0  0  0  0  0  0  0  0  0
   -1.7095   -0.1018    0.3090 H   0  0  0  0  0  0  0  0  0  0  0  0
    0.4602    1.0295    0.1177 H   0  0  0  0  0  0  0  0  0  0  0  0
   -2.8519    0.6565   -2.1078 H   0  0  0  0  0  0  0  0  0  0  0  0
    0.8501   -1.3840    0.2612 H   0  0  0  0  0  0  0  0  0  0  0  0
   -0.9331    0.6952   -3.4414 H   0  0  0  0  0  0  0  0  0  0  0  0
   -0.9181    2.3970   -2.9408 H   0  0  0  0  0  0  0  0  0  0  0  0
    0.0055   -2.8422   -1.3830 H   0  0  0  0  0  0  0  0  0  0  0  0
    0.1403   -1.6456   -2.6776 H   0  0  0  0  0  0  0  0  0  0  0  0
   -1.6433    2.9622   -0.7185 H   0  0  0  0  0  0  0  0  0  0  0  0
    4.3541   -0.7727   -2.0607 H   0  0  0  0  0  0  0  0  0  0  0  0
   -4.9294    4.4791    1.8825 H   0  0  0  0  0  0  0  0  0  0  0  0
   -6.6440    2.6643    1.9575 H   0  0  0  0  0  0  0  0  0  0  0  0
    6.6904   -0.6111   -2.4300 H   0  0  0  0  0  0  0  0  0  0  0  0
    5.0586   -0.3745    1.5814 H   0  0  0  0  0  0  0  0  0  0  0  0
   10.7315    0.2351    3.0187 H   0  0  0  0  0  0  0  0  0  0  0  0
    9.1426    0.9983    3.0214 H   0  0  0  0  0  0  0  0  0  0  0  0
    9.2918   -0.7683    3.1843 H   0  0  0  0  0  0  0  0  0  0  0  0
   11.5336   -1.1463    1.2240 H   0  0  0  0  0  0  0  0  0  0  0  0
   10.0980   -2.1843    1.1670 H   0  0  0  0  0  0  0  0  0  0  0  0
   10.6727   -1.3770   -0.2975 H   0  0  0  0  0  0  0  0  0  0  0  0
    9.7311    2.1384    0.7683 H   0  0  0  0  0  0  0  0  0  0  0  0
   10.4546    1.1862   -0.5341 H   0  0  0  0  0  0  0  0  0  0  0  0
   11.3189    1.3827    0.9903 H   0  0  0  0  0  0  0  0  0  0  0  0
    8.9355   -0.3363   -1.5042 H   0  0  0  0  0  0  0  0  0  0  0  0
    7.2262   -0.1093    2.4756 H   0  0  0  0  0  0  0  0  0  0  0  0
   -7.9998    1.4497   -0.2438 H   0  0  0  0  0  0  0  0  0  0  0  0
   -4.9357   -1.1032    1.4167 H   0  0  0  0  0  0  0  0  0  0  0  0
   -9.5467   -0.4581   -0.3047 H   0  0  0  0  0  0  0  0  0  0  0  0
   -6.4354   -2.9769    1.3565 H   0  0  0  0  0  0  0  0  0  0  0  0
   -7.6603   -4.5281    0.3280 H   0  0  0  0  0  0  0  0  0  0  0  0
   -8.2309   -4.1248    2.0075 H   0  0  0  0  0  0  0  0  0  0  0  0
   -9.3049   -4.8894    0.8410 H   0  0  0  0  0  0  0  0  0  0  0  0
  1 11  1  0  0  0  0
  1 14  1  0  0  0  0
  2 10  1  0  0  0  0
  2 15  1  0  0  0  0
  3 13  1  0  0  0  0
  3 17  1  0  0  0  0
  4 17  2  0  0  0  0
  5 36  1  0  0  0  0
  5 37  1  0  0  0  0
  6 12  1  0  0  0  0
  6 16  1  0  0  0  0
  6 46  1  0  0  0  0
  7 16  1  0  0  0  0
  7 20  2  0  0  0  0
  8 17  1  0  0  0  0
  8 19  1  0  0  0  0
  8 47  1  0  0  0  0
  9 16  2  0  0  0  0
  9 22  1  0  0  0  0
 10 11  1  0  0  0  0
 10 12  1  0  0  0  0
 10 38  1  0  0  0  0
 11 13  1  0  0  0  0
 11 39  1  0  0  0  0
 12 14  1  0  0  0  0
 12 40  1  0  0  0  0
 13 15  1  0  0  0  0
 13 41  1  0  0  0  0
 14 42  1  0  0  0  0
 14 43  1  0  0  0  0
 15 44  1  0  0  0  0
 15 45  1  0  0  0  0
 18 21  1  0  0  0  0
 18 26  1  0  0  0  0
 18 27  1  0  0  0  0
 18 28  1  0  0  0  0
 19 24  2  0  0  0  0
 19 25  1  0  0  0  0
 20 23  1  0  0  0  0
 20 31  1  0  0  0  0
 21 29  2  0  0  0  0
 21 30  1  0  0  0  0
 22 23  2  0  0  0  0
 22 48  1  0  0  0  0
 23 49  1  0  0  0  0
 24 29  1  0  0  0  0
 24 50  1  0  0  0  0
 25 30  2  0  0  0  0
 25 51  1  0  0  0  0
 26 52  1  0  0  0  0
 26 53  1  0  0  0  0
 26 54  1  0  0  0  0
 27 55  1  0  0  0  0
 27 56  1  0  0  0  0
 27 57  1  0  0  0  0
 28 58  1  0  0  0  0
 28 59  1  0  0  0  0
 28 60  1  0  0  0  0
 29 61  1  0  0  0  0
 30 62  1  0  0  0  0
 31 32  2  0  0  0  0
 31 33  1  0  0  0  0
 32 34  1  0  0  0  0
 32 63  1  0  0  0  0
 33 35  2  0  0  0  0
 33 64  1  0  0  0  0
 34 36  2  0  0  0  0
 34 65  1  0  0  0  0
 35 36  1  0  0  0  0
 35 66  1  0  0  0  0
 37 67  1  0  0  0  0
 37 68  1  0  0  0  0
 37 69  1  0  0  0  0
M  END
> <PUBCHEM_COMPOUND_CID>
11913055

> <PUBCHEM_CONFORMER_RMSD>
1

> <PUBCHEM_CONFORMER_DIVERSEORDER>
1
66
32
88
95
13
6
58
26
76
97
28
7
35
5
89
52
55
30
86
24
25
87
59
56
37
80
99
92
64
50
101
68
19
47
61
46
4
48
98
75
20
84
73
34
54
77
71
67
15
74
2
70
11
18
12
3
85
36
79
57
14
63
38
51
42
72
93
69
44
96
31
62
10
29
43
45
65
8
83
17
23
27
40
16
21
100
82
41
53
81
39
91
9
78
90
33
94
22
49
60

> <PUBCHEM_MMFF94_PARTIAL_CHARGES>
45
1 -0.56
10 0.28
11 0.28
12 0.37
13 0.28
14 0.28
15 0.28
16 0.72
17 0.78
18 0.14
19 0.12
2 -0.56
20 0.31
21 -0.14
22 0.16
23 -0.15
24 -0.15
25 -0.15
29 -0.15
3 -0.43
30 -0.15
32 -0.15
33 -0.15
34 -0.15
35 -0.15
36 0.08
37 0.28
4 -0.57
46 0.4
47 0.37
48 0.15
49 0.15
5 -0.36
50 0.15
51 0.15
6 -0.87
61 0.15
62 0.15
63 0.15
64 0.15
65 0.15
66 0.15
7 -0.62
8 -0.55
9 -0.62

> <PUBCHEM_EFFECTIVE_ROTOR_COUNT>
10.2

> <PUBCHEM_PHARMACOPHORE_FEATURES>
14
1 1 acceptor
1 2 acceptor
1 4 acceptor
1 5 acceptor
1 6 donor
1 7 acceptor
1 8 donor
4 18 26 27 28 hydrophobe
4 6 7 9 16 cation
5 1 10 11 12 14 rings
5 2 10 11 13 15 rings
6 19 21 24 25 29 30 rings
6 31 32 33 34 35 36 rings
6 7 9 16 20 22 23 rings

> <PUBCHEM_HEAVY_ATOM_COUNT>
37

> <PUBCHEM_ATOM_DEF_STEREO_COUNT>
4

> <PUBCHEM_ATOM_UDEF_STEREO_COUNT>
0

> <PUBCHEM_BOND_DEF_STEREO_COUNT>
0

> <PUBCHEM_BOND_UDEF_STEREO_COUNT>
0

> <PUBCHEM_ISOTOPIC_ATOM_COUNT>
0

> <PUBCHEM_COMPONENT_COUNT>
1

> <PUBCHEM_CACTVS_TAUTO_COUNT>
6

> <PUBCHEM_CONFORMER_ID>
00B5C75F00000001

> <PUBCHEM_MMFF94_ENERGY>
137.3412

> <PUBCHEM_FEATURE_SELFOVERLAP>
71.763

> <PUBCHEM_SHAPE_FINGERPRINT>
10 15 18202561752717046638
10100884 174 18262238953765915515
10162869 55 16877663479185427462
10369192 42 17346594136595368396
10625338 86 17561080289694658952
106641 1 18411136935337033196
10917259 69 9006791873289421847
11115154 58 12535626086206259506
11135609 99 18263369243413482527
11146346 171 18202293473019879062
11200772 48 9295281738643565549
11408170 108 15502373370726345616
11408170 132 10303804394497524114
11828042 74 9799394668467624480
12144600 37 18128545872783805022
12838863 1 18262801899909366907
12841400 136 14273747243604566852
13740195 50 18342172284935880210
13974486 7 18122907801555951195
14068700 675 18187651340869960901
15684389 69 17894347774284665834
15728490 51 18334858325061659775
16992610 120 9583524213865342875
16992727 255 9871752382293529719
1768 4 16702297958117554176
17686467 74 18342738524961214665
18603816 31 15574723512535821521
18608769 82 18131631188093768991
19303781 99 18190463964871661079
19611394 137 18343024428001364705
2026 5 13046241466891997065
20501277 180 15840693241403427184
21095123 145 18260551113364188676
21130935 74 18267307530343943006
21360443 89 18114177570579555170
21792965 131 17313094255328696018
21792965 184 18340492286719098214
21792965 270 17774713286206777616
21792965 39 18341331082118586846
3092352 35 13973962095240206124
335507 130 17988640813662215380
3711267 37 16200434667734142640
4403749 210 18271805662809917629
504579 68 11312051068177929092
58083652 198 16588316002760950612
59521270 166 9439404627363297784
59521660 218 16371298826256287132
59682541 35 18131070437110777583
6081469 158 12540694817418888398
6126387 218 16877940504164940013
9663363 56 18344145887840320645
9689198 14 17489307439177627460
9953998 17 18272376330983145433
9962374 69 17313386751533573388

> <PUBCHEM_SHAPE_MULTIPOLES>
712.17
38.77
3.14
1.85
55.03
0.25
-0.26
-15.4
22.33
-11.87
1.12
2.09
0.3
0.93

> <PUBCHEM_SHAPE_SELFOVERLAP>
1547.323

> <PUBCHEM_SHAPE_VOLUME>
388.8

> <PUBCHEM_COORDINATE_TYPE>
2
5
10

$$$$
