11883406
  -OEChem-12032416193D

 57 60  0     1  0  0  0  0  0999 V2000
    9.7504   -0.0579   -0.7044 F   0  0  0  0  0  0  0  0  0  0  0  0
    9.9965    2.0946   -0.6029 F   0  0  0  0  0  0  0  0  0  0  0  0
    8.8750    1.2073   -2.2411 F   0  0  0  0  0  0  0  0  0  0  0  0
    0.4337   -1.4189   -1.2629 O   0  0  0  0  0  0  0  0  0  0  0  0
   -0.4786   -3.3586    0.9302 O   0  0  0  0  0  0  0  0  0  0  0  0
    2.6423   -1.6822    0.3982 O   0  0  0  0  0  0  0  0  0  0  0  0
   -4.5194   -2.0052    0.0443 O   0  0  0  0  0  0  0  0  0  0  0  0
    2.9235    0.1494    1.7382 O   0  0  0  0  0  0  0  0  0  0  0  0
  -10.8581    0.9397    0.2826 O   0  0  0  0  0  0  0  0  0  0  0  0
   -2.6441   -1.0164   -0.8782 N   0  0  0  0  0  0  0  0  0  0  0  0
   -4.5852    0.2052   -0.7434 N   0  0  0  0  0  0  0  0  0  0  0  0
    4.5849   -0.5468    0.2433 N   0  0  0  0  0  0  0  0  0  0  0  0
   -0.9600   -2.0531    0.5479 C   0  0  1  0  0  0  0  0  0  0  0  0
    0.2534   -1.2363    0.1514 C   0  0  1  0  0  0  0  0  0  0  0  0
   -1.7643   -2.1496   -0.7275 C   0  0  2  0  0  0  0  0  0  0  0  0
    1.3596   -1.8887    0.9454 C   0  0  1  0  0  0  0  0  0  0  0  0
   -0.6808   -2.1536   -1.7921 C   0  0  0  0  0  0  0  0  0  0  0  0
    0.9564   -3.3457    0.9167 C   0  0  0  0  0  0  0  0  0  0  0  0
   -3.9846   -1.0275   -0.4728 C   0  0  0  0  0  0  0  0  0  0  0  0
    3.3593   -0.6057    0.8779 C   0  0  0  0  0  0  0  0  0  0  0  0
   -5.9202    0.5953   -0.4863 C   0  0  0  0  0  0  0  0  0  0  0  0
    5.6205    0.3958    0.4361 C   0  0  0  0  0  0  0  0  0  0  0  0
   -6.3500    1.8777   -0.8273 C   0  0  0  0  0  0  0  0  0  0  0  0
   -6.8066   -0.3020    0.1095 C   0  0  0  0  0  0  0  0  0  0  0  0
    6.8006    0.2968   -0.3008 C   0  0  0  0  0  0  0  0  0  0  0  0
    5.4621    1.4247    1.3645 C   0  0  0  0  0  0  0  0  0  0  0  0
   -7.6662    2.2628   -0.5726 C   0  0  0  0  0  0  0  0  0  0  0  0
   -8.1228    0.0831    0.3641 C   0  0  0  0  0  0  0  0  0  0  0  0
    7.8226    1.2266   -0.1091 C   0  0  0  0  0  0  0  0  0  0  0  0
   -8.5527    1.3655    0.0230 C   0  0  0  0  0  0  0  0  0  0  0  0
    6.4841    2.3545    1.5561 C   0  0  0  0  0  0  0  0  0  0  0  0
    7.6643    2.2555    0.8194 C   0  0  0  0  0  0  0  0  0  0  0  0
    9.0854    1.1198   -0.8954 C   0  0  0  0  0  0  0  0  0  0  0  0
   -9.9250    1.7673    0.2878 C   0  0  0  0  0  0  0  0  0  0  0  0
  -10.2558    3.2268    0.5802 C   0  0  0  0  0  0  0  0  0  0  0  0
   -1.5032   -1.6363    1.4018 H   0  0  0  0  0  0  0  0  0  0  0  0
    0.1515   -0.1633    0.3378 H   0  0  0  0  0  0  0  0  0  0  0  0
   -2.3599   -3.0671   -0.7841 H   0  0  0  0  0  0  0  0  0  0  0  0
    1.3030   -1.5560    1.9911 H   0  0  0  0  0  0  0  0  0  0  0  0
   -0.9918   -1.7071   -2.7416 H   0  0  0  0  0  0  0  0  0  0  0  0
   -0.3303   -3.1728   -1.9893 H   0  0  0  0  0  0  0  0  0  0  0  0
    1.3065   -3.8568    0.0129 H   0  0  0  0  0  0  0  0  0  0  0  0
    1.3367   -3.9000    1.7802 H   0  0  0  0  0  0  0  0  0  0  0  0
   -2.2570   -0.1482   -1.2359 H   0  0  0  0  0  0  0  0  0  0  0  0
   -3.9990    0.9127   -1.1791 H   0  0  0  0  0  0  0  0  0  0  0  0
    4.7680   -1.2693   -0.4488 H   0  0  0  0  0  0  0  0  0  0  0  0
   -5.6699    2.5856   -1.2943 H   0  0  0  0  0  0  0  0  0  0  0  0
   -6.5483   -1.3096    0.4030 H   0  0  0  0  0  0  0  0  0  0  0  0
    6.9278   -0.5045   -1.0252 H   0  0  0  0  0  0  0  0  0  0  0  0
    4.5779    1.5652    1.9706 H   0  0  0  0  0  0  0  0  0  0  0  0
   -7.9775    3.2631   -0.8602 H   0  0  0  0  0  0  0  0  0  0  0  0
   -8.7992   -0.6273    0.8327 H   0  0  0  0  0  0  0  0  0  0  0  0
    6.3619    3.1561    2.2789 H   0  0  0  0  0  0  0  0  0  0  0  0
    8.4488    2.9891    0.9830 H   0  0  0  0  0  0  0  0  0  0  0  0
  -11.1335    3.2700    1.2322 H   0  0  0  0  0  0  0  0  0  0  0  0
   -9.4311    3.7140    1.1072 H   0  0  0  0  0  0  0  0  0  0  0  0
  -10.4699    3.7480   -0.3561 H   0  0  0  0  0  0  0  0  0  0  0  0
  1 33  1  0  0  0  0
  2 33  1  0  0  0  0
  3 33  1  0  0  0  0
  4 14  1  0  0  0  0
  4 17  1  0  0  0  0
  5 13  1  0  0  0  0
  5 18  1  0  0  0  0
  6 16  1  0  0  0  0
  6 20  1  0  0  0  0
  7 19  2  0  0  0  0
  8 20  2  0  0  0  0
  9 34  2  0  0  0  0
 10 15  1  0  0  0  0
 10 19  1  0  0  0  0
 10 44  1  0  0  0  0
 11 19  1  0  0  0  0
 11 21  1  0  0  0  0
 11 45  1  0  0  0  0
 12 20  1  0  0  0  0
 12 22  1  0  0  0  0
 12 46  1  0  0  0  0
 13 14  1  0  0  0  0
 13 15  1  0  0  0  0
 13 36  1  0  0  0  0
 14 16  1  0  0  0  0
 14 37  1  0  0  0  0
 15 17  1  0  0  0  0
 15 38  1  0  0  0  0
 16 18  1  0  0  0  0
 16 39  1  0  0  0  0
 17 40  1  0  0  0  0
 17 41  1  0  0  0  0
 18 42  1  0  0  0  0
 18 43  1  0  0  0  0
 21 23  2  0  0  0  0
 21 24  1  0  0  0  0
 22 25  1  0  0  0  0
 22 26  2  0  0  0  0
 23 27  1  0  0  0  0
 23 47  1  0  0  0  0
 24 28  2  0  0  0  0
 24 48  1  0  0  0  0
 25 29  2  0  0  0  0
 25 49  1  0  0  0  0
 26 31  1  0  0  0  0
 26 50  1  0  0  0  0
 27 30  2  0  0  0  0
 27 51  1  0  0  0  0
 28 30  1  0  0  0  0
 28 52  1  0  0  0  0
 29 32  1  0  0  0  0
 29 33  1  0  0  0  0
 30 34  1  0  0  0  0
 31 32  2  0  0  0  0
 31 53  1  0  0  0  0
 32 54  1  0  0  0  0
 34 35  1  0  0  0  0
 35 55  1  0  0  0  0
 35 56  1  0  0  0  0
 35 57  1  0  0  0  0
M  END
> <PUBCHEM_COMPOUND_CID>
11883406

> <PUBCHEM_CONFORMER_RMSD>
1.2

> <PUBCHEM_CONFORMER_DIVERSEORDER>
1
45
69
93
33
18
90
3
67
44
76
62
29
98
50
37
17
103
49
92
36
75
47
59
86
35
31
46
61
81
34
48
82
55
84
30
66
97
26
70
32
88
64
19
53
77
68
95
38
74
71
79
12
63
89
78
8
104
42
105
73
13
54
96
102
41
57
52
80
60
65
51
83
85
14
91
94
22
87
43
24
5
7
56
25
101
9
15
11
40
72
10
27
20
99
4
28
39
16
23
58
100
21
2
6

> <PUBCHEM_MMFF94_PARTIAL_CHARGES>
46
1 -0.34
10 -0.73
11 -0.55
12 -0.55
13 0.28
14 0.28
15 0.3
16 0.28
17 0.28
18 0.28
19 0.69
2 -0.34
20 0.78
21 0.12
22 0.12
23 -0.15
24 -0.15
25 -0.15
26 -0.15
27 -0.15
28 -0.15
29 -0.14
3 -0.34
30 0.09
31 -0.15
32 -0.15
33 1.16
34 0.42
35 0.06
4 -0.56
44 0.37
45 0.37
46 0.37
47 0.15
48 0.15
49 0.15
5 -0.56
50 0.15
51 0.15
52 0.15
53 0.15
54 0.15
6 -0.43
7 -0.57
8 -0.57
9 -0.57

> <PUBCHEM_EFFECTIVE_ROTOR_COUNT>
11.2

> <PUBCHEM_PHARMACOPHORE_FEATURES>
12
1 10 donor
1 11 donor
1 12 donor
1 4 acceptor
1 5 acceptor
1 7 acceptor
1 8 acceptor
1 9 acceptor
5 4 13 14 15 17 rings
5 5 13 14 16 18 rings
6 21 23 24 27 28 30 rings
6 22 25 26 29 31 32 rings

> <PUBCHEM_HEAVY_ATOM_COUNT>
35

> <PUBCHEM_ATOM_DEF_STEREO_COUNT>
4

> <PUBCHEM_ATOM_UDEF_STEREO_COUNT>
0

> <PUBCHEM_BOND_DEF_STEREO_COUNT>
0

> <PUBCHEM_BOND_UDEF_STEREO_COUNT>
0

> <PUBCHEM_ISOTOPIC_ATOM_COUNT>
0

> <PUBCHEM_COMPONENT_COUNT>
1

> <PUBCHEM_CACTVS_TAUTO_COUNT>
32

> <PUBCHEM_CONFORMER_ID>
00B5538E00000001

> <PUBCHEM_MMFF94_ENERGY>
97.1652

> <PUBCHEM_FEATURE_SELFOVERLAP>
61.667

> <PUBCHEM_SHAPE_FINGERPRINT>
10 15 18114178619310899387
10055352 69 18342735248385957947
10190206 1 17846787281922747640
10930396 42 16443063894815056669
10952577 141 18411420634895852502
11409948 41 14907632151512136196
1200032 147 18187077356697430266
12013929 112 15123790657344713057
12202916 173 10087641524229379404
12539765 74 18343864402919032630
12838863 1 9655576313965339973
14026016 60 15338568137506168796
14201967 126 18409446990192881685
14359421 15 12247682660529005309
14400156 260 18335129909240625424
14617042 71 18410294688514931073
14664723 55 18131355223586927881
14747281 78 18409735033065585862
15183329 4 17132119065439439850
15320295 40 8718829799401490817
15326923 82 10303806589009164146
15347590 135 15574706980653141668
15510800 12 10953732262482741129
15690457 1 9151174255305884996
15706992 2 18334864917836010843
1577012 14 18411407427861367371
15840311 113 18409450245893071487
15890870 6 18409730655533165777
16992610 120 18335427880948849102
1754911 235 17988922275880669821
17686467 74 18334852858475334947
19302320 297 17967533493233836412
2026 5 9079123267382073281
20505436 4 18342729716015588807
20721686 146 18341895161029949293
20766409 102 18340767036964348565
21057603 69 17825121547412138098
21095123 293 18113337526890832756
212700 22 9007055768954557225
21344244 78 16443634485219951351
21360443 89 9583525300755825836
21585482 111 18334851672067979173
22002106 203 7853563596675324169
23524908 199 17346605149703242396
23528940 14 10375605776804335540
23576562 1 17273677953447228973
24203241 11 12252200596350982361
24771293 8 18187362143072768415
25269216 80 17131535242488065663
2851757 41 8935001507721541297
3711267 37 18410865386041111576
3986486 107 17988923396861631856
3991529 128 18040440996521555877
406291 66 8718826509572801217
4339292 15 11167943541553648219
4408954 87 12757147991893587960
44880568 143 18124310765221858136
474113 269 12247687063081128708
4760202 170 17131545159488885648
5372103 7 17847064389276108998
5718773 13 9295288365408506643
5719381 82 9871748005837698437
5758199 1 18260261954190364739
59682541 35 13406791138470883988
6201320 221 14907634333513784700
6438161 24 8358252658001801851
6673363 416 18060135450132967097
9689198 14 18412544318768563215
9962374 69 11025810807397531795

> <PUBCHEM_SHAPE_MULTIPOLES>
648.3
39.73
3.48
1.33
12.6
0.84
-0.21
-45.33
-4
1.62
0.65
-2.17
0.01
-0.4

> <PUBCHEM_SHAPE_SELFOVERLAP>
1402.236

> <PUBCHEM_SHAPE_VOLUME>
355.6

> <PUBCHEM_COORDINATE_TYPE>
2
5
10

$$$$
