7687131
  -OEChem-12032416283D

 55 58  0     1  0  0  0  0  0999 V2000
    0.5551   -1.6250    1.4818 S   0  0  0  0  0  0  0  0  0  0  0  0
    0.5468   -3.0717    1.5322 O   0  0  0  0  0  0  0  0  0  0  0  0
    0.2606   -0.8371    2.6601 O   0  0  0  0  0  0  0  0  0  0  0  0
   -5.2770   -2.2654   -0.1615 O   0  0  0  0  0  0  0  0  0  0  0  0
    6.0920    2.2752    0.2577 O   0  0  0  0  0  0  0  0  0  0  0  0
   -0.4489   -1.1036    0.1980 N   0  0  2  0  0  0  0  0  0  0  0  0
   -3.4969   -0.8043   -0.5878 N   0  0  0  0  0  0  0  0  0  0  0  0
    5.8488    0.0836   -0.5763 N   0  0  0  0  0  0  0  0  0  0  0  0
   -1.4980   -1.5178   -2.0268 C   0  0  1  0  0  0  0  0  0  0  0  0
   -1.5641    0.7325   -1.0523 C   0  0  2  0  0  0  0  0  0  0  0  0
   -1.4001   -0.0399   -2.3591 C   0  0  0  0  0  0  0  0  0  0  0  0
   -0.3961   -1.9323   -1.0394 C   0  0  0  0  0  0  0  0  0  0  0  0
   -0.4186    0.3605   -0.0914 C   0  0  0  0  0  0  0  0  0  0  0  0
   -2.9018   -1.7990   -1.4907 C   0  0  0  0  0  0  0  0  0  0  0  0
   -2.9221    0.4688   -0.3927 C   0  0  0  0  0  0  0  0  0  0  0  0
   -3.5575    1.3993    0.3702 C   0  0  0  0  0  0  0  0  0  0  0  0
   -4.7241   -1.1755   -0.0122 C   0  0  0  0  0  0  0  0  0  0  0  0
   -4.8302    1.0411    0.9759 C   0  0  0  0  0  0  0  0  0  0  0  0
    2.1307   -1.1162    0.8687 C   0  0  0  0  0  0  0  0  0  0  0  0
   -5.3940   -0.1565    0.8227 C   0  0  0  0  0  0  0  0  0  0  0  0
   -3.0052    2.7194    0.6280 C   0  0  0  0  0  0  0  0  0  0  0  0
    2.5999    0.1506    1.1745 C   0  0  0  0  0  0  0  0  0  0  0  0
    2.8711   -1.9925    0.0926 C   0  0  0  0  0  0  0  0  0  0  0  0
   -3.2679    3.7726   -0.1401 C   0  0  0  0  0  0  0  0  0  0  0  0
    3.8450    0.5523    0.6904 C   0  0  0  0  0  0  0  0  0  0  0  0
    4.1162   -1.5909   -0.3913 C   0  0  0  0  0  0  0  0  0  0  0  0
    4.6032   -0.3184   -0.0923 C   0  0  0  0  0  0  0  0  0  0  0  0
   -2.7002    5.1293    0.1186 C   0  0  0  0  0  0  0  0  0  0  0  0
    6.4970    1.3106   -0.3827 C   0  0  0  0  0  0  0  0  0  0  0  0
    7.8363    1.3504   -1.0748 C   0  0  0  0  0  0  0  0  0  0  0  0
   -1.3566   -2.1077   -2.9412 H   0  0  0  0  0  0  0  0  0  0  0  0
   -1.4668    1.7956   -1.3015 H   0  0  0  0  0  0  0  0  0  0  0  0
   -2.1738    0.2495   -3.0813 H   0  0  0  0  0  0  0  0  0  0  0  0
   -0.4310    0.1864   -2.8205 H   0  0  0  0  0  0  0  0  0  0  0  0
   -0.5247   -2.9904   -0.7879 H   0  0  0  0  0  0  0  0  0  0  0  0
    0.5769   -1.8113   -1.5269 H   0  0  0  0  0  0  0  0  0  0  0  0
    0.5305    0.6340   -0.5644 H   0  0  0  0  0  0  0  0  0  0  0  0
   -0.5171    0.9272    0.8406 H   0  0  0  0  0  0  0  0  0  0  0  0
   -3.5916   -1.8710   -2.3433 H   0  0  0  0  0  0  0  0  0  0  0  0
   -2.9323   -2.7800   -0.9992 H   0  0  0  0  0  0  0  0  0  0  0  0
   -5.3294    1.7871    1.5881 H   0  0  0  0  0  0  0  0  0  0  0  0
   -6.3407   -0.4054    1.2869 H   0  0  0  0  0  0  0  0  0  0  0  0
   -2.3552    2.8062    1.4942 H   0  0  0  0  0  0  0  0  0  0  0  0
    2.0245    0.8436    1.7808 H   0  0  0  0  0  0  0  0  0  0  0  0
    2.5092   -2.9859   -0.1541 H   0  0  0  0  0  0  0  0  0  0  0  0
   -3.9196    3.6739   -1.0048 H   0  0  0  0  0  0  0  0  0  0  0  0
    4.1543    1.5517    0.9627 H   0  0  0  0  0  0  0  0  0  0  0  0
    4.6959   -2.2795   -1.0009 H   0  0  0  0  0  0  0  0  0  0  0  0
   -2.0542    5.1502    1.0020 H   0  0  0  0  0  0  0  0  0  0  0  0
   -3.5105    5.8486    0.2719 H   0  0  0  0  0  0  0  0  0  0  0  0
   -2.1096    5.4556   -0.7430 H   0  0  0  0  0  0  0  0  0  0  0  0
    6.3397   -0.6080   -1.1393 H   0  0  0  0  0  0  0  0  0  0  0  0
    8.4902    0.5789   -0.6587 H   0  0  0  0  0  0  0  0  0  0  0  0
    8.3014    2.3289   -0.9262 H   0  0  0  0  0  0  0  0  0  0  0  0
    7.7054    1.1796   -2.1470 H   0  0  0  0  0  0  0  0  0  0  0  0
  1  2  2  0  0  0  0
  1  3  2  0  0  0  0
  1  6  1  0  0  0  0
  1 19  1  0  0  0  0
  4 17  2  0  0  0  0
  5 29  2  0  0  0  0
  6 12  1  0  0  0  0
  6 13  1  0  0  0  0
  7 14  1  0  0  0  0
  7 15  1  0  0  0  0
  7 17  1  0  0  0  0
  8 27  1  0  0  0  0
  8 29  1  0  0  0  0
  8 52  1  0  0  0  0
  9 11  1  0  0  0  0
  9 12  1  0  0  0  0
  9 14  1  0  0  0  0
  9 31  1  0  0  0  0
 10 11  1  0  0  0  0
 10 13  1  0  0  0  0
 10 15  1  0  0  0  0
 10 32  1  0  0  0  0
 11 33  1  0  0  0  0
 11 34  1  0  0  0  0
 12 35  1  0  0  0  0
 12 36  1  0  0  0  0
 13 37  1  0  0  0  0
 13 38  1  0  0  0  0
 14 39  1  0  0  0  0
 14 40  1  0  0  0  0
 15 16  2  0  0  0  0
 16 18  1  0  0  0  0
 16 21  1  0  0  0  0
 17 20  1  0  0  0  0
 18 20  2  0  0  0  0
 18 41  1  0  0  0  0
 19 22  2  0  0  0  0
 19 23  1  0  0  0  0
 20 42  1  0  0  0  0
 21 24  2  0  0  0  0
 21 43  1  0  0  0  0
 22 25  1  0  0  0  0
 22 44  1  0  0  0  0
 23 26  2  0  0  0  0
 23 45  1  0  0  0  0
 24 28  1  0  0  0  0
 24 46  1  0  0  0  0
 25 27  2  0  0  0  0
 25 47  1  0  0  0  0
 26 27  1  0  0  0  0
 26 48  1  0  0  0  0
 28 49  1  0  0  0  0
 28 50  1  0  0  0  0
 28 51  1  0  0  0  0
 29 30  1  0  0  0  0
 30 53  1  0  0  0  0
 30 54  1  0  0  0  0
 30 55  1  0  0  0  0
M  END
> <PUBCHEM_COMPOUND_CID>
7687131

> <PUBCHEM_CONFORMER_RMSD>
0.8

> <PUBCHEM_CONFORMER_DIVERSEORDER>
1
17
11
3
15
21
8
6
4
13
16
7
14
20
19
10
9
18
2
5
12

> <PUBCHEM_MMFF94_PARTIAL_CHARGES>
36
1 1.45
10 0.14
12 0.36
13 0.36
14 0.3
15 -0.03
17 0.62
18 -0.15
19 -0.01
2 -0.65
20 -0.14
21 -0.15
22 -0.15
23 -0.15
24 -0.29
25 -0.15
26 -0.15
27 0.12
28 0.14
29 0.57
3 -0.65
30 0.06
4 -0.57
41 0.15
42 0.15
43 0.15
44 0.15
45 0.15
46 0.15
47 0.15
48 0.15
5 -0.57
52 0.37
6 -0.85
7 -0.47
8 -0.55

> <PUBCHEM_EFFECTIVE_ROTOR_COUNT>
6

> <PUBCHEM_PHARMACOPHORE_FEATURES>
10
1 2 acceptor
1 28 hydrophobe
1 3 acceptor
1 4 acceptor
1 5 acceptor
1 8 donor
6 19 22 23 25 26 27 rings
6 6 9 10 11 12 13 rings
6 7 15 16 17 18 20 rings
6 7 9 10 11 14 15 rings

> <PUBCHEM_HEAVY_ATOM_COUNT>
30

> <PUBCHEM_ATOM_DEF_STEREO_COUNT>
2

> <PUBCHEM_ATOM_UDEF_STEREO_COUNT>
0

> <PUBCHEM_BOND_DEF_STEREO_COUNT>
1

> <PUBCHEM_BOND_UDEF_STEREO_COUNT>
0

> <PUBCHEM_ISOTOPIC_ATOM_COUNT>
0

> <PUBCHEM_COMPONENT_COUNT>
1

> <PUBCHEM_CACTVS_TAUTO_COUNT>
2

> <PUBCHEM_CONFORMER_ID>
00754BDB00000001

> <PUBCHEM_MMFF94_ENERGY>
73.2589

> <PUBCHEM_FEATURE_SELFOVERLAP>
52.338

> <PUBCHEM_SHAPE_FINGERPRINT>
10165383 225 17203619177191264083
10670039 82 18272366481984780084
11285246 1 12749792224311264085
11578080 2 17201656454525329817
131258 43 17054130885605483847
13224815 77 16009310873218829403
13690498 29 17202474688154450830
13726171 33 18058178232154286537
13761468 95 17702677539918598944
13914758 101 9367082050617101671
14787075 74 18114181968805089499
14790565 3 18338518534787591666
14856354 85 18341051938047822383
15183329 4 16343709820293821742
15484559 13 13172115525281676488
15575132 122 18340483370667392229
15968369 153 18195816399632387776
17349148 13 7925625661130511763
18608769 82 18269837669676019322
21756936 100 18408040723757640818
22907989 373 18127101144901676013
23198884 109 18411985784510949190
2747138 104 18114762502412539395
2838139 119 18410571808626619848
354706 132 18041288682012477516
392239 28 16370731456380415166
4098825 35 18343027666744686086
469060 322 16587740936620020511
5081480 168 16415467273047675192
5265222 85 17488744618183741854
550186 72 18410857655131757293
57527585 21 17700113419480438309
59755656 520 18040996272064796970
633830 44 18262795138897191106
7288768 16 17895199878911598616
7808743 9 18269270166893831353

> <PUBCHEM_SHAPE_MULTIPOLES>
582.82
14.62
3.89
1.67
23.45
4.93
-0.05
7.27
-1.63
-3.82
0.15
-0.29
-0.83
-1.36

> <PUBCHEM_SHAPE_SELFOVERLAP>
1241.339

> <PUBCHEM_SHAPE_VOLUME>
323.4

> <PUBCHEM_COORDINATE_TYPE>
2
5
10

$$$$
