28960141
  -OEChem-12032416383D

 55 57  0     1  0  0  0  0  0999 V2000
    3.8215    3.2566    1.5654 Cl  0  0  0  0  0  0  0  0  0  0  0  0
    3.6042   -2.4893    1.1360 O   0  0  0  0  0  0  0  0  0  0  0  0
   -4.6490   -2.7508    0.5029 O   0  0  0  0  0  0  0  0  0  0  0  0
   -3.1169   -4.0328   -0.5879 O   0  0  0  0  0  0  0  0  0  0  0  0
    1.7762   -1.9696   -0.2285 N   0  0  0  0  0  0  0  0  0  0  0  0
   -1.0940    2.1149   -0.6557 N   0  0  3  0  0  0  0  0  0  0  0  0
    4.9270    1.9998   -0.4140 N   0  0  0  0  0  0  0  0  0  0  0  0
   -0.3461   -0.7308   -0.5991 C   0  0  2  0  0  0  0  0  0  0  0  0
   -1.1166   -2.0485   -0.3291 C   0  0  1  0  0  0  0  0  0  0  0  0
   -0.3131   -2.9986    0.5750 C   0  0  0  0  0  0  0  0  0  0  0  0
    1.0658   -1.0474   -1.1258 C   0  0  0  0  0  0  0  0  0  0  0  0
   -0.2644    0.2028    0.6152 C   0  0  0  0  0  0  0  0  0  0  0  0
    1.0890   -3.2353    0.0205 C   0  0  0  0  0  0  0  0  0  0  0  0
   -2.5170   -1.8198    0.2393 C   0  0  0  0  0  0  0  0  0  0  0  0
   -0.0417    1.6536    0.2174 C   0  0  0  0  0  0  0  0  0  0  0  0
    3.0090   -1.7229    0.3804 C   0  0  0  0  0  0  0  0  0  0  0  0
   -3.4172   -2.9979   -0.0122 C   0  0  0  0  0  0  0  0  0  0  0  0
    3.6690   -0.4414    0.1073 C   0  0  0  0  0  0  0  0  0  0  0  0
   -2.4272    2.1772   -0.2253 C   0  0  0  0  0  0  0  0  0  0  0  0
   -0.7446    2.5305   -2.0153 C   0  0  0  0  0  0  0  0  0  0  0  0
    3.4198    0.6596    0.9191 C   0  0  0  0  0  0  0  0  0  0  0  0
    4.5464   -0.3232   -0.9650 C   0  0  0  0  0  0  0  0  0  0  0  0
   -3.4607    2.2230   -1.1610 C   0  0  0  0  0  0  0  0  0  0  0  0
   -2.7197    2.1933    1.1382 C   0  0  0  0  0  0  0  0  0  0  0  0
    4.0681    1.8469    0.6187 C   0  0  0  0  0  0  0  0  0  0  0  0
    5.1443    0.9079   -1.1810 C   0  0  0  0  0  0  0  0  0  0  0  0
   -4.7868    2.2853   -0.7329 C   0  0  0  0  0  0  0  0  0  0  0  0
   -4.0457    2.2555    1.5665 C   0  0  0  0  0  0  0  0  0  0  0  0
   -5.0794    2.3015    0.6308 C   0  0  0  0  0  0  0  0  0  0  0  0
   -0.8890   -0.2366   -1.4118 H   0  0  0  0  0  0  0  0  0  0  0  0
   -1.2172   -2.5445   -1.3060 H   0  0  0  0  0  0  0  0  0  0  0  0
   -0.8199   -3.9638    0.6810 H   0  0  0  0  0  0  0  0  0  0  0  0
   -0.2324   -2.5701    1.5821 H   0  0  0  0  0  0  0  0  0  0  0  0
    0.9903   -1.5557   -2.0956 H   0  0  0  0  0  0  0  0  0  0  0  0
    1.6321   -0.1325   -1.3061 H   0  0  0  0  0  0  0  0  0  0  0  0
   -1.1676    0.1209    1.2212 H   0  0  0  0  0  0  0  0  0  0  0  0
    0.5392   -0.1103    1.2900 H   0  0  0  0  0  0  0  0  0  0  0  0
    1.6607   -3.8578    0.7162 H   0  0  0  0  0  0  0  0  0  0  0  0
    1.0378   -3.7737   -0.9333 H   0  0  0  0  0  0  0  0  0  0  0  0
   -2.4846   -1.6423    1.3197 H   0  0  0  0  0  0  0  0  0  0  0  0
   -2.9803   -0.9576   -0.2535 H   0  0  0  0  0  0  0  0  0  0  0  0
    0.0419    2.2892    1.1071 H   0  0  0  0  0  0  0  0  0  0  0  0
    0.9324    1.7477   -0.2739 H   0  0  0  0  0  0  0  0  0  0  0  0
   -1.1810    3.5073   -2.2528 H   0  0  0  0  0  0  0  0  0  0  0  0
   -1.0824    1.7923   -2.7502 H   0  0  0  0  0  0  0  0  0  0  0  0
    0.3391    2.6343   -2.1382 H   0  0  0  0  0  0  0  0  0  0  0  0
   -5.2638   -3.5011    0.3564 H   0  0  0  0  0  0  0  0  0  0  0  0
    2.7484    0.5878    1.7685 H   0  0  0  0  0  0  0  0  0  0  0  0
    4.7620   -1.1623   -1.6178 H   0  0  0  0  0  0  0  0  0  0  0  0
   -3.2789    2.2000   -2.2312 H   0  0  0  0  0  0  0  0  0  0  0  0
   -1.9538    2.1883    1.9069 H   0  0  0  0  0  0  0  0  0  0  0  0
    5.8363    1.0525   -2.0041 H   0  0  0  0  0  0  0  0  0  0  0  0
   -5.5922    2.3182   -1.4609 H   0  0  0  0  0  0  0  0  0  0  0  0
   -4.2740    2.2742    2.6282 H   0  0  0  0  0  0  0  0  0  0  0  0
   -6.1118    2.3504    0.9642 H   0  0  0  0  0  0  0  0  0  0  0  0
  1 25  1  0  0  0  0
  2 16  2  0  0  0  0
  3 17  1  0  0  0  0
  3 47  1  0  0  0  0
  4 17  2  0  0  0  0
  5 11  1  0  0  0  0
  5 13  1  0  0  0  0
  5 16  1  0  0  0  0
  6 15  1  0  0  0  0
  6 19  1  0  0  0  0
  6 20  1  0  0  0  0
  7 25  2  0  0  0  0
  7 26  1  0  0  0  0
  8  9  1  0  0  0  0
  8 11  1  0  0  0  0
  8 12  1  0  0  0  0
  8 30  1  0  0  0  0
  9 10  1  0  0  0  0
  9 14  1  0  0  0  0
  9 31  1  0  0  0  0
 10 13  1  0  0  0  0
 10 32  1  0  0  0  0
 10 33  1  0  0  0  0
 11 34  1  0  0  0  0
 11 35  1  0  0  0  0
 12 15  1  0  0  0  0
 12 36  1  0  0  0  0
 12 37  1  0  0  0  0
 13 38  1  0  0  0  0
 13 39  1  0  0  0  0
 14 17  1  0  0  0  0
 14 40  1  0  0  0  0
 14 41  1  0  0  0  0
 15 42  1  0  0  0  0
 15 43  1  0  0  0  0
 16 18  1  0  0  0  0
 18 21  2  0  0  0  0
 18 22  1  0  0  0  0
 19 23  2  0  0  0  0
 19 24  1  0  0  0  0
 20 44  1  0  0  0  0
 20 45  1  0  0  0  0
 20 46  1  0  0  0  0
 21 25  1  0  0  0  0
 21 48  1  0  0  0  0
 22 26  2  0  0  0  0
 22 49  1  0  0  0  0
 23 27  1  0  0  0  0
 23 50  1  0  0  0  0
 24 28  2  0  0  0  0
 24 51  1  0  0  0  0
 26 52  1  0  0  0  0
 27 29  2  0  0  0  0
 27 53  1  0  0  0  0
 28 29  1  0  0  0  0
 28 54  1  0  0  0  0
 29 55  1  0  0  0  0
M  END
> <PUBCHEM_COMPOUND_CID>
28960141

> <PUBCHEM_CONFORMER_RMSD>
1

> <PUBCHEM_CONFORMER_DIVERSEORDER>
1
19
128
21
116
130
85
33
50
137
187
119
151
175
136
126
205
84
91
42
179
107
194
74
65
213
164
38
10
147
197
159
144
101
215
123
134
189
13
206
148
27
121
100
106
211
60
156
160
94
96
82
95
169
133
54
140
120
56
20
28
146
9
180
44
61
125
172
190
49
185
18
102
31
112
104
170
87
62
25
76
131
26
153
173
97
89
77
68
34
70
24
168
157
109
55
14
17
198
208
64
200
63
72
93
132
149
182
114
155
209
171
202
15
158
115
191
212
139
57
117
166
22
174
110
66
86
51
199
35
207
192
37
214
4
127
113
30
188
29
165
154
204
163
201
53
186
142
23
122
210
46
150
193
88
40
81
41
143
111
48
2
108
58
32
178
99
92
152
217
135
103
196
11
36
184
16
195
6
78
59
138
12
167
183
203
181
80
98
79
39
129
69
177
47
90
162
71
216
176
141
73
118
75
105
7
161
43
67
83
8
124
145
52
45
3
5

> <PUBCHEM_MMFF94_PARTIAL_CHARGES>
34
1 -0.18
11 0.3
13 0.3
14 0.06
15 0.37
16 0.54
17 0.66
18 0.09
19 0.1
2 -0.57
20 0.37
21 -0.15
22 -0.15
23 -0.15
24 -0.15
25 0.49
26 0.16
27 -0.15
28 -0.15
29 -0.15
3 -0.65
4 -0.57
47 0.5
48 0.15
49 0.15
5 -0.66
50 0.15
51 0.15
52 0.15
53 0.15
54 0.15
55 0.15
6 -0.84
7 -0.62

> <PUBCHEM_EFFECTIVE_ROTOR_COUNT>
9.2

> <PUBCHEM_PHARMACOPHORE_FEATURES>
9
1 2 acceptor
1 3 acceptor
1 4 acceptor
1 6 cation
1 7 acceptor
3 3 4 17 anion
6 19 23 24 27 28 29 rings
6 5 8 9 10 11 13 rings
6 7 18 21 22 25 26 rings

> <PUBCHEM_HEAVY_ATOM_COUNT>
29

> <PUBCHEM_ATOM_DEF_STEREO_COUNT>
2

> <PUBCHEM_ATOM_UDEF_STEREO_COUNT>
0

> <PUBCHEM_BOND_DEF_STEREO_COUNT>
0

> <PUBCHEM_BOND_UDEF_STEREO_COUNT>
0

> <PUBCHEM_ISOTOPIC_ATOM_COUNT>
0

> <PUBCHEM_COMPONENT_COUNT>
1

> <PUBCHEM_CACTVS_TAUTO_COUNT>
1

> <PUBCHEM_CONFORMER_ID>
01B9E58D00000001

> <PUBCHEM_MMFF94_ENERGY>
88.3878

> <PUBCHEM_FEATURE_SELFOVERLAP>
45.729

> <PUBCHEM_SHAPE_FINGERPRINT>
10165383 225 18335713698216967940
10670039 82 18262810687095131908
10871710 139 18263936586284763782
1100329 8 18194679272580598890
12422481 6 18194427665112056521
12633257 1 18265889168912259122
12788726 201 18120649395068214586
13140716 1 18339914936040175410
13583140 156 16735230388289605923
140371 6 18044665436143848119
14787075 74 18130219346919436109
14790565 3 18337962297398490567
20465049 17 18266756684003455230
21033648 144 18338504271233357236
21623110 236 18339642227303088929
21796203 349 17258247080587518371
23227448 37 18410012104702948132
23559900 14 18199752436495604510
283562 15 18266174109791038083
3052486 1 18334584571929271191
392239 28 18196657298441284193
46194498 28 17558571324994249532
469060 322 17313380166810580095
5252454 2 18335986394085255596
653340 110 18339639065600354817

> <PUBCHEM_SHAPE_MULTIPOLES>
566.13
10.78
5.21
1.36
1.88
2.94
0.13
-5.89
-0.65
-3.5
-0.57
0.09
-1
0.34

> <PUBCHEM_SHAPE_SELFOVERLAP>
1185.614

> <PUBCHEM_SHAPE_VOLUME>
318.9

> <PUBCHEM_COORDINATE_TYPE>
2
5
10

$$$$
