75536830
  -OEChem-12032416403D

 52 54  0     1  0  0  0  0  0999 V2000
    4.2127    1.6262   -0.1476 S   0  0  0  0  0  0  0  0  0  0  0  0
   -0.0913    0.6730   -1.3454 O   0  0  0  0  0  0  0  0  0  0  0  0
   -0.7853    0.5574    2.1774 O   0  0  0  0  0  0  0  0  0  0  0  0
    4.1865    2.1979    1.1852 O   0  0  0  0  0  0  0  0  0  0  0  0
    4.9023    2.3136   -1.2226 O   0  0  0  0  0  0  0  0  0  0  0  0
   -2.9512   -0.8019    0.3507 N   0  0  0  0  0  0  0  0  0  0  0  0
   -7.1632   -0.2774    0.1322 N   0  0  0  0  0  0  0  0  0  0  0  0
    2.6228    1.2787   -0.6431 N   0  0  0  0  0  0  0  0  0  0  0  0
   -1.9497    0.2110    0.0598 C   0  0  1  0  0  0  0  0  0  0  0  0
   -4.2560   -0.4081   -0.1759 C   0  0  0  0  0  0  0  0  0  0  0  0
   -0.6713    0.0513    0.8616 C   0  0  1  0  0  0  0  0  0  0  0  0
    0.3046    0.8655    0.0228 C   0  0  1  0  0  0  0  0  0  0  0  0
   -4.9330    0.5839    0.7734 C   0  0  0  0  0  0  0  0  0  0  0  0
   -5.1554   -1.6304   -0.3822 C   0  0  0  0  0  0  0  0  0  0  0  0
   -1.4237    0.1313   -1.3640 C   0  0  0  0  0  0  0  0  0  0  0  0
   -6.3429    0.9319    0.2889 C   0  0  0  0  0  0  0  0  0  0  0  0
   -6.5582   -1.2102   -0.8287 C   0  0  0  0  0  0  0  0  0  0  0  0
    1.7510    0.4406    0.2033 C   0  0  0  0  0  0  0  0  0  0  0  0
   -8.5208    0.0752   -0.2824 C   0  0  0  0  0  0  0  0  0  0  0  0
    4.9176    0.0092   -0.0330 C   0  0  0  0  0  0  0  0  0  0  0  0
    5.5407   -0.5600   -1.1435 C   0  0  0  0  0  0  0  0  0  0  0  0
    4.8472   -0.6990    1.1665 C   0  0  0  0  0  0  0  0  0  0  0  0
    6.0935   -1.8377   -1.0545 C   0  0  0  0  0  0  0  0  0  0  0  0
    5.4000   -1.9764    1.2557 C   0  0  0  0  0  0  0  0  0  0  0  0
    6.0232   -2.5459    0.1452 C   0  0  0  0  0  0  0  0  0  0  0  0
   -2.3329    1.2202    0.2557 H   0  0  0  0  0  0  0  0  0  0  0  0
   -4.1431    0.0655   -1.1603 H   0  0  0  0  0  0  0  0  0  0  0  0
   -0.3662   -1.0013    0.9128 H   0  0  0  0  0  0  0  0  0  0  0  0
    0.2101    1.9370    0.2434 H   0  0  0  0  0  0  0  0  0  0  0  0
   -3.0144   -0.9561    1.3564 H   0  0  0  0  0  0  0  0  0  0  0  0
   -1.3467   -0.9017   -1.7223 H   0  0  0  0  0  0  0  0  0  0  0  0
   -2.0323    0.6981   -2.0748 H   0  0  0  0  0  0  0  0  0  0  0  0
   -4.3619    1.5146    0.8593 H   0  0  0  0  0  0  0  0  0  0  0  0
   -4.9986    0.1596    1.7848 H   0  0  0  0  0  0  0  0  0  0  0  0
   -5.2302   -2.2078    0.5494 H   0  0  0  0  0  0  0  0  0  0  0  0
   -4.7182   -2.2977   -1.1351 H   0  0  0  0  0  0  0  0  0  0  0  0
   -6.2812    1.4886   -0.6556 H   0  0  0  0  0  0  0  0  0  0  0  0
   -6.8032    1.5975    1.0294 H   0  0  0  0  0  0  0  0  0  0  0  0
   -6.5076   -0.7626   -1.8302 H   0  0  0  0  0  0  0  0  0  0  0  0
   -7.1753   -2.1136   -0.9071 H   0  0  0  0  0  0  0  0  0  0  0  0
    1.8829   -0.6006   -0.1116 H   0  0  0  0  0  0  0  0  0  0  0  0
    2.0311    0.5348    1.2568 H   0  0  0  0  0  0  0  0  0  0  0  0
   -1.0580    1.4890    2.1244 H   0  0  0  0  0  0  0  0  0  0  0  0
   -9.1474   -0.8210   -0.3507 H   0  0  0  0  0  0  0  0  0  0  0  0
   -8.5387    0.5836   -1.2532 H   0  0  0  0  0  0  0  0  0  0  0  0
   -8.9916    0.7305    0.4589 H   0  0  0  0  0  0  0  0  0  0  0  0
    2.4168    1.2620   -1.6498 H   0  0  0  0  0  0  0  0  0  0  0  0
    5.5999   -0.0300   -2.0898 H   0  0  0  0  0  0  0  0  0  0  0  0
    4.3642   -0.2764    2.0429 H   0  0  0  0  0  0  0  0  0  0  0  0
    6.5770   -2.2819   -1.9196 H   0  0  0  0  0  0  0  0  0  0  0  0
    5.3444   -2.5284    2.1895 H   0  0  0  0  0  0  0  0  0  0  0  0
    6.4529   -3.5409    0.2144 H   0  0  0  0  0  0  0  0  0  0  0  0
  1  4  2  0  0  0  0
  1  5  2  0  0  0  0
  1  8  1  0  0  0  0
  1 20  1  0  0  0  0
  2 12  1  0  0  0  0
  2 15  1  0  0  0  0
  3 11  1  0  0  0  0
  3 43  1  0  0  0  0
  6  9  1  0  0  0  0
  6 10  1  0  0  0  0
  6 30  1  0  0  0  0
  7 16  1  0  0  0  0
  7 17  1  0  0  0  0
  7 19  1  0  0  0  0
  8 18  1  0  0  0  0
  8 47  1  0  0  0  0
  9 11  1  0  0  0  0
  9 15  1  0  0  0  0
  9 26  1  0  0  0  0
 10 13  1  0  0  0  0
 10 14  1  0  0  0  0
 10 27  1  0  0  0  0
 11 12  1  0  0  0  0
 11 28  1  0  0  0  0
 12 18  1  0  0  0  0
 12 29  1  0  0  0  0
 13 16  1  0  0  0  0
 13 33  1  0  0  0  0
 13 34  1  0  0  0  0
 14 17  1  0  0  0  0
 14 35  1  0  0  0  0
 14 36  1  0  0  0  0
 15 31  1  0  0  0  0
 15 32  1  0  0  0  0
 16 37  1  0  0  0  0
 16 38  1  0  0  0  0
 17 39  1  0  0  0  0
 17 40  1  0  0  0  0
 18 41  1  0  0  0  0
 18 42  1  0  0  0  0
 19 44  1  0  0  0  0
 19 45  1  0  0  0  0
 19 46  1  0  0  0  0
 20 21  2  0  0  0  0
 20 22  1  0  0  0  0
 21 23  1  0  0  0  0
 21 48  1  0  0  0  0
 22 24  2  0  0  0  0
 22 49  1  0  0  0  0
 23 25  2  0  0  0  0
 23 50  1  0  0  0  0
 24 25  1  0  0  0  0
 24 51  1  0  0  0  0
 25 52  1  0  0  0  0
M  END
> <PUBCHEM_COMPOUND_CID>
75536830

> <PUBCHEM_CONFORMER_RMSD>
1

> <PUBCHEM_CONFORMER_DIVERSEORDER>
1
17
132
91
105
107
40
11
101
9
122
140
118
69
65
66
130
26
93
124
139
128
73
6
84
82
8
138
98
41
50
86
49
96
76
136
80
131
75
129
32
63
58
108
100
35
125
127
19
134
28
87
53
62
99
43
106
33
54
60
16
141
117
5
10
77
51
126
23
137
61
27
94
20
88
97
115
25
135
142
57
67
133
29
109
104
34
56
95
21
79
121
22
45
46
71
38
116
119
24
78
4
112
13
81
68
52
114
72
55
113
110
92
59
90
47
3
70
42
12
89
64
83
120
39
102
111
74
103
123
7
36
31
18
14
2
15
44
85
37
48
30

> <PUBCHEM_MMFF94_PARTIAL_CHARGES>
31
1 1.45
10 0.27
11 0.28
12 0.28
15 0.28
16 0.27
17 0.27
18 0.36
19 0.27
2 -0.56
20 -0.01
21 -0.15
22 -0.15
23 -0.15
24 -0.15
25 -0.15
3 -0.68
30 0.36
4 -0.65
43 0.4
47 0.42
48 0.15
49 0.15
5 -0.65
50 0.15
51 0.15
52 0.15
6 -0.9
7 -0.81
8 -0.91
9 0.27

> <PUBCHEM_EFFECTIVE_ROTOR_COUNT>
8.2

> <PUBCHEM_PHARMACOPHORE_FEATURES>
12
1 2 acceptor
1 3 acceptor
1 3 donor
1 4 acceptor
1 5 acceptor
1 6 cation
1 6 donor
1 7 cation
1 8 donor
5 2 9 11 12 15 rings
6 20 21 22 23 24 25 rings
6 7 10 13 14 16 17 rings

> <PUBCHEM_HEAVY_ATOM_COUNT>
25

> <PUBCHEM_ATOM_DEF_STEREO_COUNT>
3

> <PUBCHEM_ATOM_UDEF_STEREO_COUNT>
0

> <PUBCHEM_BOND_DEF_STEREO_COUNT>
0

> <PUBCHEM_BOND_UDEF_STEREO_COUNT>
0

> <PUBCHEM_ISOTOPIC_ATOM_COUNT>
0

> <PUBCHEM_COMPONENT_COUNT>
1

> <PUBCHEM_CACTVS_TAUTO_COUNT>
1

> <PUBCHEM_CONFORMER_ID>
048099BE00000001

> <PUBCHEM_MMFF94_ENERGY>
32.0698

> <PUBCHEM_FEATURE_SELFOVERLAP>
60.915

> <PUBCHEM_SHAPE_FINGERPRINT>
10 15 15554439712956782586
10299344 5 18408887321609233247
11719270 70 17489591147284203087
12166972 35 18410295813089844769
12236239 1 18335419097703636025
125118 31 10231767686252456163
12516196 113 11024108750628935459
12616971 3 17774993600972196396
13533116 47 18412262848508657344
13782708 43 18341327868580066415
13914758 101 18412265000435095633
14251752 14 18272369759429630489
14347332 77 18187921721091649020
14347424 109 18273491282559278216
15119646 104 18342178843045369311
15183329 4 18335423456631289347
15188451 53 17846498089512265146
15475509 8 17313386703814348413
20281389 69 18342175579424222705
20567600 234 12463565192662315434
20645477 70 18333169471401826596
21150785 3 13334741223660583447
21344244 78 17703781502092089768
21521721 280 9799691515332039773
21641784 216 14707198886138053606
21792934 111 15267069099358634163
221357 26 17821447933339635252
2215653 11 17603589621042920002
23081809 10 18343587369264792997
23522609 53 18118433715745853372
23536379 177 18411701002261662633
23559900 14 16878237441070895012
23569943 247 17823974541914079547
29717793 49 18409450293221802092
3004659 81 18342178869178773502
3014965 18 18407758127356713302
328311 84 17967820448883702531
3472631 163 11891348543059026698
34797466 226 8358263661043629473
394071 54 16951132901524434404
397830 11 13254501128523806015
4072396 5 16917350333387317356
4073 2 18116717511417417082
4340502 62 13398629442146422780
439807 62 17313383384295414218
465052 167 18342741802269064542
5085150 59 17131829893971305391
5372103 7 14997437070583108334
59682541 52 17894348856774673034
59755656 215 17095238090620518827
6081469 158 18341887494967486981
6438161 24 18260542299970439514
6441014 3 16549208306997307110
960060 61 17675933088679115070
9965369 4 18342177752645428273

> <PUBCHEM_SHAPE_MULTIPOLES>
479.92
22.78
2.04
1.32
23.99
0.16
0.18
7.83
-1.76
-4.1
-0.06
-1.06
-0.07
-1

> <PUBCHEM_SHAPE_SELFOVERLAP>
978.98

> <PUBCHEM_SHAPE_VOLUME>
279.1

> <PUBCHEM_COORDINATE_TYPE>
2
5
10

$$$$
