51136653
  -OEChem-12032416143D

 60 63  0     1  0  0  0  0  0999 V2000
    1.0407    3.3627    1.9237 O   0  0  0  0  0  0  0  0  0  0  0  0
    6.6181   -2.5256    0.2487 O   0  0  0  0  0  0  0  0  0  0  0  0
    6.7364   -0.3039   -0.2314 O   0  0  0  0  0  0  0  0  0  0  0  0
   -4.6047   -2.2585    1.9456 O   0  0  0  0  0  0  0  0  0  0  0  0
    1.9879    2.0558    0.2300 N   0  0  0  0  0  0  0  0  0  0  0  0
    0.5006   -1.7054   -1.8807 N   0  0  0  0  0  0  0  0  0  0  0  0
   -5.4121    1.7800   -1.4932 N   0  0  0  0  0  0  0  0  0  0  0  0
    2.4592   -0.1779   -0.7521 C   0  0  2  0  0  0  0  0  0  0  0  0
    3.9184   -0.0496   -0.2450 C   0  0  1  0  0  0  0  0  0  0  0  0
    4.0112    0.8698    0.9847 C   0  0  0  0  0  0  0  0  0  0  0  0
    1.8557    1.2215   -0.9727 C   0  0  0  0  0  0  0  0  0  0  0  0
    3.3568    2.2219    0.7146 C   0  0  0  0  0  0  0  0  0  0  0  0
    1.5528   -1.0104    0.1633 C   0  0  0  0  0  0  0  0  0  0  0  0
    4.5760   -1.3994    0.0407 C   0  0  0  0  0  0  0  0  0  0  0  0
    0.3555   -1.5044   -0.6125 C   0  0  0  0  0  0  0  0  0  0  0  0
    0.9353    2.6685    0.9139 C   0  0  0  0  0  0  0  0  0  0  0  0
   -0.9228   -1.7270    0.1102 C   0  0  0  0  0  0  0  0  0  0  0  0
    6.0762   -1.3066   -0.0047 C   0  0  0  0  0  0  0  0  0  0  0  0
   -2.0837   -1.8027   -0.6699 C   0  0  0  0  0  0  0  0  0  0  0  0
   -1.9646   -1.6424   -2.1563 C   0  0  0  0  0  0  0  0  0  0  0  0
   -0.6449   -2.2428   -2.6228 C   0  0  0  0  0  0  0  0  0  0  0  0
   -0.4252    2.4792    0.3983 C   0  0  0  0  0  0  0  0  0  0  0  0
   -0.9943   -1.8437    1.4996 C   0  0  0  0  0  0  0  0  0  0  0  0
   -3.3236   -1.9707   -0.0472 C   0  0  0  0  0  0  0  0  0  0  0  0
   -2.2353   -2.0269    2.1112 C   0  0  0  0  0  0  0  0  0  0  0  0
   -3.3969   -2.0874    1.3409 C   0  0  0  0  0  0  0  0  0  0  0  0
   -0.7470    2.8995   -0.8923 C   0  0  0  0  0  0  0  0  0  0  0  0
   -1.3965    1.8775    1.1985 C   0  0  0  0  0  0  0  0  0  0  0  0
   -2.0400    2.7179   -1.3827 C   0  0  0  0  0  0  0  0  0  0  0  0
   -2.6895    1.6960    0.7079 C   0  0  0  0  0  0  0  0  0  0  0  0
   -3.0113    2.1160   -0.5826 C   0  0  0  0  0  0  0  0  0  0  0  0
   -5.7521   -2.3117    1.0994 C   0  0  0  0  0  0  0  0  0  0  0  0
   -4.3362    1.9307   -1.0852 C   0  0  0  0  0  0  0  0  0  0  0  0
    2.5442   -0.6527   -1.7376 H   0  0  0  0  0  0  0  0  0  0  0  0
    4.4772    0.4424   -1.0551 H   0  0  0  0  0  0  0  0  0  0  0  0
    3.5134    0.3951    1.8399 H   0  0  0  0  0  0  0  0  0  0  0  0
    5.0542    1.0330    1.2763 H   0  0  0  0  0  0  0  0  0  0  0  0
    0.8272    1.1082   -1.3077 H   0  0  0  0  0  0  0  0  0  0  0  0
    2.3961    1.7388   -1.7753 H   0  0  0  0  0  0  0  0  0  0  0  0
    3.9128    2.7694   -0.0556 H   0  0  0  0  0  0  0  0  0  0  0  0
    3.3759    2.8296    1.6249 H   0  0  0  0  0  0  0  0  0  0  0  0
    2.0641   -1.9086    0.5240 H   0  0  0  0  0  0  0  0  0  0  0  0
    1.2491   -0.4274    1.0368 H   0  0  0  0  0  0  0  0  0  0  0  0
    4.2783   -2.1254   -0.7253 H   0  0  0  0  0  0  0  0  0  0  0  0
    4.2849   -1.7801    1.0259 H   0  0  0  0  0  0  0  0  0  0  0  0
   -2.7923   -2.1417   -2.6723 H   0  0  0  0  0  0  0  0  0  0  0  0
   -2.0066   -0.5743   -2.4005 H   0  0  0  0  0  0  0  0  0  0  0  0
   -0.6536   -3.3354   -2.5222 H   0  0  0  0  0  0  0  0  0  0  0  0
   -0.5065   -2.0213   -3.6867 H   0  0  0  0  0  0  0  0  0  0  0  0
   -0.1087   -1.8103    2.1259 H   0  0  0  0  0  0  0  0  0  0  0  0
   -4.1937   -2.0016   -0.6944 H   0  0  0  0  0  0  0  0  0  0  0  0
    7.5986   -2.5014    0.2272 H   0  0  0  0  0  0  0  0  0  0  0  0
   -2.2910   -2.1201    3.1926 H   0  0  0  0  0  0  0  0  0  0  0  0
   -0.0090    3.3894   -1.5226 H   0  0  0  0  0  0  0  0  0  0  0  0
   -1.1574    1.5437    2.2049 H   0  0  0  0  0  0  0  0  0  0  0  0
   -2.2767    3.0541   -2.3893 H   0  0  0  0  0  0  0  0  0  0  0  0
   -3.4365    1.2278    1.3443 H   0  0  0  0  0  0  0  0  0  0  0  0
   -5.9021   -1.3672    0.5652 H   0  0  0  0  0  0  0  0  0  0  0  0
   -5.7137   -3.1714    0.4218 H   0  0  0  0  0  0  0  0  0  0  0  0
   -6.6240   -2.4540    1.7462 H   0  0  0  0  0  0  0  0  0  0  0  0
  1 16  2  0  0  0  0
  2 18  1  0  0  0  0
  2 52  1  0  0  0  0
  3 18  2  0  0  0  0
  4 26  1  0  0  0  0
  4 32  1  0  0  0  0
  5 11  1  0  0  0  0
  5 12  1  0  0  0  0
  5 16  1  0  0  0  0
  6 15  2  0  0  0  0
  6 21  1  0  0  0  0
  7 33  3  0  0  0  0
  8  9  1  0  0  0  0
  8 11  1  0  0  0  0
  8 13  1  0  0  0  0
  8 34  1  0  0  0  0
  9 10  1  0  0  0  0
  9 14  1  0  0  0  0
  9 35  1  0  0  0  0
 10 12  1  0  0  0  0
 10 36  1  0  0  0  0
 10 37  1  0  0  0  0
 11 38  1  0  0  0  0
 11 39  1  0  0  0  0
 12 40  1  0  0  0  0
 12 41  1  0  0  0  0
 13 15  1  0  0  0  0
 13 42  1  0  0  0  0
 13 43  1  0  0  0  0
 14 18  1  0  0  0  0
 14 44  1  0  0  0  0
 14 45  1  0  0  0  0
 15 17  1  0  0  0  0
 16 22  1  0  0  0  0
 17 19  2  0  0  0  0
 17 23  1  0  0  0  0
 19 20  1  0  0  0  0
 19 24  1  0  0  0  0
 20 21  1  0  0  0  0
 20 46  1  0  0  0  0
 20 47  1  0  0  0  0
 21 48  1  0  0  0  0
 21 49  1  0  0  0  0
 22 27  2  0  0  0  0
 22 28  1  0  0  0  0
 23 25  2  0  0  0  0
 23 50  1  0  0  0  0
 24 26  2  0  0  0  0
 24 51  1  0  0  0  0
 25 26  1  0  0  0  0
 25 53  1  0  0  0  0
 27 29  1  0  0  0  0
 27 54  1  0  0  0  0
 28 30  2  0  0  0  0
 28 55  1  0  0  0  0
 29 31  2  0  0  0  0
 29 56  1  0  0  0  0
 30 31  1  0  0  0  0
 30 57  1  0  0  0  0
 31 33  1  0  0  0  0
 32 58  1  0  0  0  0
 32 59  1  0  0  0  0
 32 60  1  0  0  0  0
M  END
> <PUBCHEM_COMPOUND_CID>
51136653

> <PUBCHEM_CONFORMER_RMSD>
1

> <PUBCHEM_CONFORMER_DIVERSEORDER>
1
72
101
113
77
71
66
100
22
29
3
59
85
60
82
70
118
55
107
97
104
44
30
42
110
17
119
25
108
87
80
67
88
50
73
86
103
28
111
27
117
6
99
43
76
45
53
41
48
56
35
20
15
16
120
12
11
54
65
40
51
74
21
68
5
92
78
62
47
52
24
23
96
13
64
98
57
7
114
2
83
49
116
102
75
46
106
36
63
26
38
84
109
14
105
91
32
61
9
10
112
81
90
95
37
31
89
79
58
34
8
19
115
93
94
18
33
69
39
4

> <PUBCHEM_MMFF94_PARTIAL_CHARGES>
38
1 -0.57
11 0.3
12 0.3
13 0.06
14 0.06
15 0.3
16 0.54
17 0.09
18 0.66
19 -0.14
2 -0.65
20 0.14
21 0.25
22 0.09
23 -0.15
24 -0.15
25 -0.15
26 0.08
27 -0.15
28 -0.15
29 -0.15
3 -0.57
30 -0.15
31 0.07
32 0.28
33 0.48
4 -0.36
5 -0.66
50 0.15
51 0.15
52 0.5
53 0.15
54 0.15
55 0.15
56 0.15
57 0.15
6 -0.7
7 -0.56

> <PUBCHEM_EFFECTIVE_ROTOR_COUNT>
8.6

> <PUBCHEM_PHARMACOPHORE_FEATURES>
11
1 1 acceptor
1 2 acceptor
1 3 acceptor
1 4 acceptor
1 6 acceptor
1 7 acceptor
3 2 3 18 anion
6 17 19 23 24 25 26 rings
6 22 27 28 29 30 31 rings
6 5 8 9 10 11 12 rings
6 6 15 17 19 20 21 rings

> <PUBCHEM_HEAVY_ATOM_COUNT>
33

> <PUBCHEM_ATOM_DEF_STEREO_COUNT>
2

> <PUBCHEM_ATOM_UDEF_STEREO_COUNT>
0

> <PUBCHEM_BOND_DEF_STEREO_COUNT>
0

> <PUBCHEM_BOND_UDEF_STEREO_COUNT>
0

> <PUBCHEM_ISOTOPIC_ATOM_COUNT>
0

> <PUBCHEM_COMPONENT_COUNT>
1

> <PUBCHEM_CACTVS_TAUTO_COUNT>
1

> <PUBCHEM_CONFORMER_ID>
030C488D00000001

> <PUBCHEM_MMFF94_ENERGY>
95.3246

> <PUBCHEM_FEATURE_SELFOVERLAP>
55.908

> <PUBCHEM_SHAPE_FINGERPRINT>
10119406 146 17765440847152502094
11135609 12 18334856168988129400
11578080 2 17129269182491316232
12107698 1 18410578417584522787
12156800 1 17977145385297402205
12422481 6 18341908419477928011
13140716 1 18342184349478253544
13402501 40 18411695470349248685
13965767 371 17700433638517426915
14004853 49 17403175297198481553
14674994 50 16414329295739931436
16067689 68 13541903431408614236
16728300 4 18335135337362212954
17492 54 18195787601892148565
20764821 26 18131630110458132036
21133410 90 17632293506284940257
22182313 1 17916042169714552374
23559900 14 18410846664610847840
24893992 56 17822573932848936443
3052486 1 17967808384051782881
3380486 145 18058722636749763112
3383291 50 18200861890429182911
59755656 520 17749667368291194166
6009941 240 18113897118369400790
70251023 43 18125702711718299390

> <PUBCHEM_SHAPE_MULTIPOLES>
640.7
11.25
4.36
1.95
11.96
1.86
-0.34
-5.93
1.38
-2.45
0.44
-1.85
-0.71
2.46

> <PUBCHEM_SHAPE_SELFOVERLAP>
1380.661

> <PUBCHEM_SHAPE_VOLUME>
347.8

> <PUBCHEM_COORDINATE_TYPE>
2
5
10

$$$$
