7134372
  -OEChem-12032416133D

 65 67  0     1  0  0  0  0  0999 V2000
    3.1507    1.8045   -1.6420 S   0  0  0  0  0  0  0  0  0  0  0  0
   -4.7211    2.2608   -0.8666 S   0  0  0  0  0  0  0  0  0  0  0  0
    4.9124    3.0151    0.3952 S   0  0  0  0  0  0  0  0  0  0  0  0
   -0.4257    0.1322    2.1168 O   0  0  0  0  0  0  0  0  0  0  0  0
   -3.5260    3.1509    2.1131 O   0  0  0  0  0  0  0  0  0  0  0  0
    4.0090    2.5302   -2.5582 O   0  0  0  0  0  0  0  0  0  0  0  0
    2.6940    0.4613   -1.9406 O   0  0  0  0  0  0  0  0  0  0  0  0
   -3.0912   -2.7921    1.6674 O   0  0  0  0  0  0  0  0  0  0  0  0
   -5.7955   -1.2796   -2.0345 O   0  0  0  0  0  0  0  0  0  0  0  0
   -4.1105    0.0686   -2.7478 O   0  0  0  0  0  0  0  0  0  0  0  0
   -1.8109    2.1076    0.9338 N   0  0  0  0  0  0  0  0  0  0  0  0
    1.7974    2.7713   -1.2435 N   0  0  0  0  0  0  0  0  0  0  0  0
   -1.0884   -1.3538    0.4519 N   0  0  0  0  0  0  0  0  0  0  0  0
   -1.5462   -3.6214    3.1512 N   0  0  0  0  0  0  0  0  0  0  0  0
    0.8655    2.2628   -0.2073 C   0  0  2  0  0  0  0  0  0  0  0  0
   -0.2195    1.4177   -0.8758 C   0  0  0  0  0  0  0  0  0  0  0  0
   -1.3350    1.0016    0.0861 C   0  0  1  0  0  0  0  0  0  0  0  0
    0.2444    3.4394    0.5388 C   0  0  0  0  0  0  0  0  0  0  0  0
   -0.7814    2.9514    1.5536 C   0  0  0  0  0  0  0  0  0  0  0  0
   -0.9030   -0.1002    1.0092 C   0  0  0  0  0  0  0  0  0  0  0  0
   -3.1481    2.3055    1.2975 C   0  0  0  0  0  0  0  0  0  0  0  0
   -0.7313   -2.5801    1.1279 C   0  0  2  0  0  0  0  0  0  0  0  0
   -4.1726    1.4235    0.6275 C   0  0  0  0  0  0  0  0  0  0  0  0
    4.1149    1.5992   -0.1447 C   0  0  0  0  0  0  0  0  0  0  0  0
   -0.3831   -3.7036    0.1450 C   0  0  0  0  0  0  0  0  0  0  0  0
   -1.9203   -2.9792    1.9895 C   0  0  0  0  0  0  0  0  0  0  0  0
    1.0157   -3.5824   -0.4087 C   0  0  0  0  0  0  0  0  0  0  0  0
    4.3563    0.5232    0.6808 C   0  0  0  0  0  0  0  0  0  0  0  0
    5.2071    0.8656    1.7711 C   0  0  0  0  0  0  0  0  0  0  0  0
   -5.9069    1.0284   -1.4588 C   0  0  0  0  0  0  0  0  0  0  0  0
    5.5836    2.1903    1.7374 C   0  0  0  0  0  0  0  0  0  0  0  0
    1.2424   -2.8566   -1.5782 C   0  0  0  0  0  0  0  0  0  0  0  0
    2.0819   -4.1958    0.2491 C   0  0  0  0  0  0  0  0  0  0  0  0
    2.5351   -2.7443   -2.0899 C   0  0  0  0  0  0  0  0  0  0  0  0
    3.3747   -4.0834   -0.2626 C   0  0  0  0  0  0  0  0  0  0  0  0
    3.6012   -3.3576   -1.4321 C   0  0  0  0  0  0  0  0  0  0  0  0
   -5.1696   -0.0811   -2.1516 C   0  0  0  0  0  0  0  0  0  0  0  0
    1.4147    1.6516    0.5171 H   0  0  0  0  0  0  0  0  0  0  0  0
   -0.6687    2.0045   -1.6895 H   0  0  0  0  0  0  0  0  0  0  0  0
    0.2167    0.5304   -1.3471 H   0  0  0  0  0  0  0  0  0  0  0  0
   -2.1459    0.6331   -0.5437 H   0  0  0  0  0  0  0  0  0  0  0  0
   -0.2420    4.1193   -0.1733 H   0  0  0  0  0  0  0  0  0  0  0  0
    1.0220    4.0210    1.0484 H   0  0  0  0  0  0  0  0  0  0  0  0
   -1.2503    3.8257    2.0188 H   0  0  0  0  0  0  0  0  0  0  0  0
   -0.2960    2.4061    2.3669 H   0  0  0  0  0  0  0  0  0  0  0  0
    1.9683    3.7845   -1.1981 H   0  0  0  0  0  0  0  0  0  0  0  0
   -1.5428   -1.4295   -0.4537 H   0  0  0  0  0  0  0  0  0  0  0  0
    0.1197   -2.3678    1.7881 H   0  0  0  0  0  0  0  0  0  0  0  0
   -5.0245    1.3407    1.3128 H   0  0  0  0  0  0  0  0  0  0  0  0
   -3.8270    0.4039    0.4559 H   0  0  0  0  0  0  0  0  0  0  0  0
   -1.1055   -3.7363   -0.6819 H   0  0  0  0  0  0  0  0  0  0  0  0
   -0.4733   -4.6805    0.6393 H   0  0  0  0  0  0  0  0  0  0  0  0
    3.9427   -0.4631    0.5149 H   0  0  0  0  0  0  0  0  0  0  0  0
    5.5262    0.1756    2.5413 H   0  0  0  0  0  0  0  0  0  0  0  0
   -6.4918    0.6418   -0.6194 H   0  0  0  0  0  0  0  0  0  0  0  0
   -6.5867    1.4913   -2.1797 H   0  0  0  0  0  0  0  0  0  0  0  0
    6.2205    2.7132    2.4368 H   0  0  0  0  0  0  0  0  0  0  0  0
    0.4206   -2.3744   -2.1006 H   0  0  0  0  0  0  0  0  0  0  0  0
    1.9185   -4.7615    1.1625 H   0  0  0  0  0  0  0  0  0  0  0  0
   -2.2429   -3.9528    3.8102 H   0  0  0  0  0  0  0  0  0  0  0  0
   -0.5750   -3.7902    3.3931 H   0  0  0  0  0  0  0  0  0  0  0  0
    2.7112   -2.1856   -3.0042 H   0  0  0  0  0  0  0  0  0  0  0  0
    4.2051   -4.5599    0.2500 H   0  0  0  0  0  0  0  0  0  0  0  0
    4.6076   -3.2703   -1.8308 H   0  0  0  0  0  0  0  0  0  0  0  0
   -5.2997   -1.9967   -2.4843 H   0  0  0  0  0  0  0  0  0  0  0  0
  1  6  2  0  0  0  0
  1  7  2  0  0  0  0
  1 12  1  0  0  0  0
  1 24  1  0  0  0  0
  2 23  1  0  0  0  0
  2 30  1  0  0  0  0
  3 24  1  0  0  0  0
  3 31  1  0  0  0  0
  4 20  2  0  0  0  0
  5 21  2  0  0  0  0
  8 26  2  0  0  0  0
  9 37  1  0  0  0  0
  9 65  1  0  0  0  0
 10 37  2  0  0  0  0
 11 17  1  0  0  0  0
 11 19  1  0  0  0  0
 11 21  1  0  0  0  0
 12 15  1  0  0  0  0
 12 46  1  0  0  0  0
 13 20  1  0  0  0  0
 13 22  1  0  0  0  0
 13 47  1  0  0  0  0
 14 26  1  0  0  0  0
 14 60  1  0  0  0  0
 14 61  1  0  0  0  0
 15 16  1  0  0  0  0
 15 18  1  0  0  0  0
 15 38  1  0  0  0  0
 16 17  1  0  0  0  0
 16 39  1  0  0  0  0
 16 40  1  0  0  0  0
 17 20  1  0  0  0  0
 17 41  1  0  0  0  0
 18 19  1  0  0  0  0
 18 42  1  0  0  0  0
 18 43  1  0  0  0  0
 19 44  1  0  0  0  0
 19 45  1  0  0  0  0
 21 23  1  0  0  0  0
 22 25  1  0  0  0  0
 22 26  1  0  0  0  0
 22 48  1  0  0  0  0
 23 49  1  0  0  0  0
 23 50  1  0  0  0  0
 24 28  2  0  0  0  0
 25 27  1  0  0  0  0
 25 51  1  0  0  0  0
 25 52  1  0  0  0  0
 27 32  2  0  0  0  0
 27 33  1  0  0  0  0
 28 29  1  0  0  0  0
 28 53  1  0  0  0  0
 29 31  2  0  0  0  0
 29 54  1  0  0  0  0
 30 37  1  0  0  0  0
 30 55  1  0  0  0  0
 30 56  1  0  0  0  0
 31 57  1  0  0  0  0
 32 34  1  0  0  0  0
 32 58  1  0  0  0  0
 33 35  2  0  0  0  0
 33 59  1  0  0  0  0
 34 36  2  0  0  0  0
 34 62  1  0  0  0  0
 35 36  1  0  0  0  0
 35 63  1  0  0  0  0
 36 64  1  0  0  0  0
M  END
> <PUBCHEM_COMPOUND_CID>
7134372

> <PUBCHEM_CONFORMER_RMSD>
1.2

> <PUBCHEM_CONFORMER_DIVERSEORDER>
1
38
78
57
9
75
49
5
73
77
13
69
46
53
67
50
7
20
26
51
47
15
21
76
41
2
6
17
79
54
71
32
19
68
61
60
64
28
27
14
44
58
43
52
24
65
12
66
45
74
48
37
70
36
16
23
63
56
40
22
62
39
8
10
55
59
33
35
4
34
31
11
30
3
29
42
18
25
72

> <PUBCHEM_MMFF94_PARTIAL_CHARGES>
48
1 1.5
10 -0.57
11 -0.66
12 -0.91
13 -0.73
14 -0.8
15 0.36
17 0.36
19 0.3
2 -0.46
20 0.57
21 0.57
22 0.36
23 0.29
24 -0.02
25 0.14
26 0.57
27 -0.14
28 -0.15
29 -0.15
3 -0.08
30 0.29
31 -0.11
32 -0.15
33 -0.15
34 -0.15
35 -0.15
36 -0.15
37 0.66
4 -0.57
46 0.42
47 0.37
5 -0.57
53 0.15
54 0.15
57 0.15
58 0.15
59 0.15
6 -0.65
60 0.37
61 0.37
62 0.15
63 0.15
64 0.15
65 0.5
7 -0.65
8 -0.57
9 -0.65

> <PUBCHEM_EFFECTIVE_ROTOR_COUNT>
15.2

> <PUBCHEM_PHARMACOPHORE_FEATURES>
14
1 10 acceptor
1 12 donor
1 13 donor
1 14 donor
1 4 acceptor
1 5 acceptor
1 6 acceptor
1 7 acceptor
1 8 acceptor
1 9 acceptor
3 9 10 37 anion
5 3 24 28 29 31 rings
6 11 15 16 17 18 19 rings
6 27 32 33 34 35 36 rings

> <PUBCHEM_HEAVY_ATOM_COUNT>
37

> <PUBCHEM_ATOM_DEF_STEREO_COUNT>
3

> <PUBCHEM_ATOM_UDEF_STEREO_COUNT>
0

> <PUBCHEM_BOND_DEF_STEREO_COUNT>
0

> <PUBCHEM_BOND_UDEF_STEREO_COUNT>
0

> <PUBCHEM_ISOTOPIC_ATOM_COUNT>
0

> <PUBCHEM_COMPONENT_COUNT>
1

> <PUBCHEM_CACTVS_TAUTO_COUNT>
4

> <PUBCHEM_CONFORMER_ID>
006CDCA400000001

> <PUBCHEM_MMFF94_ENERGY>
76.373

> <PUBCHEM_FEATURE_SELFOVERLAP>
71.126

> <PUBCHEM_SHAPE_FINGERPRINT>
10305334 12 17822837767461000570
11285246 1 18128542754932791309
12788726 201 17758984870865259352
1361 2 18341321241450692856
14114207 22 17098022032935306354
14289585 56 14084837308027185701
15001296 14 18128529380477938981
20764821 26 18192459431423215294
20775438 99 18339069415878416383
21987440 362 15795628446207736141
23559900 14 18266482956942388612
3027735 51 18196954350805551619
35225 105 17559669745652787450
66674814 147 18334851688930538133

> <PUBCHEM_SHAPE_MULTIPOLES>
711.98
11.35
6.63
2.68
4.8
5.52
-0.06
-6.67
-3.52
-4.36
1.35
1.14
0.66
1.11

> <PUBCHEM_SHAPE_SELFOVERLAP>
1446.447

> <PUBCHEM_SHAPE_VOLUME>
412

> <PUBCHEM_COORDINATE_TYPE>
2
5
10

$$$$
