11883009
  -OEChem-12032416313D

 72 75  0     1  0  0  0  0  0999 V2000
   -0.3131    3.1125    0.1894 S   0  0  0  0  0  0  0  0  0  0  0  0
   -7.0621   -0.8065   -0.6581 O   0  0  0  0  0  0  0  0  0  0  0  0
   -7.1211    1.0195    0.8932 O   0  0  0  0  0  0  0  0  0  0  0  0
    0.9106   -1.8149   -1.4738 O   0  0  0  0  0  0  0  0  0  0  0  0
    3.6565    0.7440   -0.2252 O   0  0  0  0  0  0  0  0  0  0  0  0
    4.5545   -2.5301   -0.9701 O   0  0  0  0  0  0  0  0  0  0  0  0
    0.7188    0.7557   -0.0809 N   0  0  0  0  0  0  0  0  0  0  0  0
    1.4582   -3.2532    0.2678 N   0  0  0  0  0  0  0  0  0  0  0  0
    2.2550    2.6103    0.0198 N   0  0  0  0  0  0  0  0  0  0  0  0
   -2.8234   -0.7035    0.3574 C   0  0  2  0  0  0  0  0  0  0  0  0
   -3.5150    0.5703   -0.3018 C   0  0  1  0  0  0  0  0  0  0  0  0
   -5.0918    0.6105   -0.2992 C   0  0  1  0  0  0  0  0  0  0  0  0
   -1.3042   -0.7503   -0.1360 C   0  0  1  0  0  0  0  0  0  0  0  0
   -3.5367   -1.9898   -0.1341 C   0  0  0  0  0  0  0  0  0  0  0  0
   -5.6400   -0.7658   -0.7719 C   0  0  1  0  0  0  0  0  0  0  0  0
   -2.8533    1.8925    0.1852 C   0  0  0  0  0  0  0  0  0  0  0  0
   -5.0524   -1.9433   -0.0020 C   0  0  0  0  0  0  0  0  0  0  0  0
   -2.8613   -0.6747    1.9053 C   0  0  0  0  0  0  0  0  0  0  0  0
   -0.6541    0.6043   -0.0183 C   0  0  0  0  0  0  0  0  0  0  0  0
   -5.7200    1.0190    1.0515 C   0  0  0  0  0  0  0  0  0  0  0  0
   -5.5735    1.6766   -1.3236 C   0  0  0  0  0  0  0  0  0  0  0  0
   -1.3684    1.7785    0.1067 C   0  0  0  0  0  0  0  0  0  0  0  0
   -0.4520   -1.8418    0.5254 C   0  0  0  0  0  0  0  0  0  0  0  0
    0.6965   -2.2756   -0.3557 C   0  0  0  0  0  0  0  0  0  0  0  0
    1.0128    2.0333    0.0257 C   0  0  0  0  0  0  0  0  0  0  0  0
    2.6205   -3.8571   -0.3423 C   0  0  0  0  0  0  0  0  0  0  0  0
    3.4967    1.9567   -0.1026 C   0  0  0  0  0  0  0  0  0  0  0  0
    4.7139    2.9157   -0.0693 C   0  0  0  0  0  0  0  0  0  0  0  0
    3.8470   -3.0893    0.0463 C   0  0  0  0  0  0  0  0  0  0  0  0
    4.7284    3.6795    1.2685 C   0  0  0  0  0  0  0  0  0  0  0  0
    4.6141    3.9399   -1.2106 C   0  0  0  0  0  0  0  0  0  0  0  0
    6.0220    2.1176   -0.1854 C   0  0  0  0  0  0  0  0  0  0  0  0
    4.4404   -2.8141    1.2565 C   0  0  0  0  0  0  0  0  0  0  0  0
    5.5859   -2.0358    0.9648 C   0  0  0  0  0  0  0  0  0  0  0  0
    5.6109   -1.8906   -0.4028 C   0  0  0  0  0  0  0  0  0  0  0  0
   -3.2520    0.4903   -1.3710 H   0  0  0  0  0  0  0  0  0  0  0  0
   -1.3494   -0.9515   -1.2170 H   0  0  0  0  0  0  0  0  0  0  0  0
   -3.1763   -2.8685    0.4125 H   0  0  0  0  0  0  0  0  0  0  0  0
   -3.2918   -2.1649   -1.1901 H   0  0  0  0  0  0  0  0  0  0  0  0
   -5.4058   -0.8954   -1.8370 H   0  0  0  0  0  0  0  0  0  0  0  0
   -3.1832    2.7305   -0.4380 H   0  0  0  0  0  0  0  0  0  0  0  0
   -3.1402    2.1166    1.2180 H   0  0  0  0  0  0  0  0  0  0  0  0
   -5.3602   -1.9121    1.0490 H   0  0  0  0  0  0  0  0  0  0  0  0
   -5.4755   -2.8778   -0.3925 H   0  0  0  0  0  0  0  0  0  0  0  0
   -2.3533   -1.5475    2.3302 H   0  0  0  0  0  0  0  0  0  0  0  0
   -3.8717   -0.7116    2.3071 H   0  0  0  0  0  0  0  0  0  0  0  0
   -2.3701    0.2093    2.3213 H   0  0  0  0  0  0  0  0  0  0  0  0
   -5.4096    2.0225    1.3580 H   0  0  0  0  0  0  0  0  0  0  0  0
   -5.4890    0.3254    1.8560 H   0  0  0  0  0  0  0  0  0  0  0  0
   -5.0962    1.5269   -2.2990 H   0  0  0  0  0  0  0  0  0  0  0  0
   -5.3400    2.6941   -0.9931 H   0  0  0  0  0  0  0  0  0  0  0  0
   -6.6553    1.6346   -1.4928 H   0  0  0  0  0  0  0  0  0  0  0  0
   -0.0477   -1.5017    1.4872 H   0  0  0  0  0  0  0  0  0  0  0  0
   -1.0432   -2.7435    0.7145 H   0  0  0  0  0  0  0  0  0  0  0  0
   -7.3613   -1.6634   -1.0071 H   0  0  0  0  0  0  0  0  0  0  0  0
   -7.5088    1.2869    1.7438 H   0  0  0  0  0  0  0  0  0  0  0  0
    1.2059   -3.5570    1.2040 H   0  0  0  0  0  0  0  0  0  0  0  0
    2.2453    3.6212    0.1158 H   0  0  0  0  0  0  0  0  0  0  0  0
    2.4978   -3.8756   -1.4301 H   0  0  0  0  0  0  0  0  0  0  0  0
    2.6919   -4.8871    0.0206 H   0  0  0  0  0  0  0  0  0  0  0  0
    3.8642    4.3432    1.3784 H   0  0  0  0  0  0  0  0  0  0  0  0
    4.7119    2.9832    2.1151 H   0  0  0  0  0  0  0  0  0  0  0  0
    5.6278    4.2991    1.3601 H   0  0  0  0  0  0  0  0  0  0  0  0
    4.5203    3.4334   -2.1781 H   0  0  0  0  0  0  0  0  0  0  0  0
    3.7476    4.6010   -1.1050 H   0  0  0  0  0  0  0  0  0  0  0  0
    5.5064    4.5750   -1.2498 H   0  0  0  0  0  0  0  0  0  0  0  0
    6.1216    1.3947    0.6325 H   0  0  0  0  0  0  0  0  0  0  0  0
    6.0594    1.5573   -1.1267 H   0  0  0  0  0  0  0  0  0  0  0  0
    6.8961    2.7777   -0.1564 H   0  0  0  0  0  0  0  0  0  0  0  0
    4.0925   -3.1330    2.2286 H   0  0  0  0  0  0  0  0  0  0  0  0
    6.3026   -1.6296    1.6637 H   0  0  0  0  0  0  0  0  0  0  0  0
    6.2762   -1.3877   -1.0892 H   0  0  0  0  0  0  0  0  0  0  0  0
  1 22  1  0  0  0  0
  1 25  1  0  0  0  0
  2 15  1  0  0  0  0
  2 55  1  0  0  0  0
  3 20  1  0  0  0  0
  3 56  1  0  0  0  0
  4 24  2  0  0  0  0
  5 27  2  0  0  0  0
  6 29  1  0  0  0  0
  6 35  1  0  0  0  0
  7 19  1  0  0  0  0
  7 25  2  0  0  0  0
  8 24  1  0  0  0  0
  8 26  1  0  0  0  0
  8 57  1  0  0  0  0
  9 25  1  0  0  0  0
  9 27  1  0  0  0  0
  9 58  1  0  0  0  0
 10 11  1  0  0  0  0
 10 13  1  0  0  0  0
 10 14  1  0  0  0  0
 10 18  1  0  0  0  0
 11 12  1  0  0  0  0
 11 16  1  0  0  0  0
 11 36  1  0  0  0  0
 12 15  1  0  0  0  0
 12 20  1  0  0  0  0
 12 21  1  0  0  0  0
 13 19  1  0  0  0  0
 13 23  1  0  0  0  0
 13 37  1  0  0  0  0
 14 17  1  0  0  0  0
 14 38  1  0  0  0  0
 14 39  1  0  0  0  0
 15 17  1  0  0  0  0
 15 40  1  0  0  0  0
 16 22  1  0  0  0  0
 16 41  1  0  0  0  0
 16 42  1  0  0  0  0
 17 43  1  0  0  0  0
 17 44  1  0  0  0  0
 18 45  1  0  0  0  0
 18 46  1  0  0  0  0
 18 47  1  0  0  0  0
 19 22  2  0  0  0  0
 20 48  1  0  0  0  0
 20 49  1  0  0  0  0
 21 50  1  0  0  0  0
 21 51  1  0  0  0  0
 21 52  1  0  0  0  0
 23 24  1  0  0  0  0
 23 53  1  0  0  0  0
 23 54  1  0  0  0  0
 26 29  1  0  0  0  0
 26 59  1  0  0  0  0
 26 60  1  0  0  0  0
 27 28  1  0  0  0  0
 28 30  1  0  0  0  0
 28 31  1  0  0  0  0
 28 32  1  0  0  0  0
 29 33  2  0  0  0  0
 30 61  1  0  0  0  0
 30 62  1  0  0  0  0
 30 63  1  0  0  0  0
 31 64  1  0  0  0  0
 31 65  1  0  0  0  0
 31 66  1  0  0  0  0
 32 67  1  0  0  0  0
 32 68  1  0  0  0  0
 32 69  1  0  0  0  0
 33 34  1  0  0  0  0
 33 70  1  0  0  0  0
 34 35  2  0  0  0  0
 34 71  1  0  0  0  0
 35 72  1  0  0  0  0
M  END
> <PUBCHEM_COMPOUND_CID>
11883009

> <PUBCHEM_CONFORMER_RMSD>
1

> <PUBCHEM_CONFORMER_DIVERSEORDER>
1
47
45
48
36
33
46
20
6
16
11
12
50
42
43
31
44
27
5
15
26
19
10
34
29
21
4
9
35
37
23
39
41
38
3
25
40
7
22
8
28
17
24
32
51
30
13
49
18
14
2

> <PUBCHEM_MMFF94_PARTIAL_CHARGES>
32
1 -0.08
13 0.18
15 0.28
16 0.18
19 0.05
2 -0.68
20 0.28
22 -0.14
23 0.06
24 0.57
25 0.44
26 0.48
27 0.57
28 0.06
29 -0.04
3 -0.68
33 -0.15
34 -0.15
35 -0.01
4 -0.57
5 -0.57
55 0.4
56 0.4
57 0.37
58 0.37
6 -0.28
7 -0.57
70 0.15
71 0.15
72 0.15
8 -0.73
9 -0.49

> <PUBCHEM_EFFECTIVE_ROTOR_COUNT>
10.2

> <PUBCHEM_PHARMACOPHORE_FEATURES>
14
1 2 acceptor
1 2 donor
1 3 acceptor
1 3 donor
1 4 acceptor
1 5 acceptor
1 6 acceptor
1 8 donor
1 9 donor
4 28 30 31 32 hydrophobe
5 1 7 19 22 25 rings
5 6 29 33 34 35 rings
6 10 11 12 14 15 17 rings
6 10 11 13 16 19 22 rings

> <PUBCHEM_HEAVY_ATOM_COUNT>
35

> <PUBCHEM_ATOM_DEF_STEREO_COUNT>
5

> <PUBCHEM_ATOM_UDEF_STEREO_COUNT>
0

> <PUBCHEM_BOND_DEF_STEREO_COUNT>
0

> <PUBCHEM_BOND_UDEF_STEREO_COUNT>
0

> <PUBCHEM_ISOTOPIC_ATOM_COUNT>
0

> <PUBCHEM_COMPONENT_COUNT>
1

> <PUBCHEM_CACTVS_TAUTO_COUNT>
6

> <PUBCHEM_CONFORMER_ID>
00B5520100000001

> <PUBCHEM_MMFF94_ENERGY>
94.5171

> <PUBCHEM_FEATURE_SELFOVERLAP>
71.193

> <PUBCHEM_SHAPE_FINGERPRINT>
10050765 1 18410293636384957179
10290309 65 17905338673147627504
10838868 158 17535202351448686851
10906281 52 18263095451700779889
1100329 8 17835806296536108425
11135926 11 18411696612847557229
11227688 84 17406820157381730975
11763715 3 17546190518442883790
11963148 33 18049153668927522283
12166972 35 17678466260095514254
12977781 61 17677630793839012187
13533116 47 18412825785440422896
1361 2 18409448094483448394
13811026 1 18335698390241257827
140371 6 18126288540935736075
14415360 78 17395843273039650085
14725015 67 18261945251185273674
14784336 7 17988076811120176769
14790565 3 18121784099558462468
14840074 17 17845362271972223863
14931854 50 18265639657778602318
15001296 14 18408882962270214338
15200665 1 17619909899751467922
15400415 2 18050004686626970972
15684970 41 15050871166280901207
15815584 197 18193578841396915119
15927050 60 18196933494945866670
16067689 134 17620765985260280541
16067689 302 18339928238108720959
20721686 56 18408325484474283130
21279426 13 18335133168561126565
21344244 246 18338228375682609191
21781055 127 16629979733476203475
22311459 1 18266177219558395827
23559900 14 18340195298504415771
24771293 8 18200581528471266906
24771750 20 18261970642182303014
3298306 158 18340207522171354564
3411729 13 18335983159779319402
394071 54 18343025445871989258
4073 2 18191028000195611784
4573279 73 18198330935063519623
5104073 3 18410303518851374907
53794403 172 18336269020144362918
5385378 56 18411707594999779345
5776283 40 18338529655349750508
59755656 215 18338800120969494909
67856867 119 18410854347890251623
99344 41 18410852192106903664
9961470 85 18197488727169507250

> <PUBCHEM_SHAPE_MULTIPOLES>
679.84
16.44
5.25
1.11
8.69
0.07
-0.17
1.92
0.24
-10.02
0.14
0.15
0.02
-0.35

> <PUBCHEM_SHAPE_SELFOVERLAP>
1427.226

> <PUBCHEM_SHAPE_VOLUME>
388.5

> <PUBCHEM_COORDINATE_TYPE>
2
5
10

$$$$
