71693927
  -OEChem-12032416403D

 47 49  0     1  0  0  0  0  0999 V2000
   -6.4894    1.0663    0.5685 F   0  0  0  0  0  0  0  0  0  0  0  0
   -6.2684   -0.9860    1.2341 F   0  0  0  0  0  0  0  0  0  0  0  0
   -6.6178   -0.5598   -0.8692 F   0  0  0  0  0  0  0  0  0  0  0  0
    2.0094    3.6525   -0.7792 O   0  0  0  0  0  0  0  0  0  0  0  0
    4.4932    2.4868   -0.6724 O   0  0  0  0  0  0  0  0  0  0  0  0
    0.2599   -0.5414   -1.5765 O   0  0  0  0  0  0  0  0  0  0  0  0
    0.4497    1.1005    0.0507 N   0  0  0  0  0  0  0  0  0  0  0  0
    2.6813    0.4511    0.9072 C   0  0  2  0  0  0  0  0  0  0  0  0
    1.8685    1.3123   -0.0858 C   0  0  2  0  0  0  0  0  0  0  0  0
    2.2689    2.7426    0.2731 C   0  0  1  0  0  0  0  0  0  0  0  0
    3.8862    1.3270    1.3380 C   0  0  0  0  0  0  0  0  0  0  0  0
    3.7642    2.6256    0.5433 C   0  0  1  0  0  0  0  0  0  0  0  0
    3.0631   -0.9013    0.3435 C   0  0  0  0  0  0  0  0  0  0  0  0
    2.6459   -2.0800    0.9618 C   0  0  0  0  0  0  0  0  0  0  0  0
    3.8427   -0.9577   -0.8117 C   0  0  0  0  0  0  0  0  0  0  0  0
   -0.2458    0.1770   -0.7182 C   0  0  0  0  0  0  0  0  0  0  0  0
    3.0086   -3.3152    0.4248 C   0  0  0  0  0  0  0  0  0  0  0  0
    1.8107   -2.0449    2.1993 C   0  0  0  0  0  0  0  0  0  0  0  0
    4.2056   -2.1930   -1.3486 C   0  0  0  0  0  0  0  0  0  0  0  0
    3.7885   -3.3717   -0.7304 C   0  0  0  0  0  0  0  0  0  0  0  0
   -1.7091    0.0972   -0.4750 C   0  0  0  0  0  0  0  0  0  0  0  0
   -2.5639   -0.3250   -1.4933 C   0  0  0  0  0  0  0  0  0  0  0  0
   -2.2285    0.4453    0.7719 C   0  0  0  0  0  0  0  0  0  0  0  0
   -3.9378   -0.3990   -1.2647 C   0  0  0  0  0  0  0  0  0  0  0  0
   -3.6025    0.3715    1.0006 C   0  0  0  0  0  0  0  0  0  0  0  0
   -4.4571   -0.0508   -0.0177 C   0  0  0  0  0  0  0  0  0  0  0  0
   -5.9264   -0.1300    0.2262 C   0  0  0  0  0  0  0  0  0  0  0  0
    2.0728    0.3331    1.8103 H   0  0  0  0  0  0  0  0  0  0  0  0
    2.1322    1.1142   -1.1319 H   0  0  0  0  0  0  0  0  0  0  0  0
    1.7410    3.0845    1.1723 H   0  0  0  0  0  0  0  0  0  0  0  0
    3.7891    1.5484    2.4084 H   0  0  0  0  0  0  0  0  0  0  0  0
    4.8523    0.8326    1.1908 H   0  0  0  0  0  0  0  0  0  0  0  0
    4.1597    3.4953    1.0763 H   0  0  0  0  0  0  0  0  0  0  0  0
   -0.0377    1.6784    0.7265 H   0  0  0  0  0  0  0  0  0  0  0  0
    2.3745    4.5146   -0.5163 H   0  0  0  0  0  0  0  0  0  0  0  0
    5.4310    2.3772   -0.4397 H   0  0  0  0  0  0  0  0  0  0  0  0
    4.1838   -0.0567   -1.3113 H   0  0  0  0  0  0  0  0  0  0  0  0
    2.6924   -4.2434    0.8934 H   0  0  0  0  0  0  0  0  0  0  0  0
    2.3415   -1.5419    3.0143 H   0  0  0  0  0  0  0  0  0  0  0  0
    0.8533   -1.5484    2.0102 H   0  0  0  0  0  0  0  0  0  0  0  0
    1.5764   -3.0555    2.5529 H   0  0  0  0  0  0  0  0  0  0  0  0
    4.8133   -2.2372   -2.2476 H   0  0  0  0  0  0  0  0  0  0  0  0
    4.0711   -4.3334   -1.1486 H   0  0  0  0  0  0  0  0  0  0  0  0
   -2.1788   -0.5962   -2.4727 H   0  0  0  0  0  0  0  0  0  0  0  0
   -1.5973    0.7461    1.6026 H   0  0  0  0  0  0  0  0  0  0  0  0
   -4.5865   -0.7293   -2.0713 H   0  0  0  0  0  0  0  0  0  0  0  0
   -3.9976    0.6376    1.9774 H   0  0  0  0  0  0  0  0  0  0  0  0
  1 27  1  0  0  0  0
  2 27  1  0  0  0  0
  3 27  1  0  0  0  0
  4 10  1  0  0  0  0
  4 35  1  0  0  0  0
  5 12  1  0  0  0  0
  5 36  1  0  0  0  0
  6 16  2  0  0  0  0
  7  9  1  0  0  0  0
  7 16  1  0  0  0  0
  7 34  1  0  0  0  0
  8  9  1  0  0  0  0
  8 11  1  0  0  0  0
  8 13  1  0  0  0  0
  8 28  1  0  0  0  0
  9 10  1  0  0  0  0
  9 29  1  0  0  0  0
 10 12  1  0  0  0  0
 10 30  1  0  0  0  0
 11 12  1  0  0  0  0
 11 31  1  0  0  0  0
 11 32  1  0  0  0  0
 12 33  1  0  0  0  0
 13 14  1  0  0  0  0
 13 15  2  0  0  0  0
 14 17  2  0  0  0  0
 14 18  1  0  0  0  0
 15 19  1  0  0  0  0
 15 37  1  0  0  0  0
 16 21  1  0  0  0  0
 17 20  1  0  0  0  0
 17 38  1  0  0  0  0
 18 39  1  0  0  0  0
 18 40  1  0  0  0  0
 18 41  1  0  0  0  0
 19 20  2  0  0  0  0
 19 42  1  0  0  0  0
 20 43  1  0  0  0  0
 21 22  2  0  0  0  0
 21 23  1  0  0  0  0
 22 24  1  0  0  0  0
 22 44  1  0  0  0  0
 23 25  2  0  0  0  0
 23 45  1  0  0  0  0
 24 26  2  0  0  0  0
 24 46  1  0  0  0  0
 25 26  1  0  0  0  0
 25 47  1  0  0  0  0
 26 27  1  0  0  0  0
M  END
> <PUBCHEM_COMPOUND_CID>
71693927

> <PUBCHEM_CONFORMER_RMSD>
0.8

> <PUBCHEM_CONFORMER_DIVERSEORDER>
1
12
13
7
5
6
11
4
3
9
8
10
2

> <PUBCHEM_MMFF94_PARTIAL_CHARGES>
37
1 -0.34
10 0.28
12 0.28
13 -0.14
14 -0.14
15 -0.15
16 0.54
17 -0.15
18 0.14
19 -0.15
2 -0.34
20 -0.15
21 0.09
22 -0.15
23 -0.15
24 -0.15
25 -0.15
26 -0.14
27 1.16
3 -0.34
34 0.37
35 0.4
36 0.4
37 0.15
38 0.15
4 -0.68
42 0.15
43 0.15
44 0.15
45 0.15
46 0.15
47 0.15
5 -0.68
6 -0.57
7 -0.73
8 0.14
9 0.3

> <PUBCHEM_EFFECTIVE_ROTOR_COUNT>
6

> <PUBCHEM_PHARMACOPHORE_FEATURES>
9
1 4 acceptor
1 4 donor
1 5 acceptor
1 5 donor
1 6 acceptor
1 7 donor
5 8 9 10 11 12 rings
6 13 14 15 17 19 20 rings
6 21 22 23 24 25 26 rings

> <PUBCHEM_HEAVY_ATOM_COUNT>
27

> <PUBCHEM_ATOM_DEF_STEREO_COUNT>
4

> <PUBCHEM_ATOM_UDEF_STEREO_COUNT>
0

> <PUBCHEM_BOND_DEF_STEREO_COUNT>
0

> <PUBCHEM_BOND_UDEF_STEREO_COUNT>
0

> <PUBCHEM_ISOTOPIC_ATOM_COUNT>
0

> <PUBCHEM_COMPONENT_COUNT>
1

> <PUBCHEM_CACTVS_TAUTO_COUNT>
2

> <PUBCHEM_CONFORMER_ID>
0445F66700000001

> <PUBCHEM_MMFF94_ENERGY>
74.0012

> <PUBCHEM_FEATURE_SELFOVERLAP>
45.682

> <PUBCHEM_SHAPE_FINGERPRINT>
10366900 7 17822301145245262827
10554248 39 18060128805349016917
11421498 54 18202565094608279352
114674 6 18186517687793080762
11475781 23 16806700960037233943
12107183 9 17911808972754157017
12236239 1 17988923392603620313
12553582 1 18196925587816070662
12596602 18 18342742944724928275
12730499 353 18334299811613782930
12778500 126 17060340695482842738
13009979 54 17488188089100952498
13533116 47 18343584044959885155
13583140 156 18268716189670059785
13617811 41 15936406733227872639
13785724 45 17841443526647457855
13911852 28 18052822446580394943
13955234 65 18342454872287982704
14251764 30 17984991384230648910
14341114 176 18343024380719716291
14863182 85 18411129265237598828
15250474 111 17986937717453875495
17349148 13 17418087690221787949
17492 89 18341892944484088491
17818456 19 17702668722619590289
17844677 252 18411138000926934725
1813 80 18128262181825164638
20157964 124 18409161152066273069
20645477 70 18408879637754160334
21133410 230 14670378084576060555
21133665 82 14782964214569807758
21197605 99 17973447895018081171
21315759 148 18187373159916706891
21344244 78 18058996316160255288
21421861 104 18340758282902010440
22033318 11 17842027454086239073
23081809 10 17632856430847812765
23559900 14 17603599542554445999
239999 70 18334575750409596370
312423 11 18271815579282774977
3411729 13 18411980295400287580
3421961 26 18340202999465192802
345986 75 17987791887273872746
4073 2 18262805193610628299
4144715 1 18260838099000789841
4340502 62 18334853978100660168
437795 51 18263097624996118102
4394409 98 14017635371896770286
46194498 28 17894916234939558436
465052 167 18272375221958683479
474 4 18338230599927184992
5104073 3 18060147540022423747
59755656 215 18340773723251768140
70251023 43 18267308625671016010
7970288 3 18123470483891746814
8272917 22 18409728495354578244
8509985 295 16200424745805683187
9841814 1 18263350426649893314

> <PUBCHEM_SHAPE_MULTIPOLES>
511.24
13.32
3.51
1.49
26.19
0.51
-0.19
-2.23
-0.59
-7.53
0.11
-0.24
-0.58
0.14

> <PUBCHEM_SHAPE_SELFOVERLAP>
1104.761

> <PUBCHEM_SHAPE_VOLUME>
282.5

> <PUBCHEM_COORDINATE_TYPE>
2
5
10

$$$$
