11885218
  -OEChem-12032416213D

 55 59  0     1  0  0  0  0  0999 V2000
    3.1272   -1.5629   -0.5548 S   0  0  0  0  0  0  0  0  0  0  0  0
   -8.2274   -1.6360    0.0033 S   0  0  0  0  0  0  0  0  0  0  0  0
    3.1085   -1.9223   -1.9570 O   0  0  0  0  0  0  0  0  0  0  0  0
    2.6203   -2.4700    0.4533 O   0  0  0  0  0  0  0  0  0  0  0  0
   -2.3234    0.9229   -1.7053 O   0  0  0  0  0  0  0  0  0  0  0  0
    2.3789   -0.0369   -0.3577 N   0  0  2  0  0  0  0  0  0  0  0  0
   -0.4692    1.3309   -0.3508 N   0  0  0  0  0  0  0  0  0  0  0  0
    1.7545    2.1975   -1.2806 C   0  0  1  0  0  0  0  0  0  0  0  0
    1.5245    1.7661    1.1260 C   0  0  2  0  0  0  0  0  0  0  0  0
    1.9267    2.8203    0.0983 C   0  0  0  0  0  0  0  0  0  0  0  0
    2.6548    0.9602   -1.4312 C   0  0  0  0  0  0  0  0  0  0  0  0
    2.4638    0.5517    1.0124 C   0  0  0  0  0  0  0  0  0  0  0  0
    0.2716    1.8728   -1.4985 C   0  0  0  0  0  0  0  0  0  0  0  0
    0.0819    1.3373    0.9326 C   0  0  0  0  0  0  0  0  0  0  0  0
   -0.6556    0.9459    1.9840 C   0  0  0  0  0  0  0  0  0  0  0  0
   -1.7914    0.9093   -0.5938 C   0  0  0  0  0  0  0  0  0  0  0  0
   -2.5812    0.4418    0.5991 C   0  0  0  0  0  0  0  0  0  0  0  0
   -2.0043    0.4864    1.8093 C   0  0  0  0  0  0  0  0  0  0  0  0
    4.7896   -1.1500   -0.1265 C   0  0  0  0  0  0  0  0  0  0  0  0
   -3.9570   -0.0644    0.4532 C   0  0  0  0  0  0  0  0  0  0  0  0
    5.1952   -1.2548    1.1937 C   0  0  0  0  0  0  0  0  0  0  0  0
    5.6597   -0.7269   -1.1177 C   0  0  0  0  0  0  0  0  0  0  0  0
   -5.0376    0.8132    0.5470 C   0  0  0  0  0  0  0  0  0  0  0  0
   -4.1808   -1.4221    0.2214 C   0  0  0  0  0  0  0  0  0  0  0  0
    6.5081   -0.9272    1.5325 C   0  0  0  0  0  0  0  0  0  0  0  0
    6.9727   -0.3995   -0.7790 C   0  0  0  0  0  0  0  0  0  0  0  0
    7.3967   -0.4995    0.5461 C   0  0  0  0  0  0  0  0  0  0  0  0
   -6.3403    0.3338    0.4094 C   0  0  0  0  0  0  0  0  0  0  0  0
   -5.4835   -1.9014    0.0837 C   0  0  0  0  0  0  0  0  0  0  0  0
   -6.5633   -1.0235    0.1777 C   0  0  0  0  0  0  0  0  0  0  0  0
   -8.8199   -0.6929   -1.4301 C   0  0  0  0  0  0  0  0  0  0  0  0
    2.0608    2.9204   -2.0472 H   0  0  0  0  0  0  0  0  0  0  0  0
    1.6468    2.2033    2.1257 H   0  0  0  0  0  0  0  0  0  0  0  0
    1.3049    3.7190    0.1975 H   0  0  0  0  0  0  0  0  0  0  0  0
    2.9672    3.1314    0.2523 H   0  0  0  0  0  0  0  0  0  0  0  0
    2.4781    0.5112   -2.4143 H   0  0  0  0  0  0  0  0  0  0  0  0
    3.7014    1.2785   -1.3824 H   0  0  0  0  0  0  0  0  0  0  0  0
    3.4856    0.8863    1.2194 H   0  0  0  0  0  0  0  0  0  0  0  0
    2.1849   -0.1997    1.7596 H   0  0  0  0  0  0  0  0  0  0  0  0
   -0.2517    2.7982   -1.7765 H   0  0  0  0  0  0  0  0  0  0  0  0
    0.1471    1.1902   -2.3486 H   0  0  0  0  0  0  0  0  0  0  0  0
   -0.2498    0.9344    2.9902 H   0  0  0  0  0  0  0  0  0  0  0  0
   -2.5293    0.1598    2.7023 H   0  0  0  0  0  0  0  0  0  0  0  0
    4.5195   -1.5838    1.9772 H   0  0  0  0  0  0  0  0  0  0  0  0
    5.3491   -0.6389   -2.1543 H   0  0  0  0  0  0  0  0  0  0  0  0
   -4.8799    1.8738    0.7281 H   0  0  0  0  0  0  0  0  0  0  0  0
   -3.3493   -2.1186    0.1448 H   0  0  0  0  0  0  0  0  0  0  0  0
    6.8383   -1.0043    2.5643 H   0  0  0  0  0  0  0  0  0  0  0  0
    7.6646   -0.0654   -1.5466 H   0  0  0  0  0  0  0  0  0  0  0  0
    8.4188   -0.2439    0.8099 H   0  0  0  0  0  0  0  0  0  0  0  0
   -7.1663    1.0354    0.4935 H   0  0  0  0  0  0  0  0  0  0  0  0
   -5.6375   -2.9625   -0.0968 H   0  0  0  0  0  0  0  0  0  0  0  0
   -8.8839    0.3723   -1.1937 H   0  0  0  0  0  0  0  0  0  0  0  0
   -9.8170   -1.0475   -1.7040 H   0  0  0  0  0  0  0  0  0  0  0  0
   -8.1511   -0.8371   -2.2830 H   0  0  0  0  0  0  0  0  0  0  0  0
  1  3  2  0  0  0  0
  1  4  2  0  0  0  0
  1  6  1  0  0  0  0
  1 19  1  0  0  0  0
  2 30  1  0  0  0  0
  2 31  1  0  0  0  0
  5 16  2  0  0  0  0
  6 11  1  0  0  0  0
  6 12  1  0  0  0  0
  7 13  1  0  0  0  0
  7 14  1  0  0  0  0
  7 16  1  0  0  0  0
  8 10  1  0  0  0  0
  8 11  1  0  0  0  0
  8 13  1  0  0  0  0
  8 32  1  0  0  0  0
  9 10  1  0  0  0  0
  9 12  1  0  0  0  0
  9 14  1  0  0  0  0
  9 33  1  0  0  0  0
 10 34  1  0  0  0  0
 10 35  1  0  0  0  0
 11 36  1  0  0  0  0
 11 37  1  0  0  0  0
 12 38  1  0  0  0  0
 12 39  1  0  0  0  0
 13 40  1  0  0  0  0
 13 41  1  0  0  0  0
 14 15  2  0  0  0  0
 15 18  1  0  0  0  0
 15 42  1  0  0  0  0
 16 17  1  0  0  0  0
 17 18  2  0  0  0  0
 17 20  1  0  0  0  0
 18 43  1  0  0  0  0
 19 21  2  0  0  0  0
 19 22  1  0  0  0  0
 20 23  2  0  0  0  0
 20 24  1  0  0  0  0
 21 25  1  0  0  0  0
 21 44  1  0  0  0  0
 22 26  2  0  0  0  0
 22 45  1  0  0  0  0
 23 28  1  0  0  0  0
 23 46  1  0  0  0  0
 24 29  2  0  0  0  0
 24 47  1  0  0  0  0
 25 27  2  0  0  0  0
 25 48  1  0  0  0  0
 26 27  1  0  0  0  0
 26 49  1  0  0  0  0
 27 50  1  0  0  0  0
 28 30  2  0  0  0  0
 28 51  1  0  0  0  0
 29 30  1  0  0  0  0
 29 52  1  0  0  0  0
 31 53  1  0  0  0  0
 31 54  1  0  0  0  0
 31 55  1  0  0  0  0
M  END
> <PUBCHEM_COMPOUND_CID>
11885218

> <PUBCHEM_CONFORMER_RMSD>
0.8

> <PUBCHEM_CONFORMER_DIVERSEORDER>
1
8
10
11
13
6
14
5
3
12
9
7
4
2

> <PUBCHEM_MMFF94_PARTIAL_CHARGES>
40
1 1.45
11 0.36
12 0.36
13 0.3
14 -0.03
15 -0.15
16 0.62
17 -0.01
18 -0.15
19 -0.01
2 -0.33
20 0.03
21 -0.15
22 -0.15
23 -0.15
24 -0.15
25 -0.15
26 -0.15
27 -0.15
28 -0.15
29 -0.15
3 -0.65
30 0.1
31 0.23
4 -0.65
42 0.15
43 0.15
44 0.15
45 0.15
46 0.15
47 0.15
48 0.15
49 0.15
5 -0.57
50 0.15
51 0.15
52 0.15
6 -0.85
7 -0.47
9 0.14

> <PUBCHEM_EFFECTIVE_ROTOR_COUNT>
5

> <PUBCHEM_PHARMACOPHORE_FEATURES>
9
1 3 acceptor
1 31 hydrophobe
1 4 acceptor
1 5 acceptor
6 19 21 22 25 26 27 rings
6 20 23 24 28 29 30 rings
6 6 8 9 10 11 12 rings
6 7 14 15 16 17 18 rings
6 7 8 9 10 13 14 rings

> <PUBCHEM_HEAVY_ATOM_COUNT>
31

> <PUBCHEM_ATOM_DEF_STEREO_COUNT>
2

> <PUBCHEM_ATOM_UDEF_STEREO_COUNT>
0

> <PUBCHEM_BOND_DEF_STEREO_COUNT>
0

> <PUBCHEM_BOND_UDEF_STEREO_COUNT>
0

> <PUBCHEM_ISOTOPIC_ATOM_COUNT>
0

> <PUBCHEM_COMPONENT_COUNT>
1

> <PUBCHEM_CACTVS_TAUTO_COUNT>
1

> <PUBCHEM_CONFORMER_ID>
00B55AA200000001

> <PUBCHEM_MMFF94_ENERGY>
77.8766

> <PUBCHEM_FEATURE_SELFOVERLAP>
47.274

> <PUBCHEM_SHAPE_FINGERPRINT>
10 15 14405185088418820123
10165383 225 12031785873071060192
106641 1 16056876948658073706
10670039 82 14851878141454666367
11115154 58 17676488328887354261
11135609 99 18059294369573740214
11828532 37 15719975621325401867
12107698 1 17748827410232409092
12516196 113 18272934895284204216
12522641 33 17896887758621645220
12633257 1 13829841396594500363
13533116 47 18271528693295857769
13540713 4 16228038027203087385
13540713 5 15050019057353765049
13673619 4 18408884049150258297
13685833 64 18411419518262318977
14068700 675 18410013225937988368
14251751 18 18411138026279857687
14294032 229 15503479445639221973
14341114 176 15698279985056272080
14347332 77 18040714740609939637
1454969 45 18335148596621490038
15183329 4 18040435486668845371
15357212 105 13253356550290120306
15392192 104 13901905635084154708
15439362 3 17461170017463305428
15510800 12 18341346564620821699
15728490 51 17632292402435756558
15840311 113 14979952606201414184
15849732 13 17704353264315893455
18335252 114 12468631750859577883
20028762 73 18342742923055555838
20105231 36 16415768518454798150
21344244 78 17632576058871271624
21781051 124 15140970582083687897
22224240 67 13830130594175720653
23522609 53 17898039895724277764
23559900 14 16588316036914881884
23569943 247 17822567205990803859
23576562 1 14852460990403493671
249057 3 18334012818015897667
2838139 119 8358252618703875330
3004659 81 18410012156632926387
3009799 131 16298391266833031784
3383291 50 17989209274470809583
3633792 109 18409729565334269569
4066623 53 16298106497236715268
4112364 45 15410600549591391424
4149490 64 18265054820128664179
437795 51 17846494881577825368
439807 62 17748825211399109175
463206 1 18337956808647038507
508180 173 12179847203678200334
57035037 87 14996290266895900942
59682541 52 17095243631370761070
59755656 520 10663810854374677696
6004065 56 18408887356021583024
613672 6 17968959508349047474
6438161 24 18410571812562930123
6669772 16 17532096175903531512
9962374 69 18341045337416025231

> <PUBCHEM_SHAPE_MULTIPOLES>
618.09
21.45
2.35
1.65
21.27
0.35
0.05
-14.71
1.69
-0.85
0.3
-0.81
0.28
-0.47

> <PUBCHEM_SHAPE_SELFOVERLAP>
1327.11

> <PUBCHEM_SHAPE_VOLUME>
342.2

> <PUBCHEM_COORDINATE_TYPE>
2
5
10

$$$$
