7662948
  -OEChem-12032416233D

 51 54  0     1  0  0  0  0  0999 V2000
    0.1939    4.2820   -0.1028 S   0  0  0  0  0  0  0  0  0  0  0  0
    3.6360   -0.6177    2.6948 O   0  0  0  0  0  0  0  0  0  0  0  0
    2.4955    3.0492   -0.9104 O   0  0  0  0  0  0  0  0  0  0  0  0
   -3.0093    2.6329    0.6683 O   0  0  0  0  0  0  0  0  0  0  0  0
   -1.5853    3.2928    2.3121 O   0  0  0  0  0  0  0  0  0  0  0  0
    1.7864    0.9673   -1.6586 N   0  0  0  0  0  0  0  0  0  0  0  0
    2.4106   -1.0273    0.7412 N   0  0  0  0  0  0  0  0  0  0  0  0
   -5.1035    0.4204   -1.1075 N   0  0  0  0  0  0  0  0  0  0  0  0
    3.4874   -0.8502   -1.5786 C   0  0  1  0  0  0  0  0  0  0  0  0
    1.1028   -1.4092   -1.3719 C   0  0  2  0  0  0  0  0  0  0  0  0
    2.4260   -1.8587   -1.9892 C   0  0  0  0  0  0  0  0  0  0  0  0
    3.1260    0.5577   -2.0799 C   0  0  0  0  0  0  0  0  0  0  0  0
    3.6369   -0.8945   -0.0574 C   0  0  0  0  0  0  0  0  0  0  0  0
    0.7275   -0.0164   -1.9201 C   0  0  0  0  0  0  0  0  0  0  0  0
    1.1760   -1.3740    0.1572 C   0  0  0  0  0  0  0  0  0  0  0  0
    0.1028   -1.6346    0.9486 C   0  0  0  0  0  0  0  0  0  0  0  0
    2.5790   -0.9040    2.1319 C   0  0  0  0  0  0  0  0  0  0  0  0
    1.5892    2.2390   -1.1213 C   0  0  0  0  0  0  0  0  0  0  0  0
    0.2380   -1.5139    2.3878 C   0  0  0  0  0  0  0  0  0  0  0  0
    1.3841   -1.1587    2.9679 C   0  0  0  0  0  0  0  0  0  0  0  0
   -1.2082   -2.0206    0.3821 C   0  0  0  0  0  0  0  0  0  0  0  0
    0.1699    2.6153   -0.7784 C   0  0  0  0  0  0  0  0  0  0  0  0
   -2.1344   -1.0369    0.0487 C   0  0  0  0  0  0  0  0  0  0  0  0
   -1.5061   -3.3657    0.1863 C   0  0  0  0  0  0  0  0  0  0  0  0
   -3.3702   -1.4020   -0.4853 C   0  0  0  0  0  0  0  0  0  0  0  0
   -2.7419   -3.7306   -0.3478 C   0  0  0  0  0  0  0  0  0  0  0  0
   -3.6740   -2.7488   -0.6836 C   0  0  0  0  0  0  0  0  0  0  0  0
   -1.5769    4.4803    0.2148 C   0  0  0  0  0  0  0  0  0  0  0  0
   -4.3261   -0.3968   -0.8285 C   0  0  0  0  0  0  0  0  0  0  0  0
   -2.0323    3.4238    1.1797 C   0  0  0  0  0  0  0  0  0  0  0  0
    4.4494   -1.1245   -2.0287 H   0  0  0  0  0  0  0  0  0  0  0  0
    0.3416   -2.1233   -1.7054 H   0  0  0  0  0  0  0  0  0  0  0  0
    2.3434   -1.9033   -3.0821 H   0  0  0  0  0  0  0  0  0  0  0  0
    2.6929   -2.8662   -1.6461 H   0  0  0  0  0  0  0  0  0  0  0  0
    3.8765    1.2825   -1.7468 H   0  0  0  0  0  0  0  0  0  0  0  0
    3.1304    0.5745   -3.1768 H   0  0  0  0  0  0  0  0  0  0  0  0
    4.2541   -1.7646    0.2065 H   0  0  0  0  0  0  0  0  0  0  0  0
    4.1923   -0.0164    0.2964 H   0  0  0  0  0  0  0  0  0  0  0  0
    0.6101   -0.0662   -3.0101 H   0  0  0  0  0  0  0  0  0  0  0  0
   -0.2319    0.3124   -1.5232 H   0  0  0  0  0  0  0  0  0  0  0  0
   -0.6345   -1.7094    3.0043 H   0  0  0  0  0  0  0  0  0  0  0  0
    1.4744   -1.0653    4.0435 H   0  0  0  0  0  0  0  0  0  0  0  0
   -0.4475    2.5873   -1.6803 H   0  0  0  0  0  0  0  0  0  0  0  0
   -0.2006    1.9149   -0.0261 H   0  0  0  0  0  0  0  0  0  0  0  0
   -1.9012    0.0126    0.2123 H   0  0  0  0  0  0  0  0  0  0  0  0
   -0.7893   -4.1417    0.4427 H   0  0  0  0  0  0  0  0  0  0  0  0
   -2.9782   -4.7794   -0.5024 H   0  0  0  0  0  0  0  0  0  0  0  0
   -4.6330   -3.0492   -1.0989 H   0  0  0  0  0  0  0  0  0  0  0  0
   -1.7795    5.4636    0.6490 H   0  0  0  0  0  0  0  0  0  0  0  0
   -2.1292    4.4110   -0.7274 H   0  0  0  0  0  0  0  0  0  0  0  0
   -3.3015    1.9508    1.3100 H   0  0  0  0  0  0  0  0  0  0  0  0
  1 22  1  0  0  0  0
  1 28  1  0  0  0  0
  2 17  2  0  0  0  0
  3 18  2  0  0  0  0
  4 30  1  0  0  0  0
  4 51  1  0  0  0  0
  5 30  2  0  0  0  0
  6 12  1  0  0  0  0
  6 14  1  0  0  0  0
  6 18  1  0  0  0  0
  7 13  1  0  0  0  0
  7 15  1  0  0  0  0
  7 17  1  0  0  0  0
  8 29  3  0  0  0  0
  9 11  1  0  0  0  0
  9 12  1  0  0  0  0
  9 13  1  0  0  0  0
  9 31  1  0  0  0  0
 10 11  1  0  0  0  0
 10 14  1  0  0  0  0
 10 15  1  0  0  0  0
 10 32  1  0  0  0  0
 11 33  1  0  0  0  0
 11 34  1  0  0  0  0
 12 35  1  0  0  0  0
 12 36  1  0  0  0  0
 13 37  1  0  0  0  0
 13 38  1  0  0  0  0
 14 39  1  0  0  0  0
 14 40  1  0  0  0  0
 15 16  2  0  0  0  0
 16 19  1  0  0  0  0
 16 21  1  0  0  0  0
 17 20  1  0  0  0  0
 18 22  1  0  0  0  0
 19 20  2  0  0  0  0
 19 41  1  0  0  0  0
 20 42  1  0  0  0  0
 21 23  1  0  0  0  0
 21 24  2  0  0  0  0
 22 43  1  0  0  0  0
 22 44  1  0  0  0  0
 23 25  2  0  0  0  0
 23 45  1  0  0  0  0
 24 26  1  0  0  0  0
 24 46  1  0  0  0  0
 25 27  1  0  0  0  0
 25 29  1  0  0  0  0
 26 27  2  0  0  0  0
 26 47  1  0  0  0  0
 27 48  1  0  0  0  0
 28 30  1  0  0  0  0
 28 49  1  0  0  0  0
 28 50  1  0  0  0  0
M  END
> <PUBCHEM_COMPOUND_CID>
7662948

> <PUBCHEM_CONFORMER_RMSD>
0.8

> <PUBCHEM_CONFORMER_DIVERSEORDER>
1
19
6
26
10
36
16
27
52
28
47
25
35
20
33
41
13
12
7
24
51
15
18
4
46
48
43
39
42
54
44
23
5
50
17
2
29
53
14
49
31
8
3
9
30
38
22
45
40
32
37
21
11
34

> <PUBCHEM_MMFF94_PARTIAL_CHARGES>
35
1 -0.46
10 0.14
12 0.3
13 0.3
14 0.3
15 -0.03
16 -0.03
17 0.62
18 0.57
19 -0.15
2 -0.57
20 -0.14
21 0.03
22 0.29
23 -0.15
24 -0.15
25 0.07
26 -0.15
27 -0.15
28 0.29
29 0.48
3 -0.57
30 0.66
4 -0.65
41 0.15
42 0.15
45 0.15
46 0.15
47 0.15
48 0.15
5 -0.57
51 0.5
6 -0.66
7 -0.47
8 -0.56

> <PUBCHEM_EFFECTIVE_ROTOR_COUNT>
7

> <PUBCHEM_PHARMACOPHORE_FEATURES>
10
1 2 acceptor
1 3 acceptor
1 4 acceptor
1 5 acceptor
1 8 acceptor
3 4 5 30 anion
6 21 23 24 25 26 27 rings
6 6 9 10 11 12 14 rings
6 7 15 16 17 19 20 rings
6 7 9 10 11 13 15 rings

> <PUBCHEM_HEAVY_ATOM_COUNT>
30

> <PUBCHEM_ATOM_DEF_STEREO_COUNT>
2

> <PUBCHEM_ATOM_UDEF_STEREO_COUNT>
0

> <PUBCHEM_BOND_DEF_STEREO_COUNT>
0

> <PUBCHEM_BOND_UDEF_STEREO_COUNT>
0

> <PUBCHEM_ISOTOPIC_ATOM_COUNT>
0

> <PUBCHEM_COMPONENT_COUNT>
1

> <PUBCHEM_CACTVS_TAUTO_COUNT>
1

> <PUBCHEM_CONFORMER_ID>
0074ED6400000001

> <PUBCHEM_MMFF94_ENERGY>
77.8576

> <PUBCHEM_FEATURE_SELFOVERLAP>
52.371

> <PUBCHEM_SHAPE_FINGERPRINT>
10064457 181 17042304057606113554
10764073 3 12699903065380127054
11578080 2 17703239399651115304
11582403 64 16968004031152376574
11725454 13 16966038095592591598
12156800 1 18343014528134019752
12788726 201 18336836303044903549
13402501 40 16898498408077046613
13642711 20 15167381211453549558
13947920 75 18264216824727553222
13965767 371 17326036365916600017
14466204 15 17761489596829164644
14468879 13 15674079050554142289
14725015 67 17040908240632898481
14955137 171 17749941168277892131
15297060 5 17912364217446545801
17980427 23 17981011392376225239
19026451 147 18341042030069252063
19930381 70 17190678182629276519
20600515 1 18266996479947690427
20905425 154 18048023370730263343
21315764 371 17695044623077719641
21860390 5 17981866842365534543
23559900 14 18343868826993699782
238 59 17045440414202610533
3052486 1 18194116322352597961
3298306 158 17403737143465769709
3493558 16 18343012290550529888
35225 105 17333034856164266249
445580 8 17900832543662901545
469060 322 16228547968996481392
57527295 17 17896617252711762134
581034 39 17690554183018400762
5895379 119 18340771450807490246
6287921 2 16825869561792529769
84936 182 17753321264473580307

> <PUBCHEM_SHAPE_MULTIPOLES>
582.82
6.62
5.63
2.53
4.75
7.86
-1.54
-2.58
2.32
2.91
-1.06
-2.26
-0.69
-1.46

> <PUBCHEM_SHAPE_SELFOVERLAP>
1248.509

> <PUBCHEM_SHAPE_VOLUME>
321.7

> <PUBCHEM_COORDINATE_TYPE>
2
5
10

$$$$
