75536960
  -OEChem-12032416303D

 35 36  0     1  0  0  0  0  0999 V2000
    3.4049    1.9540   -0.0249 O   0  0  0  0  0  0  0  0  0  0  0  0
    4.9338   -1.2519   -0.6087 O   0  0  0  0  0  0  0  0  0  0  0  0
   -4.7510    0.4811   -0.7922 O   0  0  0  0  0  0  0  0  0  0  0  0
    1.4053   -0.4208    0.2708 N   0  0  2  0  0  0  0  0  0  0  0  0
   -3.2458   -0.0653    0.8875 N   0  0  0  0  0  0  0  0  0  0  0  0
    2.6483   -1.1864    0.1258 C   0  0  0  0  0  0  0  0  0  0  0  0
    3.9639   -0.4012    0.0042 C   0  0  2  0  0  0  0  0  0  0  0  0
    1.5320    0.7871    1.0876 C   0  0  0  0  0  0  0  0  0  0  0  0
    0.3342   -1.2892    0.7610 C   0  0  0  0  0  0  0  0  0  0  0  0
    3.8618    0.8704   -0.8273 C   0  0  0  0  0  0  0  0  0  0  0  0
    2.0056    1.9550    0.2215 C   0  0  0  0  0  0  0  0  0  0  0  0
   -1.0218   -0.8165    0.3089 C   0  0  0  0  0  0  0  0  0  0  0  0
   -1.3225   -0.6888   -1.0427 C   0  0  0  0  0  0  0  0  0  0  0  0
   -2.0094   -0.4950    1.2261 C   0  0  0  0  0  0  0  0  0  0  0  0
   -2.5837   -0.2498   -1.4302 C   0  0  0  0  0  0  0  0  0  0  0  0
   -3.5014    0.0464   -0.4353 C   0  0  0  0  0  0  0  0  0  0  0  0
   -5.6545    0.7710    0.2678 C   0  0  0  0  0  0  0  0  0  0  0  0
    2.5428   -1.8329   -0.7561 H   0  0  0  0  0  0  0  0  0  0  0  0
    2.7729   -1.8746    0.9747 H   0  0  0  0  0  0  0  0  0  0  0  0
    4.3319   -0.1487    1.0064 H   0  0  0  0  0  0  0  0  0  0  0  0
    2.1906    0.6258    1.9495 H   0  0  0  0  0  0  0  0  0  0  0  0
    0.5550    1.0835    1.4880 H   0  0  0  0  0  0  0  0  0  0  0  0
    0.4429   -2.3055    0.3558 H   0  0  0  0  0  0  0  0  0  0  0  0
    0.3801   -1.3991    1.8529 H   0  0  0  0  0  0  0  0  0  0  0  0
    4.8574    1.1499   -1.1911 H   0  0  0  0  0  0  0  0  0  0  0  0
    3.2351    0.7431   -1.7184 H   0  0  0  0  0  0  0  0  0  0  0  0
    1.4581    2.0106   -0.7278 H   0  0  0  0  0  0  0  0  0  0  0  0
    1.7921    2.8875    0.7562 H   0  0  0  0  0  0  0  0  0  0  0  0
    5.0201   -2.0452   -0.0527 H   0  0  0  0  0  0  0  0  0  0  0  0
   -0.5860   -0.9322   -1.8037 H   0  0  0  0  0  0  0  0  0  0  0  0
   -1.8363   -0.5728    2.2949 H   0  0  0  0  0  0  0  0  0  0  0  0
   -2.8341   -0.1458   -2.4803 H   0  0  0  0  0  0  0  0  0  0  0  0
   -6.5981    1.1024   -0.1756 H   0  0  0  0  0  0  0  0  0  0  0  0
   -5.2743    1.5827    0.8971 H   0  0  0  0  0  0  0  0  0  0  0  0
   -5.8587   -0.1235    0.8657 H   0  0  0  0  0  0  0  0  0  0  0  0
  1 10  1  0  0  0  0
  1 11  1  0  0  0  0
  2  7  1  0  0  0  0
  2 29  1  0  0  0  0
  3 16  1  0  0  0  0
  3 17  1  0  0  0  0
  4  6  1  0  0  0  0
  4  8  1  0  0  0  0
  4  9  1  0  0  0  0
  5 14  1  0  0  0  0
  5 16  2  0  0  0  0
  6  7  1  0  0  0  0
  6 18  1  0  0  0  0
  6 19  1  0  0  0  0
  7 10  1  0  0  0  0
  7 20  1  0  0  0  0
  8 11  1  0  0  0  0
  8 21  1  0  0  0  0
  8 22  1  0  0  0  0
  9 12  1  0  0  0  0
  9 23  1  0  0  0  0
  9 24  1  0  0  0  0
 10 25  1  0  0  0  0
 10 26  1  0  0  0  0
 11 27  1  0  0  0  0
 11 28  1  0  0  0  0
 12 13  1  0  0  0  0
 12 14  2  0  0  0  0
 13 15  2  0  0  0  0
 13 30  1  0  0  0  0
 14 31  1  0  0  0  0
 15 16  1  0  0  0  0
 15 32  1  0  0  0  0
 17 33  1  0  0  0  0
 17 34  1  0  0  0  0
 17 35  1  0  0  0  0
M  END
> <PUBCHEM_COMPOUND_CID>
75536960

> <PUBCHEM_CONFORMER_RMSD>
0.6

> <PUBCHEM_CONFORMER_DIVERSEORDER>
1
91
17
110
14
4
95
46
33
79
83
93
86
82
9
42
31
80
103
99
78
96
106
61
45
67
29
98
13
43
55
15
101
85
105
112
49
38
66
84
18
115
39
92
52
77
109
2
30
63
107
68
58
16
104
5
32
59
97
114
65
88
27
70
3
94
89
19
6
76
74
111
69
60
37
35
47
8
71
10
53
36
87
113
73
20
25
62
56
28
21
34
44
11
50
12
75
102
7
22
100
72
57
23
81
64
51
26
54
48
24
108
40
41
90

> <PUBCHEM_MMFF94_PARTIAL_CHARGES>
21
1 -0.56
10 0.28
11 0.28
12 -0.14
13 -0.15
14 0.16
15 -0.15
16 0.39
17 0.28
2 -0.68
29 0.4
3 -0.36
30 0.15
31 0.15
32 0.15
4 -0.81
5 -0.62
6 0.27
7 0.28
8 0.27
9 0.41

> <PUBCHEM_EFFECTIVE_ROTOR_COUNT>
4.4

> <PUBCHEM_PHARMACOPHORE_FEATURES>
6
1 1 acceptor
1 2 acceptor
1 2 donor
1 4 cation
6 5 12 13 14 15 16 rings
7 1 4 6 7 8 10 11 rings

> <PUBCHEM_HEAVY_ATOM_COUNT>
17

> <PUBCHEM_ATOM_DEF_STEREO_COUNT>
1

> <PUBCHEM_ATOM_UDEF_STEREO_COUNT>
0

> <PUBCHEM_BOND_DEF_STEREO_COUNT>
0

> <PUBCHEM_BOND_UDEF_STEREO_COUNT>
0

> <PUBCHEM_ISOTOPIC_ATOM_COUNT>
0

> <PUBCHEM_COMPONENT_COUNT>
1

> <PUBCHEM_CACTVS_TAUTO_COUNT>
1

> <PUBCHEM_CONFORMER_ID>
04809A4000000001

> <PUBCHEM_MMFF94_ENERGY>
53.4258

> <PUBCHEM_FEATURE_SELFOVERLAP>
30.446

> <PUBCHEM_SHAPE_FINGERPRINT>
10447042 23 9007057933443306209
11132069 177 16515683355862684943
11471102 20 18410576193334327578
12236239 1 17775564225895057443
12363563 72 13038912169698701731
12670545 2 17775852306663215156
12730499 353 18186526492523503627
12815109 37 12319732566247736239
13081056 2 18113898256139907117
14115302 16 16702015409182832527
14252887 29 10519990378612054278
14341114 328 13045946802196378101
16752209 62 16056885702186681283
17834072 14 11743847949294332467
17834072 33 18412543245411802799
17834072 8 18412270519272645318
18186145 218 18334283288537160214
19862831 5 17632577179735733603
20374829 77 14261344757059824013
20612939 158 18411706499983396780
20645476 183 17846771928000272063
20645477 56 17530966865322995107
20645477 70 18413394237368146238
21119208 17 17632573851246907415
212847 35 18113900459653269644
21501925 9 11095885981722626970
221357 26 18410006603056024973
22224240 67 8934704575515475070
22289505 5 18337383829775955196
22485316 2 9439404636042649481
22854114 59 17385439921375312895
231179 274 18113613499776494744
23402539 116 14979954727540737731
23402655 69 18343302595536823724
23557571 272 17386021584464729179
23559900 14 15792285969656881435
25 1 18334292084978413666
251288 83 8862951584563164984
3060560 45 18272650130410349046
4047638 21 17967250901696918930
522135 26 18411135827298780674
5283173 99 11959469842198266099
633830 44 18334287699537210071
6442390 28 17167867490781854339
74978 22 17916863659329074626
76465 3 11959469859298727828
81228 2 16025312946321955146
8272917 22 18270402685392814871
9882013 296 11386361543464631884
9971528 1 18131346398130111186
9981440 41 17051868099455483208

> <PUBCHEM_SHAPE_MULTIPOLES>
322.28
10.37
1.52
1.16
4.61
0.52
0.07
2
1.76
-1.63
-0.1
0.54
-0.08
0.09

> <PUBCHEM_SHAPE_SELFOVERLAP>
661.041

> <PUBCHEM_SHAPE_VOLUME>
183.8

> <PUBCHEM_COORDINATE_TYPE>
2
5
10

$$$$
