38027263
  -OEChem-12032416253D

 69 71  0     1  0  0  0  0  0999 V2000
    2.6556    0.4259   -0.3379 S   0  0  0  0  0  0  0  0  0  0  0  0
   -4.8866   -0.7951    0.2558 O   0  0  0  0  0  0  0  0  0  0  0  0
    2.5663    0.6917    1.0846 O   0  0  0  0  0  0  0  0  0  0  0  0
    2.5611    1.5055   -1.3017 O   0  0  0  0  0  0  0  0  0  0  0  0
    1.5348   -0.7891   -0.7698 N   0  0  0  0  0  0  0  0  0  0  0  0
   -4.3247    1.3105   -0.5514 N   0  0  0  0  0  0  0  0  0  0  0  0
   -0.6738   -1.9363    0.8993 C   0  0  1  0  0  0  0  0  0  0  0  0
    0.2389   -2.7401   -0.0604 C   0  0  1  0  0  0  0  0  0  0  0  0
   -2.1490   -2.2921    0.6598 C   0  0  0  0  0  0  0  0  0  0  0  0
   -2.5900   -2.0052   -0.7878 C   0  0  2  0  0  0  0  0  0  0  0  0
   -0.3125   -2.1827    2.3674 C   0  0  0  0  0  0  0  0  0  0  0  0
   -1.5929   -2.5387   -1.7964 C   0  0  0  0  0  0  0  0  0  0  0  0
   -0.3375   -2.8745   -1.4504 C   0  0  0  0  0  0  0  0  0  0  0  0
    1.6370   -2.1173   -0.1453 C   0  0  0  0  0  0  0  0  0  0  0  0
   -2.8402   -0.5083   -1.0027 C   0  0  0  0  0  0  0  0  0  0  0  0
   -0.7576   -1.0058    3.2296 C   0  0  0  0  0  0  0  0  0  0  0  0
   -0.9417   -3.4821    2.8593 C   0  0  0  0  0  0  0  0  0  0  0  0
   -5.4734    2.0203   -0.0451 C   0  0  0  0  0  0  0  0  0  0  0  0
   -2.0862   -2.7209   -3.2049 C   0  0  0  0  0  0  0  0  0  0  0  0
   -4.1274   -0.0486   -0.3561 C   0  0  0  0  0  0  0  0  0  0  0  0
   -5.8019    3.2391   -0.8979 C   0  0  0  0  0  0  0  0  0  0  0  0
   -5.2063    2.6296    1.3260 C   0  0  0  0  0  0  0  0  0  0  0  0
   -4.8475    4.3223   -0.4028 C   0  0  0  0  0  0  0  0  0  0  0  0
   -4.4989    3.9530    1.0393 C   0  0  0  0  0  0  0  0  0  0  0  0
    4.1882   -0.4233   -0.6405 C   0  0  0  0  0  0  0  0  0  0  0  0
    5.3046    0.5173   -0.3061 C   0  0  0  0  0  0  0  0  0  0  0  0
    5.6009    0.8030    1.0267 C   0  0  0  0  0  0  0  0  0  0  0  0
    6.0480    1.1081   -1.3278 C   0  0  0  0  0  0  0  0  0  0  0  0
    6.6407    1.6793    1.3378 C   0  0  0  0  0  0  0  0  0  0  0  0
    7.0878    1.9842   -1.0168 C   0  0  0  0  0  0  0  0  0  0  0  0
    7.3840    2.2700    0.3161 C   0  0  0  0  0  0  0  0  0  0  0  0
   -0.5433   -0.8671    0.6932 H   0  0  0  0  0  0  0  0  0  0  0  0
    0.3605   -3.7621    0.3201 H   0  0  0  0  0  0  0  0  0  0  0  0
   -2.8000   -1.7681    1.3665 H   0  0  0  0  0  0  0  0  0  0  0  0
   -2.3184   -3.3658    0.8131 H   0  0  0  0  0  0  0  0  0  0  0  0
   -3.5315   -2.5507   -0.9435 H   0  0  0  0  0  0  0  0  0  0  0  0
    0.7724   -2.2669    2.4865 H   0  0  0  0  0  0  0  0  0  0  0  0
    0.3211   -3.2970   -2.2068 H   0  0  0  0  0  0  0  0  0  0  0  0
    2.2921   -2.7429   -0.7635 H   0  0  0  0  0  0  0  0  0  0  0  0
    2.0931   -2.0449    0.8451 H   0  0  0  0  0  0  0  0  0  0  0  0
   -2.9355   -0.2800   -2.0713 H   0  0  0  0  0  0  0  0  0  0  0  0
   -2.0139    0.1019   -0.6219 H   0  0  0  0  0  0  0  0  0  0  0  0
   -1.8419   -0.8597    3.2076 H   0  0  0  0  0  0  0  0  0  0  0  0
   -0.2831   -0.0759    2.8977 H   0  0  0  0  0  0  0  0  0  0  0  0
   -0.4687   -1.1664    4.2742 H   0  0  0  0  0  0  0  0  0  0  0  0
   -2.0240   -3.4071    3.0080 H   0  0  0  0  0  0  0  0  0  0  0  0
   -0.5237   -3.7345    3.8417 H   0  0  0  0  0  0  0  0  0  0  0  0
   -0.7248   -4.3315    2.2047 H   0  0  0  0  0  0  0  0  0  0  0  0
   -6.3198    1.3263   -0.0058 H   0  0  0  0  0  0  0  0  0  0  0  0
   -2.9825   -3.3496   -3.2153 H   0  0  0  0  0  0  0  0  0  0  0  0
   -1.3391   -3.2065   -3.8421 H   0  0  0  0  0  0  0  0  0  0  0  0
   -2.3303   -1.7585   -3.6633 H   0  0  0  0  0  0  0  0  0  0  0  0
   -6.8350    3.5556   -0.7082 H   0  0  0  0  0  0  0  0  0  0  0  0
   -5.6959    3.0602   -1.9726 H   0  0  0  0  0  0  0  0  0  0  0  0
   -4.6144    1.9844    1.9832 H   0  0  0  0  0  0  0  0  0  0  0  0
   -6.1594    2.8359    1.8287 H   0  0  0  0  0  0  0  0  0  0  0  0
   -5.3008    5.3163   -0.4710 H   0  0  0  0  0  0  0  0  0  0  0  0
   -3.9366    4.3362   -1.0127 H   0  0  0  0  0  0  0  0  0  0  0  0
   -3.4137    3.8381    1.1422 H   0  0  0  0  0  0  0  0  0  0  0  0
   -4.8136    4.7294    1.7442 H   0  0  0  0  0  0  0  0  0  0  0  0
    1.2738   -0.8173   -1.7643 H   0  0  0  0  0  0  0  0  0  0  0  0
   -3.6062    1.8449   -1.0321 H   0  0  0  0  0  0  0  0  0  0  0  0
    4.2488   -1.3118   -0.0064 H   0  0  0  0  0  0  0  0  0  0  0  0
    4.2098   -0.7286   -1.6911 H   0  0  0  0  0  0  0  0  0  0  0  0
    5.0482    0.3362    1.8372 H   0  0  0  0  0  0  0  0  0  0  0  0
    5.8270    0.8960   -2.3705 H   0  0  0  0  0  0  0  0  0  0  0  0
    6.8748    1.8978    2.3756 H   0  0  0  0  0  0  0  0  0  0  0  0
    7.6667    2.4443   -1.8123 H   0  0  0  0  0  0  0  0  0  0  0  0
    8.1943    2.9515    0.5582 H   0  0  0  0  0  0  0  0  0  0  0  0
  1  3  2  0  0  0  0
  1  4  2  0  0  0  0
  1  5  1  0  0  0  0
  1 25  1  0  0  0  0
  2 20  2  0  0  0  0
  5 14  1  0  0  0  0
  5 61  1  0  0  0  0
  6 18  1  0  0  0  0
  6 20  1  0  0  0  0
  6 62  1  0  0  0  0
  7  8  1  0  0  0  0
  7  9  1  0  0  0  0
  7 11  1  0  0  0  0
  7 32  1  0  0  0  0
  8 13  1  0  0  0  0
  8 14  1  0  0  0  0
  8 33  1  0  0  0  0
  9 10  1  0  0  0  0
  9 34  1  0  0  0  0
  9 35  1  0  0  0  0
 10 12  1  0  0  0  0
 10 15  1  0  0  0  0
 10 36  1  0  0  0  0
 11 16  1  0  0  0  0
 11 17  1  0  0  0  0
 11 37  1  0  0  0  0
 12 13  2  0  0  0  0
 12 19  1  0  0  0  0
 13 38  1  0  0  0  0
 14 39  1  0  0  0  0
 14 40  1  0  0  0  0
 15 20  1  0  0  0  0
 15 41  1  0  0  0  0
 15 42  1  0  0  0  0
 16 43  1  0  0  0  0
 16 44  1  0  0  0  0
 16 45  1  0  0  0  0
 17 46  1  0  0  0  0
 17 47  1  0  0  0  0
 17 48  1  0  0  0  0
 18 21  1  0  0  0  0
 18 22  1  0  0  0  0
 18 49  1  0  0  0  0
 19 50  1  0  0  0  0
 19 51  1  0  0  0  0
 19 52  1  0  0  0  0
 21 23  1  0  0  0  0
 21 53  1  0  0  0  0
 21 54  1  0  0  0  0
 22 24  1  0  0  0  0
 22 55  1  0  0  0  0
 22 56  1  0  0  0  0
 23 24  1  0  0  0  0
 23 57  1  0  0  0  0
 23 58  1  0  0  0  0
 24 59  1  0  0  0  0
 24 60  1  0  0  0  0
 25 26  1  0  0  0  0
 25 63  1  0  0  0  0
 25 64  1  0  0  0  0
 26 27  2  0  0  0  0
 26 28  1  0  0  0  0
 27 29  1  0  0  0  0
 27 65  1  0  0  0  0
 28 30  2  0  0  0  0
 28 66  1  0  0  0  0
 29 31  2  0  0  0  0
 29 67  1  0  0  0  0
 30 31  1  0  0  0  0
 30 68  1  0  0  0  0
 31 69  1  0  0  0  0
M  END
> <PUBCHEM_COMPOUND_CID>
38027263

> <PUBCHEM_CONFORMER_RMSD>
1.2

> <PUBCHEM_CONFORMER_DIVERSEORDER>
1
8
84
72
52
110
144
171
134
58
38
113
104
142
119
30
105
112
145
87
55
32
10
76
77
102
124
158
85
97
64
131
65
122
63
151
18
170
92
95
168
26
154
147
160
118
149
129
27
70
161
17
96
176
153
13
14
23
36
177
7
35
34
59
126
174
103
57
114
121
75
136
172
167
19
53
125
68
93
62
111
137
33
143
71
141
60
40
98
16
21
166
132
45
165
139
15
159
73
43
79
138
150
109
29
146
163
82
173
140
6
108
175
148
117
130
91
47
88
51
107
61
164
133
25
86
135
155
46
49
127
67
11
69
80
94
3
120
157
101
12
24
81
152
89
50
169
39
115
44
54
31
78
123
106
116
41
20
37
9
162
90
83
2
66
156
42
74
128
56
4
28
100
48
22
99
5

> <PUBCHEM_MMFF94_PARTIAL_CHARGES>
30
1 1.33
10 0.14
12 -0.28
13 -0.29
14 0.36
15 0.06
18 0.3
19 0.14
2 -0.57
20 0.57
25 0.25
26 -0.14
27 -0.15
28 -0.15
29 -0.15
3 -0.65
30 -0.15
31 -0.15
38 0.15
4 -0.65
5 -0.91
6 -0.73
61 0.42
62 0.37
65 0.15
66 0.15
67 0.15
68 0.15
69 0.15
8 0.14

> <PUBCHEM_EFFECTIVE_ROTOR_COUNT>
11.8

> <PUBCHEM_PHARMACOPHORE_FEATURES>
9
1 2 acceptor
1 3 acceptor
1 4 acceptor
1 5 donor
1 6 donor
3 11 16 17 hydrophobe
5 18 21 22 23 24 rings
6 26 27 28 29 30 31 rings
6 7 8 9 10 12 13 rings

> <PUBCHEM_HEAVY_ATOM_COUNT>
31

> <PUBCHEM_ATOM_DEF_STEREO_COUNT>
3

> <PUBCHEM_ATOM_UDEF_STEREO_COUNT>
0

> <PUBCHEM_BOND_DEF_STEREO_COUNT>
0

> <PUBCHEM_BOND_UDEF_STEREO_COUNT>
0

> <PUBCHEM_ISOTOPIC_ATOM_COUNT>
0

> <PUBCHEM_COMPONENT_COUNT>
1

> <PUBCHEM_CACTVS_TAUTO_COUNT>
2

> <PUBCHEM_CONFORMER_ID>
02443FFF00000001

> <PUBCHEM_MMFF94_ENERGY>
58.0117

> <PUBCHEM_FEATURE_SELFOVERLAP>
45.689

> <PUBCHEM_SHAPE_FINGERPRINT>
10042902 136 9799683814086185219
10165383 225 17489315222149335391
10369192 42 17703803513756938383
11135609 201 18201163153380068297
11315621 246 10159714498924320504
11387372 6 11242510208009456089
1200032 147 18270970025108332961
12633257 1 16732984279645581382
12895836 83 18131347505952404079
12895837 130 18341895254981490652
12988421 55 17676478445629165111
13726171 33 18200883855809716161
14251764 30 9439399125420715648
14251764 75 18198065781347778337
14705955 166 17823996704008285979
15064981 113 16916795037724825740
15198563 99 17843663690617829711
15444296 121 18041570251409714996
15513586 35 17462295947318660588
15803439 3 16702294629475755021
16112460 7 18334573517148304820
17980427 26 18115577133240051855
19438510 23 18409451349572858107
21033650 10 18268700774515801282
21424621 283 18333732403368341848
21756936 100 18261387896798915051
23191077 185 18269824351198991935
24180151 214 17897138391317104299
2748736 6 18339914931392332356
2838139 119 18343576330892874390
4112364 45 17898003534978821481
44249763 50 17631438120555511284
44802255 64 17988930019305960718
6712543 237 14996289080921113193
7288768 16 18113621170735992931
999808 66 12757418459000005856

> <PUBCHEM_SHAPE_MULTIPOLES>
614.24
17.22
5.29
2.47
22.79
2.2
0.98
25.53
-1.4
-8.15
0.26
-0.94
-2.5
-0.7

> <PUBCHEM_SHAPE_SELFOVERLAP>
1253.844

> <PUBCHEM_SHAPE_VOLUME>
356.8

> <PUBCHEM_COORDINATE_TYPE>
2
5
10

$$$$
