44716626
  -OEChem-12032416413D

 57 60  0     1  0  0  0  0  0999 V2000
    4.9286    1.0301    1.3429 S   0  0  0  0  0  0  0  0  0  0  0  0
   -0.8539   -1.7727   -0.8628 O   0  0  0  0  0  0  0  0  0  0  0  0
   -4.8593    1.4658   -0.1357 O   0  0  0  0  0  0  0  0  0  0  0  0
    4.5025   -0.9437   -0.2721 N   0  0  0  0  0  0  0  0  0  0  0  0
   -4.7345   -0.7982    0.3453 N   0  0  0  0  0  0  0  0  0  0  0  0
    6.7551   -0.6519    0.3869 N   0  0  0  0  0  0  0  0  0  0  0  0
    0.9937    1.4072    0.2069 C   0  0  1  0  0  0  0  0  0  0  0  0
    0.7469   -0.1333   -0.0399 C   0  0  1  0  0  0  0  0  0  0  0  0
   -0.5629   -0.3758   -0.8422 C   0  0  2  0  0  0  0  0  0  0  0  0
   -1.7844    0.3368   -0.2217 C   0  0  1  0  0  0  0  0  0  0  0  0
   -0.2636    2.0399    0.8484 C   0  0  0  0  0  0  0  0  0  0  0  0
    2.0140   -0.8419   -0.6721 C   0  0  1  0  0  0  0  0  0  0  0  0
   -1.5280    1.8230    0.0283 C   0  0  0  0  0  0  0  0  0  0  0  0
    2.1754    1.5990    1.2081 C   0  0  0  0  0  0  0  0  0  0  0  0
    1.3221    2.1620   -1.1077 C   0  0  0  0  0  0  0  0  0  0  0  0
   -3.0405    0.1713   -1.0857 C   0  0  1  0  0  0  0  0  0  0  0  0
    3.2811   -0.3452   -0.0181 C   0  0  0  0  0  0  0  0  0  0  0  0
    3.3345    0.7544    0.8133 C   0  0  0  0  0  0  0  0  0  0  0  0
    1.9523   -2.3746   -0.5963 C   0  0  0  0  0  0  0  0  0  0  0  0
   -4.3025    0.3762   -0.2550 C   0  0  0  0  0  0  0  0  0  0  0  0
   -3.0071    1.1521   -2.2532 C   0  0  0  0  0  0  0  0  0  0  0  0
   -5.8992   -0.8535    1.1817 C   0  0  0  0  0  0  0  0  0  0  0  0
   -7.2706   -1.0158    0.5945 C   0  0  0  0  0  0  0  0  0  0  0  0
   -6.6528   -2.1359    1.3789 C   0  0  0  0  0  0  0  0  0  0  0  0
    5.4390   -0.3111    0.4006 C   0  0  0  0  0  0  0  0  0  0  0  0
    7.3141   -1.7640   -0.3733 C   0  0  0  0  0  0  0  0  0  0  0  0
    0.6027   -0.5948    0.9504 H   0  0  0  0  0  0  0  0  0  0  0  0
   -0.4138   -0.0685   -1.8814 H   0  0  0  0  0  0  0  0  0  0  0  0
   -1.9784   -0.1383    0.7512 H   0  0  0  0  0  0  0  0  0  0  0  0
   -0.4225    1.6122    1.8475 H   0  0  0  0  0  0  0  0  0  0  0  0
   -0.1118    3.1166    0.9981 H   0  0  0  0  0  0  0  0  0  0  0  0
    2.0735   -0.5646   -1.7330 H   0  0  0  0  0  0  0  0  0  0  0  0
   -2.3700    2.2692    0.5704 H   0  0  0  0  0  0  0  0  0  0  0  0
   -1.4107    2.3968   -0.8943 H   0  0  0  0  0  0  0  0  0  0  0  0
    2.4606    2.6572    1.2593 H   0  0  0  0  0  0  0  0  0  0  0  0
    1.8649    1.2992    2.2177 H   0  0  0  0  0  0  0  0  0  0  0  0
    0.5571    2.0154   -1.8753 H   0  0  0  0  0  0  0  0  0  0  0  0
    2.2736    1.8460   -1.5459 H   0  0  0  0  0  0  0  0  0  0  0  0
    1.3994    3.2402   -0.9252 H   0  0  0  0  0  0  0  0  0  0  0  0
   -3.0822   -0.8426   -1.5035 H   0  0  0  0  0  0  0  0  0  0  0  0
    1.7246   -2.7136    0.4201 H   0  0  0  0  0  0  0  0  0  0  0  0
    2.9045   -2.8321   -0.8885 H   0  0  0  0  0  0  0  0  0  0  0  0
    1.2050   -2.7846   -1.2794 H   0  0  0  0  0  0  0  0  0  0  0  0
   -0.9678   -2.0704    0.0560 H   0  0  0  0  0  0  0  0  0  0  0  0
   -3.7938    0.8795   -2.9684 H   0  0  0  0  0  0  0  0  0  0  0  0
   -3.2266    2.1863   -1.9678 H   0  0  0  0  0  0  0  0  0  0  0  0
   -2.0630    1.1240   -2.8047 H   0  0  0  0  0  0  0  0  0  0  0  0
   -5.8096   -0.2136    2.0543 H   0  0  0  0  0  0  0  0  0  0  0  0
   -7.3623   -1.1431   -0.4772 H   0  0  0  0  0  0  0  0  0  0  0  0
   -8.0835   -0.4661    1.0527 H   0  0  0  0  0  0  0  0  0  0  0  0
   -7.0513   -2.3412    2.3649 H   0  0  0  0  0  0  0  0  0  0  0  0
   -6.3316   -3.0144    0.8328 H   0  0  0  0  0  0  0  0  0  0  0  0
   -4.2081   -1.6578    0.2140 H   0  0  0  0  0  0  0  0  0  0  0  0
    7.4170   -0.1094    0.9354 H   0  0  0  0  0  0  0  0  0  0  0  0
    7.1364   -1.6252   -1.4441 H   0  0  0  0  0  0  0  0  0  0  0  0
    8.3941   -1.8177   -0.2071 H   0  0  0  0  0  0  0  0  0  0  0  0
    6.8685   -2.7108   -0.0532 H   0  0  0  0  0  0  0  0  0  0  0  0
  1 18  1  0  0  0  0
  1 25  1  0  0  0  0
  2  9  1  0  0  0  0
  2 44  1  0  0  0  0
  3 20  2  0  0  0  0
  4 17  1  0  0  0  0
  4 25  2  0  0  0  0
  5 20  1  0  0  0  0
  5 22  1  0  0  0  0
  5 53  1  0  0  0  0
  6 25  1  0  0  0  0
  6 26  1  0  0  0  0
  6 54  1  0  0  0  0
  7  8  1  0  0  0  0
  7 11  1  0  0  0  0
  7 14  1  0  0  0  0
  7 15  1  0  0  0  0
  8  9  1  0  0  0  0
  8 12  1  0  0  0  0
  8 27  1  0  0  0  0
  9 10  1  0  0  0  0
  9 28  1  0  0  0  0
 10 13  1  0  0  0  0
 10 16  1  0  0  0  0
 10 29  1  0  0  0  0
 11 13  1  0  0  0  0
 11 30  1  0  0  0  0
 11 31  1  0  0  0  0
 12 17  1  0  0  0  0
 12 19  1  0  0  0  0
 12 32  1  0  0  0  0
 13 33  1  0  0  0  0
 13 34  1  0  0  0  0
 14 18  1  0  0  0  0
 14 35  1  0  0  0  0
 14 36  1  0  0  0  0
 15 37  1  0  0  0  0
 15 38  1  0  0  0  0
 15 39  1  0  0  0  0
 16 20  1  0  0  0  0
 16 21  1  0  0  0  0
 16 40  1  0  0  0  0
 17 18  2  0  0  0  0
 19 41  1  0  0  0  0
 19 42  1  0  0  0  0
 19 43  1  0  0  0  0
 21 45  1  0  0  0  0
 21 46  1  0  0  0  0
 21 47  1  0  0  0  0
 22 23  1  0  0  0  0
 22 24  1  0  0  0  0
 22 48  1  0  0  0  0
 23 24  1  0  0  0  0
 23 49  1  0  0  0  0
 23 50  1  0  0  0  0
 24 51  1  0  0  0  0
 24 52  1  0  0  0  0
 26 55  1  0  0  0  0
 26 56  1  0  0  0  0
 26 57  1  0  0  0  0
M  END
> <PUBCHEM_COMPOUND_CID>
44716626

> <PUBCHEM_CONFORMER_RMSD>
0.8

> <PUBCHEM_CONFORMER_DIVERSEORDER>
3
29
25
28
6
32
23
5
22
7
30
26
19
17
14
21
27
13
20
9
24
1
31
11
12
15
4
10
16
8
18
2

> <PUBCHEM_MMFF94_PARTIAL_CHARGES>
26
1 -0.08
12 0.18
14 0.18
16 0.06
17 0.05
18 -0.14
2 -0.68
20 0.57
22 0.05
23 -0.2
24 -0.2
25 0.46
26 0.37
3 -0.57
4 -0.57
44 0.4
48 0.1
49 0.1
5 -0.58
50 0.1
51 0.1
52 0.1
53 0.37
54 0.4
6 -0.85
9 0.28

> <PUBCHEM_EFFECTIVE_ROTOR_COUNT>
6.8

> <PUBCHEM_PHARMACOPHORE_FEATURES>
10
1 2 acceptor
1 2 donor
1 21 hydrophobe
1 3 acceptor
1 5 donor
1 6 donor
3 4 6 25 cation
5 1 4 17 18 25 rings
6 7 8 12 14 17 18 rings
6 7 8 9 10 11 13 rings

> <PUBCHEM_HEAVY_ATOM_COUNT>
26

> <PUBCHEM_ATOM_DEF_STEREO_COUNT>
5

> <PUBCHEM_ATOM_UDEF_STEREO_COUNT>
1

> <PUBCHEM_BOND_DEF_STEREO_COUNT>
0

> <PUBCHEM_BOND_UDEF_STEREO_COUNT>
0

> <PUBCHEM_ISOTOPIC_ATOM_COUNT>
0

> <PUBCHEM_COMPONENT_COUNT>
1

> <PUBCHEM_CACTVS_TAUTO_COUNT>
4

> <PUBCHEM_CONFORMER_ID>
02AA525200000003

> <PUBCHEM_MMFF94_ENERGY>
71.6625

> <PUBCHEM_FEATURE_SELFOVERLAP>
50.826

> <PUBCHEM_SHAPE_FINGERPRINT>
10 15 18337945796709419184
10076449 9 18341902887823878654
10693767 8 12757411882899349801
11578080 2 15359134605525242276
11646440 116 17917712409227827778
11963148 33 18187357731757071626
12011746 2 18271513209706790308
12035758 1 18271792554400555016
12166972 35 17967537870026784372
12236239 1 14634863133307320517
12616971 3 17417805171061998636
12633257 1 15482667996648552569
13140716 1 18128529560439270794
13402501 40 18408044030867167291
13673619 4 18186522124758001965
13685833 64 18411138043428007168
13782708 43 18040149621718970451
14251764 18 17203324559102755809
14341114 176 18272649065273984848
14849402 71 17773875487741413072
14955137 171 18411702127163539432
15196674 1 18130494327942050828
15238133 3 14189576364043463992
15510800 12 17895769512283123499
18335252 98 18334577954402870426
18608769 82 18409168835356980002
18681886 176 12973893649465851101
18785283 64 18263364870319383317
20105231 36 18059582373792538014
21033648 29 18199164274683235593
21033650 10 16228022367651579732
21150785 3 15502377837592617946
21267235 1 18272092674025534302
21304304 249 18261114132090477371
21424621 283 12319197113445486419
21521721 280 18059573637701768640
21623969 137 18343023298140297611
21637258 2 16950274144234953419
21781051 124 18338250331460922494
21792961 116 18335975359934139406
23402539 116 17489574658873059244
23559900 14 18058995281853981504
23569914 152 10669662485691160553
23569943 247 17416684640329111310
25222932 49 18113610205421099706
2838139 119 11023825050959496571
29717793 49 14056992811144187787
3178227 256 18202002136180616602
335352 9 18130780149478490884
4093350 32 15841554128742749736
465052 167 18260269684835572265
5104073 3 18199746955594426753
59755656 215 18201718393714556862
6009941 240 18339361856270448625
636775 8 18335992987108143678
7495541 125 17895197735469800925
8863177 126 18263364844754963803
999808 66 18409171013026471683

> <PUBCHEM_SHAPE_MULTIPOLES>
512.24
17.02
2.27
1.36
5.86
0.1
-0.22
10.54
5.7
-0.07
0
0.91
-0.26
2.3

> <PUBCHEM_SHAPE_SELFOVERLAP>
1063.111

> <PUBCHEM_SHAPE_VOLUME>
298

> <PUBCHEM_COORDINATE_TYPE>
2
5
10

$$$$
