11943404
  -OEChem-12032416153D

 46 49  0     1  0  0  0  0  0999 V2000
    0.5683    1.8845    1.5154 O   0  0  0  0  0  0  0  0  0  0  0  0
   -3.8438    1.3750    0.5216 N   0  0  2  0  0  0  0  0  0  0  0  0
   -0.4366   -0.1590    1.0947 N   0  0  0  0  0  0  0  0  0  0  0  0
   -4.0034   -0.1973   -1.5460 C   0  0  1  0  0  0  0  0  0  0  0  0
   -2.5048    0.8058    0.2114 C   0  0  2  0  0  0  0  0  0  0  0  0
   -2.6020   -0.2580   -0.9043 C   0  0  0  0  0  0  0  0  0  0  0  0
   -5.0606   -0.5715   -0.4842 C   0  0  2  0  0  0  0  0  0  0  0  0
   -4.2644    1.2686   -1.9396 C   0  0  0  0  0  0  0  0  0  0  0  0
   -4.8187    0.2851    0.7774 C   0  0  0  0  0  0  0  0  0  0  0  0
   -4.3020    2.1351   -0.6676 C   0  0  0  0  0  0  0  0  0  0  0  0
   -1.7999    0.2626    1.4561 C   0  0  0  0  0  0  0  0  0  0  0  0
   -5.0434   -2.0099   -0.1715 C   0  0  0  0  0  0  0  0  0  0  0  0
    0.6230    0.7093    1.1629 C   0  0  0  0  0  0  0  0  0  0  0  0
   -5.0296   -3.1830    0.0831 C   0  0  0  0  0  0  0  0  0  0  0  0
    1.9276    0.1387    0.7394 C   0  0  0  0  0  0  0  0  0  0  0  0
    2.8928    0.9856    0.2353 C   0  0  0  0  0  0  0  0  0  0  0  0
    2.1311   -1.2167    0.8644 C   0  0  0  0  0  0  0  0  0  0  0  0
    4.1315    0.4616   -0.1691 C   0  0  0  0  0  0  0  0  0  0  0  0
    4.3666   -0.9290   -0.0510 C   0  0  0  0  0  0  0  0  0  0  0  0
    3.3558   -1.7545    0.4679 C   0  0  0  0  0  0  0  0  0  0  0  0
    5.1423    1.2874   -0.6876 C   0  0  0  0  0  0  0  0  0  0  0  0
    5.6053   -1.4529   -0.4554 C   0  0  0  0  0  0  0  0  0  0  0  0
    6.3670    0.7498   -1.0846 C   0  0  0  0  0  0  0  0  0  0  0  0
    6.5980   -0.6176   -0.9688 C   0  0  0  0  0  0  0  0  0  0  0  0
   -4.0556   -0.8516   -2.4232 H   0  0  0  0  0  0  0  0  0  0  0  0
   -1.8783    1.6286   -0.1640 H   0  0  0  0  0  0  0  0  0  0  0  0
   -2.4118   -1.2689   -0.5261 H   0  0  0  0  0  0  0  0  0  0  0  0
   -1.8402   -0.0559   -1.6677 H   0  0  0  0  0  0  0  0  0  0  0  0
   -6.0546   -0.3304   -0.8861 H   0  0  0  0  0  0  0  0  0  0  0  0
   -5.2155    1.3563   -2.4777 H   0  0  0  0  0  0  0  0  0  0  0  0
   -3.4747    1.6216   -2.6138 H   0  0  0  0  0  0  0  0  0  0  0  0
   -5.7704    0.7318    1.0954 H   0  0  0  0  0  0  0  0  0  0  0  0
   -4.4968   -0.3172    1.6352 H   0  0  0  0  0  0  0  0  0  0  0  0
   -3.6776    3.0265   -0.8052 H   0  0  0  0  0  0  0  0  0  0  0  0
   -5.3181    2.5132   -0.4971 H   0  0  0  0  0  0  0  0  0  0  0  0
   -2.2982   -0.6199    1.8687 H   0  0  0  0  0  0  0  0  0  0  0  0
   -1.7408    1.0276    2.2383 H   0  0  0  0  0  0  0  0  0  0  0  0
   -0.3384   -1.0964    0.7214 H   0  0  0  0  0  0  0  0  0  0  0  0
   -5.0167   -4.2236    0.3091 H   0  0  0  0  0  0  0  0  0  0  0  0
    2.7048    2.0530    0.1416 H   0  0  0  0  0  0  0  0  0  0  0  0
    1.4033   -1.8969    1.2943 H   0  0  0  0  0  0  0  0  0  0  0  0
    3.5184   -2.8250    0.5754 H   0  0  0  0  0  0  0  0  0  0  0  0
    4.9839    2.3593   -0.7872 H   0  0  0  0  0  0  0  0  0  0  0  0
    5.8080   -2.5187   -0.3738 H   0  0  0  0  0  0  0  0  0  0  0  0
    7.1403    1.3994   -1.4842 H   0  0  0  0  0  0  0  0  0  0  0  0
    7.5516   -1.0355   -1.2780 H   0  0  0  0  0  0  0  0  0  0  0  0
  1 13  2  0  0  0  0
  2  5  1  0  0  0  0
  2  9  1  0  0  0  0
  2 10  1  0  0  0  0
  3 11  1  0  0  0  0
  3 13  1  0  0  0  0
  3 38  1  0  0  0  0
  4  6  1  0  0  0  0
  4  7  1  0  0  0  0
  4  8  1  0  0  0  0
  4 25  1  0  0  0  0
  5  6  1  0  0  0  0
  5 11  1  0  0  0  0
  5 26  1  0  0  0  0
  6 27  1  0  0  0  0
  6 28  1  0  0  0  0
  7  9  1  0  0  0  0
  7 12  1  0  0  0  0
  7 29  1  0  0  0  0
  8 10  1  0  0  0  0
  8 30  1  0  0  0  0
  8 31  1  0  0  0  0
  9 32  1  0  0  0  0
  9 33  1  0  0  0  0
 10 34  1  0  0  0  0
 10 35  1  0  0  0  0
 11 36  1  0  0  0  0
 11 37  1  0  0  0  0
 12 14  3  0  0  0  0
 13 15  1  0  0  0  0
 14 39  1  0  0  0  0
 15 16  2  0  0  0  0
 15 17  1  0  0  0  0
 16 18  1  0  0  0  0
 16 40  1  0  0  0  0
 17 20  2  0  0  0  0
 17 41  1  0  0  0  0
 18 19  1  0  0  0  0
 18 21  2  0  0  0  0
 19 20  1  0  0  0  0
 19 22  2  0  0  0  0
 20 42  1  0  0  0  0
 21 23  1  0  0  0  0
 21 43  1  0  0  0  0
 22 24  1  0  0  0  0
 22 44  1  0  0  0  0
 23 24  2  0  0  0  0
 23 45  1  0  0  0  0
 24 46  1  0  0  0  0
M  END
> <PUBCHEM_COMPOUND_CID>
11943404

> <PUBCHEM_CONFORMER_RMSD>
0.8

> <PUBCHEM_CONFORMER_DIVERSEORDER>
1
17
12
6
15
18
16
8
11
2
3
7
10
14
5
4
9
13

> <PUBCHEM_MMFF94_PARTIAL_CHARGES>
28
1 -0.57
10 0.27
11 0.3
12 -0.2
13 0.54
14 -0.18
15 0.09
16 -0.15
17 -0.15
2 -0.81
20 -0.15
21 -0.15
22 -0.15
23 -0.15
24 -0.15
3 -0.73
38 0.37
39 0.18
40 0.15
41 0.15
42 0.15
43 0.15
44 0.15
45 0.15
46 0.15
5 0.27
7 0.2
9 0.27

> <PUBCHEM_EFFECTIVE_ROTOR_COUNT>
5.2

> <PUBCHEM_PHARMACOPHORE_FEATURES>
7
1 1 acceptor
1 14 hydrophobe
1 2 cation
1 3 donor
6 15 16 17 18 19 20 rings
6 18 19 21 22 23 24 rings
8 2 4 5 6 7 8 9 10 rings

> <PUBCHEM_HEAVY_ATOM_COUNT>
24

> <PUBCHEM_ATOM_DEF_STEREO_COUNT>
3

> <PUBCHEM_ATOM_UDEF_STEREO_COUNT>
0

> <PUBCHEM_BOND_DEF_STEREO_COUNT>
0

> <PUBCHEM_BOND_UDEF_STEREO_COUNT>
0

> <PUBCHEM_ISOTOPIC_ATOM_COUNT>
0

> <PUBCHEM_COMPONENT_COUNT>
1

> <PUBCHEM_CACTVS_TAUTO_COUNT>
2

> <PUBCHEM_CONFORMER_ID>
00B63DEC00000001

> <PUBCHEM_MMFF94_ENERGY>
66.2147

> <PUBCHEM_FEATURE_SELFOVERLAP>
35.547

> <PUBCHEM_SHAPE_FINGERPRINT>
10 15 8358252653190058342
10554248 39 16732986410714315866
10595046 47 18333731321015509870
10670039 82 14346073054493298030
10693767 8 18196662796654427806
11089746 13 16877939456303383776
11315621 246 18261393412032990119
11524674 6 16630529557598306919
11545043 162 14549013260646208867
117089 54 17831305269964167107
12166972 35 18335989748185746900
12236239 1 18201443554177137112
12616971 3 15769775796707381273
12788726 201 17773599308506324896
13103583 49 12967132722048333999
13673619 4 18270684294119958923
13690498 29 18339356466012405199
14251757 5 18268429212223993023
14466204 15 7997975669289794159
14528608 73 18259705601554103652
15142383 8 10159710062444831442
15183329 4 18408885109943409182
15348495 7 11887662988102710110
15461852 350 13045949035716542171
15537594 2 16487258759406736934
15788980 27 15913322498796345169
15799311 1 18271261459729593739
16989378 47 17558565604008797118
16994733 274 13624347064144193351
17093844 174 15554446263071916715
17349148 13 16486974011548927376
17780758 139 12391510897618063679
17844677 252 18408044009049322365
18222031 100 16558742395906957312
18927931 339 16630808794580271545
19489759 90 9223231836965352231
200 152 18271810086394026352
20281389 69 13118005517684734228
21403212 168 14117253763052100883
22393880 68 18409160013277447626
22950370 63 18201721742876197000
23198884 109 17749391459718335803
23522609 53 17630355092464423537
23559900 14 18272359910611049161
2767999 5 13984660364990231574
2838139 119 16732984228353491084
2916195 48 16153713124176646940
3004659 81 18341892957727725362
314173 85 14908180841472176256
351380 3 17418373601366965206
4098825 35 18260832549164162097
4325135 7 18187367653341553439
439807 62 18410575110939941019
44317340 157 18341897428298557504
46194498 28 18115023150892800252
484985 159 17632580474888753339
497634 4 18408040711105029509
531348 171 18115301160015298155
8217 86 18337391672824379755
8863177 126 17916301830404809315
9981440 41 8862673421491646949
999808 66 18271535294418505243

> <PUBCHEM_SHAPE_MULTIPOLES>
478.08
17.24
2.22
1.42
10.59
1.07
0.09
3.17
6.97
-2.55
0.1
-0.69
-0.42
0.11

> <PUBCHEM_SHAPE_SELFOVERLAP>
1042.485

> <PUBCHEM_SHAPE_VOLUME>
256

> <PUBCHEM_COORDINATE_TYPE>
2
5
10

$$$$
