51137122
  -OEChem-12032416223D

 46 50  0     1  0  0  0  0  0999 V2000
   -0.5555   -0.1476   -0.1140 N   0  0  1  0  0  0  0  0  0  0  0  0
    4.0510   -1.2081    0.6699 N   0  0  0  0  0  0  0  0  0  0  0  0
    3.5657    0.7997   -0.1507 N   0  0  0  0  0  0  0  0  0  0  0  0
   -3.6192   -0.8608   -0.5987 N   0  0  0  0  0  0  0  0  0  0  0  0
   -3.5930    1.3547   -0.4213 N   0  0  0  0  0  0  0  0  0  0  0  0
    1.6166   -0.5976    0.6468 C   0  0  2  0  0  0  0  0  0  0  0  0
    0.7521   -0.5691   -0.6209 C   0  0  0  0  0  0  0  0  0  0  0  0
    0.9262    0.3826    1.6111 C   0  0  0  0  0  0  0  0  0  0  0  0
   -0.2639    0.9287    0.8328 C   0  0  0  0  0  0  0  0  0  0  0  0
   -1.4525    0.2784   -1.1781 C   0  0  0  0  0  0  0  0  0  0  0  0
    3.0729   -0.3000    0.3737 C   0  0  0  0  0  0  0  0  0  0  0  0
   -2.8897    0.2881   -0.7296 C   0  0  0  0  0  0  0  0  0  0  0  0
    5.2551   -0.6579    0.3126 C   0  0  0  0  0  0  0  0  0  0  0  0
    4.9256    0.5950   -0.1967 C   0  0  0  0  0  0  0  0  0  0  0  0
   -4.8769   -0.5124   -0.1777 C   0  0  0  0  0  0  0  0  0  0  0  0
   -4.8354    0.8753   -0.0746 C   0  0  0  0  0  0  0  0  0  0  0  0
   -3.1523   -2.2044   -0.8568 C   0  0  0  0  0  0  0  0  0  0  0  0
    6.5644   -1.1342    0.3893 C   0  0  0  0  0  0  0  0  0  0  0  0
    5.9505    1.4362   -0.6620 C   0  0  0  0  0  0  0  0  0  0  0  0
   -6.0127   -1.2690    0.1126 C   0  0  0  0  0  0  0  0  0  0  0  0
   -5.9862    1.5658    0.3416 C   0  0  0  0  0  0  0  0  0  0  0  0
    7.5718   -0.2839   -0.0784 C   0  0  0  0  0  0  0  0  0  0  0  0
    7.2726    0.9788   -0.5951 C   0  0  0  0  0  0  0  0  0  0  0  0
   -7.1490   -0.5654    0.5254 C   0  0  0  0  0  0  0  0  0  0  0  0
   -7.1382    0.8268    0.6386 C   0  0  0  0  0  0  0  0  0  0  0  0
    1.5437   -1.6006    1.0919 H   0  0  0  0  0  0  0  0  0  0  0  0
    0.7053   -1.5570   -1.0920 H   0  0  0  0  0  0  0  0  0  0  0  0
    1.1448    0.1447   -1.3574 H   0  0  0  0  0  0  0  0  0  0  0  0
    0.5783   -0.1630    2.4972 H   0  0  0  0  0  0  0  0  0  0  0  0
    1.5820    1.1897    1.9546 H   0  0  0  0  0  0  0  0  0  0  0  0
    0.0256    1.8568    0.3233 H   0  0  0  0  0  0  0  0  0  0  0  0
   -1.1069    1.1428    1.4975 H   0  0  0  0  0  0  0  0  0  0  0  0
   -1.1832    1.2699   -1.5655 H   0  0  0  0  0  0  0  0  0  0  0  0
   -1.3730   -0.4027   -2.0355 H   0  0  0  0  0  0  0  0  0  0  0  0
    3.9149   -2.1230    1.0792 H   0  0  0  0  0  0  0  0  0  0  0  0
   -3.9602   -2.9242   -0.7158 H   0  0  0  0  0  0  0  0  0  0  0  0
   -2.3420   -2.4306   -0.1597 H   0  0  0  0  0  0  0  0  0  0  0  0
   -2.8024   -2.2597   -1.8906 H   0  0  0  0  0  0  0  0  0  0  0  0
    6.7942   -2.1146    0.7908 H   0  0  0  0  0  0  0  0  0  0  0  0
    5.7282    2.4191   -1.0652 H   0  0  0  0  0  0  0  0  0  0  0  0
   -6.0309   -2.3492    0.0284 H   0  0  0  0  0  0  0  0  0  0  0  0
   -5.9878    2.6473    0.4327 H   0  0  0  0  0  0  0  0  0  0  0  0
    8.6073   -0.6130   -0.0385 H   0  0  0  0  0  0  0  0  0  0  0  0
    8.0772    1.6172   -0.9509 H   0  0  0  0  0  0  0  0  0  0  0  0
   -8.0576   -1.1134    0.7627 H   0  0  0  0  0  0  0  0  0  0  0  0
   -8.0370    1.3456    0.9620 H   0  0  0  0  0  0  0  0  0  0  0  0
  1  7  1  0  0  0  0
  1  9  1  0  0  0  0
  1 10  1  0  0  0  0
  2 11  1  0  0  0  0
  2 13  1  0  0  0  0
  2 35  1  0  0  0  0
  3 11  2  0  0  0  0
  3 14  1  0  0  0  0
  4 12  1  0  0  0  0
  4 15  1  0  0  0  0
  4 17  1  0  0  0  0
  5 12  2  0  0  0  0
  5 16  1  0  0  0  0
  6  7  1  0  0  0  0
  6  8  1  0  0  0  0
  6 11  1  0  0  0  0
  6 26  1  0  0  0  0
  7 27  1  0  0  0  0
  7 28  1  0  0  0  0
  8  9  1  0  0  0  0
  8 29  1  0  0  0  0
  8 30  1  0  0  0  0
  9 31  1  0  0  0  0
  9 32  1  0  0  0  0
 10 12  1  0  0  0  0
 10 33  1  0  0  0  0
 10 34  1  0  0  0  0
 13 14  1  0  0  0  0
 13 18  2  0  0  0  0
 14 19  2  0  0  0  0
 15 16  1  0  0  0  0
 15 20  2  0  0  0  0
 16 21  2  0  0  0  0
 17 36  1  0  0  0  0
 17 37  1  0  0  0  0
 17 38  1  0  0  0  0
 18 22  1  0  0  0  0
 18 39  1  0  0  0  0
 19 23  1  0  0  0  0
 19 40  1  0  0  0  0
 20 24  1  0  0  0  0
 20 41  1  0  0  0  0
 21 25  1  0  0  0  0
 21 42  1  0  0  0  0
 22 23  2  0  0  0  0
 22 43  1  0  0  0  0
 23 44  1  0  0  0  0
 24 25  2  0  0  0  0
 24 45  1  0  0  0  0
 25 46  1  0  0  0  0
M  END
> <PUBCHEM_COMPOUND_CID>
51137122

> <PUBCHEM_CONFORMER_RMSD>
0.8

> <PUBCHEM_CONFORMER_DIVERSEORDER>
1
30
19
41
24
28
38
43
23
31
12
9
18
7
35
42
14
22
36
5
26
25
32
44
4
2
13
3
27
29
37
17
8
33
39
21
15
6
34
11
20
40
10
16

> <PUBCHEM_MMFF94_PARTIAL_CHARGES>
33
1 -0.81
10 0.45
11 0.01
12 0.01
13 -0.15
14 0.23
15 -0.15
16 0.23
17 0.26
18 -0.15
19 -0.15
2 0.03
20 -0.15
21 -0.15
22 -0.15
23 -0.15
24 -0.15
25 -0.15
3 -0.57
35 0.27
39 0.15
4 0.05
40 0.15
41 0.15
42 0.15
43 0.15
44 0.15
45 0.15
46 0.15
5 -0.57
6 0.18
7 0.27
9 0.27

> <PUBCHEM_EFFECTIVE_ROTOR_COUNT>
4

> <PUBCHEM_PHARMACOPHORE_FEATURES>
9
1 1 cation
1 2 donor
3 2 3 11 cation
3 4 5 12 cation
5 1 6 7 8 9 rings
5 2 3 11 13 14 rings
5 4 5 12 15 16 rings
6 13 14 18 19 22 23 rings
6 15 16 20 21 24 25 rings

> <PUBCHEM_HEAVY_ATOM_COUNT>
25

> <PUBCHEM_ATOM_DEF_STEREO_COUNT>
1

> <PUBCHEM_ATOM_UDEF_STEREO_COUNT>
0

> <PUBCHEM_BOND_DEF_STEREO_COUNT>
0

> <PUBCHEM_BOND_UDEF_STEREO_COUNT>
0

> <PUBCHEM_ISOTOPIC_ATOM_COUNT>
0

> <PUBCHEM_COMPONENT_COUNT>
1

> <PUBCHEM_CACTVS_TAUTO_COUNT>
1

> <PUBCHEM_CONFORMER_ID>
030C4A6200000001

> <PUBCHEM_MMFF94_ENERGY>
47.0286

> <PUBCHEM_FEATURE_SELFOVERLAP>
45.89

> <PUBCHEM_SHAPE_FINGERPRINT>
10 15 18411141333895253547
10066227 112 17346594209667613616
10299344 5 18410012139110340843
10595046 47 18260264118842981624
106641 1 18113625599506385297
10968037 39 17967531285952409455
11089746 13 12607400001083687435
11315181 36 18333450950710525089
11524674 6 16917347056670363983
11719270 70 17775286032943768358
12166972 35 17967534571581903100
12236239 1 18335421261734209028
12516196 113 16443063898023165500
12730499 353 17240199907588242986
12788726 201 17346037753905054835
13073987 5 15574984027565776568
13533116 47 16298656193437908336
14123256 10 15502093051005997145
14251752 14 18131632274936772688
14251764 18 18410855473018344951
14251764 46 18410573980861765095
14849402 71 18041850630806320780
14856354 85 18272936055057178159
14933364 13 18409449185030750844
15183329 4 18342171163485107620
15419008 47 15410611458655511746
15461852 350 11097861782769504977
15537594 2 17132109130837056990
15716309 27 18260266343662401619
18006028 8 13542465358563621954
20157964 124 17967816055480116632
21095086 128 18259984872664374659
21365058 27 17967818245202236859
21521721 280 17967254221543147848
21792961 116 17846217696629689132
220451 1 18410287013033735774
22224240 67 16008750221088385176
23035841 295 18413106164735905035
23516275 137 18268730328097016915
23522609 53 18265637470586011781
23536379 177 18408884027638004800
23559900 14 17917418882425529424
23569943 247 16662880333402935026
2747138 104 16370733625054530845
335352 9 18131909365411490885
34797466 226 18410580591565455476
4073 2 18040721415390031562
4325135 7 18187083961797539364
5265222 85 18200875205028137078
5283156 175 17917994945963650430
5385378 56 16486706783469576159
5758199 1 17749111092869529112
59682541 35 15864078701350873356
59755656 215 15195291901912608852
59755656 520 17676485068431968715
6441014 3 11031074088347072072
999808 66 18113627815541095219

> <PUBCHEM_SHAPE_MULTIPOLES>
489.58
23.21
1.51
1
7.32
0.2
-0.09
-1.65
-0.56
-0.88
0.14
0
-0.03
-1.09

> <PUBCHEM_SHAPE_SELFOVERLAP>
1090.965

> <PUBCHEM_SHAPE_VOLUME>
260.6

> <PUBCHEM_COORDINATE_TYPE>
2
5
10

$$$$
