75536507
  -OEChem-12032416393D

 45 46  0     1  0  0  0  0  0999 V2000
   -6.5410    0.0729    0.5667 S   0  0  0  0  0  0  0  0  0  0  0  0
    3.4808   -1.2849   -0.3509 O   0  0  0  0  0  0  0  0  0  0  0  0
    2.5617    2.1203    0.3318 O   0  0  0  0  0  0  0  0  0  0  0  0
    7.1566    1.2900   -0.0869 O   0  0  0  0  0  0  0  0  0  0  0  0
   -6.7106   -0.7509    1.7558 O   0  0  0  0  0  0  0  0  0  0  0  0
   -6.9413    1.4726    0.5941 O   0  0  0  0  0  0  0  0  0  0  0  0
    0.1489    0.1481   -0.0746 N   0  0  0  0  0  0  0  0  0  0  0  0
    6.0679   -0.6095    0.7087 N   0  0  0  0  0  0  0  0  0  0  0  0
    1.5354    0.0692   -0.5048 C   0  0  1  0  0  0  0  0  0  0  0  0
    2.5110    0.7129    0.4630 C   0  0  1  0  0  0  0  0  0  0  0  0
    3.8185    0.0559    0.0417 C   0  0  1  0  0  0  0  0  0  0  0  0
    2.0589   -1.3569   -0.5556 C   0  0  0  0  0  0  0  0  0  0  0  0
    4.8567    0.0205    1.1490 C   0  0  0  0  0  0  0  0  0  0  0  0
   -0.7597   -0.1710   -1.1693 C   0  0  0  0  0  0  0  0  0  0  0  0
   -2.2007   -0.1105   -0.7375 C   0  0  0  0  0  0  0  0  0  0  0  0
   -2.9916    0.9808   -1.0974 C   0  0  0  0  0  0  0  0  0  0  0  0
   -2.7451   -1.1456    0.0227 C   0  0  0  0  0  0  0  0  0  0  0  0
    7.1238    0.0804    0.1240 C   0  0  0  0  0  0  0  0  0  0  0  0
   -4.8708    0.0016    0.0627 C   0  0  0  0  0  0  0  0  0  0  0  0
   -4.3266    1.0369   -0.6975 C   0  0  0  0  0  0  0  0  0  0  0  0
   -4.0801   -1.0896    0.4228 C   0  0  0  0  0  0  0  0  0  0  0  0
    8.2815   -0.8177   -0.2208 C   0  0  0  0  0  0  0  0  0  0  0  0
   -7.4343   -0.7255   -0.7478 C   0  0  0  0  0  0  0  0  0  0  0  0
    1.6575    0.5550   -1.4833 H   0  0  0  0  0  0  0  0  0  0  0  0
    2.2595    0.4634    1.5014 H   0  0  0  0  0  0  0  0  0  0  0  0
    4.2392    0.5581   -0.8395 H   0  0  0  0  0  0  0  0  0  0  0  0
    1.6485   -1.9803    0.2472 H   0  0  0  0  0  0  0  0  0  0  0  0
    1.8552   -1.8481   -1.5119 H   0  0  0  0  0  0  0  0  0  0  0  0
    4.4946   -0.5687    1.9987 H   0  0  0  0  0  0  0  0  0  0  0  0
    5.0832    1.0335    1.4984 H   0  0  0  0  0  0  0  0  0  0  0  0
   -0.0455    1.0958    0.2500 H   0  0  0  0  0  0  0  0  0  0  0  0
   -0.5654   -1.1794   -1.5566 H   0  0  0  0  0  0  0  0  0  0  0  0
   -0.6029    0.5175   -2.0099 H   0  0  0  0  0  0  0  0  0  0  0  0
    2.7835    2.3336   -0.5904 H   0  0  0  0  0  0  0  0  0  0  0  0
    6.1481   -1.6148    0.8326 H   0  0  0  0  0  0  0  0  0  0  0  0
   -2.5804    1.7947   -1.6887 H   0  0  0  0  0  0  0  0  0  0  0  0
   -2.1392   -2.0017    0.3077 H   0  0  0  0  0  0  0  0  0  0  0  0
   -4.9254    1.8932   -0.9945 H   0  0  0  0  0  0  0  0  0  0  0  0
   -4.4853   -1.9095    1.0091 H   0  0  0  0  0  0  0  0  0  0  0  0
    7.9261   -1.7178   -0.7304 H   0  0  0  0  0  0  0  0  0  0  0  0
    8.8071   -1.1010    0.6952 H   0  0  0  0  0  0  0  0  0  0  0  0
    8.9717   -0.2900   -0.8848 H   0  0  0  0  0  0  0  0  0  0  0  0
   -8.4963   -0.7100   -0.4939 H   0  0  0  0  0  0  0  0  0  0  0  0
   -7.2656   -0.1765   -1.6761 H   0  0  0  0  0  0  0  0  0  0  0  0
   -7.0879   -1.7568   -0.8377 H   0  0  0  0  0  0  0  0  0  0  0  0
  1  5  2  0  0  0  0
  1  6  2  0  0  0  0
  1 19  1  0  0  0  0
  1 23  1  0  0  0  0
  2 11  1  0  0  0  0
  2 12  1  0  0  0  0
  3 10  1  0  0  0  0
  3 34  1  0  0  0  0
  4 18  2  0  0  0  0
  7  9  1  0  0  0  0
  7 14  1  0  0  0  0
  7 31  1  0  0  0  0
  8 13  1  0  0  0  0
  8 18  1  0  0  0  0
  8 35  1  0  0  0  0
  9 10  1  0  0  0  0
  9 12  1  0  0  0  0
  9 24  1  0  0  0  0
 10 11  1  0  0  0  0
 10 25  1  0  0  0  0
 11 13  1  0  0  0  0
 11 26  1  0  0  0  0
 12 27  1  0  0  0  0
 12 28  1  0  0  0  0
 13 29  1  0  0  0  0
 13 30  1  0  0  0  0
 14 15  1  0  0  0  0
 14 32  1  0  0  0  0
 14 33  1  0  0  0  0
 15 16  2  0  0  0  0
 15 17  1  0  0  0  0
 16 20  1  0  0  0  0
 16 36  1  0  0  0  0
 17 21  2  0  0  0  0
 17 37  1  0  0  0  0
 18 22  1  0  0  0  0
 19 20  2  0  0  0  0
 19 21  1  0  0  0  0
 20 38  1  0  0  0  0
 21 39  1  0  0  0  0
 22 40  1  0  0  0  0
 22 41  1  0  0  0  0
 22 42  1  0  0  0  0
 23 43  1  0  0  0  0
 23 44  1  0  0  0  0
 23 45  1  0  0  0  0
M  END
> <PUBCHEM_COMPOUND_CID>
75536507

> <PUBCHEM_CONFORMER_RMSD>
1

> <PUBCHEM_CONFORMER_DIVERSEORDER>
1
124
58
67
128
90
49
86
116
25
112
53
2
69
17
113
71
60
115
114
111
19
129
30
85
56
6
123
131
87
110
78
89
51
103
4
82
120
32
118
107
121
11
104
119
31
94
59
46
34
126
57
15
14
64
18
39
79
130
76
102
133
9
23
106
62
8
95
127
50
10
21
12
43
73
75
41
117
80
93
13
63
72
83
33
48
54
74
81
99
125
100
105
108
16
52
24
42
27
132
55
91
66
77
96
40
88
3
44
20
37
101
45
92
5
109
70
7
36
97
29
98
65
84
26
134
68
22
35
47
61
28
38
122

> <PUBCHEM_MMFF94_PARTIAL_CHARGES>
30
1 1.2
10 0.28
11 0.28
12 0.28
13 0.3
14 0.41
15 -0.14
16 -0.15
17 -0.15
18 0.57
19 -0.01
2 -0.56
20 -0.15
21 -0.15
22 0.06
23 0.11
3 -0.68
31 0.36
34 0.4
35 0.37
36 0.15
37 0.15
38 0.15
39 0.15
4 -0.57
5 -0.65
6 -0.65
7 -0.9
8 -0.73
9 0.27

> <PUBCHEM_EFFECTIVE_ROTOR_COUNT>
8

> <PUBCHEM_PHARMACOPHORE_FEATURES>
11
1 2 acceptor
1 3 acceptor
1 3 donor
1 4 acceptor
1 5 acceptor
1 6 acceptor
1 7 cation
1 7 donor
1 8 donor
5 2 9 10 11 12 rings
6 15 16 17 19 20 21 rings

> <PUBCHEM_HEAVY_ATOM_COUNT>
23

> <PUBCHEM_ATOM_DEF_STEREO_COUNT>
3

> <PUBCHEM_ATOM_UDEF_STEREO_COUNT>
0

> <PUBCHEM_BOND_DEF_STEREO_COUNT>
0

> <PUBCHEM_BOND_UDEF_STEREO_COUNT>
0

> <PUBCHEM_ISOTOPIC_ATOM_COUNT>
0

> <PUBCHEM_COMPONENT_COUNT>
1

> <PUBCHEM_CACTVS_TAUTO_COUNT>
2

> <PUBCHEM_CONFORMER_ID>
0480987B00000001

> <PUBCHEM_MMFF94_ENERGY>
40.0162

> <PUBCHEM_FEATURE_SELFOVERLAP>
55.841

> <PUBCHEM_SHAPE_FINGERPRINT>
10 15 18334576849572901899
10066227 49 9727370021403262348
10299344 5 17530684303682401514
106641 1 17458346368549645972
11089746 13 16056874749735025609
11315181 36 16588025706490768349
12091667 2 18409445882849474029
12236239 1 15913329078997505183
13073987 5 18262798449868174242
13288520 33 16370443359144350335
13533116 47 16200155339877167118
13668630 136 13695869203548557513
13685833 64 17457780085522163970
13914758 101 14476967770137337674
13968360 50 9583526417078843480
14123256 10 8718827591556120699
14251764 18 18408603668936072749
14251764 46 14779265306860969459
14341114 176 18261109694792927732
14849402 71 18340769368297828888
14933364 13 18334011697034591244
15461852 350 18341886416613723807
15716309 27 17749105591190658346
17093844 174 16805319990770780253
18335252 98 12607403326132206157
20281389 69 16343698837951650530
21150785 3 12612753519220658130
21267235 1 18113621187646732780
21792961 116 18337384942873825404
22224240 67 18335135410354986018
23035841 295 15863790607987360611
246663 6 18187085040557231314
34797466 226 16660369169589481062
3545911 37 18273492373127361470
4073 2 18187649158367575066
4325135 7 16950564381203579774
5104073 3 18117560635367974019
5385378 56 17274830112478463838
59682541 35 18334858354878128131
59755656 520 16128647561671432077

> <PUBCHEM_SHAPE_MULTIPOLES>
437.87
24.17
1.34
1.06
12.34
0.27
0.12
-0.78
4.42
0.01
0.01
-0.99
-0.05
0.47

> <PUBCHEM_SHAPE_SELFOVERLAP>
888.596

> <PUBCHEM_SHAPE_VOLUME>
256.6

> <PUBCHEM_COORDINATE_TYPE>
2
5
10

$$$$
