11882863
  -OEChem-12032416333D

 76 80  0     1  0  0  0  0  0999 V2000
    0.6914    3.4591   -0.2052 S   0  0  0  0  0  0  0  0  0  0  0  0
    9.2294    2.3903   -0.2954 F   0  0  0  0  0  0  0  0  0  0  0  0
   -7.0231    2.1269   -0.7856 O   0  0  0  0  0  0  0  0  0  0  0  0
   -6.4106    4.1393    0.3632 O   0  0  0  0  0  0  0  0  0  0  0  0
    0.0113   -1.7653   -0.7614 O   0  0  0  0  0  0  0  0  0  0  0  0
    3.5344   -0.2080    0.1718 O   0  0  0  0  0  0  0  0  0  0  0  0
    0.7894    0.8897    0.0793 N   0  0  0  0  0  0  0  0  0  0  0  0
    0.0620   -3.0130    1.1932 N   0  0  0  0  0  0  0  0  0  0  0  0
    2.8977    2.0484   -0.0697 N   0  0  0  0  0  0  0  0  0  0  0  0
   -3.0412    0.9224    0.5188 C   0  0  2  0  0  0  0  0  0  0  0  0
   -3.2184    2.1872   -0.4322 C   0  0  1  0  0  0  0  0  0  0  0  0
   -4.6712    2.7878   -0.5614 C   0  0  1  0  0  0  0  0  0  0  0  0
   -1.6443    0.2316    0.1653 C   0  0  1  0  0  0  0  0  0  0  0  0
   -4.1756   -0.0971    0.2378 C   0  0  0  0  0  0  0  0  0  0  0  0
   -5.6847    1.6315   -0.7933 C   0  0  1  0  0  0  0  0  0  0  0  0
   -2.1191    3.2567   -0.1667 C   0  0  0  0  0  0  0  0  0  0  0  0
   -5.5691    0.5151    0.2387 C   0  0  0  0  0  0  0  0  0  0  0  0
   -3.0667    1.2923    2.0224 C   0  0  0  0  0  0  0  0  0  0  0  0
   -0.5437    1.2561    0.0626 C   0  0  0  0  0  0  0  0  0  0  0  0
   -5.1070    3.6719    0.6279 C   0  0  0  0  0  0  0  0  0  0  0  0
   -4.7289    3.7108   -1.8115 C   0  0  0  0  0  0  0  0  0  0  0  0
   -0.7788    2.6057   -0.1042 C   0  0  0  0  0  0  0  0  0  0  0  0
   -1.2510   -0.9243    1.0950 C   0  0  0  0  0  0  0  0  0  0  0  0
   -0.3394   -1.9251    0.4107 C   0  0  0  0  0  0  0  0  0  0  0  0
    1.5305    1.9690   -0.0469 C   0  0  0  0  0  0  0  0  0  0  0  0
    0.9402   -4.0631    0.6828 C   0  0  0  0  0  0  0  0  0  0  0  0
   -0.3656   -3.1806    2.5768 C   0  0  0  0  0  0  0  0  0  0  0  0
    3.8034    0.9807    0.0384 C   0  0  0  0  0  0  0  0  0  0  0  0
    0.1694   -5.1638    0.0129 C   0  0  0  0  0  0  0  0  0  0  0  0
    5.2402    1.3537   -0.0492 C   0  0  0  0  0  0  0  0  0  0  0  0
   -0.2725   -6.2582    0.7563 C   0  0  0  0  0  0  0  0  0  0  0  0
   -0.1045   -5.0921   -1.3529 C   0  0  0  0  0  0  0  0  0  0  0  0
    6.1741    0.4275   -0.5137 C   0  0  0  0  0  0  0  0  0  0  0  0
    5.6540    2.6301    0.3321 C   0  0  0  0  0  0  0  0  0  0  0  0
   -0.9882   -7.2810    0.1339 C   0  0  0  0  0  0  0  0  0  0  0  0
   -0.8203   -6.1147   -1.9753 C   0  0  0  0  0  0  0  0  0  0  0  0
   -1.2621   -7.2092   -1.2318 C   0  0  0  0  0  0  0  0  0  0  0  0
    7.5217    0.7776   -0.5968 C   0  0  0  0  0  0  0  0  0  0  0  0
    7.0016    2.9802    0.2490 C   0  0  0  0  0  0  0  0  0  0  0  0
    7.9355    2.0540   -0.2155 C   0  0  0  0  0  0  0  0  0  0  0  0
   -3.0025    1.7924   -1.4403 H   0  0  0  0  0  0  0  0  0  0  0  0
   -1.7624   -0.1637   -0.8547 H   0  0  0  0  0  0  0  0  0  0  0  0
   -4.0112   -0.5695   -0.7397 H   0  0  0  0  0  0  0  0  0  0  0  0
   -4.1632   -0.9080    0.9747 H   0  0  0  0  0  0  0  0  0  0  0  0
   -5.5137    1.2027   -1.7897 H   0  0  0  0  0  0  0  0  0  0  0  0
   -2.1191    4.0036   -0.9677 H   0  0  0  0  0  0  0  0  0  0  0  0
   -2.3046    3.7834    0.7753 H   0  0  0  0  0  0  0  0  0  0  0  0
   -6.3046   -0.2668    0.0093 H   0  0  0  0  0  0  0  0  0  0  0  0
   -5.8447    0.8776    1.2351 H   0  0  0  0  0  0  0  0  0  0  0  0
   -2.2865    2.0093    2.2920 H   0  0  0  0  0  0  0  0  0  0  0  0
   -4.0208    1.7054    2.3429 H   0  0  0  0  0  0  0  0  0  0  0  0
   -2.9135    0.4079    2.6508 H   0  0  0  0  0  0  0  0  0  0  0  0
   -5.1463    3.1303    1.5695 H   0  0  0  0  0  0  0  0  0  0  0  0
   -4.4511    4.5388    0.7526 H   0  0  0  0  0  0  0  0  0  0  0  0
   -4.3389    3.1960   -2.6972 H   0  0  0  0  0  0  0  0  0  0  0  0
   -4.1394    4.6230   -1.6721 H   0  0  0  0  0  0  0  0  0  0  0  0
   -5.7509    4.0231   -2.0534 H   0  0  0  0  0  0  0  0  0  0  0  0
   -0.7458   -0.5282    1.9837 H   0  0  0  0  0  0  0  0  0  0  0  0
   -2.1412   -1.4801    1.4020 H   0  0  0  0  0  0  0  0  0  0  0  0
   -7.6150    1.3803   -0.9800 H   0  0  0  0  0  0  0  0  0  0  0  0
   -6.6740    4.7025    1.1107 H   0  0  0  0  0  0  0  0  0  0  0  0
    3.2462    2.9900   -0.2198 H   0  0  0  0  0  0  0  0  0  0  0  0
    1.6324   -3.6147   -0.0410 H   0  0  0  0  0  0  0  0  0  0  0  0
    1.5639   -4.4544    1.4957 H   0  0  0  0  0  0  0  0  0  0  0  0
   -0.9766   -4.0849    2.6476 H   0  0  0  0  0  0  0  0  0  0  0  0
   -0.9463   -2.3552    2.9843 H   0  0  0  0  0  0  0  0  0  0  0  0
    0.5232   -3.3003    3.2047 H   0  0  0  0  0  0  0  0  0  0  0  0
   -0.0628   -6.3287    1.8202 H   0  0  0  0  0  0  0  0  0  0  0  0
    0.2369   -4.2491   -1.9470 H   0  0  0  0  0  0  0  0  0  0  0  0
    5.8725   -0.5703   -0.8211 H   0  0  0  0  0  0  0  0  0  0  0  0
    4.9692    3.3709    0.7333 H   0  0  0  0  0  0  0  0  0  0  0  0
   -1.3315   -8.1336    0.7124 H   0  0  0  0  0  0  0  0  0  0  0  0
   -1.0326   -6.0596   -3.0390 H   0  0  0  0  0  0  0  0  0  0  0  0
   -1.8190   -8.0058   -1.7166 H   0  0  0  0  0  0  0  0  0  0  0  0
    8.2491    0.0574   -0.9597 H   0  0  0  0  0  0  0  0  0  0  0  0
    7.3260    3.9711    0.5531 H   0  0  0  0  0  0  0  0  0  0  0  0
  1 22  1  0  0  0  0
  1 25  1  0  0  0  0
  2 40  1  0  0  0  0
  3 15  1  0  0  0  0
  3 60  1  0  0  0  0
  4 20  1  0  0  0  0
  4 61  1  0  0  0  0
  5 24  2  0  0  0  0
  6 28  2  0  0  0  0
  7 19  1  0  0  0  0
  7 25  2  0  0  0  0
  8 24  1  0  0  0  0
  8 26  1  0  0  0  0
  8 27  1  0  0  0  0
  9 25  1  0  0  0  0
  9 28  1  0  0  0  0
  9 62  1  0  0  0  0
 10 11  1  0  0  0  0
 10 13  1  0  0  0  0
 10 14  1  0  0  0  0
 10 18  1  0  0  0  0
 11 12  1  0  0  0  0
 11 16  1  0  0  0  0
 11 41  1  0  0  0  0
 12 15  1  0  0  0  0
 12 20  1  0  0  0  0
 12 21  1  0  0  0  0
 13 19  1  0  0  0  0
 13 23  1  0  0  0  0
 13 42  1  0  0  0  0
 14 17  1  0  0  0  0
 14 43  1  0  0  0  0
 14 44  1  0  0  0  0
 15 17  1  0  0  0  0
 15 45  1  0  0  0  0
 16 22  1  0  0  0  0
 16 46  1  0  0  0  0
 16 47  1  0  0  0  0
 17 48  1  0  0  0  0
 17 49  1  0  0  0  0
 18 50  1  0  0  0  0
 18 51  1  0  0  0  0
 18 52  1  0  0  0  0
 19 22  2  0  0  0  0
 20 53  1  0  0  0  0
 20 54  1  0  0  0  0
 21 55  1  0  0  0  0
 21 56  1  0  0  0  0
 21 57  1  0  0  0  0
 23 24  1  0  0  0  0
 23 58  1  0  0  0  0
 23 59  1  0  0  0  0
 26 29  1  0  0  0  0
 26 63  1  0  0  0  0
 26 64  1  0  0  0  0
 27 65  1  0  0  0  0
 27 66  1  0  0  0  0
 27 67  1  0  0  0  0
 28 30  1  0  0  0  0
 29 31  2  0  0  0  0
 29 32  1  0  0  0  0
 30 33  2  0  0  0  0
 30 34  1  0  0  0  0
 31 35  1  0  0  0  0
 31 68  1  0  0  0  0
 32 36  2  0  0  0  0
 32 69  1  0  0  0  0
 33 38  1  0  0  0  0
 33 70  1  0  0  0  0
 34 39  2  0  0  0  0
 34 71  1  0  0  0  0
 35 37  2  0  0  0  0
 35 72  1  0  0  0  0
 36 37  1  0  0  0  0
 36 73  1  0  0  0  0
 37 74  1  0  0  0  0
 38 40  2  0  0  0  0
 38 75  1  0  0  0  0
 39 40  1  0  0  0  0
 39 76  1  0  0  0  0
M  END
> <PUBCHEM_COMPOUND_CID>
11882863

> <PUBCHEM_CONFORMER_RMSD>
1.2

> <PUBCHEM_CONFORMER_DIVERSEORDER>
1
20
22
39
38
4
35
17
19
5
36
24
12
16
14
28
37
18
31
33
11
40
6
27
32
34
15
29
7
25
30
23
26
21
13
8
2
3
9
10

> <PUBCHEM_MMFF94_PARTIAL_CHARGES>
45
1 -0.08
13 0.18
15 0.28
16 0.18
19 0.05
2 -0.19
20 0.28
22 -0.14
23 0.06
24 0.57
25 0.44
26 0.44
27 0.3
28 0.54
29 -0.14
3 -0.68
30 0.09
31 -0.15
32 -0.15
33 -0.15
34 -0.15
35 -0.15
36 -0.15
37 -0.15
38 -0.15
39 -0.15
4 -0.68
40 0.19
5 -0.57
6 -0.57
60 0.4
61 0.4
62 0.37
68 0.15
69 0.15
7 -0.57
70 0.15
71 0.15
72 0.15
73 0.15
74 0.15
75 0.15
76 0.15
8 -0.66
9 -0.49

> <PUBCHEM_EFFECTIVE_ROTOR_COUNT>
10.2

> <PUBCHEM_PHARMACOPHORE_FEATURES>
12
1 3 acceptor
1 3 donor
1 4 acceptor
1 4 donor
1 5 acceptor
1 6 acceptor
1 9 donor
5 1 7 19 22 25 rings
6 10 11 12 14 15 17 rings
6 10 11 13 16 19 22 rings
6 29 31 32 35 36 37 rings
6 30 33 34 38 39 40 rings

> <PUBCHEM_HEAVY_ATOM_COUNT>
40

> <PUBCHEM_ATOM_DEF_STEREO_COUNT>
5

> <PUBCHEM_ATOM_UDEF_STEREO_COUNT>
0

> <PUBCHEM_BOND_DEF_STEREO_COUNT>
0

> <PUBCHEM_BOND_UDEF_STEREO_COUNT>
0

> <PUBCHEM_ISOTOPIC_ATOM_COUNT>
0

> <PUBCHEM_COMPONENT_COUNT>
1

> <PUBCHEM_CACTVS_TAUTO_COUNT>
3

> <PUBCHEM_CONFORMER_ID>
00B5516F00000001

> <PUBCHEM_MMFF94_ENERGY>
129.0369

> <PUBCHEM_FEATURE_SELFOVERLAP>
61.043

> <PUBCHEM_SHAPE_FINGERPRINT>
102385 1 17832989725550316116
10940486 97 18116719714978882924
11007060 377 18339081596089026872
11135926 11 18265045839283969741
11297010 23 18047454652462301717
11991303 11 18335986479757384918
13757389 114 18266458883117697402
14659021 117 18051964016077603186
14674994 50 18125734614887919922
14856354 85 16153710955234513032
15198563 99 17979915243913980246
15200665 1 18265897045550009866
15274700 232 18193565681960894706
15347591 1 18049722916036073073
15361156 5 17828776380402457848
15400415 2 18410572864645872804
15439362 3 18192712233646969033
15444296 8 17909273825331867318
15483637 11 18195808699093272462
15927050 60 18410007776078248106
16989713 51 17981618366762036006
16993438 75 18267584800837736958
18365409 1 18336547239298577732
19311894 1 17835230530748792863
21133410 171 17256755447584431546
21133665 82 18334016082517882450
23559900 14 17616806636030856339
24771750 20 18190470350585404726
25019877 29 18333452014881746932
3103668 31 18120933068836884135
3383291 50 18410576231509505360
3882209 13 17185291679354254928
4017518 198 18410579466173539958
4046055 4 17687738759004602142
4073 2 18263083379260029896
4408954 64 16013288064194609016
4461854 278 18338531845208260251
4516262 110 18264486183950668645
504843 32 18411702118573507662
5265222 85 18334580174226645172
563151 97 18339917135195540181
6669772 16 18341899549880286534

> <PUBCHEM_SHAPE_MULTIPOLES>
781.34
16.75
11.22
1.36
32.66
31.56
-0.25
-30.33
2.94
-8.25
2.93
-1.15
1.32
0.25

> <PUBCHEM_SHAPE_SELFOVERLAP>
1671.649

> <PUBCHEM_SHAPE_VOLUME>
437.8

> <PUBCHEM_COORDINATE_TYPE>
2
5
10

$$$$
