40779497
  -OEChem-12032416163D

 63 67  0     1  0  0  0  0  0999 V2000
   -6.5941    3.1087   -0.1594 S   0  0  0  0  0  0  0  0  0  0  0  0
   -5.4286    0.9167    1.4340 O   0  0  0  0  0  0  0  0  0  0  0  0
    4.4656    2.5917    2.0021 O   0  0  0  0  0  0  0  0  0  0  0  0
    6.3223    2.9953   -0.0259 O   0  0  0  0  0  0  0  0  0  0  0  0
   -2.5466   -2.6354    1.4569 N   0  0  2  0  0  0  0  0  0  0  0  0
    1.8451   -3.0679   -0.9094 N   0  0  0  0  0  0  0  0  0  0  0  0
   -3.2854    0.9356    0.5445 N   0  0  0  0  0  0  0  0  0  0  0  0
    2.9543   -2.3199   -1.0380 N   0  0  0  0  0  0  0  0  0  0  0  0
   -1.6362   -2.9118   -0.9675 C   0  0  2  0  0  0  0  0  0  0  0  0
   -0.4964   -3.1175    0.0681 C   0  0  2  0  0  0  0  0  0  0  0  0
   -2.9707   -1.4820    0.6201 C   0  0  2  0  0  0  0  0  0  0  0  0
   -2.2726   -1.5218   -0.7563 C   0  0  0  0  0  0  0  0  0  0  0  0
   -2.7225   -3.9612   -0.6482 C   0  0  0  0  0  0  0  0  0  0  0  0
   -1.0661   -2.7402    1.4655 C   0  0  0  0  0  0  0  0  0  0  0  0
   -3.0942   -3.8683    0.8420 C   0  0  0  0  0  0  0  0  0  0  0  0
    0.8489   -2.4595   -0.2037 C   0  0  0  0  0  0  0  0  0  0  0  0
   -2.7616   -0.1411    1.3270 C   0  0  0  0  0  0  0  0  0  0  0  0
    1.3407   -1.2281    0.1546 C   0  0  0  0  0  0  0  0  0  0  0  0
    2.6401   -1.1973   -0.3860 C   0  0  0  0  0  0  0  0  0  0  0  0
    1.8105   -4.3859   -1.4998 C   0  0  0  0  0  0  0  0  0  0  0  0
   -4.5988    1.3877    0.6607 C   0  0  0  0  0  0  0  0  0  0  0  0
    3.5871   -0.1171   -0.2902 C   0  0  0  0  0  0  0  0  0  0  0  0
   -4.9964    2.4982   -0.2423 C   0  0  0  0  0  0  0  0  0  0  0  0
    3.5723    0.7270    0.8202 C   0  0  0  0  0  0  0  0  0  0  0  0
    4.5190    0.0858   -1.3081 C   0  0  0  0  0  0  0  0  0  0  0  0
   -4.2414    3.1529   -1.1906 C   0  0  0  0  0  0  0  0  0  0  0  0
    4.4895    1.7738    0.9129 C   0  0  0  0  0  0  0  0  0  0  0  0
    5.4360    1.1328   -1.2156 C   0  0  0  0  0  0  0  0  0  0  0  0
    5.4213    1.9768   -0.1051 C   0  0  0  0  0  0  0  0  0  0  0  0
   -4.9845    4.1692   -1.8577 C   0  0  0  0  0  0  0  0  0  0  0  0
   -6.2789    4.2526   -1.3939 C   0  0  0  0  0  0  0  0  0  0  0  0
    3.4819    2.3162    2.9976 C   0  0  0  0  0  0  0  0  0  0  0  0
    7.2406    3.1338   -1.1087 C   0  0  0  0  0  0  0  0  0  0  0  0
   -1.2733   -3.0215   -1.9947 H   0  0  0  0  0  0  0  0  0  0  0  0
   -0.2996   -4.1995    0.1082 H   0  0  0  0  0  0  0  0  0  0  0  0
   -4.0540   -1.5751    0.4518 H   0  0  0  0  0  0  0  0  0  0  0  0
   -1.5001   -0.7497   -0.8474 H   0  0  0  0  0  0  0  0  0  0  0  0
   -3.0108   -1.3309   -1.5452 H   0  0  0  0  0  0  0  0  0  0  0  0
   -2.3599   -4.9696   -0.8795 H   0  0  0  0  0  0  0  0  0  0  0  0
   -3.6073   -3.7833   -1.2714 H   0  0  0  0  0  0  0  0  0  0  0  0
   -0.7736   -3.5164    2.1859 H   0  0  0  0  0  0  0  0  0  0  0  0
   -0.6359   -1.8211    1.8737 H   0  0  0  0  0  0  0  0  0  0  0  0
   -4.1851   -3.8914    0.9560 H   0  0  0  0  0  0  0  0  0  0  0  0
   -2.7243   -4.7493    1.3820 H   0  0  0  0  0  0  0  0  0  0  0  0
   -1.7013    0.0758    1.4901 H   0  0  0  0  0  0  0  0  0  0  0  0
   -3.2552   -0.1469    2.3057 H   0  0  0  0  0  0  0  0  0  0  0  0
    0.8230   -0.4607    0.7123 H   0  0  0  0  0  0  0  0  0  0  0  0
   -2.6567    1.3690   -0.1232 H   0  0  0  0  0  0  0  0  0  0  0  0
    2.6804   -4.5159   -2.1494 H   0  0  0  0  0  0  0  0  0  0  0  0
    1.8354   -5.1235   -0.6941 H   0  0  0  0  0  0  0  0  0  0  0  0
    0.8979   -4.4846   -2.0922 H   0  0  0  0  0  0  0  0  0  0  0  0
    2.8417    0.5265    1.5961 H   0  0  0  0  0  0  0  0  0  0  0  0
    4.5488   -0.5506   -2.1894 H   0  0  0  0  0  0  0  0  0  0  0  0
   -3.2059    2.9332   -1.4148 H   0  0  0  0  0  0  0  0  0  0  0  0
    6.1289    1.2315   -2.0440 H   0  0  0  0  0  0  0  0  0  0  0  0
   -4.5898    4.8068   -2.6380 H   0  0  0  0  0  0  0  0  0  0  0  0
   -7.0545    4.9304   -1.7211 H   0  0  0  0  0  0  0  0  0  0  0  0
    3.6053    3.0651    3.7869 H   0  0  0  0  0  0  0  0  0  0  0  0
    3.6409    1.3374    3.4630 H   0  0  0  0  0  0  0  0  0  0  0  0
    2.4657    2.4343    2.6061 H   0  0  0  0  0  0  0  0  0  0  0  0
    7.8816    3.9916   -0.8797 H   0  0  0  0  0  0  0  0  0  0  0  0
    6.7256    3.3637   -2.0477 H   0  0  0  0  0  0  0  0  0  0  0  0
    7.8968    2.2611   -1.1955 H   0  0  0  0  0  0  0  0  0  0  0  0
  1 23  1  0  0  0  0
  1 31  1  0  0  0  0
  2 21  2  0  0  0  0
  3 27  1  0  0  0  0
  3 32  1  0  0  0  0
  4 29  1  0  0  0  0
  4 33  1  0  0  0  0
  5 11  1  0  0  0  0
  5 14  1  0  0  0  0
  5 15  1  0  0  0  0
  6  8  1  0  0  0  0
  6 16  1  0  0  0  0
  6 20  1  0  0  0  0
  7 17  1  0  0  0  0
  7 21  1  0  0  0  0
  7 48  1  0  0  0  0
  8 19  2  0  0  0  0
  9 10  1  0  0  0  0
  9 12  1  0  0  0  0
  9 13  1  0  0  0  0
  9 34  1  0  0  0  0
 10 14  1  0  0  0  0
 10 16  1  0  0  0  0
 10 35  1  0  0  0  0
 11 12  1  0  0  0  0
 11 17  1  0  0  0  0
 11 36  1  0  0  0  0
 12 37  1  0  0  0  0
 12 38  1  0  0  0  0
 13 15  1  0  0  0  0
 13 39  1  0  0  0  0
 13 40  1  0  0  0  0
 14 41  1  0  0  0  0
 14 42  1  0  0  0  0
 15 43  1  0  0  0  0
 15 44  1  0  0  0  0
 16 18  2  0  0  0  0
 17 45  1  0  0  0  0
 17 46  1  0  0  0  0
 18 19  1  0  0  0  0
 18 47  1  0  0  0  0
 19 22  1  0  0  0  0
 20 49  1  0  0  0  0
 20 50  1  0  0  0  0
 20 51  1  0  0  0  0
 21 23  1  0  0  0  0
 22 24  2  0  0  0  0
 22 25  1  0  0  0  0
 23 26  2  0  0  0  0
 24 27  1  0  0  0  0
 24 52  1  0  0  0  0
 25 28  2  0  0  0  0
 25 53  1  0  0  0  0
 26 30  1  0  0  0  0
 26 54  1  0  0  0  0
 27 29  2  0  0  0  0
 28 29  1  0  0  0  0
 28 55  1  0  0  0  0
 30 31  2  0  0  0  0
 30 56  1  0  0  0  0
 31 57  1  0  0  0  0
 32 58  1  0  0  0  0
 32 59  1  0  0  0  0
 32 60  1  0  0  0  0
 33 61  1  0  0  0  0
 33 62  1  0  0  0  0
 33 63  1  0  0  0  0
M  END
> <PUBCHEM_COMPOUND_CID>
40779497

> <PUBCHEM_CONFORMER_RMSD>
1

> <PUBCHEM_CONFORMER_DIVERSEORDER>
3
31
51
61
10
56
35
38
24
44
50
67
37
12
53
70
66
18
33
6
19
55
30
11
75
32
68
34
21
59
72
62
7
29
69
52
16
71
25
46
40
43
42
5
20
47
17
54
41
26
23
73
22
60
8
36
27
13
48
58
65
63
1
28
9
64
45
57
49
39
74
4
15
2
14

> <PUBCHEM_MMFF94_PARTIAL_CHARGES>
38
1 -0.08
10 0.18
11 0.27
14 0.27
15 0.27
16 -0.33
17 0.3
18 -0.15
19 0.23
2 -0.57
20 0.26
21 0.71
22 0.05
23 -0.05
24 -0.15
25 -0.15
26 -0.15
27 0.08
28 -0.15
29 0.08
3 -0.36
30 -0.15
31 -0.11
32 0.28
33 0.28
4 -0.36
47 0.15
48 0.37
5 -0.81
52 0.15
53 0.15
54 0.15
55 0.15
56 0.15
57 0.15
6 0.31
7 -0.73
8 -0.71

> <PUBCHEM_EFFECTIVE_ROTOR_COUNT>
9.2

> <PUBCHEM_PHARMACOPHORE_FEATURES>
10
1 2 acceptor
1 3 acceptor
1 4 acceptor
1 5 cation
1 7 donor
1 8 acceptor
5 1 23 26 30 31 rings
5 6 8 16 18 19 rings
6 22 24 25 27 28 29 rings
8 5 9 10 11 12 13 14 15 rings

> <PUBCHEM_HEAVY_ATOM_COUNT>
33

> <PUBCHEM_ATOM_DEF_STEREO_COUNT>
3

> <PUBCHEM_ATOM_UDEF_STEREO_COUNT>
0

> <PUBCHEM_BOND_DEF_STEREO_COUNT>
0

> <PUBCHEM_BOND_UDEF_STEREO_COUNT>
0

> <PUBCHEM_ISOTOPIC_ATOM_COUNT>
0

> <PUBCHEM_COMPONENT_COUNT>
1

> <PUBCHEM_CACTVS_TAUTO_COUNT>
2

> <PUBCHEM_CONFORMER_ID>
026E3EE900000003

> <PUBCHEM_MMFF94_ENERGY>
94.2163

> <PUBCHEM_FEATURE_SELFOVERLAP>
50.752

> <PUBCHEM_SHAPE_FINGERPRINT>
10670039 82 18125163977343711428
10675989 125 18049724010170922369
10842077 115 17413842625819193337
11059845 2 18192400092692826218
11479125 193 18268416950693282461
12717326 135 18200010955378683240
13008946 113 18260838077763057582
14347329 18 18339078319645840016
15082195 135 17917418788332101871
15198563 99 17912354635622942167
15276724 80 18272932735533508703
15530120 55 17772442652950963197
15721738 15 18127399060523098457
15979999 66 17116351763649648183
16067689 391 16914289207833707564
16067690 210 17755851266730915320
16120349 189 18333729109281699013
19053607 189 18338506465487261920
19304152 47 18115322200759498954
20737093 193 16191366054890444409
21033648 29 18187653444902964253
21049683 118 17677895630924996139
21133410 127 18334019397489402396
21388113 180 18263925445435289349
23569914 2 17271129289927020240
2838139 119 18335983048163359183
3418910 222 17325502488955747892
376196 1 18411416176862951031
4371632 12 17130401666651920569
44249763 50 18341044237435263080
44317340 157 18127405658420344533
44426701 194 17971446552718372277
508706 21 18268425917951486832
5219985 13 18262235517769959317
550186 83 16372149701547016749
7288768 16 18113059341816723203
9849439 229 18260544485786662597

> <PUBCHEM_SHAPE_MULTIPOLES>
645.44
16.91
7.2
1.85
2.33
1.5
-0.84
-28.86
3.11
-5.47
2.18
0.77
-0.93
4.1

> <PUBCHEM_SHAPE_SELFOVERLAP>
1386.056

> <PUBCHEM_SHAPE_VOLUME>
360.6

> <PUBCHEM_COORDINATE_TYPE>
2
5
10

$$$$
