7662560
  -OEChem-12032416373D

 72 74  0     1  0  0  0  0  0999 V2000
   -2.2737    3.7306   -0.4913 O   0  0  0  0  0  0  0  0  0  0  0  0
   -0.9564   -0.3898   -0.9770 O   0  0  0  0  0  0  0  0  0  0  0  0
    2.4392   -1.0576    2.4645 O   0  0  0  0  0  0  0  0  0  0  0  0
   -1.6133   -4.8410   -0.8359 O   0  0  0  0  0  0  0  0  0  0  0  0
   -0.3424   -3.6236    0.6432 O   0  0  0  0  0  0  0  0  0  0  0  0
   -1.1922    1.8960    0.4406 N   0  0  0  0  0  0  0  0  0  0  0  0
   -3.5371    1.9153    0.1333 N   0  0  0  0  0  0  0  0  0  0  0  0
    1.2687    0.5386    1.2215 N   0  0  0  0  0  0  0  0  0  0  0  0
   -2.1262   -1.5447    0.6713 N   0  0  0  0  0  0  0  0  0  0  0  0
    7.2057    0.6981   -1.2937 N   0  0  0  0  0  0  0  0  0  0  0  0
   -4.7974    2.4912   -0.2803 C   0  0  0  0  0  0  0  0  0  0  0  0
   -5.9442    2.0069    0.6133 C   0  0  0  0  0  0  0  0  0  0  0  0
   -5.0804    2.1943   -1.7568 C   0  0  0  0  0  0  0  0  0  0  0  0
   -6.2996    0.5409    0.3656 C   0  0  0  0  0  0  0  0  0  0  0  0
   -5.4373    0.7280   -2.0007 C   0  0  0  0  0  0  0  0  0  0  0  0
   -6.5879    0.2726   -1.1083 C   0  0  0  0  0  0  0  0  0  0  0  0
   -1.2266    0.6204    1.1720 C   0  0  2  0  0  0  0  0  0  0  0  0
    0.0373    0.3714    1.9964 C   0  0  0  0  0  0  0  0  0  0  0  0
    0.1151    2.5479    0.3212 C   0  0  0  0  0  0  0  0  0  0  0  0
    1.2497    1.5463    0.1544 C   0  0  0  0  0  0  0  0  0  0  0  0
   -2.3318    2.5962   -0.0061 C   0  0  0  0  0  0  0  0  0  0  0  0
   -1.4031   -0.4789    0.1635 C   0  0  0  0  0  0  0  0  0  0  0  0
    2.3979   -0.2085    1.5752 C   0  0  0  0  0  0  0  0  0  0  0  0
    3.6451    0.0272    0.8306 C   0  0  0  0  0  0  0  0  0  0  0  0
   -2.4533   -2.7192   -0.1045 C   0  0  2  0  0  0  0  0  0  0  0  0
    3.9219   -0.7136   -0.3185 C   0  0  0  0  0  0  0  0  0  0  0  0
    4.5507    0.9911    1.2739 C   0  0  0  0  0  0  0  0  0  0  0  0
   -3.7682   -3.3172    0.3706 C   0  0  0  0  0  0  0  0  0  0  0  0
   -1.3465   -3.7617   -0.0481 C   0  0  0  0  0  0  0  0  0  0  0  0
    5.1042   -0.4905   -1.0241 C   0  0  0  0  0  0  0  0  0  0  0  0
    5.7329    1.2143    0.5683 C   0  0  0  0  0  0  0  0  0  0  0  0
    6.0097    0.4735   -0.5808 C   0  0  0  0  0  0  0  0  0  0  0  0
    7.5088   -0.0763   -2.4810 C   0  0  0  0  0  0  0  0  0  0  0  0
    8.1539    1.6964   -0.8407 C   0  0  0  0  0  0  0  0  0  0  0  0
   -0.6231   -5.8746   -0.8317 C   0  0  0  0  0  0  0  0  0  0  0  0
   -4.7168    3.5789   -0.1621 H   0  0  0  0  0  0  0  0  0  0  0  0
   -5.6870    2.1445    1.6705 H   0  0  0  0  0  0  0  0  0  0  0  0
   -6.8320    2.6221    0.4191 H   0  0  0  0  0  0  0  0  0  0  0  0
   -5.9184    2.8197   -2.0907 H   0  0  0  0  0  0  0  0  0  0  0  0
   -4.2177    2.4649   -2.3773 H   0  0  0  0  0  0  0  0  0  0  0  0
   -5.4823   -0.1066    0.7041 H   0  0  0  0  0  0  0  0  0  0  0  0
   -7.1783    0.2733    0.9638 H   0  0  0  0  0  0  0  0  0  0  0  0
   -4.5590    0.0976   -1.8153 H   0  0  0  0  0  0  0  0  0  0  0  0
   -5.7110    0.5876   -3.0525 H   0  0  0  0  0  0  0  0  0  0  0  0
   -6.7704   -0.7973   -1.2593 H   0  0  0  0  0  0  0  0  0  0  0  0
   -7.5056    0.7975   -1.4012 H   0  0  0  0  0  0  0  0  0  0  0  0
   -2.0848    0.6403    1.8540 H   0  0  0  0  0  0  0  0  0  0  0  0
   -3.5372    0.9445    0.4206 H   0  0  0  0  0  0  0  0  0  0  0  0
    0.0193   -0.6258    2.4508 H   0  0  0  0  0  0  0  0  0  0  0  0
    0.0933    1.0967    2.8178 H   0  0  0  0  0  0  0  0  0  0  0  0
    0.1096    3.2479   -0.5211 H   0  0  0  0  0  0  0  0  0  0  0  0
    0.2574    3.1386    1.2345 H   0  0  0  0  0  0  0  0  0  0  0  0
    1.1630    1.0107   -0.7969 H   0  0  0  0  0  0  0  0  0  0  0  0
    2.2012    2.0851    0.1348 H   0  0  0  0  0  0  0  0  0  0  0  0
   -2.3818   -1.5421    1.6548 H   0  0  0  0  0  0  0  0  0  0  0  0
   -2.5463   -2.4093   -1.1525 H   0  0  0  0  0  0  0  0  0  0  0  0
    3.2221   -1.4665   -0.6721 H   0  0  0  0  0  0  0  0  0  0  0  0
    4.3438    1.5736    2.1681 H   0  0  0  0  0  0  0  0  0  0  0  0
   -4.0721   -4.1655   -0.2515 H   0  0  0  0  0  0  0  0  0  0  0  0
   -4.5703   -2.5717    0.3367 H   0  0  0  0  0  0  0  0  0  0  0  0
   -3.6901   -3.6753    1.4036 H   0  0  0  0  0  0  0  0  0  0  0  0
    5.2731   -1.0922   -1.9116 H   0  0  0  0  0  0  0  0  0  0  0  0
    6.4047    1.9747    0.9540 H   0  0  0  0  0  0  0  0  0  0  0  0
    8.4716    0.2121   -2.9176 H   0  0  0  0  0  0  0  0  0  0  0  0
    6.7545    0.0816   -3.2599 H   0  0  0  0  0  0  0  0  0  0  0  0
    7.5799   -1.1449   -2.2492 H   0  0  0  0  0  0  0  0  0  0  0  0
    7.7037    2.6953   -0.8325 H   0  0  0  0  0  0  0  0  0  0  0  0
    8.5341    1.4563    0.1585 H   0  0  0  0  0  0  0  0  0  0  0  0
    9.0267    1.7546   -1.5005 H   0  0  0  0  0  0  0  0  0  0  0  0
    0.3310   -5.4865   -1.2010 H   0  0  0  0  0  0  0  0  0  0  0  0
   -0.5100   -6.2863    0.1757 H   0  0  0  0  0  0  0  0  0  0  0  0
   -0.9604   -6.6711   -1.5004 H   0  0  0  0  0  0  0  0  0  0  0  0
  1 21  2  0  0  0  0
  2 22  2  0  0  0  0
  3 23  2  0  0  0  0
  4 29  1  0  0  0  0
  4 35  1  0  0  0  0
  5 29  2  0  0  0  0
  6 17  1  0  0  0  0
  6 19  1  0  0  0  0
  6 21  1  0  0  0  0
  7 11  1  0  0  0  0
  7 21  1  0  0  0  0
  7 48  1  0  0  0  0
  8 18  1  0  0  0  0
  8 20  1  0  0  0  0
  8 23  1  0  0  0  0
  9 22  1  0  0  0  0
  9 25  1  0  0  0  0
  9 55  1  0  0  0  0
 10 32  1  0  0  0  0
 10 33  1  0  0  0  0
 10 34  1  0  0  0  0
 11 12  1  0  0  0  0
 11 13  1  0  0  0  0
 11 36  1  0  0  0  0
 12 14  1  0  0  0  0
 12 37  1  0  0  0  0
 12 38  1  0  0  0  0
 13 15  1  0  0  0  0
 13 39  1  0  0  0  0
 13 40  1  0  0  0  0
 14 16  1  0  0  0  0
 14 41  1  0  0  0  0
 14 42  1  0  0  0  0
 15 16  1  0  0  0  0
 15 43  1  0  0  0  0
 15 44  1  0  0  0  0
 16 45  1  0  0  0  0
 16 46  1  0  0  0  0
 17 18  1  0  0  0  0
 17 22  1  0  0  0  0
 17 47  1  0  0  0  0
 18 49  1  0  0  0  0
 18 50  1  0  0  0  0
 19 20  1  0  0  0  0
 19 51  1  0  0  0  0
 19 52  1  0  0  0  0
 20 53  1  0  0  0  0
 20 54  1  0  0  0  0
 23 24  1  0  0  0  0
 24 26  2  0  0  0  0
 24 27  1  0  0  0  0
 25 28  1  0  0  0  0
 25 29  1  0  0  0  0
 25 56  1  0  0  0  0
 26 30  1  0  0  0  0
 26 57  1  0  0  0  0
 27 31  2  0  0  0  0
 27 58  1  0  0  0  0
 28 59  1  0  0  0  0
 28 60  1  0  0  0  0
 28 61  1  0  0  0  0
 30 32  2  0  0  0  0
 30 62  1  0  0  0  0
 31 32  1  0  0  0  0
 31 63  1  0  0  0  0
 33 64  1  0  0  0  0
 33 65  1  0  0  0  0
 33 66  1  0  0  0  0
 34 67  1  0  0  0  0
 34 68  1  0  0  0  0
 34 69  1  0  0  0  0
 35 70  1  0  0  0  0
 35 71  1  0  0  0  0
 35 72  1  0  0  0  0
M  END
> <PUBCHEM_COMPOUND_CID>
7662560

> <PUBCHEM_CONFORMER_RMSD>
1.2

> <PUBCHEM_CONFORMER_DIVERSEORDER>
1
15
61
10
83
40
8
32
17
76
81
86
18
64
20
75
66
33
69
78
73
57
84
77
37
74
71
68
23
58
54
28
30
46
67
14
38
48
53
29
60
47
65
34
43
24
62
9
41
59
21
5
70
51
35
79
27
52
36
39
85
80
72
45
50
82
3
42
11
6
7
16
44
25
63
13
4
26
55
19
56
12
31
2
22
49

> <PUBCHEM_MMFF94_PARTIAL_CHARGES>
35
1 -0.57
10 -0.84
11 0.3
17 0.36
18 0.3
19 0.3
2 -0.57
20 0.3
21 0.69
22 0.57
23 0.54
24 0.09
25 0.36
26 -0.15
27 -0.15
29 0.66
3 -0.57
30 -0.15
31 -0.15
32 0.1
33 0.37
34 0.37
35 0.28
4 -0.43
48 0.37
5 -0.57
55 0.37
57 0.15
58 0.15
6 -0.66
62 0.15
63 0.15
7 -0.73
8 -0.66
9 -0.73

> <PUBCHEM_EFFECTIVE_ROTOR_COUNT>
13.4

> <PUBCHEM_PHARMACOPHORE_FEATURES>
10
1 1 acceptor
1 10 cation
1 2 acceptor
1 3 acceptor
1 5 acceptor
1 7 donor
1 9 donor
6 11 12 13 14 15 16 rings
6 24 26 27 30 31 32 rings
6 6 8 17 18 19 20 rings

> <PUBCHEM_HEAVY_ATOM_COUNT>
35

> <PUBCHEM_ATOM_DEF_STEREO_COUNT>
2

> <PUBCHEM_ATOM_UDEF_STEREO_COUNT>
0

> <PUBCHEM_BOND_DEF_STEREO_COUNT>
0

> <PUBCHEM_BOND_UDEF_STEREO_COUNT>
0

> <PUBCHEM_ISOTOPIC_ATOM_COUNT>
0

> <PUBCHEM_COMPONENT_COUNT>
1

> <PUBCHEM_CACTVS_TAUTO_COUNT>
4

> <PUBCHEM_CONFORMER_ID>
0074EBE000000001

> <PUBCHEM_MMFF94_ENERGY>
92.3173

> <PUBCHEM_FEATURE_SELFOVERLAP>
50.747

> <PUBCHEM_SHAPE_FINGERPRINT>
10940486 97 18263081191913160629
11200772 71 18261393394609774452
11285246 1 17839988023040686071
11445158 3 17755558470178876006
11488393 25 17978221665732092611
11991303 11 18261391178264725063
13257819 37 18410575059125585247
13690498 29 18192714672629249887
13692115 46 18339657736177288343
13911987 19 18263913372498654253
14251757 5 18409728499374953075
14790565 3 18339353072729661577
14930077 153 17970360410521479564
15131766 46 15358562868226553868
15160630 1 17912665518118888881
15183329 4 18410851049344825189
15361156 5 17988080101276264748
15444296 7 17968107463872606557
16090146 7 18270982179385992632
19958102 18 18340764858190835998
20028762 73 18200857562135844215
20511986 3 17603579730050099112
23516275 137 16629703763724621855
23559900 14 18271802467043539264
23576562 1 18041282183378974861
255183 451 17619909895594540271
3103668 31 18195246843713615614
3383291 50 18341608243897131537
437795 70 17986654052138665959
44249763 50 18337663213900567328
5265222 85 18411984671486509605
6898599 12 18335987570747746924

> <PUBCHEM_SHAPE_MULTIPOLES>
666.03
18.14
5.24
1.75
21.9
9.75
0.15
-11.39
10.25
-6.89
1.14
1.34
-0.13
0.54

> <PUBCHEM_SHAPE_SELFOVERLAP>
1378.329

> <PUBCHEM_SHAPE_VOLUME>
376.6

> <PUBCHEM_COORDINATE_TYPE>
2
5
10

$$$$
