56775530
  -OEChem-12032416273D

 40 41  0     0  0  0  0  0  0999 V2000
    0.7859   -1.3713    1.8605 O   0  0  0  0  0  0  0  0  0  0  0  0
   -2.4487    1.5266    0.0424 O   0  0  0  0  0  0  0  0  0  0  0  0
   -4.6315   -0.4659    0.5983 O   0  0  0  0  0  0  0  0  0  0  0  0
    3.0126   -0.1815    0.1700 N   0  0  0  0  0  0  0  0  0  0  0  0
   -1.0717    1.7108    0.0102 N   0  0  0  0  0  0  0  0  0  0  0  0
    1.5413   -0.2356    0.2186 C   0  0  0  0  0  0  0  0  0  0  0  0
    1.1110   -1.6737    0.4845 C   0  0  0  0  0  0  0  0  0  0  0  0
    1.0875    0.0270    1.6501 C   0  0  0  0  0  0  0  0  0  0  0  0
    0.8921    0.5227   -0.8985 C   0  0  0  0  0  0  0  0  0  0  0  0
    3.4578   -0.4561   -1.1955 C   0  0  0  0  0  0  0  0  0  0  0  0
    3.4583    1.1430    0.6003 C   0  0  0  0  0  0  0  0  0  0  0  0
   -0.5978    0.6583   -0.6626 C   0  0  0  0  0  0  0  0  0  0  0  0
    3.0035   -1.8311   -1.6550 C   0  0  0  0  0  0  0  0  0  0  0  0
    4.9735    1.2498    0.5676 C   0  0  0  0  0  0  0  0  0  0  0  0
   -1.6189   -0.2150   -1.0753 C   0  0  0  0  0  0  0  0  0  0  0  0
   -2.7622    0.3765   -0.6071 C   0  0  0  0  0  0  0  0  0  0  0  0
   -4.1863    0.0261   -0.6688 C   0  0  0  0  0  0  0  0  0  0  0  0
   -6.0063   -0.8106    0.5602 C   0  0  0  0  0  0  0  0  0  0  0  0
    0.2278   -2.0403   -0.0458 H   0  0  0  0  0  0  0  0  0  0  0  0
    1.8557   -2.4724    0.4876 H   0  0  0  0  0  0  0  0  0  0  0  0
    1.7992    0.3263    2.4229 H   0  0  0  0  0  0  0  0  0  0  0  0
    0.1927    0.6265    1.8255 H   0  0  0  0  0  0  0  0  0  0  0  0
    1.0022    0.0391   -1.8753 H   0  0  0  0  0  0  0  0  0  0  0  0
    1.2838    1.5398   -1.0137 H   0  0  0  0  0  0  0  0  0  0  0  0
    4.5527   -0.5061   -1.2179 H   0  0  0  0  0  0  0  0  0  0  0  0
    3.1836    0.3139   -1.9263 H   0  0  0  0  0  0  0  0  0  0  0  0
    3.1861    1.3735    1.6318 H   0  0  0  0  0  0  0  0  0  0  0  0
    3.0553    1.9549   -0.0149 H   0  0  0  0  0  0  0  0  0  0  0  0
    3.4848   -2.0434   -2.6187 H   0  0  0  0  0  0  0  0  0  0  0  0
    1.9341   -1.9306   -1.8478 H   0  0  0  0  0  0  0  0  0  0  0  0
    3.3470   -2.6222   -0.9804 H   0  0  0  0  0  0  0  0  0  0  0  0
    5.2895    2.1597    1.0908 H   0  0  0  0  0  0  0  0  0  0  0  0
    5.3674    1.3254   -0.4506 H   0  0  0  0  0  0  0  0  0  0  0  0
    5.4504    0.4027    1.0727 H   0  0  0  0  0  0  0  0  0  0  0  0
   -1.5393   -1.1361   -1.6335 H   0  0  0  0  0  0  0  0  0  0  0  0
   -4.7746    0.9099   -0.9427 H   0  0  0  0  0  0  0  0  0  0  0  0
   -4.3495   -0.7441   -1.4320 H   0  0  0  0  0  0  0  0  0  0  0  0
   -6.2970   -1.1787    1.5479 H   0  0  0  0  0  0  0  0  0  0  0  0
   -6.1847   -1.6036   -0.1725 H   0  0  0  0  0  0  0  0  0  0  0  0
   -6.6169    0.0660    0.3227 H   0  0  0  0  0  0  0  0  0  0  0  0
  1  7  1  0  0  0  0
  1  8  1  0  0  0  0
  2  5  1  0  0  0  0
  2 16  1  0  0  0  0
  3 17  1  0  0  0  0
  3 18  1  0  0  0  0
  4  6  1  0  0  0  0
  4 10  1  0  0  0  0
  4 11  1  0  0  0  0
  5 12  2  0  0  0  0
  6  7  1  0  0  0  0
  6  8  1  0  0  0  0
  6  9  1  0  0  0  0
  7 19  1  0  0  0  0
  7 20  1  0  0  0  0
  8 21  1  0  0  0  0
  8 22  1  0  0  0  0
  9 12  1  0  0  0  0
  9 23  1  0  0  0  0
  9 24  1  0  0  0  0
 10 13  1  0  0  0  0
 10 25  1  0  0  0  0
 10 26  1  0  0  0  0
 11 14  1  0  0  0  0
 11 27  1  0  0  0  0
 11 28  1  0  0  0  0
 12 15  1  0  0  0  0
 13 29  1  0  0  0  0
 13 30  1  0  0  0  0
 13 31  1  0  0  0  0
 14 32  1  0  0  0  0
 14 33  1  0  0  0  0
 14 34  1  0  0  0  0
 15 16  2  0  0  0  0
 15 35  1  0  0  0  0
 16 17  1  0  0  0  0
 17 36  1  0  0  0  0
 17 37  1  0  0  0  0
 18 38  1  0  0  0  0
 18 39  1  0  0  0  0
 18 40  1  0  0  0  0
M  END
> <PUBCHEM_COMPOUND_CID>
56775530

> <PUBCHEM_CONFORMER_RMSD>
0.8

> <PUBCHEM_CONFORMER_DIVERSEORDER>
1
21
6
18
16
19
20
14
17
5
10
15
12
7
3
9
13
2
11
8
4

> <PUBCHEM_MMFF94_PARTIAL_CHARGES>
17
1 -0.52
10 0.27
11 0.27
12 0.11
15 -0.15
16 -0.04
17 0.46
18 0.28
2 -0.02
3 -0.56
35 0.15
4 -0.75
5 -0.41
6 0.21
7 0.26
8 0.26
9 0.18

> <PUBCHEM_EFFECTIVE_ROTOR_COUNT>
7.8

> <PUBCHEM_PHARMACOPHORE_FEATURES>
6
1 1 acceptor
1 3 acceptor
1 4 cation
1 5 acceptor
4 1 6 7 8 rings
5 2 5 12 15 16 rings

> <PUBCHEM_HEAVY_ATOM_COUNT>
18

> <PUBCHEM_ATOM_DEF_STEREO_COUNT>
0

> <PUBCHEM_ATOM_UDEF_STEREO_COUNT>
0

> <PUBCHEM_BOND_DEF_STEREO_COUNT>
0

> <PUBCHEM_BOND_UDEF_STEREO_COUNT>
0

> <PUBCHEM_ISOTOPIC_ATOM_COUNT>
0

> <PUBCHEM_COMPONENT_COUNT>
1

> <PUBCHEM_CACTVS_TAUTO_COUNT>
1

> <PUBCHEM_CONFORMER_ID>
0362536A00000001

> <PUBCHEM_MMFF94_ENERGY>
47.5414

> <PUBCHEM_FEATURE_SELFOVERLAP>
30.447

> <PUBCHEM_SHAPE_FINGERPRINT>
104564 63 13182757917301589370
106641 1 17916868058034981867
11552529 35 16629389436986233775
12011746 2 11602816866239876520
12403260 363 13407064894969455478
12596602 18 17988936587160048243
12616999 72 16805327669249411983
12633257 1 15267341808528841079
12730499 353 18202288039173559654
128620 24 17967530168807140991
13464513 79 18114183077038533491
13760787 19 16559028324210534852
13911882 115 18341342179290134451
13955234 65 17846494825421580918
14252887 29 18412830183328158815
14787075 74 18263641938601268513
14863182 85 17312821550474405298
15048467 5 16558752355535196544
15207287 21 15864070987716041785
1601671 61 13398641544968383409
16945 1 17385732348460710140
17349148 13 15357693059164066888
17834072 8 10375878484686567057
18222031 100 14201388353758864296
192875 21 14129055906940172764
200 152 15430029963847426405
20233049 118 14045742646760101618
21069387 34 13045937971632951753
212847 35 15482675663048949091
21285901 2 11239462417828367144
21503847 285 14189569762932119299
22079108 93 18188482605345305000
23402539 116 18263912388844940046
239999 70 18335144197557023303
3286 77 18188766125037424894
3323516 105 18342464694762436374
347723 3 15554450717243165520
351380 180 12685088193998449991
474 4 18334853974328575220
474229 33 17749386005057168170
5104073 3 18271242703475115256
6333272 397 18040995180858091364

> <PUBCHEM_SHAPE_MULTIPOLES>
342.86
9.91
1.58
1.42
10.37
0.3
0.53
-0.13
0.85
-1.53
-0.21
-0.16
0.31
0.84

> <PUBCHEM_SHAPE_SELFOVERLAP>
699.952

> <PUBCHEM_SHAPE_VOLUME>
202.4

> <PUBCHEM_COORDINATE_TYPE>
2
5
10

$$$$
