45360886
  -OEChem-12032416253D

 72 76  0     1  0  0  0  0  0999 V2000
   -0.9434   -0.1534   -1.3231 O   0  0  0  0  0  0  0  0  0  0  0  0
    5.2982    1.5737   -0.1468 O   0  0  0  0  0  0  0  0  0  0  0  0
    0.6275    2.6332    0.8579 N   0  0  1  0  0  0  0  0  0  0  0  0
   -2.7080    1.3696    0.0403 N   0  0  1  0  0  0  0  0  0  0  0  0
    0.4715    1.5746   -1.8213 N   0  0  0  0  0  0  0  0  0  0  0  0
    4.5445   -0.6258    0.0559 N   0  0  0  0  0  0  0  0  0  0  0  0
   -7.5361   -2.8106    0.3348 N   0  0  0  0  0  0  0  0  0  0  0  0
   -0.8381    2.7674    0.7046 C   0  0  1  0  0  0  0  0  0  0  0  0
   -1.5248    2.0632   -0.5024 C   0  0  1  0  0  0  0  0  0  0  0  0
   -1.6440    2.2187    1.8968 C   0  0  0  0  0  0  0  0  0  0  0  0
   -3.0254    1.9992    1.3172 C   0  0  0  0  0  0  0  0  0  0  0  0
    1.4208    3.2366   -0.2492 C   0  0  2  0  0  0  0  0  0  0  0  0
   -0.6581    1.0398   -1.2316 C   0  0  0  0  0  0  0  0  0  0  0  0
    0.8773    2.9572   -1.6641 C   0  0  0  0  0  0  0  0  0  0  0  0
    2.8789    2.7338   -0.2045 C   0  0  0  0  0  0  0  0  0  0  0  0
   -3.8462    1.3713   -0.8698 C   0  0  0  0  0  0  0  0  0  0  0  0
    1.0699    3.1722    2.1550 C   0  0  0  0  0  0  0  0  0  0  0  0
    2.9549    1.2249   -0.0756 C   0  0  0  0  0  0  0  0  0  0  0  0
   -4.8199    0.2677   -0.5519 C   0  0  0  0  0  0  0  0  0  0  0  0
    4.3884    0.7487   -0.0600 C   0  0  0  0  0  0  0  0  0  0  0  0
   -4.5264   -1.0471   -0.9135 C   0  0  0  0  0  0  0  0  0  0  0  0
   -6.0156    0.5602    0.1044 C   0  0  0  0  0  0  0  0  0  0  0  0
    3.4503   -1.6141    0.1599 C   0  0  0  0  0  0  0  0  0  0  0  0
    5.7728   -1.3182    0.0932 C   0  0  0  0  0  0  0  0  0  0  0  0
    4.0852   -3.0040    0.2759 C   0  0  0  0  0  0  0  0  0  0  0  0
    5.5442   -2.6901    0.2184 C   0  0  0  0  0  0  0  0  0  0  0  0
   -5.4284   -2.0694   -0.6190 C   0  0  0  0  0  0  0  0  0  0  0  0
   -6.9177   -0.4620    0.3988 C   0  0  0  0  0  0  0  0  0  0  0  0
   -6.6240   -1.7769    0.0370 C   0  0  0  0  0  0  0  0  0  0  0  0
    7.0661   -0.8212    0.0248 C   0  0  0  0  0  0  0  0  0  0  0  0
    6.5946   -3.5935    0.2781 C   0  0  0  0  0  0  0  0  0  0  0  0
    8.1312   -1.7256    0.0838 C   0  0  0  0  0  0  0  0  0  0  0  0
    7.8980   -3.1019    0.2097 C   0  0  0  0  0  0  0  0  0  0  0  0
   -7.2404   -4.1800   -0.0368 C   0  0  0  0  0  0  0  0  0  0  0  0
   -8.7778   -2.5181    1.0230 C   0  0  0  0  0  0  0  0  0  0  0  0
   -1.0794    3.8394    0.6325 H   0  0  0  0  0  0  0  0  0  0  0  0
   -1.8385    2.8292   -1.2241 H   0  0  0  0  0  0  0  0  0  0  0  0
   -1.6740    2.9172    2.7394 H   0  0  0  0  0  0  0  0  0  0  0  0
   -1.2278    1.2653    2.2490 H   0  0  0  0  0  0  0  0  0  0  0  0
   -3.6268    1.3537    1.9644 H   0  0  0  0  0  0  0  0  0  0  0  0
   -3.5394    2.9609    1.1937 H   0  0  0  0  0  0  0  0  0  0  0  0
    1.4403    4.3294   -0.1351 H   0  0  0  0  0  0  0  0  0  0  0  0
    1.6290    3.1642   -2.4340 H   0  0  0  0  0  0  0  0  0  0  0  0
    0.0274    3.6104   -1.8858 H   0  0  0  0  0  0  0  0  0  0  0  0
    3.4156    3.0659   -1.1033 H   0  0  0  0  0  0  0  0  0  0  0  0
    3.4140    3.2063    0.6285 H   0  0  0  0  0  0  0  0  0  0  0  0
   -4.3499    2.3470   -0.8967 H   0  0  0  0  0  0  0  0  0  0  0  0
   -3.5073    1.1995   -1.9013 H   0  0  0  0  0  0  0  0  0  0  0  0
    1.0492    0.9612   -2.3878 H   0  0  0  0  0  0  0  0  0  0  0  0
    2.1445    3.0453    2.3122 H   0  0  0  0  0  0  0  0  0  0  0  0
    0.6100    2.6363    2.9912 H   0  0  0  0  0  0  0  0  0  0  0  0
    0.8340    4.2380    2.2517 H   0  0  0  0  0  0  0  0  0  0  0  0
    2.4827    0.8832    0.8506 H   0  0  0  0  0  0  0  0  0  0  0  0
    2.4884    0.7221   -0.9200 H   0  0  0  0  0  0  0  0  0  0  0  0
   -3.5993   -1.2880   -1.4266 H   0  0  0  0  0  0  0  0  0  0  0  0
   -6.2549    1.5804    0.3927 H   0  0  0  0  0  0  0  0  0  0  0  0
    2.8143   -1.5408   -0.7292 H   0  0  0  0  0  0  0  0  0  0  0  0
    2.8375   -1.3822    1.0379 H   0  0  0  0  0  0  0  0  0  0  0  0
    3.7828   -3.6465   -0.5568 H   0  0  0  0  0  0  0  0  0  0  0  0
    3.8187   -3.4811    1.2240 H   0  0  0  0  0  0  0  0  0  0  0  0
   -5.1540   -3.0752   -0.9212 H   0  0  0  0  0  0  0  0  0  0  0  0
   -7.8334   -0.1833    0.9105 H   0  0  0  0  0  0  0  0  0  0  0  0
    7.2834    0.2353   -0.0725 H   0  0  0  0  0  0  0  0  0  0  0  0
    6.4126   -4.6584    0.3759 H   0  0  0  0  0  0  0  0  0  0  0  0
    9.1526   -1.3576    0.0317 H   0  0  0  0  0  0  0  0  0  0  0  0
    8.7385   -3.7889    0.2542 H   0  0  0  0  0  0  0  0  0  0  0  0
   -8.0446   -4.8626    0.2597 H   0  0  0  0  0  0  0  0  0  0  0  0
   -6.3307   -4.5369    0.4587 H   0  0  0  0  0  0  0  0  0  0  0  0
   -7.1316   -4.2811   -1.1224 H   0  0  0  0  0  0  0  0  0  0  0  0
   -9.3750   -3.4229    1.1827 H   0  0  0  0  0  0  0  0  0  0  0  0
   -9.4021   -1.8326    0.4393 H   0  0  0  0  0  0  0  0  0  0  0  0
   -8.5899   -2.0905    2.0142 H   0  0  0  0  0  0  0  0  0  0  0  0
  1 13  2  0  0  0  0
  2 20  2  0  0  0  0
  3  8  1  0  0  0  0
  3 12  1  0  0  0  0
  3 17  1  0  0  0  0
  4  9  1  0  0  0  0
  4 11  1  0  0  0  0
  4 16  1  0  0  0  0
  5 13  1  0  0  0  0
  5 14  1  0  0  0  0
  5 49  1  0  0  0  0
  6 20  1  0  0  0  0
  6 23  1  0  0  0  0
  6 24  1  0  0  0  0
  7 29  1  0  0  0  0
  7 34  1  0  0  0  0
  7 35  1  0  0  0  0
  8  9  1  0  0  0  0
  8 10  1  0  0  0  0
  8 36  1  0  0  0  0
  9 13  1  0  0  0  0
  9 37  1  0  0  0  0
 10 11  1  0  0  0  0
 10 38  1  0  0  0  0
 10 39  1  0  0  0  0
 11 40  1  0  0  0  0
 11 41  1  0  0  0  0
 12 14  1  0  0  0  0
 12 15  1  0  0  0  0
 12 42  1  0  0  0  0
 14 43  1  0  0  0  0
 14 44  1  0  0  0  0
 15 18  1  0  0  0  0
 15 45  1  0  0  0  0
 15 46  1  0  0  0  0
 16 19  1  0  0  0  0
 16 47  1  0  0  0  0
 16 48  1  0  0  0  0
 17 50  1  0  0  0  0
 17 51  1  0  0  0  0
 17 52  1  0  0  0  0
 18 20  1  0  0  0  0
 18 53  1  0  0  0  0
 18 54  1  0  0  0  0
 19 21  2  0  0  0  0
 19 22  1  0  0  0  0
 21 27  1  0  0  0  0
 21 55  1  0  0  0  0
 22 28  2  0  0  0  0
 22 56  1  0  0  0  0
 23 25  1  0  0  0  0
 23 57  1  0  0  0  0
 23 58  1  0  0  0  0
 24 26  1  0  0  0  0
 24 30  2  0  0  0  0
 25 26  1  0  0  0  0
 25 59  1  0  0  0  0
 25 60  1  0  0  0  0
 26 31  2  0  0  0  0
 27 29  2  0  0  0  0
 27 61  1  0  0  0  0
 28 29  1  0  0  0  0
 28 62  1  0  0  0  0
 30 32  1  0  0  0  0
 30 63  1  0  0  0  0
 31 33  1  0  0  0  0
 31 64  1  0  0  0  0
 32 33  2  0  0  0  0
 32 65  1  0  0  0  0
 33 66  1  0  0  0  0
 34 67  1  0  0  0  0
 34 68  1  0  0  0  0
 34 69  1  0  0  0  0
 35 70  1  0  0  0  0
 35 71  1  0  0  0  0
 35 72  1  0  0  0  0
M  END
> <PUBCHEM_COMPOUND_CID>
45360886

> <PUBCHEM_CONFORMER_RMSD>
1

> <PUBCHEM_CONFORMER_DIVERSEORDER>
1
232
208
170
17
224
78
96
107
70
35
32
209
94
92
246
233
181
98
42
99
2
207
25
247
179
271
265
176
149
227
121
161
108
30
204
228
205
182
7
129
235
251
122
81
111
136
202
124
143
95
269
263
84
138
253
238
180
8
133
120
100
116
13
163
242
197
236
200
131
114
141
261
106
88
216
174
191
198
186
274
85
169
97
67
273
119
9
38
252
5
226
199
128
11
112
127
148
230
175
110
213
248
184
178
62
218
65
222
153
160
172
156
72
194
240
101
93
260
145
83
77
71
206
126
104
171
158
26
41
220
189
270
29
262
268
75
210
27
89
37
59
215
142
258
244
109
241
266
219
183
40
203
33
80
144
140
61
255
150
168
45
193
254
68
264
132
24
229
185
239
12
53
188
15
16
257
187
155
57
243
56
49
3
272
23
46
249
225
64
164
74
221
79
217
245
212
103
250
73
87
19
51
177
157
58
102
55
48
151
267
195
256
165
43
159
196
39
69
275
115
234
76
86
105
162
137
134
211
167
237
166
44
22
82
113
90
125
63
154
6
66
152
117
36
54
146
223
91
31
173
139
201
18
50
60
47
147
52
231
123
28
135
14
20
214
259
130
118
10
190
34
192
4
21

> <PUBCHEM_MMFF94_PARTIAL_CHARGES>
42
1 -0.57
11 0.27
12 0.27
13 0.57
14 0.3
16 0.41
17 0.27
18 0.06
19 -0.14
2 -0.57
20 0.57
21 -0.15
22 -0.15
23 0.3
24 0.12
25 0.14
26 -0.14
27 -0.15
28 -0.15
29 0.1
3 -0.81
30 -0.15
31 -0.15
32 -0.15
33 -0.15
34 0.37
35 0.37
4 -0.81
49 0.37
5 -0.73
55 0.15
56 0.15
6 -0.48
61 0.15
62 0.15
63 0.15
64 0.15
65 0.15
66 0.15
7 -0.84
8 0.27
9 0.33

> <PUBCHEM_EFFECTIVE_ROTOR_COUNT>
9

> <PUBCHEM_PHARMACOPHORE_FEATURES>
11
1 1 acceptor
1 2 acceptor
1 3 cation
1 4 cation
1 5 donor
1 7 cation
5 4 8 9 10 11 rings
5 6 23 24 25 26 rings
6 19 21 22 27 28 29 rings
6 24 26 30 31 32 33 rings
7 3 5 8 9 12 13 14 rings

> <PUBCHEM_HEAVY_ATOM_COUNT>
35

> <PUBCHEM_ATOM_DEF_STEREO_COUNT>
3

> <PUBCHEM_ATOM_UDEF_STEREO_COUNT>
0

> <PUBCHEM_BOND_DEF_STEREO_COUNT>
0

> <PUBCHEM_BOND_UDEF_STEREO_COUNT>
0

> <PUBCHEM_ISOTOPIC_ATOM_COUNT>
0

> <PUBCHEM_COMPONENT_COUNT>
1

> <PUBCHEM_CACTVS_TAUTO_COUNT>
3

> <PUBCHEM_CONFORMER_ID>
02B426F600000001

> <PUBCHEM_MMFF94_ENERGY>
122.5768

> <PUBCHEM_FEATURE_SELFOVERLAP>
55.945

> <PUBCHEM_SHAPE_FINGERPRINT>
10190206 1 12468638296521885919
11409948 35 18338796832375317623
11409948 8 18341036490463456026
11456790 92 18131082550126490867
11497681 19 18407761418029740580
117089 54 18411704253177982878
11756154 67 18336547131908967094
11963148 33 17908702075222681703
12013929 27 18260550025941287535
12166972 35 18187367614713234948
12522641 126 17968666050139099564
1361 4 18264489653824209935
13690498 29 18041274353563643813
13782708 43 18187638107126370293
13947947 140 18342176639975177135
13989917 61 18408886273885509634
14068700 675 18412546496306290305
15019793 15 17981038932092129935
15064981 113 13263254195392116722
15131766 46 8934712258542236336
15347591 1 18409449189279245957
15361156 5 17605006810154293572
15475509 35 18270678795934267433
15510800 12 18113343032616439059
15950262 2 9799694813634872653
16067689 302 18411422834262453782
16728300 4 18271523117721341925
16994733 274 10303808770034548516
19246450 95 17632300013402622121
19319366 153 17983292922481580516
19841028 212 18408602548466670994
20165401 70 18338796835989985159
20775530 9 18267564880504578710
208703 8 18410006628767708747
20982279 24 17459484406963243147
21033648 29 14764349293047798936
21130935 74 18195530522867541163
21197605 99 18412825773141109366
21344244 246 18261678168338198100
23569917 315 18192993722358453354
24983565 74 18053935423674962279
25269216 80 15864068781131434551
2838139 119 8502069874021098528
3886686 26 17409382675806807221
393628 194 10879691205008111154
406291 66 18410573989494508339
439807 62 18410575089511979633
4461854 278 17775565351731170702
44880568 143 16950274114117962165
474113 269 18130210624214904949
5104073 3 17704355471950995177
5718773 13 18408885131027946429
58260988 647 18261396684834623017
5874358 3 17059187389964431791
7970288 3 18267299833925552550
9555976 147 17845947221106857545
96874 4 18412543206229615267
9896288 288 17486496992925657656

> <PUBCHEM_SHAPE_MULTIPOLES>
683.64
24.71
5.38
1.3
5.66
1.65
0.17
37
3.09
-0.4
0.94
0.75
-1.17
-0.39

> <PUBCHEM_SHAPE_SELFOVERLAP>
1464.949

> <PUBCHEM_SHAPE_VOLUME>
379.4

> <PUBCHEM_COORDINATE_TYPE>
2
5
10

$$$$
