26745197
  -OEChem-12032416183D

 52 54  0     1  0  0  0  0  0999 V2000
    0.2774   -0.5128   -1.0341 O   0  0  0  0  0  0  0  0  0  0  0  0
    3.4587   -1.6544    1.3106 O   0  0  0  0  0  0  0  0  0  0  0  0
   -6.5504    0.1719   -0.1757 O   0  0  0  0  0  0  0  0  0  0  0  0
    2.4396    0.2202    0.3685 N   0  0  0  0  0  0  0  0  0  0  0  0
    1.2821    3.5623   -0.9021 N   0  0  0  0  0  0  0  0  0  0  0  0
   -0.1550    3.4899    0.8060 N   0  0  0  0  0  0  0  0  0  0  0  0
   -0.5627   -1.6459    0.8179 N   0  0  0  0  0  0  0  0  0  0  0  0
    4.5492   -0.5515   -0.3846 N   0  0  0  0  0  0  0  0  0  0  0  0
    1.1819   -0.0296    1.1253 C   0  0  1  0  0  0  0  0  0  0  0  0
    0.5192    1.2294    1.7216 C   0  0  0  0  0  0  0  0  0  0  0  0
    2.4811    1.3351   -0.6234 C   0  0  0  0  0  0  0  0  0  0  0  0
    0.6074    2.3563    0.7739 C   0  0  0  0  0  0  0  0  0  0  0  0
    1.5018    2.3768   -0.2655 C   0  0  0  0  0  0  0  0  0  0  0  0
    0.2676   -0.7460    0.1717 C   0  0  0  0  0  0  0  0  0  0  0  0
    3.4835   -0.7287    0.4935 C   0  0  0  0  0  0  0  0  0  0  0  0
    0.2753    4.1973   -0.2194 C   0  0  0  0  0  0  0  0  0  0  0  0
    5.6915   -1.4371   -0.3959 C   0  0  0  0  0  0  0  0  0  0  0  0
   -1.5502   -2.4454    0.1295 C   0  0  0  0  0  0  0  0  0  0  0  0
    6.9485   -0.6747   -0.7942 C   0  0  0  0  0  0  0  0  0  0  0  0
    5.4436   -2.6177   -1.3265 C   0  0  0  0  0  0  0  0  0  0  0  0
   -2.8787   -1.7505    0.0487 C   0  0  0  0  0  0  0  0  0  0  0  0
   -3.6965   -1.6747    1.1763 C   0  0  0  0  0  0  0  0  0  0  0  0
   -3.2950   -1.1802   -1.1543 C   0  0  0  0  0  0  0  0  0  0  0  0
   -4.9304   -1.0290    1.1008 C   0  0  0  0  0  0  0  0  0  0  0  0
   -4.5290   -0.5345   -1.2298 C   0  0  0  0  0  0  0  0  0  0  0  0
   -5.3467   -0.4589   -0.1023 C   0  0  0  0  0  0  0  0  0  0  0  0
   -6.9138    0.7325   -1.4365 C   0  0  0  0  0  0  0  0  0  0  0  0
    1.4052   -0.7093    1.9567 H   0  0  0  0  0  0  0  0  0  0  0  0
    1.0514    1.5134    2.6377 H   0  0  0  0  0  0  0  0  0  0  0  0
   -0.5249    1.0360    1.9913 H   0  0  0  0  0  0  0  0  0  0  0  0
    2.2889    0.9196   -1.6175 H   0  0  0  0  0  0  0  0  0  0  0  0
    3.4846    1.7733   -0.6194 H   0  0  0  0  0  0  0  0  0  0  0  0
    1.7648    3.9104   -1.7200 H   0  0  0  0  0  0  0  0  0  0  0  0
   -0.0939    5.1672   -0.5211 H   0  0  0  0  0  0  0  0  0  0  0  0
   -0.5085   -1.7383    1.8281 H   0  0  0  0  0  0  0  0  0  0  0  0
    4.4799    0.1177   -1.1418 H   0  0  0  0  0  0  0  0  0  0  0  0
    5.8368   -1.8258    0.6193 H   0  0  0  0  0  0  0  0  0  0  0  0
   -1.6535   -3.3896    0.6763 H   0  0  0  0  0  0  0  0  0  0  0  0
   -1.1769   -2.6931   -0.8710 H   0  0  0  0  0  0  0  0  0  0  0  0
    6.8588   -0.2581   -1.8037 H   0  0  0  0  0  0  0  0  0  0  0  0
    7.1294    0.1603   -0.1085 H   0  0  0  0  0  0  0  0  0  0  0  0
    7.8269   -1.3280   -0.7718 H   0  0  0  0  0  0  0  0  0  0  0  0
    5.2752   -2.2824   -2.3560 H   0  0  0  0  0  0  0  0  0  0  0  0
    4.5578   -3.1828   -1.0163 H   0  0  0  0  0  0  0  0  0  0  0  0
    6.2977   -3.3028   -1.3261 H   0  0  0  0  0  0  0  0  0  0  0  0
   -3.3824   -2.1150    2.1190 H   0  0  0  0  0  0  0  0  0  0  0  0
   -2.6663   -1.2306   -2.0394 H   0  0  0  0  0  0  0  0  0  0  0  0
   -5.5631   -0.9729    1.9824 H   0  0  0  0  0  0  0  0  0  0  0  0
   -4.7900   -0.1133   -2.1946 H   0  0  0  0  0  0  0  0  0  0  0  0
   -7.8993    1.1935   -1.3133 H   0  0  0  0  0  0  0  0  0  0  0  0
   -7.0165   -0.0403   -2.2060 H   0  0  0  0  0  0  0  0  0  0  0  0
   -6.2239    1.5284   -1.7369 H   0  0  0  0  0  0  0  0  0  0  0  0
  1 14  2  0  0  0  0
  2 15  2  0  0  0  0
  3 26  1  0  0  0  0
  3 27  1  0  0  0  0
  4  9  1  0  0  0  0
  4 11  1  0  0  0  0
  4 15  1  0  0  0  0
  5 13  1  0  0  0  0
  5 16  1  0  0  0  0
  5 33  1  0  0  0  0
  6 12  1  0  0  0  0
  6 16  2  0  0  0  0
  7 14  1  0  0  0  0
  7 18  1  0  0  0  0
  7 35  1  0  0  0  0
  8 15  1  0  0  0  0
  8 17  1  0  0  0  0
  8 36  1  0  0  0  0
  9 10  1  0  0  0  0
  9 14  1  0  0  0  0
  9 28  1  0  0  0  0
 10 12  1  0  0  0  0
 10 29  1  0  0  0  0
 10 30  1  0  0  0  0
 11 13  1  0  0  0  0
 11 31  1  0  0  0  0
 11 32  1  0  0  0  0
 12 13  2  0  0  0  0
 16 34  1  0  0  0  0
 17 19  1  0  0  0  0
 17 20  1  0  0  0  0
 17 37  1  0  0  0  0
 18 21  1  0  0  0  0
 18 38  1  0  0  0  0
 18 39  1  0  0  0  0
 19 40  1  0  0  0  0
 19 41  1  0  0  0  0
 19 42  1  0  0  0  0
 20 43  1  0  0  0  0
 20 44  1  0  0  0  0
 20 45  1  0  0  0  0
 21 22  2  0  0  0  0
 21 23  1  0  0  0  0
 22 24  1  0  0  0  0
 22 46  1  0  0  0  0
 23 25  2  0  0  0  0
 23 47  1  0  0  0  0
 24 26  2  0  0  0  0
 24 48  1  0  0  0  0
 25 26  1  0  0  0  0
 25 49  1  0  0  0  0
 27 50  1  0  0  0  0
 27 51  1  0  0  0  0
 27 52  1  0  0  0  0
M  END
> <PUBCHEM_COMPOUND_CID>
26745197

> <PUBCHEM_CONFORMER_RMSD>
1

> <PUBCHEM_CONFORMER_DIVERSEORDER>
1
2
18
10
35
9
24
14
33
8
16
4
34
5
17
30
27
3
15
25
22
23
28
6
19
29
7
31
32
12
20
11
21
26
13

> <PUBCHEM_MMFF94_PARTIAL_CHARGES>
33
1 -0.57
10 0.18
11 0.48
12 0.05
13 -0.33
14 0.57
15 0.69
16 0.04
17 0.3
18 0.44
2 -0.57
21 -0.14
22 -0.15
23 -0.15
24 -0.15
25 -0.15
26 0.08
27 0.28
3 -0.36
33 0.27
34 0.15
35 0.37
36 0.37
4 -0.66
46 0.15
47 0.15
48 0.15
49 0.15
5 0.03
6 -0.57
7 -0.73
8 -0.73
9 0.36

> <PUBCHEM_EFFECTIVE_ROTOR_COUNT>
8.8

> <PUBCHEM_PHARMACOPHORE_FEATURES>
11
1 1 acceptor
1 2 acceptor
1 3 acceptor
1 5 donor
1 7 donor
1 8 donor
3 17 19 20 hydrophobe
3 5 6 16 cation
5 5 6 12 13 16 rings
6 21 22 23 24 25 26 rings
6 4 9 10 11 12 13 rings

> <PUBCHEM_HEAVY_ATOM_COUNT>
27

> <PUBCHEM_ATOM_DEF_STEREO_COUNT>
1

> <PUBCHEM_ATOM_UDEF_STEREO_COUNT>
0

> <PUBCHEM_BOND_DEF_STEREO_COUNT>
0

> <PUBCHEM_BOND_UDEF_STEREO_COUNT>
0

> <PUBCHEM_ISOTOPIC_ATOM_COUNT>
0

> <PUBCHEM_COMPONENT_COUNT>
1

> <PUBCHEM_CACTVS_TAUTO_COUNT>
8

> <PUBCHEM_CONFORMER_ID>
0198196D00000001

> <PUBCHEM_MMFF94_ENERGY>
63.8609

> <PUBCHEM_FEATURE_SELFOVERLAP>
55.923

> <PUBCHEM_SHAPE_FINGERPRINT>
10074138 170 15737642200726076459
10764073 3 17768486742778202344
10815517 723 18127705841752851377
10940486 97 17987516099192980326
11135609 187 17901400201639536124
11265709 11 18411426120249512520
11421498 54 13623795116604143590
11578080 2 14636021026858250156
11720765 8 18340488966767530084
12166972 35 18059572542374539619
12516196 113 18411138056603526874
12596602 18 12757423918019457807
12788726 201 18262515888866404226
13004483 165 18411695479266159258
13009979 54 17988094386220966403
13134695 92 17845934155378272072
13590594 115 18409738356415276673
13726171 33 15213845005548949511
13757389 114 17691994578470985988
14347329 18 16734643318480209749
14508225 48 18410862045067731924
146900 427 11169906186942001607
14840074 17 17703795803943171870
15081414 286 18266463281470352216
15131766 46 15193281003537786114
15183329 4 18409166584514457619
15198563 99 18265904562244581260
15238133 3 17822834425849459817
15475509 8 18341901731676095575
15849732 13 17918270973988406950
16087824 20 18337392617902080337
16992727 255 17968376719514632692
16993089 31 15768391383895152900
16994733 274 15357697500603194678
17868525 174 18261944224250109865
1813 80 18200330869784522246
18335252 114 18411125928148217685
20197701 30 9511463308059359408
20238998 120 18413389852433793288
20286276 3 18048883197297808259
20465049 17 18187363246863500059
20832881 197 18186514402048069186
21285901 2 18059581218045161838
21478907 32 18267306435227054490
21503847 285 18187638163456609561
21521721 280 10809353229902016615
21641784 216 18262818263301482092
21792961 116 18113620041165258666
22079108 93 8070023355376123338
221357 26 18334849528978713045
22224240 67 8142078758811685015
23175994 123 18409172129406777651
23536364 44 18262232201511693420
23559900 14 18339919424112460987
23576562 1 18265046006913860159
24893992 56 18409164395473300849
340366 18 18200593717156170111
4340502 62 8718826496487237770
437815 12 18411699876758600861
5081480 168 18114455755669028229
513202 73 18055363444191409758
5969126 39 18340488877257992732
6086070 43 18336251423816825487
7399639 24 16968305292721660579
9971528 1 18201713002844473194

> <PUBCHEM_SHAPE_MULTIPOLES>
513.13
14.64
3.85
1.37
4.53
4.81
-0.08
-9.03
5.87
-2.24
0.21
0.49
-0.11
1.15

> <PUBCHEM_SHAPE_SELFOVERLAP>
1085.846

> <PUBCHEM_SHAPE_VOLUME>
286.4

> <PUBCHEM_COORDINATE_TYPE>
2
5
10

$$$$
