45784229
  -OEChem-12032416293D

 40 43  0     1  0  0  0  0  0999 V2000
   -8.3057   -0.1494    0.6578 Cl  0  0  0  0  0  0  0  0  0  0  0  0
    7.7579   -0.4914   -0.1512 F   0  0  0  0  0  0  0  0  0  0  0  0
   -1.6595   -0.2693   -0.1414 N   0  0  1  0  0  0  0  0  0  0  0  0
    2.9854   -1.2728    0.4727 N   0  0  0  0  0  0  0  0  0  0  0  0
    2.4267    0.8152   -0.0451 N   0  0  0  0  0  0  0  0  0  0  0  0
    0.5315   -0.7501    0.5425 C   0  0  1  0  0  0  0  0  0  0  0  0
   -0.1856    0.0544    1.6406 C   0  0  0  0  0  0  0  0  0  0  0  0
   -0.3415   -0.5668   -0.7062 C   0  0  0  0  0  0  0  0  0  0  0  0
   -1.3985    0.6667    0.9521 C   0  0  0  0  0  0  0  0  0  0  0  0
    1.9751   -0.3656    0.3138 C   0  0  0  0  0  0  0  0  0  0  0  0
   -2.5772    0.2762   -1.1306 C   0  0  0  0  0  0  0  0  0  0  0  0
   -4.0111    0.1705   -0.6835 C   0  0  0  0  0  0  0  0  0  0  0  0
    4.1677   -0.6350    0.1977 C   0  0  0  0  0  0  0  0  0  0  0  0
    3.7924    0.6667   -0.1228 C   0  0  0  0  0  0  0  0  0  0  0  0
   -4.7576   -0.9650   -0.9985 C   0  0  0  0  0  0  0  0  0  0  0  0
   -4.5929    1.2076    0.0456 C   0  0  0  0  0  0  0  0  0  0  0  0
    5.4930   -1.0717    0.2015 C   0  0  0  0  0  0  0  0  0  0  0  0
    4.7849    1.6018   -0.4617 C   0  0  0  0  0  0  0  0  0  0  0  0
    6.4677   -0.1278   -0.1384 C   0  0  0  0  0  0  0  0  0  0  0  0
    6.1221    1.1857   -0.4644 C   0  0  0  0  0  0  0  0  0  0  0  0
   -6.0859   -1.0632   -0.5846 C   0  0  0  0  0  0  0  0  0  0  0  0
   -5.9212    1.1094    0.4596 C   0  0  0  0  0  0  0  0  0  0  0  0
   -6.6677   -0.0260    0.1445 C   0  0  0  0  0  0  0  0  0  0  0  0
    0.4957   -1.8092    0.8365 H   0  0  0  0  0  0  0  0  0  0  0  0
   -0.5084   -0.6265    2.4382 H   0  0  0  0  0  0  0  0  0  0  0  0
    0.4446    0.8250    2.0971 H   0  0  0  0  0  0  0  0  0  0  0  0
    0.0220    0.2601   -1.3309 H   0  0  0  0  0  0  0  0  0  0  0  0
   -0.3572   -1.4762   -1.3168 H   0  0  0  0  0  0  0  0  0  0  0  0
   -1.1459    1.6695    0.5842 H   0  0  0  0  0  0  0  0  0  0  0  0
   -2.2356    0.7483    1.6518 H   0  0  0  0  0  0  0  0  0  0  0  0
   -2.3343    1.3139   -1.3975 H   0  0  0  0  0  0  0  0  0  0  0  0
   -2.4856   -0.2870   -2.0701 H   0  0  0  0  0  0  0  0  0  0  0  0
    2.8833   -2.2418    0.7441 H   0  0  0  0  0  0  0  0  0  0  0  0
   -4.3158   -1.7812   -1.5639 H   0  0  0  0  0  0  0  0  0  0  0  0
   -4.0250    2.1004    0.2932 H   0  0  0  0  0  0  0  0  0  0  0  0
    5.7589   -2.0916    0.4549 H   0  0  0  0  0  0  0  0  0  0  0  0
    4.5266    2.6247   -0.7166 H   0  0  0  0  0  0  0  0  0  0  0  0
    6.9023    1.8964   -0.7243 H   0  0  0  0  0  0  0  0  0  0  0  0
   -6.6553   -1.9543   -0.8363 H   0  0  0  0  0  0  0  0  0  0  0  0
   -6.3617    1.9255    1.0265 H   0  0  0  0  0  0  0  0  0  0  0  0
  1 23  1  0  0  0  0
  2 19  1  0  0  0  0
  3  8  1  0  0  0  0
  3  9  1  0  0  0  0
  3 11  1  0  0  0  0
  4 10  1  0  0  0  0
  4 13  1  0  0  0  0
  4 33  1  0  0  0  0
  5 10  2  0  0  0  0
  5 14  1  0  0  0  0
  6  7  1  0  0  0  0
  6  8  1  0  0  0  0
  6 10  1  0  0  0  0
  6 24  1  0  0  0  0
  7  9  1  0  0  0  0
  7 25  1  0  0  0  0
  7 26  1  0  0  0  0
  8 27  1  0  0  0  0
  8 28  1  0  0  0  0
  9 29  1  0  0  0  0
  9 30  1  0  0  0  0
 11 12  1  0  0  0  0
 11 31  1  0  0  0  0
 11 32  1  0  0  0  0
 12 15  2  0  0  0  0
 12 16  1  0  0  0  0
 13 14  2  0  0  0  0
 13 17  1  0  0  0  0
 14 18  1  0  0  0  0
 15 21  1  0  0  0  0
 15 34  1  0  0  0  0
 16 22  2  0  0  0  0
 16 35  1  0  0  0  0
 17 19  2  0  0  0  0
 17 36  1  0  0  0  0
 18 20  2  0  0  0  0
 18 37  1  0  0  0  0
 19 20  1  0  0  0  0
 20 38  1  0  0  0  0
 21 23  2  0  0  0  0
 21 39  1  0  0  0  0
 22 23  1  0  0  0  0
 22 40  1  0  0  0  0
M  END
> <PUBCHEM_COMPOUND_CID>
45784229

> <PUBCHEM_CONFORMER_RMSD>
0.6

> <PUBCHEM_CONFORMER_DIVERSEORDER>
1
122
26
90
99
115
38
91
96
121
109
107
95
123
125
34
89
42
120
29
93
98
31
128
69
85
127
13
106
116
84
40
72
80
30
94
117
8
108
86
102
60
18
75
87
119
53
92
36
118
37
97
16
74
32
101
23
59
77
17
103
105
21
78
43
66
71
6
88
44
11
104
9
124
7
28
3
100
51
27
52
113
33
48
24
50
68
54
14
83
35
22
79
58
10
81
55
82
49
4
73
12
15
114
2
64
19
39
76
70
112
45
47
111
63
25
67
65
20
62
56
41
61
46
5
57
110
126

> <PUBCHEM_MMFF94_PARTIAL_CHARGES>
30
1 -0.18
10 0.01
11 0.41
12 -0.14
13 -0.15
14 0.23
15 -0.15
16 -0.15
17 -0.15
18 -0.15
19 0.19
2 -0.19
20 -0.15
21 -0.15
22 -0.15
23 0.18
3 -0.81
33 0.27
34 0.15
35 0.15
36 0.15
37 0.15
38 0.15
39 0.15
4 0.03
40 0.15
5 -0.57
6 0.18
8 0.27
9 0.27

> <PUBCHEM_EFFECTIVE_ROTOR_COUNT>
4

> <PUBCHEM_PHARMACOPHORE_FEATURES>
7
1 3 cation
1 4 donor
3 4 5 10 cation
5 3 6 7 8 9 rings
5 4 5 10 13 14 rings
6 12 15 16 21 22 23 rings
6 13 14 17 18 19 20 rings

> <PUBCHEM_HEAVY_ATOM_COUNT>
23

> <PUBCHEM_ATOM_DEF_STEREO_COUNT>
1

> <PUBCHEM_ATOM_UDEF_STEREO_COUNT>
0

> <PUBCHEM_BOND_DEF_STEREO_COUNT>
0

> <PUBCHEM_BOND_UDEF_STEREO_COUNT>
0

> <PUBCHEM_ISOTOPIC_ATOM_COUNT>
0

> <PUBCHEM_COMPONENT_COUNT>
1

> <PUBCHEM_CACTVS_TAUTO_COUNT>
2

> <PUBCHEM_CONFORMER_ID>
02BA9CA500000001

> <PUBCHEM_MMFF94_ENERGY>
45.2444

> <PUBCHEM_FEATURE_SELFOVERLAP>
35.63

> <PUBCHEM_SHAPE_FINGERPRINT>
10 15 14851606617975358420
10299344 5 18343019999974646951
10595046 47 18410572864376119977
106641 1 13623535679473899860
11315181 36 18407760340388457777
11524674 6 15554445228301199711
11646440 116 16877666755370190780
11796584 16 14692564446928813974
12166972 35 18334295379292754468
12236239 1 18272650143120618556
12730499 353 17675924279274079274
12788726 201 17275107176338969691
12916748 109 16877657946682111332
13533116 47 16878213170268728280
14123256 10 16877942737594938523
14170010 4 18040997367170492700
1420 363 17095242514732083023
14251752 14 17632296769821299993
14251764 18 18410573993820552717
14251764 46 18410855460133449550
14294032 229 17130167324430357001
14849402 71 18261961863423156829
14856354 85 17988927799593377391
14933364 13 18410575084953378781
15183329 4 18411132528473708037
15419008 47 15864065490474226597
15461852 350 13984668070704925411
15537594 2 16271923805211282303
15716309 27 18408040711094466639
17093844 174 14189571941060715463
18006028 8 12319738063737582955
18335252 98 18260554428926428411
19489759 90 11314307240009871991
20157964 124 18260548935778800746
20281389 69 18411979165391605945
21095086 128 18335138700600498203
21150785 3 18412546518292647388
21236236 1 12966861113176349587
21267235 1 18409731734118375340
21521721 280 18187649132549694363
21792961 116 17632296727304091725
220451 1 18131909360583838767
221357 26 18260263045386377748
22224240 67 16008749125808362705
23035841 295 18060419123320062599
23198884 109 18409167718844246569
23516275 137 18057625208403736891
23522609 53 18199491959376867593
23536379 177 18413106147656106681
23569943 247 17025423392940024826
23622692 88 13839987724556081330
2747138 104 16950572090596412629
28498 318 12247687053947621633
29717793 49 17988929964288516988
3004659 81 18201999928598801842
314173 85 14549019892244486627
347723 3 17346597473736918714
34797466 226 18410860962202873014
3545911 37 17676205775561822778
397830 11 16009893786127611833
4073 2 18041001799281505642
4325135 7 18408323289735172365
5283156 175 17561086882691023438
542803 24 18341890792304468646
5758199 1 18186239532635841147
59682541 35 16226054422421827769
59755656 520 18040148543608689843
9996256 80 18334573529547351460

> <PUBCHEM_SHAPE_MULTIPOLES>
452.98
22.41
1.25
1.01
5.45
0.16
-0.11
0.27
0.78
-0.5
0.07
0.64
0
-0.97

> <PUBCHEM_SHAPE_SELFOVERLAP>
986.28

> <PUBCHEM_SHAPE_VOLUME>
250

> <PUBCHEM_COORDINATE_TYPE>
2
5
10

$$$$
