28959726
  -OEChem-12032416283D

 60 62  0     1  0  0  0  0  0999 V2000
   -0.1246    3.2765    2.0082 O   0  0  0  0  0  0  0  0  0  0  0  0
    6.3013   -1.4472   -0.2233 O   0  0  0  0  0  0  0  0  0  0  0  0
    6.0244    0.7887   -0.5472 O   0  0  0  0  0  0  0  0  0  0  0  0
   -5.2284    1.1647   -0.9370 O   0  0  0  0  0  0  0  0  0  0  0  0
    0.9659    2.2651    0.2022 N   0  0  0  0  0  0  0  0  0  0  0  0
   -0.6857   -2.5338   -0.0081 N   0  0  0  0  0  0  0  0  0  0  0  0
    1.7710    0.2145   -0.9480 C   0  0  2  0  0  0  0  0  0  0  0  0
    3.2054    0.5571   -0.4705 C   0  0  1  0  0  0  0  0  0  0  0  0
    0.9319    1.5013   -1.0530 C   0  0  0  0  0  0  0  0  0  0  0  0
    1.0532   -0.8191   -0.0710 C   0  0  0  0  0  0  0  0  0  0  0  0
    3.1872    1.3961    0.8187 C   0  0  0  0  0  0  0  0  0  0  0  0
    2.3042    2.6309    0.6621 C   0  0  0  0  0  0  0  0  0  0  0  0
   -0.0045   -1.5676   -0.8694 C   0  0  0  0  0  0  0  0  0  0  0  0
    4.0920   -0.6760   -0.2984 C   0  0  0  0  0  0  0  0  0  0  0  0
   -1.9966   -2.8886   -0.5701 C   0  0  0  0  0  0  0  0  0  0  0  0
    0.1493   -3.7273    0.1865 C   0  0  0  0  0  0  0  0  0  0  0  0
   -2.7435   -3.8613    0.3435 C   0  0  0  0  0  0  0  0  0  0  0  0
   -0.5276   -4.7275    1.1252 C   0  0  0  0  0  0  0  0  0  0  0  0
   -1.9142   -5.1101    0.6207 C   0  0  0  0  0  0  0  0  0  0  0  0
   -0.1489    2.6423    0.9547 C   0  0  0  0  0  0  0  0  0  0  0  0
    5.5522   -0.3250   -0.3754 C   0  0  0  0  0  0  0  0  0  0  0  0
   -1.4760    2.2571    0.4619 C   0  0  0  0  0  0  0  0  0  0  0  0
   -2.0374    1.0402    0.8488 C   0  0  0  0  0  0  0  0  0  0  0  0
   -2.1757    3.1068   -0.3950 C   0  0  0  0  0  0  0  0  0  0  0  0
   -3.2982    0.6728    0.3787 C   0  0  0  0  0  0  0  0  0  0  0  0
   -3.4364    2.7395   -0.8652 C   0  0  0  0  0  0  0  0  0  0  0  0
   -3.9976    1.5225   -0.4784 C   0  0  0  0  0  0  0  0  0  0  0  0
   -5.7427   -0.0928   -0.5013 C   0  0  0  0  0  0  0  0  0  0  0  0
    1.8672   -0.2017   -1.9604 H   0  0  0  0  0  0  0  0  0  0  0  0
    3.6419    1.1887   -1.2586 H   0  0  0  0  0  0  0  0  0  0  0  0
    1.3577    2.1546   -1.8252 H   0  0  0  0  0  0  0  0  0  0  0  0
   -0.0887    1.2823   -1.3699 H   0  0  0  0  0  0  0  0  0  0  0  0
    0.6183   -0.3524    0.8188 H   0  0  0  0  0  0  0  0  0  0  0  0
    1.7826   -1.5395    0.3034 H   0  0  0  0  0  0  0  0  0  0  0  0
    4.1978    1.7156    1.0949 H   0  0  0  0  0  0  0  0  0  0  0  0
    2.8081    0.7878    1.6498 H   0  0  0  0  0  0  0  0  0  0  0  0
    2.2543    3.1718    1.6126 H   0  0  0  0  0  0  0  0  0  0  0  0
    2.7306    3.3150   -0.0811 H   0  0  0  0  0  0  0  0  0  0  0  0
    0.4313   -2.0552   -1.7511 H   0  0  0  0  0  0  0  0  0  0  0  0
   -0.7302   -0.8385   -1.2473 H   0  0  0  0  0  0  0  0  0  0  0  0
    3.9130   -1.1624    0.6668 H   0  0  0  0  0  0  0  0  0  0  0  0
    3.8921   -1.3922   -1.1042 H   0  0  0  0  0  0  0  0  0  0  0  0
   -1.8819   -3.3357   -1.5665 H   0  0  0  0  0  0  0  0  0  0  0  0
   -2.6148   -1.9931   -0.6899 H   0  0  0  0  0  0  0  0  0  0  0  0
    1.1131   -3.4728    0.6379 H   0  0  0  0  0  0  0  0  0  0  0  0
    0.3612   -4.2167   -0.7735 H   0  0  0  0  0  0  0  0  0  0  0  0
   -3.6960   -4.1452   -0.1182 H   0  0  0  0  0  0  0  0  0  0  0  0
   -2.9837   -3.3632    1.2915 H   0  0  0  0  0  0  0  0  0  0  0  0
   -0.6109   -4.2913    2.1289 H   0  0  0  0  0  0  0  0  0  0  0  0
    0.0920   -5.6267    1.2178 H   0  0  0  0  0  0  0  0  0  0  0  0
   -2.4214   -5.7429    1.3571 H   0  0  0  0  0  0  0  0  0  0  0  0
   -1.8194   -5.6984   -0.3001 H   0  0  0  0  0  0  0  0  0  0  0  0
    7.2621   -1.2542   -0.2681 H   0  0  0  0  0  0  0  0  0  0  0  0
   -1.5093    0.3764    1.5276 H   0  0  0  0  0  0  0  0  0  0  0  0
   -1.7471    4.0569   -0.7033 H   0  0  0  0  0  0  0  0  0  0  0  0
   -3.6797   -0.2806    0.7272 H   0  0  0  0  0  0  0  0  0  0  0  0
   -3.9765    3.4054   -1.5327 H   0  0  0  0  0  0  0  0  0  0  0  0
   -6.7279   -0.2166   -0.9628 H   0  0  0  0  0  0  0  0  0  0  0  0
   -5.8931   -0.1121    0.5834 H   0  0  0  0  0  0  0  0  0  0  0  0
   -5.1204   -0.9246   -0.8487 H   0  0  0  0  0  0  0  0  0  0  0  0
  1 20  2  0  0  0  0
  2 21  1  0  0  0  0
  2 53  1  0  0  0  0
  3 21  2  0  0  0  0
  4 27  1  0  0  0  0
  4 28  1  0  0  0  0
  5  9  1  0  0  0  0
  5 12  1  0  0  0  0
  5 20  1  0  0  0  0
  6 13  1  0  0  0  0
  6 15  1  0  0  0  0
  6 16  1  0  0  0  0
  7  8  1  0  0  0  0
  7  9  1  0  0  0  0
  7 10  1  0  0  0  0
  7 29  1  0  0  0  0
  8 11  1  0  0  0  0
  8 14  1  0  0  0  0
  8 30  1  0  0  0  0
  9 31  1  0  0  0  0
  9 32  1  0  0  0  0
 10 13  1  0  0  0  0
 10 33  1  0  0  0  0
 10 34  1  0  0  0  0
 11 12  1  0  0  0  0
 11 35  1  0  0  0  0
 11 36  1  0  0  0  0
 12 37  1  0  0  0  0
 12 38  1  0  0  0  0
 13 39  1  0  0  0  0
 13 40  1  0  0  0  0
 14 21  1  0  0  0  0
 14 41  1  0  0  0  0
 14 42  1  0  0  0  0
 15 17  1  0  0  0  0
 15 43  1  0  0  0  0
 15 44  1  0  0  0  0
 16 18  1  0  0  0  0
 16 45  1  0  0  0  0
 16 46  1  0  0  0  0
 17 19  1  0  0  0  0
 17 47  1  0  0  0  0
 17 48  1  0  0  0  0
 18 19  1  0  0  0  0
 18 49  1  0  0  0  0
 18 50  1  0  0  0  0
 19 51  1  0  0  0  0
 19 52  1  0  0  0  0
 20 22  1  0  0  0  0
 22 23  2  0  0  0  0
 22 24  1  0  0  0  0
 23 25  1  0  0  0  0
 23 54  1  0  0  0  0
 24 26  2  0  0  0  0
 24 55  1  0  0  0  0
 25 27  2  0  0  0  0
 25 56  1  0  0  0  0
 26 27  1  0  0  0  0
 26 57  1  0  0  0  0
 28 58  1  0  0  0  0
 28 59  1  0  0  0  0
 28 60  1  0  0  0  0
M  END
> <PUBCHEM_COMPOUND_CID>
28959726

> <PUBCHEM_CONFORMER_RMSD>
1.2

> <PUBCHEM_CONFORMER_DIVERSEORDER>
1
50
95
30
12
7
44
43
83
46
103
106
54
70
82
19
105
56
81
55
29
111
14
58
71
48
39
102
66
110
115
92
31
15
87
114
10
99
89
24
98
93
104
74
3
85
60
49
112
33
107
2
108
22
34
45
64
97
88
113
53
26
62
84
78
4
11
20
51
59
101
36
28
86
69
16
27
65
109
13
76
67
77
42
57
38
73
80
32
5
47
63
68
23
9
18
75
37
100
79
25
91
17
35
94
41
61
21
90
6
96
40
72
52
8

> <PUBCHEM_MMFF94_PARTIAL_CHARGES>
26
1 -0.57
12 0.3
13 0.27
14 0.06
15 0.27
16 0.27
2 -0.65
20 0.54
21 0.66
22 0.09
23 -0.15
24 -0.15
25 -0.15
26 -0.15
27 0.08
28 0.28
3 -0.57
4 -0.36
5 -0.66
53 0.5
54 0.15
55 0.15
56 0.15
57 0.15
6 -0.81
9 0.3

> <PUBCHEM_EFFECTIVE_ROTOR_COUNT>
10.4

> <PUBCHEM_PHARMACOPHORE_FEATURES>
9
1 1 acceptor
1 2 acceptor
1 3 acceptor
1 4 acceptor
1 6 cation
3 2 3 21 anion
6 22 23 24 25 26 27 rings
6 5 7 8 9 11 12 rings
6 6 15 16 17 18 19 rings

> <PUBCHEM_HEAVY_ATOM_COUNT>
28

> <PUBCHEM_ATOM_DEF_STEREO_COUNT>
2

> <PUBCHEM_ATOM_UDEF_STEREO_COUNT>
0

> <PUBCHEM_BOND_DEF_STEREO_COUNT>
0

> <PUBCHEM_BOND_UDEF_STEREO_COUNT>
0

> <PUBCHEM_ISOTOPIC_ATOM_COUNT>
0

> <PUBCHEM_COMPONENT_COUNT>
1

> <PUBCHEM_CACTVS_TAUTO_COUNT>
1

> <PUBCHEM_CONFORMER_ID>
01B9E3EE00000001

> <PUBCHEM_MMFF94_ENERGY>
64.2439

> <PUBCHEM_FEATURE_SELFOVERLAP>
45.729

> <PUBCHEM_SHAPE_FINGERPRINT>
10119406 146 17984722030337040918
10316853 100 18265895947056623143
108634 29 18343309175273786446
1100329 8 18411983584891360896
11112241 14 11344375107468872003
11578080 2 16269932710165658578
12293681 25 17702131138969515606
12422481 6 18053683635516690755
12645989 146 18055636363382588751
13052359 8 18409453583188090278
13140716 1 18199198445532167512
13402501 40 18341612650823850781
138480 1 17184467616737621647
14251757 5 18337400443215845206
14787075 74 18202560644863858964
14790565 3 18192431862302189174
14866123 147 18408884006348694202
15351339 4 18336816499204396339
16719943 64 18409164381491679258
16728300 4 17750508473296243634
17627616 140 18191865617619027219
19591789 44 18050570634435357870
20028762 73 18130781244083475246
21796203 349 15893668397452739450
23419403 2 17202196511627733504
23559900 14 18343014536666022520
283562 15 18127131879324103744
3383291 50 18339640032533038346
4058900 60 18193562159960676413
4409770 3 18336271218714418387
484989 97 18264770034017290127
563151 97 18050853217060417924
57527295 17 17839434728290524517
59755656 520 18334008372134039574
9981440 41 18191032196526178017

> <PUBCHEM_SHAPE_MULTIPOLES>
542.79
10.13
6.4
1.11
8.74
8.45
-0.22
-1.53
2.8
-5.56
-2.1
-0.12
-0.45
1.1

> <PUBCHEM_SHAPE_SELFOVERLAP>
1124.176

> <PUBCHEM_SHAPE_VOLUME>
308.2

> <PUBCHEM_COORDINATE_TYPE>
2
5
10

$$$$
