11882569
  -OEChem-12032416413D

 68 70  0     1  0  0  0  0  0999 V2000
   -2.0003   -2.5466    2.1037 O   0  0  0  0  0  0  0  0  0  0  0  0
    0.2674   -4.4603   -1.3172 O   0  0  0  0  0  0  0  0  0  0  0  0
   -2.5585   -4.6031   -1.6356 O   0  0  0  0  0  0  0  0  0  0  0  0
   -3.5804   -0.5801    2.3923 O   0  0  0  0  0  0  0  0  0  0  0  0
    2.4401   -1.6448    1.3466 O   0  0  0  0  0  0  0  0  0  0  0  0
   -5.9927   -0.1971   -0.7518 O   0  0  0  0  0  0  0  0  0  0  0  0
    1.2831    4.2954   -0.1093 O   0  0  0  0  0  0  0  0  0  0  0  0
    1.2757   -1.8142   -0.6429 N   0  0  0  0  0  0  0  0  0  0  0  0
   -3.4222    0.1050    0.1733 N   0  0  0  0  0  0  0  0  0  0  0  0
    3.3947   -0.9406   -0.6791 N   0  0  0  0  0  0  0  0  0  0  0  0
   -6.6634    1.3595    0.7987 N   0  0  0  0  0  0  0  0  0  0  0  0
   -2.2039   -1.8291    0.8920 C   0  0  1  0  0  0  0  0  0  0  0  0
    0.0740   -2.3932   -0.0830 C   0  0  1  0  0  0  0  0  0  0  0  0
   -0.8768   -1.2785    0.3663 C   0  0  0  0  0  0  0  0  0  0  0  0
   -0.5910   -3.3385   -1.0923 C   0  0  2  0  0  0  0  0  0  0  0  0
   -2.8649   -2.7519   -0.1298 C   0  0  0  0  0  0  0  0  0  0  0  0
   -1.9298   -3.8754   -0.5802 C   0  0  1  0  0  0  0  0  0  0  0  0
   -3.1342   -0.7090    1.2553 C   0  0  0  0  0  0  0  0  0  0  0  0
   -4.3114    1.2413    0.2533 C   0  0  1  0  0  0  0  0  0  0  0  0
    2.3898   -1.4776    0.1303 C   0  0  0  0  0  0  0  0  0  0  0  0
   -3.9627    2.3267   -0.7724 C   0  0  0  0  0  0  0  0  0  0  0  0
   -5.7224    0.7220    0.0175 C   0  0  0  0  0  0  0  0  0  0  0  0
   -2.5581    2.8537   -0.5954 C   0  0  0  0  0  0  0  0  0  0  0  0
    4.6721   -0.4782   -0.2855 C   0  0  0  0  0  0  0  0  0  0  0  0
   -1.5143    2.2436   -1.2716 C   0  0  0  0  0  0  0  0  0  0  0  0
   -2.3409    3.9368    0.2405 C   0  0  0  0  0  0  0  0  0  0  0  0
    5.5361    0.0252   -1.2441 C   0  0  0  0  0  0  0  0  0  0  0  0
    5.0331   -0.5383    1.0506 C   0  0  0  0  0  0  0  0  0  0  0  0
   -0.2173    2.7301   -1.1074 C   0  0  0  0  0  0  0  0  0  0  0  0
   -1.0440    4.4232    0.4049 C   0  0  0  0  0  0  0  0  0  0  0  0
    0.0178    3.8199   -0.2692 C   0  0  0  0  0  0  0  0  0  0  0  0
    6.7958    0.4812   -0.8559 C   0  0  0  0  0  0  0  0  0  0  0  0
    6.2928   -0.0822    1.4388 C   0  0  0  0  0  0  0  0  0  0  0  0
    7.1743    0.4276    0.4855 C   0  0  0  0  0  0  0  0  0  0  0  0
    8.5206    0.9154    0.9011 C   0  0  0  0  0  0  0  0  0  0  0  0
    2.3218    3.6317   -0.8279 C   0  0  0  0  0  0  0  0  0  0  0  0
    0.3868   -2.9783    0.7911 H   0  0  0  0  0  0  0  0  0  0  0  0
   -0.3871   -0.6840    1.1497 H   0  0  0  0  0  0  0  0  0  0  0  0
   -1.0302   -0.5994   -0.4798 H   0  0  0  0  0  0  0  0  0  0  0  0
   -0.7209   -2.8380   -2.0603 H   0  0  0  0  0  0  0  0  0  0  0  0
   -3.2068   -2.2055   -1.0174 H   0  0  0  0  0  0  0  0  0  0  0  0
   -3.7707   -3.2059    0.2949 H   0  0  0  0  0  0  0  0  0  0  0  0
   -1.7670   -4.5933    0.2314 H   0  0  0  0  0  0  0  0  0  0  0  0
    1.2812   -1.5725   -1.6291 H   0  0  0  0  0  0  0  0  0  0  0  0
   -1.3965   -3.2885    1.9411 H   0  0  0  0  0  0  0  0  0  0  0  0
   -0.1775   -5.0431   -1.9562 H   0  0  0  0  0  0  0  0  0  0  0  0
   -2.7094   -3.9912   -2.3761 H   0  0  0  0  0  0  0  0  0  0  0  0
   -3.0757   -0.1399   -0.7482 H   0  0  0  0  0  0  0  0  0  0  0  0
   -4.2407    1.6502    1.2693 H   0  0  0  0  0  0  0  0  0  0  0  0
   -4.0770    1.9376   -1.7938 H   0  0  0  0  0  0  0  0  0  0  0  0
   -4.6794    3.1557   -0.7008 H   0  0  0  0  0  0  0  0  0  0  0  0
    3.1904   -0.8705   -1.6728 H   0  0  0  0  0  0  0  0  0  0  0  0
   -6.4253    2.1148    1.4335 H   0  0  0  0  0  0  0  0  0  0  0  0
   -7.6426    1.0981    0.7507 H   0  0  0  0  0  0  0  0  0  0  0  0
   -1.6870    1.4007   -1.9344 H   0  0  0  0  0  0  0  0  0  0  0  0
   -3.1613    4.4113    0.7711 H   0  0  0  0  0  0  0  0  0  0  0  0
    5.2509    0.0723   -2.2915 H   0  0  0  0  0  0  0  0  0  0  0  0
    4.4091   -0.9174    1.8460 H   0  0  0  0  0  0  0  0  0  0  0  0
    0.5603    2.2147   -1.6609 H   0  0  0  0  0  0  0  0  0  0  0  0
   -0.8670    5.2721    1.0596 H   0  0  0  0  0  0  0  0  0  0  0  0
    7.4729    0.8781   -1.6079 H   0  0  0  0  0  0  0  0  0  0  0  0
    6.5766   -0.1270    2.4871 H   0  0  0  0  0  0  0  0  0  0  0  0
    9.2533    0.7881    0.0969 H   0  0  0  0  0  0  0  0  0  0  0  0
    8.4708    1.9765    1.1649 H   0  0  0  0  0  0  0  0  0  0  0  0
    8.8939    0.3557    1.7655 H   0  0  0  0  0  0  0  0  0  0  0  0
    3.2604    4.1393   -0.5826 H   0  0  0  0  0  0  0  0  0  0  0  0
    2.4297    2.5893   -0.5086 H   0  0  0  0  0  0  0  0  0  0  0  0
    2.1831    3.7215   -1.9106 H   0  0  0  0  0  0  0  0  0  0  0  0
  1 12  1  0  0  0  0
  1 45  1  0  0  0  0
  2 15  1  0  0  0  0
  2 46  1  0  0  0  0
  3 17  1  0  0  0  0
  3 47  1  0  0  0  0
  4 18  2  0  0  0  0
  5 20  2  0  0  0  0
  6 22  2  0  0  0  0
  7 31  1  0  0  0  0
  7 36  1  0  0  0  0
  8 13  1  0  0  0  0
  8 20  1  0  0  0  0
  8 44  1  0  0  0  0
  9 18  1  0  0  0  0
  9 19  1  0  0  0  0
  9 48  1  0  0  0  0
 10 20  1  0  0  0  0
 10 24  1  0  0  0  0
 10 52  1  0  0  0  0
 11 22  1  0  0  0  0
 11 53  1  0  0  0  0
 11 54  1  0  0  0  0
 12 14  1  0  0  0  0
 12 16  1  0  0  0  0
 12 18  1  0  0  0  0
 13 14  1  0  0  0  0
 13 15  1  0  0  0  0
 13 37  1  0  0  0  0
 14 38  1  0  0  0  0
 14 39  1  0  0  0  0
 15 17  1  0  0  0  0
 15 40  1  0  0  0  0
 16 17  1  0  0  0  0
 16 41  1  0  0  0  0
 16 42  1  0  0  0  0
 17 43  1  0  0  0  0
 19 21  1  0  0  0  0
 19 22  1  0  0  0  0
 19 49  1  0  0  0  0
 21 23  1  0  0  0  0
 21 50  1  0  0  0  0
 21 51  1  0  0  0  0
 23 25  2  0  0  0  0
 23 26  1  0  0  0  0
 24 27  2  0  0  0  0
 24 28  1  0  0  0  0
 25 29  1  0  0  0  0
 25 55  1  0  0  0  0
 26 30  2  0  0  0  0
 26 56  1  0  0  0  0
 27 32  1  0  0  0  0
 27 57  1  0  0  0  0
 28 33  2  0  0  0  0
 28 58  1  0  0  0  0
 29 31  2  0  0  0  0
 29 59  1  0  0  0  0
 30 31  1  0  0  0  0
 30 60  1  0  0  0  0
 32 34  2  0  0  0  0
 32 61  1  0  0  0  0
 33 34  1  0  0  0  0
 33 62  1  0  0  0  0
 34 35  1  0  0  0  0
 35 63  1  0  0  0  0
 35 64  1  0  0  0  0
 35 65  1  0  0  0  0
 36 66  1  0  0  0  0
 36 67  1  0  0  0  0
 36 68  1  0  0  0  0
M  END
> <PUBCHEM_COMPOUND_CID>
11882569

> <PUBCHEM_CONFORMER_RMSD>
1.2

> <PUBCHEM_CONFORMER_DIVERSEORDER>
1
7
119
71
116
54
46
103
123
41
128
126
72
130
121
85
93
15
80
91
18
108
110
98
8
64
47
101
58
111
99
51
9
10
120
122
6
106
26
42
65
34
113
23
66
109
24
74
69
50
100
70
129
37
84
44
19
79
2
29
63
105
131
86
14
115
114
118
127
3
22
11
30
102
73
94
49
76
48
90
61
5
40
39
77
21
38
53
97
12
43
95
87
33
78
25
125
57
92
45
117
68
62
112
28
17
36
20
67
82
104
35
88
31
81
32
89
75
55
13
4
56
83
124
107
52
27
59
60
16
96

> <PUBCHEM_MMFF94_PARTIAL_CHARGES>
50
1 -0.68
10 -0.55
11 -0.8
12 0.34
13 0.3
15 0.28
17 0.28
18 0.57
19 0.36
2 -0.68
20 0.69
21 0.14
22 0.57
23 -0.14
24 0.12
25 -0.15
26 -0.15
27 -0.15
28 -0.15
29 -0.15
3 -0.68
30 -0.15
31 0.08
32 -0.15
33 -0.15
34 -0.14
35 0.14
36 0.28
4 -0.57
44 0.37
45 0.4
46 0.4
47 0.4
48 0.37
5 -0.57
52 0.37
53 0.37
54 0.37
55 0.15
56 0.15
57 0.15
58 0.15
59 0.15
6 -0.57
60 0.15
61 0.15
62 0.15
7 -0.36
8 -0.73
9 -0.73

> <PUBCHEM_EFFECTIVE_ROTOR_COUNT>
12.2

> <PUBCHEM_PHARMACOPHORE_FEATURES>
17
1 1 acceptor
1 1 donor
1 10 donor
1 11 donor
1 2 acceptor
1 2 donor
1 3 acceptor
1 3 donor
1 4 acceptor
1 5 acceptor
1 6 acceptor
1 7 acceptor
1 8 donor
1 9 donor
6 12 13 14 15 16 17 rings
6 23 25 26 29 30 31 rings
6 24 27 28 32 33 34 rings

> <PUBCHEM_HEAVY_ATOM_COUNT>
36

> <PUBCHEM_ATOM_DEF_STEREO_COUNT>
5

> <PUBCHEM_ATOM_UDEF_STEREO_COUNT>
0

> <PUBCHEM_BOND_DEF_STEREO_COUNT>
0

> <PUBCHEM_BOND_UDEF_STEREO_COUNT>
0

> <PUBCHEM_ISOTOPIC_ATOM_COUNT>
0

> <PUBCHEM_COMPONENT_COUNT>
1

> <PUBCHEM_CACTVS_TAUTO_COUNT>
12

> <PUBCHEM_CONFORMER_ID>
00B5504900000001

> <PUBCHEM_MMFF94_ENERGY>
106.8897

> <PUBCHEM_FEATURE_SELFOVERLAP>
86.358

> <PUBCHEM_SHAPE_FINGERPRINT>
10006869 2 18189889816708838770
10864689 126 18267305323052513068
1100329 8 18337674212620475741
13402501 40 18410010996596578433
14904385 31 18339074887850581276
15274700 208 17273960515700071936
15513586 35 17831321732071542096
15876981 60 18189053256201449374
15968369 153 18271805782816177308
17627616 140 17758686928915708332
18393751 57 18337115545319472667
19319366 153 17749105556767942002
19611394 137 18115324383384152979
20764821 26 18337389464757392348
20771845 165 18200319814396888502
21133410 38 17841436921721206825
21133410 90 17346033506108643649
24771293 8 18341618071547546697
25019877 29 17775288261731017535
3383291 50 18411981360204011133
373842 8 18189896414421845810
44249763 50 18130493237326475418
5085150 59 18335414608898998221
6004065 56 18411696583230789237
6608658 132 18337378400905852263
9961470 85 18055622056830382897

> <PUBCHEM_SHAPE_MULTIPOLES>
679.85
15.99
6.45
1.46
28.22
0.96
0.37
4
3.61
-5.6
-2.16
-0.05
-0.76
-0.15

> <PUBCHEM_SHAPE_SELFOVERLAP>
1438.558

> <PUBCHEM_SHAPE_VOLUME>
377.4

> <PUBCHEM_COORDINATE_TYPE>
2
5
10

$$$$
