26745072
  -OEChem-12032416353D

 51 55  0     1  0  0  0  0  0999 V2000
    0.7821   -1.1741   -1.9338 O   0  0  0  0  0  0  0  0  0  0  0  0
   -2.7720   -0.6301   -2.2704 O   0  0  0  0  0  0  0  0  0  0  0  0
   -2.0801   -3.2034    1.6657 O   0  0  0  0  0  0  0  0  0  0  0  0
   -1.7383   -2.7558   -0.5365 O   0  0  0  0  0  0  0  0  0  0  0  0
   -1.5488    0.6386   -0.7253 N   0  0  0  0  0  0  0  0  0  0  0  0
   -0.6846    3.4234    1.6019 N   0  0  0  0  0  0  0  0  0  0  0  0
    0.1961    4.3762   -0.2172 N   0  0  0  0  0  0  0  0  0  0  0  0
    1.8435    0.3675   -0.7036 N   0  0  0  0  0  0  0  0  0  0  0  0
    1.9879   -1.7611   -1.5297 N   0  0  0  0  0  0  0  0  0  0  0  0
   -0.4490    0.9373   -1.7034 C   0  0  1  0  0  0  0  0  0  0  0  0
   -0.2134    2.4724   -1.8379 C   0  0  0  0  0  0  0  0  0  0  0  0
   -1.4115    1.1686    0.6614 C   0  0  0  0  0  0  0  0  0  0  0  0
   -0.2700    3.1259   -0.5113 C   0  0  0  0  0  0  0  0  0  0  0  0
   -0.8199    2.5192    0.5912 C   0  0  0  0  0  0  0  0  0  0  0  0
    0.7770    0.0776   -1.4051 C   0  0  0  0  0  0  0  0  0  0  0  0
   -2.6180   -0.1713   -1.1393 C   0  0  0  0  0  0  0  0  0  0  0  0
   -0.0676    4.5258    1.0656 C   0  0  0  0  0  0  0  0  0  0  0  0
   -3.6439   -0.5295   -0.1487 C   0  0  0  0  0  0  0  0  0  0  0  0
    2.5574   -0.7907   -0.8086 C   0  0  0  0  0  0  0  0  0  0  0  0
   -3.5263   -1.6788    0.6329 C   0  0  0  0  0  0  0  0  0  0  0  0
   -4.7509    0.3059    0.0015 C   0  0  0  0  0  0  0  0  0  0  0  0
    3.8383   -0.9456   -0.1816 C   0  0  0  0  0  0  0  0  0  0  0  0
   -4.5159   -1.9929    1.5646 C   0  0  0  0  0  0  0  0  0  0  0  0
   -5.7402   -0.0080    0.9335 C   0  0  0  0  0  0  0  0  0  0  0  0
   -5.6229   -1.1575    1.7149 C   0  0  0  0  0  0  0  0  0  0  0  0
    4.3839    0.1024    0.5597 C   0  0  0  0  0  0  0  0  0  0  0  0
   -2.3822   -2.5712    0.4997 C   0  0  0  0  0  0  0  0  0  0  0  0
    4.5374   -2.1456   -0.3123 C   0  0  0  0  0  0  0  0  0  0  0  0
    5.6287   -0.0494    1.1705 C   0  0  0  0  0  0  0  0  0  0  0  0
    5.7823   -2.2974    0.2984 C   0  0  0  0  0  0  0  0  0  0  0  0
    6.3279   -1.2494    1.0400 C   0  0  0  0  0  0  0  0  0  0  0  0
    6.2125    1.0708    1.9633 C   0  0  0  0  0  0  0  0  0  0  0  0
   -0.7834    0.6087   -2.6968 H   0  0  0  0  0  0  0  0  0  0  0  0
   -1.0110    2.9018   -2.4569 H   0  0  0  0  0  0  0  0  0  0  0  0
    0.7418    2.6767   -2.3335 H   0  0  0  0  0  0  0  0  0  0  0  0
   -0.7516    0.4840    1.2051 H   0  0  0  0  0  0  0  0  0  0  0  0
   -2.3743    1.2006    1.1743 H   0  0  0  0  0  0  0  0  0  0  0  0
   -0.9785    3.3083    2.5629 H   0  0  0  0  0  0  0  0  0  0  0  0
    0.1590    5.3978    1.6625 H   0  0  0  0  0  0  0  0  0  0  0  0
   -4.8533    1.2046   -0.6014 H   0  0  0  0  0  0  0  0  0  0  0  0
   -4.4611   -2.8876    2.1793 H   0  0  0  0  0  0  0  0  0  0  0  0
   -6.6023    0.6422    1.0501 H   0  0  0  0  0  0  0  0  0  0  0  0
   -6.3950   -1.4032    2.4381 H   0  0  0  0  0  0  0  0  0  0  0  0
    3.8546    1.0463    0.6717 H   0  0  0  0  0  0  0  0  0  0  0  0
    4.1444   -2.9841   -0.8817 H   0  0  0  0  0  0  0  0  0  0  0  0
    6.3272   -3.2314    0.1966 H   0  0  0  0  0  0  0  0  0  0  0  0
    7.2994   -1.3801    1.5093 H   0  0  0  0  0  0  0  0  0  0  0  0
    6.7425    1.7630    1.3014 H   0  0  0  0  0  0  0  0  0  0  0  0
    5.4311    1.6217    2.4978 H   0  0  0  0  0  0  0  0  0  0  0  0
    6.9164    0.7015    2.7170 H   0  0  0  0  0  0  0  0  0  0  0  0
   -1.3087   -3.8015    1.5674 H   0  0  0  0  0  0  0  0  0  0  0  0
  1  9  1  0  0  0  0
  1 15  1  0  0  0  0
  2 16  2  0  0  0  0
  3 27  1  0  0  0  0
  3 51  1  0  0  0  0
  4 27  2  0  0  0  0
  5 10  1  0  0  0  0
  5 12  1  0  0  0  0
  5 16  1  0  0  0  0
  6 14  1  0  0  0  0
  6 17  1  0  0  0  0
  6 38  1  0  0  0  0
  7 13  1  0  0  0  0
  7 17  2  0  0  0  0
  8 15  2  0  0  0  0
  8 19  1  0  0  0  0
  9 19  2  0  0  0  0
 10 11  1  0  0  0  0
 10 15  1  0  0  0  0
 10 33  1  0  0  0  0
 11 13  1  0  0  0  0
 11 34  1  0  0  0  0
 11 35  1  0  0  0  0
 12 14  1  0  0  0  0
 12 36  1  0  0  0  0
 12 37  1  0  0  0  0
 13 14  2  0  0  0  0
 16 18  1  0  0  0  0
 17 39  1  0  0  0  0
 18 20  1  0  0  0  0
 18 21  2  0  0  0  0
 19 22  1  0  0  0  0
 20 23  2  0  0  0  0
 20 27  1  0  0  0  0
 21 24  1  0  0  0  0
 21 40  1  0  0  0  0
 22 26  1  0  0  0  0
 22 28  2  0  0  0  0
 23 25  1  0  0  0  0
 23 41  1  0  0  0  0
 24 25  2  0  0  0  0
 24 42  1  0  0  0  0
 25 43  1  0  0  0  0
 26 29  2  0  0  0  0
 26 44  1  0  0  0  0
 28 30  1  0  0  0  0
 28 45  1  0  0  0  0
 29 31  1  0  0  0  0
 29 32  1  0  0  0  0
 30 31  2  0  0  0  0
 30 46  1  0  0  0  0
 31 47  1  0  0  0  0
 32 48  1  0  0  0  0
 32 49  1  0  0  0  0
 32 50  1  0  0  0  0
M  END
> <PUBCHEM_COMPOUND_CID>
26745072

> <PUBCHEM_CONFORMER_RMSD>
0.8

> <PUBCHEM_CONFORMER_DIVERSEORDER>
1
194
9
100
116
237
27
119
190
202
122
232
63
203
164
201
224
144
207
121
79
174
217
187
52
171
117
40
73
114
159
89
130
54
238
212
186
220
214
56
170
234
82
153
75
83
74
138
22
222
176
19
244
50
172
235
111
90
178
36
181
158
146
80
189
223
29
209
96
33
229
69
211
42
168
136
196
133
239
37
104
46
245
173
128
215
162
20
115
38
177
30
240
227
2
48
231
188
34
219
204
210
11
199
125
57
165
129
216
35
78
103
102
151
145
21
137
68
55
221
140
160
87
109
6
127
169
10
183
64
197
205
84
139
43
192
98
91
66
101
206
39
126
241
4
110
72
59
141
3
226
81
23
108
225
149
93
77
124
156
99
175
131
7
51
31
95
155
61
167
179
41
16
105
208
134
123
148
88
200
58
45
132
218
25
8
213
191
180
161
107
60
142
18
5
113
233
97
12
193
182
92
32
62
152
163
157
26
236
150
118
70
13
228
184
65
47
71
53
166
67
230
147
24
85
76
135
44
195
86
185
17
198
143
154
106
120
243
94
49
28
15
112
242
14

> <PUBCHEM_MMFF94_PARTIAL_CHARGES>
43
1 -0.02
10 0.48
11 0.18
12 0.48
13 0.05
14 -0.33
15 0.3
16 0.54
17 0.04
18 0.09
19 0.46
2 -0.57
20 0.09
21 -0.15
22 0.05
23 -0.15
24 -0.15
25 -0.15
26 -0.15
27 0.63
28 -0.15
29 -0.14
3 -0.65
30 -0.15
31 -0.15
32 0.14
38 0.27
39 0.15
4 -0.57
40 0.15
41 0.15
42 0.15
43 0.15
44 0.15
45 0.15
46 0.15
47 0.15
5 -0.66
51 0.5
6 0.03
7 -0.57
8 -0.57
9 -0.41

> <PUBCHEM_EFFECTIVE_ROTOR_COUNT>
5.8

> <PUBCHEM_PHARMACOPHORE_FEATURES>
12
1 2 acceptor
1 3 acceptor
1 4 acceptor
1 6 donor
3 3 4 27 anion
3 6 7 17 cation
3 8 9 19 cation
5 1 8 9 15 19 rings
5 6 7 13 14 17 rings
6 18 20 21 23 24 25 rings
6 22 26 28 29 30 31 rings
6 5 10 11 12 13 14 rings

> <PUBCHEM_HEAVY_ATOM_COUNT>
32

> <PUBCHEM_ATOM_DEF_STEREO_COUNT>
1

> <PUBCHEM_ATOM_UDEF_STEREO_COUNT>
0

> <PUBCHEM_BOND_DEF_STEREO_COUNT>
0

> <PUBCHEM_BOND_UDEF_STEREO_COUNT>
0

> <PUBCHEM_ISOTOPIC_ATOM_COUNT>
0

> <PUBCHEM_COMPONENT_COUNT>
1

> <PUBCHEM_CACTVS_TAUTO_COUNT>
2

> <PUBCHEM_CONFORMER_ID>
019818F000000001

> <PUBCHEM_MMFF94_ENERGY>
81.8692

> <PUBCHEM_FEATURE_SELFOVERLAP>
61.059

> <PUBCHEM_SHAPE_FINGERPRINT>
10006869 2 17908421351959608165
10074138 170 18123759651497380313
10653451 467 18268708308458864681
10930396 42 18266150929836191816
11135926 11 18120366816644546884
11456790 92 18262819414822157665
11646440 116 18335433352289051155
12422481 6 17775284945878899712
12633257 1 18124061120037041459
12788726 201 18266482939213451461
13004483 165 18409454678156590448
13383668 362 18050009084847036531
14068700 675 17895199891759498742
14394314 77 18335703806431992577
14466204 15 18339657629367068561
14840074 17 17846498166515649796
15131766 46 16271058550322670194
15163728 17 11023564505157711827
15183329 4 9079124375609488954
15840311 113 16628584410096712427
17974551 9 17899715727886319995
17980427 23 17560517417113777261
18393751 57 17775284962900994199
19315092 285 16806143507679251440
20600515 1 18261965063294364973
20775438 99 11821844160490546315
21033648 29 16844465855587738723
21344244 78 17917168177295952297
21756936 100 13038889020252290054
22122407 14 16773799242174463714
22956985 138 17757546735357385922
23845131 108 17474676044278216633
3380486 145 18200863024738250117
3383291 50 18113340842948795371
392239 28 18341040909077714434
4058900 60 9799426528724170365
44249763 50 9222357708216202006
469060 322 17313675827985381468
50009960 94 17900255613676185811
56638632 33 18189052160837108184
57527452 28 17313109618252198123
6004065 56 18343296007595289687
6009941 240 18041838399124018109
6669772 16 11819843006557454668
7226269 152 18337671910850080341

> <PUBCHEM_SHAPE_MULTIPOLES>
610.16
13.18
4.45
1.91
12.43
4.83
-0.27
-9.68
8.1
-0.94
1.31
-0.25
0.11
1.5

> <PUBCHEM_SHAPE_SELFOVERLAP>
1359.266

> <PUBCHEM_SHAPE_VOLUME>
323.6

> <PUBCHEM_COORDINATE_TYPE>
2
5
10

$$$$
