26744874
  -OEChem-12032416353D

 48 52  0     1  0  0  0  0  0999 V2000
    2.2750   -1.3039    1.9775 O   0  0  0  0  0  0  0  0  0  0  0  0
   -3.8102    4.7451   -1.3854 O   0  0  0  0  0  0  0  0  0  0  0  0
   -5.6617    4.0942   -0.2387 O   0  0  0  0  0  0  0  0  0  0  0  0
   -0.9286   -1.3630    0.4837 N   0  0  1  0  0  0  0  0  0  0  0  0
   -2.8005   -4.3408   -0.8184 N   0  0  0  0  0  0  0  0  0  0  0  0
   -0.7829   -5.0890   -1.4251 N   0  0  0  0  0  0  0  0  0  0  0  0
    2.1084   -0.4711   -0.0950 N   0  0  0  0  0  0  0  0  0  0  0  0
    3.3635   -0.4370    1.8175 N   0  0  0  0  0  0  0  0  0  0  0  0
    5.8515    2.7730   -1.2260 N   0  0  0  0  0  0  0  0  0  0  0  0
    0.3385   -2.1365    0.7218 C   0  0  1  0  0  0  0  0  0  0  0  0
    0.5884   -3.2312   -0.3756 C   0  0  0  0  0  0  0  0  0  0  0  0
   -2.1350   -2.2409    0.4832 C   0  0  0  0  0  0  0  0  0  0  0  0
   -1.8936   -3.4527   -0.3257 C   0  0  0  0  0  0  0  0  0  0  0  0
   -0.6679   -3.9352   -0.7034 C   0  0  0  0  0  0  0  0  0  0  0  0
   -1.1339   -0.3055    1.4827 C   0  0  0  0  0  0  0  0  0  0  0  0
    1.5880   -1.2657    0.8059 C   0  0  0  0  0  0  0  0  0  0  0  0
   -2.0087    0.8011    0.9561 C   0  0  0  0  0  0  0  0  0  0  0  0
   -2.0821   -5.3099   -1.4745 C   0  0  0  0  0  0  0  0  0  0  0  0
   -3.3409    0.8894    1.3600 C   0  0  0  0  0  0  0  0  0  0  0  0
   -1.4867    1.7377    0.0640 C   0  0  0  0  0  0  0  0  0  0  0  0
    3.1957    0.0148    0.5711 C   0  0  0  0  0  0  0  0  0  0  0  0
   -4.1510    1.9146    0.8717 C   0  0  0  0  0  0  0  0  0  0  0  0
   -2.2967    2.7628   -0.4241 C   0  0  0  0  0  0  0  0  0  0  0  0
   -3.6289    2.8514   -0.0203 C   0  0  0  0  0  0  0  0  0  0  0  0
    4.0964    0.9502   -0.0383 C   0  0  0  0  0  0  0  0  0  0  0  0
    3.8746    1.3861   -1.3400 C   0  0  0  0  0  0  0  0  0  0  0  0
    5.1946    1.4247    0.6702 C   0  0  0  0  0  0  0  0  0  0  0  0
   -4.4733    3.9208   -0.5287 C   0  0  0  0  0  0  0  0  0  0  0  0
    4.7734    2.2898   -1.8833 C   0  0  0  0  0  0  0  0  0  0  0  0
    6.0344    2.3268    0.0370 C   0  0  0  0  0  0  0  0  0  0  0  0
    0.2311   -2.6530    1.6879 H   0  0  0  0  0  0  0  0  0  0  0  0
    1.3429   -3.9443   -0.0229 H   0  0  0  0  0  0  0  0  0  0  0  0
    0.9764   -2.7705   -1.2932 H   0  0  0  0  0  0  0  0  0  0  0  0
   -2.9899   -1.6995    0.0630 H   0  0  0  0  0  0  0  0  0  0  0  0
   -2.3931   -2.5552    1.5029 H   0  0  0  0  0  0  0  0  0  0  0  0
   -0.1922    0.1804    1.7655 H   0  0  0  0  0  0  0  0  0  0  0  0
   -1.5253   -0.7053    2.4283 H   0  0  0  0  0  0  0  0  0  0  0  0
   -3.8065   -4.3020   -0.7196 H   0  0  0  0  0  0  0  0  0  0  0  0
   -2.5659   -6.1434   -1.9636 H   0  0  0  0  0  0  0  0  0  0  0  0
   -3.7602    0.1659    2.0541 H   0  0  0  0  0  0  0  0  0  0  0  0
   -0.4501    1.6788   -0.2578 H   0  0  0  0  0  0  0  0  0  0  0  0
   -5.1863    1.9661    1.1985 H   0  0  0  0  0  0  0  0  0  0  0  0
   -1.8496    3.4704   -1.1166 H   0  0  0  0  0  0  0  0  0  0  0  0
    3.0334    1.0476   -1.9360 H   0  0  0  0  0  0  0  0  0  0  0  0
    5.4181    1.1208    1.6876 H   0  0  0  0  0  0  0  0  0  0  0  0
    4.6454    2.6608   -2.8948 H   0  0  0  0  0  0  0  0  0  0  0  0
    6.9050    2.7271    0.5461 H   0  0  0  0  0  0  0  0  0  0  0  0
   -4.3881    5.4627   -1.7222 H   0  0  0  0  0  0  0  0  0  0  0  0
  1  8  1  0  0  0  0
  1 16  1  0  0  0  0
  2 28  1  0  0  0  0
  2 48  1  0  0  0  0
  3 28  2  0  0  0  0
  4 10  1  0  0  0  0
  4 12  1  0  0  0  0
  4 15  1  0  0  0  0
  5 13  1  0  0  0  0
  5 18  1  0  0  0  0
  5 38  1  0  0  0  0
  6 14  1  0  0  0  0
  6 18  2  0  0  0  0
  7 16  2  0  0  0  0
  7 21  1  0  0  0  0
  8 21  2  0  0  0  0
  9 29  2  0  0  0  0
  9 30  1  0  0  0  0
 10 11  1  0  0  0  0
 10 16  1  0  0  0  0
 10 31  1  0  0  0  0
 11 14  1  0  0  0  0
 11 32  1  0  0  0  0
 11 33  1  0  0  0  0
 12 13  1  0  0  0  0
 12 34  1  0  0  0  0
 12 35  1  0  0  0  0
 13 14  2  0  0  0  0
 15 17  1  0  0  0  0
 15 36  1  0  0  0  0
 15 37  1  0  0  0  0
 17 19  2  0  0  0  0
 17 20  1  0  0  0  0
 18 39  1  0  0  0  0
 19 22  1  0  0  0  0
 19 40  1  0  0  0  0
 20 23  2  0  0  0  0
 20 41  1  0  0  0  0
 21 25  1  0  0  0  0
 22 24  2  0  0  0  0
 22 42  1  0  0  0  0
 23 24  1  0  0  0  0
 23 43  1  0  0  0  0
 24 28  1  0  0  0  0
 25 26  2  0  0  0  0
 25 27  1  0  0  0  0
 26 29  1  0  0  0  0
 26 44  1  0  0  0  0
 27 30  2  0  0  0  0
 27 45  1  0  0  0  0
 29 46  1  0  0  0  0
 30 47  1  0  0  0  0
M  END
> <PUBCHEM_COMPOUND_CID>
26744874

> <PUBCHEM_CONFORMER_RMSD>
0.8

> <PUBCHEM_CONFORMER_DIVERSEORDER>
1
38
16
49
20
34
36
7
3
51
48
46
28
14
2
22
42
12
26
44
35
43
45
15
40
41
29
30
52
54
17
23
27
11
37
50
25
32
33
47
24
13
53
18
8
31
39
4
19
5
21
9
10
6

> <PUBCHEM_MMFF94_PARTIAL_CHARGES>
41
1 -0.02
10 0.45
11 0.18
12 0.45
13 -0.33
14 0.05
15 0.41
16 0.3
17 -0.14
18 0.04
19 -0.15
2 -0.65
20 -0.15
21 0.46
22 -0.15
23 -0.15
24 0.09
25 0.05
26 -0.15
27 -0.15
28 0.63
29 0.16
3 -0.57
30 0.16
38 0.27
39 0.15
4 -0.81
40 0.15
41 0.15
42 0.15
43 0.15
44 0.15
45 0.15
46 0.15
47 0.15
48 0.5
5 0.03
6 -0.57
7 -0.57
8 -0.41
9 -0.62

> <PUBCHEM_EFFECTIVE_ROTOR_COUNT>
5.8

> <PUBCHEM_PHARMACOPHORE_FEATURES>
13
1 2 acceptor
1 3 acceptor
1 4 cation
1 5 donor
1 9 acceptor
3 2 3 28 anion
3 5 6 18 cation
3 7 8 21 cation
5 1 7 8 16 21 rings
5 5 6 13 14 18 rings
6 17 19 20 22 23 24 rings
6 4 10 11 12 13 14 rings
6 9 25 26 27 29 30 rings

> <PUBCHEM_HEAVY_ATOM_COUNT>
30

> <PUBCHEM_ATOM_DEF_STEREO_COUNT>
1

> <PUBCHEM_ATOM_UDEF_STEREO_COUNT>
0

> <PUBCHEM_BOND_DEF_STEREO_COUNT>
0

> <PUBCHEM_BOND_UDEF_STEREO_COUNT>
0

> <PUBCHEM_ISOTOPIC_ATOM_COUNT>
0

> <PUBCHEM_COMPONENT_COUNT>
1

> <PUBCHEM_CACTVS_TAUTO_COUNT>
2

> <PUBCHEM_CONFORMER_ID>
0198182A00000001

> <PUBCHEM_MMFF94_ENERGY>
72.0441

> <PUBCHEM_FEATURE_SELFOVERLAP>
66.129

> <PUBCHEM_SHAPE_FINGERPRINT>
10673678 19 18194120716516261177
10871710 139 18191595356843501042
10937287 8 18339644434293618013
11477941 20 17694224770003219572
11513181 2 18338802195506952844
12107183 9 18262509292265863314
12788726 201 18192702560679096234
13540713 5 18188194490945052794
13617811 41 17909553105369669598
13911987 19 18343023251223238217
14114206 34 17981586475660010406
14114211 80 18270415896633518641
14294032 229 18339931509902447329
14556957 393 17902517326215107940
14910302 57 17772214117772589382
15198563 99 18124879220648250495
15420108 30 18334572426136713700
15448158 71 18187377544899805648
15705408 1 17262435103018214359
15878777 1 11428528282626122091
15979999 66 17115507342623638503
16087824 20 18339923844668315907
16988056 13 17256243744214837124
16992828 155 18187366562098906700
17980427 26 17458618987499394346
21033650 10 18048060703277207180
21641784 216 18050575345713703942
21792964 463 17676770988905176007
22149856 69 17983858888140074865
22907989 373 18265597939822615967
23516275 100 16970831979381754260
23559900 14 17689437084016427657
23929065 36 18053645139603295808
3057174 1 18057604270184000319
3388396 114 17255132662388881868
340366 18 18267305335937499218
3534868 343 17481133510960665993
376196 1 18043815273516879561
4066623 53 17693361648652764237
44249763 50 18199749318518198224
5219985 13 18336550430158935553
5223283 242 16538201015072349693
6058803 2 18261657264996223770
6608658 132 18120378906486120998
6677587 24 17466466094454549901
6700243 42 17481743001168417662
7808743 9 18410014368588952864

> <PUBCHEM_SHAPE_MULTIPOLES>
569.89
11.45
7.91
1.55
14.81
4.91
-0.02
-16.73
2.19
-13.04
5
0.71
0.21
-1.7

> <PUBCHEM_SHAPE_SELFOVERLAP>
1265.224

> <PUBCHEM_SHAPE_VOLUME>
302.9

> <PUBCHEM_COORDINATE_TYPE>
2
5
10

$$$$
