75536361
  -OEChem-12032416303D

 55 58  0     1  0  0  0  0  0999 V2000
    2.4333   -1.1389    0.8076 O   0  0  0  0  0  0  0  0  0  0  0  0
    5.2655   -1.3572    1.5946 O   0  0  0  0  0  0  0  0  0  0  0  0
   -1.8122   -1.6118   -1.5971 O   0  0  0  0  0  0  0  0  0  0  0  0
    1.4428    1.5326    0.8370 N   0  0  0  0  0  0  0  0  0  0  0  0
   -0.9298    4.7873   -0.5338 N   0  0  0  0  0  0  0  0  0  0  0  0
   -0.5229   -2.0415   -1.8877 N   0  0  0  0  0  0  0  0  0  0  0  0
   -4.1451   -0.8483   -0.7815 N   0  0  0  0  0  0  0  0  0  0  0  0
    3.3150   -0.0399    1.0723 C   0  0  1  0  0  0  0  0  0  0  0  0
    4.7602   -0.3774    0.6836 C   0  0  2  0  0  0  0  0  0  0  0  0
    2.4494   -1.6209   -0.5382 C   0  0  1  0  0  0  0  0  0  0  0  0
    0.7976    2.4625   -0.0869 C   0  0  0  0  0  0  0  0  0  0  0  0
    4.8635   -0.9548   -0.7255 C   0  0  0  0  0  0  0  0  0  0  0  0
    3.8531   -2.0801   -0.9295 C   0  0  0  0  0  0  0  0  0  0  0  0
    2.8060    1.2435    0.4195 C   0  0  0  0  0  0  0  0  0  0  0  0
   -0.7255    2.3884    0.0633 C   0  0  0  0  0  0  0  0  0  0  0  0
    1.2821    3.8974    0.1504 C   0  0  0  0  0  0  0  0  0  0  0  0
    1.4577   -2.7748   -0.6237 C   0  0  0  0  0  0  0  0  0  0  0  0
   -1.4110    3.4332   -0.8186 C   0  0  0  0  0  0  0  0  0  0  0  0
    0.5182    4.8831   -0.7350 C   0  0  0  0  0  0  0  0  0  0  0  0
    0.0367   -2.2842   -0.6990 C   0  0  0  0  0  0  0  0  0  0  0  0
   -0.8428   -2.0282    0.3671 C   0  0  0  0  0  0  0  0  0  0  0  0
   -1.9906   -1.6081   -0.2513 C   0  0  0  0  0  0  0  0  0  0  0  0
   -3.2834   -1.1864    0.2038 C   0  0  0  0  0  0  0  0  0  0  0  0
   -3.5924   -1.1412    1.5538 C   0  0  0  0  0  0  0  0  0  0  0  0
   -4.8679   -0.7222    1.9157 C   0  0  0  0  0  0  0  0  0  0  0  0
   -5.3753   -0.4458   -0.3915 C   0  0  0  0  0  0  0  0  0  0  0  0
   -5.7823   -0.3662    0.9305 C   0  0  0  0  0  0  0  0  0  0  0  0
    3.2829    0.0953    2.1615 H   0  0  0  0  0  0  0  0  0  0  0  0
    5.3982    0.5079    0.7815 H   0  0  0  0  0  0  0  0  0  0  0  0
    2.1300   -0.8210   -1.2169 H   0  0  0  0  0  0  0  0  0  0  0  0
    1.0198    2.1774   -1.1250 H   0  0  0  0  0  0  0  0  0  0  0  0
    5.8714   -1.3450   -0.9087 H   0  0  0  0  0  0  0  0  0  0  0  0
    4.6817   -0.1661   -1.4648 H   0  0  0  0  0  0  0  0  0  0  0  0
    3.8736   -2.4118   -1.9738 H   0  0  0  0  0  0  0  0  0  0  0  0
    4.1487   -2.9361   -0.3096 H   0  0  0  0  0  0  0  0  0  0  0  0
    2.8666    1.1483   -0.6698 H   0  0  0  0  0  0  0  0  0  0  0  0
    3.4626    2.0731    0.7062 H   0  0  0  0  0  0  0  0  0  0  0  0
    0.9126    0.6609    0.8523 H   0  0  0  0  0  0  0  0  0  0  0  0
   -1.0126    2.5538    1.1105 H   0  0  0  0  0  0  0  0  0  0  0  0
   -1.0868    1.3911   -0.2130 H   0  0  0  0  0  0  0  0  0  0  0  0
    2.3528    3.9890   -0.0659 H   0  0  0  0  0  0  0  0  0  0  0  0
    1.1433    4.1743    1.2042 H   0  0  0  0  0  0  0  0  0  0  0  0
    1.5577   -3.4351    0.2472 H   0  0  0  0  0  0  0  0  0  0  0  0
    1.6560   -3.3837   -1.5152 H   0  0  0  0  0  0  0  0  0  0  0  0
   -2.4910    3.3985   -0.6380 H   0  0  0  0  0  0  0  0  0  0  0  0
   -1.2571    3.1943   -1.8781 H   0  0  0  0  0  0  0  0  0  0  0  0
    0.7631    4.7125   -1.7906 H   0  0  0  0  0  0  0  0  0  0  0  0
    0.8394    5.9024   -0.4939 H   0  0  0  0  0  0  0  0  0  0  0  0
   -1.3996    5.4480   -1.1522 H   0  0  0  0  0  0  0  0  0  0  0  0
    6.1951   -1.5228    1.3622 H   0  0  0  0  0  0  0  0  0  0  0  0
   -0.6595   -2.1353    1.4263 H   0  0  0  0  0  0  0  0  0  0  0  0
   -2.8812   -1.4180    2.3249 H   0  0  0  0  0  0  0  0  0  0  0  0
   -5.1489   -0.6729    2.9634 H   0  0  0  0  0  0  0  0  0  0  0  0
   -6.0507   -0.1791   -1.1976 H   0  0  0  0  0  0  0  0  0  0  0  0
   -6.7819   -0.0366    1.1894 H   0  0  0  0  0  0  0  0  0  0  0  0
  1  8  1  0  0  0  0
  1 10  1  0  0  0  0
  2  9  1  0  0  0  0
  2 50  1  0  0  0  0
  3  6  1  0  0  0  0
  3 22  1  0  0  0  0
  4 11  1  0  0  0  0
  4 14  1  0  0  0  0
  4 38  1  0  0  0  0
  5 18  1  0  0  0  0
  5 19  1  0  0  0  0
  5 49  1  0  0  0  0
  6 20  2  0  0  0  0
  7 23  1  0  0  0  0
  7 26  2  0  0  0  0
  8  9  1  0  0  0  0
  8 14  1  0  0  0  0
  8 28  1  0  0  0  0
  9 12  1  0  0  0  0
  9 29  1  0  0  0  0
 10 13  1  0  0  0  0
 10 17  1  0  0  0  0
 10 30  1  0  0  0  0
 11 15  1  0  0  0  0
 11 16  1  0  0  0  0
 11 31  1  0  0  0  0
 12 13  1  0  0  0  0
 12 32  1  0  0  0  0
 12 33  1  0  0  0  0
 13 34  1  0  0  0  0
 13 35  1  0  0  0  0
 14 36  1  0  0  0  0
 14 37  1  0  0  0  0
 15 18  1  0  0  0  0
 15 39  1  0  0  0  0
 15 40  1  0  0  0  0
 16 19  1  0  0  0  0
 16 41  1  0  0  0  0
 16 42  1  0  0  0  0
 17 20  1  0  0  0  0
 17 43  1  0  0  0  0
 17 44  1  0  0  0  0
 18 45  1  0  0  0  0
 18 46  1  0  0  0  0
 19 47  1  0  0  0  0
 19 48  1  0  0  0  0
 20 21  1  0  0  0  0
 21 22  2  0  0  0  0
 21 51  1  0  0  0  0
 22 23  1  0  0  0  0
 23 24  2  0  0  0  0
 24 25  1  0  0  0  0
 24 52  1  0  0  0  0
 25 27  2  0  0  0  0
 25 53  1  0  0  0  0
 26 27  1  0  0  0  0
 26 54  1  0  0  0  0
 27 55  1  0  0  0  0
M  END
> <PUBCHEM_COMPOUND_CID>
75536361

> <PUBCHEM_CONFORMER_RMSD>
1

> <PUBCHEM_CONFORMER_DIVERSEORDER>
1
148
155
121
97
149
80
129
78
86
64
142
106
3
99
100
145
30
165
35
161
167
120
76
112
144
154
150
14
83
36
160
46
49
107
43
18
37
73
134
173
140
91
171
132
131
137
57
48
19
52
40
151
127
122
94
153
138
41
163
22
159
67
143
25
133
170
109
164
135
42
126
162
75
70
123
32
117
84
90
6
81
85
34
152
146
157
113
5
168
20
45
108
156
77
26
114
141
13
130
172
125
7
89
166
31
128
58
88
51
110
98
62
116
28
54
63
12
87
102
118
136
61
60
101
71
55
50
9
44
74
72
95
65
105
103
158
53
147
111
68
8
139
69
38
96
104
27
29
124
119
21
15
169
93
66
47
115
17
11
56
39
79
59
33
10
92
23
2
16
82
24
4

> <PUBCHEM_MMFF94_PARTIAL_CHARGES>
31
1 -0.56
10 0.28
11 0.27
14 0.27
17 0.18
18 0.27
19 0.27
2 -0.68
20 0.11
21 -0.15
22 0.09
23 0.36
24 -0.15
25 -0.15
26 0.16
27 -0.15
3 -0.02
38 0.36
4 -0.9
49 0.36
5 -0.9
50 0.4
51 0.15
52 0.15
53 0.15
54 0.15
55 0.15
6 -0.41
7 -0.62
8 0.28
9 0.28

> <PUBCHEM_EFFECTIVE_ROTOR_COUNT>
8.4

> <PUBCHEM_PHARMACOPHORE_FEATURES>
13
1 1 acceptor
1 2 acceptor
1 2 donor
1 4 cation
1 4 donor
1 5 cation
1 5 donor
1 6 acceptor
1 7 acceptor
5 3 6 20 21 22 rings
6 1 8 9 10 12 13 rings
6 5 11 15 16 18 19 rings
6 7 23 24 25 26 27 rings

> <PUBCHEM_HEAVY_ATOM_COUNT>
27

> <PUBCHEM_ATOM_DEF_STEREO_COUNT>
3

> <PUBCHEM_ATOM_UDEF_STEREO_COUNT>
0

> <PUBCHEM_BOND_DEF_STEREO_COUNT>
0

> <PUBCHEM_BOND_UDEF_STEREO_COUNT>
0

> <PUBCHEM_ISOTOPIC_ATOM_COUNT>
0

> <PUBCHEM_COMPONENT_COUNT>
1

> <PUBCHEM_CACTVS_TAUTO_COUNT>
1

> <PUBCHEM_CONFORMER_ID>
048097E900000001

> <PUBCHEM_MMFF94_ENERGY>
33.8748

> <PUBCHEM_FEATURE_SELFOVERLAP>
65.974

> <PUBCHEM_SHAPE_FINGERPRINT>
10006869 2 17976812096072465919
10670039 82 18265916674241831286
10688039 33 18335143046616434086
12156800 1 17837246737987642093
12166972 35 18202003278641956339
12293681 4 18260274044486412770
12422481 6 18127990623827304731
12553582 1 18338229479125350068
12633257 1 18334292110511360531
12788726 201 18260838059902524090
13075007 39 18043549385087346915
13402501 40 18339075982940836261
13583140 156 18187644747779378195
14363568 33 18191885623729393517
14790565 3 17544195338677977292
14840074 17 18342745155989461504
150020 26 18193002740871110953
15081414 286 18338802328772731800
151778 21 17976267051590048005
15276724 80 18342458150028563476
18785283 64 18192724564260211899
20739085 24 18339644563506685944
21285901 2 18059303063173058030
21360442 67 17253427899812293253
21641784 216 18191331319940395548
21796203 349 18120122638757393456
22113638 7 18269832171848595263
22182313 1 18057880235144898838
3052486 1 18264210219067643942
469060 322 18337687312106828337
474 4 18272370910180906515
513202 73 18194124019261495018
5283268 108 18410579465825165514
6086070 43 18044629066883200551

> <PUBCHEM_SHAPE_MULTIPOLES>
518.12
10.51
5.45
1.42
5.3
9.98
-0.16
-6.84
-3.79
-1.46
1.92
0.41
-0.63
0.58

> <PUBCHEM_SHAPE_SELFOVERLAP>
1093.427

> <PUBCHEM_SHAPE_VOLUME>
288.1

> <PUBCHEM_COORDINATE_TYPE>
2
5
10

$$$$
