7144061
  -OEChem-12032416363D

 50 54  0     1  0  0  0  0  0999 V2000
   -2.4065    1.6419   -1.5407 O   0  0  0  0  0  0  0  0  0  0  0  0
    2.5123    1.3655   -0.6044 N   0  0  2  0  0  0  0  0  0  0  0  0
   -0.5837    1.9617   -0.1219 N   0  0  0  0  0  0  0  0  0  0  0  0
   -6.0312   -0.5011    0.2248 N   0  0  0  0  0  0  0  0  0  0  0  0
   -4.7594   -2.2364   -0.8608 N   0  0  0  0  0  0  0  0  0  0  0  0
    0.1836   -4.1628    0.0022 N   0  0  0  0  0  0  0  0  0  0  0  0
    1.3305    3.5757   -0.6697 C   0  0  1  0  0  0  0  0  0  0  0  0
    1.3792    2.2974    1.4180 C   0  0  2  0  0  0  0  0  0  0  0  0
    1.4538    3.7088    0.8423 C   0  0  0  0  0  0  0  0  0  0  0  0
    2.4754    2.6984   -1.2188 C   0  0  0  0  0  0  0  0  0  0  0  0
    2.5477    1.4510    0.8633 C   0  0  0  0  0  0  0  0  0  0  0  0
   -0.0569    3.0122   -1.0051 C   0  0  0  0  0  0  0  0  0  0  0  0
    0.0489    1.6486    1.0835 C   0  0  0  0  0  0  0  0  0  0  0  0
    3.6397    0.5861   -1.1104 C   0  0  0  0  0  0  0  0  0  0  0  0
   -0.5092    0.7667    1.9279 C   0  0  0  0  0  0  0  0  0  0  0  0
   -1.8027    1.3669   -0.5022 C   0  0  0  0  0  0  0  0  0  0  0  0
   -2.3865    0.3566    0.4486 C   0  0  0  0  0  0  0  0  0  0  0  0
   -1.7420    0.1091    1.5989 C   0  0  0  0  0  0  0  0  0  0  0  0
    3.6163   -0.8160   -0.5658 C   0  0  0  0  0  0  0  0  0  0  0  0
   -3.6347   -0.3590    0.1308 C   0  0  0  0  0  0  0  0  0  0  0  0
    2.4221   -1.5242   -0.5472 C   0  0  0  0  0  0  0  0  0  0  0  0
    4.7900   -1.3838   -0.0884 C   0  0  0  0  0  0  0  0  0  0  0  0
    2.4015   -2.8244   -0.0422 C   0  0  0  0  0  0  0  0  0  0  0  0
    4.7694   -2.6840    0.4165 C   0  0  0  0  0  0  0  0  0  0  0  0
   -4.8692    0.1274    0.4994 C   0  0  0  0  0  0  0  0  0  0  0  0
   -3.6366   -1.5547   -0.5528 C   0  0  0  0  0  0  0  0  0  0  0  0
    3.5751   -3.4041    0.4397 C   0  0  0  0  0  0  0  0  0  0  0  0
    1.1781   -3.5627   -0.0177 C   0  0  0  0  0  0  0  0  0  0  0  0
   -5.9047   -1.6607   -0.4480 C   0  0  0  0  0  0  0  0  0  0  0  0
    1.4215    4.5658   -1.1336 H   0  0  0  0  0  0  0  0  0  0  0  0
    1.4918    2.3689    2.5080 H   0  0  0  0  0  0  0  0  0  0  0  0
    0.6533    4.3417    1.2454 H   0  0  0  0  0  0  0  0  0  0  0  0
    2.4056    4.1835    1.1100 H   0  0  0  0  0  0  0  0  0  0  0  0
    2.3508    2.5977   -2.3043 H   0  0  0  0  0  0  0  0  0  0  0  0
    3.4280    3.2202   -1.0536 H   0  0  0  0  0  0  0  0  0  0  0  0
    3.4952    1.8990    1.1944 H   0  0  0  0  0  0  0  0  0  0  0  0
    2.4875    0.4644    1.3360 H   0  0  0  0  0  0  0  0  0  0  0  0
   -0.7873    3.8316   -0.9568 H   0  0  0  0  0  0  0  0  0  0  0  0
   -0.0846    2.6452   -2.0388 H   0  0  0  0  0  0  0  0  0  0  0  0
    4.5897    1.0797   -0.8657 H   0  0  0  0  0  0  0  0  0  0  0  0
    3.5885    0.5129   -2.2045 H   0  0  0  0  0  0  0  0  0  0  0  0
   -0.0354    0.5008    2.8670 H   0  0  0  0  0  0  0  0  0  0  0  0
   -2.1190   -0.6117    2.3186 H   0  0  0  0  0  0  0  0  0  0  0  0
    1.5059   -1.0839   -0.9349 H   0  0  0  0  0  0  0  0  0  0  0  0
    5.7268   -0.8339   -0.1017 H   0  0  0  0  0  0  0  0  0  0  0  0
    5.6832   -3.1355    0.7916 H   0  0  0  0  0  0  0  0  0  0  0  0
   -4.9767    1.0624    1.0409 H   0  0  0  0  0  0  0  0  0  0  0  0
   -2.7159   -2.0224   -0.8884 H   0  0  0  0  0  0  0  0  0  0  0  0
    3.5750   -4.4165    0.8366 H   0  0  0  0  0  0  0  0  0  0  0  0
   -6.8222   -2.1868   -0.6820 H   0  0  0  0  0  0  0  0  0  0  0  0
  1 16  2  0  0  0  0
  2 10  1  0  0  0  0
  2 11  1  0  0  0  0
  2 14  1  0  0  0  0
  3 12  1  0  0  0  0
  3 13  1  0  0  0  0
  3 16  1  0  0  0  0
  4 25  2  0  0  0  0
  4 29  1  0  0  0  0
  5 26  1  0  0  0  0
  5 29  2  0  0  0  0
  6 28  3  0  0  0  0
  7  9  1  0  0  0  0
  7 10  1  0  0  0  0
  7 12  1  0  0  0  0
  7 30  1  0  0  0  0
  8  9  1  0  0  0  0
  8 11  1  0  0  0  0
  8 13  1  0  0  0  0
  8 31  1  0  0  0  0
  9 32  1  0  0  0  0
  9 33  1  0  0  0  0
 10 34  1  0  0  0  0
 10 35  1  0  0  0  0
 11 36  1  0  0  0  0
 11 37  1  0  0  0  0
 12 38  1  0  0  0  0
 12 39  1  0  0  0  0
 13 15  2  0  0  0  0
 14 19  1  0  0  0  0
 14 40  1  0  0  0  0
 14 41  1  0  0  0  0
 15 18  1  0  0  0  0
 15 42  1  0  0  0  0
 16 17  1  0  0  0  0
 17 18  2  0  0  0  0
 17 20  1  0  0  0  0
 18 43  1  0  0  0  0
 19 21  2  0  0  0  0
 19 22  1  0  0  0  0
 20 25  1  0  0  0  0
 20 26  2  0  0  0  0
 21 23  1  0  0  0  0
 21 44  1  0  0  0  0
 22 24  2  0  0  0  0
 22 45  1  0  0  0  0
 23 27  2  0  0  0  0
 23 28  1  0  0  0  0
 24 27  1  0  0  0  0
 24 46  1  0  0  0  0
 25 47  1  0  0  0  0
 26 48  1  0  0  0  0
 27 49  1  0  0  0  0
 29 50  1  0  0  0  0
M  END
> <PUBCHEM_COMPOUND_CID>
7144061

> <PUBCHEM_CONFORMER_RMSD>
0.8

> <PUBCHEM_CONFORMER_DIVERSEORDER>
1
3
5
10
11
6
14
8
4
9
13
7
12
2

> <PUBCHEM_MMFF94_PARTIAL_CHARGES>
36
1 -0.57
10 0.27
11 0.27
12 0.3
13 -0.03
14 0.41
15 -0.15
16 0.62
17 -0.01
18 -0.15
19 -0.14
2 -0.81
20 0.03
21 -0.15
22 -0.15
23 0.07
24 -0.15
25 0.16
26 0.16
27 -0.15
28 0.48
29 0.47
3 -0.47
4 -0.62
42 0.15
43 0.15
44 0.15
45 0.15
46 0.15
47 0.15
48 0.15
49 0.15
5 -0.62
50 0.15
6 -0.56
8 0.14

> <PUBCHEM_EFFECTIVE_ROTOR_COUNT>
4

> <PUBCHEM_PHARMACOPHORE_FEATURES>
10
1 1 acceptor
1 2 cation
1 4 acceptor
1 6 acceptor
3 4 5 29 cation
6 19 21 22 23 24 27 rings
6 2 7 8 9 10 11 rings
6 3 13 15 16 17 18 rings
6 3 7 8 9 12 13 rings
6 4 5 20 25 26 29 rings

> <PUBCHEM_HEAVY_ATOM_COUNT>
29

> <PUBCHEM_ATOM_DEF_STEREO_COUNT>
2

> <PUBCHEM_ATOM_UDEF_STEREO_COUNT>
0

> <PUBCHEM_BOND_DEF_STEREO_COUNT>
0

> <PUBCHEM_BOND_UDEF_STEREO_COUNT>
0

> <PUBCHEM_ISOTOPIC_ATOM_COUNT>
0

> <PUBCHEM_COMPONENT_COUNT>
1

> <PUBCHEM_CACTVS_TAUTO_COUNT>
1

> <PUBCHEM_CONFORMER_ID>
006D027D00000001

> <PUBCHEM_MMFF94_ENERGY>
79.4596

> <PUBCHEM_FEATURE_SELFOVERLAP>
52.301

> <PUBCHEM_SHAPE_FINGERPRINT>
10622 236 17608080967372124162
1100329 8 18340768255690042734
11045515 52 18263364676881616345
11796584 16 17560252452234263597
12107183 9 18198916825170608713
12166972 35 18041566832473588838
12293681 25 18049125974608619740
12422481 6 16753291937272805192
12717326 68 17756687660431893746
13533116 47 18199752608568024553
1361 2 18264489653444304475
13631057 29 18266465296389944278
13911987 19 17900289634618188924
14068700 675 18273215274980905490
14117953 113 18126850395968137127
1454969 45 18408609176197320268
15927050 60 17911235345301034366
17093844 170 17836078253569248704
17138139 8 17413587603466306703
17492 54 18190197817978199134
17818456 19 17987532424669770537
19026451 147 18410294688108918314
19930381 70 18408041784261329831
20028762 73 18272935973506450102
20775438 99 18048580805872850075
20775530 9 18338793395230063782
21133410 171 17175417673963999291
22113638 7 18413105078410450782
23559900 14 18411689998813835305
23569914 152 17758921907177561183
238 59 18262809595556207930
338550 245 18196648708111286783
46194498 28 17821730584562671397
463206 1 18409736144412011131
469060 322 18267593398976999058
5309563 4 18339079289601300526
57527585 103 17174660101930364978
6443956 14 18412829079342689913

> <PUBCHEM_SHAPE_MULTIPOLES>
566.03
10.31
5.29
1.32
11.75
0.92
0.27
9.12
-1.42
-4.57
-0.37
0.04
-0.81
-0.78

> <PUBCHEM_SHAPE_SELFOVERLAP>
1251.795

> <PUBCHEM_SHAPE_VOLUME>
292.2

> <PUBCHEM_COORDINATE_TYPE>
2
5
10

$$$$
