45783688
  -OEChem-12032416263D

 45 48  0     1  0  0  0  0  0999 V2000
   -4.9099    4.6473   -0.3648 Cl  0  0  0  0  0  0  0  0  0  0  0  0
    0.7947   -2.9029    1.1805 O   0  0  0  0  0  0  0  0  0  0  0  0
    5.9696    2.3289   -0.6559 O   0  0  0  0  0  0  0  0  0  0  0  0
   -2.3317   -1.5297   -0.1778 N   0  0  1  0  0  0  0  0  0  0  0  0
    0.6256   -1.1231   -0.1688 N   0  0  0  0  0  0  0  0  0  0  0  0
    2.0484   -2.2786    1.2004 N   0  0  0  0  0  0  0  0  0  0  0  0
    5.1930    0.4290    0.4265 N   0  0  0  0  0  0  0  0  0  0  0  0
   -1.4084   -2.6322    0.1578 C   0  0  1  0  0  0  0  0  0  0  0  0
   -1.5514   -3.6300   -1.0062 C   0  0  0  0  0  0  0  0  0  0  0  0
   -2.6188   -3.0336   -1.9127 C   0  0  0  0  0  0  0  0  0  0  0  0
   -3.3970   -2.1159   -0.9915 C   0  0  0  0  0  0  0  0  0  0  0  0
   -2.8540   -0.8406    0.9952 C   0  0  0  0  0  0  0  0  0  0  0  0
    0.0172   -2.1593    0.3506 C   0  0  0  0  0  0  0  0  0  0  0  0
   -3.3692    0.5327    0.6556 C   0  0  0  0  0  0  0  0  0  0  0  0
   -2.5129    1.6323    0.7130 C   0  0  0  0  0  0  0  0  0  0  0  0
   -4.7023    0.7055    0.2834 C   0  0  0  0  0  0  0  0  0  0  0  0
    1.8690   -1.2379    0.3814 C   0  0  0  0  0  0  0  0  0  0  0  0
   -2.9898    2.9048    0.3984 C   0  0  0  0  0  0  0  0  0  0  0  0
   -5.1793    1.9780   -0.0311 C   0  0  0  0  0  0  0  0  0  0  0  0
    2.9112   -0.2960    0.0910 C   0  0  0  0  0  0  0  0  0  0  0  0
   -4.3230    3.0776    0.0263 C   0  0  0  0  0  0  0  0  0  0  0  0
    2.6893    0.7749   -0.7677 C   0  0  0  0  0  0  0  0  0  0  0  0
    4.1693   -0.4233    0.6574 C   0  0  0  0  0  0  0  0  0  0  0  0
    3.7181    1.6730   -1.0300 C   0  0  0  0  0  0  0  0  0  0  0  0
    4.9400    1.4576   -0.4134 C   0  0  0  0  0  0  0  0  0  0  0  0
    7.2024    2.0616    0.0023 C   0  0  0  0  0  0  0  0  0  0  0  0
   -1.7364   -3.1376    1.0772 H   0  0  0  0  0  0  0  0  0  0  0  0
   -0.6217   -3.8004   -1.5599 H   0  0  0  0  0  0  0  0  0  0  0  0
   -1.8957   -4.5977   -0.6214 H   0  0  0  0  0  0  0  0  0  0  0  0
   -3.2489   -3.8018   -2.3705 H   0  0  0  0  0  0  0  0  0  0  0  0
   -2.1449   -2.4571   -2.7169 H   0  0  0  0  0  0  0  0  0  0  0  0
   -3.9489   -1.3695   -1.5700 H   0  0  0  0  0  0  0  0  0  0  0  0
   -4.1049   -2.6998   -0.3897 H   0  0  0  0  0  0  0  0  0  0  0  0
   -3.6293   -1.4260    1.5083 H   0  0  0  0  0  0  0  0  0  0  0  0
   -2.0591   -0.7116    1.7431 H   0  0  0  0  0  0  0  0  0  0  0  0
   -1.4712    1.5109    0.9983 H   0  0  0  0  0  0  0  0  0  0  0  0
   -5.3822   -0.1412    0.2400 H   0  0  0  0  0  0  0  0  0  0  0  0
   -2.3108    3.7523    0.4463 H   0  0  0  0  0  0  0  0  0  0  0  0
   -6.2207    2.0978   -0.3187 H   0  0  0  0  0  0  0  0  0  0  0  0
    1.7262    0.9346   -1.2455 H   0  0  0  0  0  0  0  0  0  0  0  0
    4.4239   -1.2305    1.3379 H   0  0  0  0  0  0  0  0  0  0  0  0
    3.5615    2.5136   -1.6972 H   0  0  0  0  0  0  0  0  0  0  0  0
    7.0844    2.1055    1.0903 H   0  0  0  0  0  0  0  0  0  0  0  0
    7.6113    1.0940   -0.3073 H   0  0  0  0  0  0  0  0  0  0  0  0
    7.9154    2.8379   -0.2907 H   0  0  0  0  0  0  0  0  0  0  0  0
  1 21  1  0  0  0  0
  2  6  1  0  0  0  0
  2 13  1  0  0  0  0
  3 25  1  0  0  0  0
  3 26  1  0  0  0  0
  4  8  1  0  0  0  0
  4 11  1  0  0  0  0
  4 12  1  0  0  0  0
  5 13  2  0  0  0  0
  5 17  1  0  0  0  0
  6 17  2  0  0  0  0
  7 23  1  0  0  0  0
  7 25  2  0  0  0  0
  8  9  1  0  0  0  0
  8 13  1  0  0  0  0
  8 27  1  0  0  0  0
  9 10  1  0  0  0  0
  9 28  1  0  0  0  0
  9 29  1  0  0  0  0
 10 11  1  0  0  0  0
 10 30  1  0  0  0  0
 10 31  1  0  0  0  0
 11 32  1  0  0  0  0
 11 33  1  0  0  0  0
 12 14  1  0  0  0  0
 12 34  1  0  0  0  0
 12 35  1  0  0  0  0
 14 15  2  0  0  0  0
 14 16  1  0  0  0  0
 15 18  1  0  0  0  0
 15 36  1  0  0  0  0
 16 19  2  0  0  0  0
 16 37  1  0  0  0  0
 17 20  1  0  0  0  0
 18 21  2  0  0  0  0
 18 38  1  0  0  0  0
 19 21  1  0  0  0  0
 19 39  1  0  0  0  0
 20 22  1  0  0  0  0
 20 23  2  0  0  0  0
 22 24  2  0  0  0  0
 22 40  1  0  0  0  0
 23 41  1  0  0  0  0
 24 25  1  0  0  0  0
 24 42  1  0  0  0  0
 26 43  1  0  0  0  0
 26 44  1  0  0  0  0
 26 45  1  0  0  0  0
M  END
> <PUBCHEM_COMPOUND_CID>
45783688

> <PUBCHEM_CONFORMER_RMSD>
0.8

> <PUBCHEM_CONFORMER_DIVERSEORDER>
1
31
21
41
44
47
28
56
51
19
33
42
10
8
57
32
24
9
35
65
45
60
18
55
53
36
68
12
59
66
38
67
29
54
15
26
14
25
6
50
30
48
2
40
49
43
17
20
37
63
61
52
4
23
46
34
11
16
58
39
64
22
5
62
3
7
27
13

> <PUBCHEM_MMFF94_PARTIAL_CHARGES>
31
1 -0.18
11 0.27
12 0.41
13 0.3
14 -0.14
15 -0.15
16 -0.15
17 0.46
18 -0.15
19 -0.15
2 -0.02
20 0.05
21 0.18
22 -0.15
23 0.16
24 -0.15
25 0.39
26 0.28
3 -0.36
36 0.15
37 0.15
38 0.15
39 0.15
4 -0.81
40 0.15
41 0.15
42 0.15
5 -0.57
6 -0.41
7 -0.62
8 0.45

> <PUBCHEM_EFFECTIVE_ROTOR_COUNT>
6

> <PUBCHEM_PHARMACOPHORE_FEATURES>
6
1 4 cation
3 5 6 17 cation
5 2 5 6 13 17 rings
5 4 8 9 10 11 rings
6 14 15 16 18 19 21 rings
6 7 20 22 23 24 25 rings

> <PUBCHEM_HEAVY_ATOM_COUNT>
26

> <PUBCHEM_ATOM_DEF_STEREO_COUNT>
1

> <PUBCHEM_ATOM_UDEF_STEREO_COUNT>
0

> <PUBCHEM_BOND_DEF_STEREO_COUNT>
0

> <PUBCHEM_BOND_UDEF_STEREO_COUNT>
0

> <PUBCHEM_ISOTOPIC_ATOM_COUNT>
0

> <PUBCHEM_COMPONENT_COUNT>
1

> <PUBCHEM_CACTVS_TAUTO_COUNT>
1

> <PUBCHEM_CONFORMER_ID>
02BA9A8800000001

> <PUBCHEM_MMFF94_ENERGY>
57.6269

> <PUBCHEM_FEATURE_SELFOVERLAP>
30.449

> <PUBCHEM_SHAPE_FINGERPRINT>
10087517 78 18267583696920215932
10411042 1 17691126358815710003
10670039 82 18339640161180804264
10673678 19 17979638936426413513
10864689 126 18340209575330109860
10871710 139 18411697729628620855
10917259 69 18338804387080269236
10937287 8 18339361855784664355
11135609 187 18338514120068666025
11477941 20 17697871819611759372
12107183 9 18263635170439802730
12633257 1 15430335636469292633
12788726 201 18270384093033499415
12978246 48 18409453561592291969
14114211 80 17987529117534104017
14251764 75 18196944279434823193
14294032 229 18272655666955236467
1454969 45 18343018888232153959
14556957 393 18123748918320555095
14767858 380 18270944792750404077
15064981 113 18060412526350822678
15198563 99 18127965515923746607
15575132 122 18411700972460466805
16988056 13 17043734513738939421
16992828 155 18261385642073422093
20511986 3 18114452396931333608
20715895 44 17688022012662990321
21033650 10 18195552456938331414
21864079 5 18335141981370073538
23516275 100 17334201828913283984
23559900 14 17477201631910004755
245318 6 18042425563670680781
2838139 119 18336545993557549195
3388396 114 17475230679048268629
44249763 50 17773865571173089728
44802255 64 17487628644373543324
5048184 11 18410015407601630073
508706 21 18127679637851137608
5171179 24 17700123597882588464
531348 171 18202008767737209590
5372103 7 17605534580484183709
550186 72 18410293593604518005
6036956 94 18044945816294808789
6299153 45 18335134264310407402
6327066 14 18410853218619905437
636775 72 18123188172525204144
6608658 132 18269546299284576231
6700243 42 17337349657856955070
7288768 16 17749395875003115827
7808743 9 18412262847922991010
9981440 41 18259993673310730387

> <PUBCHEM_SHAPE_MULTIPOLES>
505.27
14.11
5.32
1.13
17.1
0.81
-0.2
17.49
-1.04
-6.45
-1.26
-0.2
-0.73
-1.89

> <PUBCHEM_SHAPE_SELFOVERLAP>
1086.463

> <PUBCHEM_SHAPE_VOLUME>
282.3

> <PUBCHEM_COORDINATE_TYPE>
2
5
10

$$$$
