28962858
  -OEChem-12032416143D

 63 65  0     1  0  0  0  0  0999 V2000
   -0.8652   -1.7014   -1.3079 O   0  0  0  0  0  0  0  0  0  0  0  0
   -5.2920    1.1223   -0.6526 O   0  0  0  0  0  0  0  0  0  0  0  0
    5.2517   -0.7109    1.6986 O   0  0  0  0  0  0  0  0  0  0  0  0
    7.6245   -0.9103    0.4426 O   0  0  0  0  0  0  0  0  0  0  0  0
    4.1744   -0.0242   -0.2441 N   0  0  0  0  0  0  0  0  0  0  0  0
   -5.2278   -1.1035   -0.0032 N   0  0  0  0  0  0  0  0  0  0  0  0
    0.2148    1.5437    0.3888 C   0  0  1  0  0  0  0  0  0  0  0  0
    0.3210    0.0682   -0.1218 C   0  0  2  0  0  0  0  0  0  0  0  0
    1.7430   -0.2129   -0.7272 C   0  0  1  0  0  0  0  0  0  0  0  0
   -0.8806   -0.2986   -1.0397 C   0  0  2  0  0  0  0  0  0  0  0  0
   -1.1537    1.7536    1.0790 C   0  0  0  0  0  0  0  0  0  0  0  0
   -2.2463    0.0111   -0.3836 C   0  0  1  0  0  0  0  0  0  0  0  0
    1.3171    1.7926    1.4440 C   0  0  0  0  0  0  0  0  0  0  0  0
    2.8471    0.1125    0.3178 C   0  0  2  0  0  0  0  0  0  0  0  0
   -2.3330    1.4332    0.1703 C   0  0  0  0  0  0  0  0  0  0  0  0
    2.7187    1.5107    0.9220 C   0  0  0  0  0  0  0  0  0  0  0  0
    0.3597    2.5798   -0.7546 C   0  0  0  0  0  0  0  0  0  0  0  0
   -3.4109   -0.2339   -1.3509 C   0  0  1  0  0  0  0  0  0  0  0  0
    1.9266   -1.6570   -1.2237 C   0  0  0  0  0  0  0  0  0  0  0  0
   -4.7375    0.0253   -0.6437 C   0  0  0  0  0  0  0  0  0  0  0  0
   -3.2595    0.6445   -2.5878 C   0  0  0  0  0  0  0  0  0  0  0  0
   -6.4688   -1.1052    0.7363 C   0  0  0  0  0  0  0  0  0  0  0  0
   -6.5210   -0.6524    2.1658 C   0  0  0  0  0  0  0  0  0  0  0  0
   -6.7204   -2.1013    1.8300 C   0  0  0  0  0  0  0  0  0  0  0  0
    5.2673   -0.4274    0.5037 C   0  0  0  0  0  0  0  0  0  0  0  0
    6.5261   -0.4847   -0.3353 C   0  0  0  0  0  0  0  0  0  0  0  0
    8.8246   -0.9737   -0.3227 C   0  0  0  0  0  0  0  0  0  0  0  0
    0.2426   -0.5909    0.7578 H   0  0  0  0  0  0  0  0  0  0  0  0
    1.8892    0.4318   -1.6031 H   0  0  0  0  0  0  0  0  0  0  0  0
   -0.7445    0.2164   -1.9926 H   0  0  0  0  0  0  0  0  0  0  0  0
   -1.2453    2.7879    1.4350 H   0  0  0  0  0  0  0  0  0  0  0  0
   -1.2181    1.1167    1.9717 H   0  0  0  0  0  0  0  0  0  0  0  0
   -2.3744   -0.6783    0.4644 H   0  0  0  0  0  0  0  0  0  0  0  0
    1.1396    1.1548    2.3204 H   0  0  0  0  0  0  0  0  0  0  0  0
    1.2713    2.8281    1.8046 H   0  0  0  0  0  0  0  0  0  0  0  0
    2.7595   -0.6131    1.1384 H   0  0  0  0  0  0  0  0  0  0  0  0
   -3.2379    1.5569    0.7760 H   0  0  0  0  0  0  0  0  0  0  0  0
   -2.3813    2.1947   -0.6104 H   0  0  0  0  0  0  0  0  0  0  0  0
    3.0054    2.2695    0.1837 H   0  0  0  0  0  0  0  0  0  0  0  0
    3.4327    1.6253    1.7478 H   0  0  0  0  0  0  0  0  0  0  0  0
    1.3380    2.5419   -1.2403 H   0  0  0  0  0  0  0  0  0  0  0  0
    0.2349    3.5985   -0.3689 H   0  0  0  0  0  0  0  0  0  0  0  0
   -0.3836    2.4386   -1.5442 H   0  0  0  0  0  0  0  0  0  0  0  0
   -3.4042   -1.2796   -1.6850 H   0  0  0  0  0  0  0  0  0  0  0  0
    1.6371   -2.3812   -0.4554 H   0  0  0  0  0  0  0  0  0  0  0  0
    2.9650   -1.8656   -1.5010 H   0  0  0  0  0  0  0  0  0  0  0  0
    1.3413   -1.8405   -2.1291 H   0  0  0  0  0  0  0  0  0  0  0  0
    4.3130    0.2492   -1.2130 H   0  0  0  0  0  0  0  0  0  0  0  0
   -0.9340   -2.1719   -0.4596 H   0  0  0  0  0  0  0  0  0  0  0  0
   -4.1355    0.5016   -3.2341 H   0  0  0  0  0  0  0  0  0  0  0  0
   -2.3962    0.3721   -3.1997 H   0  0  0  0  0  0  0  0  0  0  0  0
   -3.2249    1.7164   -2.3824 H   0  0  0  0  0  0  0  0  0  0  0  0
   -7.3192   -0.8575    0.1086 H   0  0  0  0  0  0  0  0  0  0  0  0
   -4.7055   -1.9746   -0.0405 H   0  0  0  0  0  0  0  0  0  0  0  0
   -7.3860   -0.0833    2.4832 H   0  0  0  0  0  0  0  0  0  0  0  0
   -5.5949   -0.3714    2.6523 H   0  0  0  0  0  0  0  0  0  0  0  0
   -5.9284   -2.7917    2.0931 H   0  0  0  0  0  0  0  0  0  0  0  0
   -7.7199   -2.5078    1.9229 H   0  0  0  0  0  0  0  0  0  0  0  0
    6.3605   -1.1852   -1.1622 H   0  0  0  0  0  0  0  0  0  0  0  0
    6.7198    0.5161   -0.7384 H   0  0  0  0  0  0  0  0  0  0  0  0
    9.6329   -1.3076    0.3333 H   0  0  0  0  0  0  0  0  0  0  0  0
    9.0786    0.0148   -0.7172 H   0  0  0  0  0  0  0  0  0  0  0  0
    8.7179   -1.6917   -1.1414 H   0  0  0  0  0  0  0  0  0  0  0  0
  1 10  1  0  0  0  0
  1 49  1  0  0  0  0
  2 20  2  0  0  0  0
  3 25  2  0  0  0  0
  4 26  1  0  0  0  0
  4 27  1  0  0  0  0
  5 14  1  0  0  0  0
  5 25  1  0  0  0  0
  5 48  1  0  0  0  0
  6 20  1  0  0  0  0
  6 22  1  0  0  0  0
  6 54  1  0  0  0  0
  7  8  1  0  0  0  0
  7 11  1  0  0  0  0
  7 13  1  0  0  0  0
  7 17  1  0  0  0  0
  8  9  1  0  0  0  0
  8 10  1  0  0  0  0
  8 28  1  0  0  0  0
  9 14  1  0  0  0  0
  9 19  1  0  0  0  0
  9 29  1  0  0  0  0
 10 12  1  0  0  0  0
 10 30  1  0  0  0  0
 11 15  1  0  0  0  0
 11 31  1  0  0  0  0
 11 32  1  0  0  0  0
 12 15  1  0  0  0  0
 12 18  1  0  0  0  0
 12 33  1  0  0  0  0
 13 16  1  0  0  0  0
 13 34  1  0  0  0  0
 13 35  1  0  0  0  0
 14 16  1  0  0  0  0
 14 36  1  0  0  0  0
 15 37  1  0  0  0  0
 15 38  1  0  0  0  0
 16 39  1  0  0  0  0
 16 40  1  0  0  0  0
 17 41  1  0  0  0  0
 17 42  1  0  0  0  0
 17 43  1  0  0  0  0
 18 20  1  0  0  0  0
 18 21  1  0  0  0  0
 18 44  1  0  0  0  0
 19 45  1  0  0  0  0
 19 46  1  0  0  0  0
 19 47  1  0  0  0  0
 21 50  1  0  0  0  0
 21 51  1  0  0  0  0
 21 52  1  0  0  0  0
 22 23  1  0  0  0  0
 22 24  1  0  0  0  0
 22 53  1  0  0  0  0
 23 24  1  0  0  0  0
 23 55  1  0  0  0  0
 23 56  1  0  0  0  0
 24 57  1  0  0  0  0
 24 58  1  0  0  0  0
 25 26  1  0  0  0  0
 26 59  1  0  0  0  0
 26 60  1  0  0  0  0
 27 61  1  0  0  0  0
 27 62  1  0  0  0  0
 27 63  1  0  0  0  0
M  END
> <PUBCHEM_COMPOUND_CID>
28962858

> <PUBCHEM_CONFORMER_RMSD>
1

> <PUBCHEM_CONFORMER_DIVERSEORDER>
1
16
15
9
25
8
19
21
32
17
35
30
13
22
31
12
27
5
34
14
10
33
20
26
6
3
28
36
18
29
11
23
7
4
24
2

> <PUBCHEM_MMFF94_PARTIAL_CHARGES>
24
1 -0.68
10 0.28
14 0.3
18 0.06
2 -0.57
20 0.57
22 0.05
23 -0.2
24 -0.2
25 0.57
26 0.34
27 0.28
3 -0.57
4 -0.56
48 0.37
49 0.4
5 -0.73
53 0.1
54 0.37
55 0.1
56 0.1
57 0.1
58 0.1
6 -0.58

> <PUBCHEM_EFFECTIVE_ROTOR_COUNT>
10.2

> <PUBCHEM_PHARMACOPHORE_FEATURES>
10
1 1 acceptor
1 1 donor
1 2 acceptor
1 21 hydrophobe
1 3 acceptor
1 4 acceptor
1 5 donor
1 6 donor
6 7 8 10 11 12 15 rings
6 7 8 9 13 14 16 rings

> <PUBCHEM_HEAVY_ATOM_COUNT>
27

> <PUBCHEM_ATOM_DEF_STEREO_COUNT>
7

> <PUBCHEM_ATOM_UDEF_STEREO_COUNT>
0

> <PUBCHEM_BOND_DEF_STEREO_COUNT>
0

> <PUBCHEM_BOND_UDEF_STEREO_COUNT>
0

> <PUBCHEM_ISOTOPIC_ATOM_COUNT>
0

> <PUBCHEM_COMPONENT_COUNT>
1

> <PUBCHEM_CACTVS_TAUTO_COUNT>
4

> <PUBCHEM_CONFORMER_ID>
01B9F02A00000001

> <PUBCHEM_MMFF94_ENERGY>
76.7274

> <PUBCHEM_FEATURE_SELFOVERLAP>
50.767

> <PUBCHEM_SHAPE_FINGERPRINT>
10076449 9 18260835912334356586
10693767 8 14201659945768258752
10906281 52 17346041198495179908
11646440 116 17775005691394649378
11963148 33 18411408510679092038
12035758 1 18201433705326705514
12166972 35 17676210190730538772
12236239 1 15213011640027559247
12422481 6 17417270732019113521
12616971 3 17774717662261291645
13140716 1 17843952869837368846
13540713 4 17700709358491292581
1361 4 17095517366606071450
13668630 136 18113620054461233618
13673619 4 18040435520976056973
13685833 64 18410011056915622088
13782708 43 17822004324482610211
14251764 30 17822290210643532097
14767858 380 13406792242224803131
14849402 71 17059486490870285688
15131766 46 12605676019214298370
15238133 3 15123515847386671193
15461852 350 16732989708921976350
21130935 74 16128365013470193230
21150785 3 15864072074706614890
21267235 1 18272934917048995864
21304253 13 16271923826886604936
21403212 168 17275110514387998259
21521239 73 14562525189342037912
21781051 124 18338532914549745126
21781055 127 16199612258932755280
21792961 116 18335976476319538398
23402539 116 17632281385296016508
23522609 53 17273709855742267592
23559900 14 17773296011228356064
2838139 119 11743838054217652123
3178227 256 18272938241042628714
335352 9 17988634199006456244
3383291 50 18342173384358662266
4339292 15 17967806198119475811
465052 167 18408602569899159722
484989 97 12685678675478729177
58260988 114 17987510589362122927
58260988 521 18261683640079326827
59755656 215 17846213316311881950
6009941 240 18335984165187191393
636775 8 18260556619412613410
7495541 125 18040437737131644261
8863177 126 18116153449268082347
999808 66 18410577288124090563

> <PUBCHEM_SHAPE_MULTIPOLES>
522.21
19.32
1.99
1.78
17.8
0.61
-0.08
-12.84
6.77
-0.73
0.3
-2.51
-0.16
1.78

> <PUBCHEM_SHAPE_SELFOVERLAP>
1062.362

> <PUBCHEM_SHAPE_VOLUME>
301

> <PUBCHEM_COORDINATE_TYPE>
2
5
10

$$$$
