11912138
  -OEChem-12032416133D

 76 79  0     1  0  0  0  0  0999 V2000
   -3.6095   -0.6930   -0.9986 S   0  0  0  0  0  0  0  0  0  0  0  0
    2.1856    2.1462    0.6663 O   0  0  0  0  0  0  0  0  0  0  0  0
   -0.0087   -0.8512   -2.0169 O   0  0  0  0  0  0  0  0  0  0  0  0
   -3.3031   -2.0913   -0.7829 O   0  0  0  0  0  0  0  0  0  0  0  0
   -4.3697   -0.2669   -2.1544 O   0  0  0  0  0  0  0  0  0  0  0  0
   -0.7866   -4.6392   -1.0043 O   0  0  0  0  0  0  0  0  0  0  0  0
    0.0555    1.9088   -0.2379 N   0  0  0  0  0  0  0  0  0  0  0  0
   -2.1627    0.2156   -0.9183 N   0  0  2  0  0  0  0  0  0  0  0  0
    0.2838   -2.2129   -0.1516 N   0  0  0  0  0  0  0  0  0  0  0  0
    3.5060    5.5095    0.0491 N   0  0  0  0  0  0  0  0  0  0  0  0
    0.8700   -4.7509   -2.5907 N   0  0  0  0  0  0  0  0  0  0  0  0
    2.9957   -2.7614    0.9776 C   0  0  0  0  0  0  0  0  0  0  0  0
    3.8055   -1.9249   -0.0220 C   0  0  0  0  0  0  0  0  0  0  0  0
    3.9206   -3.4442    1.9943 C   0  0  0  0  0  0  0  0  0  0  0  0
    2.1402   -3.7951    0.2475 C   0  0  0  0  0  0  0  0  0  0  0  0
   -1.1132   -0.2788    0.0168 C   0  0  2  0  0  0  0  0  0  0  0  0
    4.7099   -0.9192    0.6869 C   0  0  0  0  0  0  0  0  0  0  0  0
    4.8246   -2.4359    2.6999 C   0  0  0  0  0  0  0  0  0  0  0  0
    5.6214   -1.6003    1.7029 C   0  0  0  0  0  0  0  0  0  0  0  0
   -0.3300    0.8451    0.6909 C   0  0  0  0  0  0  0  0  0  0  0  0
    1.1525   -3.1954   -0.7584 C   0  0  1  0  0  0  0  0  0  0  0  0
    1.6140    3.5963   -1.1176 C   0  0  0  0  0  0  0  0  0  0  0  0
   -0.9558    2.3288   -1.2115 C   0  0  0  0  0  0  0  0  0  0  0  0
   -2.3155    1.6930   -0.9565 C   0  0  0  0  0  0  0  0  0  0  0  0
    1.3231    2.4870   -0.1463 C   0  0  0  0  0  0  0  0  0  0  0  0
   -0.2223   -1.1226   -0.8382 C   0  0  0  0  0  0  0  0  0  0  0  0
    1.1730    4.9472   -0.5503 C   0  0  0  0  0  0  0  0  0  0  0  0
    3.0976    3.6178   -1.4915 C   0  0  0  0  0  0  0  0  0  0  0  0
    2.1258    5.4609    0.5303 C   0  0  0  0  0  0  0  0  0  0  0  0
    3.9693    4.1876   -0.3713 C   0  0  0  0  0  0  0  0  0  0  0  0
    0.2935   -4.2507   -1.4426 C   0  0  0  0  0  0  0  0  0  0  0  0
   -4.4321   -0.0928    0.4437 C   0  0  0  0  0  0  0  0  0  0  0  0
   -5.2700    1.0190    0.3570 C   0  0  0  0  0  0  0  0  0  0  0  0
   -4.2440   -0.7303    1.6701 C   0  0  0  0  0  0  0  0  0  0  0  0
   -5.9195    1.4936    1.4964 C   0  0  0  0  0  0  0  0  0  0  0  0
   -4.8936   -0.2557    2.8097 C   0  0  0  0  0  0  0  0  0  0  0  0
   -5.7315    0.8563    2.7227 C   0  0  0  0  0  0  0  0  0  0  0  0
    2.3367   -2.0838    1.5371 H   0  0  0  0  0  0  0  0  0  0  0  0
    4.4170   -2.5811   -0.6542 H   0  0  0  0  0  0  0  0  0  0  0  0
    3.1470   -1.3572   -0.6873 H   0  0  0  0  0  0  0  0  0  0  0  0
    3.3242   -3.9793    2.7429 H   0  0  0  0  0  0  0  0  0  0  0  0
    4.5432   -4.1935    1.4889 H   0  0  0  0  0  0  0  0  0  0  0  0
    2.7851   -4.5170   -0.2709 H   0  0  0  0  0  0  0  0  0  0  0  0
    1.5784   -4.3781    0.9904 H   0  0  0  0  0  0  0  0  0  0  0  0
   -1.5567   -0.8924    0.8060 H   0  0  0  0  0  0  0  0  0  0  0  0
    4.0924   -0.1691    1.1963 H   0  0  0  0  0  0  0  0  0  0  0  0
    5.3167   -0.3838   -0.0521 H   0  0  0  0  0  0  0  0  0  0  0  0
    5.5119   -2.9637    3.3705 H   0  0  0  0  0  0  0  0  0  0  0  0
    4.2135   -1.7735    3.3253 H   0  0  0  0  0  0  0  0  0  0  0  0
    6.3369   -2.2443    1.1768 H   0  0  0  0  0  0  0  0  0  0  0  0
    6.2060   -0.8444    2.2391 H   0  0  0  0  0  0  0  0  0  0  0  0
    0.5565    0.4472    1.1975 H   0  0  0  0  0  0  0  0  0  0  0  0
   -0.9485    1.3208    1.4623 H   0  0  0  0  0  0  0  0  0  0  0  0
    1.7092   -2.6874   -1.5549 H   0  0  0  0  0  0  0  0  0  0  0  0
    1.0796    3.4140   -2.0545 H   0  0  0  0  0  0  0  0  0  0  0  0
   -0.5932    2.0310   -2.2027 H   0  0  0  0  0  0  0  0  0  0  0  0
   -1.0584    3.4163   -1.2011 H   0  0  0  0  0  0  0  0  0  0  0  0
   -2.9960    1.9833   -1.7634 H   0  0  0  0  0  0  0  0  0  0  0  0
   -2.7160    2.0633   -0.0076 H   0  0  0  0  0  0  0  0  0  0  0  0
    1.1349    5.6795   -1.3676 H   0  0  0  0  0  0  0  0  0  0  0  0
    0.1647    4.8961   -0.1256 H   0  0  0  0  0  0  0  0  0  0  0  0
    3.4477    2.6108   -1.7495 H   0  0  0  0  0  0  0  0  0  0  0  0
    3.2284    4.2357   -2.3899 H   0  0  0  0  0  0  0  0  0  0  0  0
   -0.0122   -2.3764    0.8064 H   0  0  0  0  0  0  0  0  0  0  0  0
    1.8201    6.4721    0.8209 H   0  0  0  0  0  0  0  0  0  0  0  0
    2.0598    4.8406    1.4321 H   0  0  0  0  0  0  0  0  0  0  0  0
    4.0452    3.5186    0.4904 H   0  0  0  0  0  0  0  0  0  0  0  0
    4.9912    4.2927   -0.7544 H   0  0  0  0  0  0  0  0  0  0  0  0
    4.1105    5.8577    0.7927 H   0  0  0  0  0  0  0  0  0  0  0  0
    1.7725   -4.4355   -2.9314 H   0  0  0  0  0  0  0  0  0  0  0  0
    0.4034   -5.4670   -3.1375 H   0  0  0  0  0  0  0  0  0  0  0  0
   -5.4302    1.5325   -0.5867 H   0  0  0  0  0  0  0  0  0  0  0  0
   -3.6012   -1.6006    1.7631 H   0  0  0  0  0  0  0  0  0  0  0  0
   -6.5713    2.3598    1.4291 H   0  0  0  0  0  0  0  0  0  0  0  0
   -4.7481   -0.7524    3.7645 H   0  0  0  0  0  0  0  0  0  0  0  0
   -6.2373    1.2258    3.6099 H   0  0  0  0  0  0  0  0  0  0  0  0
  1  4  2  0  0  0  0
  1  5  2  0  0  0  0
  1  8  1  0  0  0  0
  1 32  1  0  0  0  0
  2 25  2  0  0  0  0
  3 26  2  0  0  0  0
  6 31  2  0  0  0  0
  7 20  1  0  0  0  0
  7 23  1  0  0  0  0
  7 25  1  0  0  0  0
  8 16  1  0  0  0  0
  8 24  1  0  0  0  0
  9 21  1  0  0  0  0
  9 26  1  0  0  0  0
  9 64  1  0  0  0  0
 10 29  1  0  0  0  0
 10 30  1  0  0  0  0
 10 69  1  0  0  0  0
 11 31  1  0  0  0  0
 11 70  1  0  0  0  0
 11 71  1  0  0  0  0
 12 13  1  0  0  0  0
 12 14  1  0  0  0  0
 12 15  1  0  0  0  0
 12 38  1  0  0  0  0
 13 17  1  0  0  0  0
 13 39  1  0  0  0  0
 13 40  1  0  0  0  0
 14 18  1  0  0  0  0
 14 41  1  0  0  0  0
 14 42  1  0  0  0  0
 15 21  1  0  0  0  0
 15 43  1  0  0  0  0
 15 44  1  0  0  0  0
 16 20  1  0  0  0  0
 16 26  1  0  0  0  0
 16 45  1  0  0  0  0
 17 19  1  0  0  0  0
 17 46  1  0  0  0  0
 17 47  1  0  0  0  0
 18 19  1  0  0  0  0
 18 48  1  0  0  0  0
 18 49  1  0  0  0  0
 19 50  1  0  0  0  0
 19 51  1  0  0  0  0
 20 52  1  0  0  0  0
 20 53  1  0  0  0  0
 21 31  1  0  0  0  0
 21 54  1  0  0  0  0
 22 25  1  0  0  0  0
 22 27  1  0  0  0  0
 22 28  1  0  0  0  0
 22 55  1  0  0  0  0
 23 24  1  0  0  0  0
 23 56  1  0  0  0  0
 23 57  1  0  0  0  0
 24 58  1  0  0  0  0
 24 59  1  0  0  0  0
 27 29  1  0  0  0  0
 27 60  1  0  0  0  0
 27 61  1  0  0  0  0
 28 30  1  0  0  0  0
 28 62  1  0  0  0  0
 28 63  1  0  0  0  0
 29 65  1  0  0  0  0
 29 66  1  0  0  0  0
 30 67  1  0  0  0  0
 30 68  1  0  0  0  0
 32 33  2  0  0  0  0
 32 34  1  0  0  0  0
 33 35  1  0  0  0  0
 33 72  1  0  0  0  0
 34 36  2  0  0  0  0
 34 73  1  0  0  0  0
 35 37  2  0  0  0  0
 35 74  1  0  0  0  0
 36 37  1  0  0  0  0
 36 75  1  0  0  0  0
 37 76  1  0  0  0  0
M  END
> <PUBCHEM_COMPOUND_CID>
11912138

> <PUBCHEM_CONFORMER_RMSD>
1.2

> <PUBCHEM_CONFORMER_DIVERSEORDER>
1
49
129
126
130
96
27
102
85
118
124
36
115
111
81
60
67
20
74
66
84
70
54
112
108
23
116
52
94
7
18
114
61
76
86
64
117
40
46
41
28
68
73
77
38
15
32
109
100
93
48
35
78
55
13
6
103
57
91
72
25
53
101
5
42
62
113
51
47
3
99
9
122
87
110
34
75
107
39
17
31
65
105
89
22
90
83
16
12
98
50
120
123
125
58
97
104
37
30
79
4
8
106
69
119
127
82
44
128
29
2
121
45
80
21
19
56
71
63
14
43
59
88
26
11
92
95
33
24
10

> <PUBCHEM_MMFF94_PARTIAL_CHARGES>
37
1 1.45
10 -0.9
11 -0.8
16 0.42
2 -0.57
20 0.3
21 0.36
22 0.06
23 0.3
24 0.36
25 0.57
26 0.57
29 0.27
3 -0.57
30 0.27
31 0.57
32 -0.01
33 -0.15
34 -0.15
35 -0.15
36 -0.15
37 -0.15
4 -0.65
5 -0.65
6 -0.57
64 0.37
69 0.36
7 -0.66
70 0.37
71 0.37
72 0.15
73 0.15
74 0.15
75 0.15
76 0.15
8 -0.85
9 -0.73

> <PUBCHEM_EFFECTIVE_ROTOR_COUNT>
13.6

> <PUBCHEM_PHARMACOPHORE_FEATURES>
13
1 10 cation
1 10 donor
1 11 donor
1 2 acceptor
1 3 acceptor
1 4 acceptor
1 5 acceptor
1 6 acceptor
1 9 donor
6 10 22 27 28 29 30 rings
6 12 13 14 17 18 19 rings
6 32 33 34 35 36 37 rings
6 7 8 16 20 23 24 rings

> <PUBCHEM_HEAVY_ATOM_COUNT>
37

> <PUBCHEM_ATOM_DEF_STEREO_COUNT>
2

> <PUBCHEM_ATOM_UDEF_STEREO_COUNT>
0

> <PUBCHEM_BOND_DEF_STEREO_COUNT>
0

> <PUBCHEM_BOND_UDEF_STEREO_COUNT>
0

> <PUBCHEM_ISOTOPIC_ATOM_COUNT>
0

> <PUBCHEM_COMPONENT_COUNT>
1

> <PUBCHEM_CACTVS_TAUTO_COUNT>
4

> <PUBCHEM_CONFORMER_ID>
00B5C3CA00000001

> <PUBCHEM_MMFF94_ENERGY>
63.7937

> <PUBCHEM_FEATURE_SELFOVERLAP>
65.991

> <PUBCHEM_SHAPE_FINGERPRINT>
10305334 12 18052819436604334020
10581848 127 17911805674077206560
10675989 125 16970243723136938775
11445158 3 18333724719703530942
12422481 6 18057320587408989337
12440605 4 17976530934196585491
12977781 61 17459741713668406963
13008946 113 18113914740035550980
14363568 33 18334574655351451240
14790565 3 18269567193999751389
14840074 17 18341892944152253362
15200665 1 17545317944307350721
15351339 4 17040327681282298062
15684970 41 18337972115694853047
15775530 1 18187076209983645997
15927050 60 18123758818373184862
17627616 140 17903620123498561814
19611394 137 18041286478599296602
20642791 268 18129953261000041767
20739085 24 18341618057697274146
21792938 324 17691980262906865993
21796203 349 18263662713669140834
22440779 20 16755273295896216267
25019877 29 17488722550869291350
3380486 145 18052525587594566207
469060 322 18197477567911340831
563151 40 17758978291091711564
57307002 29 10662378307304747938
6004065 56 18337384947422396359
79837 15 17617673488700348961

> <PUBCHEM_SHAPE_MULTIPOLES>
711.04
11.51
8.22
2.36
8.85
7.94
-0.8
-2.55
-9.66
-12.55
2.8
1.16
-1.97
-2.28

> <PUBCHEM_SHAPE_SELFOVERLAP>
1470.223

> <PUBCHEM_SHAPE_VOLUME>
403.8

> <PUBCHEM_COORDINATE_TYPE>
2
5
10

$$$$
