51136610
  -OEChem-12032416143D

 60 63  0     1  0  0  0  0  0999 V2000
    1.6530    2.2584   -0.9528 S   0  0  0  0  0  0  0  0  0  0  0  0
   -1.0893    3.3865   -1.9988 O   0  0  0  0  0  0  0  0  0  0  0  0
   -5.9120   -3.1893   -0.5557 O   0  0  0  0  0  0  0  0  0  0  0  0
   -6.4346   -0.9868   -0.3164 O   0  0  0  0  0  0  0  0  0  0  0  0
    3.2375   -1.6014   -2.5108 O   0  0  0  0  0  0  0  0  0  0  0  0
    5.2749   -1.2263   -0.6632 O   0  0  0  0  0  0  0  0  0  0  0  0
   -2.0795    2.0728   -0.3352 N   0  0  0  0  0  0  0  0  0  0  0  0
   -0.3893   -1.2297    2.3214 N   0  0  0  0  0  0  0  0  0  0  0  0
   -2.3565   -0.1283    0.7848 C   0  0  2  0  0  0  0  0  0  0  0  0
   -3.7226   -0.2773    0.0677 C   0  0  1  0  0  0  0  0  0  0  0  0
   -3.7614    0.5205   -1.2468 C   0  0  0  0  0  0  0  0  0  0  0  0
   -2.0108    1.3631    0.9500 C   0  0  0  0  0  0  0  0  0  0  0  0
   -1.2054   -0.8681    0.0917 C   0  0  0  0  0  0  0  0  0  0  0  0
   -3.3666    1.9773   -1.0211 C   0  0  0  0  0  0  0  0  0  0  0  0
   -4.1186   -1.7336   -0.1740 C   0  0  0  0  0  0  0  0  0  0  0  0
   -0.0820   -1.1022    1.0727 C   0  0  0  0  0  0  0  0  0  0  0  0
   -1.0378    2.7960   -0.9211 C   0  0  0  0  0  0  0  0  0  0  0  0
    1.3113   -1.1673    0.5624 C   0  0  0  0  0  0  0  0  0  0  0  0
   -5.6046   -1.8829   -0.3491 C   0  0  0  0  0  0  0  0  0  0  0  0
    2.3360   -0.9957    1.5018 C   0  0  0  0  0  0  0  0  0  0  0  0
    1.9662   -0.7470    2.9340 C   0  0  0  0  0  0  0  0  0  0  0  0
    0.6951   -1.5175    3.2662 C   0  0  0  0  0  0  0  0  0  0  0  0
    0.2397    2.8695   -0.2035 C   0  0  0  0  0  0  0  0  0  0  0  0
    1.6131   -1.3735   -0.7850 C   0  0  0  0  0  0  0  0  0  0  0  0
    3.6682   -1.0056    1.0794 C   0  0  0  0  0  0  0  0  0  0  0  0
    2.9468   -1.3977   -1.1949 C   0  0  0  0  0  0  0  0  0  0  0  0
    3.9715   -1.2114   -0.2665 C   0  0  0  0  0  0  0  0  0  0  0  0
    0.4986    3.3810    1.0491 C   0  0  0  0  0  0  0  0  0  0  0  0
    1.8756    3.2700    1.3981 C   0  0  0  0  0  0  0  0  0  0  0  0
    2.6164    2.6777    0.3992 C   0  0  0  0  0  0  0  0  0  0  0  0
    3.4188   -2.9517   -2.9321 C   0  0  0  0  0  0  0  0  0  0  0  0
    5.8479    0.0207   -1.0517 C   0  0  0  0  0  0  0  0  0  0  0  0
   -2.5201   -0.5357    1.7904 H   0  0  0  0  0  0  0  0  0  0  0  0
   -4.4670    0.1763    0.7392 H   0  0  0  0  0  0  0  0  0  0  0  0
   -3.0723    0.0707   -1.9730 H   0  0  0  0  0  0  0  0  0  0  0  0
   -4.7595    0.4896   -1.6967 H   0  0  0  0  0  0  0  0  0  0  0  0
   -1.0413    1.4585    1.4351 H   0  0  0  0  0  0  0  0  0  0  0  0
   -2.7420    1.8434    1.6123 H   0  0  0  0  0  0  0  0  0  0  0  0
   -0.8620   -0.3104   -0.7835 H   0  0  0  0  0  0  0  0  0  0  0  0
   -1.5148   -1.8618   -0.2476 H   0  0  0  0  0  0  0  0  0  0  0  0
   -4.1104    2.4828   -0.3939 H   0  0  0  0  0  0  0  0  0  0  0  0
   -3.3361    2.5043   -1.9801 H   0  0  0  0  0  0  0  0  0  0  0  0
   -3.8371   -2.3423    0.6935 H   0  0  0  0  0  0  0  0  0  0  0  0
   -3.6254   -2.1342   -1.0665 H   0  0  0  0  0  0  0  0  0  0  0  0
    1.8101    0.3289    3.0761 H   0  0  0  0  0  0  0  0  0  0  0  0
    2.7704   -1.0657    3.6064 H   0  0  0  0  0  0  0  0  0  0  0  0
    0.3626   -1.2434    4.2733 H   0  0  0  0  0  0  0  0  0  0  0  0
    0.8826   -2.5986    3.2746 H   0  0  0  0  0  0  0  0  0  0  0  0
    0.8341   -1.5305   -1.5249 H   0  0  0  0  0  0  0  0  0  0  0  0
    4.4695   -0.8546    1.7984 H   0  0  0  0  0  0  0  0  0  0  0  0
   -6.8765   -3.3235   -0.6746 H   0  0  0  0  0  0  0  0  0  0  0  0
   -0.2563    3.8231    1.6872 H   0  0  0  0  0  0  0  0  0  0  0  0
    2.3012    3.6078    2.3340 H   0  0  0  0  0  0  0  0  0  0  0  0
    3.6772    2.4706    0.3988 H   0  0  0  0  0  0  0  0  0  0  0  0
    4.2526   -3.4146   -2.3948 H   0  0  0  0  0  0  0  0  0  0  0  0
    2.5025   -3.5291   -2.7735 H   0  0  0  0  0  0  0  0  0  0  0  0
    3.6500   -2.9490   -4.0008 H   0  0  0  0  0  0  0  0  0  0  0  0
    5.2987    0.4524   -1.8944 H   0  0  0  0  0  0  0  0  0  0  0  0
    5.8516    0.7190   -0.2087 H   0  0  0  0  0  0  0  0  0  0  0  0
    6.8808   -0.1586   -1.3622 H   0  0  0  0  0  0  0  0  0  0  0  0
  1 23  1  0  0  0  0
  1 30  1  0  0  0  0
  2 17  2  0  0  0  0
  3 19  1  0  0  0  0
  3 51  1  0  0  0  0
  4 19  2  0  0  0  0
  5 26  1  0  0  0  0
  5 31  1  0  0  0  0
  6 27  1  0  0  0  0
  6 32  1  0  0  0  0
  7 12  1  0  0  0  0
  7 14  1  0  0  0  0
  7 17  1  0  0  0  0
  8 16  2  0  0  0  0
  8 22  1  0  0  0  0
  9 10  1  0  0  0  0
  9 12  1  0  0  0  0
  9 13  1  0  0  0  0
  9 33  1  0  0  0  0
 10 11  1  0  0  0  0
 10 15  1  0  0  0  0
 10 34  1  0  0  0  0
 11 14  1  0  0  0  0
 11 35  1  0  0  0  0
 11 36  1  0  0  0  0
 12 37  1  0  0  0  0
 12 38  1  0  0  0  0
 13 16  1  0  0  0  0
 13 39  1  0  0  0  0
 13 40  1  0  0  0  0
 14 41  1  0  0  0  0
 14 42  1  0  0  0  0
 15 19  1  0  0  0  0
 15 43  1  0  0  0  0
 15 44  1  0  0  0  0
 16 18  1  0  0  0  0
 17 23  1  0  0  0  0
 18 20  1  0  0  0  0
 18 24  2  0  0  0  0
 20 21  1  0  0  0  0
 20 25  2  0  0  0  0
 21 22  1  0  0  0  0
 21 45  1  0  0  0  0
 21 46  1  0  0  0  0
 22 47  1  0  0  0  0
 22 48  1  0  0  0  0
 23 28  2  0  0  0  0
 24 26  1  0  0  0  0
 24 49  1  0  0  0  0
 25 27  1  0  0  0  0
 25 50  1  0  0  0  0
 26 27  2  0  0  0  0
 28 29  1  0  0  0  0
 28 52  1  0  0  0  0
 29 30  2  0  0  0  0
 29 53  1  0  0  0  0
 30 54  1  0  0  0  0
 31 55  1  0  0  0  0
 31 56  1  0  0  0  0
 31 57  1  0  0  0  0
 32 58  1  0  0  0  0
 32 59  1  0  0  0  0
 32 60  1  0  0  0  0
M  END
> <PUBCHEM_COMPOUND_CID>
51136610

> <PUBCHEM_CONFORMER_RMSD>
1

> <PUBCHEM_CONFORMER_DIVERSEORDER>
1
10
12
26
11
116
86
72
95
93
66
29
6
65
55
70
71
84
97
27
13
59
17
8
61
41
108
30
87
109
103
56
57
22
35
91
19
75
81
89
69
25
110
23
80
83
107
92
62
33
90
98
79
51
34
21
115
101
45
40
52
112
44
94
113
85
102
96
38
9
53
63
73
3
99
36
16
88
15
64
82
18
39
78
111
114
76
31
100
60
5
68
48
20
104
54
58
77
32
74
49
14
106
42
47
50
2
37
28
24
46
67
105
7
4
43

> <PUBCHEM_MMFF94_PARTIAL_CHARGES>
35
1 -0.08
12 0.3
13 0.06
14 0.3
15 0.06
16 0.3
17 0.71
18 0.09
19 0.66
2 -0.57
20 -0.14
21 0.14
22 0.25
23 -0.05
24 -0.15
25 -0.15
26 0.08
27 0.08
28 -0.15
29 -0.15
3 -0.65
30 -0.11
31 0.28
32 0.28
4 -0.57
49 0.15
5 -0.36
50 0.15
51 0.5
52 0.15
53 0.15
54 0.15
6 -0.36
7 -0.66
8 -0.7

> <PUBCHEM_EFFECTIVE_ROTOR_COUNT>
9.6

> <PUBCHEM_PHARMACOPHORE_FEATURES>
11
1 2 acceptor
1 3 acceptor
1 4 acceptor
1 5 acceptor
1 6 acceptor
1 8 acceptor
3 3 4 19 anion
5 1 23 28 29 30 rings
6 18 20 24 25 26 27 rings
6 7 9 10 11 12 14 rings
6 8 16 18 20 21 22 rings

> <PUBCHEM_HEAVY_ATOM_COUNT>
32

> <PUBCHEM_ATOM_DEF_STEREO_COUNT>
2

> <PUBCHEM_ATOM_UDEF_STEREO_COUNT>
0

> <PUBCHEM_BOND_DEF_STEREO_COUNT>
0

> <PUBCHEM_BOND_UDEF_STEREO_COUNT>
0

> <PUBCHEM_ISOTOPIC_ATOM_COUNT>
0

> <PUBCHEM_COMPONENT_COUNT>
1

> <PUBCHEM_CACTVS_TAUTO_COUNT>
1

> <PUBCHEM_CONFORMER_ID>
030C486200000001

> <PUBCHEM_MMFF94_ENERGY>
100.684

> <PUBCHEM_FEATURE_SELFOVERLAP>
55.912

> <PUBCHEM_SHAPE_FINGERPRINT>
11607047 141 17843991306581362899
11640471 11 17026858225559562324
12107698 1 18408320007879134678
12166972 35 16878489142933799410
12596599 1 18270400482042735873
12741549 16 17774996856372778058
14787075 74 18261117353062403940
14790565 3 17472696923643904901
14931854 50 17967535662144386830
15721738 202 18060424650489247033
17909252 39 18271814548490350836
19319366 153 17170955834861881561
20028762 73 16679225020637887147
20642791 35 18334001784376828545
20691752 17 17530962488487803945
20775438 99 17977931712015763427
20905425 154 18262500572438292737
21033648 29 17345450640639757691
21033650 10 17899722084458776902
22393880 68 18187634796096826053
23557571 272 18200027331059521899
23559900 14 18272646845008085647
4093350 32 18129663136043716907
46194498 28 18272089439313981854
513532 50 18192141805448019288
59755656 215 18192427691393312693
6287921 2 17989198295858290527
6823239 73 18341038658061274761
70251023 43 18409450293390912931

> <PUBCHEM_SHAPE_MULTIPOLES>
623.09
10.43
4.22
2.5
8.49
3.3
-0.83
-8.62
4.81
0.37
1.11
-2.46
-1.37
1.53

> <PUBCHEM_SHAPE_SELFOVERLAP>
1320.632

> <PUBCHEM_SHAPE_VOLUME>
350.4

> <PUBCHEM_COORDINATE_TYPE>
2
5
10

$$$$
