11912454
  -OEChem-12032416253D

 59 61  0     1  0  0  0  0  0999 V2000
    7.5589   -0.8078   -2.3961 S   0  0  0  0  0  0  0  0  0  0  0  0
   -1.2081    2.4763    1.1263 O   0  0  0  0  0  0  0  0  0  0  0  0
    5.1203   -0.5705    1.5665 O   0  0  0  0  0  0  0  0  0  0  0  0
   -6.6733   -1.6836   -0.4497 O   0  0  0  0  0  0  0  0  0  0  0  0
   -8.1251    0.0614   -0.8321 O   0  0  0  0  0  0  0  0  0  0  0  0
   -0.1537    0.4622    1.5527 N   0  0  0  0  0  0  0  0  0  0  0  0
   -2.4446    0.5192    0.9869 N   0  0  0  0  0  0  0  0  0  0  0  0
    5.5825   -1.0342   -0.6895 N   0  0  0  0  0  0  0  0  0  0  0  0
    7.6565   -0.0804    0.0826 N   0  0  0  0  0  0  0  0  0  0  0  0
    2.2526    0.5954    0.9295 C   0  0  2  0  0  0  0  0  0  0  0  0
    2.3420   -0.9441    1.0643 C   0  0  1  0  0  0  0  0  0  0  0  0
    0.9813   -1.6089    0.8064 C   0  0  0  0  0  0  0  0  0  0  0  0
    1.1252    1.1240    1.8298 C   0  0  0  0  0  0  0  0  0  0  0  0
   -0.1242   -1.0032    1.6729 C   0  0  0  0  0  0  0  0  0  0  0  0
    2.0641    1.0894   -0.5099 C   0  0  0  0  0  0  0  0  0  0  0  0
    3.4217   -1.5620    0.1763 C   0  0  0  0  0  0  0  0  0  0  0  0
    2.1122    2.6014   -0.5801 C   0  0  0  0  0  0  0  0  0  0  0  0
   -1.2750    1.2468    1.2036 C   0  0  0  0  0  0  0  0  0  0  0  0
    4.7994   -0.9929    0.4606 C   0  0  0  0  0  0  0  0  0  0  0  0
   -3.5548    0.8972    0.1917 C   0  0  0  0  0  0  0  0  0  0  0  0
    6.9209   -0.5987   -0.8378 C   0  0  0  0  0  0  0  0  0  0  0  0
   -4.6930    0.0962    0.1661 C   0  0  0  0  0  0  0  0  0  0  0  0
   -3.5007    2.0683   -0.5588 C   0  0  0  0  0  0  0  0  0  0  0  0
   -5.7859    0.4693   -0.6164 C   0  0  0  0  0  0  0  0  0  0  0  0
   -4.5935    2.4415   -1.3412 C   0  0  0  0  0  0  0  0  0  0  0  0
   -5.7361    1.6419   -1.3701 C   0  0  0  0  0  0  0  0  0  0  0  0
    9.0217   -0.1249   -1.8170 C   0  0  0  0  0  0  0  0  0  0  0  0
    8.8852    0.1982   -0.4832 C   0  0  0  0  0  0  0  0  0  0  0  0
   -6.9769   -0.3643   -0.6480 C   0  0  0  0  0  0  0  0  0  0  0  0
   -7.7665   -2.6080   -0.4602 C   0  0  0  0  0  0  0  0  0  0  0  0
   -7.2330   -4.0052   -0.2260 C   0  0  0  0  0  0  0  0  0  0  0  0
    3.1844    1.0330    1.3092 H   0  0  0  0  0  0  0  0  0  0  0  0
    2.6085   -1.1590    2.1098 H   0  0  0  0  0  0  0  0  0  0  0  0
    0.7086   -1.5020   -0.2509 H   0  0  0  0  0  0  0  0  0  0  0  0
    1.0456   -2.6850    1.0078 H   0  0  0  0  0  0  0  0  0  0  0  0
    1.0320    2.2115    1.7863 H   0  0  0  0  0  0  0  0  0  0  0  0
    1.3653    0.8959    2.8770 H   0  0  0  0  0  0  0  0  0  0  0  0
   -1.0674   -1.4711    1.3915 H   0  0  0  0  0  0  0  0  0  0  0  0
    0.0528   -1.2343    2.7299 H   0  0  0  0  0  0  0  0  0  0  0  0
    1.1235    0.7329   -0.9432 H   0  0  0  0  0  0  0  0  0  0  0  0
    2.8705    0.7113   -1.1463 H   0  0  0  0  0  0  0  0  0  0  0  0
    3.4839   -2.6405    0.3711 H   0  0  0  0  0  0  0  0  0  0  0  0
    3.1619   -1.4550   -0.8826 H   0  0  0  0  0  0  0  0  0  0  0  0
    2.1841    2.9186   -1.6264 H   0  0  0  0  0  0  0  0  0  0  0  0
    2.9831    3.0046   -0.0535 H   0  0  0  0  0  0  0  0  0  0  0  0
    1.2094    3.0664   -0.1761 H   0  0  0  0  0  0  0  0  0  0  0  0
   -2.5567   -0.3645    1.4712 H   0  0  0  0  0  0  0  0  0  0  0  0
    5.1842   -1.4203   -1.5419 H   0  0  0  0  0  0  0  0  0  0  0  0
   -4.7202   -0.8084    0.7692 H   0  0  0  0  0  0  0  0  0  0  0  0
   -2.6306    2.7111   -0.6064 H   0  0  0  0  0  0  0  0  0  0  0  0
   -4.5521    3.3498   -1.9354 H   0  0  0  0  0  0  0  0  0  0  0  0
   -6.5767    1.9447   -1.9891 H   0  0  0  0  0  0  0  0  0  0  0  0
    9.8827    0.0028   -2.4572 H   0  0  0  0  0  0  0  0  0  0  0  0
    9.6584    0.6437    0.1281 H   0  0  0  0  0  0  0  0  0  0  0  0
   -8.2728   -2.5611   -1.4306 H   0  0  0  0  0  0  0  0  0  0  0  0
   -8.4744   -2.3426    0.3326 H   0  0  0  0  0  0  0  0  0  0  0  0
   -6.7069   -4.0610    0.7327 H   0  0  0  0  0  0  0  0  0  0  0  0
   -6.5092   -4.2762   -1.0017 H   0  0  0  0  0  0  0  0  0  0  0  0
   -8.0438   -4.7390   -0.2275 H   0  0  0  0  0  0  0  0  0  0  0  0
  1 21  1  0  0  0  0
  1 27  1  0  0  0  0
  2 18  2  0  0  0  0
  3 19  2  0  0  0  0
  4 29  1  0  0  0  0
  4 30  1  0  0  0  0
  5 29  2  0  0  0  0
  6 13  1  0  0  0  0
  6 14  1  0  0  0  0
  6 18  1  0  0  0  0
  7 18  1  0  0  0  0
  7 20  1  0  0  0  0
  7 47  1  0  0  0  0
  8 19  1  0  0  0  0
  8 21  1  0  0  0  0
  8 48  1  0  0  0  0
  9 21  2  0  0  0  0
  9 28  1  0  0  0  0
 10 11  1  0  0  0  0
 10 13  1  0  0  0  0
 10 15  1  0  0  0  0
 10 32  1  0  0  0  0
 11 12  1  0  0  0  0
 11 16  1  0  0  0  0
 11 33  1  0  0  0  0
 12 14  1  0  0  0  0
 12 34  1  0  0  0  0
 12 35  1  0  0  0  0
 13 36  1  0  0  0  0
 13 37  1  0  0  0  0
 14 38  1  0  0  0  0
 14 39  1  0  0  0  0
 15 17  1  0  0  0  0
 15 40  1  0  0  0  0
 15 41  1  0  0  0  0
 16 19  1  0  0  0  0
 16 42  1  0  0  0  0
 16 43  1  0  0  0  0
 17 44  1  0  0  0  0
 17 45  1  0  0  0  0
 17 46  1  0  0  0  0
 20 22  1  0  0  0  0
 20 23  2  0  0  0  0
 22 24  2  0  0  0  0
 22 49  1  0  0  0  0
 23 25  1  0  0  0  0
 23 50  1  0  0  0  0
 24 26  1  0  0  0  0
 24 29  1  0  0  0  0
 25 26  2  0  0  0  0
 25 51  1  0  0  0  0
 26 52  1  0  0  0  0
 27 28  2  0  0  0  0
 27 53  1  0  0  0  0
 28 54  1  0  0  0  0
 30 31  1  0  0  0  0
 30 55  1  0  0  0  0
 30 56  1  0  0  0  0
 31 57  1  0  0  0  0
 31 58  1  0  0  0  0
 31 59  1  0  0  0  0
M  END
> <PUBCHEM_COMPOUND_CID>
11912454

> <PUBCHEM_CONFORMER_RMSD>
1.2

> <PUBCHEM_CONFORMER_DIVERSEORDER>
2
14
100
87
49
89
20
99
103
55
68
97
25
102
51
6
60
5
61
91
74
83
26
41
52
38
21
22
105
81
86
92
43
106
24
98
71
62
3
72
50
107
79
77
16
108
90
58
101
33
45
40
94
59
66
36
18
57
48
8
54
64
17
104
93
88
32
4
80
85
35
95
15
42
10
23
27
63
31
1
19
109
9
75
96
44
65
53
84
82
7
70
56
69
73
46
67
11
28
76
47
13
37
29
34
39
30
12
78

> <PUBCHEM_MMFF94_PARTIAL_CHARGES>
33
1 -0.08
13 0.3
14 0.3
16 0.06
18 0.69
19 0.57
2 -0.57
20 0.12
21 0.44
22 -0.15
23 -0.15
24 0.09
25 -0.15
26 -0.15
27 -0.11
28 0.08
29 0.63
3 -0.57
30 0.28
4 -0.43
47 0.37
48 0.37
49 0.15
5 -0.57
50 0.15
51 0.15
52 0.15
53 0.15
54 0.15
6 -0.66
7 -0.55
8 -0.49
9 -0.57

> <PUBCHEM_EFFECTIVE_ROTOR_COUNT>
12.2

> <PUBCHEM_PHARMACOPHORE_FEATURES>
9
1 17 hydrophobe
1 2 acceptor
1 3 acceptor
1 5 acceptor
1 7 donor
1 8 donor
5 1 9 21 27 28 rings
6 20 22 23 24 25 26 rings
6 6 10 11 12 13 14 rings

> <PUBCHEM_HEAVY_ATOM_COUNT>
31

> <PUBCHEM_ATOM_DEF_STEREO_COUNT>
2

> <PUBCHEM_ATOM_UDEF_STEREO_COUNT>
0

> <PUBCHEM_BOND_DEF_STEREO_COUNT>
0

> <PUBCHEM_BOND_UDEF_STEREO_COUNT>
0

> <PUBCHEM_ISOTOPIC_ATOM_COUNT>
0

> <PUBCHEM_COMPONENT_COUNT>
1

> <PUBCHEM_CACTVS_TAUTO_COUNT>
6

> <PUBCHEM_CONFORMER_ID>
00B5C50600000002

> <PUBCHEM_MMFF94_ENERGY>
73.5181

> <PUBCHEM_FEATURE_SELFOVERLAP>
45.671

> <PUBCHEM_SHAPE_FINGERPRINT>
10054150 59 17181664399513275947
10076449 9 18342462560411629683
10190108 129 12895359880711737014
10299344 5 13973677330787758400
11103572 155 16700632090516839671
11478447 183 18114174255930420023
11621639 307 14563350846104123559
117089 54 18265614476375769747
12082328 90 17703793574269205200
13668630 136 18060420200961215052
13673619 4 15697712632513446424
13690498 29 18409440406776909567
14150023 24 11891329863687464528
150020 25 18272085002523035664
15183329 4 17821729407873532920
15274700 208 13768492058169782030
15289351 153 13046207378489779212
15352257 5 14908176422652650204
15444296 7 18201999975695873436
15461852 350 18334859419829810454
15510800 12 17560812038569117255
15979999 66 18260829302338607948
18335252 98 16415479321453929846
18681886 176 18409440401580115792
19246450 95 13686032973233797011
195137 95 11025791007466701095
20105231 36 17632857529537060543
21033648 29 11025798695684520523
21150785 3 18333452028161773416
21267235 1 17418373588487429249
22288116 15 18040438810894839939
23576562 1 17750245857815808678
2747138 104 17561078107534709730
2835820 25 9223241723611562719
3103668 31 18196937884266027102
3525247 94 18334850586306494674
393628 179 12685086012598896887
397638 26 7925907080272400868
484989 97 18339644559227874443
54039377 194 18060139864377847495
5470011 282 17846780681401966996
636775 8 18201725067175830310
9995097 26 17917433146502321230
999808 66 17275103938276350615

> <PUBCHEM_SHAPE_MULTIPOLES>
598.41
28.14
2.83
1.74
14.88
1.18
0.08
13.48
18.36
-7.11
0.47
2.15
-0.17
0.34

> <PUBCHEM_SHAPE_SELFOVERLAP>
1237.966

> <PUBCHEM_SHAPE_VOLUME>
342.5

> <PUBCHEM_COORDINATE_TYPE>
2
5
10

$$$$
