25314986
  -OEChem-12032416193D

 55 58  0     1  0  0  0  0  0999 V2000
    2.0692   -1.8060   -1.5072 O   0  0  0  0  0  0  0  0  0  0  0  0
    2.8803   -3.3350    0.0372 O   0  0  0  0  0  0  0  0  0  0  0  0
    3.2246   -1.3583    2.1048 O   0  0  0  0  0  0  0  0  0  0  0  0
    3.8811    2.4359    0.6772 O   0  0  0  0  0  0  0  0  0  0  0  0
    0.0580   -0.9563    0.3581 N   0  0  0  0  0  0  0  0  0  0  0  0
    2.7249    0.9277   -0.6559 N   0  0  0  0  0  0  0  0  0  0  0  0
   -2.7421   -0.4126    0.2080 N   0  0  0  0  0  0  0  0  0  0  0  0
    2.4278    3.1824   -0.9703 N   0  0  0  0  0  0  0  0  0  0  0  0
    1.2564   -1.6952    0.7606 C   0  0  2  0  0  0  0  0  0  0  0  0
    2.3865   -0.7110    1.1384 C   0  0  2  0  0  0  0  0  0  0  0  0
    3.2555   -0.2816   -0.0640 C   0  0  1  0  0  0  0  0  0  0  0  0
    1.7065   -2.6211   -0.3844 C   0  0  1  0  0  0  0  0  0  0  0  0
    3.3848   -1.3774   -1.1420 C   0  0  1  0  0  0  0  0  0  0  0  0
    3.9690   -2.6820   -0.6337 C   0  0  0  0  0  0  0  0  0  0  0  0
   -0.6695   -0.4730    1.5378 C   0  0  0  0  0  0  0  0  0  0  0  0
   -0.8200   -1.8044   -0.4575 C   0  0  0  0  0  0  0  0  0  0  0  0
   -1.8946    0.3493    1.1303 C   0  0  0  0  0  0  0  0  0  0  0  0
   -2.0492   -1.0259   -0.9321 C   0  0  0  0  0  0  0  0  0  0  0  0
    3.0853    2.2021   -0.2315 C   0  0  0  0  0  0  0  0  0  0  0  0
   -4.0862   -0.0582    0.0471 C   0  0  0  0  0  0  0  0  0  0  0  0
   -4.4814    1.2699    0.2070 C   0  0  0  0  0  0  0  0  0  0  0  0
   -5.0309   -1.0332   -0.2732 C   0  0  0  0  0  0  0  0  0  0  0  0
    2.6172    4.5951   -0.7393 C   0  0  0  0  0  0  0  0  0  0  0  0
   -5.8214    1.6232    0.0468 C   0  0  0  0  0  0  0  0  0  0  0  0
   -6.3707   -0.6800   -0.4334 C   0  0  0  0  0  0  0  0  0  0  0  0
   -6.7660    0.6481   -0.2734 C   0  0  0  0  0  0  0  0  0  0  0  0
    1.8048    5.0772    0.4447 C   0  0  0  0  0  0  0  0  0  0  0  0
    1.0416   -2.3415    1.6241 H   0  0  0  0  0  0  0  0  0  0  0  0
    2.0006    0.1718    1.6579 H   0  0  0  0  0  0  0  0  0  0  0  0
    4.2677   -0.0474    0.2905 H   0  0  0  0  0  0  0  0  0  0  0  0
    0.9889   -3.3938   -0.6711 H   0  0  0  0  0  0  0  0  0  0  0  0
    3.9176   -1.0036   -2.0224 H   0  0  0  0  0  0  0  0  0  0  0  0
    4.2662   -3.3286   -1.4663 H   0  0  0  0  0  0  0  0  0  0  0  0
    4.8200   -2.5582    0.0414 H   0  0  0  0  0  0  0  0  0  0  0  0
   -0.0418    0.1656    2.1672 H   0  0  0  0  0  0  0  0  0  0  0  0
   -0.9952   -1.3167    2.1618 H   0  0  0  0  0  0  0  0  0  0  0  0
   -1.1426   -2.6952    0.0983 H   0  0  0  0  0  0  0  0  0  0  0  0
   -0.3640   -2.1210   -1.3993 H   0  0  0  0  0  0  0  0  0  0  0  0
    1.9997    0.8408   -1.3616 H   0  0  0  0  0  0  0  0  0  0  0  0
   -2.4482    0.6079    2.0416 H   0  0  0  0  0  0  0  0  0  0  0  0
   -1.5676    1.2826    0.6538 H   0  0  0  0  0  0  0  0  0  0  0  0
   -1.7503   -0.2378   -1.6358 H   0  0  0  0  0  0  0  0  0  0  0  0
   -2.7012   -1.7164   -1.4797 H   0  0  0  0  0  0  0  0  0  0  0  0
    3.8982   -0.7161    2.3869 H   0  0  0  0  0  0  0  0  0  0  0  0
    1.7798    2.8943   -1.6969 H   0  0  0  0  0  0  0  0  0  0  0  0
   -3.7713    2.0576    0.4421 H   0  0  0  0  0  0  0  0  0  0  0  0
   -4.7458   -2.0757   -0.3878 H   0  0  0  0  0  0  0  0  0  0  0  0
    3.6818    4.7863   -0.5684 H   0  0  0  0  0  0  0  0  0  0  0  0
    2.3129    5.1208   -1.6496 H   0  0  0  0  0  0  0  0  0  0  0  0
   -6.1290    2.6577    0.1681 H   0  0  0  0  0  0  0  0  0  0  0  0
   -7.1070   -1.4395   -0.6796 H   0  0  0  0  0  0  0  0  0  0  0  0
   -7.8093    0.9230   -0.3981 H   0  0  0  0  0  0  0  0  0  0  0  0
    0.7377    4.8843    0.2915 H   0  0  0  0  0  0  0  0  0  0  0  0
    2.1045    4.5700    1.3676 H   0  0  0  0  0  0  0  0  0  0  0  0
    1.9414    6.1535    0.5881 H   0  0  0  0  0  0  0  0  0  0  0  0
  1 12  1  0  0  0  0
  1 13  1  0  0  0  0
  2 12  1  0  0  0  0
  2 14  1  0  0  0  0
  3 10  1  0  0  0  0
  3 44  1  0  0  0  0
  4 19  2  0  0  0  0
  5  9  1  0  0  0  0
  5 15  1  0  0  0  0
  5 16  1  0  0  0  0
  6 11  1  0  0  0  0
  6 19  1  0  0  0  0
  6 39  1  0  0  0  0
  7 17  1  0  0  0  0
  7 18  1  0  0  0  0
  7 20  1  0  0  0  0
  8 19  1  0  0  0  0
  8 23  1  0  0  0  0
  8 45  1  0  0  0  0
  9 10  1  0  0  0  0
  9 12  1  0  0  0  0
  9 28  1  0  0  0  0
 10 11  1  0  0  0  0
 10 29  1  0  0  0  0
 11 13  1  0  0  0  0
 11 30  1  0  0  0  0
 12 31  1  0  0  0  0
 13 14  1  0  0  0  0
 13 32  1  0  0  0  0
 14 33  1  0  0  0  0
 14 34  1  0  0  0  0
 15 17  1  0  0  0  0
 15 35  1  0  0  0  0
 15 36  1  0  0  0  0
 16 18  1  0  0  0  0
 16 37  1  0  0  0  0
 16 38  1  0  0  0  0
 17 40  1  0  0  0  0
 17 41  1  0  0  0  0
 18 42  1  0  0  0  0
 18 43  1  0  0  0  0
 20 21  2  0  0  0  0
 20 22  1  0  0  0  0
 21 24  1  0  0  0  0
 21 46  1  0  0  0  0
 22 25  2  0  0  0  0
 22 47  1  0  0  0  0
 23 27  1  0  0  0  0
 23 48  1  0  0  0  0
 23 49  1  0  0  0  0
 24 26  2  0  0  0  0
 24 50  1  0  0  0  0
 25 26  1  0  0  0  0
 25 51  1  0  0  0  0
 26 52  1  0  0  0  0
 27 53  1  0  0  0  0
 27 54  1  0  0  0  0
 27 55  1  0  0  0  0
M  END
> <PUBCHEM_COMPOUND_CID>
25314986

> <PUBCHEM_CONFORMER_RMSD>
1

> <PUBCHEM_CONFORMER_DIVERSEORDER>
1
17
41
39
24
38
36
34
2
30
13
22
42
26
33
28
9
14
25
5
11
44
16
7
32
18
35
40
43
19
37
46
6
29
27
47
48
45
10
3
12
15
8
31
23
4
21
20
49

> <PUBCHEM_MMFF94_PARTIAL_CHARGES>
34
1 -0.56
10 0.28
11 0.3
12 0.56
13 0.28
14 0.28
15 0.27
16 0.27
17 0.37
18 0.37
19 0.69
2 -0.56
20 0.1
21 -0.15
22 -0.15
23 0.3
24 -0.15
25 -0.15
26 -0.15
3 -0.68
39 0.37
4 -0.57
44 0.4
45 0.37
46 0.15
47 0.15
5 -0.81
50 0.15
51 0.15
52 0.15
6 -0.73
7 -0.84
8 -0.73
9 0.27

> <PUBCHEM_EFFECTIVE_ROTOR_COUNT>
8.4

> <PUBCHEM_PHARMACOPHORE_FEATURES>
12
1 1 acceptor
1 2 acceptor
1 3 acceptor
1 3 donor
1 4 acceptor
1 5 cation
1 6 donor
1 7 cation
1 8 donor
6 20 21 22 24 25 26 rings
6 5 7 15 16 17 18 rings
8 1 2 9 10 11 12 13 14 rings

> <PUBCHEM_HEAVY_ATOM_COUNT>
27

> <PUBCHEM_ATOM_DEF_STEREO_COUNT>
5

> <PUBCHEM_ATOM_UDEF_STEREO_COUNT>
0

> <PUBCHEM_BOND_DEF_STEREO_COUNT>
0

> <PUBCHEM_BOND_UDEF_STEREO_COUNT>
0

> <PUBCHEM_ISOTOPIC_ATOM_COUNT>
0

> <PUBCHEM_COMPONENT_COUNT>
1

> <PUBCHEM_CACTVS_TAUTO_COUNT>
3

> <PUBCHEM_CONFORMER_ID>
018246AA00000001

> <PUBCHEM_MMFF94_ENERGY>
83.4294

> <PUBCHEM_FEATURE_SELFOVERLAP>
61

> <PUBCHEM_SHAPE_FINGERPRINT>
10483366 6 18337690676227251348
10675989 125 18270124650817511577
10937287 8 17978230792010146916
12166972 35 18272652294730533003
12633257 1 15503211353026347157
13583140 156 18188505609316977043
13590594 115 18121793733233047312
13944108 23 18333455335023887396
14468879 13 17972887143992534545
14528608 73 18409730656134591455
15082195 135 18269820069490552853
15142526 21 18042964470412340561
15439362 3 18267589181920500708
16988056 13 18410297999665840908
17844677 252 18339930320966522283
17980427 23 18125410212013681426
18681886 176 18341610378401717970
21033648 29 16732976506276502215
21304303 282 17266642307421855356
21344244 78 17972017172950516586
21860390 5 18411141333478730492
22149856 69 17918001590373614187
22224240 67 8502069826808523030
23522609 53 17773900717518285785
23559900 14 18340770343038925731
239999 70 18342739576901524591
245318 6 17680156458317105117
3004659 81 18059855004909242131
34797466 226 18342181077208799247
474 4 18337392759160474416
513532 50 18202292402939558348
53794403 172 18263371441587574429
633830 44 18408879616960442527
9981440 41 17906169908053397544

> <PUBCHEM_SHAPE_MULTIPOLES>
512.25
12.69
4.89
1.23
24.73
7.57
-0.32
1.79
1.69
-8.59
0.79
-0.9
-0.3
-0.35

> <PUBCHEM_SHAPE_SELFOVERLAP>
1085.599

> <PUBCHEM_SHAPE_VOLUME>
282.7

> <PUBCHEM_COORDINATE_TYPE>
2
5
10

$$$$
