11865896
  -OEChem-12032416203D

 53 57  0     1  0  0  0  0  0999 V2000
    5.8048    1.4603   -0.7811 S   0  0  0  0  0  0  0  0  0  0  0  0
    0.4316   -0.0933    1.5227 O   0  0  0  0  0  0  0  0  0  0  0  0
   -3.2488   -3.6770   -1.0027 O   0  0  0  0  0  0  0  0  0  0  0  0
   -4.3159    2.9934    1.1794 O   0  0  0  0  0  0  0  0  0  0  0  0
    2.2998    0.1957   -1.3072 O   0  0  0  0  0  0  0  0  0  0  0  0
   -1.5727   -0.9046    0.6794 N   0  0  0  0  0  0  0  0  0  0  0  0
    1.9665   -1.7419   -0.0867 N   0  0  0  0  0  0  0  0  0  0  0  0
   -1.0728   -3.7032   -0.3926 N   0  0  0  0  0  0  0  0  0  0  0  0
   -3.4324    1.3433   -0.2065 N   0  0  0  0  0  0  0  0  0  0  0  0
    0.5100   -1.7795   -0.2025 C   0  0  1  0  0  0  0  0  0  0  0  0
   -2.3395   -1.5320   -0.4022 C   0  0  2  0  0  0  0  0  0  0  0  0
    0.1212   -3.1915    0.2448 C   0  0  2  0  0  0  0  0  0  0  0  0
   -3.6459    0.2103    0.6621 C   0  0  1  0  0  0  0  0  0  0  0  0
   -3.7900   -1.0843   -0.1324 C   0  0  0  0  0  0  0  0  0  0  0  0
   -2.4228   -0.0724    1.5224 C   0  0  0  0  0  0  0  0  0  0  0  0
    1.3702   -4.0121   -0.0650 C   0  0  0  0  0  0  0  0  0  0  0  0
   -0.1858   -0.8226    0.7484 C   0  0  0  0  0  0  0  0  0  0  0  0
    2.4922   -3.0497    0.2945 C   0  0  0  0  0  0  0  0  0  0  0  0
   -3.4728    3.6507   -0.9160 C   0  0  0  0  0  0  0  0  0  0  0  0
   -2.2772   -3.0574   -0.5533 C   0  0  0  0  0  0  0  0  0  0  0  0
   -2.6338    4.8229   -0.5380 C   0  0  0  0  0  0  0  0  0  0  0  0
   -2.0716    3.7428   -1.4150 C   0  0  0  0  0  0  0  0  0  0  0  0
   -3.7883    2.6363    0.1327 C   0  0  0  0  0  0  0  0  0  0  0  0
    2.7160   -0.6603   -0.5242 C   0  0  0  0  0  0  0  0  0  0  0  0
    4.1165   -0.5672    0.0267 C   0  0  0  0  0  0  0  0  0  0  0  0
    4.4807    0.8799    0.1220 C   0  0  0  0  0  0  0  0  0  0  0  0
    3.8740    1.8528    0.8676 C   0  0  0  0  0  0  0  0  0  0  0  0
    4.5107    3.1159    0.6966 C   0  0  0  0  0  0  0  0  0  0  0  0
    5.5759    3.0448   -0.1740 C   0  0  0  0  0  0  0  0  0  0  0  0
    0.2498   -1.5520   -1.2419 H   0  0  0  0  0  0  0  0  0  0  0  0
   -1.9871   -1.0970   -1.3459 H   0  0  0  0  0  0  0  0  0  0  0  0
   -0.0647   -3.2316    1.3274 H   0  0  0  0  0  0  0  0  0  0  0  0
   -4.5281    0.4087    1.2798 H   0  0  0  0  0  0  0  0  0  0  0  0
   -4.3131   -1.8256    0.4860 H   0  0  0  0  0  0  0  0  0  0  0  0
   -4.3591   -0.9640   -1.0606 H   0  0  0  0  0  0  0  0  0  0  0  0
   -2.6894   -0.6774    2.3965 H   0  0  0  0  0  0  0  0  0  0  0  0
   -1.9000    0.8278    1.8598 H   0  0  0  0  0  0  0  0  0  0  0  0
    1.4195   -4.9468    0.5012 H   0  0  0  0  0  0  0  0  0  0  0  0
    1.4118   -4.2611   -1.1330 H   0  0  0  0  0  0  0  0  0  0  0  0
    3.4276   -3.2699   -0.2270 H   0  0  0  0  0  0  0  0  0  0  0  0
    2.6722   -3.0336    1.3748 H   0  0  0  0  0  0  0  0  0  0  0  0
   -4.2718    3.8341   -1.6266 H   0  0  0  0  0  0  0  0  0  0  0  0
   -1.0908   -4.7041   -0.5643 H   0  0  0  0  0  0  0  0  0  0  0  0
   -2.2546    4.8945    0.4741 H   0  0  0  0  0  0  0  0  0  0  0  0
   -2.8605    5.7773   -0.9974 H   0  0  0  0  0  0  0  0  0  0  0  0
   -1.9228    3.9713   -2.4635 H   0  0  0  0  0  0  0  0  0  0  0  0
   -1.3081    3.1041   -0.9876 H   0  0  0  0  0  0  0  0  0  0  0  0
   -2.9713    1.1812   -1.0973 H   0  0  0  0  0  0  0  0  0  0  0  0
    4.1668   -1.0132    1.0261 H   0  0  0  0  0  0  0  0  0  0  0  0
    4.7839   -1.1315   -0.6335 H   0  0  0  0  0  0  0  0  0  0  0  0
    3.0184    1.6824    1.5085 H   0  0  0  0  0  0  0  0  0  0  0  0
    4.2033    4.0301    1.1875 H   0  0  0  0  0  0  0  0  0  0  0  0
    6.2306    3.8476   -0.4824 H   0  0  0  0  0  0  0  0  0  0  0  0
  1 26  1  0  0  0  0
  1 29  1  0  0  0  0
  2 17  2  0  0  0  0
  3 20  2  0  0  0  0
  4 23  2  0  0  0  0
  5 24  2  0  0  0  0
  6 11  1  0  0  0  0
  6 15  1  0  0  0  0
  6 17  1  0  0  0  0
  7 10  1  0  0  0  0
  7 18  1  0  0  0  0
  7 24  1  0  0  0  0
  8 12  1  0  0  0  0
  8 20  1  0  0  0  0
  8 43  1  0  0  0  0
  9 13  1  0  0  0  0
  9 23  1  0  0  0  0
  9 48  1  0  0  0  0
 10 12  1  0  0  0  0
 10 17  1  0  0  0  0
 10 30  1  0  0  0  0
 11 14  1  0  0  0  0
 11 20  1  0  0  0  0
 11 31  1  0  0  0  0
 12 16  1  0  0  0  0
 12 32  1  0  0  0  0
 13 14  1  0  0  0  0
 13 15  1  0  0  0  0
 13 33  1  0  0  0  0
 14 34  1  0  0  0  0
 14 35  1  0  0  0  0
 15 36  1  0  0  0  0
 15 37  1  0  0  0  0
 16 18  1  0  0  0  0
 16 38  1  0  0  0  0
 16 39  1  0  0  0  0
 18 40  1  0  0  0  0
 18 41  1  0  0  0  0
 19 21  1  0  0  0  0
 19 22  1  0  0  0  0
 19 23  1  0  0  0  0
 19 42  1  0  0  0  0
 21 22  1  0  0  0  0
 21 44  1  0  0  0  0
 21 45  1  0  0  0  0
 22 46  1  0  0  0  0
 22 47  1  0  0  0  0
 24 25  1  0  0  0  0
 25 26  1  0  0  0  0
 25 49  1  0  0  0  0
 25 50  1  0  0  0  0
 26 27  2  0  0  0  0
 27 28  1  0  0  0  0
 27 51  1  0  0  0  0
 28 29  2  0  0  0  0
 28 52  1  0  0  0  0
 29 53  1  0  0  0  0
M  END
> <PUBCHEM_COMPOUND_CID>
11865896

> <PUBCHEM_CONFORMER_RMSD>
1

> <PUBCHEM_CONFORMER_DIVERSEORDER>
1
27
13
11
38
18
16
30
41
22
34
9
35
25
24
20
42
6
14
29
17
19
7
8
21
28
31
4
33
32
40
36
12
3
15
10
23
2
5
39
37
26

> <PUBCHEM_MMFF94_PARTIAL_CHARGES>
37
1 -0.08
10 0.36
11 0.36
12 0.3
13 0.3
15 0.3
17 0.57
18 0.3
19 -0.1
2 -0.57
20 0.57
21 -0.2
22 -0.2
23 0.63
24 0.57
25 0.24
26 -0.14
27 -0.15
28 -0.15
29 -0.11
3 -0.57
4 -0.57
42 0.1
43 0.37
44 0.1
45 0.1
46 0.1
47 0.1
48 0.37
5 -0.57
51 0.15
52 0.15
53 0.15
6 -0.66
7 -0.66
8 -0.73
9 -0.73

> <PUBCHEM_EFFECTIVE_ROTOR_COUNT>
8

> <PUBCHEM_PHARMACOPHORE_FEATURES>
10
1 2 acceptor
1 3 acceptor
1 4 acceptor
1 5 acceptor
1 8 donor
1 9 donor
5 1 26 27 28 29 rings
5 6 11 13 14 15 rings
5 7 10 12 16 18 rings
7 6 8 10 11 12 17 20 rings

> <PUBCHEM_HEAVY_ATOM_COUNT>
29

> <PUBCHEM_ATOM_DEF_STEREO_COUNT>
4

> <PUBCHEM_ATOM_UDEF_STEREO_COUNT>
0

> <PUBCHEM_BOND_DEF_STEREO_COUNT>
0

> <PUBCHEM_BOND_UDEF_STEREO_COUNT>
0

> <PUBCHEM_ISOTOPIC_ATOM_COUNT>
0

> <PUBCHEM_COMPONENT_COUNT>
1

> <PUBCHEM_CACTVS_TAUTO_COUNT>
4

> <PUBCHEM_CONFORMER_ID>
00B50F2800000001

> <PUBCHEM_MMFF94_ENERGY>
81.1533

> <PUBCHEM_FEATURE_SELFOVERLAP>
50.829

> <PUBCHEM_SHAPE_FINGERPRINT>
10439779 11 17760637080106177064
10670039 82 18194971957833376332
12100795 323 18262794060501872948
12107183 9 18335970979774652378
12422481 6 17898555489731328698
12769317 202 18270396079991453216
13617811 41 17979055408477276083
14251764 75 18199481973635693057
14790565 3 18200606782831267497
15081414 286 17405433195986338207
15320467 1 18410291380884256716
15322535 138 18339066147265586624
15463212 79 18335978739999795171
15961568 22 17762617691759714220
16067690 210 17897713504153392712
16988056 13 16751543675013617565
16992787 43 18411410714793016805
18681886 176 17691395318067530635
20567600 299 17617092504131876781
20764821 26 18338508651857594040
21033648 144 18128822026865370700
21315764 268 18046064852869570909
21859007 373 18199461234077260304
22393880 68 18272094915792721630
23559900 14 17917718981309304414
325973 47 17689996739313941860
469060 322 17977405028855646835
508706 21 18341047536112343524
5252454 2 18272091573844228009
5283173 99 18271530917956944282
550186 7 18199197350505288468
581034 39 18335713779425720852
653340 110 18338229479173167292
6608658 132 18045216291912443196
7399639 24 18263662722454286659
7808743 9 18411418440394397744
7970288 3 9188889149111602464

> <PUBCHEM_SHAPE_MULTIPOLES>
557.25
10.94
6.76
1.13
11.1
2.12
0.1
11.17
-0.29
-4.41
-1.62
-0.36
0.43
0.19

> <PUBCHEM_SHAPE_SELFOVERLAP>
1189.042

> <PUBCHEM_SHAPE_VOLUME>
310.9

> <PUBCHEM_COORDINATE_TYPE>
2
5
10

$$$$
