11941698
  -OEChem-12032416293D

 57 61  0     1  0  0  0  0  0999 V2000
    2.4391    1.2775    1.6694 O   0  0  0  0  0  0  0  0  0  0  0  0
   -2.8922    1.0467    2.0183 O   0  0  0  0  0  0  0  0  0  0  0  0
   -3.5516   -0.9762    0.6536 O   0  0  0  0  0  0  0  0  0  0  0  0
   -2.2431    2.3807    0.2300 N   0  0  0  0  0  0  0  0  0  0  0  0
    0.9448    2.2155    0.1442 N   0  0  0  0  0  0  0  0  0  0  0  0
   -0.5866    4.1774    0.7455 C   0  0  1  0  0  0  0  0  0  0  0  0
   -0.6723    3.2085   -1.5127 C   0  0  2  0  0  0  0  0  0  0  0  0
   -0.5063    4.5143   -0.7384 C   0  0  0  0  0  0  0  0  0  0  0  0
   -1.9438    3.5344    1.0803 C   0  0  0  0  0  0  0  0  0  0  0  0
    0.5895    3.2640    1.1105 C   0  0  0  0  0  0  0  0  0  0  0  0
   -2.0570    2.6022   -1.2119 C   0  0  0  0  0  0  0  0  0  0  0  0
    0.4142    2.2144   -1.1480 C   0  0  0  0  0  0  0  0  0  0  0  0
    0.8438    1.3192   -2.0514 C   0  0  0  0  0  0  0  0  0  0  0  0
    1.9228    1.2865    0.5505 C   0  0  0  0  0  0  0  0  0  0  0  0
   -2.7438    1.2125    0.8049 C   0  0  0  0  0  0  0  0  0  0  0  0
    2.3571    0.2722   -0.4730 C   0  0  0  0  0  0  0  0  0  0  0  0
    1.8259    0.3321   -1.7032 C   0  0  0  0  0  0  0  0  0  0  0  0
   -3.1107    0.0975   -0.1415 C   0  0  0  0  0  0  0  0  0  0  0  0
    3.3393   -0.7746   -0.1412 C   0  0  0  0  0  0  0  0  0  0  0  0
    2.9407   -2.0119    0.3697 C   0  0  0  0  0  0  0  0  0  0  0  0
    4.6961   -0.5140   -0.3456 C   0  0  0  0  0  0  0  0  0  0  0  0
    3.8942   -2.9835    0.6744 C   0  0  0  0  0  0  0  0  0  0  0  0
    1.4984   -2.3290    0.6026 C   0  0  0  0  0  0  0  0  0  0  0  0
    5.6495   -1.4856   -0.0407 C   0  0  0  0  0  0  0  0  0  0  0  0
   -3.3006   -2.2495    0.1928 C   0  0  0  0  0  0  0  0  0  0  0  0
    5.2485   -2.7203    0.4693 C   0  0  0  0  0  0  0  0  0  0  0  0
   -3.2375   -2.4796   -1.1734 C   0  0  0  0  0  0  0  0  0  0  0  0
   -3.1158   -3.2792    1.1033 C   0  0  0  0  0  0  0  0  0  0  0  0
   -2.9840   -3.7694   -1.6400 C   0  0  0  0  0  0  0  0  0  0  0  0
   -2.8622   -4.5689    0.6366 C   0  0  0  0  0  0  0  0  0  0  0  0
   -2.7963   -4.8140   -0.7351 C   0  0  0  0  0  0  0  0  0  0  0  0
   -0.5023    5.0980    1.3363 H   0  0  0  0  0  0  0  0  0  0  0  0
   -0.6201    3.4378   -2.5850 H   0  0  0  0  0  0  0  0  0  0  0  0
    0.4540    4.9890   -0.9760 H   0  0  0  0  0  0  0  0  0  0  0  0
   -1.2939    5.2265   -1.0131 H   0  0  0  0  0  0  0  0  0  0  0  0
   -1.9788    3.2555    2.1388 H   0  0  0  0  0  0  0  0  0  0  0  0
   -2.7487    4.2616    0.9156 H   0  0  0  0  0  0  0  0  0  0  0  0
    1.4916    3.8813    1.2209 H   0  0  0  0  0  0  0  0  0  0  0  0
    0.4234    2.7960    2.0890 H   0  0  0  0  0  0  0  0  0  0  0  0
   -2.8459    3.2968   -1.5267 H   0  0  0  0  0  0  0  0  0  0  0  0
   -2.2004    1.6857   -1.7884 H   0  0  0  0  0  0  0  0  0  0  0  0
    0.4410    1.2901   -3.0585 H   0  0  0  0  0  0  0  0  0  0  0  0
    2.1036   -0.3765   -2.4781 H   0  0  0  0  0  0  0  0  0  0  0  0
   -2.2022   -0.1585   -0.6997 H   0  0  0  0  0  0  0  0  0  0  0  0
   -3.9156    0.4262   -0.8062 H   0  0  0  0  0  0  0  0  0  0  0  0
    5.0270    0.4435   -0.7415 H   0  0  0  0  0  0  0  0  0  0  0  0
    3.6001   -3.9513    1.0722 H   0  0  0  0  0  0  0  0  0  0  0  0
    1.3672   -3.3213    1.0485 H   0  0  0  0  0  0  0  0  0  0  0  0
    0.9442   -2.3241   -0.3417 H   0  0  0  0  0  0  0  0  0  0  0  0
    1.0483   -1.6076    1.2926 H   0  0  0  0  0  0  0  0  0  0  0  0
    6.7040   -1.2806   -0.2002 H   0  0  0  0  0  0  0  0  0  0  0  0
    5.9910   -3.4766    0.7065 H   0  0  0  0  0  0  0  0  0  0  0  0
   -3.4060   -1.6983   -1.9080 H   0  0  0  0  0  0  0  0  0  0  0  0
   -3.1662   -3.0910    2.1717 H   0  0  0  0  0  0  0  0  0  0  0  0
   -2.9389   -3.9619   -2.7080 H   0  0  0  0  0  0  0  0  0  0  0  0
   -2.7160   -5.3824    1.3411 H   0  0  0  0  0  0  0  0  0  0  0  0
   -2.6002   -5.8185   -1.0984 H   0  0  0  0  0  0  0  0  0  0  0  0
  1 14  2  0  0  0  0
  2 15  2  0  0  0  0
  3 18  1  0  0  0  0
  3 25  1  0  0  0  0
  4  9  1  0  0  0  0
  4 11  1  0  0  0  0
  4 15  1  0  0  0  0
  5 10  1  0  0  0  0
  5 12  1  0  0  0  0
  5 14  1  0  0  0  0
  6  8  1  0  0  0  0
  6  9  1  0  0  0  0
  6 10  1  0  0  0  0
  6 32  1  0  0  0  0
  7  8  1  0  0  0  0
  7 11  1  0  0  0  0
  7 12  1  0  0  0  0
  7 33  1  0  0  0  0
  8 34  1  0  0  0  0
  8 35  1  0  0  0  0
  9 36  1  0  0  0  0
  9 37  1  0  0  0  0
 10 38  1  0  0  0  0
 10 39  1  0  0  0  0
 11 40  1  0  0  0  0
 11 41  1  0  0  0  0
 12 13  2  0  0  0  0
 13 17  1  0  0  0  0
 13 42  1  0  0  0  0
 14 16  1  0  0  0  0
 15 18  1  0  0  0  0
 16 17  2  0  0  0  0
 16 19  1  0  0  0  0
 17 43  1  0  0  0  0
 18 44  1  0  0  0  0
 18 45  1  0  0  0  0
 19 20  1  0  0  0  0
 19 21  2  0  0  0  0
 20 22  2  0  0  0  0
 20 23  1  0  0  0  0
 21 24  1  0  0  0  0
 21 46  1  0  0  0  0
 22 26  1  0  0  0  0
 22 47  1  0  0  0  0
 23 48  1  0  0  0  0
 23 49  1  0  0  0  0
 23 50  1  0  0  0  0
 24 26  2  0  0  0  0
 24 51  1  0  0  0  0
 25 27  2  0  0  0  0
 25 28  1  0  0  0  0
 26 52  1  0  0  0  0
 27 29  1  0  0  0  0
 27 53  1  0  0  0  0
 28 30  2  0  0  0  0
 28 54  1  0  0  0  0
 29 31  2  0  0  0  0
 29 55  1  0  0  0  0
 30 31  1  0  0  0  0
 30 56  1  0  0  0  0
 31 57  1  0  0  0  0
M  END
> <PUBCHEM_COMPOUND_CID>
11941698

> <PUBCHEM_CONFORMER_RMSD>
0.8

> <PUBCHEM_CONFORMER_DIVERSEORDER>
1
25
47
29
19
41
46
3
14
6
38
33
2
17
18
21
32
40
4
9
22
31
15
20
23
5
45
10
30
27
37
11
26
39
16
13
12
42
36
28
8
7
43
35
44
24
34

> <PUBCHEM_MMFF94_PARTIAL_CHARGES>
40
1 -0.57
10 0.3
11 0.3
12 -0.03
13 -0.15
14 0.62
15 0.57
16 -0.01
17 -0.15
18 0.34
19 0.03
2 -0.57
20 -0.14
21 -0.15
22 -0.15
23 0.14
24 -0.15
25 0.08
26 -0.15
27 -0.15
28 -0.15
29 -0.15
3 -0.36
30 -0.15
31 -0.15
4 -0.66
42 0.15
43 0.15
46 0.15
47 0.15
5 -0.47
51 0.15
52 0.15
53 0.15
54 0.15
55 0.15
56 0.15
57 0.15
7 0.14
9 0.3

> <PUBCHEM_EFFECTIVE_ROTOR_COUNT>
6

> <PUBCHEM_PHARMACOPHORE_FEATURES>
8
1 1 acceptor
1 2 acceptor
1 3 acceptor
6 19 20 21 22 24 26 rings
6 25 27 28 29 30 31 rings
6 4 6 7 8 9 11 rings
6 5 12 13 14 16 17 rings
6 5 6 7 8 10 12 rings

> <PUBCHEM_HEAVY_ATOM_COUNT>
31

> <PUBCHEM_ATOM_DEF_STEREO_COUNT>
2

> <PUBCHEM_ATOM_UDEF_STEREO_COUNT>
0

> <PUBCHEM_BOND_DEF_STEREO_COUNT>
0

> <PUBCHEM_BOND_UDEF_STEREO_COUNT>
0

> <PUBCHEM_ISOTOPIC_ATOM_COUNT>
0

> <PUBCHEM_COMPONENT_COUNT>
1

> <PUBCHEM_CACTVS_TAUTO_COUNT>
1

> <PUBCHEM_CONFORMER_ID>
00B6374200000001

> <PUBCHEM_MMFF94_ENERGY>
94.1265

> <PUBCHEM_FEATURE_SELFOVERLAP>
42.181

> <PUBCHEM_SHAPE_FINGERPRINT>
10483366 6 18193254340508725413
11014199 57 18337957895142220250
11049842 53 16244095956524423244
11315621 246 18267041491864167150
114674 6 17187297197216426133
11552529 35 18339638937141648052
12633257 1 17845098367669914665
12969540 37 18122341547426623516
13122387 1 17905328425281663079
14020679 6 17343218515597028440
14251757 5 18265894666296772770
144659 178 18049162464956247162
14659021 117 18334286553213563218
14674994 50 18261661568104652333
14705955 166 17130997442913628865
14844126 61 18336547092810669194
14863182 85 17257090892439447649
17809404 112 17980459467994061175
19611394 137 18200296734091556810
20764821 26 16176787831590223579
20775438 99 17547240891877042239
20775530 9 18336543931847049539
229767 44 18266751173085784291
3027735 51 17834099858984889869
463206 1 18336550503315720075
5080951 261 17534323558664524378
5265222 85 17761228617652188012

> <PUBCHEM_SHAPE_MULTIPOLES>
610.4
8.64
7.6
1.6
8.99
1.19
0.29
10.96
-1.02
-6.9
0.02
-0.65
-0.55
-1.15

> <PUBCHEM_SHAPE_SELFOVERLAP>
1341.307

> <PUBCHEM_SHAPE_VOLUME>
322.9

> <PUBCHEM_COORDINATE_TYPE>
2
5
10

$$$$
