11886269
  -OEChem-12032416383D

 58 63  0     1  0  0  0  0  0999 V2000
    6.0558    1.1444   -1.2231 S   0  0  0  0  0  0  0  0  0  0  0  0
    1.8639    2.9547    0.0384 O   0  0  0  0  0  0  0  0  0  0  0  0
    2.7838    0.6885    1.9780 O   0  0  0  0  0  0  0  0  0  0  0  0
   -2.3254    0.7100    0.5327 O   0  0  0  0  0  0  0  0  0  0  0  0
    7.0671    1.6705   -0.3264 O   0  0  0  0  0  0  0  0  0  0  0  0
    6.3081    1.0797   -2.6500 O   0  0  0  0  0  0  0  0  0  0  0  0
    4.5893    1.9611   -0.9620 N   0  0  0  0  0  0  0  0  0  0  0  0
   -0.0912   -0.0848    0.5925 N   0  0  0  0  0  0  0  0  0  0  0  0
    0.5521   -1.2317    0.3542 N   0  0  0  0  0  0  0  0  0  0  0  0
   -1.6369   -1.4792    0.0113 N   0  0  0  0  0  0  0  0  0  0  0  0
   -0.4007   -2.0848   -0.0018 N   0  0  0  0  0  0  0  0  0  0  0  0
   -7.7155   -0.1419   -0.3860 N   0  0  0  0  0  0  0  0  0  0  0  0
   -8.2725    0.0509   -1.5953 N   0  0  0  0  0  0  0  0  0  0  0  0
   -9.8243   -0.6475   -0.0667 N   0  0  0  0  0  0  0  0  0  0  0  0
    2.9909    0.9337    0.5769 C   0  0  1  0  0  0  0  0  0  0  0  0
    1.7086    1.5227    0.0227 C   0  0  1  0  0  0  0  0  0  0  0  0
    4.0211    2.0252    0.3828 C   0  0  2  0  0  0  0  0  0  0  0  0
    0.6383    1.1129    1.0162 C   0  0  2  0  0  0  0  0  0  0  0  0
    3.1750    3.2799    0.5226 C   0  0  0  0  0  0  0  0  0  0  0  0
    1.4193    0.9711    2.3186 C   0  0  0  0  0  0  0  0  0  0  0  0
   -1.4197   -0.2388    0.3836 C   0  0  0  0  0  0  0  0  0  0  0  0
    5.6587   -0.4952   -0.6952 C   0  0  0  0  0  0  0  0  0  0  0  0
    5.8598   -0.8468    0.6283 C   0  0  0  0  0  0  0  0  0  0  0  0
    5.1536   -1.3971   -1.6157 C   0  0  0  0  0  0  0  0  0  0  0  0
   -3.6773    0.4959    0.3021 C   0  0  0  0  0  0  0  0  0  0  0  0
    5.5460   -2.1407    1.0443 C   0  0  0  0  0  0  0  0  0  0  0  0
    4.8396   -2.6910   -1.1997 C   0  0  0  0  0  0  0  0  0  0  0  0
    5.0359   -3.0627    0.1302 C   0  0  0  0  0  0  0  0  0  0  0  0
   -4.4766    0.0714    1.3461 C   0  0  0  0  0  0  0  0  0  0  0  0
   -4.1843    0.7143   -0.9645 C   0  0  0  0  0  0  0  0  0  0  0  0
    4.7007   -4.4463    0.5752 C   0  0  0  0  0  0  0  0  0  0  0  0
   -5.8353   -0.1434    1.1145 C   0  0  0  0  0  0  0  0  0  0  0  0
   -5.5430    0.4996   -1.1960 C   0  0  0  0  0  0  0  0  0  0  0  0
   -6.3684    0.0707   -0.1564 C   0  0  0  0  0  0  0  0  0  0  0  0
   -8.6512   -0.5578    0.5157 C   0  0  0  0  0  0  0  0  0  0  0  0
   -9.5448   -0.2676   -1.3482 C   0  0  0  0  0  0  0  0  0  0  0  0
    3.2100   -0.0257    0.1105 H   0  0  0  0  0  0  0  0  0  0  0  0
    1.5089    1.2292   -1.0130 H   0  0  0  0  0  0  0  0  0  0  0  0
    4.8117    2.0288    1.1391 H   0  0  0  0  0  0  0  0  0  0  0  0
   -0.1202    1.8953    1.1383 H   0  0  0  0  0  0  0  0  0  0  0  0
    3.0726    3.5697    1.5743 H   0  0  0  0  0  0  0  0  0  0  0  0
    3.5634    4.1374   -0.0352 H   0  0  0  0  0  0  0  0  0  0  0  0
    1.4155    1.9138    2.8767 H   0  0  0  0  0  0  0  0  0  0  0  0
    1.0392    0.1821    2.9744 H   0  0  0  0  0  0  0  0  0  0  0  0
    3.9350    2.0663   -1.7473 H   0  0  0  0  0  0  0  0  0  0  0  0
    6.2516   -0.1427    1.3557 H   0  0  0  0  0  0  0  0  0  0  0  0
    4.9849   -1.1248   -2.6529 H   0  0  0  0  0  0  0  0  0  0  0  0
    5.7001   -2.4175    2.0839 H   0  0  0  0  0  0  0  0  0  0  0  0
    4.4388   -3.3992   -1.9201 H   0  0  0  0  0  0  0  0  0  0  0  0
   -4.0629   -0.0946    2.3362 H   0  0  0  0  0  0  0  0  0  0  0  0
   -3.5432    1.0491   -1.7743 H   0  0  0  0  0  0  0  0  0  0  0  0
    5.3492   -4.7647    1.3985 H   0  0  0  0  0  0  0  0  0  0  0  0
    3.6599   -4.4905    0.9110 H   0  0  0  0  0  0  0  0  0  0  0  0
    4.8384   -5.1670   -0.2380 H   0  0  0  0  0  0  0  0  0  0  0  0
   -6.4297   -0.4762    1.9589 H   0  0  0  0  0  0  0  0  0  0  0  0
   -5.9195    0.6780   -2.1998 H   0  0  0  0  0  0  0  0  0  0  0  0
   -8.4676   -0.7834    1.5566 H   0  0  0  0  0  0  0  0  0  0  0  0
  -10.2918   -0.2217   -2.1265 H   0  0  0  0  0  0  0  0  0  0  0  0
  1  5  2  0  0  0  0
  1  6  2  0  0  0  0
  1  7  1  0  0  0  0
  1 22  1  0  0  0  0
  2 16  1  0  0  0  0
  2 19  1  0  0  0  0
  3 15  1  0  0  0  0
  3 20  1  0  0  0  0
  4 21  1  0  0  0  0
  4 25  1  0  0  0  0
  7 17  1  0  0  0  0
  7 45  1  0  0  0  0
  8  9  1  0  0  0  0
  8 18  1  0  0  0  0
  8 21  1  0  0  0  0
  9 11  2  0  0  0  0
 10 11  1  0  0  0  0
 10 21  2  0  0  0  0
 12 13  1  0  0  0  0
 12 34  1  0  0  0  0
 12 35  1  0  0  0  0
 13 36  2  0  0  0  0
 14 35  2  0  0  0  0
 14 36  1  0  0  0  0
 15 16  1  0  0  0  0
 15 17  1  0  0  0  0
 15 37  1  0  0  0  0
 16 18  1  0  0  0  0
 16 38  1  0  0  0  0
 17 19  1  0  0  0  0
 17 39  1  0  0  0  0
 18 20  1  0  0  0  0
 18 40  1  0  0  0  0
 19 41  1  0  0  0  0
 19 42  1  0  0  0  0
 20 43  1  0  0  0  0
 20 44  1  0  0  0  0
 22 23  2  0  0  0  0
 22 24  1  0  0  0  0
 23 26  1  0  0  0  0
 23 46  1  0  0  0  0
 24 27  2  0  0  0  0
 24 47  1  0  0  0  0
 25 29  2  0  0  0  0
 25 30  1  0  0  0  0
 26 28  2  0  0  0  0
 26 48  1  0  0  0  0
 27 28  1  0  0  0  0
 27 49  1  0  0  0  0
 28 31  1  0  0  0  0
 29 32  1  0  0  0  0
 29 50  1  0  0  0  0
 30 33  2  0  0  0  0
 30 51  1  0  0  0  0
 31 52  1  0  0  0  0
 31 53  1  0  0  0  0
 31 54  1  0  0  0  0
 32 34  2  0  0  0  0
 32 55  1  0  0  0  0
 33 34  1  0  0  0  0
 33 56  1  0  0  0  0
 35 57  1  0  0  0  0
 36 58  1  0  0  0  0
M  END
> <PUBCHEM_COMPOUND_CID>
11886269

> <PUBCHEM_CONFORMER_RMSD>
1.2

> <PUBCHEM_CONFORMER_DIVERSEORDER>
1
410
392
94
300
169
52
6
72
325
32
69
363
399
397
27
503
100
327
228
121
335
14
384
7
65
145
369
480
301
26
51
160
2
182
177
107
22
37
263
156
287
306
320
223
530
500
5
474
400
47
86
18
78
122
305
324
200
507
354
260
103
435
258
20
390
102
129
208
222
443
8
203
12
89
213
4
74
227
528
44
120
28
276
467
42
274
304
229
326
125
48
58
422
517
191
85
143
232
205
149
40
216
10
303
70
146
455
24
439
382
104
268
50
496
434
39
3
275
375
80
41
75
115
15
116
46
17
336
431
114
43
167
30
412
16
403
172
226
98
165
221
388
290
128
67
241
62
466
440
394
66
82
13
332
11
112
295

> <PUBCHEM_MMFF94_PARTIAL_CHARGES>
46
1 1.45
10 -0.34
12 0.59
13 -0.71
14 -0.57
15 0.28
16 0.28
17 0.36
18 0.26
19 0.28
2 -0.56
20 0.28
21 0.25
22 -0.01
23 -0.15
24 -0.15
25 0.08
26 -0.15
27 -0.15
28 -0.14
29 -0.15
3 -0.56
30 -0.15
31 0.14
32 -0.15
33 -0.15
34 -0.02
35 0.04
36 0.37
4 -0.15
45 0.42
46 0.15
47 0.15
48 0.15
49 0.15
5 -0.65
50 0.15
51 0.15
55 0.15
56 0.15
57 0.15
58 0.15
6 -0.65
7 -0.91
8 0.31
9 -0.42

> <PUBCHEM_EFFECTIVE_ROTOR_COUNT>
8.2

> <PUBCHEM_PHARMACOPHORE_FEATURES>
14
1 2 acceptor
1 3 acceptor
1 5 acceptor
1 6 acceptor
1 7 donor
3 12 14 35 cation
3 13 14 36 cation
3 8 10 21 cation
5 12 13 14 35 36 rings
5 2 15 16 17 19 rings
5 3 15 16 18 20 rings
5 8 9 10 11 21 rings
6 22 23 24 26 27 28 rings
6 25 29 30 32 33 34 rings

> <PUBCHEM_HEAVY_ATOM_COUNT>
36

> <PUBCHEM_ATOM_DEF_STEREO_COUNT>
4

> <PUBCHEM_ATOM_UDEF_STEREO_COUNT>
0

> <PUBCHEM_BOND_DEF_STEREO_COUNT>
0

> <PUBCHEM_BOND_UDEF_STEREO_COUNT>
0

> <PUBCHEM_ISOTOPIC_ATOM_COUNT>
0

> <PUBCHEM_COMPONENT_COUNT>
1

> <PUBCHEM_CACTVS_TAUTO_COUNT>
1

> <PUBCHEM_CONFORMER_ID>
00B55EBD00000001

> <PUBCHEM_MMFF94_ENERGY>
79.6771

> <PUBCHEM_FEATURE_SELFOVERLAP>
74.502

> <PUBCHEM_SHAPE_FINGERPRINT>
11135609 127 18263083396123635116
11828532 37 18040725796187568471
11991303 11 18336825415973331911
12522641 24 16917055681546142099
13617811 41 18408321094986506088
13947947 73 17749952151026070062
14117953 113 18411149039615124956
14118638 360 18341337717077570552
14347332 77 18200595795767444881
14400156 188 10951510180234592580
14675020 138 13901907799731938645
150020 25 18113333112402404207
15152005 1 17766561253448760710
15183329 4 17988929980650818837
15301273 46 17603585232029351135
15336146 87 14707200007583330279
15461852 350 16081372978058725187
1577012 14 18131361778197463249
15840311 113 13479132419742106396
17134984 74 18412830200956680574
17324776 126 17395285824776077442
1754908 1 12319733692410123511
20771845 140 16343698803318112551
21315759 40 17775566455795259777
21781051 124 18271809081535592515
21781055 127 16558765486295024123
21895439 516 18260551117575727995
23559900 14 18130227185530228880
27425 322 16733556043325171898
34797466 226 17240766193860866861
4173938 306 13901905545623421337
4625314 4 7997970180780545577
504579 68 16588022407971546535
57359948 33 17458067062832062030
59682541 52 18333733507364782312
6086070 43 17488745717548072899
636783 117 18042681698715398186
9831232 110 18261396684497018955

> <PUBCHEM_SHAPE_MULTIPOLES>
675.52
27.01
3.21
1.63
63.18
1.83
-0.2
6.76
-10.08
-9.28
0.32
-0.97
-0.25
-0.6

> <PUBCHEM_SHAPE_SELFOVERLAP>
1479.259

> <PUBCHEM_SHAPE_VOLUME>
368.5

> <PUBCHEM_COORDINATE_TYPE>
2
5
10

$$$$
