38029517
  -OEChem-12032416203D

 65 67  0     1  0  0  0  0  0999 V2000
    2.6929    2.6342   -0.0554 O   0  0  0  0  0  0  0  0  0  0  0  0
   -3.8340   -0.6817    1.3861 O   0  0  0  0  0  0  0  0  0  0  0  0
   -2.9610   -2.9929    0.3165 O   0  0  0  0  0  0  0  0  0  0  0  0
   -3.4589    0.5022   -0.5825 N   0  0  0  0  0  0  0  0  0  0  0  0
    2.8052    0.3471   -0.5787 N   0  0  0  0  0  0  0  0  0  0  0  0
    4.4887   -1.3057   -0.2792 N   0  0  0  0  0  0  0  0  0  0  0  0
   -1.6253    2.4725    0.7589 C   0  0  1  0  0  0  0  0  0  0  0  0
   -2.7772    2.8155   -0.2185 C   0  0  1  0  0  0  0  0  0  0  0  0
   -0.3493    3.2360    0.3727 C   0  0  0  0  0  0  0  0  0  0  0  0
    0.1132    2.9108   -1.0601 C   0  0  2  0  0  0  0  0  0  0  0  0
   -1.9985    2.7870    2.2109 C   0  0  0  0  0  0  0  0  0  0  0  0
   -1.0341    2.9668   -2.0484 C   0  0  0  0  0  0  0  0  0  0  0  0
   -2.3192    2.9366   -1.6530 C   0  0  0  0  0  0  0  0  0  0  0  0
   -3.9055    1.7817   -0.1282 C   0  0  0  0  0  0  0  0  0  0  0  0
    0.8209    1.5525   -1.1173 C   0  0  0  0  0  0  0  0  0  0  0  0
   -1.1735    1.9341    3.1692 C   0  0  0  0  0  0  0  0  0  0  0  0
   -1.8014    4.2715    2.5012 C   0  0  0  0  0  0  0  0  0  0  0  0
   -0.6706    3.1044   -3.5007 C   0  0  0  0  0  0  0  0  0  0  0  0
    2.2114    1.6044   -0.5161 C   0  0  0  0  0  0  0  0  0  0  0  0
   -3.4582   -0.6399    0.2178 C   0  0  0  0  0  0  0  0  0  0  0  0
   -2.9348   -1.8547   -0.5184 C   0  0  0  0  0  0  0  0  0  0  0  0
    4.0942   -0.0218   -0.1256 C   0  0  0  0  0  0  0  0  0  0  0  0
    4.8756    0.9662    0.4514 C   0  0  0  0  0  0  0  0  0  0  0  0
   -2.0087   -3.9586    0.0907 C   0  0  0  0  0  0  0  0  0  0  0  0
    6.1439    0.6138    0.8995 C   0  0  0  0  0  0  0  0  0  0  0  0
    5.7274   -1.6108    0.1682 C   0  0  0  0  0  0  0  0  0  0  0  0
    6.5855   -0.6971    0.7588 C   0  0  0  0  0  0  0  0  0  0  0  0
   -1.5039   -4.1536   -1.1948 C   0  0  0  0  0  0  0  0  0  0  0  0
   -1.5476   -4.7438    1.1474 C   0  0  0  0  0  0  0  0  0  0  0  0
   -0.5383   -5.1339   -1.4239 C   0  0  0  0  0  0  0  0  0  0  0  0
   -0.5819   -5.7239    0.9185 C   0  0  0  0  0  0  0  0  0  0  0  0
   -0.0773   -5.9189   -0.3672 C   0  0  0  0  0  0  0  0  0  0  0  0
   -1.4115    1.3998    0.6876 H   0  0  0  0  0  0  0  0  0  0  0  0
   -3.2064    3.7896    0.0481 H   0  0  0  0  0  0  0  0  0  0  0  0
    0.4570    3.0407    1.0865 H   0  0  0  0  0  0  0  0  0  0  0  0
   -0.5266    4.3192    0.3874 H   0  0  0  0  0  0  0  0  0  0  0  0
    0.8253    3.6974   -1.3468 H   0  0  0  0  0  0  0  0  0  0  0  0
   -3.0494    2.5424    2.3966 H   0  0  0  0  0  0  0  0  0  0  0  0
   -3.1021    3.0274   -2.4034 H   0  0  0  0  0  0  0  0  0  0  0  0
   -4.7375    2.0728   -0.7808 H   0  0  0  0  0  0  0  0  0  0  0  0
   -4.3139    1.7086    0.8834 H   0  0  0  0  0  0  0  0  0  0  0  0
    0.9486    1.2266   -2.1569 H   0  0  0  0  0  0  0  0  0  0  0  0
    0.2434    0.7712   -0.6105 H   0  0  0  0  0  0  0  0  0  0  0  0
   -0.1006    2.1335    3.0862 H   0  0  0  0  0  0  0  0  0  0  0  0
   -1.3357    0.8670    2.9822 H   0  0  0  0  0  0  0  0  0  0  0  0
   -1.4654    2.1334    4.2063 H   0  0  0  0  0  0  0  0  0  0  0  0
   -2.2463    4.5092    3.4755 H   0  0  0  0  0  0  0  0  0  0  0  0
   -2.2989    4.9152    1.7698 H   0  0  0  0  0  0  0  0  0  0  0  0
   -0.7475    4.5587    2.5784 H   0  0  0  0  0  0  0  0  0  0  0  0
   -0.0219    3.9739   -3.6494 H   0  0  0  0  0  0  0  0  0  0  0  0
   -1.5536    3.2437   -4.1336 H   0  0  0  0  0  0  0  0  0  0  0  0
   -0.1479    2.2140   -3.8612 H   0  0  0  0  0  0  0  0  0  0  0  0
   -3.1796    0.4098   -1.5551 H   0  0  0  0  0  0  0  0  0  0  0  0
    2.2757   -0.4163   -0.9931 H   0  0  0  0  0  0  0  0  0  0  0  0
   -3.5681   -2.0295   -1.3956 H   0  0  0  0  0  0  0  0  0  0  0  0
   -1.9149   -1.6003   -0.8368 H   0  0  0  0  0  0  0  0  0  0  0  0
    4.6037    1.9989    0.5944 H   0  0  0  0  0  0  0  0  0  0  0  0
    6.7883    1.3583    1.3577 H   0  0  0  0  0  0  0  0  0  0  0  0
    6.0242   -2.6459    0.0354 H   0  0  0  0  0  0  0  0  0  0  0  0
    7.5702   -0.9943    1.1008 H   0  0  0  0  0  0  0  0  0  0  0  0
   -1.8557   -3.5813   -2.0482 H   0  0  0  0  0  0  0  0  0  0  0  0
   -1.9372   -4.5961    2.1509 H   0  0  0  0  0  0  0  0  0  0  0  0
   -0.1494   -5.2902   -2.4259 H   0  0  0  0  0  0  0  0  0  0  0  0
   -0.2230   -6.3353    1.7412 H   0  0  0  0  0  0  0  0  0  0  0  0
    0.6736   -6.6830   -0.5457 H   0  0  0  0  0  0  0  0  0  0  0  0
  1 19  2  0  0  0  0
  2 20  2  0  0  0  0
  3 21  1  0  0  0  0
  3 24  1  0  0  0  0
  4 14  1  0  0  0  0
  4 20  1  0  0  0  0
  4 53  1  0  0  0  0
  5 19  1  0  0  0  0
  5 22  1  0  0  0  0
  5 54  1  0  0  0  0
  6 22  1  0  0  0  0
  6 26  2  0  0  0  0
  7  8  1  0  0  0  0
  7  9  1  0  0  0  0
  7 11  1  0  0  0  0
  7 33  1  0  0  0  0
  8 13  1  0  0  0  0
  8 14  1  0  0  0  0
  8 34  1  0  0  0  0
  9 10  1  0  0  0  0
  9 35  1  0  0  0  0
  9 36  1  0  0  0  0
 10 12  1  0  0  0  0
 10 15  1  0  0  0  0
 10 37  1  0  0  0  0
 11 16  1  0  0  0  0
 11 17  1  0  0  0  0
 11 38  1  0  0  0  0
 12 13  2  0  0  0  0
 12 18  1  0  0  0  0
 13 39  1  0  0  0  0
 14 40  1  0  0  0  0
 14 41  1  0  0  0  0
 15 19  1  0  0  0  0
 15 42  1  0  0  0  0
 15 43  1  0  0  0  0
 16 44  1  0  0  0  0
 16 45  1  0  0  0  0
 16 46  1  0  0  0  0
 17 47  1  0  0  0  0
 17 48  1  0  0  0  0
 17 49  1  0  0  0  0
 18 50  1  0  0  0  0
 18 51  1  0  0  0  0
 18 52  1  0  0  0  0
 20 21  1  0  0  0  0
 21 55  1  0  0  0  0
 21 56  1  0  0  0  0
 22 23  2  0  0  0  0
 23 25  1  0  0  0  0
 23 57  1  0  0  0  0
 24 28  2  0  0  0  0
 24 29  1  0  0  0  0
 25 27  2  0  0  0  0
 25 58  1  0  0  0  0
 26 27  1  0  0  0  0
 26 59  1  0  0  0  0
 27 60  1  0  0  0  0
 28 30  1  0  0  0  0
 28 61  1  0  0  0  0
 29 31  2  0  0  0  0
 29 62  1  0  0  0  0
 30 32  2  0  0  0  0
 30 63  1  0  0  0  0
 31 32  1  0  0  0  0
 31 64  1  0  0  0  0
 32 65  1  0  0  0  0
M  END
> <PUBCHEM_COMPOUND_CID>
38029517

> <PUBCHEM_CONFORMER_RMSD>
1.2

> <PUBCHEM_CONFORMER_DIVERSEORDER>
1
59
97
68
44
124
71
150
129
20
23
85
67
54
72
118
144
148
128
149
121
106
146
62
48
120
88
45
29
79
3
5
19
102
24
115
60
81
114
14
65
49
145
131
26
25
31
83
130
27
61
122
90
132
40
147
69
87
33
137
28
16
9
55
57
119
84
142
34
92
66
108
74
6
63
133
94
96
109
70
51
126
89
78
17
32
99
98
117
47
64
76
107
2
101
82
91
77
138
151
125
22
136
11
37
141
75
116
134
4
86
110
152
50
135
41
104
10
103
93
111
36
42
112
35
127
100
140
73
52
123
38
39
53
12
43
18
113
7
139
58
15
143
105
21
95
56
30
80
46
13
8

> <PUBCHEM_MMFF94_PARTIAL_CHARGES>
39
1 -0.57
10 0.14
12 -0.28
13 -0.29
14 0.3
15 0.06
18 0.14
19 0.57
2 -0.57
20 0.57
21 0.34
22 0.43
23 -0.15
24 0.08
25 -0.15
26 0.16
27 -0.15
28 -0.15
29 -0.15
3 -0.36
30 -0.15
31 -0.15
32 -0.15
39 0.15
4 -0.73
5 -0.55
53 0.37
54 0.37
57 0.15
58 0.15
59 0.15
6 -0.62
60 0.15
61 0.15
62 0.15
63 0.15
64 0.15
65 0.15
8 0.14

> <PUBCHEM_EFFECTIVE_ROTOR_COUNT>
11.8

> <PUBCHEM_PHARMACOPHORE_FEATURES>
10
1 1 acceptor
1 2 acceptor
1 3 acceptor
1 4 donor
1 5 donor
1 6 acceptor
3 11 16 17 hydrophobe
6 24 28 29 30 31 32 rings
6 6 22 23 25 26 27 rings
6 7 8 9 10 12 13 rings

> <PUBCHEM_HEAVY_ATOM_COUNT>
32

> <PUBCHEM_ATOM_DEF_STEREO_COUNT>
3

> <PUBCHEM_ATOM_UDEF_STEREO_COUNT>
0

> <PUBCHEM_BOND_DEF_STEREO_COUNT>
0

> <PUBCHEM_BOND_UDEF_STEREO_COUNT>
0

> <PUBCHEM_ISOTOPIC_ATOM_COUNT>
0

> <PUBCHEM_COMPONENT_COUNT>
1

> <PUBCHEM_CACTVS_TAUTO_COUNT>
6

> <PUBCHEM_CONFORMER_ID>
024448CD00000001

> <PUBCHEM_MMFF94_ENERGY>
85.9867

> <PUBCHEM_FEATURE_SELFOVERLAP>
50.754

> <PUBCHEM_SHAPE_FINGERPRINT>
10928967 22 16754113843641540815
11014199 57 17975693110731115246
11285246 1 17762291020731177671
12969540 37 17546159066286475069
14114207 22 18120086187923333277
14400156 147 17474971186309751156
14674994 50 18408884061607651849
17627616 140 17831575375391532422
19315092 285 16190871403010739547
19611394 137 18129935793832598360
20764821 26 17761494686365365126
20775438 99 16975289322532139783
20775530 9 17690854770715713975
21049683 118 16623822373170271225
229767 44 18410017645300878851
4616759 239 18200576104401956120
463206 1 18123475148341268251
5080951 261 17970042540382461344

> <PUBCHEM_SHAPE_MULTIPOLES>
625.99
9.95
9.42
2.36
20.71
20.31
-0.05
-7.3
-2.67
-1.91
0.19
-2.5
-2.65
0.28

> <PUBCHEM_SHAPE_SELFOVERLAP>
1308.298

> <PUBCHEM_SHAPE_VOLUME>
351.2

> <PUBCHEM_COORDINATE_TYPE>
2
5
10

$$$$
