45361159
  -OEChem-12032416343D

 69 72  0     1  0  0  0  0  0999 V2000
    7.0624    4.2166    1.0326 F   0  0  0  0  0  0  0  0  0  0  0  0
    1.1612    0.5223   -0.9353 O   0  0  0  0  0  0  0  0  0  0  0  0
   -4.3270   -2.9792    0.0269 O   0  0  0  0  0  0  0  0  0  0  0  0
   -5.2004    4.1017    0.1438 O   0  0  0  0  0  0  0  0  0  0  0  0
   -6.7845    2.8556   -0.9852 O   0  0  0  0  0  0  0  0  0  0  0  0
    0.5430   -3.0260    0.4849 N   0  0  1  0  0  0  0  0  0  0  0  0
    3.3761   -0.7904   -0.1208 N   0  0  1  0  0  0  0  0  0  0  0  0
    0.1413   -1.3286   -1.8130 N   0  0  0  0  0  0  0  0  0  0  0  0
   -4.1316   -0.7917    0.7844 N   0  0  0  0  0  0  0  0  0  0  0  0
    1.9722   -2.7391    0.2306 C   0  0  1  0  0  0  0  0  0  0  0  0
    2.3335   -1.6048   -0.7730 C   0  0  1  0  0  0  0  0  0  0  0  0
    2.7584   -2.3185    1.4864 C   0  0  0  0  0  0  0  0  0  0  0  0
   -0.2084   -3.5158   -0.7044 C   0  0  2  0  0  0  0  0  0  0  0  0
    3.9752   -1.6164    0.9216 C   0  0  0  0  0  0  0  0  0  0  0  0
    0.0899   -2.7628   -2.0157 C   0  0  0  0  0  0  0  0  0  0  0  0
    1.1745   -0.6880   -1.1558 C   0  0  0  0  0  0  0  0  0  0  0  0
   -1.7288   -3.4293   -0.4552 C   0  0  0  0  0  0  0  0  0  0  0  0
    4.3719   -0.2743   -1.0514 C   0  0  0  0  0  0  0  0  0  0  0  0
    0.3895   -3.9663    1.6080 C   0  0  0  0  0  0  0  0  0  0  0  0
   -2.1395   -2.0713    0.0801 C   0  0  0  0  0  0  0  0  0  0  0  0
    5.0910    0.9255   -0.4945 C   0  0  0  0  0  0  0  0  0  0  0  0
   -3.6304   -1.9963    0.2925 C   0  0  0  0  0  0  0  0  0  0  0  0
   -5.3560    1.8254    0.6548 C   0  0  0  0  0  0  0  0  0  0  0  0
   -5.5639   -0.6549    1.0569 C   0  0  0  0  0  0  0  0  0  0  0  0
   -3.3284    0.3936    1.1093 C   0  0  0  0  0  0  0  0  0  0  0  0
   -6.1444    0.5541    0.3282 C   0  0  0  0  0  0  0  0  0  0  0  0
   -3.8629    1.6254    0.3815 C   0  0  0  0  0  0  0  0  0  0  0  0
    4.5909    2.2071   -0.7253 C   0  0  0  0  0  0  0  0  0  0  0  0
    6.2570    0.7559    0.2521 C   0  0  0  0  0  0  0  0  0  0  0  0
   -5.8811    2.9619   -0.1669 C   0  0  0  0  0  0  0  0  0  0  0  0
    5.2568    3.3190   -0.2098 C   0  0  0  0  0  0  0  0  0  0  0  0
    6.9230    1.8677    0.7676 C   0  0  0  0  0  0  0  0  0  0  0  0
    6.4229    3.1492    0.5367 C   0  0  0  0  0  0  0  0  0  0  0  0
   -5.6034    5.2731   -0.5727 C   0  0  0  0  0  0  0  0  0  0  0  0
    2.4471   -3.6609   -0.1400 H   0  0  0  0  0  0  0  0  0  0  0  0
    2.7328   -2.0603   -1.6890 H   0  0  0  0  0  0  0  0  0  0  0  0
    3.0464   -3.1738    2.1064 H   0  0  0  0  0  0  0  0  0  0  0  0
    2.1740   -1.6222    2.1028 H   0  0  0  0  0  0  0  0  0  0  0  0
    0.0408   -4.5701   -0.8890 H   0  0  0  0  0  0  0  0  0  0  0  0
    4.6826   -2.3526    0.5195 H   0  0  0  0  0  0  0  0  0  0  0  0
    4.4733   -1.0250    1.6953 H   0  0  0  0  0  0  0  0  0  0  0  0
   -0.6755   -2.9559   -2.7757 H   0  0  0  0  0  0  0  0  0  0  0  0
    1.0378   -3.1008   -2.4463 H   0  0  0  0  0  0  0  0  0  0  0  0
   -2.2718   -3.6524   -1.3834 H   0  0  0  0  0  0  0  0  0  0  0  0
   -2.0401   -4.2152    0.2440 H   0  0  0  0  0  0  0  0  0  0  0  0
    5.0908   -1.0459   -1.3594 H   0  0  0  0  0  0  0  0  0  0  0  0
    3.8864    0.0450   -1.9843 H   0  0  0  0  0  0  0  0  0  0  0  0
   -0.6241   -0.7615   -2.1642 H   0  0  0  0  0  0  0  0  0  0  0  0
   -0.6599   -4.1613    1.8453 H   0  0  0  0  0  0  0  0  0  0  0  0
    0.8040   -3.5571    2.5347 H   0  0  0  0  0  0  0  0  0  0  0  0
    0.8772   -4.9258    1.4016 H   0  0  0  0  0  0  0  0  0  0  0  0
   -1.9074   -1.2762   -0.6257 H   0  0  0  0  0  0  0  0  0  0  0  0
   -1.6589   -1.8629    1.0411 H   0  0  0  0  0  0  0  0  0  0  0  0
   -5.5157    2.0734    1.7122 H   0  0  0  0  0  0  0  0  0  0  0  0
   -5.6813   -0.5422    2.1412 H   0  0  0  0  0  0  0  0  0  0  0  0
   -6.1056   -1.5592    0.7621 H   0  0  0  0  0  0  0  0  0  0  0  0
   -2.2734    0.2614    0.8642 H   0  0  0  0  0  0  0  0  0  0  0  0
   -3.3904    0.5368    2.1947 H   0  0  0  0  0  0  0  0  0  0  0  0
   -6.1177    0.3603   -0.7527 H   0  0  0  0  0  0  0  0  0  0  0  0
   -7.1993    0.6761    0.6026 H   0  0  0  0  0  0  0  0  0  0  0  0
   -3.2879    2.5038    0.6975 H   0  0  0  0  0  0  0  0  0  0  0  0
   -3.6950    1.5117   -0.6979 H   0  0  0  0  0  0  0  0  0  0  0  0
    3.6824    2.3536   -1.3035 H   0  0  0  0  0  0  0  0  0  0  0  0
    6.6611   -0.2361    0.4352 H   0  0  0  0  0  0  0  0  0  0  0  0
    4.8675    4.3168   -0.3887 H   0  0  0  0  0  0  0  0  0  0  0  0
    7.8314    1.7362    1.3480 H   0  0  0  0  0  0  0  0  0  0  0  0
   -5.4452    5.1333   -1.6463 H   0  0  0  0  0  0  0  0  0  0  0  0
   -6.6523    5.5034   -0.3628 H   0  0  0  0  0  0  0  0  0  0  0  0
   -4.9858    6.1087   -0.2328 H   0  0  0  0  0  0  0  0  0  0  0  0
  1 33  1  0  0  0  0
  2 16  2  0  0  0  0
  3 22  2  0  0  0  0
  4 30  1  0  0  0  0
  4 34  1  0  0  0  0
  5 30  2  0  0  0  0
  6 10  1  0  0  0  0
  6 13  1  0  0  0  0
  6 19  1  0  0  0  0
  7 11  1  0  0  0  0
  7 14  1  0  0  0  0
  7 18  1  0  0  0  0
  8 15  1  0  0  0  0
  8 16  1  0  0  0  0
  8 48  1  0  0  0  0
  9 22  1  0  0  0  0
  9 24  1  0  0  0  0
  9 25  1  0  0  0  0
 10 11  1  0  0  0  0
 10 12  1  0  0  0  0
 10 35  1  0  0  0  0
 11 16  1  0  0  0  0
 11 36  1  0  0  0  0
 12 14  1  0  0  0  0
 12 37  1  0  0  0  0
 12 38  1  0  0  0  0
 13 15  1  0  0  0  0
 13 17  1  0  0  0  0
 13 39  1  0  0  0  0
 14 40  1  0  0  0  0
 14 41  1  0  0  0  0
 15 42  1  0  0  0  0
 15 43  1  0  0  0  0
 17 20  1  0  0  0  0
 17 44  1  0  0  0  0
 17 45  1  0  0  0  0
 18 21  1  0  0  0  0
 18 46  1  0  0  0  0
 18 47  1  0  0  0  0
 19 49  1  0  0  0  0
 19 50  1  0  0  0  0
 19 51  1  0  0  0  0
 20 22  1  0  0  0  0
 20 52  1  0  0  0  0
 20 53  1  0  0  0  0
 21 28  2  0  0  0  0
 21 29  1  0  0  0  0
 23 26  1  0  0  0  0
 23 27  1  0  0  0  0
 23 30  1  0  0  0  0
 23 54  1  0  0  0  0
 24 26  1  0  0  0  0
 24 55  1  0  0  0  0
 24 56  1  0  0  0  0
 25 27  1  0  0  0  0
 25 57  1  0  0  0  0
 25 58  1  0  0  0  0
 26 59  1  0  0  0  0
 26 60  1  0  0  0  0
 27 61  1  0  0  0  0
 27 62  1  0  0  0  0
 28 31  1  0  0  0  0
 28 63  1  0  0  0  0
 29 32  2  0  0  0  0
 29 64  1  0  0  0  0
 31 33  2  0  0  0  0
 31 65  1  0  0  0  0
 32 33  1  0  0  0  0
 32 66  1  0  0  0  0
 34 67  1  0  0  0  0
 34 68  1  0  0  0  0
 34 69  1  0  0  0  0
M  END
> <PUBCHEM_COMPOUND_CID>
45361159

> <PUBCHEM_CONFORMER_RMSD>
1.4

> <PUBCHEM_CONFORMER_DIVERSEORDER>
1
115
114
105
69
63
150
123
125
93
130
149
95
117
68
113
80
109
127
34
26
46
103
16
100
128
53
27
10
2
11
129
4
116
28
133
86
5
94
70
110
78
3
146
83
9
134
30
136
151
96
51
147
106
126
49
48
137
143
118
55
152
92
75
24
142
79
145
45
111
122
65
104
73
22
81
131
135
44
17
101
67
90
62
38
20
13
144
82
57
40
29
88
74
138
8
61
37
99
85
64
98
7
71
119
18
139
21
141
120
132
19
54
50
66
108
23
47
31
84
60
112
77
36
25
39
91
121
14
33
41
59
87
97
15
35
148
89
58
43
140
6
12
72
32
56
102
76
124
42
107
52

> <PUBCHEM_MMFF94_PARTIAL_CHARGES>
35
1 -0.19
10 0.27
11 0.33
13 0.27
14 0.27
15 0.3
16 0.57
18 0.41
19 0.27
2 -0.57
20 0.06
21 -0.14
22 0.57
23 0.06
24 0.3
25 0.3
28 -0.15
29 -0.15
3 -0.57
30 0.66
31 -0.15
32 -0.15
33 0.19
34 0.28
4 -0.43
48 0.37
5 -0.57
6 -0.81
63 0.15
64 0.15
65 0.15
66 0.15
7 -0.81
8 -0.73
9 -0.66

> <PUBCHEM_EFFECTIVE_ROTOR_COUNT>
10.6

> <PUBCHEM_PHARMACOPHORE_FEATURES>
10
1 2 acceptor
1 3 acceptor
1 5 acceptor
1 6 cation
1 7 cation
1 8 donor
5 7 10 11 12 14 rings
6 21 28 29 31 32 33 rings
6 9 23 24 25 26 27 rings
7 6 8 10 11 13 15 16 rings

> <PUBCHEM_HEAVY_ATOM_COUNT>
34

> <PUBCHEM_ATOM_DEF_STEREO_COUNT>
3

> <PUBCHEM_ATOM_UDEF_STEREO_COUNT>
0

> <PUBCHEM_BOND_DEF_STEREO_COUNT>
0

> <PUBCHEM_BOND_UDEF_STEREO_COUNT>
0

> <PUBCHEM_ISOTOPIC_ATOM_COUNT>
0

> <PUBCHEM_COMPONENT_COUNT>
1

> <PUBCHEM_CACTVS_TAUTO_COUNT>
3

> <PUBCHEM_CONFORMER_ID>
02B4280700000001

> <PUBCHEM_MMFF94_ENERGY>
84.2119

> <PUBCHEM_FEATURE_SELFOVERLAP>
50.783

> <PUBCHEM_SHAPE_FINGERPRINT>
10675989 125 17834119650162749137
10838868 217 18042396933339779109
10864689 126 18339370656442010892
11399510 152 17605015653401701283
11828042 107 18122601895713192361
13782708 43 11674876731672048898
14040221 137 18042101263453723268
14202776 33 17916018156325839543
14251764 30 9367334934360266125
14251764 75 18270130015415273721
14790565 3 18338239383388428518
15510800 12 11963657911741350162
19053607 189 18268978805118722689
20511986 3 18114458981600942899
20715895 44 17687465668658530609
20775438 99 11743249841208598998
21223535 225 18342178912555611132
23191077 185 18342449374503958246
23522609 53 17387706127337738228
23559900 14 17764883398999465191
23569914 2 17200193150293384304
2748736 6 18411412908313158841
2838139 119 18413110558545945574
3388396 114 16759151801645954212
3418910 222 17617670194528940038
3918712 181 18337948992513610229
4112364 45 18188204295790809155
437795 171 18116991087976638341
437795 96 18260827051680799237
44249763 50 17201633596625134026
44802255 64 17201089338374939878
5219985 13 18343024414721362878
636775 72 17981604085817156216
6376802 137 17031636015931947930
7808743 9 18270964651651292114

> <PUBCHEM_SHAPE_MULTIPOLES>
649.03
19.21
6.73
1.35
0.45
4.34
-0.19
29.25
3.43
-3.25
0.11
0.41
-0.77
1.42

> <PUBCHEM_SHAPE_SELFOVERLAP>
1363.124

> <PUBCHEM_SHAPE_VOLUME>
366.1

> <PUBCHEM_COORDINATE_TYPE>
2
5
10

$$$$
