25389390
  -OEChem-12032416353D

 70 74  0     1  0  0  0  0  0999 V2000
   -5.8442   -0.1694    1.2876 S   0  0  0  0  0  0  0  0  0  0  0  0
   -6.8197    0.7544    0.7407 O   0  0  0  0  0  0  0  0  0  0  0  0
   -6.0366   -0.7355    2.6090 O   0  0  0  0  0  0  0  0  0  0  0  0
   -2.3775    2.8694   -1.0694 N   0  0  2  0  0  0  0  0  0  0  0  0
    1.5996    0.2822   -0.1285 N   0  0  0  0  0  0  0  0  0  0  0  0
   -4.2949    0.5334    1.2024 N   0  0  0  0  0  0  0  0  0  0  0  0
   -0.3433    2.4054    0.4841 C   0  0  2  0  0  0  0  0  0  0  0  0
   -0.0954    1.8402   -0.9331 C   0  0  2  0  0  0  0  0  0  0  0  0
   -2.8340    2.2127    0.1854 C   0  0  2  0  0  0  0  0  0  0  0  0
   -1.6323    1.7910    1.0600 C   0  0  0  0  0  0  0  0  0  0  0  0
   -1.3854    2.0149   -1.7656 C   0  0  0  0  0  0  0  0  0  0  0  0
   -0.5901    3.9180    0.3256 C   0  0  0  0  0  0  0  0  0  0  0  0
   -1.7131    4.1435   -0.7022 C   0  0  0  0  0  0  0  0  0  0  0  0
    0.3794    0.3890   -0.9282 C   0  0  0  0  0  0  0  0  0  0  0  0
   -3.7823    1.0413   -0.0806 C   0  0  0  0  0  0  0  0  0  0  0  0
    2.7665    0.7101   -0.9114 C   0  0  0  0  0  0  0  0  0  0  0  0
    1.7692   -1.0894    0.3698 C   0  0  0  0  0  0  0  0  0  0  0  0
    4.2705   -0.7448    0.5086 C   0  0  0  0  0  0  0  0  0  0  0  0
    4.0447    0.6552   -0.0721 C   0  0  0  0  0  0  0  0  0  0  0  0
    3.0130   -1.2055    1.2534 C   0  0  0  0  0  0  0  0  0  0  0  0
    5.4905   -0.7682    1.4253 C   0  0  0  0  0  0  0  0  0  0  0  0
    6.7731   -0.8270    0.6412 C   0  0  0  0  0  0  0  0  0  0  0  0
   -5.6871   -1.5244    0.1633 C   0  0  0  0  0  0  0  0  0  0  0  0
    7.3265   -2.0615    0.3014 C   0  0  0  0  0  0  0  0  0  0  0  0
    7.4087    0.3526    0.2540 C   0  0  0  0  0  0  0  0  0  0  0  0
   -5.2541   -2.7672    0.6255 C   0  0  0  0  0  0  0  0  0  0  0  0
   -5.9927   -1.3500   -1.1863 C   0  0  0  0  0  0  0  0  0  0  0  0
    8.5157   -2.1163   -0.4257 C   0  0  0  0  0  0  0  0  0  0  0  0
    8.5978    0.2978   -0.4730 C   0  0  0  0  0  0  0  0  0  0  0  0
    9.1514   -0.9366   -0.8128 C   0  0  0  0  0  0  0  0  0  0  0  0
   -5.1265   -3.8357   -0.2622 C   0  0  0  0  0  0  0  0  0  0  0  0
   -5.8652   -2.4184   -2.0740 C   0  0  0  0  0  0  0  0  0  0  0  0
   -5.4320   -3.6612   -1.6119 C   0  0  0  0  0  0  0  0  0  0  0  0
    0.5010    2.2407    1.1606 H   0  0  0  0  0  0  0  0  0  0  0  0
    0.6708    2.4636   -1.4124 H   0  0  0  0  0  0  0  0  0  0  0  0
   -3.4182    2.9532    0.7521 H   0  0  0  0  0  0  0  0  0  0  0  0
   -1.5273    0.7034    1.1277 H   0  0  0  0  0  0  0  0  0  0  0  0
   -1.7840    2.1561    2.0838 H   0  0  0  0  0  0  0  0  0  0  0  0
   -1.1329    2.4763   -2.7297 H   0  0  0  0  0  0  0  0  0  0  0  0
   -1.8329    1.0506   -2.0309 H   0  0  0  0  0  0  0  0  0  0  0  0
    0.3254    4.4218   -0.0061 H   0  0  0  0  0  0  0  0  0  0  0  0
   -0.8700    4.3552    1.2917 H   0  0  0  0  0  0  0  0  0  0  0  0
   -2.4516    4.8477   -0.2994 H   0  0  0  0  0  0  0  0  0  0  0  0
   -1.3107    4.6251   -1.6025 H   0  0  0  0  0  0  0  0  0  0  0  0
    0.5360    0.0271   -1.9532 H   0  0  0  0  0  0  0  0  0  0  0  0
   -0.4131   -0.2427   -0.5087 H   0  0  0  0  0  0  0  0  0  0  0  0
   -3.2729    0.2188   -0.5927 H   0  0  0  0  0  0  0  0  0  0  0  0
   -4.6104    1.3833   -0.7103 H   0  0  0  0  0  0  0  0  0  0  0  0
    2.6540    1.7426   -1.2576 H   0  0  0  0  0  0  0  0  0  0  0  0
    2.8909    0.0821   -1.8038 H   0  0  0  0  0  0  0  0  0  0  0  0
    1.8378   -1.8019   -0.4629 H   0  0  0  0  0  0  0  0  0  0  0  0
    0.9004   -1.3765    0.9749 H   0  0  0  0  0  0  0  0  0  0  0  0
    4.4268   -1.4417   -0.3274 H   0  0  0  0  0  0  0  0  0  0  0  0
    4.8820    0.9504   -0.7127 H   0  0  0  0  0  0  0  0  0  0  0  0
    3.9799    1.3958    0.7359 H   0  0  0  0  0  0  0  0  0  0  0  0
    2.8733   -0.6027    2.1606 H   0  0  0  0  0  0  0  0  0  0  0  0
    3.1291   -2.2465    1.5778 H   0  0  0  0  0  0  0  0  0  0  0  0
   -3.5904    0.2059    1.8744 H   0  0  0  0  0  0  0  0  0  0  0  0
    5.4516   -1.6467    2.0835 H   0  0  0  0  0  0  0  0  0  0  0  0
    5.4987    0.0974    2.1003 H   0  0  0  0  0  0  0  0  0  0  0  0
    6.8398   -2.9878    0.5950 H   0  0  0  0  0  0  0  0  0  0  0  0
    6.9945    1.3216    0.5192 H   0  0  0  0  0  0  0  0  0  0  0  0
   -5.0030   -2.9235    1.6707 H   0  0  0  0  0  0  0  0  0  0  0  0
   -6.3283   -0.3902   -1.5686 H   0  0  0  0  0  0  0  0  0  0  0  0
    8.9465   -3.0774   -0.6907 H   0  0  0  0  0  0  0  0  0  0  0  0
    9.0939    1.2163   -0.7728 H   0  0  0  0  0  0  0  0  0  0  0  0
   10.0775   -0.9792   -1.3786 H   0  0  0  0  0  0  0  0  0  0  0  0
   -4.7874   -4.8029    0.0970 H   0  0  0  0  0  0  0  0  0  0  0  0
   -6.1020   -2.2825   -3.1252 H   0  0  0  0  0  0  0  0  0  0  0  0
   -5.3319   -4.4928   -2.3032 H   0  0  0  0  0  0  0  0  0  0  0  0
  1  2  2  0  0  0  0
  1  3  2  0  0  0  0
  1  6  1  0  0  0  0
  1 23  1  0  0  0  0
  4  9  1  0  0  0  0
  4 11  1  0  0  0  0
  4 13  1  0  0  0  0
  5 14  1  0  0  0  0
  5 16  1  0  0  0  0
  5 17  1  0  0  0  0
  6 15  1  0  0  0  0
  6 58  1  0  0  0  0
  7  8  1  0  0  0  0
  7 10  1  0  0  0  0
  7 12  1  0  0  0  0
  7 34  1  0  0  0  0
  8 11  1  0  0  0  0
  8 14  1  0  0  0  0
  8 35  1  0  0  0  0
  9 10  1  0  0  0  0
  9 15  1  0  0  0  0
  9 36  1  0  0  0  0
 10 37  1  0  0  0  0
 10 38  1  0  0  0  0
 11 39  1  0  0  0  0
 11 40  1  0  0  0  0
 12 13  1  0  0  0  0
 12 41  1  0  0  0  0
 12 42  1  0  0  0  0
 13 43  1  0  0  0  0
 13 44  1  0  0  0  0
 14 45  1  0  0  0  0
 14 46  1  0  0  0  0
 15 47  1  0  0  0  0
 15 48  1  0  0  0  0
 16 19  1  0  0  0  0
 16 49  1  0  0  0  0
 16 50  1  0  0  0  0
 17 20  1  0  0  0  0
 17 51  1  0  0  0  0
 17 52  1  0  0  0  0
 18 19  1  0  0  0  0
 18 20  1  0  0  0  0
 18 21  1  0  0  0  0
 18 53  1  0  0  0  0
 19 54  1  0  0  0  0
 19 55  1  0  0  0  0
 20 56  1  0  0  0  0
 20 57  1  0  0  0  0
 21 22  1  0  0  0  0
 21 59  1  0  0  0  0
 21 60  1  0  0  0  0
 22 24  2  0  0  0  0
 22 25  1  0  0  0  0
 23 26  2  0  0  0  0
 23 27  1  0  0  0  0
 24 28  1  0  0  0  0
 24 61  1  0  0  0  0
 25 29  2  0  0  0  0
 25 62  1  0  0  0  0
 26 31  1  0  0  0  0
 26 63  1  0  0  0  0
 27 32  2  0  0  0  0
 27 64  1  0  0  0  0
 28 30  2  0  0  0  0
 28 65  1  0  0  0  0
 29 30  1  0  0  0  0
 29 66  1  0  0  0  0
 30 67  1  0  0  0  0
 31 33  2  0  0  0  0
 31 68  1  0  0  0  0
 32 33  1  0  0  0  0
 32 69  1  0  0  0  0
 33 70  1  0  0  0  0
M  END
> <PUBCHEM_COMPOUND_CID>
25389390

> <PUBCHEM_CONFORMER_RMSD>
1.4

> <PUBCHEM_CONFORMER_DIVERSEORDER>
1
64
91
104
59
36
118
26
120
66
81
43
124
45
48
121
33
37
79
23
19
115
101
34
70
39
94
52
110
111
106
61
95
84
82
55
87
16
109
71
15
63
68
9
27
103
56
113
4
25
46
108
114
3
22
24
57
105
67
13
50
125
77
29
20
51
86
107
126
88
54
32
17
69
49
117
7
83
38
10
76
116
90
119
98
21
74
53
12
5
73
31
78
100
122
41
123
40
35
11
127
60
85
99
28
112
58
80
102
89
62
44
75
92
93
14
42
8
47
18
30
72
6
2
96
65
97

> <PUBCHEM_MMFF94_PARTIAL_CHARGES>
37
1 1.45
11 0.27
13 0.27
14 0.27
15 0.36
16 0.27
17 0.27
2 -0.65
21 0.14
22 -0.14
23 -0.01
24 -0.15
25 -0.15
26 -0.15
27 -0.15
28 -0.15
29 -0.15
3 -0.65
30 -0.15
31 -0.15
32 -0.15
33 -0.15
4 -0.81
5 -0.81
58 0.42
6 -0.91
61 0.15
62 0.15
63 0.15
64 0.15
65 0.15
66 0.15
67 0.15
68 0.15
69 0.15
70 0.15
9 0.27

> <PUBCHEM_EFFECTIVE_ROTOR_COUNT>
10.4

> <PUBCHEM_PHARMACOPHORE_FEATURES>
9
1 2 acceptor
1 3 acceptor
1 4 cation
1 5 cation
1 6 donor
6 22 24 25 28 29 30 rings
6 23 26 27 31 32 33 rings
6 5 16 17 18 19 20 rings
8 4 7 8 9 10 11 12 13 rings

> <PUBCHEM_HEAVY_ATOM_COUNT>
33

> <PUBCHEM_ATOM_DEF_STEREO_COUNT>
3

> <PUBCHEM_ATOM_UDEF_STEREO_COUNT>
0

> <PUBCHEM_BOND_DEF_STEREO_COUNT>
0

> <PUBCHEM_BOND_UDEF_STEREO_COUNT>
0

> <PUBCHEM_ISOTOPIC_ATOM_COUNT>
0

> <PUBCHEM_COMPONENT_COUNT>
1

> <PUBCHEM_CACTVS_TAUTO_COUNT>
1

> <PUBCHEM_CONFORMER_ID>
0183694E00000001

> <PUBCHEM_MMFF94_ENERGY>
66.648

> <PUBCHEM_FEATURE_SELFOVERLAP>
45.69

> <PUBCHEM_SHAPE_FINGERPRINT>
10055352 69 18200029698721496784
10577160 103 14490480815546042806
10815517 723 18411696616763112694
11135609 201 9150901607262519189
11181472 205 10159694725770823498
11497681 19 18335421296690092204
11621639 183 15481571714856977939
11828042 279 17678165204541931364
12106331 60 18040434386529639627
12144600 37 18268716005377323742
12218070 45 17917711357293864263
12373685 5 15647875051824000872
12522641 126 18116997887342228676
12559416 138 18335697282620614083
1361 4 18341048502823253326
13631057 29 18334572417425284256
13782708 43 18272927233152043642
14068700 675 18334298673237180436
1454969 45 18113338600916953674
15131766 46 16053759971418377416
15392192 29 18334584551203806931
15728490 51 18407760344261444954
16989713 51 18411975849660639990
16992727 255 10809334525541163878
16993089 31 17274836714428650062
17324776 126 17270857774773955503
18608769 82 18341331120139211194
19611394 137 18202560666201584568
208703 8 18336542845806256403
21298829 104 8862949381265774764
21424621 283 8790892886354352870
21796203 349 18119276019425494537
2747138 104 18343857810840110792
4173938 306 13767929053082904660
45377200 153 18341620283445706454
4625314 4 18412544284730753700
4760202 70 18266457805587412772
49967989 163 18040722488873756498
54039377 194 18186527626906514139
563151 74 14117527561993560598
5776283 40 10881404240103324023
6201460 15 17623840632542227231
636775 72 8646475320208367846
6673363 416 18411987971272431980
9896288 288 17988364745754008873
9953998 17 17989491805765797147

> <PUBCHEM_SHAPE_MULTIPOLES>
656.29
25.86
4.48
1.59
43.34
1.17
0.08
-23.55
0.12
-7.76
-1.38
-2.39
-0.39
-1.65

> <PUBCHEM_SHAPE_SELFOVERLAP>
1380.561

> <PUBCHEM_SHAPE_VOLUME>
370.2

> <PUBCHEM_COORDINATE_TYPE>
2
5
10

$$$$
