11885119
  -OEChem-12032416213D

 54 58  0     1  0  0  0  0  0999 V2000
    1.6236    5.1539   -1.2080 F   0  0  0  0  0  0  0  0  0  0  0  0
   -1.3072   -2.2296    1.3054 O   0  0  0  0  0  0  0  0  0  0  0  0
    2.8794    0.3870    2.6046 O   0  0  0  0  0  0  0  0  0  0  0  0
   -6.8256    0.6064    0.4510 O   0  0  0  0  0  0  0  0  0  0  0  0
    3.3682   -0.7013    0.5920 N   0  0  0  0  0  0  0  0  0  0  0  0
    0.5884   -2.0591   -0.0426 N   0  0  0  0  0  0  0  0  0  0  0  0
    2.8295   -3.1285    0.5900 C   0  0  1  0  0  0  0  0  0  0  0  0
    2.6342   -1.8309   -1.4934 C   0  0  2  0  0  0  0  0  0  0  0  0
    3.0719   -3.1756   -0.9148 C   0  0  0  0  0  0  0  0  0  0  0  0
    3.6441   -1.9887    1.2289 C   0  0  0  0  0  0  0  0  0  0  0  0
    1.3241   -2.9746    0.8422 C   0  0  0  0  0  0  0  0  0  0  0  0
    3.4835   -0.7011   -0.8757 C   0  0  0  0  0  0  0  0  0  0  0  0
    1.1659   -1.5696   -1.2169 C   0  0  0  0  0  0  0  0  0  0  0  0
    0.4366   -0.8356   -2.0725 C   0  0  0  0  0  0  0  0  0  0  0  0
   -0.7515   -1.7894    0.2975 C   0  0  0  0  0  0  0  0  0  0  0  0
    2.9764    0.3849    1.3784 C   0  0  0  0  0  0  0  0  0  0  0  0
   -1.5290   -0.9246   -0.6576 C   0  0  0  0  0  0  0  0  0  0  0  0
   -0.9296   -0.5061   -1.7821 C   0  0  0  0  0  0  0  0  0  0  0  0
    2.6217    1.6355    0.6990 C   0  0  0  0  0  0  0  0  0  0  0  0
   -2.9158   -0.5243   -0.3669 C   0  0  0  0  0  0  0  0  0  0  0  0
    1.3045    1.8622    0.3082 C   0  0  0  0  0  0  0  0  0  0  0  0
    3.6036    2.5912    0.4492 C   0  0  0  0  0  0  0  0  0  0  0  0
   -3.9779   -1.3136   -0.8090 C   0  0  0  0  0  0  0  0  0  0  0  0
   -3.1688    0.6456    0.3504 C   0  0  0  0  0  0  0  0  0  0  0  0
    0.9668    3.0521   -0.3366 C   0  0  0  0  0  0  0  0  0  0  0  0
    3.2658    3.7811   -0.1955 C   0  0  0  0  0  0  0  0  0  0  0  0
   -5.2916   -0.9336   -0.5340 C   0  0  0  0  0  0  0  0  0  0  0  0
   -4.4825    1.0254    0.6253 C   0  0  0  0  0  0  0  0  0  0  0  0
    1.9475    4.0116   -0.5885 C   0  0  0  0  0  0  0  0  0  0  0  0
   -5.5439    0.2359    0.1832 C   0  0  0  0  0  0  0  0  0  0  0  0
   -7.0122    1.8135    1.1888 C   0  0  0  0  0  0  0  0  0  0  0  0
    3.1617   -4.0694    1.0457 H   0  0  0  0  0  0  0  0  0  0  0  0
    2.8126   -1.8483   -2.5763 H   0  0  0  0  0  0  0  0  0  0  0  0
    2.5077   -3.9983   -1.3717 H   0  0  0  0  0  0  0  0  0  0  0  0
    4.1328   -3.3568   -1.1262 H   0  0  0  0  0  0  0  0  0  0  0  0
    3.4464   -1.9399    2.3049 H   0  0  0  0  0  0  0  0  0  0  0  0
    4.7168   -2.1816    1.1059 H   0  0  0  0  0  0  0  0  0  0  0  0
    0.8451   -3.9551    0.7152 H   0  0  0  0  0  0  0  0  0  0  0  0
    1.1380   -2.6808    1.8830 H   0  0  0  0  0  0  0  0  0  0  0  0
    4.5437   -0.8576   -1.1100 H   0  0  0  0  0  0  0  0  0  0  0  0
    3.2044    0.2643   -1.3050 H   0  0  0  0  0  0  0  0  0  0  0  0
    0.8658   -0.4311   -2.9832 H   0  0  0  0  0  0  0  0  0  0  0  0
   -1.4449    0.1232   -2.5018 H   0  0  0  0  0  0  0  0  0  0  0  0
    0.5307    1.1302    0.5167 H   0  0  0  0  0  0  0  0  0  0  0  0
    4.6336    2.4208    0.7511 H   0  0  0  0  0  0  0  0  0  0  0  0
   -3.7975   -2.2284   -1.3682 H   0  0  0  0  0  0  0  0  0  0  0  0
   -2.3511    1.2705    0.7018 H   0  0  0  0  0  0  0  0  0  0  0  0
   -0.0604    3.2326   -0.6393 H   0  0  0  0  0  0  0  0  0  0  0  0
    4.0291    4.5282   -0.3919 H   0  0  0  0  0  0  0  0  0  0  0  0
   -6.1144   -1.5528   -0.8808 H   0  0  0  0  0  0  0  0  0  0  0  0
   -4.6069    1.9450    1.1869 H   0  0  0  0  0  0  0  0  0  0  0  0
   -6.6363    2.6831    0.6391 H   0  0  0  0  0  0  0  0  0  0  0  0
   -6.5837    1.7408    2.1941 H   0  0  0  0  0  0  0  0  0  0  0  0
   -8.0912    1.9543    1.3107 H   0  0  0  0  0  0  0  0  0  0  0  0
  1 29  1  0  0  0  0
  2 15  2  0  0  0  0
  3 16  2  0  0  0  0
  4 30  1  0  0  0  0
  4 31  1  0  0  0  0
  5 10  1  0  0  0  0
  5 12  1  0  0  0  0
  5 16  1  0  0  0  0
  6 11  1  0  0  0  0
  6 13  1  0  0  0  0
  6 15  1  0  0  0  0
  7  9  1  0  0  0  0
  7 10  1  0  0  0  0
  7 11  1  0  0  0  0
  7 32  1  0  0  0  0
  8  9  1  0  0  0  0
  8 12  1  0  0  0  0
  8 13  1  0  0  0  0
  8 33  1  0  0  0  0
  9 34  1  0  0  0  0
  9 35  1  0  0  0  0
 10 36  1  0  0  0  0
 10 37  1  0  0  0  0
 11 38  1  0  0  0  0
 11 39  1  0  0  0  0
 12 40  1  0  0  0  0
 12 41  1  0  0  0  0
 13 14  2  0  0  0  0
 14 18  1  0  0  0  0
 14 42  1  0  0  0  0
 15 17  1  0  0  0  0
 16 19  1  0  0  0  0
 17 18  2  0  0  0  0
 17 20  1  0  0  0  0
 18 43  1  0  0  0  0
 19 21  2  0  0  0  0
 19 22  1  0  0  0  0
 20 23  2  0  0  0  0
 20 24  1  0  0  0  0
 21 25  1  0  0  0  0
 21 44  1  0  0  0  0
 22 26  2  0  0  0  0
 22 45  1  0  0  0  0
 23 27  1  0  0  0  0
 23 46  1  0  0  0  0
 24 28  2  0  0  0  0
 24 47  1  0  0  0  0
 25 29  2  0  0  0  0
 25 48  1  0  0  0  0
 26 29  1  0  0  0  0
 26 49  1  0  0  0  0
 27 30  2  0  0  0  0
 27 50  1  0  0  0  0
 28 30  1  0  0  0  0
 28 51  1  0  0  0  0
 31 52  1  0  0  0  0
 31 53  1  0  0  0  0
 31 54  1  0  0  0  0
M  END
> <PUBCHEM_COMPOUND_CID>
11885119

> <PUBCHEM_CONFORMER_RMSD>
0.8

> <PUBCHEM_CONFORMER_DIVERSEORDER>
1
6
7
4
5
2
3

> <PUBCHEM_MMFF94_PARTIAL_CHARGES>
39
1 -0.19
10 0.3
11 0.3
12 0.3
13 -0.03
14 -0.15
15 0.62
16 0.54
17 -0.01
18 -0.15
19 0.09
2 -0.57
20 0.03
21 -0.15
22 -0.15
23 -0.15
24 -0.15
25 -0.15
26 -0.15
27 -0.15
28 -0.15
29 0.19
3 -0.57
30 0.08
31 0.28
4 -0.36
42 0.15
43 0.15
44 0.15
45 0.15
46 0.15
47 0.15
48 0.15
49 0.15
5 -0.66
50 0.15
51 0.15
6 -0.47
8 0.14

> <PUBCHEM_EFFECTIVE_ROTOR_COUNT>
5

> <PUBCHEM_PHARMACOPHORE_FEATURES>
8
1 2 acceptor
1 3 acceptor
1 4 acceptor
6 19 21 22 25 26 29 rings
6 20 23 24 27 28 30 rings
6 5 7 8 9 10 12 rings
6 6 13 14 15 17 18 rings
6 6 7 8 9 11 13 rings

> <PUBCHEM_HEAVY_ATOM_COUNT>
31

> <PUBCHEM_ATOM_DEF_STEREO_COUNT>
2

> <PUBCHEM_ATOM_UDEF_STEREO_COUNT>
0

> <PUBCHEM_BOND_DEF_STEREO_COUNT>
0

> <PUBCHEM_BOND_UDEF_STEREO_COUNT>
0

> <PUBCHEM_ISOTOPIC_ATOM_COUNT>
0

> <PUBCHEM_COMPONENT_COUNT>
1

> <PUBCHEM_CACTVS_TAUTO_COUNT>
1

> <PUBCHEM_CONFORMER_ID>
00B55A3F00000001

> <PUBCHEM_MMFF94_ENERGY>
98.6974

> <PUBCHEM_FEATURE_SELFOVERLAP>
42.192

> <PUBCHEM_SHAPE_FINGERPRINT>
10165383 225 18041007258580337582
10483366 6 18338815489496779492
10937287 8 17833548281704279140
11421498 54 17898293788800347090
11578080 2 18191044463232824355
12156800 1 14618301099680277160
12422481 6 17841113751016883642
12633257 1 17970042604421777714
12788726 201 17831313700752067862
133893 2 18056788535387070074
13965767 371 17630014175688493922
14251764 38 18266179611923251331
14849402 71 18408327700202485004
15420108 30 17986656246930023486
15475509 84 17469595209704140155
17818456 19 17703514281689814817
18785283 64 18335419118408267768
20739085 24 18410282636678384536
21033648 29 17458335322220737415
21475661 188 18338519741193353887
21860390 5 18342175570343288150
23559900 14 18201445752921396511
3411729 13 18342178898842839045
345986 75 17607516934601283586
397830 11 18189068624496092323
4058900 60 18118129301348268828
4409770 3 17043175961694969694
44280116 191 12672209421815435715
474 4 18339635758575744175
5081480 168 18130229255134409540
5104073 3 18338529594993205947
513532 50 17060341833707302036
5283268 108 18339640019214969776
54076057 255 18263666011929672132
9896288 288 17470454392337151440
9981440 41 18050850223736283267

> <PUBCHEM_SHAPE_MULTIPOLES>
603.12
11.38
5
1.6
25.91
5.25
-0.05
3.02
-3.33
-6.82
0.82
-0.9
-0.32
-1.02

> <PUBCHEM_SHAPE_SELFOVERLAP>
1335.066

> <PUBCHEM_SHAPE_VOLUME>
323

> <PUBCHEM_COORDINATE_TYPE>
2
5
10

$$$$
