25338953
  -OEChem-12032416373D

 47 50  0     1  0  0  0  0  0999 V2000
    1.5586    1.2160    1.5018 S   0  0  0  0  0  0  0  0  0  0  0  0
    2.5989    3.1848   -0.4013 S   0  0  0  0  0  0  0  0  0  0  0  0
    2.8124    1.4416    2.1875 O   0  0  0  0  0  0  0  0  0  0  0  0
    0.3482    0.9201    2.2375 O   0  0  0  0  0  0  0  0  0  0  0  0
    3.9921   -0.8420   -1.0338 O   0  0  0  0  0  0  0  0  0  0  0  0
    3.0268   -2.9345   -0.8710 O   0  0  0  0  0  0  0  0  0  0  0  0
    1.7872    0.0124    0.2997 N   0  0  1  0  0  0  0  0  0  0  0  0
   -1.3751   -1.8208   -0.5226 N   0  0  0  0  0  0  0  0  0  0  0  0
   -0.6412   -3.3066    0.9762 N   0  0  0  0  0  0  0  0  0  0  0  0
    2.5274   -1.2254    0.7469 C   0  0  1  0  0  0  0  0  0  0  0  0
    1.6106   -2.2475    1.4489 C   0  0  0  0  0  0  0  0  0  0  0  0
    0.6110   -0.2254   -0.6229 C   0  0  0  0  0  0  0  0  0  0  0  0
   -0.1341   -1.4048   -0.1445 C   0  0  0  0  0  0  0  0  0  0  0  0
    0.2967   -2.3336    0.7712 C   0  0  0  0  0  0  0  0  0  0  0  0
    3.1929   -1.7910   -0.4684 C   0  0  0  0  0  0  0  0  0  0  0  0
   -2.2533   -1.1926   -1.4795 C   0  0  0  0  0  0  0  0  0  0  0  0
   -1.6367   -2.9702    0.1803 C   0  0  0  0  0  0  0  0  0  0  0  0
    1.2426    2.6181    0.4770 C   0  0  0  0  0  0  0  0  0  0  0  0
   -3.3703   -0.4064   -0.8393 C   0  0  0  0  0  0  0  0  0  0  0  0
    0.1149    3.3691    0.2280 C   0  0  0  0  0  0  0  0  0  0  0  0
   -4.4823   -1.0703   -0.3215 C   0  0  0  0  0  0  0  0  0  0  0  0
   -3.2911    0.9841   -0.7652 C   0  0  0  0  0  0  0  0  0  0  0  0
    0.3677    4.4235   -0.6962 C   0  0  0  0  0  0  0  0  0  0  0  0
    1.6788    4.4384   -1.1182 C   0  0  0  0  0  0  0  0  0  0  0  0
    4.6931   -1.2513   -2.2125 C   0  0  0  0  0  0  0  0  0  0  0  0
   -5.5154   -0.3436    0.2705 C   0  0  0  0  0  0  0  0  0  0  0  0
   -4.3241    1.7109   -0.1733 C   0  0  0  0  0  0  0  0  0  0  0  0
   -5.4363    1.0470    0.3446 C   0  0  0  0  0  0  0  0  0  0  0  0
    3.3407   -0.9614    1.4338 H   0  0  0  0  0  0  0  0  0  0  0  0
    1.4355   -1.9186    2.4808 H   0  0  0  0  0  0  0  0  0  0  0  0
    2.0797   -3.2361    1.5012 H   0  0  0  0  0  0  0  0  0  0  0  0
    1.0000   -0.3966   -1.6328 H   0  0  0  0  0  0  0  0  0  0  0  0
   -0.0401    0.6484   -0.6763 H   0  0  0  0  0  0  0  0  0  0  0  0
   -2.6703   -1.9847   -2.1144 H   0  0  0  0  0  0  0  0  0  0  0  0
   -1.6556   -0.5582   -2.1439 H   0  0  0  0  0  0  0  0  0  0  0  0
   -2.5589   -3.5236    0.0676 H   0  0  0  0  0  0  0  0  0  0  0  0
   -0.8468    3.1733    0.6845 H   0  0  0  0  0  0  0  0  0  0  0  0
   -4.5648   -2.1519   -0.3804 H   0  0  0  0  0  0  0  0  0  0  0  0
   -2.4311    1.5142   -1.1651 H   0  0  0  0  0  0  0  0  0  0  0  0
   -0.3747    5.1346   -1.0346 H   0  0  0  0  0  0  0  0  0  0  0  0
    2.1403    5.1254   -1.8135 H   0  0  0  0  0  0  0  0  0  0  0  0
    5.2918   -0.4061   -2.5623 H   0  0  0  0  0  0  0  0  0  0  0  0
    5.3627   -2.0860   -1.9843 H   0  0  0  0  0  0  0  0  0  0  0  0
    3.9832   -1.5277   -2.9978 H   0  0  0  0  0  0  0  0  0  0  0  0
   -6.3825   -0.8603    0.6716 H   0  0  0  0  0  0  0  0  0  0  0  0
   -4.2622    2.7937   -0.1155 H   0  0  0  0  0  0  0  0  0  0  0  0
   -6.2408    1.6130    0.8050 H   0  0  0  0  0  0  0  0  0  0  0  0
  1  3  2  0  0  0  0
  1  4  2  0  0  0  0
  1  7  1  0  0  0  0
  1 18  1  0  0  0  0
  2 18  1  0  0  0  0
  2 24  1  0  0  0  0
  5 15  1  0  0  0  0
  5 25  1  0  0  0  0
  6 15  2  0  0  0  0
  7 10  1  0  0  0  0
  7 12  1  0  0  0  0
  8 13  1  0  0  0  0
  8 16  1  0  0  0  0
  8 17  1  0  0  0  0
  9 14  1  0  0  0  0
  9 17  2  0  0  0  0
 10 11  1  0  0  0  0
 10 15  1  0  0  0  0
 10 29  1  0  0  0  0
 11 14  1  0  0  0  0
 11 30  1  0  0  0  0
 11 31  1  0  0  0  0
 12 13  1  0  0  0  0
 12 32  1  0  0  0  0
 12 33  1  0  0  0  0
 13 14  2  0  0  0  0
 16 19  1  0  0  0  0
 16 34  1  0  0  0  0
 16 35  1  0  0  0  0
 17 36  1  0  0  0  0
 18 20  2  0  0  0  0
 19 21  2  0  0  0  0
 19 22  1  0  0  0  0
 20 23  1  0  0  0  0
 20 37  1  0  0  0  0
 21 26  1  0  0  0  0
 21 38  1  0  0  0  0
 22 27  2  0  0  0  0
 22 39  1  0  0  0  0
 23 24  2  0  0  0  0
 23 40  1  0  0  0  0
 24 41  1  0  0  0  0
 25 42  1  0  0  0  0
 25 43  1  0  0  0  0
 25 44  1  0  0  0  0
 26 28  2  0  0  0  0
 26 45  1  0  0  0  0
 27 28  1  0  0  0  0
 27 46  1  0  0  0  0
 28 47  1  0  0  0  0
M  END
> <PUBCHEM_COMPOUND_CID>
25338953

> <PUBCHEM_CONFORMER_RMSD>
0.8

> <PUBCHEM_CONFORMER_DIVERSEORDER>
1
209
186
153
175
108
120
115
78
112
88
190
43
208
157
163
158
161
172
25
132
51
171
141
127
142
5
18
170
6
194
210
64
130
63
162
123
50
135
74
29
77
148
207
146
143
23
166
56
150
202
191
128
156
82
165
118
55
179
61
204
58
46
203
110
122
181
169
183
117
4
109
31
84
28
67
69
24
151
30
200
139
107
134
8
154
71
121
147
27
7
126
70
57
199
105
129
144
87
195
177
60
125
49
182
21
44
201
98
206
178
196
116
113
62
164
114
79
42
83
101
152
94
188
124
65
96
198
140
173
59
75
133
138
103
15
131
180
205
41
53
14
155
73
193
111
36
13
45
38
185
81
197
189
40
192
174
68
137
86
187
99
167
168
119
9
80
92
160
54
145
72
93
26
76
39
184
20
17
90
104
176
100
33
47
106
22
85
19
102
91
34
95
136
89
2
3
48
16
35
149
10
52
11
97
66
12
159
32
37

> <PUBCHEM_MMFF94_PARTIAL_CHARGES>
37
1 1.5
10 0.42
11 0.18
12 0.54
13 -0.33
14 0.05
15 0.66
16 0.4
17 0.04
18 -0.02
19 -0.14
2 -0.08
20 -0.15
21 -0.15
22 -0.15
23 -0.15
24 -0.11
25 0.28
26 -0.15
27 -0.15
28 -0.15
3 -0.65
36 0.15
37 0.15
38 0.15
39 0.15
4 -0.65
40 0.15
41 0.15
45 0.15
46 0.15
47 0.15
5 -0.43
6 -0.57
7 -0.85
8 0.05
9 -0.57

> <PUBCHEM_EFFECTIVE_ROTOR_COUNT>
6.8

> <PUBCHEM_PHARMACOPHORE_FEATURES>
8
1 3 acceptor
1 4 acceptor
1 6 acceptor
3 8 9 17 cation
5 2 18 20 23 24 rings
5 8 9 13 14 17 rings
6 19 21 22 26 27 28 rings
6 7 10 11 12 13 14 rings

> <PUBCHEM_HEAVY_ATOM_COUNT>
28

> <PUBCHEM_ATOM_DEF_STEREO_COUNT>
1

> <PUBCHEM_ATOM_UDEF_STEREO_COUNT>
0

> <PUBCHEM_BOND_DEF_STEREO_COUNT>
0

> <PUBCHEM_BOND_UDEF_STEREO_COUNT>
0

> <PUBCHEM_ISOTOPIC_ATOM_COUNT>
0

> <PUBCHEM_COMPONENT_COUNT>
1

> <PUBCHEM_CACTVS_TAUTO_COUNT>
1

> <PUBCHEM_CONFORMER_ID>
0182A44900000001

> <PUBCHEM_MMFF94_ENERGY>
57.6228

> <PUBCHEM_FEATURE_SELFOVERLAP>
40.717

> <PUBCHEM_SHAPE_FINGERPRINT>
10074138 170 15737366218553601371
10366900 7 18113337484362879659
10483366 6 18337688507036788076
10764073 3 17842239715469165448
1100329 8 18335982055656395136
11221954 11 17902784498592129922
11421498 54 17898012334760019474
11582403 64 14975989025127736400
12156800 1 15359969232917527633
12422481 6 17910915198617957552
12553582 1 18193545671834018797
12617007 42 18202008707116543742
12633257 1 17899949880311638864
12788726 201 18193002508905869038
13140716 1 17759784228460967681
14022347 108 18409448042690996954
14713325 29 17468765537949746672
15163728 17 17756438414598978364
151778 21 18336546144245862761
15210252 30 18334583430011490860
15475509 8 17985851253445659823
15475509 84 17253699487820650355
1601671 61 18200029517419856895
18769570 83 18410847751326763826
20642791 105 17615678541211609490
20642791 239 18191047727597346910
20691752 17 18188755219782975751
20739085 24 18337659845801721129
21285901 2 17701549389685978158
21503847 285 18201714033905870267
21860390 5 18270669969680976846
23558518 356 18122327228338162823
23559900 14 18342173431502413079
3052486 1 18120927313733226944
340366 18 17918274268249552415
469060 322 18120945996777693824
474 4 18265597957381857691
5081480 168 17985016836000109524
54076057 255 18260842466180358373
57527585 21 17547563142756218111
5776283 40 17974309895128624332
6287921 2 18338510967181842621
7164475 11 17978795610706962822

> <PUBCHEM_SHAPE_MULTIPOLES>
545.51
8.66
5.35
1.61
10.24
4.61
-0.27
-0.57
2.32
-3.78
0.61
-1.58
-0.16
0.52

> <PUBCHEM_SHAPE_SELFOVERLAP>
1156.712

> <PUBCHEM_SHAPE_VOLUME>
305.4

> <PUBCHEM_COORDINATE_TYPE>
2
5
10

$$$$
