45361703
  -OEChem-12032416233D

 86 89  0     1  0  0  0  0  0999 V2000
   -0.3987   -0.5837    0.7984 O   0  0  0  0  0  0  0  0  0  0  0  0
   -2.6427    1.6656   -1.6685 O   0  0  0  0  0  0  0  0  0  0  0  0
   -0.4262   -4.4741   -0.1210 O   0  0  0  0  0  0  0  0  0  0  0  0
    2.6159   -2.6486   -1.3381 O   0  0  0  0  0  0  0  0  0  0  0  0
   -0.4139    1.1992   -1.1913 N   0  0  0  0  0  0  0  0  0  0  0  0
   -1.7135   -2.0282   -0.4682 N   0  0  0  0  0  0  0  0  0  0  0  0
   -1.3755    3.3019   -0.6757 N   0  0  0  0  0  0  0  0  0  0  0  0
    1.8733   -0.4494   -1.6020 N   0  0  0  0  0  0  0  0  0  0  0  0
   -0.9358   -4.3637    2.1155 N   0  0  0  0  0  0  0  0  0  0  0  0
    7.6119    0.2060    1.2540 N   0  0  0  0  0  0  0  0  0  0  0  0
   -4.6139   -2.4342    0.1263 C   0  0  0  0  0  0  0  0  0  0  0  0
   -5.9668   -3.1036   -0.1510 C   0  0  0  0  0  0  0  0  0  0  0  0
   -4.7118   -1.4798    1.3240 C   0  0  0  0  0  0  0  0  0  0  0  0
   -3.5302   -3.4848    0.3608 C   0  0  0  0  0  0  0  0  0  0  0  0
   -7.0783   -2.0731   -0.3363 C   0  0  0  0  0  0  0  0  0  0  0  0
   -5.8255   -0.4520    1.1364 C   0  0  0  0  0  0  0  0  0  0  0  0
   -7.1667   -1.1209    0.8523 C   0  0  0  0  0  0  0  0  0  0  0  0
   -2.1335   -2.9033    0.6024 C   0  0  1  0  0  0  0  0  0  0  0  0
   -2.4486    4.2691   -0.6130 C   0  0  0  0  0  0  0  0  0  0  0  0
   -0.5811   -0.2170   -1.5560 C   0  0  1  0  0  0  0  0  0  0  0  0
   -1.9119    5.6974   -0.7550 C   0  0  0  0  0  0  0  0  0  0  0  0
   -3.2618    4.1069    0.6756 C   0  0  0  0  0  0  0  0  0  0  0  0
   -1.1478    6.1611    0.4851 C   0  0  0  0  0  0  0  0  0  0  0  0
   -2.4956    4.5732    1.9134 C   0  0  0  0  0  0  0  0  0  0  0  0
    0.6284   -0.8204   -2.2673 C   0  0  0  0  0  0  0  0  0  0  0  0
   -1.9814    6.0005    1.7527 C   0  0  0  0  0  0  0  0  0  0  0  0
    0.9047    1.5976   -0.6584 C   0  0  0  0  0  0  0  0  0  0  0  0
   -0.8791   -0.9407   -0.2742 C   0  0  0  0  0  0  0  0  0  0  0  0
    2.0565    0.9935   -1.4538 C   0  0  0  0  0  0  0  0  0  0  0  0
   -1.5537    2.0322   -1.2144 C   0  0  0  0  0  0  0  0  0  0  0  0
   -1.0728   -3.9785    0.7988 C   0  0  0  0  0  0  0  0  0  0  0  0
    2.7782   -1.4362   -1.2096 C   0  0  0  0  0  0  0  0  0  0  0  0
    4.0307   -1.0115   -0.5711 C   0  0  0  0  0  0  0  0  0  0  0  0
    4.0929   -0.8673    0.8149 C   0  0  0  0  0  0  0  0  0  0  0  0
    5.1579   -0.7513   -1.3506 C   0  0  0  0  0  0  0  0  0  0  0  0
    5.2820   -0.4629    1.4214 C   0  0  0  0  0  0  0  0  0  0  0  0
    6.3470   -0.3468   -0.7442 C   0  0  0  0  0  0  0  0  0  0  0  0
    6.4090   -0.2026    0.6418 C   0  0  0  0  0  0  0  0  0  0  0  0
    8.7904    0.4714    0.4528 C   0  0  0  0  0  0  0  0  0  0  0  0
    7.6880    0.3587    2.6935 C   0  0  0  0  0  0  0  0  0  0  0  0
   -4.3519   -1.8438   -0.7621 H   0  0  0  0  0  0  0  0  0  0  0  0
   -6.2304   -3.7717    0.6790 H   0  0  0  0  0  0  0  0  0  0  0  0
   -5.8990   -3.7266   -1.0508 H   0  0  0  0  0  0  0  0  0  0  0  0
   -3.7784   -0.9258    1.4655 H   0  0  0  0  0  0  0  0  0  0  0  0
   -4.8935   -2.0485    2.2447 H   0  0  0  0  0  0  0  0  0  0  0  0
   -3.8043   -4.1230    1.2113 H   0  0  0  0  0  0  0  0  0  0  0  0
   -3.4895   -4.1523   -0.5110 H   0  0  0  0  0  0  0  0  0  0  0  0
   -8.0374   -2.5859   -0.4698 H   0  0  0  0  0  0  0  0  0  0  0  0
   -6.8933   -1.4979   -1.2520 H   0  0  0  0  0  0  0  0  0  0  0  0
   -5.5679    0.2175    0.3062 H   0  0  0  0  0  0  0  0  0  0  0  0
   -5.9075    0.1708    2.0344 H   0  0  0  0  0  0  0  0  0  0  0  0
   -7.9264   -0.3558    0.6565 H   0  0  0  0  0  0  0  0  0  0  0  0
   -7.4930   -1.6757    1.7406 H   0  0  0  0  0  0  0  0  0  0  0  0
   -2.1425   -2.3075    1.5229 H   0  0  0  0  0  0  0  0  0  0  0  0
   -3.1162    4.0759   -1.4619 H   0  0  0  0  0  0  0  0  0  0  0  0
   -1.4503   -0.3111   -2.2183 H   0  0  0  0  0  0  0  0  0  0  0  0
   -1.2593    5.7732   -1.6331 H   0  0  0  0  0  0  0  0  0  0  0  0
   -2.7546    6.3798   -0.9250 H   0  0  0  0  0  0  0  0  0  0  0  0
   -4.1836    4.6965    0.5906 H   0  0  0  0  0  0  0  0  0  0  0  0
   -3.5669    3.0622    0.8107 H   0  0  0  0  0  0  0  0  0  0  0  0
   -0.8650    7.2134    0.3656 H   0  0  0  0  0  0  0  0  0  0  0  0
   -0.2137    5.5960    0.5852 H   0  0  0  0  0  0  0  0  0  0  0  0
   -1.6517    3.8987    2.1026 H   0  0  0  0  0  0  0  0  0  0  0  0
   -3.1490    4.5157    2.7914 H   0  0  0  0  0  0  0  0  0  0  0  0
    0.6912   -0.4289   -3.2901 H   0  0  0  0  0  0  0  0  0  0  0  0
    0.5383   -1.9094   -2.3404 H   0  0  0  0  0  0  0  0  0  0  0  0
   -1.3810    6.2771    2.6266 H   0  0  0  0  0  0  0  0  0  0  0  0
   -2.8323    6.6921    1.7187 H   0  0  0  0  0  0  0  0  0  0  0  0
   -1.9817   -2.2815   -1.4150 H   0  0  0  0  0  0  0  0  0  0  0  0
    1.0287    2.6820   -0.6983 H   0  0  0  0  0  0  0  0  0  0  0  0
    0.9587    1.3073    0.3947 H   0  0  0  0  0  0  0  0  0  0  0  0
    2.0845    1.4188   -2.4645 H   0  0  0  0  0  0  0  0  0  0  0  0
    3.0046    1.2417   -0.9724 H   0  0  0  0  0  0  0  0  0  0  0  0
   -0.5446    3.5111   -0.1388 H   0  0  0  0  0  0  0  0  0  0  0  0
   -1.4904   -3.9603    2.8637 H   0  0  0  0  0  0  0  0  0  0  0  0
   -0.2675   -5.0795    2.3810 H   0  0  0  0  0  0  0  0  0  0  0  0
    3.2193   -1.0666    1.4305 H   0  0  0  0  0  0  0  0  0  0  0  0
    5.1192   -0.8601   -2.4315 H   0  0  0  0  0  0  0  0  0  0  0  0
    5.2793   -0.3652    2.5024 H   0  0  0  0  0  0  0  0  0  0  0  0
    7.1952   -0.1563   -1.3942 H   0  0  0  0  0  0  0  0  0  0  0  0
    9.6411    0.7761    1.0726 H   0  0  0  0  0  0  0  0  0  0  0  0
    8.6125    1.2892   -0.2543 H   0  0  0  0  0  0  0  0  0  0  0  0
    9.1080   -0.4240   -0.0929 H   0  0  0  0  0  0  0  0  0  0  0  0
    8.6844    0.6830    3.0142 H   0  0  0  0  0  0  0  0  0  0  0  0
    7.4905   -0.5909    3.2032 H   0  0  0  0  0  0  0  0  0  0  0  0
    6.9842    1.1197    3.0487 H   0  0  0  0  0  0  0  0  0  0  0  0
  1 28  2  0  0  0  0
  2 30  2  0  0  0  0
  3 31  2  0  0  0  0
  4 32  2  0  0  0  0
  5 20  1  0  0  0  0
  5 27  1  0  0  0  0
  5 30  1  0  0  0  0
  6 18  1  0  0  0  0
  6 28  1  0  0  0  0
  6 69  1  0  0  0  0
  7 19  1  0  0  0  0
  7 30  1  0  0  0  0
  7 74  1  0  0  0  0
  8 25  1  0  0  0  0
  8 29  1  0  0  0  0
  8 32  1  0  0  0  0
  9 31  1  0  0  0  0
  9 75  1  0  0  0  0
  9 76  1  0  0  0  0
 10 38  1  0  0  0  0
 10 39  1  0  0  0  0
 10 40  1  0  0  0  0
 11 12  1  0  0  0  0
 11 13  1  0  0  0  0
 11 14  1  0  0  0  0
 11 41  1  0  0  0  0
 12 15  1  0  0  0  0
 12 42  1  0  0  0  0
 12 43  1  0  0  0  0
 13 16  1  0  0  0  0
 13 44  1  0  0  0  0
 13 45  1  0  0  0  0
 14 18  1  0  0  0  0
 14 46  1  0  0  0  0
 14 47  1  0  0  0  0
 15 17  1  0  0  0  0
 15 48  1  0  0  0  0
 15 49  1  0  0  0  0
 16 17  1  0  0  0  0
 16 50  1  0  0  0  0
 16 51  1  0  0  0  0
 17 52  1  0  0  0  0
 17 53  1  0  0  0  0
 18 31  1  0  0  0  0
 18 54  1  0  0  0  0
 19 21  1  0  0  0  0
 19 22  1  0  0  0  0
 19 55  1  0  0  0  0
 20 25  1  0  0  0  0
 20 28  1  0  0  0  0
 20 56  1  0  0  0  0
 21 23  1  0  0  0  0
 21 57  1  0  0  0  0
 21 58  1  0  0  0  0
 22 24  1  0  0  0  0
 22 59  1  0  0  0  0
 22 60  1  0  0  0  0
 23 26  1  0  0  0  0
 23 61  1  0  0  0  0
 23 62  1  0  0  0  0
 24 26  1  0  0  0  0
 24 63  1  0  0  0  0
 24 64  1  0  0  0  0
 25 65  1  0  0  0  0
 25 66  1  0  0  0  0
 26 67  1  0  0  0  0
 26 68  1  0  0  0  0
 27 29  1  0  0  0  0
 27 70  1  0  0  0  0
 27 71  1  0  0  0  0
 29 72  1  0  0  0  0
 29 73  1  0  0  0  0
 32 33  1  0  0  0  0
 33 34  2  0  0  0  0
 33 35  1  0  0  0  0
 34 36  1  0  0  0  0
 34 77  1  0  0  0  0
 35 37  2  0  0  0  0
 35 78  1  0  0  0  0
 36 38  2  0  0  0  0
 36 79  1  0  0  0  0
 37 38  1  0  0  0  0
 37 80  1  0  0  0  0
 39 81  1  0  0  0  0
 39 82  1  0  0  0  0
 39 83  1  0  0  0  0
 40 84  1  0  0  0  0
 40 85  1  0  0  0  0
 40 86  1  0  0  0  0
M  END
> <PUBCHEM_COMPOUND_CID>
45361703

> <PUBCHEM_CONFORMER_RMSD>
1.4

> <PUBCHEM_CONFORMER_DIVERSEORDER>
1
29
26
40
22
55
23
47
32
15
5
62
60
63
49
46
58
45
59
36
64
30
51
43
11
27
9
41
24
25
56
61
54
57
10
17
42
19
53
52
16
44
21
33
38
7
8
65
2
28
39
14
37
18
31
34
12
50
4
3
20
48
6
35
13

> <PUBCHEM_MMFF94_PARTIAL_CHARGES>
36
1 -0.57
10 -0.84
18 0.36
19 0.3
2 -0.57
20 0.36
25 0.3
27 0.3
28 0.57
29 0.3
3 -0.57
30 0.69
31 0.57
32 0.54
33 0.09
34 -0.15
35 -0.15
36 -0.15
37 -0.15
38 0.1
39 0.37
4 -0.57
40 0.37
5 -0.66
6 -0.73
69 0.37
7 -0.73
74 0.37
75 0.37
76 0.37
77 0.15
78 0.15
79 0.15
8 -0.66
80 0.15
9 -0.8

> <PUBCHEM_EFFECTIVE_ROTOR_COUNT>
15.6

> <PUBCHEM_PHARMACOPHORE_FEATURES>
12
1 1 acceptor
1 10 cation
1 2 acceptor
1 3 acceptor
1 4 acceptor
1 6 donor
1 7 donor
1 9 donor
6 11 12 13 15 16 17 rings
6 19 21 22 23 24 26 rings
6 33 34 35 36 37 38 rings
6 5 8 20 25 27 29 rings

> <PUBCHEM_HEAVY_ATOM_COUNT>
40

> <PUBCHEM_ATOM_DEF_STEREO_COUNT>
2

> <PUBCHEM_ATOM_UDEF_STEREO_COUNT>
0

> <PUBCHEM_BOND_DEF_STEREO_COUNT>
0

> <PUBCHEM_BOND_UDEF_STEREO_COUNT>
0

> <PUBCHEM_ISOTOPIC_ATOM_COUNT>
0

> <PUBCHEM_COMPONENT_COUNT>
1

> <PUBCHEM_CACTVS_TAUTO_COUNT>
8

> <PUBCHEM_CONFORMER_ID>
02B42A2700000001

> <PUBCHEM_MMFF94_ENERGY>
98.9981

> <PUBCHEM_FEATURE_SELFOVERLAP>
60.898

> <PUBCHEM_SHAPE_FINGERPRINT>
10006869 2 18269562808632726244
10439779 11 17907302405188313847
10930396 42 18340190994984173978
11136131 41 17546446039154023497
11456790 92 18115602560374158067
12788726 201 18261407657843139422
12857493 111 18340767134508581436
13540713 4 17986681376931346566
14028597 1 17822006497472396115
14068700 675 18114742741120323662
14150022 121 18413671305529219208
14394314 77 18410300194921071499
14705955 166 18413101749989501864
15131766 46 16342281688155074586
15351339 4 18115014214036547695
15927050 60 17760383092994592159
15968369 153 18130502024355264292
22889206 1 17402892718203893504
24180151 40 18115860807345123947
24771293 8 18343305890030538455
2747138 104 18342458132194826436
3418910 222 18335988657844822540
376196 1 17555164758297527836
6004065 56 18268148850387325175
653340 110 18266468602881798431
79837 15 18121226376785689421
9896288 288 18266177227635977868

> <PUBCHEM_SHAPE_MULTIPOLES>
769.82
17.9
8.22
1.97
26.72
14.56
0.32
-9.59
8.73
-14.4
2.84
1.66
0.39
0.72

> <PUBCHEM_SHAPE_SELFOVERLAP>
1597.136

> <PUBCHEM_SHAPE_VOLUME>
433.3

> <PUBCHEM_COORDINATE_TYPE>
2
5
10

$$$$
