45360891
  -OEChem-12032416233D

 64 68  0     1  0  0  0  0  0999 V2000
   -5.1891   -4.5221   -0.4806 Cl  0  0  0  0  0  0  0  0  0  0  0  0
   -1.4906   -0.5931   -1.1666 O   0  0  0  0  0  0  0  0  0  0  0  0
    4.5508    1.8898   -0.3537 O   0  0  0  0  0  0  0  0  0  0  0  0
   -0.1801    2.5186    0.7280 N   0  0  1  0  0  0  0  0  0  0  0  0
   -3.3760    0.8386    0.1325 N   0  0  1  0  0  0  0  0  0  0  0  0
   -0.2890    1.2301   -1.8510 N   0  0  0  0  0  0  0  0  0  0  0  0
    4.0504   -0.3537    0.0505 N   0  0  0  0  0  0  0  0  0  0  0  0
   -1.6551    2.4805    0.6164 C   0  0  1  0  0  0  0  0  0  0  0  0
   -2.2915    1.6083   -0.5054 C   0  0  1  0  0  0  0  0  0  0  0  0
   -2.3636    1.9492    1.8764 C   0  0  0  0  0  0  0  0  0  0  0  0
   -3.7271    1.5344    1.3655 C   0  0  0  0  0  0  0  0  0  0  0  0
    0.5120    3.1100   -0.4512 C   0  0  2  0  0  0  0  0  0  0  0  0
   -1.3366    0.6274   -1.1808 C   0  0  0  0  0  0  0  0  0  0  0  0
   -0.0345    2.6567   -1.8191 C   0  0  0  0  0  0  0  0  0  0  0  0
    2.0175    2.7730   -0.4182 C   0  0  0  0  0  0  0  0  0  0  0  0
   -4.5311    0.6416   -0.7339 C   0  0  0  0  0  0  0  0  0  0  0  0
    0.2342    3.2084    1.9614 C   0  0  0  0  0  0  0  0  0  0  0  0
    2.2631    1.2971   -0.1720 C   0  0  0  0  0  0  0  0  0  0  0  0
   -5.3681   -0.5304   -0.2946 C   0  0  0  0  0  0  0  0  0  0  0  0
    3.7404    0.9815   -0.1692 C   0  0  0  0  0  0  0  0  0  0  0  0
   -4.9406   -1.8314   -0.5595 C   0  0  0  0  0  0  0  0  0  0  0  0
   -6.5711   -0.3148    0.3779 C   0  0  0  0  0  0  0  0  0  0  0  0
    3.0753   -1.4422    0.2718 C   0  0  0  0  0  0  0  0  0  0  0  0
    5.3483   -0.9038    0.0994 C   0  0  0  0  0  0  0  0  0  0  0  0
    3.8629   -2.7409    0.4758 C   0  0  0  0  0  0  0  0  0  0  0  0
    5.2762   -2.2772    0.3418 C   0  0  0  0  0  0  0  0  0  0  0  0
   -5.7157   -2.9170   -0.1517 C   0  0  0  0  0  0  0  0  0  0  0  0
   -7.3464   -1.4004    0.7855 C   0  0  0  0  0  0  0  0  0  0  0  0
    6.5765   -0.2775   -0.0542 C   0  0  0  0  0  0  0  0  0  0  0  0
   -6.9187   -2.7015    0.5210 C   0  0  0  0  0  0  0  0  0  0  0  0
    6.4212   -3.0537    0.4362 C   0  0  0  0  0  0  0  0  0  0  0  0
    7.7363   -1.0535    0.0390 C   0  0  0  0  0  0  0  0  0  0  0  0
    7.6600   -2.4317    0.2826 C   0  0  0  0  0  0  0  0  0  0  0  0
   -2.0152    3.5105    0.4676 H   0  0  0  0  0  0  0  0  0  0  0  0
   -2.7069    2.2732   -1.2744 H   0  0  0  0  0  0  0  0  0  0  0  0
   -1.8354    1.0790    2.2887 H   0  0  0  0  0  0  0  0  0  0  0  0
   -2.4483    2.7081    2.6611 H   0  0  0  0  0  0  0  0  0  0  0  0
   -4.3474    2.4213    1.1839 H   0  0  0  0  0  0  0  0  0  0  0  0
   -4.2362    0.8837    2.0831 H   0  0  0  0  0  0  0  0  0  0  0  0
    0.4136    4.2042   -0.4255 H   0  0  0  0  0  0  0  0  0  0  0  0
    0.6691    2.8788   -2.6293 H   0  0  0  0  0  0  0  0  0  0  0  0
   -0.9570    3.1935   -2.0620 H   0  0  0  0  0  0  0  0  0  0  0  0
    2.4901    3.0852   -1.3591 H   0  0  0  0  0  0  0  0  0  0  0  0
    2.5189    3.3682    0.3550 H   0  0  0  0  0  0  0  0  0  0  0  0
   -5.1401    1.5516   -0.8207 H   0  0  0  0  0  0  0  0  0  0  0  0
   -4.2028    0.4224   -1.7598 H   0  0  0  0  0  0  0  0  0  0  0  0
    0.3377    0.6376   -2.3868 H   0  0  0  0  0  0  0  0  0  0  0  0
   -0.1155    4.2468    1.9810 H   0  0  0  0  0  0  0  0  0  0  0  0
   -0.1414    2.6974    2.8535 H   0  0  0  0  0  0  0  0  0  0  0  0
    1.3200    3.2118    2.0901 H   0  0  0  0  0  0  0  0  0  0  0  0
    1.8329    0.6784   -0.9565 H   0  0  0  0  0  0  0  0  0  0  0  0
    1.8563    0.9848    0.7946 H   0  0  0  0  0  0  0  0  0  0  0  0
   -4.0037   -1.9987   -1.0858 H   0  0  0  0  0  0  0  0  0  0  0  0
   -6.9149    0.6936    0.5920 H   0  0  0  0  0  0  0  0  0  0  0  0
    2.4118   -1.5123   -0.5973 H   0  0  0  0  0  0  0  0  0  0  0  0
    2.4641   -1.2056    1.1496 H   0  0  0  0  0  0  0  0  0  0  0  0
    3.6114   -3.4794   -0.2918 H   0  0  0  0  0  0  0  0  0  0  0  0
    3.6759   -3.1635    1.4678 H   0  0  0  0  0  0  0  0  0  0  0  0
   -8.2828   -1.2326    1.3095 H   0  0  0  0  0  0  0  0  0  0  0  0
    6.6731    0.7845   -0.2432 H   0  0  0  0  0  0  0  0  0  0  0  0
   -7.5331   -3.5377    0.8446 H   0  0  0  0  0  0  0  0  0  0  0  0
    6.3606   -4.1203    0.6251 H   0  0  0  0  0  0  0  0  0  0  0  0
    8.7089   -0.5830   -0.0785 H   0  0  0  0  0  0  0  0  0  0  0  0
    8.5722   -3.0178    0.3520 H   0  0  0  0  0  0  0  0  0  0  0  0
  1 27  1  0  0  0  0
  2 13  2  0  0  0  0
  3 20  2  0  0  0  0
  4  8  1  0  0  0  0
  4 12  1  0  0  0  0
  4 17  1  0  0  0  0
  5  9  1  0  0  0  0
  5 11  1  0  0  0  0
  5 16  1  0  0  0  0
  6 13  1  0  0  0  0
  6 14  1  0  0  0  0
  6 47  1  0  0  0  0
  7 20  1  0  0  0  0
  7 23  1  0  0  0  0
  7 24  1  0  0  0  0
  8  9  1  0  0  0  0
  8 10  1  0  0  0  0
  8 34  1  0  0  0  0
  9 13  1  0  0  0  0
  9 35  1  0  0  0  0
 10 11  1  0  0  0  0
 10 36  1  0  0  0  0
 10 37  1  0  0  0  0
 11 38  1  0  0  0  0
 11 39  1  0  0  0  0
 12 14  1  0  0  0  0
 12 15  1  0  0  0  0
 12 40  1  0  0  0  0
 14 41  1  0  0  0  0
 14 42  1  0  0  0  0
 15 18  1  0  0  0  0
 15 43  1  0  0  0  0
 15 44  1  0  0  0  0
 16 19  1  0  0  0  0
 16 45  1  0  0  0  0
 16 46  1  0  0  0  0
 17 48  1  0  0  0  0
 17 49  1  0  0  0  0
 17 50  1  0  0  0  0
 18 20  1  0  0  0  0
 18 51  1  0  0  0  0
 18 52  1  0  0  0  0
 19 21  2  0  0  0  0
 19 22  1  0  0  0  0
 21 27  1  0  0  0  0
 21 53  1  0  0  0  0
 22 28  2  0  0  0  0
 22 54  1  0  0  0  0
 23 25  1  0  0  0  0
 23 55  1  0  0  0  0
 23 56  1  0  0  0  0
 24 26  1  0  0  0  0
 24 29  2  0  0  0  0
 25 26  1  0  0  0  0
 25 57  1  0  0  0  0
 25 58  1  0  0  0  0
 26 31  2  0  0  0  0
 27 30  2  0  0  0  0
 28 30  1  0  0  0  0
 28 59  1  0  0  0  0
 29 32  1  0  0  0  0
 29 60  1  0  0  0  0
 30 61  1  0  0  0  0
 31 33  1  0  0  0  0
 31 62  1  0  0  0  0
 32 33  2  0  0  0  0
 32 63  1  0  0  0  0
 33 64  1  0  0  0  0
M  END
> <PUBCHEM_COMPOUND_CID>
45360891

> <PUBCHEM_CONFORMER_RMSD>
1.4

> <PUBCHEM_CONFORMER_DIVERSEORDER>
1
64
100
7
105
147
78
132
107
29
123
128
2
131
81
112
133
83
141
151
145
111
25
86
19
45
35
6
124
8
122
42
61
143
18
154
139
106
89
92
135
130
113
33
27
136
90
73
117
121
67
47
76
4
11
108
146
148
118
60
99
30
21
152
115
63
97
40
134
36
17
120
49
84
109
129
66
150
5
65
149
94
52
70
14
142
158
85
126
71
137
80
69
75
48
103
74
156
28
157
127
102
44
50
125
34
12
58
68
39
41
10
159
87
96
153
37
104
56
77
101
88
140
119
79
16
51
91
82
38
155
110
9
53
116
54
62
31
98
13
46
57
26
93
114
23
22
138
20
43
32
72
59
15
24
95
144
3
55

> <PUBCHEM_MMFF94_PARTIAL_CHARGES>
40
1 -0.18
11 0.27
12 0.27
13 0.57
14 0.3
16 0.41
17 0.27
18 0.06
19 -0.14
2 -0.57
20 0.57
21 -0.15
22 -0.15
23 0.3
24 0.12
25 0.14
26 -0.14
27 0.18
28 -0.15
29 -0.15
3 -0.57
30 -0.15
31 -0.15
32 -0.15
33 -0.15
4 -0.81
47 0.37
5 -0.81
53 0.15
54 0.15
59 0.15
6 -0.73
60 0.15
61 0.15
62 0.15
63 0.15
64 0.15
7 -0.48
8 0.27
9 0.33

> <PUBCHEM_EFFECTIVE_ROTOR_COUNT>
8

> <PUBCHEM_PHARMACOPHORE_FEATURES>
10
1 2 acceptor
1 3 acceptor
1 4 cation
1 5 cation
1 6 donor
5 5 8 9 10 11 rings
5 7 23 24 25 26 rings
6 19 21 22 27 28 30 rings
6 24 26 29 31 32 33 rings
7 4 6 8 9 12 13 14 rings

> <PUBCHEM_HEAVY_ATOM_COUNT>
33

> <PUBCHEM_ATOM_DEF_STEREO_COUNT>
3

> <PUBCHEM_ATOM_UDEF_STEREO_COUNT>
0

> <PUBCHEM_BOND_DEF_STEREO_COUNT>
0

> <PUBCHEM_BOND_UDEF_STEREO_COUNT>
0

> <PUBCHEM_ISOTOPIC_ATOM_COUNT>
0

> <PUBCHEM_COMPONENT_COUNT>
1

> <PUBCHEM_CACTVS_TAUTO_COUNT>
3

> <PUBCHEM_CONFORMER_ID>
02B426FB00000001

> <PUBCHEM_MMFF94_ENERGY>
100.4627

> <PUBCHEM_FEATURE_SELFOVERLAP>
50.87

> <PUBCHEM_SHAPE_FINGERPRINT>
10190206 1 12540690397154152439
10305334 12 18198349464179720363
10939801 23 18201435939511247340
11135609 99 18413389855979018286
11456790 92 18129958862270438459
11497681 19 18407762530521319748
117089 54 18410298020787495915
11756154 67 18408324363245375230
11963148 33 17621878021655984711
12166972 35 18113902671207993164
12633257 1 15410600519305515192
12895837 130 9006758904776773962
131258 38 18123739009641266930
1361 4 18192714660028788343
13690498 29 18040428868140222725
13782708 43 17967807258316443116
14068700 675 18412547626051435777
14178184 131 18272646887647153007
14251764 30 18408880741544918175
14705955 166 15625951902320453603
15019793 15 17980758560869253719
15064981 113 12973889144578155146
15064986 96 17059219112007719878
15361156 5 17458919127829207076
15475509 35 18270398433385709009
15510800 12 17894920658455004627
15721738 202 18272930518860210018
15728490 51 18412824694945698750
15803439 3 14201402676926606608
16728300 4 18343300340847733975
18608769 82 18411414004041814578
19246450 95 18056498170962668321
19319366 153 17838056266446137236
19841028 212 18335137600904014226
20028762 73 18411982434436958450
20691028 202 10303514110146769490
20775530 9 18338498803359895046
21033648 29 15123517969211687457
21197605 99 18411700972830244966
21223535 225 14779824906291612302
23559900 14 18263637528476879573
24180151 214 17476951380734620065
24893989 43 17626114400786142574
2748736 6 9727633882127767774
2838139 119 8862648106410857712
32027 91 18269826662175856429
3886686 26 17624148104775442853
437795 163 18410013273656777862
439807 62 18409731763982686281
4461854 278 17846499249259593566
474113 269 18201427109148288087
484985 159 18120366562634600517
5028188 123 18198920124100819148
5104073 3 17775010111027501137
5718773 13 18408322176932558168
5874358 3 17130687553230035519
6201460 15 17982444099157018759
7970288 3 18338232665917172202
9555976 147 17917724461296833961
96874 4 18412261757323525227
9896288 288 17701547203283801888

> <PUBCHEM_SHAPE_MULTIPOLES>
649.33
21.36
4.98
1.3
9.08
1.8
-0.08
26.4
-2.83
-1.81
-0.41
-0.88
-1.07
-1.47

> <PUBCHEM_SHAPE_SELFOVERLAP>
1390.749

> <PUBCHEM_SHAPE_VOLUME>
359.4

> <PUBCHEM_COORDINATE_TYPE>
2
5
10

$$$$
