51136744
  -OEChem-12032416143D

 61 63  0     1  0  0  0  0  0999 V2000
   -1.9897   -3.0999    0.5966 O   0  0  0  0  0  0  0  0  0  0  0  0
   -2.9863    4.9157    1.1777 O   0  0  0  0  0  0  0  0  0  0  0  0
   -2.5589    4.3916   -0.9956 O   0  0  0  0  0  0  0  0  0  0  0  0
    6.0116   -1.0541   -0.5536 O   0  0  0  0  0  0  0  0  0  0  0  0
   -2.6208   -0.8843    0.2872 N   0  0  0  0  0  0  0  0  0  0  0  0
    1.6094   -0.6625    2.0078 N   0  0  0  0  0  0  0  0  0  0  0  0
   -0.7049    0.6855    0.2288 C   0  0  2  0  0  0  0  0  0  0  0  0
   -1.6313    1.8071   -0.3036 C   0  0  1  0  0  0  0  0  0  0  0  0
   -1.4839   -0.3562    1.0459 C   0  0  0  0  0  0  0  0  0  0  0  0
   -2.8164    1.1759   -1.0572 C   0  0  0  0  0  0  0  0  0  0  0  0
   -3.5520    0.1280   -0.2239 C   0  0  0  0  0  0  0  0  0  0  0  0
    0.4820    1.2192    1.0299 C   0  0  0  0  0  0  0  0  0  0  0  0
   -2.1229    2.7766    0.7774 C   0  0  0  0  0  0  0  0  0  0  0  0
   -2.7850   -2.2642    0.1593 C   0  0  0  0  0  0  0  0  0  0  0  0
    1.5930    0.1970    1.0431 C   0  0  0  0  0  0  0  0  0  0  0  0
   -4.0206   -2.7343   -0.5662 C   0  0  0  0  0  0  0  0  0  0  0  0
   -2.5650    4.0874    0.1877 C   0  0  0  0  0  0  0  0  0  0  0  0
    2.6094    0.2315   -0.0394 C   0  0  0  0  0  0  0  0  0  0  0  0
   -3.9785   -2.1634   -1.9842 C   0  0  0  0  0  0  0  0  0  0  0  0
   -5.2546   -2.2236    0.1798 C   0  0  0  0  0  0  0  0  0  0  0  0
   -4.0180   -4.2636   -0.6048 C   0  0  0  0  0  0  0  0  0  0  0  0
    3.8098   -0.4493    0.2003 C   0  0  0  0  0  0  0  0  0  0  0  0
    3.9935   -1.1444    1.5167 C   0  0  0  0  0  0  0  0  0  0  0  0
    2.6529   -1.6931    1.9871 C   0  0  0  0  0  0  0  0  0  0  0  0
    2.4100    0.9136   -1.2411 C   0  0  0  0  0  0  0  0  0  0  0  0
    4.8231   -0.4211   -0.7619 C   0  0  0  0  0  0  0  0  0  0  0  0
    3.4215    0.9227   -2.2026 C   0  0  0  0  0  0  0  0  0  0  0  0
    4.6258    0.2603   -1.9630 C   0  0  0  0  0  0  0  0  0  0  0  0
    7.0469   -0.2983    0.0717 C   0  0  0  0  0  0  0  0  0  0  0  0
   -0.3289    0.1557   -0.6583 H   0  0  0  0  0  0  0  0  0  0  0  0
   -1.0445    2.3776   -1.0371 H   0  0  0  0  0  0  0  0  0  0  0  0
   -1.8876    0.0859    1.9649 H   0  0  0  0  0  0  0  0  0  0  0  0
   -0.8340   -1.1813    1.3471 H   0  0  0  0  0  0  0  0  0  0  0  0
   -2.4320    0.7008   -1.9688 H   0  0  0  0  0  0  0  0  0  0  0  0
   -3.5257    1.9435   -1.3859 H   0  0  0  0  0  0  0  0  0  0  0  0
   -4.0082    0.5951    0.6567 H   0  0  0  0  0  0  0  0  0  0  0  0
   -4.3849   -0.2210   -0.8128 H   0  0  0  0  0  0  0  0  0  0  0  0
    0.8583    2.1596    0.6124 H   0  0  0  0  0  0  0  0  0  0  0  0
    0.1985    1.4338    2.0679 H   0  0  0  0  0  0  0  0  0  0  0  0
   -1.3117    3.0248    1.4689 H   0  0  0  0  0  0  0  0  0  0  0  0
   -2.9464    2.3581    1.3623 H   0  0  0  0  0  0  0  0  0  0  0  0
   -4.8628   -1.5821   -2.2663 H   0  0  0  0  0  0  0  0  0  0  0  0
   -3.0796   -1.5824   -2.2141 H   0  0  0  0  0  0  0  0  0  0  0  0
   -3.9599   -2.9828   -2.7163 H   0  0  0  0  0  0  0  0  0  0  0  0
   -5.9185   -1.5951   -0.4229 H   0  0  0  0  0  0  0  0  0  0  0  0
   -5.0226   -1.6898    1.1082 H   0  0  0  0  0  0  0  0  0  0  0  0
   -5.8871   -3.0653    0.4922 H   0  0  0  0  0  0  0  0  0  0  0  0
   -3.1333   -4.6557   -1.1208 H   0  0  0  0  0  0  0  0  0  0  0  0
   -4.0280   -4.6943    0.4037 H   0  0  0  0  0  0  0  0  0  0  0  0
   -4.9004   -4.6440   -1.1328 H   0  0  0  0  0  0  0  0  0  0  0  0
    4.7043   -1.9741    1.4385 H   0  0  0  0  0  0  0  0  0  0  0  0
    4.3880   -0.4246    2.2438 H   0  0  0  0  0  0  0  0  0  0  0  0
    2.3219   -2.5215    1.3482 H   0  0  0  0  0  0  0  0  0  0  0  0
    2.7655   -2.0964    2.9994 H   0  0  0  0  0  0  0  0  0  0  0  0
    1.4908    1.4449   -1.4622 H   0  0  0  0  0  0  0  0  0  0  0  0
   -3.2831    5.7826    0.8274 H   0  0  0  0  0  0  0  0  0  0  0  0
    3.2725    1.4518   -3.1397 H   0  0  0  0  0  0  0  0  0  0  0  0
    5.4071    0.2805   -2.7181 H   0  0  0  0  0  0  0  0  0  0  0  0
    7.3319    0.5516   -0.5566 H   0  0  0  0  0  0  0  0  0  0  0  0
    6.7304    0.0545    1.0582 H   0  0  0  0  0  0  0  0  0  0  0  0
    7.9175   -0.9480    0.1961 H   0  0  0  0  0  0  0  0  0  0  0  0
  1 14  2  0  0  0  0
  2 17  1  0  0  0  0
  2 56  1  0  0  0  0
  3 17  2  0  0  0  0
  4 26  1  0  0  0  0
  4 29  1  0  0  0  0
  5  9  1  0  0  0  0
  5 11  1  0  0  0  0
  5 14  1  0  0  0  0
  6 15  2  0  0  0  0
  6 24  1  0  0  0  0
  7  8  1  0  0  0  0
  7  9  1  0  0  0  0
  7 12  1  0  0  0  0
  7 30  1  0  0  0  0
  8 10  1  0  0  0  0
  8 13  1  0  0  0  0
  8 31  1  0  0  0  0
  9 32  1  0  0  0  0
  9 33  1  0  0  0  0
 10 11  1  0  0  0  0
 10 34  1  0  0  0  0
 10 35  1  0  0  0  0
 11 36  1  0  0  0  0
 11 37  1  0  0  0  0
 12 15  1  0  0  0  0
 12 38  1  0  0  0  0
 12 39  1  0  0  0  0
 13 17  1  0  0  0  0
 13 40  1  0  0  0  0
 13 41  1  0  0  0  0
 14 16  1  0  0  0  0
 15 18  1  0  0  0  0
 16 19  1  0  0  0  0
 16 20  1  0  0  0  0
 16 21  1  0  0  0  0
 18 22  2  0  0  0  0
 18 25  1  0  0  0  0
 19 42  1  0  0  0  0
 19 43  1  0  0  0  0
 19 44  1  0  0  0  0
 20 45  1  0  0  0  0
 20 46  1  0  0  0  0
 20 47  1  0  0  0  0
 21 48  1  0  0  0  0
 21 49  1  0  0  0  0
 21 50  1  0  0  0  0
 22 23  1  0  0  0  0
 22 26  1  0  0  0  0
 23 24  1  0  0  0  0
 23 51  1  0  0  0  0
 23 52  1  0  0  0  0
 24 53  1  0  0  0  0
 24 54  1  0  0  0  0
 25 27  2  0  0  0  0
 25 55  1  0  0  0  0
 26 28  2  0  0  0  0
 27 28  1  0  0  0  0
 27 57  1  0  0  0  0
 28 58  1  0  0  0  0
 29 59  1  0  0  0  0
 29 60  1  0  0  0  0
 29 61  1  0  0  0  0
M  END
> <PUBCHEM_COMPOUND_CID>
51136744

> <PUBCHEM_CONFORMER_RMSD>
1

> <PUBCHEM_CONFORMER_DIVERSEORDER>
1
5
30
22
21
18
31
37
6
24
33
47
48
10
27
32
43
28
50
41
29
36
13
40
42
51
39
34
49
9
54
25
52
35
26
46
15
53
45
44
16
12
17
11
38
14
4
23
7
3
19
2
20
8

> <PUBCHEM_MMFF94_PARTIAL_CHARGES>
27
1 -0.57
11 0.3
12 0.06
13 0.06
14 0.57
15 0.3
16 0.06
17 0.66
18 0.09
2 -0.65
22 -0.14
23 0.14
24 0.25
25 -0.15
26 0.08
27 -0.15
28 -0.15
29 0.28
3 -0.57
4 -0.36
5 -0.66
55 0.15
56 0.5
57 0.15
58 0.15
6 -0.7
9 0.3

> <PUBCHEM_EFFECTIVE_ROTOR_COUNT>
8.6

> <PUBCHEM_PHARMACOPHORE_FEATURES>
10
1 1 acceptor
1 2 acceptor
1 3 acceptor
1 4 acceptor
1 6 acceptor
3 2 3 17 anion
4 16 19 20 21 hydrophobe
6 18 22 25 26 27 28 rings
6 5 7 8 9 10 11 rings
6 6 15 18 22 23 24 rings

> <PUBCHEM_HEAVY_ATOM_COUNT>
29

> <PUBCHEM_ATOM_DEF_STEREO_COUNT>
2

> <PUBCHEM_ATOM_UDEF_STEREO_COUNT>
0

> <PUBCHEM_BOND_DEF_STEREO_COUNT>
0

> <PUBCHEM_BOND_UDEF_STEREO_COUNT>
0

> <PUBCHEM_ISOTOPIC_ATOM_COUNT>
0

> <PUBCHEM_COMPONENT_COUNT>
1

> <PUBCHEM_CACTVS_TAUTO_COUNT>
1

> <PUBCHEM_CONFORMER_ID>
030C48E800000001

> <PUBCHEM_MMFF94_ENERGY>
106.4662

> <PUBCHEM_FEATURE_SELFOVERLAP>
50.83

> <PUBCHEM_SHAPE_FINGERPRINT>
10622 236 17897140495281263954
10928967 22 18194956564159598763
10940486 97 18046908174193645830
11049842 53 17692803796804749178
11056379 131 18340768156725855665
11796584 16 18056765317728083414
12128747 34 15983447100175100955
12553582 1 18336823212443664227
12788726 201 18408038503302000275
13540713 5 17896589597216383274
13631057 29 18410290341764999226
13690498 29 18341894108304207166
14068700 675 18261950863989792790
14114206 34 18263906865390748063
14251757 5 18335421287799652259
14294032 229 18267591213176469777
14347332 77 18409731772346137838
14363568 33 17470185003425065011
14950920 106 14117234043744649535
14955137 171 18119828039061901627
15439362 3 17691688879181769772
15664445 248 17906731762700844585
15842332 3 17968935284501058176
15968369 26 17181643508236582279
16752209 62 18339632335634561049
1813 80 18127691754481120471
20505436 4 17898866642615797080
20775438 99 16897629789238174095
21033650 10 18192456129052060214
21120745 212 18338530728210924485
22393880 68 18333726910511273972
22849341 161 18195265523285015163
22907989 373 18408034113760865509
23559900 14 18341601668049305537
23598288 3 18261970535056364833
25147074 1 17895467021450417938
255183 313 18198365982592870865
3004659 81 18114453573731195618
3388396 114 17825971469984473812
340366 18 17757833321165830922
3610482 184 17898041021374149676
463206 1 18118682360108513251
5080951 261 17917699172054406855
6700243 42 17914368794521132228
70251023 43 18338241590605726689
7970288 3 18197497539567900535

> <PUBCHEM_SHAPE_MULTIPOLES>
563.37
12.53
4.89
1.78
13.75
4.76
-0.25
-8.07
-3.5
-10.63
0.3
1.42
-0.16
-1.94

> <PUBCHEM_SHAPE_SELFOVERLAP>
1186.147

> <PUBCHEM_SHAPE_VOLUME>
315.4

> <PUBCHEM_COORDINATE_TYPE>
2
5
10

$$$$
