45361514
  -OEChem-12032416353D

 75 78  0     1  0  0  0  0  0999 V2000
   -1.1947    2.5064    1.1708 O   0  0  0  0  0  0  0  0  0  0  0  0
   -3.7671    1.2293    2.3929 O   0  0  0  0  0  0  0  0  0  0  0  0
    4.5250    0.3183   -1.9478 O   0  0  0  0  0  0  0  0  0  0  0  0
    2.8258   -0.6195   -0.6747 N   0  0  0  0  0  0  0  0  0  0  0  0
   -5.1793    0.5018    0.7029 N   0  0  0  0  0  0  0  0  0  0  0  0
   -1.1273    0.4212   -2.0265 C   0  0  1  0  0  0  0  0  0  0  0  0
   -0.5670    1.2098   -0.7965 C   0  0  2  0  0  0  0  0  0  0  0  0
    0.6429    0.4468   -0.1471 C   0  0  1  0  0  0  0  0  0  0  0  0
   -1.7074    1.6111    0.1830 C   0  0  2  0  0  0  0  0  0  0  0  0
   -2.2397    1.2518   -2.7088 C   0  0  0  0  0  0  0  0  0  0  0  0
    0.0084    0.2200   -3.0563 C   0  0  0  0  0  0  0  0  0  0  0  0
   -2.8664    2.3508   -0.5250 C   0  0  1  0  0  0  0  0  0  0  0  0
    1.7466    0.1836   -1.2099 C   0  0  2  0  0  0  0  0  0  0  0  0
   -3.3771    1.6129   -1.7625 C   0  0  0  0  0  0  0  0  0  0  0  0
    1.2217   -0.4926   -2.4762 C   0  0  0  0  0  0  0  0  0  0  0  0
   -1.7086   -0.9602   -1.6318 C   0  0  0  0  0  0  0  0  0  0  0  0
   -4.0361    2.6211    0.4293 C   0  0  2  0  0  0  0  0  0  0  0  0
    1.2621    1.1823    1.0535 C   0  0  0  0  0  0  0  0  0  0  0  0
   -3.7440    3.8505    1.2825 C   0  0  0  0  0  0  0  0  0  0  0  0
   -4.2956    1.3922    1.2951 C   0  0  0  0  0  0  0  0  0  0  0  0
    4.1381   -0.4789   -1.0972 C   0  0  0  0  0  0  0  0  0  0  0  0
    5.0594   -1.4384   -0.3687 C   0  0  0  0  0  0  0  0  0  0  0  0
   -5.5783   -0.7367    1.3302 C   0  0  0  0  0  0  0  0  0  0  0  0
    6.1424   -0.7460    0.4158 C   0  0  0  0  0  0  0  0  0  0  0  0
   -4.6664   -1.8716    0.9635 C   0  0  0  0  0  0  0  0  0  0  0  0
    7.3680   -0.4635   -0.1872 C   0  0  0  0  0  0  0  0  0  0  0  0
    5.9200   -0.3871    1.7452 C   0  0  0  0  0  0  0  0  0  0  0  0
   -4.9433   -2.6543   -0.1574 C   0  0  0  0  0  0  0  0  0  0  0  0
   -3.5423   -2.1432    1.7433 C   0  0  0  0  0  0  0  0  0  0  0  0
    8.3714    0.1779    0.5392 C   0  0  0  0  0  0  0  0  0  0  0  0
    6.9232    0.2542    2.4717 C   0  0  0  0  0  0  0  0  0  0  0  0
    8.1490    0.5367    1.8686 C   0  0  0  0  0  0  0  0  0  0  0  0
   -4.0961   -3.7088   -0.4983 C   0  0  0  0  0  0  0  0  0  0  0  0
   -2.6952   -3.1976    1.4025 C   0  0  0  0  0  0  0  0  0  0  0  0
   -2.9721   -3.9804    0.2816 C   0  0  0  0  0  0  0  0  0  0  0  0
   -0.1464    2.1552   -1.1755 H   0  0  0  0  0  0  0  0  0  0  0  0
    0.2884   -0.5185    0.2363 H   0  0  0  0  0  0  0  0  0  0  0  0
   -2.0305    0.7018    0.6944 H   0  0  0  0  0  0  0  0  0  0  0  0
   -2.6491    0.7055   -3.5683 H   0  0  0  0  0  0  0  0  0  0  0  0
   -1.8133    2.1804   -3.1117 H   0  0  0  0  0  0  0  0  0  0  0  0
   -0.3591   -0.3463   -3.9216 H   0  0  0  0  0  0  0  0  0  0  0  0
    0.3323    1.1954   -3.4434 H   0  0  0  0  0  0  0  0  0  0  0  0
   -2.4838    3.3193   -0.8795 H   0  0  0  0  0  0  0  0  0  0  0  0
    2.1697    1.1545   -1.5029 H   0  0  0  0  0  0  0  0  0  0  0  0
   -4.0937    2.2464   -2.3002 H   0  0  0  0  0  0  0  0  0  0  0  0
   -3.9161    0.6997   -1.5031 H   0  0  0  0  0  0  0  0  0  0  0  0
    0.9792   -1.5426   -2.2712 H   0  0  0  0  0  0  0  0  0  0  0  0
    2.0121   -0.5207   -3.2374 H   0  0  0  0  0  0  0  0  0  0  0  0
   -0.9588   -1.6321   -1.2072 H   0  0  0  0  0  0  0  0  0  0  0  0
   -2.1334   -1.4656   -2.5068 H   0  0  0  0  0  0  0  0  0  0  0  0
   -2.5030   -0.8689   -0.8904 H   0  0  0  0  0  0  0  0  0  0  0  0
   -4.9418    2.8501   -0.1478 H   0  0  0  0  0  0  0  0  0  0  0  0
    0.5922    1.1609    1.9176 H   0  0  0  0  0  0  0  0  0  0  0  0
    2.1886    0.7067    1.3913 H   0  0  0  0  0  0  0  0  0  0  0  0
    1.4956    2.2227    0.8050 H   0  0  0  0  0  0  0  0  0  0  0  0
    2.5851   -1.3503   -0.0117 H   0  0  0  0  0  0  0  0  0  0  0  0
   -0.8365    3.2866    0.7139 H   0  0  0  0  0  0  0  0  0  0  0  0
   -3.4135    4.6988    0.6743 H   0  0  0  0  0  0  0  0  0  0  0  0
   -4.6632    4.1610    1.7946 H   0  0  0  0  0  0  0  0  0  0  0  0
   -3.0116    3.6791    2.0749 H   0  0  0  0  0  0  0  0  0  0  0  0
   -5.5987    0.7293   -0.1933 H   0  0  0  0  0  0  0  0  0  0  0  0
    4.5002   -2.1057    0.2985 H   0  0  0  0  0  0  0  0  0  0  0  0
    5.5064   -2.0969   -1.1246 H   0  0  0  0  0  0  0  0  0  0  0  0
   -6.6051   -0.9510    1.0123 H   0  0  0  0  0  0  0  0  0  0  0  0
   -5.6046   -0.6043    2.4183 H   0  0  0  0  0  0  0  0  0  0  0  0
    7.5529   -0.7365   -1.2227 H   0  0  0  0  0  0  0  0  0  0  0  0
    4.9682   -0.5999    2.2248 H   0  0  0  0  0  0  0  0  0  0  0  0
   -5.8142   -2.4508   -0.7747 H   0  0  0  0  0  0  0  0  0  0  0  0
   -3.3146   -1.5433    2.6200 H   0  0  0  0  0  0  0  0  0  0  0  0
    9.3256    0.3983    0.0696 H   0  0  0  0  0  0  0  0  0  0  0  0
    6.7499    0.5342    3.5066 H   0  0  0  0  0  0  0  0  0  0  0  0
    8.9300    1.0364    2.4342 H   0  0  0  0  0  0  0  0  0  0  0  0
   -4.3106   -4.3171   -1.3721 H   0  0  0  0  0  0  0  0  0  0  0  0
   -1.8193   -3.4084    2.0090 H   0  0  0  0  0  0  0  0  0  0  0  0
   -2.3115   -4.8003    0.0154 H   0  0  0  0  0  0  0  0  0  0  0  0
  1  9  1  0  0  0  0
  1 57  1  0  0  0  0
  2 20  2  0  0  0  0
  3 21  2  0  0  0  0
  4 13  1  0  0  0  0
  4 21  1  0  0  0  0
  4 56  1  0  0  0  0
  5 20  1  0  0  0  0
  5 23  1  0  0  0  0
  5 61  1  0  0  0  0
  6  7  1  0  0  0  0
  6 10  1  0  0  0  0
  6 11  1  0  0  0  0
  6 16  1  0  0  0  0
  7  8  1  0  0  0  0
  7  9  1  0  0  0  0
  7 36  1  0  0  0  0
  8 13  1  0  0  0  0
  8 18  1  0  0  0  0
  8 37  1  0  0  0  0
  9 12  1  0  0  0  0
  9 38  1  0  0  0  0
 10 14  1  0  0  0  0
 10 39  1  0  0  0  0
 10 40  1  0  0  0  0
 11 15  1  0  0  0  0
 11 41  1  0  0  0  0
 11 42  1  0  0  0  0
 12 14  1  0  0  0  0
 12 17  1  0  0  0  0
 12 43  1  0  0  0  0
 13 15  1  0  0  0  0
 13 44  1  0  0  0  0
 14 45  1  0  0  0  0
 14 46  1  0  0  0  0
 15 47  1  0  0  0  0
 15 48  1  0  0  0  0
 16 49  1  0  0  0  0
 16 50  1  0  0  0  0
 16 51  1  0  0  0  0
 17 19  1  0  0  0  0
 17 20  1  0  0  0  0
 17 52  1  0  0  0  0
 18 53  1  0  0  0  0
 18 54  1  0  0  0  0
 18 55  1  0  0  0  0
 19 58  1  0  0  0  0
 19 59  1  0  0  0  0
 19 60  1  0  0  0  0
 21 22  1  0  0  0  0
 22 24  1  0  0  0  0
 22 62  1  0  0  0  0
 22 63  1  0  0  0  0
 23 25  1  0  0  0  0
 23 64  1  0  0  0  0
 23 65  1  0  0  0  0
 24 26  2  0  0  0  0
 24 27  1  0  0  0  0
 25 28  2  0  0  0  0
 25 29  1  0  0  0  0
 26 30  1  0  0  0  0
 26 66  1  0  0  0  0
 27 31  2  0  0  0  0
 27 67  1  0  0  0  0
 28 33  1  0  0  0  0
 28 68  1  0  0  0  0
 29 34  2  0  0  0  0
 29 69  1  0  0  0  0
 30 32  2  0  0  0  0
 30 70  1  0  0  0  0
 31 32  1  0  0  0  0
 31 71  1  0  0  0  0
 32 72  1  0  0  0  0
 33 35  2  0  0  0  0
 33 73  1  0  0  0  0
 34 35  1  0  0  0  0
 34 74  1  0  0  0  0
 35 75  1  0  0  0  0
M  END
> <PUBCHEM_COMPOUND_CID>
45361514

> <PUBCHEM_CONFORMER_RMSD>
1.4

> <PUBCHEM_CONFORMER_DIVERSEORDER>
1
35
10
24
42
82
22
88
72
52
91
103
78
93
77
62
57
65
66
96
48
12
86
3
67
9
19
89
60
97
69
43
14
105
54
49
11
50
102
74
25
15
104
92
36
23
84
26
41
34
17
30
46
87
94
70
4
64
85
68
44
80
20
100
101
7
79
75
45
53
58
29
38
76
28
37
47
99
90
71
59
5
33
55
13
51
95
21
73
39
56
31
8
16
27
98
18
40
32
81
83
63
6
2
61

> <PUBCHEM_MMFF94_PARTIAL_CHARGES>
37
1 -0.68
13 0.3
17 0.06
2 -0.57
20 0.57
21 0.57
22 0.2
23 0.44
24 -0.14
25 -0.14
26 -0.15
27 -0.15
28 -0.15
29 -0.15
3 -0.57
30 -0.15
31 -0.15
32 -0.15
33 -0.15
34 -0.15
35 -0.15
4 -0.73
5 -0.73
56 0.37
57 0.4
61 0.37
66 0.15
67 0.15
68 0.15
69 0.15
70 0.15
71 0.15
72 0.15
73 0.15
74 0.15
75 0.15
9 0.28

> <PUBCHEM_EFFECTIVE_ROTOR_COUNT>
10.6

> <PUBCHEM_PHARMACOPHORE_FEATURES>
11
1 1 acceptor
1 1 donor
1 19 hydrophobe
1 2 acceptor
1 3 acceptor
1 4 donor
1 5 donor
6 24 26 27 30 31 32 rings
6 25 28 29 33 34 35 rings
6 6 7 8 11 13 15 rings
6 6 7 9 10 12 14 rings

> <PUBCHEM_HEAVY_ATOM_COUNT>
35

> <PUBCHEM_ATOM_DEF_STEREO_COUNT>
6

> <PUBCHEM_ATOM_UDEF_STEREO_COUNT>
1

> <PUBCHEM_BOND_DEF_STEREO_COUNT>
0

> <PUBCHEM_BOND_UDEF_STEREO_COUNT>
0

> <PUBCHEM_ISOTOPIC_ATOM_COUNT>
0

> <PUBCHEM_COMPONENT_COUNT>
1

> <PUBCHEM_CACTVS_TAUTO_COUNT>
4

> <PUBCHEM_CONFORMER_ID>
02B4296A00000001

> <PUBCHEM_MMFF94_ENERGY>
97.9478

> <PUBCHEM_FEATURE_SELFOVERLAP>
55.836

> <PUBCHEM_SHAPE_FINGERPRINT>
10 15 17846778477640645072
10674148 151 15502642828954501575
10930396 42 18342739611898956225
11007060 377 15985095310674722420
11135926 11 13623524624033433889
12422481 6 17560799991676124136
12712778 12 18337118933837347547
13782708 43 16805322172387573084
14068700 675 18115587191810171087
14659021 117 18342735230963599251
15021287 119 16805330985116866550
15320294 125 17895487994119374999
18603816 31 16225766328710259537
19611394 137 18202285814549325512
21033648 29 16701483216002317087
23536364 44 13406787839567002143
23569914 152 13770689857575490610
397830 11 18272088323202525688
4073 2 18342736283267555434
484985 159 18334285501157968159
5080951 261 18113610179956698661
5104073 3 18340477869310223034
5364581 5 18200872997599713088
9953998 17 18410576175637604344

> <PUBCHEM_SHAPE_MULTIPOLES>
692.71
18.92
3.74
2.7
47.11
1.82
0.92
4.2
-11.62
-9.41
-1.23
0.34
-0.73
0.23

> <PUBCHEM_SHAPE_SELFOVERLAP>
1461.808

> <PUBCHEM_SHAPE_VOLUME>
383.8

> <PUBCHEM_COORDINATE_TYPE>
2
5
10

$$$$
