44716833
  -OEChem-12032416123D

 68 70  0     1  0  0  0  0  0999 V2000
    3.9805    3.2297   -0.2391 S   0  0  0  0  0  0  0  0  0  0  0  0
    0.2461    0.4313    1.8232 O   0  0  0  0  0  0  0  0  0  0  0  0
   -3.6878    2.8146    0.7881 O   0  0  0  0  0  0  0  0  0  0  0  0
    4.0299    3.7173    1.1262 O   0  0  0  0  0  0  0  0  0  0  0  0
    4.8752    3.7761   -1.2414 O   0  0  0  0  0  0  0  0  0  0  0  0
   -4.9452    1.0714   -0.5371 O   0  0  0  0  0  0  0  0  0  0  0  0
   -2.8906   -2.0100    2.0702 O   0  0  0  0  0  0  0  0  0  0  0  0
   -7.7953   -0.6299   -1.8972 O   0  0  0  0  0  0  0  0  0  0  0  0
   -7.6675    1.1161   -0.4403 O   0  0  0  0  0  0  0  0  0  0  0  0
   -1.5446    2.0722    0.2628 N   0  0  0  0  0  0  0  0  0  0  0  0
    2.3871    3.3268   -0.8173 N   0  0  0  0  0  0  0  0  0  0  0  0
   -0.7718   -1.2035    0.5150 N   0  0  0  0  0  0  0  0  0  0  0  0
    4.3666    0.7383   -1.3508 N   0  0  0  0  0  0  0  0  0  0  0  0
    4.5650   -0.5702    0.4324 N   0  0  0  0  0  0  0  0  0  0  0  0
   -1.3997   -2.8018    3.6280 N   0  0  0  0  0  0  0  0  0  0  0  0
    1.2851    2.6894   -0.0560 C   0  0  2  0  0  0  0  0  0  0  0  0
    0.6146    1.6297   -0.9312 C   0  0  0  0  0  0  0  0  0  0  0  0
   -0.6531    1.0458   -0.3030 C   0  0  1  0  0  0  0  0  0  0  0  0
    0.2764    3.7536    0.3645 C   0  0  0  0  0  0  0  0  0  0  0  0
   -0.9109    3.1178    1.0758 C   0  0  0  0  0  0  0  0  0  0  0  0
   -0.3423    0.0806    0.8036 C   0  0  0  0  0  0  0  0  0  0  0  0
   -2.9422    2.0266    0.1999 C   0  0  0  0  0  0  0  0  0  0  0  0
   -0.5735   -2.3227    1.4075 C   0  0  2  0  0  0  0  0  0  0  0  0
   -3.5494    0.9425   -0.6559 C   0  0  0  0  0  0  0  0  0  0  0  0
    4.2499    1.4831   -0.2039 C   0  0  0  0  0  0  0  0  0  0  0  0
   -0.4878   -3.6557    0.6554 C   0  0  0  0  0  0  0  0  0  0  0  0
   -1.7463   -2.3357    2.3772 C   0  0  0  0  0  0  0  0  0  0  0  0
    4.3694    0.6930    0.9152 C   0  0  0  0  0  0  0  0  0  0  0  0
    0.6428   -3.6907   -0.3440 C   0  0  0  0  0  0  0  0  0  0  0  0
    4.5560   -0.4934   -0.9325 C   0  0  0  0  0  0  0  0  0  0  0  0
   -5.6415    0.0933   -1.3076 C   0  0  0  0  0  0  0  0  0  0  0  0
    0.4257   -3.2738   -1.6572 C   0  0  0  0  0  0  0  0  0  0  0  0
    1.9046   -4.1397    0.0455 C   0  0  0  0  0  0  0  0  0  0  0  0
    4.7476   -1.7661    1.2184 C   0  0  0  0  0  0  0  0  0  0  0  0
    1.4703   -3.3060   -2.5811 C   0  0  0  0  0  0  0  0  0  0  0  0
    2.9493   -4.1719   -0.8781 C   0  0  0  0  0  0  0  0  0  0  0  0
   -7.1245    0.2774   -1.1437 C   0  0  0  0  0  0  0  0  0  0  0  0
    2.7320   -3.7552   -2.1915 C   0  0  0  0  0  0  0  0  0  0  0  0
    1.6901    2.2256    0.8491 H   0  0  0  0  0  0  0  0  0  0  0  0
    0.3405    2.0853   -1.8930 H   0  0  0  0  0  0  0  0  0  0  0  0
    1.3265    0.8281   -1.1635 H   0  0  0  0  0  0  0  0  0  0  0  0
   -1.1743    0.5200   -1.1073 H   0  0  0  0  0  0  0  0  0  0  0  0
    0.7530    4.4900    1.0224 H   0  0  0  0  0  0  0  0  0  0  0  0
   -0.0767    4.3028   -0.5184 H   0  0  0  0  0  0  0  0  0  0  0  0
   -1.6390    3.9014    1.3119 H   0  0  0  0  0  0  0  0  0  0  0  0
   -0.6099    2.6826    2.0337 H   0  0  0  0  0  0  0  0  0  0  0  0
    2.2327    3.4282   -1.8283 H   0  0  0  0  0  0  0  0  0  0  0  0
   -1.3197   -1.3686   -0.3237 H   0  0  0  0  0  0  0  0  0  0  0  0
    0.3544   -2.1467    1.9666 H   0  0  0  0  0  0  0  0  0  0  0  0
   -3.2417   -0.0388   -0.2863 H   0  0  0  0  0  0  0  0  0  0  0  0
   -3.2458    1.0871   -1.6977 H   0  0  0  0  0  0  0  0  0  0  0  0
   -1.4335   -3.8603    0.1344 H   0  0  0  0  0  0  0  0  0  0  0  0
   -0.3702   -4.4827    1.3682 H   0  0  0  0  0  0  0  0  0  0  0  0
    4.3317    0.9095    1.9739 H   0  0  0  0  0  0  0  0  0  0  0  0
    4.6953   -1.3579   -1.5665 H   0  0  0  0  0  0  0  0  0  0  0  0
   -5.3716   -0.9081   -0.9558 H   0  0  0  0  0  0  0  0  0  0  0  0
   -5.3871    0.2159   -2.3656 H   0  0  0  0  0  0  0  0  0  0  0  0
   -0.4543   -3.0886    3.8606 H   0  0  0  0  0  0  0  0  0  0  0  0
   -2.0916   -2.8747    4.3664 H   0  0  0  0  0  0  0  0  0  0  0  0
   -0.5530   -2.9263   -1.9770 H   0  0  0  0  0  0  0  0  0  0  0  0
    2.0866   -4.4646    1.0665 H   0  0  0  0  0  0  0  0  0  0  0  0
    3.7667   -2.0988    1.5647 H   0  0  0  0  0  0  0  0  0  0  0  0
    5.2215   -2.5349    0.6038 H   0  0  0  0  0  0  0  0  0  0  0  0
    5.3912   -1.5303    2.0699 H   0  0  0  0  0  0  0  0  0  0  0  0
    1.3012   -2.9818   -3.6037 H   0  0  0  0  0  0  0  0  0  0  0  0
    3.9315   -4.5226   -0.5756 H   0  0  0  0  0  0  0  0  0  0  0  0
    3.5456   -3.7798   -2.9105 H   0  0  0  0  0  0  0  0  0  0  0  0
   -8.7674   -0.5318   -1.8092 H   0  0  0  0  0  0  0  0  0  0  0  0
  1  4  2  0  0  0  0
  1  5  2  0  0  0  0
  1 11  1  0  0  0  0
  1 25  1  0  0  0  0
  2 21  2  0  0  0  0
  3 22  2  0  0  0  0
  6 24  1  0  0  0  0
  6 31  1  0  0  0  0
  7 27  2  0  0  0  0
  8 37  1  0  0  0  0
  8 68  1  0  0  0  0
  9 37  2  0  0  0  0
 10 18  1  0  0  0  0
 10 20  1  0  0  0  0
 10 22  1  0  0  0  0
 11 16  1  0  0  0  0
 11 47  1  0  0  0  0
 12 21  1  0  0  0  0
 12 23  1  0  0  0  0
 12 48  1  0  0  0  0
 13 25  1  0  0  0  0
 13 30  2  0  0  0  0
 14 28  1  0  0  0  0
 14 30  1  0  0  0  0
 14 34  1  0  0  0  0
 15 27  1  0  0  0  0
 15 58  1  0  0  0  0
 15 59  1  0  0  0  0
 16 17  1  0  0  0  0
 16 19  1  0  0  0  0
 16 39  1  0  0  0  0
 17 18  1  0  0  0  0
 17 40  1  0  0  0  0
 17 41  1  0  0  0  0
 18 21  1  0  0  0  0
 18 42  1  0  0  0  0
 19 20  1  0  0  0  0
 19 43  1  0  0  0  0
 19 44  1  0  0  0  0
 20 45  1  0  0  0  0
 20 46  1  0  0  0  0
 22 24  1  0  0  0  0
 23 26  1  0  0  0  0
 23 27  1  0  0  0  0
 23 49  1  0  0  0  0
 24 50  1  0  0  0  0
 24 51  1  0  0  0  0
 25 28  2  0  0  0  0
 26 29  1  0  0  0  0
 26 52  1  0  0  0  0
 26 53  1  0  0  0  0
 28 54  1  0  0  0  0
 29 32  2  0  0  0  0
 29 33  1  0  0  0  0
 30 55  1  0  0  0  0
 31 37  1  0  0  0  0
 31 56  1  0  0  0  0
 31 57  1  0  0  0  0
 32 35  1  0  0  0  0
 32 60  1  0  0  0  0
 33 36  2  0  0  0  0
 33 61  1  0  0  0  0
 34 62  1  0  0  0  0
 34 63  1  0  0  0  0
 34 64  1  0  0  0  0
 35 38  2  0  0  0  0
 35 65  1  0  0  0  0
 36 38  1  0  0  0  0
 36 66  1  0  0  0  0
 38 67  1  0  0  0  0
M  END
> <PUBCHEM_COMPOUND_CID>
44716833

> <PUBCHEM_CONFORMER_RMSD>
1.4

> <PUBCHEM_CONFORMER_DIVERSEORDER>
1
16
32
26
28
40
8
41
33
42
36
43
25
23
10
35
14
39
30
24
37
11
9
15
6
7
17
21
29
34
20
38
12
3
2
22
31
4
19
18
27
5
13

> <PUBCHEM_MMFF94_PARTIAL_CHARGES>
48
1 1.5
10 -0.66
11 -0.91
12 -0.73
13 -0.57
14 0.05
15 -0.8
16 0.36
18 0.36
2 -0.57
20 0.3
21 0.57
22 0.57
23 0.36
24 0.34
25 0.16
26 0.14
27 0.57
28 -0.3
29 -0.14
3 -0.57
30 0.04
31 0.34
32 -0.15
33 -0.15
34 0.26
35 -0.15
36 -0.15
37 0.66
38 -0.15
4 -0.65
47 0.42
48 0.37
5 -0.65
54 0.15
55 0.15
58 0.37
59 0.37
6 -0.56
60 0.15
61 0.15
65 0.15
66 0.15
67 0.15
68 0.5
7 -0.57
8 -0.65
9 -0.57

> <PUBCHEM_EFFECTIVE_ROTOR_COUNT>
15.2

> <PUBCHEM_PHARMACOPHORE_FEATURES>
16
1 11 donor
1 12 donor
1 15 donor
1 2 acceptor
1 3 acceptor
1 4 acceptor
1 5 acceptor
1 6 acceptor
1 7 acceptor
1 8 acceptor
1 9 acceptor
3 13 14 30 cation
3 8 9 37 anion
5 13 14 25 28 30 rings
6 10 16 17 18 19 20 rings
6 29 32 33 35 36 38 rings

> <PUBCHEM_HEAVY_ATOM_COUNT>
38

> <PUBCHEM_ATOM_DEF_STEREO_COUNT>
3

> <PUBCHEM_ATOM_UDEF_STEREO_COUNT>
0

> <PUBCHEM_BOND_DEF_STEREO_COUNT>
0

> <PUBCHEM_BOND_UDEF_STEREO_COUNT>
0

> <PUBCHEM_ISOTOPIC_ATOM_COUNT>
0

> <PUBCHEM_COMPONENT_COUNT>
1

> <PUBCHEM_CACTVS_TAUTO_COUNT>
4

> <PUBCHEM_CONFORMER_ID>
02AA532100000001

> <PUBCHEM_MMFF94_ENERGY>
76.0387

> <PUBCHEM_FEATURE_SELFOVERLAP>
81.3

> <PUBCHEM_SHAPE_FINGERPRINT>
10675989 125 18341045293849199868
11135609 187 18409725183956476725
1361 2 18341890788278520324
13773456 30 18341610486350432596
14117953 113 18411980261441411302
14725015 67 18190166911335482442
15264996 163 17617099548326277870
15484559 13 18189594138660362829
20028762 73 18343578525473599621
21344244 246 18412261701372919127
5080951 261 17757238820900215380

> <PUBCHEM_SHAPE_MULTIPOLES>
709.03
12.72
6.86
2.2
23.5
1.93
0.93
-5.17
-6.16
-7.11
-0.65
0.74
2.49
1.11

> <PUBCHEM_SHAPE_SELFOVERLAP>
1468.817

> <PUBCHEM_SHAPE_VOLUME>
404.1

> <PUBCHEM_COORDINATE_TYPE>
2
5
10

$$$$
