45783336
  -OEChem-12032416263D

 64 68  0     1  0  0  0  0  0999 V2000
   -0.3052    1.5000   -0.2442 F   0  0  0  0  0  0  0  0  0  0  0  0
    1.1109    2.8660    0.7070 F   0  0  0  0  0  0  0  0  0  0  0  0
   -0.3967    3.6695   -0.6557 F   0  0  0  0  0  0  0  0  0  0  0  0
   -3.2966   -2.2457    0.6545 O   0  0  0  0  0  0  0  0  0  0  0  0
    6.0691    2.0679   -0.3105 O   0  0  0  0  0  0  0  0  0  0  0  0
   -1.0355    2.9074    1.4041 O   0  0  0  0  0  0  0  0  0  0  0  0
   -3.8914    0.0585   -1.9312 N   0  0  1  0  0  0  0  0  0  0  0  0
    3.4661   -0.8612    0.0055 N   0  0  0  0  0  0  0  0  0  0  0  0
   -1.5434   -1.4564   -0.4945 N   0  0  0  0  0  0  0  0  0  0  0  0
   -2.1783   -2.4248    1.4786 N   0  0  0  0  0  0  0  0  0  0  0  0
    2.8337   -1.8613    2.0562 N   0  0  0  0  0  0  0  0  0  0  0  0
    7.7821    0.6356   -0.8660 N   0  0  0  0  0  0  0  0  0  0  0  0
   -3.8647   -1.3691   -1.5551 C   0  0  1  0  0  0  0  0  0  0  0  0
   -3.5896   -2.1159   -2.8734 C   0  0  0  0  0  0  0  0  0  0  0  0
   -3.5385   -1.0323   -3.9411 C   0  0  0  0  0  0  0  0  0  0  0  0
   -4.3232    0.1099   -3.3281 C   0  0  0  0  0  0  0  0  0  0  0  0
    5.5667    0.1884   -1.7020 C   0  0  0  0  0  0  0  0  0  0  0  0
   -4.7411    0.8650   -1.0646 C   0  0  0  0  0  0  0  0  0  0  0  0
    4.1442    0.7427   -1.7393 C   0  0  0  0  0  0  0  0  0  0  0  0
    5.5894   -1.2468   -1.1800 C   0  0  0  0  0  0  0  0  0  0  0  0
    3.3744    0.5341   -0.4334 C   0  0  0  0  0  0  0  0  0  0  0  0
    4.8202   -1.4143    0.1301 C   0  0  0  0  0  0  0  0  0  0  0  0
   -2.8348   -1.6706   -0.4867 C   0  0  0  0  0  0  0  0  0  0  0  0
   -4.0555    1.2080    0.2312 C   0  0  0  0  0  0  0  0  0  0  0  0
    2.4748   -1.3878    0.8418 C   0  0  0  0  0  0  0  0  0  0  0  0
    6.4748    1.0609   -0.8857 C   0  0  0  0  0  0  0  0  0  0  0  0
   -1.1841   -1.9352    0.7318 C   0  0  0  0  0  0  0  0  0  0  0  0
    1.1750   -1.3897    0.3618 C   0  0  0  0  0  0  0  0  0  0  0  0
    0.1794   -1.9112    1.1807 C   0  0  0  0  0  0  0  0  0  0  0  0
   -2.8490    1.9079    0.2177 C   0  0  0  0  0  0  0  0  0  0  0  0
   -4.6262    0.8252    1.4452 C   0  0  0  0  0  0  0  0  0  0  0  0
    0.5096   -2.4077    2.4368 C   0  0  0  0  0  0  0  0  0  0  0  0
   -2.2132    2.2254    1.4180 C   0  0  0  0  0  0  0  0  0  0  0  0
    1.8391   -2.3603    2.8240 C   0  0  0  0  0  0  0  0  0  0  0  0
   -3.9903    1.1425    2.6455 C   0  0  0  0  0  0  0  0  0  0  0  0
   -2.7840    1.8427    2.6320 C   0  0  0  0  0  0  0  0  0  0  0  0
   -0.1685    2.7326    0.2891 C   0  0  0  0  0  0  0  0  0  0  0  0
   -4.8508   -1.6953   -1.1953 H   0  0  0  0  0  0  0  0  0  0  0  0
   -4.4188   -2.8013   -3.0879 H   0  0  0  0  0  0  0  0  0  0  0  0
   -2.6643   -2.7020   -2.8690 H   0  0  0  0  0  0  0  0  0  0  0  0
   -2.4982   -0.7310   -4.1165 H   0  0  0  0  0  0  0  0  0  0  0  0
   -3.9605   -1.3686   -4.8926 H   0  0  0  0  0  0  0  0  0  0  0  0
   -4.0774    1.0658   -3.8008 H   0  0  0  0  0  0  0  0  0  0  0  0
   -5.4008   -0.0719   -3.4282 H   0  0  0  0  0  0  0  0  0  0  0  0
    5.9657    0.1979   -2.7253 H   0  0  0  0  0  0  0  0  0  0  0  0
   -4.9670    1.8243   -1.5515 H   0  0  0  0  0  0  0  0  0  0  0  0
   -5.7146    0.3876   -0.8913 H   0  0  0  0  0  0  0  0  0  0  0  0
    3.5992    0.2272   -2.5418 H   0  0  0  0  0  0  0  0  0  0  0  0
    4.1405    1.8078   -2.0004 H   0  0  0  0  0  0  0  0  0  0  0  0
    6.6046   -1.6362   -1.0519 H   0  0  0  0  0  0  0  0  0  0  0  0
    5.1160   -1.8876   -1.9368 H   0  0  0  0  0  0  0  0  0  0  0  0
    3.7598    1.1866    0.3585 H   0  0  0  0  0  0  0  0  0  0  0  0
    2.3358    0.8368   -0.6069 H   0  0  0  0  0  0  0  0  0  0  0  0
    4.7821   -2.4866    0.3607 H   0  0  0  0  0  0  0  0  0  0  0  0
    5.3497   -0.9185    0.9530 H   0  0  0  0  0  0  0  0  0  0  0  0
    0.9485   -1.0115   -0.6308 H   0  0  0  0  0  0  0  0  0  0  0  0
   -2.4491    2.2318   -0.7392 H   0  0  0  0  0  0  0  0  0  0  0  0
   -5.5643    0.2774    1.4708 H   0  0  0  0  0  0  0  0  0  0  0  0
    8.4850    1.1479   -0.3434 H   0  0  0  0  0  0  0  0  0  0  0  0
    8.1114   -0.1633   -1.3977 H   0  0  0  0  0  0  0  0  0  0  0  0
   -0.2238   -2.8257    3.1185 H   0  0  0  0  0  0  0  0  0  0  0  0
    2.1491   -2.7346    3.7941 H   0  0  0  0  0  0  0  0  0  0  0  0
   -4.4338    0.8432    3.5906 H   0  0  0  0  0  0  0  0  0  0  0  0
   -2.2928    2.0861    3.5701 H   0  0  0  0  0  0  0  0  0  0  0  0
  1 37  1  0  0  0  0
  2 37  1  0  0  0  0
  3 37  1  0  0  0  0
  4 10  1  0  0  0  0
  4 23  1  0  0  0  0
  5 26  2  0  0  0  0
  6 33  1  0  0  0  0
  6 37  1  0  0  0  0
  7 13  1  0  0  0  0
  7 16  1  0  0  0  0
  7 18  1  0  0  0  0
  8 21  1  0  0  0  0
  8 22  1  0  0  0  0
  8 25  1  0  0  0  0
  9 23  2  0  0  0  0
  9 27  1  0  0  0  0
 10 27  2  0  0  0  0
 11 25  2  0  0  0  0
 11 34  1  0  0  0  0
 12 26  1  0  0  0  0
 12 59  1  0  0  0  0
 12 60  1  0  0  0  0
 13 14  1  0  0  0  0
 13 23  1  0  0  0  0
 13 38  1  0  0  0  0
 14 15  1  0  0  0  0
 14 39  1  0  0  0  0
 14 40  1  0  0  0  0
 15 16  1  0  0  0  0
 15 41  1  0  0  0  0
 15 42  1  0  0  0  0
 16 43  1  0  0  0  0
 16 44  1  0  0  0  0
 17 19  1  0  0  0  0
 17 20  1  0  0  0  0
 17 26  1  0  0  0  0
 17 45  1  0  0  0  0
 18 24  1  0  0  0  0
 18 46  1  0  0  0  0
 18 47  1  0  0  0  0
 19 21  1  0  0  0  0
 19 48  1  0  0  0  0
 19 49  1  0  0  0  0
 20 22  1  0  0  0  0
 20 50  1  0  0  0  0
 20 51  1  0  0  0  0
 21 52  1  0  0  0  0
 21 53  1  0  0  0  0
 22 54  1  0  0  0  0
 22 55  1  0  0  0  0
 24 30  2  0  0  0  0
 24 31  1  0  0  0  0
 25 28  1  0  0  0  0
 27 29  1  0  0  0  0
 28 29  2  0  0  0  0
 28 56  1  0  0  0  0
 29 32  1  0  0  0  0
 30 33  1  0  0  0  0
 30 57  1  0  0  0  0
 31 35  2  0  0  0  0
 31 58  1  0  0  0  0
 32 34  2  0  0  0  0
 32 61  1  0  0  0  0
 33 36  2  0  0  0  0
 34 62  1  0  0  0  0
 35 36  1  0  0  0  0
 35 63  1  0  0  0  0
 36 64  1  0  0  0  0
M  END
> <PUBCHEM_COMPOUND_CID>
45783336

> <PUBCHEM_CONFORMER_RMSD>
1

> <PUBCHEM_CONFORMER_DIVERSEORDER>
1
161
11
260
275
256
218
210
73
56
183
198
153
265
112
85
22
230
216
60
246
74
107
83
257
101
189
225
185
121
186
149
266
105
147
175
290
244
288
247
285
206
243
119
166
289
274
42
114
250
78
291
238
251
172
145
104
255
79
151
91
245
146
240
269
232
259
174
27
261
93
140
283
40
68
267
123
281
113
132
30
77
165
222
205
234
106
211
31
184
157
176
36
137
12
163
65
284
231
33
139
128
258
10
8
25
201
20
99
96
226
97
273
72
154
170
193
249
84
138
111
54
66
173
221
167
271
191
280
122
46
188
268
115
133
87
248
51
223
142
75
239
110
162
131
254
158
217
241
264
86
215
125
263
15
155
49
13
200
156
4
252
7
124
144
90
102
53
182
39
242
190
14
69
19
41
9
98
129
94
120
28
262
127
48
236
181
50
279
164
130
118
108
277
71
187
171
47
88
219
44
148
136
203
287
224
228
194
5
3
202
58
178
16
207
276
117
109
24
195
18
80
233
6
76
168
282
214
160
278
17
116
37
89
126
159
180
141
235
52
67
38
82
26
272
212
196
43
2
62
143
55
286
103
134
152
92
197
150
135
177
32
192
208
204
209
179
59
57
199
270
81
61
100
237
64
220
95
70
213
169
29
229
63
253
34
35
227
45
23
21

> <PUBCHEM_MMFF94_PARTIAL_CHARGES>
42
1 -0.34
10 -0.41
11 -0.62
12 -0.8
13 0.45
16 0.27
17 0.06
18 0.41
2 -0.34
21 0.37
22 0.37
23 0.3
24 -0.14
25 0.41
26 0.57
27 0.46
28 -0.15
29 0.05
3 -0.34
30 -0.15
31 -0.15
32 -0.15
33 0.08
34 0.16
35 -0.15
36 -0.15
37 1.3
4 -0.02
5 -0.57
56 0.15
57 0.15
58 0.15
59 0.37
6 -0.36
60 0.37
61 0.15
62 0.15
63 0.15
64 0.15
7 -0.81
8 -0.84
9 -0.57

> <PUBCHEM_EFFECTIVE_ROTOR_COUNT>
10.2

> <PUBCHEM_PHARMACOPHORE_FEATURES>
11
1 12 donor
1 5 acceptor
1 6 acceptor
1 7 cation
3 8 11 25 cation
3 9 10 27 cation
5 4 9 10 23 27 rings
5 7 13 14 15 16 rings
6 11 25 28 29 32 34 rings
6 24 30 31 33 35 36 rings
6 8 17 19 20 21 22 rings

> <PUBCHEM_HEAVY_ATOM_COUNT>
37

> <PUBCHEM_ATOM_DEF_STEREO_COUNT>
1

> <PUBCHEM_ATOM_UDEF_STEREO_COUNT>
0

> <PUBCHEM_BOND_DEF_STEREO_COUNT>
0

> <PUBCHEM_BOND_UDEF_STEREO_COUNT>
0

> <PUBCHEM_ISOTOPIC_ATOM_COUNT>
0

> <PUBCHEM_COMPONENT_COUNT>
1

> <PUBCHEM_CACTVS_TAUTO_COUNT>
2

> <PUBCHEM_CONFORMER_ID>
02BA992800000001

> <PUBCHEM_MMFF94_ENERGY>
95.9285

> <PUBCHEM_FEATURE_SELFOVERLAP>
55.823

> <PUBCHEM_SHAPE_FINGERPRINT>
11477941 20 17917428765482965096
11578080 2 16154274880245042169
12788726 201 18268703909715313265
131258 43 17058070362800710181
13761468 95 17840881676105398124
13782708 43 15554149428986116389
13911987 19 18114744841786813435
13947920 75 18131632270441358268
14114206 34 18410283697192447901
14394314 77 18337966596909823849
14395042 70 15619229312445809001
14840074 17 18268719316380325889
14910302 57 16271344358457664615
14931854 50 18336251423320577207
15021287 119 17830169108994988466
15274700 21 17749680700766454371
15297060 5 17559967536730123835
15406563 42 17917163723230068606
16067690 210 18342184328019241428
17492 54 18335977576485436657
21033648 29 16081368518865021182
21033650 10 17560803212379896218
22122407 14 17606392151728335437
3459 83 18264496083754911534
3552219 110 17970085516110503859
3610482 184 18129959904855428588
469060 322 16733845201682162891

> <PUBCHEM_SHAPE_MULTIPOLES>
692.13
13.86
3.55
3.33
23.29
1.97
-0.4
1.41
-8.53
-2.4
0.54
-2.8
-1.97
-3.89

> <PUBCHEM_SHAPE_SELFOVERLAP>
1504.465

> <PUBCHEM_SHAPE_VOLUME>
379

> <PUBCHEM_COORDINATE_TYPE>
2
5
10

$$$$
