26745160
  -OEChem-12032416353D

 49 53  0     1  0  0  0  0  0999 V2000
   -7.5489    0.8630   -2.9009 F   0  0  0  0  0  0  0  0  0  0  0  0
    0.5168    1.7596    1.6382 O   0  0  0  0  0  0  0  0  0  0  0  0
   -2.8758    1.0277    1.7660 O   0  0  0  0  0  0  0  0  0  0  0  0
    7.5790   -0.3571   -1.7819 O   0  5  0  0  0  0  0  0  0  0  0  0
    5.8903   -1.6607   -1.2642 O   0  0  0  0  0  0  0  0  0  0  0  0
   -1.5280   -0.4685    0.6087 N   0  0  0  0  0  0  0  0  0  0  0  0
   -0.1840   -3.5462   -1.0433 N   0  0  0  0  0  0  0  0  0  0  0  0
    0.6192   -4.0266    0.9849 N   0  0  0  0  0  0  0  0  0  0  0  0
    1.8171    0.1384    0.8027 N   0  0  0  0  0  0  0  0  0  0  0  0
   -3.4764    0.4171   -0.3939 N   0  0  0  0  0  0  0  0  0  0  0  0
    1.7011    2.3838    1.2262 N   0  0  0  0  0  0  0  0  0  0  0  0
    6.4287   -0.5284   -1.3108 N   0  3  0  0  0  0  0  0  0  0  0  0
   -0.5037   -0.4731    1.7111 C   0  0  1  0  0  0  0  0  0  0  0  0
   -0.1430   -1.9196    2.1640 C   0  0  0  0  0  0  0  0  0  0  0  0
   -1.2439   -1.2693   -0.6184 C   0  0  0  0  0  0  0  0  0  0  0  0
   -0.0073   -2.8125    0.9944 C   0  0  0  0  0  0  0  0  0  0  0  0
   -0.5128   -2.4941   -0.2413 C   0  0  0  0  0  0  0  0  0  0  0  0
    0.6682    0.4396    1.3533 C   0  0  0  0  0  0  0  0  0  0  0  0
   -2.6635    0.3760    0.7410 C   0  0  0  0  0  0  0  0  0  0  0  0
    0.4960   -4.4438   -0.2592 C   0  0  0  0  0  0  0  0  0  0  0  0
    2.4166    1.3630    0.7448 C   0  0  0  0  0  0  0  0  0  0  0  0
   -4.8763    0.6304   -0.4432 C   0  0  0  0  0  0  0  0  0  0  0  0
    3.7331    1.5320    0.2010 C   0  0  0  0  0  0  0  0  0  0  0  0
    4.4342    0.4289   -0.2860 C   0  0  0  0  0  0  0  0  0  0  0  0
   -5.5365    0.6418   -1.6719 C   0  0  0  0  0  0  0  0  0  0  0  0
   -5.5940    0.8298    0.7362 C   0  0  0  0  0  0  0  0  0  0  0  0
    4.3121    2.8004    0.1594 C   0  0  0  0  0  0  0  0  0  0  0  0
    5.7143    0.5942   -0.8147 C   0  0  0  0  0  0  0  0  0  0  0  0
    5.5922    2.9656   -0.3693 C   0  0  0  0  0  0  0  0  0  0  0  0
   -6.9143    0.8529   -1.7213 C   0  0  0  0  0  0  0  0  0  0  0  0
   -6.9718    1.0409    0.6867 C   0  0  0  0  0  0  0  0  0  0  0  0
    6.2935    1.8625   -0.8563 C   0  0  0  0  0  0  0  0  0  0  0  0
   -7.6321    1.0525   -0.5420 C   0  0  0  0  0  0  0  0  0  0  0  0
   -0.9572   -0.0044    2.5948 H   0  0  0  0  0  0  0  0  0  0  0  0
   -0.9558   -2.3089    2.7900 H   0  0  0  0  0  0  0  0  0  0  0  0
    0.7722   -1.9214    2.7657 H   0  0  0  0  0  0  0  0  0  0  0  0
   -0.6468   -0.6418   -1.2879 H   0  0  0  0  0  0  0  0  0  0  0  0
   -2.1747   -1.5452   -1.1209 H   0  0  0  0  0  0  0  0  0  0  0  0
   -0.3973   -3.6495   -2.0267 H   0  0  0  0  0  0  0  0  0  0  0  0
    0.8718   -5.3761   -0.6561 H   0  0  0  0  0  0  0  0  0  0  0  0
   -3.0409    0.2438   -1.2948 H   0  0  0  0  0  0  0  0  0  0  0  0
    3.9782   -0.5581   -0.2514 H   0  0  0  0  0  0  0  0  0  0  0  0
   -4.9894    0.4876   -2.5984 H   0  0  0  0  0  0  0  0  0  0  0  0
   -5.1413    0.8062    1.7199 H   0  0  0  0  0  0  0  0  0  0  0  0
    3.7966    3.6832    0.5292 H   0  0  0  0  0  0  0  0  0  0  0  0
    6.0431    3.9532   -0.4018 H   0  0  0  0  0  0  0  0  0  0  0  0
   -7.5327    1.1904    1.6048 H   0  0  0  0  0  0  0  0  0  0  0  0
    7.2886    2.0291   -1.2608 H   0  0  0  0  0  0  0  0  0  0  0  0
   -8.7051    1.2153   -0.5807 H   0  0  0  0  0  0  0  0  0  0  0  0
  1 30  1  0  0  0  0
  2 11  1  0  0  0  0
  2 18  1  0  0  0  0
  3 19  2  0  0  0  0
  4 12  1  0  0  0  0
  5 12  2  0  0  0  0
  6 13  1  0  0  0  0
  6 15  1  0  0  0  0
  6 19  1  0  0  0  0
  7 17  1  0  0  0  0
  7 20  1  0  0  0  0
  7 39  1  0  0  0  0
  8 16  1  0  0  0  0
  8 20  2  0  0  0  0
  9 18  2  0  0  0  0
  9 21  1  0  0  0  0
 10 19  1  0  0  0  0
 10 22  1  0  0  0  0
 10 41  1  0  0  0  0
 11 21  2  0  0  0  0
 12 28  1  0  0  0  0
 13 14  1  0  0  0  0
 13 18  1  0  0  0  0
 13 34  1  0  0  0  0
 14 16  1  0  0  0  0
 14 35  1  0  0  0  0
 14 36  1  0  0  0  0
 15 17  1  0  0  0  0
 15 37  1  0  0  0  0
 15 38  1  0  0  0  0
 16 17  2  0  0  0  0
 20 40  1  0  0  0  0
 21 23  1  0  0  0  0
 22 25  2  0  0  0  0
 22 26  1  0  0  0  0
 23 24  2  0  0  0  0
 23 27  1  0  0  0  0
 24 28  1  0  0  0  0
 24 42  1  0  0  0  0
 25 30  1  0  0  0  0
 25 43  1  0  0  0  0
 26 31  2  0  0  0  0
 26 44  1  0  0  0  0
 27 29  2  0  0  0  0
 27 45  1  0  0  0  0
 28 32  2  0  0  0  0
 29 32  1  0  0  0  0
 29 46  1  0  0  0  0
 30 33  2  0  0  0  0
 31 33  1  0  0  0  0
 31 47  1  0  0  0  0
 32 48  1  0  0  0  0
 33 49  1  0  0  0  0
M  CHG  2   4  -1  12   1
M  END
> <PUBCHEM_COMPOUND_CID>
26745160

> <PUBCHEM_CONFORMER_RMSD>
1.2

> <PUBCHEM_CONFORMER_DIVERSEORDER>
1
28
155
73
120
165
136
15
172
31
118
89
82
69
59
106
90
108
121
148
127
150
33
158
142
145
126
34
153
104
169
131
103
81
60
3
17
125
51
49
139
168
97
66
166
149
128
63
156
154
40
35
32
41
58
85
57
37
130
160
117
109
119
7
95
75
100
107
115
23
170
159
25
91
83
152
50
135
146
86
54
48
147
12
140
27
78
38
161
18
151
24
99
42
19
157
137
53
101
129
77
10
122
64
5
65
163
141
30
39
47
22
144
14
92
62
61
171
162
9
123
93
87
67
29
124
52
110
80
164
36
94
71
143
55
46
96
74
70
98
114
26
79
44
76
134
43
2
84
16
56
167
133
11
113
138
105
132
8
68
111
6
45
112
21
13
88
4
20
72
102
116

> <PUBCHEM_MMFF94_PARTIAL_CHARGES>
44
1 -0.19
10 -0.55
11 -0.41
12 0.91
13 0.48
14 0.18
15 0.48
16 0.05
17 -0.33
18 0.3
19 0.69
2 -0.02
20 0.04
21 0.46
22 0.12
23 0.05
24 -0.15
25 -0.15
26 -0.15
27 -0.15
28 0.13
29 -0.15
3 -0.57
30 0.19
31 -0.15
32 -0.15
33 -0.15
39 0.27
4 -0.52
40 0.15
41 0.37
42 0.15
43 0.15
44 0.15
45 0.15
46 0.15
47 0.15
48 0.15
49 0.15
5 -0.52
6 -0.66
7 0.03
8 -0.57
9 -0.57

> <PUBCHEM_EFFECTIVE_ROTOR_COUNT>
6.8

> <PUBCHEM_PHARMACOPHORE_FEATURES>
13
1 10 donor
1 3 acceptor
1 4 acceptor
1 4 anion
1 5 acceptor
1 7 donor
3 7 8 20 cation
3 9 11 21 cation
5 2 9 11 18 21 rings
5 7 8 16 17 20 rings
6 22 25 26 30 31 33 rings
6 23 24 27 28 29 32 rings
6 6 13 14 15 16 17 rings

> <PUBCHEM_HEAVY_ATOM_COUNT>
33

> <PUBCHEM_ATOM_DEF_STEREO_COUNT>
1

> <PUBCHEM_ATOM_UDEF_STEREO_COUNT>
0

> <PUBCHEM_BOND_DEF_STEREO_COUNT>
0

> <PUBCHEM_BOND_UDEF_STEREO_COUNT>
0

> <PUBCHEM_ISOTOPIC_ATOM_COUNT>
0

> <PUBCHEM_COMPONENT_COUNT>
1

> <PUBCHEM_CACTVS_TAUTO_COUNT>
4

> <PUBCHEM_CONFORMER_ID>
0198194800000001

> <PUBCHEM_MMFF94_ENERGY>
82.3668

> <PUBCHEM_FEATURE_SELFOVERLAP>
66.156

> <PUBCHEM_SHAPE_FINGERPRINT>
10369192 42 18113616811676523165
10483366 6 18272373040310098762
10693767 8 17774717558997577622
10835480 77 18200032992718760896
10908659 184 8789740474575444150
11135926 11 18412267216790954547
11621639 336 17842292376048715265
11823591 26 18335125531914043457
11991303 11 18187929533843337043
12373685 5 17488446625095236816
12440610 7 17839444932652160904
12516196 113 9367349232243214609
12977781 61 16341150303222196818
13257819 101 17458615710417721373
13782708 43 13182729386641268685
14068700 675 16200155386852821296
14117953 113 18340492171799199974
15131766 46 15359124757439286108
15183329 4 18131915957294935013
15188451 53 14117526420012592452
15392192 104 13912328983719809209
15961568 22 17385999534503695125
17980427 23 13045953421199690545
19301676 85 18200329714834881462
19958102 18 18412552015798610492
20105231 36 17346031286807861767
2026 5 13614522974678696269
20721686 146 15864345814442087927
20775438 99 17342629460874325729
21344244 246 18129387012016560574
21521239 73 17918270952376017372
22121540 332 17604417497369050662
23559900 14 18199762491710181904
249057 3 18335425695000613532
27425 322 17459476731233555124
340366 18 18188502396707631388
3633792 109 18343025462983377496
3729539 64 18341337699828862970
38570 142 18343295981777844183
4015057 19 17774729778728187144
4058900 60 18334296427369451553
4173938 306 18200860869239783992
44802255 64 18041855033347336010
504843 32 18115024237920693355
57527293 21 13117994526668667896
57527306 92 16660366982686171956
6376802 90 17838044163654811704
6898599 12 18048324641317295124
9689198 14 16950568787170398244

> <PUBCHEM_SHAPE_MULTIPOLES>
613.51
19.63
3.97
1.88
9.85
5.18
-0.25
-15.69
-14.03
-3.49
0.14
1.5
0
1.27

> <PUBCHEM_SHAPE_SELFOVERLAP>
1359.699

> <PUBCHEM_SHAPE_VOLUME>
328.8

> <PUBCHEM_COORDINATE_TYPE>
2
5
10

$$$$
