75537006
  -OEChem-12032416313D

 42 44  0     1  0  0  0  0  0999 V2000
   -5.9420   -0.5141   -0.1318 O   0  0  0  0  0  0  0  0  0  0  0  0
    0.6716   -2.5059   -0.3778 O   0  0  0  0  0  0  0  0  0  0  0  0
    5.4479    2.0748   -0.2701 O   0  0  0  0  0  0  0  0  0  0  0  0
   -3.6006   -0.3512   -0.2438 N   0  0  0  0  0  0  0  0  0  0  0  0
   -0.9452   -0.9894    0.2726 N   0  0  0  0  0  0  0  0  0  0  0  0
   -4.7866    1.5316    0.0694 N   0  0  0  0  0  0  0  0  0  0  0  0
    1.2265   -0.2556   -0.2776 N   0  0  0  0  0  0  0  0  0  0  0  0
   -2.6135    0.7159   -0.2839 C   0  0  2  0  0  0  0  0  0  0  0  0
   -1.4285    0.3656    0.6098 C   0  0  0  0  0  0  0  0  0  0  0  0
   -3.3984    1.9517    0.1477 C   0  0  0  0  0  0  0  0  0  0  0  0
   -3.1864   -1.7304   -0.4389 C   0  0  0  0  0  0  0  0  0  0  0  0
   -1.9644   -2.0401    0.4261 C   0  0  0  0  0  0  0  0  0  0  0  0
   -4.9071    0.1391   -0.1092 C   0  0  0  0  0  0  0  0  0  0  0  0
   -5.8789    2.4519    0.2966 C   0  0  0  0  0  0  0  0  0  0  0  0
    0.3575   -1.3369   -0.1398 C   0  0  0  0  0  0  0  0  0  0  0  0
    2.6316   -0.2538   -0.0935 C   0  0  0  0  0  0  0  0  0  0  0  0
    3.3572    0.9239   -0.2737 C   0  0  0  0  0  0  0  0  0  0  0  0
    3.2894   -1.4299    0.2670 C   0  0  0  0  0  0  0  0  0  0  0  0
    4.7404    0.9257   -0.0931 C   0  0  0  0  0  0  0  0  0  0  0  0
    4.6725   -1.4283    0.4473 C   0  0  0  0  0  0  0  0  0  0  0  0
    5.3980   -0.2504    0.2675 C   0  0  0  0  0  0  0  0  0  0  0  0
    6.8591    2.0055   -0.0706 C   0  0  0  0  0  0  0  0  0  0  0  0
   -2.2916    0.8104   -1.3288 H   0  0  0  0  0  0  0  0  0  0  0  0
   -0.6543    1.1300    0.5389 H   0  0  0  0  0  0  0  0  0  0  0  0
   -1.7346    0.3276    1.6632 H   0  0  0  0  0  0  0  0  0  0  0  0
   -3.1885    2.2496    1.1802 H   0  0  0  0  0  0  0  0  0  0  0  0
   -3.2268    2.8011   -0.5202 H   0  0  0  0  0  0  0  0  0  0  0  0
   -2.9381   -1.8397   -1.5007 H   0  0  0  0  0  0  0  0  0  0  0  0
   -4.0181   -2.4040   -0.2112 H   0  0  0  0  0  0  0  0  0  0  0  0
   -2.2439   -2.0611    1.4863 H   0  0  0  0  0  0  0  0  0  0  0  0
   -1.5657   -3.0259    0.1695 H   0  0  0  0  0  0  0  0  0  0  0  0
   -5.7988    2.8480    1.3124 H   0  0  0  0  0  0  0  0  0  0  0  0
   -6.8370    1.9389    0.1814 H   0  0  0  0  0  0  0  0  0  0  0  0
   -5.8091    3.2689   -0.4261 H   0  0  0  0  0  0  0  0  0  0  0  0
    0.8309    0.6477   -0.5155 H   0  0  0  0  0  0  0  0  0  0  0  0
    2.8512    1.8445   -0.5551 H   0  0  0  0  0  0  0  0  0  0  0  0
    2.7789   -2.3678    0.4471 H   0  0  0  0  0  0  0  0  0  0  0  0
    5.1839   -2.3428    0.7340 H   0  0  0  0  0  0  0  0  0  0  0  0
    6.4689   -0.3196    0.4252 H   0  0  0  0  0  0  0  0  0  0  0  0
    7.2609    3.0075   -0.2534 H   0  0  0  0  0  0  0  0  0  0  0  0
    7.3350    1.3335   -0.7928 H   0  0  0  0  0  0  0  0  0  0  0  0
    7.1068    1.7456    0.9642 H   0  0  0  0  0  0  0  0  0  0  0  0
  1 13  2  0  0  0  0
  2 15  2  0  0  0  0
  3 19  1  0  0  0  0
  3 22  1  0  0  0  0
  4  8  1  0  0  0  0
  4 11  1  0  0  0  0
  4 13  1  0  0  0  0
  5  9  1  0  0  0  0
  5 12  1  0  0  0  0
  5 15  1  0  0  0  0
  6 10  1  0  0  0  0
  6 13  1  0  0  0  0
  6 14  1  0  0  0  0
  7 15  1  0  0  0  0
  7 16  1  0  0  0  0
  7 35  1  0  0  0  0
  8  9  1  0  0  0  0
  8 10  1  0  0  0  0
  8 23  1  0  0  0  0
  9 24  1  0  0  0  0
  9 25  1  0  0  0  0
 10 26  1  0  0  0  0
 10 27  1  0  0  0  0
 11 12  1  0  0  0  0
 11 28  1  0  0  0  0
 11 29  1  0  0  0  0
 12 30  1  0  0  0  0
 12 31  1  0  0  0  0
 14 32  1  0  0  0  0
 14 33  1  0  0  0  0
 14 34  1  0  0  0  0
 16 17  2  0  0  0  0
 16 18  1  0  0  0  0
 17 19  1  0  0  0  0
 17 36  1  0  0  0  0
 18 20  2  0  0  0  0
 18 37  1  0  0  0  0
 19 21  2  0  0  0  0
 20 21  1  0  0  0  0
 20 38  1  0  0  0  0
 21 39  1  0  0  0  0
 22 40  1  0  0  0  0
 22 41  1  0  0  0  0
 22 42  1  0  0  0  0
M  END
> <PUBCHEM_COMPOUND_CID>
75537006

> <PUBCHEM_CONFORMER_RMSD>
0.8

> <PUBCHEM_CONFORMER_DIVERSEORDER>
1
76
95
49
78
54
42
11
94
29
52
35
26
84
93
16
33
72
36
57
75
59
61
20
56
27
28
46
69
70
85
88
30
48
34
65
8
68
15
89
32
19
25
38
39
10
3
80
64
71
66
91
40
86
92
21
9
12
31
24
41
63
67
45
6
77
74
17
44
58
47
43
83
4
73
18
50
79
62
90
37
60
14
23
82
55
81
13
87
22
53
7
51
5
2

> <PUBCHEM_MMFF94_PARTIAL_CHARGES>
27
1 -0.57
10 0.3
11 0.3
12 0.3
13 0.69
14 0.3
15 0.69
16 0.12
17 -0.15
18 -0.15
19 0.08
2 -0.57
20 -0.15
21 -0.15
22 0.28
3 -0.36
35 0.37
36 0.15
37 0.15
38 0.15
39 0.15
4 -0.66
5 -0.66
6 -0.66
7 -0.55
8 0.3
9 0.3

> <PUBCHEM_EFFECTIVE_ROTOR_COUNT>
5.2

> <PUBCHEM_PHARMACOPHORE_FEATURES>
7
1 1 acceptor
1 2 acceptor
1 3 acceptor
1 7 donor
5 4 6 8 10 13 rings
6 16 17 18 19 20 21 rings
6 4 5 8 9 11 12 rings

> <PUBCHEM_HEAVY_ATOM_COUNT>
22

> <PUBCHEM_ATOM_DEF_STEREO_COUNT>
1

> <PUBCHEM_ATOM_UDEF_STEREO_COUNT>
0

> <PUBCHEM_BOND_DEF_STEREO_COUNT>
0

> <PUBCHEM_BOND_UDEF_STEREO_COUNT>
0

> <PUBCHEM_ISOTOPIC_ATOM_COUNT>
0

> <PUBCHEM_COMPONENT_COUNT>
1

> <PUBCHEM_CACTVS_TAUTO_COUNT>
2

> <PUBCHEM_CONFORMER_ID>
04809A6E00000001

> <PUBCHEM_MMFF94_ENERGY>
70.3969

> <PUBCHEM_FEATURE_SELFOVERLAP>
35.619

> <PUBCHEM_SHAPE_FINGERPRINT>
10 15 18186525422733411185
10411042 1 17618503624639115623
10595046 47 18411414029421130815
11578080 2 13828757231655461537
12107183 9 17975688386261497082
12236239 1 18334573525247187339
12403259 415 17968654913125272788
12596602 18 17458623440731256704
12788726 201 17703515393617229744
13073987 5 18333731346722452178
13167372 99 18410573946887356656
13785724 45 17834109746121729994
14251764 18 18260263045507287562
15188451 53 15213594463158539769
15196674 1 18410292492994871302
15519825 34 16516267244050882753
15778101 99 18410859875581408404
17980427 23 18333734649678397287
18335252 98 18335707203941657627
20157964 124 18410292475968216878
20281389 69 18187081736973058805
20511986 3 18336533967528054452
20621476 66 18412547591380616641
21033648 144 18187075165826070718
21033648 29 18129653218768915440
21065198 48 18334289894809018674
21315764 268 18260822688025012116
21421861 104 17750218254725635698
23272321 79 18410575080805987513
23402539 116 18340761564325498903
23402655 69 18342173393179971206
23559900 14 18057603170699116198
245318 6 17534078616373991124
268830 7 18187633687805534666
2838139 119 18263917744579806013
2916195 48 18334012770417556649
29717793 49 17989492896988371998
300161 21 18335134315285576846
3004659 81 18410012101241514922
335352 9 18409731747536397654
3472631 163 18341614789290355077
34797466 226 17775013422409855940
351380 180 18409165489328932392
3545911 37 18408605881334801566
4073 2 17968382346697048914
4214541 1 18410573972271888978
4325135 7 18343017801035625359
474 4 17894354396992178390
5104073 3 18113335314913720490
542803 24 18411417302106764202
59682541 35 18261404373321624073
59682541 52 16701185166403550244
633830 44 18409725145454635158
9981440 41 18335424577560329587

> <PUBCHEM_SHAPE_MULTIPOLES>
415.22
16.37
2.56
0.67
5.62
0.28
0.02
10.41
0.16
-0.3
0.02
0
-0.04
-0.74

> <PUBCHEM_SHAPE_SELFOVERLAP>
876.392

> <PUBCHEM_SHAPE_VOLUME>
233.1

> <PUBCHEM_COORDINATE_TYPE>
2
5
10

$$$$
