45783417
  -OEChem-12032416273D

 51 53  0     1  0  0  0  0  0999 V2000
   -0.6884    2.7278    0.0817 O   0  0  0  0  0  0  0  0  0  0  0  0
    1.7032   -1.2354   -0.2063 O   0  0  0  0  0  0  0  0  0  0  0  0
    0.1280   -3.3645    0.6984 O   0  0  0  0  0  0  0  0  0  0  0  0
   -3.0056    0.0894    0.2194 N   0  0  1  0  0  0  0  0  0  0  0  0
    0.0421    0.6975    0.6828 N   0  0  0  0  0  0  0  0  0  0  0  0
    0.6899    2.7204   -0.1669 N   0  0  0  0  0  0  0  0  0  0  0  0
    3.9684   -0.7968   -0.1485 N   0  0  0  0  0  0  0  0  0  0  0  0
   -2.4384    1.2500    0.9346 C   0  0  1  0  0  0  0  0  0  0  0  0
   -2.6390    0.9261    2.4267 C   0  0  0  0  0  0  0  0  0  0  0  0
   -4.0440   -0.4646    1.0884 C   0  0  0  0  0  0  0  0  0  0  0  0
   -3.3796   -0.4034    2.4490 C   0  0  0  0  0  0  0  0  0  0  0  0
   -3.5183    0.4241   -1.1030 C   0  0  0  0  0  0  0  0  0  0  0  0
   -2.4108    0.4640   -2.1699 C   0  0  0  0  0  0  0  0  0  0  0  0
   -0.9874    1.4997    0.5806 C   0  0  0  0  0  0  0  0  0  0  0  0
   -1.7335   -0.9060   -2.2627 C   0  0  0  0  0  0  0  0  0  0  0  0
   -2.9373    0.8721   -3.5482 C   0  0  0  0  0  0  0  0  0  0  0  0
    1.0483    1.4902    0.2125 C   0  0  0  0  0  0  0  0  0  0  0  0
    2.4022    1.0228    0.1359 C   0  0  0  0  0  0  0  0  0  0  0  0
    2.7086   -0.3128   -0.0695 C   0  0  0  0  0  0  0  0  0  0  0  0
    3.4566    1.9195    0.2686 C   0  0  0  0  0  0  0  0  0  0  0  0
    4.7666    1.4596    0.1930 C   0  0  0  0  0  0  0  0  0  0  0  0
    4.9673    0.1044   -0.0149 C   0  0  0  0  0  0  0  0  0  0  0  0
    2.0993   -2.5855   -0.4143 C   0  0  0  0  0  0  0  0  0  0  0  0
    0.8606   -3.4544   -0.5175 C   0  0  0  0  0  0  0  0  0  0  0  0
   -1.0587   -4.1441    0.6500 C   0  0  0  0  0  0  0  0  0  0  0  0
   -3.0145    2.1608    0.7189 H   0  0  0  0  0  0  0  0  0  0  0  0
   -1.7068    0.8620    2.9981 H   0  0  0  0  0  0  0  0  0  0  0  0
   -3.2633    1.6998    2.8904 H   0  0  0  0  0  0  0  0  0  0  0  0
   -4.9527    0.1506    1.0806 H   0  0  0  0  0  0  0  0  0  0  0  0
   -4.3056   -1.4916    0.8153 H   0  0  0  0  0  0  0  0  0  0  0  0
   -4.0992   -0.4629    3.2708 H   0  0  0  0  0  0  0  0  0  0  0  0
   -2.6634   -1.2269    2.5619 H   0  0  0  0  0  0  0  0  0  0  0  0
   -4.0736    1.3711   -1.0920 H   0  0  0  0  0  0  0  0  0  0  0  0
   -4.2431   -0.3407   -1.4163 H   0  0  0  0  0  0  0  0  0  0  0  0
   -1.6543    1.2071   -1.9053 H   0  0  0  0  0  0  0  0  0  0  0  0
   -2.4518   -1.6911   -2.5227 H   0  0  0  0  0  0  0  0  0  0  0  0
   -0.9525   -0.8990   -3.0310 H   0  0  0  0  0  0  0  0  0  0  0  0
   -1.2539   -1.1816   -1.3192 H   0  0  0  0  0  0  0  0  0  0  0  0
   -3.6892    0.1631   -3.9108 H   0  0  0  0  0  0  0  0  0  0  0  0
   -2.1250    0.9117   -4.2816 H   0  0  0  0  0  0  0  0  0  0  0  0
   -3.3998    1.8637   -3.5050 H   0  0  0  0  0  0  0  0  0  0  0  0
    3.2883    2.9800    0.4386 H   0  0  0  0  0  0  0  0  0  0  0  0
    5.6044    2.1398    0.2953 H   0  0  0  0  0  0  0  0  0  0  0  0
    5.9700   -0.3049   -0.0810 H   0  0  0  0  0  0  0  0  0  0  0  0
    2.7007   -2.9249    0.4383 H   0  0  0  0  0  0  0  0  0  0  0  0
    2.6790   -2.6738   -1.3408 H   0  0  0  0  0  0  0  0  0  0  0  0
    0.2301   -3.1077   -1.3434 H   0  0  0  0  0  0  0  0  0  0  0  0
    1.1501   -4.4954   -0.6985 H   0  0  0  0  0  0  0  0  0  0  0  0
   -1.7208   -3.7856   -0.1443 H   0  0  0  0  0  0  0  0  0  0  0  0
   -0.8188   -5.2003    0.4941 H   0  0  0  0  0  0  0  0  0  0  0  0
   -1.5771   -4.0410    1.6071 H   0  0  0  0  0  0  0  0  0  0  0  0
  1  6  1  0  0  0  0
  1 14  1  0  0  0  0
  2 19  1  0  0  0  0
  2 23  1  0  0  0  0
  3 24  1  0  0  0  0
  3 25  1  0  0  0  0
  4  8  1  0  0  0  0
  4 10  1  0  0  0  0
  4 12  1  0  0  0  0
  5 14  2  0  0  0  0
  5 17  1  0  0  0  0
  6 17  2  0  0  0  0
  7 19  1  0  0  0  0
  7 22  2  0  0  0  0
  8  9  1  0  0  0  0
  8 14  1  0  0  0  0
  8 26  1  0  0  0  0
  9 11  1  0  0  0  0
  9 27  1  0  0  0  0
  9 28  1  0  0  0  0
 10 11  1  0  0  0  0
 10 29  1  0  0  0  0
 10 30  1  0  0  0  0
 11 31  1  0  0  0  0
 11 32  1  0  0  0  0
 12 13  1  0  0  0  0
 12 33  1  0  0  0  0
 12 34  1  0  0  0  0
 13 15  1  0  0  0  0
 13 16  1  0  0  0  0
 13 35  1  0  0  0  0
 15 36  1  0  0  0  0
 15 37  1  0  0  0  0
 15 38  1  0  0  0  0
 16 39  1  0  0  0  0
 16 40  1  0  0  0  0
 16 41  1  0  0  0  0
 17 18  1  0  0  0  0
 18 19  2  0  0  0  0
 18 20  1  0  0  0  0
 20 21  2  0  0  0  0
 20 42  1  0  0  0  0
 21 22  1  0  0  0  0
 21 43  1  0  0  0  0
 22 44  1  0  0  0  0
 23 24  1  0  0  0  0
 23 45  1  0  0  0  0
 23 46  1  0  0  0  0
 24 47  1  0  0  0  0
 24 48  1  0  0  0  0
 25 49  1  0  0  0  0
 25 50  1  0  0  0  0
 25 51  1  0  0  0  0
M  END
> <PUBCHEM_COMPOUND_CID>
45783417

> <PUBCHEM_CONFORMER_RMSD>
1

> <PUBCHEM_CONFORMER_DIVERSEORDER>
1
38
24
73
91
21
65
83
75
41
5
45
97
94
53
89
47
66
78
82
57
63
55
20
7
8
14
80
69
59
98
28
42
104
88
105
19
87
32
35
79
86
68
37
84
31
74
39
17
85
70
23
58
50
51
4
25
107
30
81
67
26
76
95
92
106
13
18
22
102
10
33
62
15
46
103
96
49
27
77
56
54
71
12
16
52
34
11
100
40
101
60
9
90
64
6
108
44
43
48
3
29
93
72
99
61
2
36

> <PUBCHEM_MMFF94_PARTIAL_CHARGES>
23
1 -0.02
10 0.27
12 0.27
14 0.3
17 0.46
18 0.05
19 0.39
2 -0.36
20 -0.15
21 -0.15
22 0.16
23 0.28
24 0.28
25 0.28
3 -0.56
4 -0.81
42 0.15
43 0.15
44 0.15
5 -0.57
6 -0.41
7 -0.62
8 0.45

> <PUBCHEM_EFFECTIVE_ROTOR_COUNT>
9

> <PUBCHEM_PHARMACOPHORE_FEATURES>
9
1 2 acceptor
1 3 acceptor
1 4 cation
1 7 acceptor
3 13 15 16 hydrophobe
3 5 6 17 cation
5 1 5 6 14 17 rings
5 4 8 9 10 11 rings
6 7 18 19 20 21 22 rings

> <PUBCHEM_HEAVY_ATOM_COUNT>
25

> <PUBCHEM_ATOM_DEF_STEREO_COUNT>
1

> <PUBCHEM_ATOM_UDEF_STEREO_COUNT>
0

> <PUBCHEM_BOND_DEF_STEREO_COUNT>
0

> <PUBCHEM_BOND_UDEF_STEREO_COUNT>
0

> <PUBCHEM_ISOTOPIC_ATOM_COUNT>
0

> <PUBCHEM_COMPONENT_COUNT>
1

> <PUBCHEM_CACTVS_TAUTO_COUNT>
1

> <PUBCHEM_CONFORMER_ID>
02BA997900000001

> <PUBCHEM_MMFF94_ENERGY>
48.8591

> <PUBCHEM_FEATURE_SELFOVERLAP>
45.724

> <PUBCHEM_SHAPE_FINGERPRINT>
11578080 2 16662621934894971686
12156800 1 17402944300797574535
12539773 59 17488181479162302987
12553582 1 18343297063798528408
12788726 201 16988552477857467717
13032168 30 17845079834895970792
13140716 1 18197221571239481384
13911987 19 18334860558323406436
14468879 13 17677875869394896863
19930381 70 18265342707518207107
20511986 3 17703496697999032113
23557571 272 16950286174111594301
238 59 18118377614966831335
35225 105 17980496864200571719
469060 322 17460312380965843803
6438718 38 17631463430444703198

> <PUBCHEM_SHAPE_MULTIPOLES>
476.96
8.05
3.74
2.31
5.94
4.65
1.48
-2.22
-0.5
1.03
-0.51
-4.45
-0.44
0.6

> <PUBCHEM_SHAPE_SELFOVERLAP>
994.168

> <PUBCHEM_SHAPE_VOLUME>
273.7

> <PUBCHEM_COORDINATE_TYPE>
2
5
10

$$$$
