75367106
  -OEChem-12032416393D

 51 53  0     1  0  0  0  0  0999 V2000
   -0.6975   -0.5945   -1.2531 O   0  0  0  0  0  0  0  0  0  0  0  0
   -1.6559   -0.9797    2.1876 O   0  0  0  0  0  0  0  0  0  0  0  0
    2.8885   -0.4810    1.4073 O   0  0  0  0  0  0  0  0  0  0  0  0
   -4.0437   -0.8623    0.1478 N   0  0  0  0  0  0  0  0  0  0  0  0
    1.9144   -1.4803   -0.4372 N   0  0  0  0  0  0  0  0  0  0  0  0
    3.9883   -0.5034   -0.6665 N   0  0  0  0  0  0  0  0  0  0  0  0
   -4.9821    0.1713   -0.2852 C   0  0  0  0  0  0  0  0  0  0  0  0
   -2.6732   -0.3871    0.0489 C   0  0  1  0  0  0  0  0  0  0  0  0
   -1.6743   -1.2486    0.7991 C   0  0  1  0  0  0  0  0  0  0  0  0
   -6.3235   -0.4678   -0.6613 C   0  0  0  0  0  0  0  0  0  0  0  0
   -5.1580    1.2132    0.8248 C   0  0  0  0  0  0  0  0  0  0  0  0
   -0.3712   -0.8415    0.1248 C   0  0  1  0  0  0  0  0  0  0  0  0
   -2.1244   -0.4542   -1.3669 C   0  0  0  0  0  0  0  0  0  0  0  0
   -7.3557    0.5906   -1.0465 C   0  0  0  0  0  0  0  0  0  0  0  0
   -6.1913    2.2698    0.4373 C   0  0  0  0  0  0  0  0  0  0  0  0
   -7.5252    1.6372    0.0512 C   0  0  0  0  0  0  0  0  0  0  0  0
    0.7087   -1.9051    0.2138 C   0  0  0  0  0  0  0  0  0  0  0  0
    2.9426   -0.7832    0.2175 C   0  0  0  0  0  0  0  0  0  0  0  0
    5.1969    0.1787   -0.3933 C   0  0  0  0  0  0  0  0  0  0  0  0
    6.1347    0.3696   -1.4081 C   0  0  0  0  0  0  0  0  0  0  0  0
    5.4511    0.6602    0.8909 C   0  0  0  0  0  0  0  0  0  0  0  0
    7.3268    1.0419   -1.1387 C   0  0  0  0  0  0  0  0  0  0  0  0
    6.6432    1.3325    1.1603 C   0  0  0  0  0  0  0  0  0  0  0  0
    7.5810    1.5234    0.1455 C   0  0  0  0  0  0  0  0  0  0  0  0
   -2.5685    0.6342    0.4334 H   0  0  0  0  0  0  0  0  0  0  0  0
   -4.6082    0.6728   -1.1877 H   0  0  0  0  0  0  0  0  0  0  0  0
   -1.8812   -2.3154    0.6482 H   0  0  0  0  0  0  0  0  0  0  0  0
   -6.1891   -1.1635   -1.4988 H   0  0  0  0  0  0  0  0  0  0  0  0
   -6.7119   -1.0556    0.1810 H   0  0  0  0  0  0  0  0  0  0  0  0
   -5.4841    0.7257    1.7535 H   0  0  0  0  0  0  0  0  0  0  0  0
   -4.2212    1.7307    1.0545 H   0  0  0  0  0  0  0  0  0  0  0  0
   -4.2512   -1.1385    1.1070 H   0  0  0  0  0  0  0  0  0  0  0  0
    0.0061    0.1001    0.5450 H   0  0  0  0  0  0  0  0  0  0  0  0
   -2.4917   -1.3296   -1.9149 H   0  0  0  0  0  0  0  0  0  0  0  0
   -2.3522    0.4405   -1.9541 H   0  0  0  0  0  0  0  0  0  0  0  0
   -8.3192    0.1091   -1.2482 H   0  0  0  0  0  0  0  0  0  0  0  0
   -7.0440    1.0833   -1.9757 H   0  0  0  0  0  0  0  0  0  0  0  0
   -5.8103    2.8618   -0.4041 H   0  0  0  0  0  0  0  0  0  0  0  0
   -6.3414    2.9625    1.2731 H   0  0  0  0  0  0  0  0  0  0  0  0
   -8.2189    2.4158   -0.2856 H   0  0  0  0  0  0  0  0  0  0  0  0
   -7.9755    1.1685    0.9350 H   0  0  0  0  0  0  0  0  0  0  0  0
    0.3906   -2.8206   -0.2970 H   0  0  0  0  0  0  0  0  0  0  0  0
    0.9271   -2.1481    1.2591 H   0  0  0  0  0  0  0  0  0  0  0  0
   -1.4746   -0.0329    2.3136 H   0  0  0  0  0  0  0  0  0  0  0  0
    2.0223   -1.6841   -1.4260 H   0  0  0  0  0  0  0  0  0  0  0  0
    3.8743   -0.8253   -1.6244 H   0  0  0  0  0  0  0  0  0  0  0  0
    5.9490   -0.0006   -2.4131 H   0  0  0  0  0  0  0  0  0  0  0  0
    4.7755    0.5517    1.7274 H   0  0  0  0  0  0  0  0  0  0  0  0
    8.0571    1.1906   -1.9287 H   0  0  0  0  0  0  0  0  0  0  0  0
    6.8425    1.7080    2.1599 H   0  0  0  0  0  0  0  0  0  0  0  0
    8.5092    2.0469    0.3553 H   0  0  0  0  0  0  0  0  0  0  0  0
  1 12  1  0  0  0  0
  1 13  1  0  0  0  0
  2  9  1  0  0  0  0
  2 44  1  0  0  0  0
  3 18  2  0  0  0  0
  4  7  1  0  0  0  0
  4  8  1  0  0  0  0
  4 32  1  0  0  0  0
  5 17  1  0  0  0  0
  5 18  1  0  0  0  0
  5 45  1  0  0  0  0
  6 18  1  0  0  0  0
  6 19  1  0  0  0  0
  6 46  1  0  0  0  0
  7 10  1  0  0  0  0
  7 11  1  0  0  0  0
  7 26  1  0  0  0  0
  8  9  1  0  0  0  0
  8 13  1  0  0  0  0
  8 25  1  0  0  0  0
  9 12  1  0  0  0  0
  9 27  1  0  0  0  0
 10 14  1  0  0  0  0
 10 28  1  0  0  0  0
 10 29  1  0  0  0  0
 11 15  1  0  0  0  0
 11 30  1  0  0  0  0
 11 31  1  0  0  0  0
 12 17  1  0  0  0  0
 12 33  1  0  0  0  0
 13 34  1  0  0  0  0
 13 35  1  0  0  0  0
 14 16  1  0  0  0  0
 14 36  1  0  0  0  0
 14 37  1  0  0  0  0
 15 16  1  0  0  0  0
 15 38  1  0  0  0  0
 15 39  1  0  0  0  0
 16 40  1  0  0  0  0
 16 41  1  0  0  0  0
 17 42  1  0  0  0  0
 17 43  1  0  0  0  0
 19 20  2  0  0  0  0
 19 21  1  0  0  0  0
 20 22  1  0  0  0  0
 20 47  1  0  0  0  0
 21 23  2  0  0  0  0
 21 48  1  0  0  0  0
 22 24  2  0  0  0  0
 22 49  1  0  0  0  0
 23 24  1  0  0  0  0
 23 50  1  0  0  0  0
 24 51  1  0  0  0  0
M  END
> <PUBCHEM_COMPOUND_CID>
75367106

> <PUBCHEM_CONFORMER_RMSD>
1

> <PUBCHEM_CONFORMER_DIVERSEORDER>
1
94
137
5
118
11
92
68
13
119
39
95
116
113
50
36
82
105
114
120
66
123
14
133
130
54
89
48
108
46
57
31
111
24
117
138
131
6
59
99
128
3
104
77
29
37
45
132
20
124
139
80
97
60
74
135
73
23
51
18
91
58
78
55
15
107
141
35
85
96
81
34
26
25
19
44
83
8
129
134
70
102
86
47
61
7
127
126
88
63
140
115
71
33
136
69
125
109
64
27
122
32
41
103
100
53
93
56
112
43
84
65
87
79
42
98
38
17
28
76
52
2
9
40
16
62
106
67
90
49
101
121
110
72
22
12
75
21
30
4
10

> <PUBCHEM_MMFF94_PARTIAL_CHARGES>
28
1 -0.56
12 0.28
13 0.28
17 0.3
18 0.69
19 0.12
2 -0.68
20 -0.15
21 -0.15
22 -0.15
23 -0.15
24 -0.15
3 -0.57
32 0.36
4 -0.9
44 0.4
45 0.37
46 0.37
47 0.15
48 0.15
49 0.15
5 -0.73
50 0.15
51 0.15
6 -0.55
7 0.27
8 0.27
9 0.28

> <PUBCHEM_EFFECTIVE_ROTOR_COUNT>
9.2

> <PUBCHEM_PHARMACOPHORE_FEATURES>
11
1 1 acceptor
1 2 acceptor
1 2 donor
1 3 acceptor
1 4 cation
1 4 donor
1 5 donor
1 6 donor
5 1 8 9 12 13 rings
6 19 20 21 22 23 24 rings
6 7 10 11 14 15 16 rings

> <PUBCHEM_HEAVY_ATOM_COUNT>
24

> <PUBCHEM_ATOM_DEF_STEREO_COUNT>
3

> <PUBCHEM_ATOM_UDEF_STEREO_COUNT>
0

> <PUBCHEM_BOND_DEF_STEREO_COUNT>
0

> <PUBCHEM_BOND_UDEF_STEREO_COUNT>
0

> <PUBCHEM_ISOTOPIC_ATOM_COUNT>
0

> <PUBCHEM_COMPONENT_COUNT>
1

> <PUBCHEM_CACTVS_TAUTO_COUNT>
3

> <PUBCHEM_CONFORMER_ID>
047E02C200000001

> <PUBCHEM_MMFF94_ENERGY>
43.2883

> <PUBCHEM_FEATURE_SELFOVERLAP>
55.872

> <PUBCHEM_SHAPE_FINGERPRINT>
10 15 15936412243026997166
10454371 7 17417537917207718281
106641 1 17240208742488769505
10670039 82 16128381441403212571
10753850 27 9655576309886202398
11315181 36 18334856122502624583
11386260 185 17131559423133465960
11524674 6 11386368145104374465
11991303 11 15841539808530514549
12166972 35 10303809891317060946
12760667 363 11240000061918622623
13533116 47 17749948835084457970
13540713 4 15793396450568080927
13540713 5 15721389653039797567
13668630 136 11023820665639553429
13685833 64 8862942771279600782
13690498 29 16915926548135626175
14123256 34 9943806698643124072
14251757 52 18411134754000360928
14251764 18 17675925421645455371
14341114 176 15647048279594291214
14347332 77 12679192574243841082
14556957 393 15697731383882121665
14931854 50 16056606443381323374
15048467 5 18334858303433459207
15183329 4 16056885714749680158
15188451 53 10953459626226841638
15352257 5 9079119959724349268
15510800 12 9655290496898376309
15690457 1 10881406447885091201
15706992 2 18337124397315322929
15716309 27 11025801998329774103
1577012 14 18342453712878894987
15961568 22 18343585105849176773
16994733 274 18336261254654068689
17980427 23 17168150090908634119
1818759 1 10447928407754967333
18643901 69 11240005567887341584
2026 5 8935001456461697049
20281389 69 18334009462902504500
20526848 3 18408325488426274356
21033648 29 18337381756187699736
21130935 74 17967813834012348058
21150785 3 17060336331811627461
21267235 1 12751234822885723335
21298829 104 18411986840482534505
21424621 283 18261676974326156057
21792934 111 15792004533424293935
221357 26 16272210791132037634
22224240 67 17385442120409410531
22956985 138 8140159059414469768
23035841 295 9151170957156214693
23559900 14 14261054528534206130
23576562 1 16916202499895338237
246663 6 11743840278904702783
24771293 8 18040155106856171709
3004659 81 13326851136983807142
4073 2 18335143085831238115
4107672 100 17131826595419909047
4340502 62 15357695284510858866
445580 37 17917996057848568345
5104073 3 15286185178006191284
5385378 56 18040712533671969946
543368 44 18410573960394510241
559249 180 8286198349735311001
5718773 13 9583519806828256116
5758199 1 18333169457921052963
5937810 71 17489315148802556985
59682541 35 16081094796483484801
59682541 52 16343990187369320038
59755656 215 11312063153641595556
636775 72 18409729577423255320

> <PUBCHEM_SHAPE_MULTIPOLES>
461.36
25.1
1.75
1.36
5.95
0.41
0.16
17.55
-4.09
-0.96
0.31
0.67
-0.08
-0.1

> <PUBCHEM_SHAPE_SELFOVERLAP>
955.825

> <PUBCHEM_SHAPE_VOLUME>
262.2

> <PUBCHEM_COORDINATE_TYPE>
2
5
10

$$$$
