28959646
  -OEChem-12032416283D

 64 66  0     1  0  0  0  0  0999 V2000
    1.2995   -2.6733    0.6853 O   0  0  0  0  0  0  0  0  0  0  0  0
   -6.9133   -1.6202    0.9673 O   0  0  0  0  0  0  0  0  0  0  0  0
    1.1265    2.8539    0.5583 O   0  0  0  0  0  0  0  0  0  0  0  0
   -5.7382   -3.3530    0.0745 O   0  0  0  0  0  0  0  0  0  0  0  0
    6.8677   -0.8182    0.9690 O   0  0  0  0  0  0  0  0  0  0  0  0
   -1.4928    2.8341    0.0728 N   0  0  1  0  0  0  0  0  0  0  0  0
   -0.5947   -2.1181   -0.5399 N   0  0  0  0  0  0  0  0  0  0  0  0
    1.5632    4.0565   -1.3540 N   0  0  0  0  0  0  0  0  0  0  0  0
   -2.5508   -0.6549   -0.9938 C   0  0  1  0  0  0  0  0  0  0  0  0
   -3.4586   -1.7295   -0.3428 C   0  0  1  0  0  0  0  0  0  0  0  0
   -2.1760    0.4970   -0.0530 C   0  0  0  0  0  0  0  0  0  0  0  0
   -1.2817   -1.3166   -1.5608 C   0  0  0  0  0  0  0  0  0  0  0  0
   -2.6860   -2.5775    0.6817 C   0  0  0  0  0  0  0  0  0  0  0  0
   -1.8622    1.7610   -0.8405 C   0  0  0  0  0  0  0  0  0  0  0  0
   -1.4154   -3.1633    0.0711 C   0  0  0  0  0  0  0  0  0  0  0  0
   -4.7243   -1.1464    0.2853 C   0  0  0  0  0  0  0  0  0  0  0  0
   -0.7035    3.8908   -0.5689 C   0  0  1  0  0  0  0  0  0  0  0  0
   -2.6631    3.4871    0.6599 C   0  0  0  0  0  0  0  0  0  0  0  0
   -1.0588    5.1790    0.1737 C   0  0  0  0  0  0  0  0  0  0  0  0
   -2.0593    4.7521    1.2376 C   0  0  0  0  0  0  0  0  0  0  0  0
    0.7379   -1.9688   -0.1574 C   0  0  0  0  0  0  0  0  0  0  0  0
    0.7368    3.5357   -0.3864 C   0  0  0  0  0  0  0  0  0  0  0  0
   -5.8086   -2.1807    0.4110 C   0  0  0  0  0  0  0  0  0  0  0  0
    1.5153   -0.8668   -0.8320 C   0  0  0  0  0  0  0  0  0  0  0  0
    2.9340   -0.8534   -0.3545 C   0  0  0  0  0  0  0  0  0  0  0  0
    3.2894   -0.0881    0.7562 C   0  0  0  0  0  0  0  0  0  0  0  0
    3.9006   -1.6068   -1.0205 C   0  0  0  0  0  0  0  0  0  0  0  0
    4.6113   -0.0759    1.2008 C   0  0  0  0  0  0  0  0  0  0  0  0
    5.2226   -1.5947   -0.5760 C   0  0  0  0  0  0  0  0  0  0  0  0
    5.5780   -0.8293    0.5346 C   0  0  0  0  0  0  0  0  0  0  0  0
    7.8046   -1.6113    0.2413 C   0  0  0  0  0  0  0  0  0  0  0  0
   -3.1138   -0.2380   -1.8404 H   0  0  0  0  0  0  0  0  0  0  0  0
   -3.7575   -2.4048   -1.1583 H   0  0  0  0  0  0  0  0  0  0  0  0
   -1.3298    0.2250    0.5895 H   0  0  0  0  0  0  0  0  0  0  0  0
   -3.0079    0.7173    0.6217 H   0  0  0  0  0  0  0  0  0  0  0  0
   -1.5574   -2.0096   -2.3660 H   0  0  0  0  0  0  0  0  0  0  0  0
   -0.6244   -0.5742   -2.0134 H   0  0  0  0  0  0  0  0  0  0  0  0
   -3.3060   -3.3960    1.0631 H   0  0  0  0  0  0  0  0  0  0  0  0
   -2.4142   -1.9564    1.5448 H   0  0  0  0  0  0  0  0  0  0  0  0
   -2.7004    2.0496   -1.4874 H   0  0  0  0  0  0  0  0  0  0  0  0
   -1.0174    1.5484   -1.5061 H   0  0  0  0  0  0  0  0  0  0  0  0
   -0.8526   -3.7022    0.8398 H   0  0  0  0  0  0  0  0  0  0  0  0
   -1.6660   -3.8849   -0.7155 H   0  0  0  0  0  0  0  0  0  0  0  0
   -0.9471    4.0024   -1.6334 H   0  0  0  0  0  0  0  0  0  0  0  0
   -4.5228   -0.7448    1.2844 H   0  0  0  0  0  0  0  0  0  0  0  0
   -5.1185   -0.3451   -0.3508 H   0  0  0  0  0  0  0  0  0  0  0  0
   -3.1339    2.8843    1.4421 H   0  0  0  0  0  0  0  0  0  0  0  0
   -3.4169    3.7436   -0.0953 H   0  0  0  0  0  0  0  0  0  0  0  0
   -1.5432    5.8795   -0.5174 H   0  0  0  0  0  0  0  0  0  0  0  0
   -0.2002    5.6892    0.6228 H   0  0  0  0  0  0  0  0  0  0  0  0
   -1.5366    4.5338    2.1772 H   0  0  0  0  0  0  0  0  0  0  0  0
   -2.8090    5.5239    1.4347 H   0  0  0  0  0  0  0  0  0  0  0  0
    1.0419    0.0983   -0.6202 H   0  0  0  0  0  0  0  0  0  0  0  0
    1.5000   -1.0174   -1.9176 H   0  0  0  0  0  0  0  0  0  0  0  0
    1.2154    4.6274   -2.1178 H   0  0  0  0  0  0  0  0  0  0  0  0
    2.5631    3.8860   -1.3323 H   0  0  0  0  0  0  0  0  0  0  0  0
   -7.6428   -2.2688    1.0647 H   0  0  0  0  0  0  0  0  0  0  0  0
    2.5448    0.4983    1.2874 H   0  0  0  0  0  0  0  0  0  0  0  0
    3.6350   -2.2087   -1.8857 H   0  0  0  0  0  0  0  0  0  0  0  0
    4.8819    0.5211    2.0674 H   0  0  0  0  0  0  0  0  0  0  0  0
    5.9220   -2.2031   -1.1392 H   0  0  0  0  0  0  0  0  0  0  0  0
    8.7793   -1.4839    0.7237 H   0  0  0  0  0  0  0  0  0  0  0  0
    7.9110   -1.2622   -0.7914 H   0  0  0  0  0  0  0  0  0  0  0  0
    7.5578   -2.6770    0.2961 H   0  0  0  0  0  0  0  0  0  0  0  0
  1 21  2  0  0  0  0
  2 23  1  0  0  0  0
  2 57  1  0  0  0  0
  3 22  2  0  0  0  0
  4 23  2  0  0  0  0
  5 30  1  0  0  0  0
  5 31  1  0  0  0  0
  6 14  1  0  0  0  0
  6 17  1  0  0  0  0
  6 18  1  0  0  0  0
  7 12  1  0  0  0  0
  7 15  1  0  0  0  0
  7 21  1  0  0  0  0
  8 22  1  0  0  0  0
  8 55  1  0  0  0  0
  8 56  1  0  0  0  0
  9 10  1  0  0  0  0
  9 11  1  0  0  0  0
  9 12  1  0  0  0  0
  9 32  1  0  0  0  0
 10 13  1  0  0  0  0
 10 16  1  0  0  0  0
 10 33  1  0  0  0  0
 11 14  1  0  0  0  0
 11 34  1  0  0  0  0
 11 35  1  0  0  0  0
 12 36  1  0  0  0  0
 12 37  1  0  0  0  0
 13 15  1  0  0  0  0
 13 38  1  0  0  0  0
 13 39  1  0  0  0  0
 14 40  1  0  0  0  0
 14 41  1  0  0  0  0
 15 42  1  0  0  0  0
 15 43  1  0  0  0  0
 16 23  1  0  0  0  0
 16 45  1  0  0  0  0
 16 46  1  0  0  0  0
 17 19  1  0  0  0  0
 17 22  1  0  0  0  0
 17 44  1  0  0  0  0
 18 20  1  0  0  0  0
 18 47  1  0  0  0  0
 18 48  1  0  0  0  0
 19 20  1  0  0  0  0
 19 49  1  0  0  0  0
 19 50  1  0  0  0  0
 20 51  1  0  0  0  0
 20 52  1  0  0  0  0
 21 24  1  0  0  0  0
 24 25  1  0  0  0  0
 24 53  1  0  0  0  0
 24 54  1  0  0  0  0
 25 26  2  0  0  0  0
 25 27  1  0  0  0  0
 26 28  1  0  0  0  0
 26 58  1  0  0  0  0
 27 29  2  0  0  0  0
 27 59  1  0  0  0  0
 28 30  2  0  0  0  0
 28 60  1  0  0  0  0
 29 30  1  0  0  0  0
 29 61  1  0  0  0  0
 31 62  1  0  0  0  0
 31 63  1  0  0  0  0
 31 64  1  0  0  0  0
M  END
> <PUBCHEM_COMPOUND_CID>
28959646

> <PUBCHEM_CONFORMER_RMSD>
1.2

> <PUBCHEM_CONFORMER_DIVERSEORDER>
1
70
45
12
73
39
74
48
71
29
19
75
34
66
62
37
42
23
30
78
38
77
20
51
17
25
56
79
9
54
67
31
68
5
57
28
58
61
63
59
15
16
27
2
36
22
24
53
43
64
69
72
49
18
55
40
3
50
47
7
13
4
65
35
44
10
26
76
11
52
33
21
46
32
41
14
8
60
80
6

> <PUBCHEM_MMFF94_PARTIAL_CHARGES>
32
1 -0.57
12 0.3
14 0.27
15 0.3
16 0.06
17 0.33
18 0.27
2 -0.65
21 0.57
22 0.57
23 0.66
24 0.2
25 -0.14
26 -0.15
27 -0.15
28 -0.15
29 -0.15
3 -0.57
30 0.08
31 0.28
4 -0.57
5 -0.36
55 0.37
56 0.37
57 0.5
58 0.15
59 0.15
6 -0.81
60 0.15
61 0.15
7 -0.66
8 -0.8

> <PUBCHEM_EFFECTIVE_ROTOR_COUNT>
12.2

> <PUBCHEM_PHARMACOPHORE_FEATURES>
11
1 1 acceptor
1 2 acceptor
1 3 acceptor
1 4 acceptor
1 5 acceptor
1 6 cation
1 8 donor
3 2 4 23 anion
5 6 17 18 19 20 rings
6 25 26 27 28 29 30 rings
6 7 9 10 12 13 15 rings

> <PUBCHEM_HEAVY_ATOM_COUNT>
31

> <PUBCHEM_ATOM_DEF_STEREO_COUNT>
3

> <PUBCHEM_ATOM_UDEF_STEREO_COUNT>
0

> <PUBCHEM_BOND_DEF_STEREO_COUNT>
0

> <PUBCHEM_BOND_UDEF_STEREO_COUNT>
0

> <PUBCHEM_ISOTOPIC_ATOM_COUNT>
0

> <PUBCHEM_COMPONENT_COUNT>
1

> <PUBCHEM_CACTVS_TAUTO_COUNT>
2

> <PUBCHEM_CONFORMER_ID>
01B9E39E00000001

> <PUBCHEM_MMFF94_ENERGY>
74.4171

> <PUBCHEM_FEATURE_SELFOVERLAP>
55.879

> <PUBCHEM_SHAPE_FINGERPRINT>
10411042 1 18411135887418052735
1100329 8 18265335199878540863
11014199 57 18410578374798581492
11456790 92 18188223078447932635
11646440 116 18335708268919447723
12166972 35 17749106725141282774
12788726 201 18263662760750166054
13073987 5 18338229355067625378
13140716 1 18192713573143943935
138480 1 15528834973216274285
14028597 1 17894621522889784186
14068700 675 18335142015771535799
14395042 24 18337118878356577577
14955137 171 18338516477635744771
15400415 2 17474389072397722168
15419008 47 18202562887121267290
15968369 153 18130498712988154772
17627616 140 18046076110084752044
21304253 13 18412547643753654467
23845131 108 17690282608411266573
25019877 29 16916790721003833311
3418910 222 18262242222705051676
392239 28 18408892819420404643
469060 322 18337685126068688449
508706 21 18198893722298578968
653340 110 18268148660616732602
7808743 9 18195805159818576952
9896288 288 18268711606381025810

> <PUBCHEM_SHAPE_MULTIPOLES>
593.68
13.86
6.74
1.13
15.78
10.73
-0.1
-14.41
4.33
-7.85
0.48
0.19
0.2
0.02

> <PUBCHEM_SHAPE_SELFOVERLAP>
1236.654

> <PUBCHEM_SHAPE_VOLUME>
335.9

> <PUBCHEM_COORDINATE_TYPE>
2
5
10

$$$$
