11867148
  -OEChem-12032416403D

 58 62  0     1  0  0  0  0  0999 V2000
   -2.6606    0.9083   -0.1640 S   0  0  0  0  0  0  0  0  0  0  0  0
    0.5807    2.8933   -1.5850 O   0  0  0  0  0  0  0  0  0  0  0  0
    3.2672   -1.4595   -2.4115 O   0  0  0  0  0  0  0  0  0  0  0  0
   -2.6675    0.4853   -1.5515 O   0  0  0  0  0  0  0  0  0  0  0  0
   -2.4071   -0.0360    0.9068 O   0  0  0  0  0  0  0  0  0  0  0  0
    3.9962   -0.5505   -0.3825 N   0  0  0  0  0  0  0  0  0  0  0  0
    2.0931    1.9657   -0.0549 N   0  0  0  0  0  0  0  0  0  0  0  0
   -1.6370    2.2595    0.0203 N   0  0  0  0  0  0  0  0  0  0  0  0
    4.6163    1.8583   -0.4765 C   0  0  1  0  0  0  0  0  0  0  0  0
    3.6807    0.9155    1.5970 C   0  0  2  0  0  0  0  0  0  0  0  0
    4.7282    1.8807    1.0443 C   0  0  0  0  0  0  0  0  0  0  0  0
    4.8705    0.4381   -1.0132 C   0  0  0  0  0  0  0  0  0  0  0  0
    3.2342    2.3887   -0.8778 C   0  0  0  0  0  0  0  0  0  0  0  0
    3.9736   -0.5105    1.0888 C   0  0  0  0  0  0  0  0  0  0  0  0
    2.2818    1.3293    1.1796 C   0  0  0  0  0  0  0  0  0  0  0  0
    1.2301    1.0519    1.9720 C   0  0  0  0  0  0  0  0  0  0  0  0
    0.8096    2.3211   -0.5202 C   0  0  0  0  0  0  0  0  0  0  0  0
    3.2527   -1.4213   -1.1825 C   0  0  0  0  0  0  0  0  0  0  0  0
   -0.3115    1.9674    0.3864 C   0  0  0  0  0  0  0  0  0  0  0  0
   -0.1098    1.3786    1.5656 C   0  0  0  0  0  0  0  0  0  0  0  0
    2.3542   -2.3690   -0.5153 C   0  0  0  0  0  0  0  0  0  0  0  0
    1.0359   -2.0057   -0.2520 C   0  0  0  0  0  0  0  0  0  0  0  0
    2.8235   -3.6279   -0.1487 C   0  0  0  0  0  0  0  0  0  0  0  0
   -4.2285    1.6767    0.1592 C   0  0  0  0  0  0  0  0  0  0  0  0
    0.1811   -2.9072    0.3824 C   0  0  0  0  0  0  0  0  0  0  0  0
    1.9685   -4.5294    0.4857 C   0  0  0  0  0  0  0  0  0  0  0  0
    0.6474   -4.1689    0.7511 C   0  0  0  0  0  0  0  0  0  0  0  0
   -5.2858    0.6226    0.0416 C   0  0  0  0  0  0  0  0  0  0  0  0
   -5.6544   -0.1148    1.1630 C   0  0  0  0  0  0  0  0  0  0  0  0
   -5.8937    0.3871   -1.1882 C   0  0  0  0  0  0  0  0  0  0  0  0
   -6.6394   -1.0965    1.0538 C   0  0  0  0  0  0  0  0  0  0  0  0
   -6.8787   -0.5945   -1.2973 C   0  0  0  0  0  0  0  0  0  0  0  0
   -7.2514   -1.3363   -0.1763 C   0  0  0  0  0  0  0  0  0  0  0  0
    5.3778    2.5178   -0.9108 H   0  0  0  0  0  0  0  0  0  0  0  0
    3.7575    0.9165    2.6920 H   0  0  0  0  0  0  0  0  0  0  0  0
    4.5647    2.8952    1.4291 H   0  0  0  0  0  0  0  0  0  0  0  0
    5.7339    1.5760    1.3584 H   0  0  0  0  0  0  0  0  0  0  0  0
    4.7554    0.4187   -2.1022 H   0  0  0  0  0  0  0  0  0  0  0  0
    5.9016    0.1355   -0.7929 H   0  0  0  0  0  0  0  0  0  0  0  0
    3.2487    3.4856   -0.8193 H   0  0  0  0  0  0  0  0  0  0  0  0
    3.0185    2.1462   -1.9260 H   0  0  0  0  0  0  0  0  0  0  0  0
    4.9650   -0.8342    1.4291 H   0  0  0  0  0  0  0  0  0  0  0  0
    3.2514   -1.2175    1.5040 H   0  0  0  0  0  0  0  0  0  0  0  0
    1.3545    0.5505    2.9261 H   0  0  0  0  0  0  0  0  0  0  0  0
   -0.8944    1.1704    2.2836 H   0  0  0  0  0  0  0  0  0  0  0  0
   -1.6850    2.9236   -0.7647 H   0  0  0  0  0  0  0  0  0  0  0  0
    0.6596   -1.0299   -0.5450 H   0  0  0  0  0  0  0  0  0  0  0  0
    3.8512   -3.9179   -0.3507 H   0  0  0  0  0  0  0  0  0  0  0  0
   -4.2050    2.1098    1.1641 H   0  0  0  0  0  0  0  0  0  0  0  0
   -4.3815    2.4797   -0.5687 H   0  0  0  0  0  0  0  0  0  0  0  0
   -0.8481   -2.6277    0.5866 H   0  0  0  0  0  0  0  0  0  0  0  0
    2.3315   -5.5119    0.7729 H   0  0  0  0  0  0  0  0  0  0  0  0
   -0.0184   -4.8709    1.2444 H   0  0  0  0  0  0  0  0  0  0  0  0
   -5.1856    0.0631    2.1269 H   0  0  0  0  0  0  0  0  0  0  0  0
   -5.6128    0.9588   -2.0685 H   0  0  0  0  0  0  0  0  0  0  0  0
   -6.9297   -1.6740    1.9265 H   0  0  0  0  0  0  0  0  0  0  0  0
   -7.3556   -0.7814   -2.2550 H   0  0  0  0  0  0  0  0  0  0  0  0
   -8.0184   -2.1006   -0.2614 H   0  0  0  0  0  0  0  0  0  0  0  0
  1  4  2  0  0  0  0
  1  5  2  0  0  0  0
  1  8  1  0  0  0  0
  1 24  1  0  0  0  0
  2 17  2  0  0  0  0
  3 18  2  0  0  0  0
  6 12  1  0  0  0  0
  6 14  1  0  0  0  0
  6 18  1  0  0  0  0
  7 13  1  0  0  0  0
  7 15  1  0  0  0  0
  7 17  1  0  0  0  0
  8 19  1  0  0  0  0
  8 46  1  0  0  0  0
  9 11  1  0  0  0  0
  9 12  1  0  0  0  0
  9 13  1  0  0  0  0
  9 34  1  0  0  0  0
 10 11  1  0  0  0  0
 10 14  1  0  0  0  0
 10 15  1  0  0  0  0
 10 35  1  0  0  0  0
 11 36  1  0  0  0  0
 11 37  1  0  0  0  0
 12 38  1  0  0  0  0
 12 39  1  0  0  0  0
 13 40  1  0  0  0  0
 13 41  1  0  0  0  0
 14 42  1  0  0  0  0
 14 43  1  0  0  0  0
 15 16  2  0  0  0  0
 16 20  1  0  0  0  0
 16 44  1  0  0  0  0
 17 19  1  0  0  0  0
 18 21  1  0  0  0  0
 19 20  2  0  0  0  0
 20 45  1  0  0  0  0
 21 22  2  0  0  0  0
 21 23  1  0  0  0  0
 22 25  1  0  0  0  0
 22 47  1  0  0  0  0
 23 26  2  0  0  0  0
 23 48  1  0  0  0  0
 24 28  1  0  0  0  0
 24 49  1  0  0  0  0
 24 50  1  0  0  0  0
 25 27  2  0  0  0  0
 25 51  1  0  0  0  0
 26 27  1  0  0  0  0
 26 52  1  0  0  0  0
 27 53  1  0  0  0  0
 28 29  2  0  0  0  0
 28 30  1  0  0  0  0
 29 31  1  0  0  0  0
 29 54  1  0  0  0  0
 30 32  2  0  0  0  0
 30 55  1  0  0  0  0
 31 33  2  0  0  0  0
 31 56  1  0  0  0  0
 32 33  1  0  0  0  0
 32 57  1  0  0  0  0
 33 58  1  0  0  0  0
M  END
> <PUBCHEM_COMPOUND_CID>
11867148

> <PUBCHEM_CONFORMER_RMSD>
1

> <PUBCHEM_CONFORMER_DIVERSEORDER>
3
55
72
19
4
2
53
24
54
67
49
29
6
41
31
52
57
39
22
27
34
69
5
50
46
70
68
36
65
59
63
66
1
43
44
16
9
47
61
14
18
17
32
56
40
51
35
11
38
20
62
15
45
60
12
21
42
8
48
37
26
71
25
33
7
64
58
30
10
28
23
13

> <PUBCHEM_MMFF94_PARTIAL_CHARGES>
44
1 1.33
10 0.14
12 0.3
13 0.3
14 0.3
15 -0.03
16 -0.15
17 0.62
18 0.54
19 0.21
2 -0.57
20 -0.15
21 0.09
22 -0.15
23 -0.15
24 0.25
25 -0.15
26 -0.15
27 -0.15
28 -0.14
29 -0.15
3 -0.57
30 -0.15
31 -0.15
32 -0.15
33 -0.15
4 -0.65
44 0.15
45 0.15
46 0.42
47 0.15
48 0.15
5 -0.65
51 0.15
52 0.15
53 0.15
54 0.15
55 0.15
56 0.15
57 0.15
58 0.15
6 -0.66
7 -0.47
8 -0.75

> <PUBCHEM_EFFECTIVE_ROTOR_COUNT>
7

> <PUBCHEM_PHARMACOPHORE_FEATURES>
10
1 2 acceptor
1 3 acceptor
1 4 acceptor
1 5 acceptor
1 8 donor
6 21 22 23 25 26 27 rings
6 28 29 30 31 32 33 rings
6 6 9 10 11 12 14 rings
6 7 15 16 17 19 20 rings
6 7 9 10 11 13 15 rings

> <PUBCHEM_HEAVY_ATOM_COUNT>
33

> <PUBCHEM_ATOM_DEF_STEREO_COUNT>
2

> <PUBCHEM_ATOM_UDEF_STEREO_COUNT>
0

> <PUBCHEM_BOND_DEF_STEREO_COUNT>
0

> <PUBCHEM_BOND_UDEF_STEREO_COUNT>
0

> <PUBCHEM_ISOTOPIC_ATOM_COUNT>
0

> <PUBCHEM_COMPONENT_COUNT>
1

> <PUBCHEM_CACTVS_TAUTO_COUNT>
1

> <PUBCHEM_CONFORMER_ID>
00B5140C00000003

> <PUBCHEM_MMFF94_ENERGY>
91.8807

> <PUBCHEM_FEATURE_SELFOVERLAP>
52.347

> <PUBCHEM_SHAPE_FINGERPRINT>
10316853 100 18337957886472586186
11093857 51 18116456828594184510
11963148 33 18336817702085565051
12596602 18 17060623317495272873
13150687 139 18191887802238234156
1361 2 18408325514064183425
13617811 41 18334574672837334301
15183329 4 17821443569748275585
15419008 42 17825925075952749341
15799311 1 18340222864094982473
17093844 170 18411140260026835624
18365409 1 18051416463851132916
19301679 30 18411424995380005553
19315092 285 18058729091916596618
19319366 153 18341887511013323470
20764821 26 18337103587481608855
20775438 99 18272926141735544023
20775530 9 17687477766753858594
21197605 99 18271243940552692831
21623969 137 18409164437526201073
22956985 138 18047740513133520570
25222932 49 18273207599890393031
27425 322 17096652208961656572
338550 245 18266177412863163711
3737641 26 18341892935983733697
404807 78 17896617252184248067
4340502 62 18059287764605291320
444735 86 18339070511263303427
46194498 28 18040151846543984109
463206 1 18200868599653019039
484989 97 18337126634598086890
59755656 215 18411697716616851963
86090 222 18410294735406027139

> <PUBCHEM_SHAPE_MULTIPOLES>
644.55
14.76
4.48
1.61
30.92
5.26
-0.09
0.34
-1.7
-4.81
0.14
-0.53
-0.28
0.61

> <PUBCHEM_SHAPE_SELFOVERLAP>
1400.783

> <PUBCHEM_SHAPE_VOLUME>
350.2

> <PUBCHEM_COORDINATE_TYPE>
2
5
10

$$$$
