11884016
  -OEChem-12032416333D

 65 68  0     1  0  0  0  0  0999 V2000
    4.9359   -0.1332   -2.1803 S   0  0  0  0  0  0  0  0  0  0  0  0
    0.3908    0.8933   -1.2598 O   0  0  0  0  0  0  0  0  0  0  0  0
    1.9393    1.2411    1.3750 O   0  0  0  0  0  0  0  0  0  0  0  0
   -1.5293    0.6252    0.7238 O   0  0  0  0  0  0  0  0  0  0  0  0
    5.2600    1.1553   -2.7621 O   0  0  0  0  0  0  0  0  0  0  0  0
    5.2582   -1.3563   -2.8900 O   0  0  0  0  0  0  0  0  0  0  0  0
   -2.1258   -1.5621    1.0235 O   0  0  0  0  0  0  0  0  0  0  0  0
    5.0270   -2.5104   -0.3132 O   0  0  0  0  0  0  0  0  0  0  0  0
    7.6794    1.9187    1.6206 O   0  0  0  0  0  0  0  0  0  0  0  0
   -8.5041    1.2776   -0.0467 O   0  0  0  0  0  0  0  0  0  0  0  0
   -9.4553   -0.5522   -1.0694 O   0  0  0  0  0  0  0  0  0  0  0  0
    3.2922   -0.1647   -1.7561 N   0  0  0  0  0  0  0  0  0  0  0  0
   -3.6942    0.0686    0.4223 N   0  0  0  0  0  0  0  0  0  0  0  0
    2.0552    0.2713    0.3130 C   0  0  1  0  0  0  0  0  0  0  0  0
    0.6494   -0.0151   -0.1765 C   0  0  1  0  0  0  0  0  0  0  0  0
    2.7367    0.8942   -0.8800 C   0  0  2  0  0  0  0  0  0  0  0  0
   -0.1921    0.3058    1.0354 C   0  0  1  0  0  0  0  0  0  0  0  0
    1.5967    1.5997   -1.5885 C   0  0  0  0  0  0  0  0  0  0  0  0
    0.5485    1.4795    1.6352 C   0  0  0  0  0  0  0  0  0  0  0  0
    5.7227   -0.2315   -0.6004 C   0  0  0  0  0  0  0  0  0  0  0  0
   -2.4401   -0.4107    0.7475 C   0  0  0  0  0  0  0  0  0  0  0  0
    5.6778   -1.4066    0.1498 C   0  0  0  0  0  0  0  0  0  0  0  0
    6.3950    0.8862   -0.1061 C   0  0  0  0  0  0  0  0  0  0  0  0
    7.0225    0.8287    1.1384 C   0  0  0  0  0  0  0  0  0  0  0  0
    6.3053   -1.4641    1.3941 C   0  0  0  0  0  0  0  0  0  0  0  0
   -4.9054   -0.6541    0.3310 C   0  0  0  0  0  0  0  0  0  0  0  0
    6.9777   -0.3465    1.8886 C   0  0  0  0  0  0  0  0  0  0  0  0
   -6.0863    0.0033   -0.0136 C   0  0  0  0  0  0  0  0  0  0  0  0
   -4.9196   -2.0255    0.5859 C   0  0  0  0  0  0  0  0  0  0  0  0
    5.0345   -3.6655    0.5232 C   0  0  0  0  0  0  0  0  0  0  0  0
   -7.2813   -0.7104   -0.1031 C   0  0  0  0  0  0  0  0  0  0  0  0
   -6.1146   -2.7394    0.4963 C   0  0  0  0  0  0  0  0  0  0  0  0
    7.6862    3.0874    0.8021 C   0  0  0  0  0  0  0  0  0  0  0  0
   -7.2955   -2.0817    0.1518 C   0  0  0  0  0  0  0  0  0  0  0  0
   -8.5127   -0.0258   -0.4629 C   0  0  0  0  0  0  0  0  0  0  0  0
   -9.6667    2.0590   -0.3424 C   0  0  0  0  0  0  0  0  0  0  0  0
   -9.4680    3.4608    0.1937 C   0  0  0  0  0  0  0  0  0  0  0  0
    2.5590   -0.6101    0.7217 H   0  0  0  0  0  0  0  0  0  0  0  0
    0.5056   -1.0315   -0.5541 H   0  0  0  0  0  0  0  0  0  0  0  0
    3.5086    1.6195   -0.6076 H   0  0  0  0  0  0  0  0  0  0  0  0
   -0.1268   -0.5223    1.7547 H   0  0  0  0  0  0  0  0  0  0  0  0
    1.4807    2.6243   -1.2184 H   0  0  0  0  0  0  0  0  0  0  0  0
    1.7082    1.6376   -2.6764 H   0  0  0  0  0  0  0  0  0  0  0  0
    0.3862    1.5675    2.7138 H   0  0  0  0  0  0  0  0  0  0  0  0
    0.2604    2.4321    1.1764 H   0  0  0  0  0  0  0  0  0  0  0  0
    2.7353   -1.0177   -1.8857 H   0  0  0  0  0  0  0  0  0  0  0  0
    6.4052    1.7820   -0.7148 H   0  0  0  0  0  0  0  0  0  0  0  0
   -3.7570    1.0641    0.2235 H   0  0  0  0  0  0  0  0  0  0  0  0
    6.3134   -2.3399    2.0334 H   0  0  0  0  0  0  0  0  0  0  0  0
    7.4651   -0.3960    2.8585 H   0  0  0  0  0  0  0  0  0  0  0  0
   -6.0562    1.0706   -0.2216 H   0  0  0  0  0  0  0  0  0  0  0  0
   -4.0462   -2.6017    0.8577 H   0  0  0  0  0  0  0  0  0  0  0  0
    6.0488   -4.0519    0.6704 H   0  0  0  0  0  0  0  0  0  0  0  0
    4.5141   -3.4824    1.4695 H   0  0  0  0  0  0  0  0  0  0  0  0
    4.4719   -4.4451   -0.0011 H   0  0  0  0  0  0  0  0  0  0  0  0
   -6.1269   -3.8071    0.6953 H   0  0  0  0  0  0  0  0  0  0  0  0
    8.2074    2.9131   -0.1454 H   0  0  0  0  0  0  0  0  0  0  0  0
    6.6752    3.4827    0.6556 H   0  0  0  0  0  0  0  0  0  0  0  0
    8.2527    3.8545    1.3403 H   0  0  0  0  0  0  0  0  0  0  0  0
   -8.2185   -2.6523    0.0892 H   0  0  0  0  0  0  0  0  0  0  0  0
  -10.5424    1.6010    0.1302 H   0  0  0  0  0  0  0  0  0  0  0  0
   -9.8152    2.0935   -1.4272 H   0  0  0  0  0  0  0  0  0  0  0  0
   -9.2994    3.4393    1.2755 H   0  0  0  0  0  0  0  0  0  0  0  0
   -8.5835    3.9236   -0.2564 H   0  0  0  0  0  0  0  0  0  0  0  0
  -10.3397    4.0870   -0.0157 H   0  0  0  0  0  0  0  0  0  0  0  0
  1  5  2  0  0  0  0
  1  6  2  0  0  0  0
  1 12  1  0  0  0  0
  1 20  1  0  0  0  0
  2 15  1  0  0  0  0
  2 18  1  0  0  0  0
  3 14  1  0  0  0  0
  3 19  1  0  0  0  0
  4 17  1  0  0  0  0
  4 21  1  0  0  0  0
  7 21  2  0  0  0  0
  8 22  1  0  0  0  0
  8 30  1  0  0  0  0
  9 24  1  0  0  0  0
  9 33  1  0  0  0  0
 10 35  1  0  0  0  0
 10 36  1  0  0  0  0
 11 35  2  0  0  0  0
 12 16  1  0  0  0  0
 12 46  1  0  0  0  0
 13 21  1  0  0  0  0
 13 26  1  0  0  0  0
 13 48  1  0  0  0  0
 14 15  1  0  0  0  0
 14 16  1  0  0  0  0
 14 38  1  0  0  0  0
 15 17  1  0  0  0  0
 15 39  1  0  0  0  0
 16 18  1  0  0  0  0
 16 40  1  0  0  0  0
 17 19  1  0  0  0  0
 17 41  1  0  0  0  0
 18 42  1  0  0  0  0
 18 43  1  0  0  0  0
 19 44  1  0  0  0  0
 19 45  1  0  0  0  0
 20 22  2  0  0  0  0
 20 23  1  0  0  0  0
 22 25  1  0  0  0  0
 23 24  2  0  0  0  0
 23 47  1  0  0  0  0
 24 27  1  0  0  0  0
 25 27  2  0  0  0  0
 25 49  1  0  0  0  0
 26 28  1  0  0  0  0
 26 29  2  0  0  0  0
 27 50  1  0  0  0  0
 28 31  2  0  0  0  0
 28 51  1  0  0  0  0
 29 32  1  0  0  0  0
 29 52  1  0  0  0  0
 30 53  1  0  0  0  0
 30 54  1  0  0  0  0
 30 55  1  0  0  0  0
 31 34  1  0  0  0  0
 31 35  1  0  0  0  0
 32 34  2  0  0  0  0
 32 56  1  0  0  0  0
 33 57  1  0  0  0  0
 33 58  1  0  0  0  0
 33 59  1  0  0  0  0
 34 60  1  0  0  0  0
 36 37  1  0  0  0  0
 36 61  1  0  0  0  0
 36 62  1  0  0  0  0
 37 63  1  0  0  0  0
 37 64  1  0  0  0  0
 37 65  1  0  0  0  0
M  END
> <PUBCHEM_COMPOUND_CID>
11884016

> <PUBCHEM_CONFORMER_RMSD>
1.2

> <PUBCHEM_CONFORMER_DIVERSEORDER>
2
62
30
53
61
59
24
45
39
43
40
57
23
32
4
42
29
17
9
41
19
60
50
36
12
10
66
31
49
15
51
25
48
63
56
33
27
26
52
37
20
46
34
58
64
44
54
65
55
38
16
6
47
14
3
22
18
21
11
28
5
13
8
35
67
7
1

> <PUBCHEM_MMFF94_PARTIAL_CHARGES>
45
1 1.45
10 -0.43
11 -0.57
12 -0.91
13 -0.55
14 0.28
15 0.28
16 0.36
17 0.28
18 0.28
19 0.28
2 -0.56
20 -0.01
21 0.78
22 0.08
23 -0.15
24 0.08
25 -0.15
26 0.12
27 -0.15
28 -0.15
29 -0.15
3 -0.56
30 0.28
31 0.09
32 -0.15
33 0.28
34 -0.15
35 0.63
36 0.28
4 -0.43
46 0.42
47 0.15
48 0.37
49 0.15
5 -0.65
50 0.15
51 0.15
52 0.15
56 0.15
6 -0.65
60 0.15
7 -0.57
8 -0.36
9 -0.36

> <PUBCHEM_EFFECTIVE_ROTOR_COUNT>
13.2

> <PUBCHEM_PHARMACOPHORE_FEATURES>
14
1 11 acceptor
1 12 donor
1 13 donor
1 2 acceptor
1 3 acceptor
1 5 acceptor
1 6 acceptor
1 7 acceptor
1 8 acceptor
1 9 acceptor
5 2 14 15 16 18 rings
5 3 14 15 17 19 rings
6 20 22 23 24 25 27 rings
6 26 28 29 31 32 34 rings

> <PUBCHEM_HEAVY_ATOM_COUNT>
37

> <PUBCHEM_ATOM_DEF_STEREO_COUNT>
4

> <PUBCHEM_ATOM_UDEF_STEREO_COUNT>
0

> <PUBCHEM_BOND_DEF_STEREO_COUNT>
0

> <PUBCHEM_BOND_UDEF_STEREO_COUNT>
0

> <PUBCHEM_ISOTOPIC_ATOM_COUNT>
0

> <PUBCHEM_COMPONENT_COUNT>
1

> <PUBCHEM_CACTVS_TAUTO_COUNT>
2

> <PUBCHEM_CONFORMER_ID>
00B555F000000002

> <PUBCHEM_MMFF94_ENERGY>
109.8847

> <PUBCHEM_FEATURE_SELFOVERLAP>
71.787

> <PUBCHEM_SHAPE_FINGERPRINT>
10372059 70 18341045221505175937
10391435 84 16702016513559432639
11103572 95 18338516344460259431
11115154 58 17749108872250870996
11181472 205 18041288707180868732
11719270 70 18273218586079593615
11828532 37 11386368136609203054
12098696 120 17095517371591426031
12539747 91 17418369178347892201
13165053 371 18335135371642686944
13811026 1 18060139847482775561
14040221 8 18260553320872735044
14251764 18 13542466466981545661
14849402 71 12679455417615966627
15183329 4 18040445394515072502
15554971 5 17095526244793672375
19841028 212 18261952947614441002
23389318 12 14979954774880712777
3633792 109 18408604742946935699
3711267 37 17022901229921009181
4760202 70 12391214038100076417
5223283 242 14345796050371613078
57035037 87 18411417345120474984
6126387 218 18412541007844371363
6441014 3 17328018773131042426
99344 41 18334855035006305275
9962374 69 16773503487074557797

> <PUBCHEM_SHAPE_MULTIPOLES>
696.64
33.2
3.02
1.85
57.56
0.33
-1.04
-8.88
1.04
1.02
0.64
-4.7
-0.3
0.86

> <PUBCHEM_SHAPE_SELFOVERLAP>
1476.126

> <PUBCHEM_SHAPE_VOLUME>
391.2

> <PUBCHEM_COORDINATE_TYPE>
2
5
10

$$$$
