7155545
  -OEChem-12032416223D

 51 55  0     1  0  0  0  0  0999 V2000
   -1.7489   -3.7771   -0.5183 S   0  0  0  0  0  0  0  0  0  0  0  0
    5.4982    0.0081    1.3117 S   0  0  0  0  0  0  0  0  0  0  0  0
    1.2257    1.5623    2.0049 O   0  0  0  0  0  0  0  0  0  0  0  0
   -3.4738   -0.9363    1.4132 O   0  0  0  0  0  0  0  0  0  0  0  0
    3.2650   -0.7928   -1.7102 O   0  0  0  0  0  0  0  0  0  0  0  0
   -3.3350    0.9051    0.0029 N   0  0  0  0  0  0  0  0  0  0  0  0
   -0.4066    2.1165    0.4273 N   0  0  0  0  0  0  0  0  0  0  0  0
    2.9755    0.6455    0.0948 N   0  0  0  0  0  0  0  0  0  0  0  0
   -2.6930    3.0679    1.0756 C   0  0  1  0  0  0  0  0  0  0  0  0
   -2.1609    2.6757   -1.2928 C   0  0  2  0  0  0  0  0  0  0  0  0
   -2.6535    3.7251   -0.2986 C   0  0  0  0  0  0  0  0  0  0  0  0
   -3.6459    1.8598    1.0685 C   0  0  0  0  0  0  0  0  0  0  0  0
   -1.2669    2.6747    1.4789 C   0  0  0  0  0  0  0  0  0  0  0  0
   -3.1511    1.4952   -1.3315 C   0  0  0  0  0  0  0  0  0  0  0  0
   -0.7780    2.1757   -0.9197 C   0  0  0  0  0  0  0  0  0  0  0  0
    0.0739    1.7652   -1.8743 C   0  0  0  0  0  0  0  0  0  0  0  0
    0.8477    1.6180    0.8338 C   0  0  0  0  0  0  0  0  0  0  0  0
   -3.3174   -0.4609    0.2855 C   0  0  0  0  0  0  0  0  0  0  0  0
    1.7577    1.1477   -0.2584 C   0  0  0  0  0  0  0  0  0  0  0  0
    1.3660    1.2401   -1.5336 C   0  0  0  0  0  0  0  0  0  0  0  0
   -3.0831   -1.3888   -0.8794 C   0  0  0  0  0  0  0  0  0  0  0  0
   -3.1331   -2.7935   -0.3692 C   0  0  0  0  0  0  0  0  0  0  0  0
    3.6602   -0.3000   -0.6565 C   0  0  0  0  0  0  0  0  0  0  0  0
   -4.1829   -3.4343    0.2293 C   0  0  0  0  0  0  0  0  0  0  0  0
   -3.8471   -4.7741    0.5788 C   0  0  0  0  0  0  0  0  0  0  0  0
   -2.5532   -5.0914    0.2286 C   0  0  0  0  0  0  0  0  0  0  0  0
    4.9853   -0.7101   -0.1231 C   0  0  0  0  0  0  0  0  0  0  0  0
    5.8302   -1.6008   -0.6636 C   0  0  0  0  0  0  0  0  0  0  0  0
    6.9974   -1.7210    0.1446 C   0  0  0  0  0  0  0  0  0  0  0  0
    6.9476   -0.9015    1.2507 C   0  0  0  0  0  0  0  0  0  0  0  0
   -3.0732    3.7841    1.8145 H   0  0  0  0  0  0  0  0  0  0  0  0
   -2.1318    3.1358   -2.2891 H   0  0  0  0  0  0  0  0  0  0  0  0
   -1.9884    4.5977   -0.2912 H   0  0  0  0  0  0  0  0  0  0  0  0
   -3.6509    4.0834   -0.5811 H   0  0  0  0  0  0  0  0  0  0  0  0
   -3.6370    1.3659    2.0460 H   0  0  0  0  0  0  0  0  0  0  0  0
   -4.6739    2.2004    0.8930 H   0  0  0  0  0  0  0  0  0  0  0  0
   -1.2851    1.9752    2.3241 H   0  0  0  0  0  0  0  0  0  0  0  0
   -0.7454    3.5712    1.8413 H   0  0  0  0  0  0  0  0  0  0  0  0
   -2.8220    0.7541   -2.0630 H   0  0  0  0  0  0  0  0  0  0  0  0
   -4.1382    1.8444   -1.6592 H   0  0  0  0  0  0  0  0  0  0  0  0
   -0.1941    1.7946   -2.9253 H   0  0  0  0  0  0  0  0  0  0  0  0
    1.9865    0.9793   -2.3821 H   0  0  0  0  0  0  0  0  0  0  0  0
   -2.1119   -1.1614   -1.3318 H   0  0  0  0  0  0  0  0  0  0  0  0
   -3.8711   -1.2451   -1.6270 H   0  0  0  0  0  0  0  0  0  0  0  0
    3.2993    0.8392    1.0391 H   0  0  0  0  0  0  0  0  0  0  0  0
   -5.1505   -2.9829    0.4086 H   0  0  0  0  0  0  0  0  0  0  0  0
   -4.5209   -5.4704    1.0609 H   0  0  0  0  0  0  0  0  0  0  0  0
   -2.0418   -6.0324    0.3753 H   0  0  0  0  0  0  0  0  0  0  0  0
    5.6623   -2.1540   -1.5786 H   0  0  0  0  0  0  0  0  0  0  0  0
    7.8312   -2.3754   -0.0741 H   0  0  0  0  0  0  0  0  0  0  0  0
    7.6931   -0.7934    2.0258 H   0  0  0  0  0  0  0  0  0  0  0  0
  1 22  1  0  0  0  0
  1 26  1  0  0  0  0
  2 27  1  0  0  0  0
  2 30  1  0  0  0  0
  3 17  2  0  0  0  0
  4 18  2  0  0  0  0
  5 23  2  0  0  0  0
  6 12  1  0  0  0  0
  6 14  1  0  0  0  0
  6 18  1  0  0  0  0
  7 13  1  0  0  0  0
  7 15  1  0  0  0  0
  7 17  1  0  0  0  0
  8 19  1  0  0  0  0
  8 23  1  0  0  0  0
  8 45  1  0  0  0  0
  9 11  1  0  0  0  0
  9 12  1  0  0  0  0
  9 13  1  0  0  0  0
  9 31  1  0  0  0  0
 10 11  1  0  0  0  0
 10 14  1  0  0  0  0
 10 15  1  0  0  0  0
 10 32  1  0  0  0  0
 11 33  1  0  0  0  0
 11 34  1  0  0  0  0
 12 35  1  0  0  0  0
 12 36  1  0  0  0  0
 13 37  1  0  0  0  0
 13 38  1  0  0  0  0
 14 39  1  0  0  0  0
 14 40  1  0  0  0  0
 15 16  2  0  0  0  0
 16 20  1  0  0  0  0
 16 41  1  0  0  0  0
 17 19  1  0  0  0  0
 18 21  1  0  0  0  0
 19 20  2  0  0  0  0
 20 42  1  0  0  0  0
 21 22  1  0  0  0  0
 21 43  1  0  0  0  0
 21 44  1  0  0  0  0
 22 24  2  0  0  0  0
 23 27  1  0  0  0  0
 24 25  1  0  0  0  0
 24 46  1  0  0  0  0
 25 26  2  0  0  0  0
 25 47  1  0  0  0  0
 26 48  1  0  0  0  0
 27 28  2  0  0  0  0
 28 29  1  0  0  0  0
 28 49  1  0  0  0  0
 29 30  2  0  0  0  0
 29 50  1  0  0  0  0
 30 51  1  0  0  0  0
M  END
> <PUBCHEM_COMPOUND_CID>
7155545

> <PUBCHEM_CONFORMER_RMSD>
0.8

> <PUBCHEM_CONFORMER_DIVERSEORDER>
1
46
51
116
97
106
60
38
102
118
47
8
31
86
62
81
98
14
42
55
45
117
115
15
28
56
26
23
41
79
101
64
19
109
72
20
52
80
67
10
89
99
43
107
57
18
100
50
73
58
104
25
114
110
75
77
21
44
54
90
91
37
96
95
32
35
36
112
94
119
87
16
61
22
103
88
93
6
13
71
113
76
39
111
53
69
27
74
68
63
105
85
5
30
65
70
78
34
29
4
82
12
92
48
108
33
40
59
24
2
7
84
49
66
17
3
83
11
9

> <PUBCHEM_MMFF94_PARTIAL_CHARGES>
37
1 -0.08
10 0.14
12 0.3
13 0.3
14 0.3
15 -0.03
16 -0.15
17 0.62
18 0.57
19 0.12
2 -0.08
20 -0.15
21 0.24
22 -0.14
23 0.71
24 -0.15
25 -0.15
26 -0.11
27 -0.05
28 -0.15
29 -0.15
3 -0.57
30 -0.11
4 -0.57
41 0.15
42 0.15
45 0.37
46 0.15
47 0.15
48 0.15
49 0.15
5 -0.57
50 0.15
51 0.15
6 -0.66
7 -0.47
8 -0.54

> <PUBCHEM_EFFECTIVE_ROTOR_COUNT>
7

> <PUBCHEM_PHARMACOPHORE_FEATURES>
9
1 3 acceptor
1 4 acceptor
1 5 acceptor
1 8 donor
5 1 22 24 25 26 rings
5 2 27 28 29 30 rings
6 6 9 10 11 12 14 rings
6 7 15 16 17 19 20 rings
6 7 9 10 11 13 15 rings

> <PUBCHEM_HEAVY_ATOM_COUNT>
30

> <PUBCHEM_ATOM_DEF_STEREO_COUNT>
2

> <PUBCHEM_ATOM_UDEF_STEREO_COUNT>
0

> <PUBCHEM_BOND_DEF_STEREO_COUNT>
0

> <PUBCHEM_BOND_UDEF_STEREO_COUNT>
0

> <PUBCHEM_ISOTOPIC_ATOM_COUNT>
0

> <PUBCHEM_COMPONENT_COUNT>
1

> <PUBCHEM_CACTVS_TAUTO_COUNT>
2

> <PUBCHEM_CONFORMER_ID>
006D2F5900000001

> <PUBCHEM_MMFF94_ENERGY>
72.3259

> <PUBCHEM_FEATURE_SELFOVERLAP>
47.235

> <PUBCHEM_SHAPE_FINGERPRINT>
10319688 45 18334853896913545676
10483366 6 18335684050347647047
10622 236 18113900519704060822
11014199 57 18192997238443348618
117089 54 17972610058288635115
12107183 9 17908728438117196491
12202916 173 18059847355872857455
12523318 42 18411697652034281848
12712778 12 18411979152791417294
12969540 37 17547010084312841357
12990986 174 18339080496519031946
13009979 54 18262806288188770885
14020679 6 17560244587658944097
14114206 34 16298654053789885373
14659021 117 18335695100417531346
14705955 166 17346325843326411593
14844126 61 18409451379817022859
14856354 85 18342177726944671148
14866123 147 18411987979529647827
15183329 4 11602831173055825848
15320294 125 18187083901826915390
15348495 7 18201148876750748112
15439362 3 17038095127381012773
15484559 13 13346214348618789254
15728490 83 18334018310573006571
15803439 3 17463938343065326125
15927050 60 17910111314353760077
17349148 13 16226622771397254876
17627616 140 18120930603536380827
18603816 31 18116709617832393634
19315092 285 16197047252644986447
19611394 137 18202275919377068842
19958102 18 18193554472253923598
20771845 38 18196097647175941899
20775530 9 17980773945325446687
229767 44 18338526252659641491
23466295 7 18410013273276963235
23516275 137 17614868222627546506
23559900 14 18340756117959743344
2838139 119 8862950459450408542
3383291 50 18411985741735590091
397830 11 18341317969371468096
4073 2 18200872865056528330
4435113 14 17987536822774512150
445580 42 18412822486514980687
463206 1 18191030212462952827
484985 159 18333722507959182647
5080951 261 18042384882072248660
6201320 77 16266917712044245966
6441014 3 18266176326084645594
7970288 3 17976260458525488099

> <PUBCHEM_SHAPE_MULTIPOLES>
592.53
13.14
6.09
1.59
29.17
6.61
0.01
10.52
-2.75
-11.28
-0.52
0.3
-0.93
0.33

> <PUBCHEM_SHAPE_SELFOVERLAP>
1279.303

> <PUBCHEM_SHAPE_VOLUME>
324.9

> <PUBCHEM_COORDINATE_TYPE>
2
5
10

$$$$
