75536904
  -OEChem-12032416333D

 36 37  0     1  0  0  0  0  0999 V2000
   -0.4608   -3.2568    0.3623 O   0  0  0  0  0  0  0  0  0  0  0  0
    1.6666   -0.4462    1.1574 O   0  0  0  0  0  0  0  0  0  0  0  0
   -3.9599   -0.0702   -0.9434 O   0  0  0  0  0  0  0  0  0  0  0  0
   -4.0947    2.2034    0.1545 O   0  0  0  0  0  0  0  0  0  0  0  0
   -1.7196   -0.4805   -0.4423 N   0  0  0  0  0  0  0  0  0  0  0  0
    2.5468    0.1575   -0.9079 N   0  0  0  0  0  0  0  0  0  0  0  0
    4.6757    1.4274    0.4041 N   0  0  0  0  0  0  0  0  0  0  0  0
    0.6204   -1.0672    0.4085 C   0  0  2  0  0  0  0  0  0  0  0  0
   -0.4722   -0.0200    0.1754 C   0  0  0  0  0  0  0  0  0  0  0  0
   -1.7300   -1.7809   -1.1174 C   0  0  0  0  0  0  0  0  0  0  0  0
    0.1317   -2.2744    1.2043 C   0  0  0  0  0  0  0  0  0  0  0  0
   -1.7608   -2.9254   -0.1133 C   0  0  0  0  0  0  0  0  0  0  0  0
   -2.8972    0.2803   -0.4241 C   0  0  0  0  0  0  0  0  0  0  0  0
   -2.8288    1.6073    0.2937 C   0  0  0  0  0  0  0  0  0  0  0  0
    2.6463    0.1781    0.4361 C   0  0  0  0  0  0  0  0  0  0  0  0
    3.6920    0.8018    1.0805 C   0  0  0  0  0  0  0  0  0  0  0  0
   -4.1621    3.4762    0.7957 C   0  0  0  0  0  0  0  0  0  0  0  0
    3.5305    0.7830   -1.5843 C   0  0  0  0  0  0  0  0  0  0  0  0
    4.5761    1.4067   -0.9399 C   0  0  0  0  0  0  0  0  0  0  0  0
    0.9860   -1.4578   -0.5496 H   0  0  0  0  0  0  0  0  0  0  0  0
   -0.7066    0.4558    1.1342 H   0  0  0  0  0  0  0  0  0  0  0  0
   -0.0889    0.7860   -0.4621 H   0  0  0  0  0  0  0  0  0  0  0  0
   -0.8642   -1.8363   -1.7855 H   0  0  0  0  0  0  0  0  0  0  0  0
   -2.6251   -1.8481   -1.7449 H   0  0  0  0  0  0  0  0  0  0  0  0
    0.9870   -2.7592    1.6895 H   0  0  0  0  0  0  0  0  0  0  0  0
   -0.5541   -1.9896    2.0118 H   0  0  0  0  0  0  0  0  0  0  0  0
   -2.4317   -2.7243    0.7302 H   0  0  0  0  0  0  0  0  0  0  0  0
   -2.1330   -3.8229   -0.6188 H   0  0  0  0  0  0  0  0  0  0  0  0
   -2.6189    1.4398    1.3545 H   0  0  0  0  0  0  0  0  0  0  0  0
   -2.0598    2.2373   -0.1645 H   0  0  0  0  0  0  0  0  0  0  0  0
    3.7758    0.8209    2.1606 H   0  0  0  0  0  0  0  0  0  0  0  0
   -5.1668    3.8812    0.6489 H   0  0  0  0  0  0  0  0  0  0  0  0
   -3.4366    4.1647    0.3521 H   0  0  0  0  0  0  0  0  0  0  0  0
   -3.9779    3.3720    1.8692 H   0  0  0  0  0  0  0  0  0  0  0  0
    3.4510    0.7668   -2.6642 H   0  0  0  0  0  0  0  0  0  0  0  0
    5.3661    1.9091   -1.4842 H   0  0  0  0  0  0  0  0  0  0  0  0
  1 11  1  0  0  0  0
  1 12  1  0  0  0  0
  2  8  1  0  0  0  0
  2 15  1  0  0  0  0
  3 13  2  0  0  0  0
  4 14  1  0  0  0  0
  4 17  1  0  0  0  0
  5  9  1  0  0  0  0
  5 10  1  0  0  0  0
  5 13  1  0  0  0  0
  6 15  2  0  0  0  0
  6 18  1  0  0  0  0
  7 16  2  0  0  0  0
  7 19  1  0  0  0  0
  8  9  1  0  0  0  0
  8 11  1  0  0  0  0
  8 20  1  0  0  0  0
  9 21  1  0  0  0  0
  9 22  1  0  0  0  0
 10 12  1  0  0  0  0
 10 23  1  0  0  0  0
 10 24  1  0  0  0  0
 11 25  1  0  0  0  0
 11 26  1  0  0  0  0
 12 27  1  0  0  0  0
 12 28  1  0  0  0  0
 13 14  1  0  0  0  0
 14 29  1  0  0  0  0
 14 30  1  0  0  0  0
 15 16  1  0  0  0  0
 16 31  1  0  0  0  0
 17 32  1  0  0  0  0
 17 33  1  0  0  0  0
 17 34  1  0  0  0  0
 18 19  2  0  0  0  0
 18 35  1  0  0  0  0
 19 36  1  0  0  0  0
M  END
> <PUBCHEM_COMPOUND_CID>
75536904

> <PUBCHEM_CONFORMER_RMSD>
1

> <PUBCHEM_CONFORMER_DIVERSEORDER>
1
74
76
96
80
48
51
7
70
31
67
73
55
59
13
6
66
95
97
9
47
3
43
33
36
56
38
22
42
53
54
21
29
100
69
16
45
60
25
94
78
15
11
27
61
40
83
72
2
19
44
87
93
24
5
58
62
46
57
37
10
4
68
75
64
90
28
41
20
98
8
49
92
84
39
12
79
14
65
17
88
52
50
35
91
71
18
23
77
81
101
26
85
34
63
82
30
89
86
99
32

> <PUBCHEM_MMFF94_PARTIAL_CHARGES>
22
1 -0.56
10 0.3
11 0.28
12 0.28
13 0.57
14 0.34
15 0.39
16 0.16
17 0.28
18 0.16
19 0.16
2 -0.36
3 -0.57
31 0.15
35 0.15
36 0.15
4 -0.56
5 -0.66
6 -0.62
7 -0.62
8 0.28
9 0.3

> <PUBCHEM_EFFECTIVE_ROTOR_COUNT>
6.4

> <PUBCHEM_PHARMACOPHORE_FEATURES>
6
1 1 acceptor
1 3 acceptor
1 4 acceptor
1 7 acceptor
6 6 7 15 16 18 19 rings
7 1 5 8 9 10 11 12 rings

> <PUBCHEM_HEAVY_ATOM_COUNT>
19

> <PUBCHEM_ATOM_DEF_STEREO_COUNT>
1

> <PUBCHEM_ATOM_UDEF_STEREO_COUNT>
0

> <PUBCHEM_BOND_DEF_STEREO_COUNT>
0

> <PUBCHEM_BOND_UDEF_STEREO_COUNT>
0

> <PUBCHEM_ISOTOPIC_ATOM_COUNT>
0

> <PUBCHEM_COMPONENT_COUNT>
1

> <PUBCHEM_CACTVS_TAUTO_COUNT>
1

> <PUBCHEM_CONFORMER_ID>
04809A0800000001

> <PUBCHEM_MMFF94_ENERGY>
59.5317

> <PUBCHEM_FEATURE_SELFOVERLAP>
30.465

> <PUBCHEM_SHAPE_FINGERPRINT>
10382601 240 17896602769379705217
10498660 4 18201153248437072801
10681291 71 18340215093998393305
11370993 144 13840526442177476548
11640471 11 18113332033510953506
12173636 292 18411695512977135895
12390115 104 18272382940600197449
12788726 201 17901401295895567631
13583140 156 11243071075573430684
13828863 39 15504947456327779700
13878862 14 17541648423477618677
14123255 52 18339361868564194705
14123260 362 18260830444561446308
14251764 75 18199478657979378617
15342168 16 18263082115922154557
15534591 1 18410573989710506883
1741750 31 18408884057397022218
18785283 64 18046913675672277355
20567600 9 17837223579729969309
21524375 3 18187356623469969962
23419403 2 17407174998509229839
23557571 272 18124878116994375482
23559900 14 18341894134891486968
394222 165 18191301577049323091
474 4 18115026303551490137
5048184 11 18410293571264186969
5486654 2 18410290359377742415
633830 44 18340205168170405087
7808743 9 18410014364157062520

> <PUBCHEM_SHAPE_MULTIPOLES>
352.59
8.96
3.44
1.23
3.64
0.52
0.13
-9.2
1.07
-4.5
-0.8
0.76
0.03
-1.27

> <PUBCHEM_SHAPE_SELFOVERLAP>
722.545

> <PUBCHEM_SHAPE_VOLUME>
199.6

> <PUBCHEM_COORDINATE_TYPE>
2
5
10

$$$$
