11866358
  -OEChem-12032416153D

 66 67  0     1  0  0  0  0  0999 V2000
   -0.5909    2.6425   -1.2949 O   0  0  0  0  0  0  0  0  0  0  0  0
    3.4728    3.1585    0.6357 O   0  0  0  0  0  0  0  0  0  0  0  0
    1.4728    4.8271    1.7861 O   0  0  0  0  0  0  0  0  0  0  0  0
   -2.7135    2.2465    1.1875 O   0  0  0  0  0  0  0  0  0  0  0  0
    2.7378   -0.5065   -1.7852 O   0  0  0  0  0  0  0  0  0  0  0  0
   -4.2787    1.5312   -2.4039 O   0  0  0  0  0  0  0  0  0  0  0  0
    2.7058    0.3637    0.3638 N   0  0  0  0  0  0  0  0  0  0  0  0
   -2.4028    0.7375   -0.5577 N   0  0  0  0  0  0  0  0  0  0  0  0
    3.6958   -2.8679   -0.7770 N   0  0  0  0  0  0  0  0  0  0  0  0
   -5.9325    0.9659   -0.9133 N   0  0  0  0  0  0  0  0  0  0  0  0
   -0.6092    2.2024    0.0580 C   0  0  1  0  0  0  0  0  0  0  0  0
    1.8266    1.4786    0.0869 C   0  0  1  0  0  0  0  0  0  0  0  0
    0.3676    1.0417    0.2569 C   0  0  0  0  0  0  0  0  0  0  0  0
    2.1725    2.6749    0.9834 C   0  0  2  0  0  0  0  0  0  0  0  0
   -0.2660    3.3782    0.9704 C   0  0  0  0  0  0  0  0  0  0  0  0
    1.1854    3.8311    0.8043 C   0  0  1  0  0  0  0  0  0  0  0  0
   -2.0204    1.7535    0.3015 C   0  0  0  0  0  0  0  0  0  0  0  0
    3.0919   -0.5459   -0.6079 C   0  0  0  0  0  0  0  0  0  0  0  0
    4.0135   -1.6329   -0.0562 C   0  0  2  0  0  0  0  0  0  0  0  0
   -3.7058    0.1143   -0.5144 C   0  0  2  0  0  0  0  0  0  0  0  0
    5.5148   -1.2812   -0.1804 C   0  0  0  0  0  0  0  0  0  0  0  0
   -3.6736   -1.3325   -1.0200 C   0  0  0  0  0  0  0  0  0  0  0  0
    6.4052   -2.3520    0.4573 C   0  0  0  0  0  0  0  0  0  0  0  0
    5.9755   -1.0144   -1.6178 C   0  0  0  0  0  0  0  0  0  0  0  0
   -4.6339    0.9566   -1.3775 C   0  0  0  0  0  0  0  0  0  0  0  0
   -3.1579   -2.3015    0.0160 C   0  0  0  0  0  0  0  0  0  0  0  0
    2.3078   -3.2438   -0.5634 C   0  0  0  0  0  0  0  0  0  0  0  0
   -1.7998   -2.5716    0.0776 C   0  0  0  0  0  0  0  0  0  0  0  0
   -4.0516   -2.9044    0.8872 C   0  0  0  0  0  0  0  0  0  0  0  0
   -1.3232   -3.4675    1.0348 C   0  0  0  0  0  0  0  0  0  0  0  0
   -3.5751   -3.8002    1.8443 C   0  0  0  0  0  0  0  0  0  0  0  0
   -2.2109   -4.0818    1.9181 C   0  0  0  0  0  0  0  0  0  0  0  0
    1.9927    1.7670   -0.9597 H   0  0  0  0  0  0  0  0  0  0  0  0
    0.2254    0.6013    1.2537 H   0  0  0  0  0  0  0  0  0  0  0  0
    0.1738    0.2369   -0.4632 H   0  0  0  0  0  0  0  0  0  0  0  0
    2.2185    2.3667    2.0357 H   0  0  0  0  0  0  0  0  0  0  0  0
   -0.4395    3.1125    2.0225 H   0  0  0  0  0  0  0  0  0  0  0  0
   -0.9202    4.2380    0.7719 H   0  0  0  0  0  0  0  0  0  0  0  0
    1.3285    4.3041   -0.1742 H   0  0  0  0  0  0  0  0  0  0  0  0
    3.0065    0.2214    1.3237 H   0  0  0  0  0  0  0  0  0  0  0  0
   -1.1456    3.4381   -1.3671 H   0  0  0  0  0  0  0  0  0  0  0  0
    3.6658    3.9156    1.2149 H   0  0  0  0  0  0  0  0  0  0  0  0
    1.3524    4.4281    2.6646 H   0  0  0  0  0  0  0  0  0  0  0  0
   -1.7880    0.4862   -1.3263 H   0  0  0  0  0  0  0  0  0  0  0  0
    3.7936   -1.7826    1.0095 H   0  0  0  0  0  0  0  0  0  0  0  0
   -4.0662    0.1532    0.5217 H   0  0  0  0  0  0  0  0  0  0  0  0
    5.6759   -0.3494    0.3791 H   0  0  0  0  0  0  0  0  0  0  0  0
   -3.0694   -1.4120   -1.9342 H   0  0  0  0  0  0  0  0  0  0  0  0
   -4.6814   -1.6511   -1.3196 H   0  0  0  0  0  0  0  0  0  0  0  0
    3.8682   -2.7549   -1.7750 H   0  0  0  0  0  0  0  0  0  0  0  0
    6.3537   -3.3008   -0.0869 H   0  0  0  0  0  0  0  0  0  0  0  0
    7.4519   -2.0288    0.4645 H   0  0  0  0  0  0  0  0  0  0  0  0
    6.1087   -2.5369    1.4952 H   0  0  0  0  0  0  0  0  0  0  0  0
    7.0287   -0.7119   -1.6293 H   0  0  0  0  0  0  0  0  0  0  0  0
    5.8840   -1.9034   -2.2497 H   0  0  0  0  0  0  0  0  0  0  0  0
    5.4036   -0.2033   -2.0783 H   0  0  0  0  0  0  0  0  0  0  0  0
    2.0760   -3.3200    0.5040 H   0  0  0  0  0  0  0  0  0  0  0  0
    1.5849   -2.5772   -1.0414 H   0  0  0  0  0  0  0  0  0  0  0  0
    2.1454   -4.2387   -0.9919 H   0  0  0  0  0  0  0  0  0  0  0  0
   -6.2165    0.4667   -0.0764 H   0  0  0  0  0  0  0  0  0  0  0  0
   -6.6570    1.4791   -1.4044 H   0  0  0  0  0  0  0  0  0  0  0  0
   -1.1003   -2.0999   -0.6063 H   0  0  0  0  0  0  0  0  0  0  0  0
   -5.1154   -2.6895    0.8392 H   0  0  0  0  0  0  0  0  0  0  0  0
   -0.2626   -3.6885    1.0947 H   0  0  0  0  0  0  0  0  0  0  0  0
   -4.2661   -4.2780    2.5327 H   0  0  0  0  0  0  0  0  0  0  0  0
   -1.8399   -4.7790    2.6635 H   0  0  0  0  0  0  0  0  0  0  0  0
  1 11  1  0  0  0  0
  1 41  1  0  0  0  0
  2 14  1  0  0  0  0
  2 42  1  0  0  0  0
  3 16  1  0  0  0  0
  3 43  1  0  0  0  0
  4 17  2  0  0  0  0
  5 18  2  0  0  0  0
  6 25  2  0  0  0  0
  7 12  1  0  0  0  0
  7 18  1  0  0  0  0
  7 40  1  0  0  0  0
  8 17  1  0  0  0  0
  8 20  1  0  0  0  0
  8 44  1  0  0  0  0
  9 19  1  0  0  0  0
  9 27  1  0  0  0  0
  9 50  1  0  0  0  0
 10 25  1  0  0  0  0
 10 60  1  0  0  0  0
 10 61  1  0  0  0  0
 11 13  1  0  0  0  0
 11 15  1  0  0  0  0
 11 17  1  0  0  0  0
 12 13  1  0  0  0  0
 12 14  1  0  0  0  0
 12 33  1  0  0  0  0
 13 34  1  0  0  0  0
 13 35  1  0  0  0  0
 14 16  1  0  0  0  0
 14 36  1  0  0  0  0
 15 16  1  0  0  0  0
 15 37  1  0  0  0  0
 15 38  1  0  0  0  0
 16 39  1  0  0  0  0
 18 19  1  0  0  0  0
 19 21  1  0  0  0  0
 19 45  1  0  0  0  0
 20 22  1  0  0  0  0
 20 25  1  0  0  0  0
 20 46  1  0  0  0  0
 21 23  1  0  0  0  0
 21 24  1  0  0  0  0
 21 47  1  0  0  0  0
 22 26  1  0  0  0  0
 22 48  1  0  0  0  0
 22 49  1  0  0  0  0
 23 51  1  0  0  0  0
 23 52  1  0  0  0  0
 23 53  1  0  0  0  0
 24 54  1  0  0  0  0
 24 55  1  0  0  0  0
 24 56  1  0  0  0  0
 26 28  2  0  0  0  0
 26 29  1  0  0  0  0
 27 57  1  0  0  0  0
 27 58  1  0  0  0  0
 27 59  1  0  0  0  0
 28 30  1  0  0  0  0
 28 62  1  0  0  0  0
 29 31  2  0  0  0  0
 29 63  1  0  0  0  0
 30 32  2  0  0  0  0
 30 64  1  0  0  0  0
 31 32  1  0  0  0  0
 31 65  1  0  0  0  0
 32 66  1  0  0  0  0
M  END
> <PUBCHEM_COMPOUND_CID>
11866358

> <PUBCHEM_CONFORMER_RMSD>
1.2

> <PUBCHEM_CONFORMER_DIVERSEORDER>
1
150
22
79
98
54
29
77
138
104
67
17
143
68
127
159
60
47
91
76
165
89
164
39
37
161
100
149
30
61
55
74
45
48
53
134
122
34
70
140
63
57
128
44
144
108
52
73
115
118
107
131
163
46
129
111
86
166
31
99
106
80
84
126
56
156
8
114
110
65
154
97
145
9
35
146
120
90
137
116
4
142
26
49
169
170
147
28
43
83
153
69
21
10
130
109
94
105
135
81
20
132
117
13
71
125
32
50
78
85
133
103
59
112
15
72
152
14
158
58
12
25
148
121
23
136
92
7
40
113
160
75
3
95
16
139
36
62
66
157
11
2
167
82
51
33
123
19
155
42
141
124
88
101
5
119
6
38
27
151
96
93
41
87
162
18
168
24
64
102

> <PUBCHEM_MMFF94_PARTIAL_CHARGES>
40
1 -0.68
10 -0.8
11 0.34
12 0.3
14 0.28
16 0.28
17 0.57
18 0.57
19 0.33
2 -0.68
20 0.36
22 0.14
25 0.57
26 -0.14
27 0.27
28 -0.15
29 -0.15
3 -0.68
30 -0.15
31 -0.15
32 -0.15
4 -0.57
40 0.37
41 0.4
42 0.4
43 0.4
44 0.37
5 -0.57
50 0.36
6 -0.57
60 0.37
61 0.37
62 0.15
63 0.15
64 0.15
65 0.15
66 0.15
7 -0.73
8 -0.73
9 -0.9

> <PUBCHEM_EFFECTIVE_ROTOR_COUNT>
12.2

> <PUBCHEM_PHARMACOPHORE_FEATURES>
17
1 1 acceptor
1 1 donor
1 10 donor
1 2 acceptor
1 2 donor
1 3 acceptor
1 3 donor
1 4 acceptor
1 5 acceptor
1 6 acceptor
1 7 donor
1 8 donor
1 9 cation
1 9 donor
3 21 23 24 hydrophobe
6 11 12 13 14 15 16 rings
6 26 28 29 30 31 32 rings

> <PUBCHEM_HEAVY_ATOM_COUNT>
32

> <PUBCHEM_ATOM_DEF_STEREO_COUNT>
6

> <PUBCHEM_ATOM_UDEF_STEREO_COUNT>
0

> <PUBCHEM_BOND_DEF_STEREO_COUNT>
0

> <PUBCHEM_BOND_UDEF_STEREO_COUNT>
0

> <PUBCHEM_ISOTOPIC_ATOM_COUNT>
0

> <PUBCHEM_COMPONENT_COUNT>
1

> <PUBCHEM_CACTVS_TAUTO_COUNT>
8

> <PUBCHEM_CONFORMER_ID>
00B510F600000001

> <PUBCHEM_MMFF94_ENERGY>
73.9833

> <PUBCHEM_FEATURE_SELFOVERLAP>
86.292

> <PUBCHEM_SHAPE_FINGERPRINT>
10290309 65 17764585817209423464
10462674 369 17319613414705275266
11135609 12 18189340249857538353
12202916 173 18199452290900393622
12553582 1 18270694060310892444
12788726 201 18195238910961130802
13402501 40 18411697660323893687
14251757 5 18261111846534847098
14363568 33 18052274074193920802
14394314 77 18125722283910667025
14659021 117 18267580200805995720
14725015 67 18115870866164202043
14931854 50 18265891354745093487
15351339 4 18046614608725546731
15968369 26 18265597961677338212
16067689 391 17483141266532903270
16112460 7 18343030994980376473
17627616 140 17684366161690294251
17909252 39 18048610505633998840
19315092 285 15481235388721138207
19611394 137 18342448207385255402
1979834 28 17182796891998439891
20600515 1 18266477424359672140
20775530 9 18263085559874008942
21133410 32 16735264710133333338
22440779 20 17316518203461866321
23466295 7 18261404376936479251
23559900 14 18341601650896024408
3729539 64 18191296084202791335
3737641 26 18051991495077864058
4015057 19 18200857574609445245
4280585 95 18337380557612210272
437795 96 17904759234350572291
4461854 278 15956698584736824882
463206 1 18338241444714137914
474144 1 17388520619449028218
508706 21 18187638167725586279
5171179 24 18267581497564787443
5486654 36 18342470226411203889
613672 6 18271525304218833078
6371380 46 18338232670639654233
6376802 90 18261374677006038429
6695519 79 17193196064167765833
9709674 26 18267295620335697525

> <PUBCHEM_SHAPE_MULTIPOLES>
603.41
11.88
6.5
1.64
7.91
0.98
-0.17
-8.13
-3.85
-0.45
3.86
-1
0.07
3.88

> <PUBCHEM_SHAPE_SELFOVERLAP>
1243.167

> <PUBCHEM_SHAPE_VOLUME>
343.5

> <PUBCHEM_COORDINATE_TYPE>
2
5
10

$$$$
