7663744
  -OEChem-12032416213D

 54 58  0     1  0  0  0  0  0999 V2000
    8.8669    0.5670   -0.7711 Cl  0  0  0  0  0  0  0  0  0  0  0  0
    0.4023   -2.4067   -1.4634 O   0  0  0  0  0  0  0  0  0  0  0  0
   -3.4159    0.9175   -2.5083 O   0  0  0  0  0  0  0  0  0  0  0  0
   -3.9383   -0.1569   -0.4964 N   0  0  0  0  0  0  0  0  0  0  0  0
   -1.3752   -1.9647   -0.0218 N   0  0  0  0  0  0  0  0  0  0  0  0
   -3.7863   -2.6400   -0.5670 C   0  0  1  0  0  0  0  0  0  0  0  0
   -3.2926   -1.4438    1.5267 C   0  0  2  0  0  0  0  0  0  0  0  0
   -3.9654   -2.6867    0.9464 C   0  0  0  0  0  0  0  0  0  0  0  0
   -4.4352   -1.3695   -1.1460 C   0  0  0  0  0  0  0  0  0  0  0  0
   -2.2890   -2.7220   -0.8897 C   0  0  0  0  0  0  0  0  0  0  0  0
   -3.9802   -0.1789    0.9747 C   0  0  0  0  0  0  0  0  0  0  0  0
   -1.8152   -1.4129    1.1837 C   0  0  0  0  0  0  0  0  0  0  0  0
   -0.9395   -0.8264    2.0149 C   0  0  0  0  0  0  0  0  0  0  0  0
   -0.0229   -1.9138   -0.4168 C   0  0  0  0  0  0  0  0  0  0  0  0
   -3.4535    0.8934   -1.2794 C   0  0  0  0  0  0  0  0  0  0  0  0
    0.9300   -1.2225    0.5214 C   0  0  0  0  0  0  0  0  0  0  0  0
    0.4510   -0.7318    1.6730 C   0  0  0  0  0  0  0  0  0  0  0  0
   -2.9200    2.0738   -0.5915 C   0  0  0  0  0  0  0  0  0  0  0  0
    2.3251   -1.1109    0.1769 C   0  0  0  0  0  0  0  0  0  0  0  0
   -1.5691    2.1301   -0.2585 C   0  0  0  0  0  0  0  0  0  0  0  0
   -3.7673    3.1323   -0.2744 C   0  0  0  0  0  0  0  0  0  0  0  0
    3.0937   -0.0909    0.5784 C   0  0  0  0  0  0  0  0  0  0  0  0
   -1.0620    3.2527    0.3961 C   0  0  0  0  0  0  0  0  0  0  0  0
   -3.2602    4.2550    0.3800 C   0  0  0  0  0  0  0  0  0  0  0  0
   -1.9075    4.3150    0.7152 C   0  0  0  0  0  0  0  0  0  0  0  0
    4.5195    0.0715    0.2446 C   0  0  0  0  0  0  0  0  0  0  0  0
    5.2510   -1.0320   -0.1640 C   0  0  0  0  0  0  0  0  0  0  0  0
    5.1017    1.3248    0.3463 C   0  0  0  0  0  0  0  0  0  0  0  0
    6.6011   -0.8782   -0.4793 C   0  0  0  0  0  0  0  0  0  0  0  0
    6.4518    1.4786    0.0309 C   0  0  0  0  0  0  0  0  0  0  0  0
    7.2014    0.3771   -0.3818 C   0  0  0  0  0  0  0  0  0  0  0  0
   -4.2852   -3.5040   -1.0233 H   0  0  0  0  0  0  0  0  0  0  0  0
   -3.4212   -1.4615    2.6167 H   0  0  0  0  0  0  0  0  0  0  0  0
   -3.5202   -3.6001    1.3606 H   0  0  0  0  0  0  0  0  0  0  0  0
   -5.0310   -2.7023    1.2057 H   0  0  0  0  0  0  0  0  0  0  0  0
   -4.2757   -1.3228   -2.2285 H   0  0  0  0  0  0  0  0  0  0  0  0
   -5.5193   -1.3963   -0.9808 H   0  0  0  0  0  0  0  0  0  0  0  0
   -1.9700   -3.7703   -0.8092 H   0  0  0  0  0  0  0  0  0  0  0  0
   -2.1048   -2.4302   -1.9313 H   0  0  0  0  0  0  0  0  0  0  0  0
   -5.0393   -0.1721    1.2609 H   0  0  0  0  0  0  0  0  0  0  0  0
   -3.5306    0.7177    1.4080 H   0  0  0  0  0  0  0  0  0  0  0  0
   -1.2568   -0.3795    2.9513 H   0  0  0  0  0  0  0  0  0  0  0  0
    1.0775   -0.2444    2.4135 H   0  0  0  0  0  0  0  0  0  0  0  0
    2.7121   -1.9048   -0.4536 H   0  0  0  0  0  0  0  0  0  0  0  0
   -0.9003    1.3129   -0.5123 H   0  0  0  0  0  0  0  0  0  0  0  0
   -4.8227    3.0947   -0.5308 H   0  0  0  0  0  0  0  0  0  0  0  0
    2.6775    0.7218    1.1696 H   0  0  0  0  0  0  0  0  0  0  0  0
   -0.0083    3.2997    0.6553 H   0  0  0  0  0  0  0  0  0  0  0  0
   -3.9185    5.0822    0.6289 H   0  0  0  0  0  0  0  0  0  0  0  0
   -1.5126    5.1892    1.2246 H   0  0  0  0  0  0  0  0  0  0  0  0
    4.8330   -2.0311   -0.2324 H   0  0  0  0  0  0  0  0  0  0  0  0
    4.5310    2.1930    0.6649 H   0  0  0  0  0  0  0  0  0  0  0  0
    7.1747   -1.7460   -0.7949 H   0  0  0  0  0  0  0  0  0  0  0  0
    6.9063    2.4627    0.1109 H   0  0  0  0  0  0  0  0  0  0  0  0
  1 31  1  0  0  0  0
  2 14  2  0  0  0  0
  3 15  2  0  0  0  0
  4  9  1  0  0  0  0
  4 11  1  0  0  0  0
  4 15  1  0  0  0  0
  5 10  1  0  0  0  0
  5 12  1  0  0  0  0
  5 14  1  0  0  0  0
  6  8  1  0  0  0  0
  6  9  1  0  0  0  0
  6 10  1  0  0  0  0
  6 32  1  0  0  0  0
  7  8  1  0  0  0  0
  7 11  1  0  0  0  0
  7 12  1  0  0  0  0
  7 33  1  0  0  0  0
  8 34  1  0  0  0  0
  8 35  1  0  0  0  0
  9 36  1  0  0  0  0
  9 37  1  0  0  0  0
 10 38  1  0  0  0  0
 10 39  1  0  0  0  0
 11 40  1  0  0  0  0
 11 41  1  0  0  0  0
 12 13  2  0  0  0  0
 13 17  1  0  0  0  0
 13 42  1  0  0  0  0
 14 16  1  0  0  0  0
 15 18  1  0  0  0  0
 16 17  2  0  0  0  0
 16 19  1  0  0  0  0
 17 43  1  0  0  0  0
 18 20  2  0  0  0  0
 18 21  1  0  0  0  0
 19 22  2  0  0  0  0
 19 44  1  0  0  0  0
 20 23  1  0  0  0  0
 20 45  1  0  0  0  0
 21 24  2  0  0  0  0
 21 46  1  0  0  0  0
 22 26  1  0  0  0  0
 22 47  1  0  0  0  0
 23 25  2  0  0  0  0
 23 48  1  0  0  0  0
 24 25  1  0  0  0  0
 24 49  1  0  0  0  0
 25 50  1  0  0  0  0
 26 27  2  0  0  0  0
 26 28  1  0  0  0  0
 27 29  1  0  0  0  0
 27 51  1  0  0  0  0
 28 30  2  0  0  0  0
 28 52  1  0  0  0  0
 29 31  2  0  0  0  0
 29 53  1  0  0  0  0
 30 31  1  0  0  0  0
 30 54  1  0  0  0  0
M  END
> <PUBCHEM_COMPOUND_CID>
7663744

> <PUBCHEM_CONFORMER_RMSD>
0.8

> <PUBCHEM_CONFORMER_DIVERSEORDER>
1
7
6
3
4
5
2

> <PUBCHEM_MMFF94_PARTIAL_CHARGES>
42
1 -0.18
10 0.3
11 0.3
12 -0.03
13 -0.15
14 0.62
15 0.54
16 0.01
17 -0.15
18 0.09
19 -0.15
2 -0.57
20 -0.15
21 -0.15
22 -0.18
23 -0.15
24 -0.15
25 -0.15
26 0.03
27 -0.15
28 -0.15
29 -0.15
3 -0.57
30 -0.15
31 0.18
4 -0.66
42 0.15
43 0.15
44 0.15
45 0.15
46 0.15
47 0.15
48 0.15
49 0.15
5 -0.47
50 0.15
51 0.15
52 0.15
53 0.15
54 0.15
7 0.14
9 0.3

> <PUBCHEM_EFFECTIVE_ROTOR_COUNT>
5

> <PUBCHEM_PHARMACOPHORE_FEATURES>
7
1 2 acceptor
1 3 acceptor
6 18 20 21 23 24 25 rings
6 26 27 28 29 30 31 rings
6 4 6 7 8 9 11 rings
6 5 12 13 14 16 17 rings
6 5 6 7 8 10 12 rings

> <PUBCHEM_HEAVY_ATOM_COUNT>
31

> <PUBCHEM_ATOM_DEF_STEREO_COUNT>
2

> <PUBCHEM_ATOM_UDEF_STEREO_COUNT>
0

> <PUBCHEM_BOND_DEF_STEREO_COUNT>
1

> <PUBCHEM_BOND_UDEF_STEREO_COUNT>
0

> <PUBCHEM_ISOTOPIC_ATOM_COUNT>
0

> <PUBCHEM_COMPONENT_COUNT>
1

> <PUBCHEM_CACTVS_TAUTO_COUNT>
1

> <PUBCHEM_CONFORMER_ID>
0074F08000000001

> <PUBCHEM_MMFF94_ENERGY>
91.6783

> <PUBCHEM_FEATURE_SELFOVERLAP>
37.104

> <PUBCHEM_SHAPE_FINGERPRINT>
10076449 9 18334857256041934499
100830 39 18411139117887548004
10165383 225 17988651766298273339
10291535 26 18408045099960115347
10454371 7 18409736158130408396
10670039 82 18409163312424286416
11477941 20 18270950357946903228
11524674 6 8934732080048169313
11578080 2 18127704741913980663
12107698 1 18334859467733573792
12788726 201 18334848446235927010
14347329 18 18341043013559013856
14713325 29 18411704266315644387
14950920 106 12252483097871810366
15183329 4 18342455959379263150
15297060 5 18272653394052672592
15439362 3 17836369242331452556
15604295 49 18270961384537090208
15876981 60 18261678189480518103
17093844 170 8177831028687665081
17492 54 18117252823762762341
17844677 252 18335143124569638054
19611394 137 17972888239589704827
19958102 18 17989212547188013974
20609170 92 18059305262850168910
21236236 1 18335704927534702232
21859007 373 18201422672484065912
22956985 138 16743702529599826075
255183 451 17766269161254274263
354706 132 18263366906767118532
3610482 184 18189068520747119748
397830 11 8069729760576567518
437795 83 18410580604714887212
445580 37 18334023800537203380
4616759 239 17313943173226635856
469060 322 16298684802014703729
497634 4 17703518777977293786
5171179 24 18058719346483535705
5283173 99 18413106139667663000
531348 171 18341049627735283194
57527452 28 16558745767872997239
57527585 21 18055046806596774973
7288768 16 17897735258336404041

> <PUBCHEM_SHAPE_MULTIPOLES>
618.13
16.34
4.46
1.47
46.81
4.8
-0.05
2.41
-4.06
-7.64
0.18
-1.52
-0.41
0.31

> <PUBCHEM_SHAPE_SELFOVERLAP>
1354.584

> <PUBCHEM_SHAPE_VOLUME>
331.5

> <PUBCHEM_COORDINATE_TYPE>
2
5
10

$$$$
