26744527
  -OEChem-12032416353D

 55 58  0     1  0  0  0  0  0999 V2000
    1.8660    0.4272    0.0940 S   0  0  0  0  0  0  0  0  0  0  0  0
   -5.8536    3.5289    0.8885 O   0  0  0  0  0  0  0  0  0  0  0  0
   -1.9844    0.3640   -2.2645 O   0  0  0  0  0  0  0  0  0  0  0  0
    1.7593   -0.9545   -0.3360 O   0  0  0  0  0  0  0  0  0  0  0  0
    1.2629    0.8592    1.3407 O   0  0  0  0  0  0  0  0  0  0  0  0
    0.8688   -4.5979   -0.8906 O   0  0  0  0  0  0  0  0  0  0  0  0
    1.8146   -3.7025    0.9723 O   0  0  0  0  0  0  0  0  0  0  0  0
   -3.8645    0.5662    0.6976 N   0  0  1  0  0  0  0  0  0  0  0  0
   -1.1451    1.5314   -0.5471 N   0  0  0  0  0  0  0  0  0  0  0  0
   -0.6006    0.4238   -2.4734 N   0  0  0  0  0  0  0  0  0  0  0  0
   -3.6627    1.1205   -0.6565 C   0  0  1  0  0  0  0  0  0  0  0  0
   -4.1806    2.5683   -0.5705 C   0  0  0  0  0  0  0  0  0  0  0  0
   -4.6944    2.7193    0.8559 C   0  0  2  0  0  0  0  0  0  0  0  0
   -4.9915    1.2932    1.2788 C   0  0  0  0  0  0  0  0  0  0  0  0
   -4.0807   -0.8748    0.7020 C   0  0  0  0  0  0  0  0  0  0  0  0
   -2.2202    1.0406   -1.1100 C   0  0  0  0  0  0  0  0  0  0  0  0
   -2.7884   -1.6360    0.5699 C   0  0  0  0  0  0  0  0  0  0  0  0
   -0.1767    1.1277   -1.4196 C   0  0  0  0  0  0  0  0  0  0  0  0
   -1.7750   -1.4577    1.5119 C   0  0  0  0  0  0  0  0  0  0  0  0
   -2.6043   -2.5192   -0.4939 C   0  0  0  0  0  0  0  0  0  0  0  0
    1.2413    1.4436   -1.2153 C   0  0  0  0  0  0  0  0  0  0  0  0
   -0.5778   -2.1626    1.3899 C   0  0  0  0  0  0  0  0  0  0  0  0
   -1.4069   -3.2241   -0.6158 C   0  0  0  0  0  0  0  0  0  0  0  0
   -0.3937   -3.0461    0.3262 C   0  0  0  0  0  0  0  0  0  0  0  0
    3.5803    0.8462    0.1734 C   0  0  0  0  0  0  0  0  0  0  0  0
    4.0064    1.8844    1.0019 C   0  0  0  0  0  0  0  0  0  0  0  0
    4.5073    0.1410   -0.5941 C   0  0  0  0  0  0  0  0  0  0  0  0
    0.8543   -3.7820    0.1991 C   0  0  0  0  0  0  0  0  0  0  0  0
    5.3594    2.2174    1.0628 C   0  0  0  0  0  0  0  0  0  0  0  0
    5.8605    0.4741   -0.5332 C   0  0  0  0  0  0  0  0  0  0  0  0
    6.2867    1.5122    0.2953 C   0  0  0  0  0  0  0  0  0  0  0  0
    7.7334    1.8682    0.3606 C   0  0  0  0  0  0  0  0  0  0  0  0
   -4.2915    0.5943   -1.3886 H   0  0  0  0  0  0  0  0  0  0  0  0
   -3.4120    3.3212   -0.7792 H   0  0  0  0  0  0  0  0  0  0  0  0
   -4.9899    2.7245   -1.2948 H   0  0  0  0  0  0  0  0  0  0  0  0
   -3.9261    3.1643    1.5000 H   0  0  0  0  0  0  0  0  0  0  0  0
   -5.0264    1.2015    2.3694 H   0  0  0  0  0  0  0  0  0  0  0  0
   -5.9586    0.9604    0.8790 H   0  0  0  0  0  0  0  0  0  0  0  0
   -4.8078   -1.1791   -0.0624 H   0  0  0  0  0  0  0  0  0  0  0  0
   -4.5173   -1.1835    1.6623 H   0  0  0  0  0  0  0  0  0  0  0  0
   -5.6103    4.4017    0.5356 H   0  0  0  0  0  0  0  0  0  0  0  0
   -1.9053   -0.7765    2.3487 H   0  0  0  0  0  0  0  0  0  0  0  0
   -3.3845   -2.6658   -1.2360 H   0  0  0  0  0  0  0  0  0  0  0  0
    1.3716    2.4904   -0.9263 H   0  0  0  0  0  0  0  0  0  0  0  0
    1.8344    1.2428   -2.1127 H   0  0  0  0  0  0  0  0  0  0  0  0
    0.1981   -2.0120    2.1360 H   0  0  0  0  0  0  0  0  0  0  0  0
   -1.3053   -3.9004   -1.4599 H   0  0  0  0  0  0  0  0  0  0  0  0
    3.3008    2.4514    1.6024 H   0  0  0  0  0  0  0  0  0  0  0  0
    4.1954   -0.6666   -1.2502 H   0  0  0  0  0  0  0  0  0  0  0  0
    5.6793    3.0281    1.7121 H   0  0  0  0  0  0  0  0  0  0  0  0
    6.5732   -0.0828   -1.1357 H   0  0  0  0  0  0  0  0  0  0  0  0
    8.2272    1.2902    1.1480 H   0  0  0  0  0  0  0  0  0  0  0  0
    8.2342    1.6634   -0.5918 H   0  0  0  0  0  0  0  0  0  0  0  0
    7.8688    2.9347    0.5706 H   0  0  0  0  0  0  0  0  0  0  0  0
    1.7144   -5.0893   -0.9672 H   0  0  0  0  0  0  0  0  0  0  0  0
  1  4  2  0  0  0  0
  1  5  2  0  0  0  0
  1 21  1  0  0  0  0
  1 25  1  0  0  0  0
  2 13  1  0  0  0  0
  2 41  1  0  0  0  0
  3 10  1  0  0  0  0
  3 16  1  0  0  0  0
  6 28  1  0  0  0  0
  6 55  1  0  0  0  0
  7 28  2  0  0  0  0
  8 11  1  0  0  0  0
  8 14  1  0  0  0  0
  8 15  1  0  0  0  0
  9 16  2  0  0  0  0
  9 18  1  0  0  0  0
 10 18  2  0  0  0  0
 11 12  1  0  0  0  0
 11 16  1  0  0  0  0
 11 33  1  0  0  0  0
 12 13  1  0  0  0  0
 12 34  1  0  0  0  0
 12 35  1  0  0  0  0
 13 14  1  0  0  0  0
 13 36  1  0  0  0  0
 14 37  1  0  0  0  0
 14 38  1  0  0  0  0
 15 17  1  0  0  0  0
 15 39  1  0  0  0  0
 15 40  1  0  0  0  0
 17 19  2  0  0  0  0
 17 20  1  0  0  0  0
 18 21  1  0  0  0  0
 19 22  1  0  0  0  0
 19 42  1  0  0  0  0
 20 23  2  0  0  0  0
 20 43  1  0  0  0  0
 21 44  1  0  0  0  0
 21 45  1  0  0  0  0
 22 24  2  0  0  0  0
 22 46  1  0  0  0  0
 23 24  1  0  0  0  0
 23 47  1  0  0  0  0
 24 28  1  0  0  0  0
 25 26  2  0  0  0  0
 25 27  1  0  0  0  0
 26 29  1  0  0  0  0
 26 48  1  0  0  0  0
 27 30  2  0  0  0  0
 27 49  1  0  0  0  0
 29 31  2  0  0  0  0
 29 50  1  0  0  0  0
 30 31  1  0  0  0  0
 30 51  1  0  0  0  0
 31 32  1  0  0  0  0
 32 52  1  0  0  0  0
 32 53  1  0  0  0  0
 32 54  1  0  0  0  0
M  END
> <PUBCHEM_COMPOUND_CID>
26744527

> <PUBCHEM_CONFORMER_RMSD>
1

> <PUBCHEM_CONFORMER_DIVERSEORDER>
1
76
155
187
14
132
188
141
12
97
54
124
98
112
144
195
73
148
56
90
180
179
133
16
34
113
75
100
93
196
160
138
52
119
173
154
80
142
53
92
159
103
17
197
4
110
61
83
68
192
150
158
79
43
101
18
59
91
55
105
77
94
28
46
151
189
87
19
182
57
167
174
139
60
10
140
78
129
163
85
157
175
104
24
41
109
15
166
63
115
49
42
183
169
51
137
107
38
126
3
156
181
168
106
120
164
172
11
36
58
145
153
143
96
178
136
37
33
118
89
176
102
186
2
177
71
127
147
70
135
27
165
194
9
65
185
26
117
184
13
62
40
171
47
8
86
25
198
152
45
21
23
114
7
31
162
149
161
116
5
122
64
128
191
88
74
81
131
193
108
66
95
82
134
44
170
123
190
35
48
20
6
84
111
121
22
99
146
125
30
72
50
29
130
39
32
69
67

> <PUBCHEM_MMFF94_PARTIAL_CHARGES>
41
1 1.2
10 -0.41
11 0.45
13 0.28
14 0.27
15 0.41
16 0.3
17 -0.14
18 0.34
19 -0.15
2 -0.68
20 -0.15
21 0.29
22 -0.15
23 -0.15
24 0.09
25 -0.01
26 -0.15
27 -0.15
28 0.63
29 -0.15
3 -0.02
30 -0.15
31 -0.14
32 0.14
4 -0.65
41 0.4
42 0.15
43 0.15
46 0.15
47 0.15
48 0.15
49 0.15
5 -0.65
50 0.15
51 0.15
55 0.5
6 -0.65
7 -0.57
8 -0.81
9 -0.57

> <PUBCHEM_EFFECTIVE_ROTOR_COUNT>
8

> <PUBCHEM_PHARMACOPHORE_FEATURES>
13
1 2 acceptor
1 2 donor
1 4 acceptor
1 5 acceptor
1 6 acceptor
1 7 acceptor
1 8 cation
3 6 7 28 anion
3 9 10 18 cation
5 3 9 10 16 18 rings
5 8 11 12 13 14 rings
6 17 19 20 22 23 24 rings
6 25 26 27 29 30 31 rings

> <PUBCHEM_HEAVY_ATOM_COUNT>
32

> <PUBCHEM_ATOM_DEF_STEREO_COUNT>
2

> <PUBCHEM_ATOM_UDEF_STEREO_COUNT>
0

> <PUBCHEM_BOND_DEF_STEREO_COUNT>
0

> <PUBCHEM_BOND_UDEF_STEREO_COUNT>
0

> <PUBCHEM_ISOTOPIC_ATOM_COUNT>
0

> <PUBCHEM_COMPONENT_COUNT>
1

> <PUBCHEM_CACTVS_TAUTO_COUNT>
1

> <PUBCHEM_CONFORMER_ID>
019816CF00000001

> <PUBCHEM_MMFF94_ENERGY>
62.6694

> <PUBCHEM_FEATURE_SELFOVERLAP>
66.048

> <PUBCHEM_SHAPE_FINGERPRINT>
10165383 225 18341618131223116105
11014199 57 17326334828027659722
11112241 14 18341898454874414397
11370993 144 18413109476677877820
11524674 6 18341326769237230758
12156800 1 15578141867957960915
12422481 6 17749387014564373522
12788726 201 17977118069394790815
13583140 156 17345477166257277800
14068700 675 18050842523044960295
14790565 3 18335146444299893540
14840074 17 17168430457957134564
15230672 131 18408039586356782906
15420108 30 18411133632418291227
15927050 60 18341892965859283135
20691752 17 16951424117861121739
21033648 29 18271517702221808088
21236236 1 18263076768576639796
21756936 100 18343576361026483340
22182313 1 17170396204949737541
3411729 13 18191874431418627497
4112364 45 17840597998839236809
469060 322 16660917884881709366
5080951 261 17899102140574206312
5265222 85 18264789812088162684
5283173 99 18271245049165542760
59755656 520 18409162212923299088
7064713 232 18261398866055607933

> <PUBCHEM_SHAPE_MULTIPOLES>
612.24
13.5
4.77
1.56
19.66
4.92
0.47
-14.77
-3.87
-3.48
-0.53
-0.75
-0.27
0.17

> <PUBCHEM_SHAPE_SELFOVERLAP>
1312.441

> <PUBCHEM_SHAPE_VOLUME>
339.9

> <PUBCHEM_COORDINATE_TYPE>
2
5
10

$$$$
