28963128
  -OEChem-12032416283D

 70 73  0     1  0  0  0  0  0999 V2000
    1.3117    0.9076   -1.7208 O   0  0  0  0  0  0  0  0  0  0  0  0
    5.5765   -1.8259   -0.3997 O   0  0  0  0  0  0  0  0  0  0  0  0
   -4.5822    1.3228    1.7757 O   0  0  0  0  0  0  0  0  0  0  0  0
   -3.6997   -0.0275    0.1103 N   0  0  0  0  0  0  0  0  0  0  0  0
    5.7661    0.4894   -0.4378 N   0  0  0  0  0  0  0  0  0  0  0  0
   -8.4562    0.6157    0.3089 N   0  0  0  0  0  0  0  0  0  0  0  0
   -7.4247    0.2309   -1.8346 N   0  0  0  0  0  0  0  0  0  0  0  0
    0.2339   -1.5244    1.0177 C   0  0  1  0  0  0  0  0  0  0  0  0
    0.1468   -0.2976    0.0500 C   0  0  2  0  0  0  0  0  0  0  0  0
   -1.3027   -0.1508   -0.5375 C   0  0  1  0  0  0  0  0  0  0  0  0
    1.2941   -0.3258   -1.0006 C   0  0  2  0  0  0  0  0  0  0  0  0
    1.6385   -1.5730    1.6641 C   0  0  0  0  0  0  0  0  0  0  0  0
    2.6899   -0.4794   -0.3529 C   0  0  1  0  0  0  0  0  0  0  0  0
   -0.8005   -1.3456    2.1529 C   0  0  0  0  0  0  0  0  0  0  0  0
   -2.3423   -0.0473    0.6138 C   0  0  2  0  0  0  0  0  0  0  0  0
    2.7626   -1.6405    0.6387 C   0  0  0  0  0  0  0  0  0  0  0  0
   -2.2238   -1.1716    1.6424 C   0  0  0  0  0  0  0  0  0  0  0  0
   -0.0286   -2.8704    0.2957 C   0  0  0  0  0  0  0  0  0  0  0  0
    3.7924   -0.6365   -1.4073 C   0  0  2  0  0  0  0  0  0  0  0  0
   -1.4671    1.0556   -1.4773 C   0  0  0  0  0  0  0  0  0  0  0  0
    3.5704   -1.8784   -2.2512 C   0  0  0  0  0  0  0  0  0  0  0  0
    5.1238   -0.7194   -0.7040 C   0  0  0  0  0  0  0  0  0  0  0  0
   -4.7150    0.6665    0.7460 C   0  0  0  0  0  0  0  0  0  0  0  0
    7.0620    0.4915    0.2442 C   0  0  0  0  0  0  0  0  0  0  0  0
    5.2738    1.8170   -0.8268 C   0  0  0  0  0  0  0  0  0  0  0  0
    7.0295    1.3940    1.4747 C   0  0  0  0  0  0  0  0  0  0  0  0
    5.2081    2.7462    0.3833 C   0  0  0  0  0  0  0  0  0  0  0  0
   -6.0575    0.5655    0.1179 C   0  0  0  0  0  0  0  0  0  0  0  0
    6.5472    2.7988    1.1171 C   0  0  0  0  0  0  0  0  0  0  0  0
   -7.2215    0.7018    0.8461 C   0  0  0  0  0  0  0  0  0  0  0  0
   -6.2217    0.3287   -1.2317 C   0  0  0  0  0  0  0  0  0  0  0  0
   -8.4839    0.3823   -1.0171 C   0  0  0  0  0  0  0  0  0  0  0  0
    0.3107    0.6098    0.6532 H   0  0  0  0  0  0  0  0  0  0  0  0
   -1.5333   -1.0395   -1.1386 H   0  0  0  0  0  0  0  0  0  0  0  0
    1.0785   -1.1185   -1.7200 H   0  0  0  0  0  0  0  0  0  0  0  0
    1.7165   -2.4347    2.3397 H   0  0  0  0  0  0  0  0  0  0  0  0
    1.7884   -0.6814    2.2879 H   0  0  0  0  0  0  0  0  0  0  0  0
    2.8933    0.4412    0.2126 H   0  0  0  0  0  0  0  0  0  0  0  0
   -0.5388   -0.4650    2.7550 H   0  0  0  0  0  0  0  0  0  0  0  0
   -0.7678   -2.2041    2.8357 H   0  0  0  0  0  0  0  0  0  0  0  0
   -2.1688    0.9024    1.1386 H   0  0  0  0  0  0  0  0  0  0  0  0
    3.6986   -1.6097    1.2076 H   0  0  0  0  0  0  0  0  0  0  0  0
    2.7266   -2.6185    0.1551 H   0  0  0  0  0  0  0  0  0  0  0  0
   -2.5891   -2.1140    1.2165 H   0  0  0  0  0  0  0  0  0  0  0  0
   -2.8820   -0.9649    2.4963 H   0  0  0  0  0  0  0  0  0  0  0  0
   -1.0366   -2.9390   -0.1213 H   0  0  0  0  0  0  0  0  0  0  0  0
    0.0858   -3.7095    0.9920 H   0  0  0  0  0  0  0  0  0  0  0  0
    0.6620   -3.0415   -0.5348 H   0  0  0  0  0  0  0  0  0  0  0  0
    3.7827    0.1849   -2.1257 H   0  0  0  0  0  0  0  0  0  0  0  0
   -1.0984    1.9754   -1.0117 H   0  0  0  0  0  0  0  0  0  0  0  0
   -2.5139    1.2201   -1.7524 H   0  0  0  0  0  0  0  0  0  0  0  0
   -0.9400    0.8949   -2.4218 H   0  0  0  0  0  0  0  0  0  0  0  0
   -3.9086   -0.6294   -0.6797 H   0  0  0  0  0  0  0  0  0  0  0  0
    1.4612    1.6272   -1.0840 H   0  0  0  0  0  0  0  0  0  0  0  0
    3.5439   -2.8156   -1.6904 H   0  0  0  0  0  0  0  0  0  0  0  0
    4.4007   -1.9869   -2.9617 H   0  0  0  0  0  0  0  0  0  0  0  0
    2.6659   -1.8163   -2.8620 H   0  0  0  0  0  0  0  0  0  0  0  0
    7.8091    0.8490   -0.4744 H   0  0  0  0  0  0  0  0  0  0  0  0
    7.3498   -0.5227    0.5383 H   0  0  0  0  0  0  0  0  0  0  0  0
    4.2872    1.8045   -1.2845 H   0  0  0  0  0  0  0  0  0  0  0  0
    5.9721    2.2127   -1.5738 H   0  0  0  0  0  0  0  0  0  0  0  0
    8.0261    1.4453    1.9264 H   0  0  0  0  0  0  0  0  0  0  0  0
    6.3541    0.9627    2.2241 H   0  0  0  0  0  0  0  0  0  0  0  0
    4.4341    2.3904    1.0748 H   0  0  0  0  0  0  0  0  0  0  0  0
    4.9199    3.7540    0.0644 H   0  0  0  0  0  0  0  0  0  0  0  0
    6.4498    3.4017    2.0267 H   0  0  0  0  0  0  0  0  0  0  0  0
    7.2935    3.2914    0.4818 H   0  0  0  0  0  0  0  0  0  0  0  0
   -7.2078    0.8866    1.9156 H   0  0  0  0  0  0  0  0  0  0  0  0
   -5.3849    0.2272   -1.9146 H   0  0  0  0  0  0  0  0  0  0  0  0
   -9.4627    0.3085   -1.4749 H   0  0  0  0  0  0  0  0  0  0  0  0
  1 11  1  0  0  0  0
  1 54  1  0  0  0  0
  2 22  2  0  0  0  0
  3 23  2  0  0  0  0
  4 15  1  0  0  0  0
  4 23  1  0  0  0  0
  4 53  1  0  0  0  0
  5 22  1  0  0  0  0
  5 24  1  0  0  0  0
  5 25  1  0  0  0  0
  6 30  2  0  0  0  0
  6 32  1  0  0  0  0
  7 31  1  0  0  0  0
  7 32  2  0  0  0  0
  8  9  1  0  0  0  0
  8 12  1  0  0  0  0
  8 14  1  0  0  0  0
  8 18  1  0  0  0  0
  9 10  1  0  0  0  0
  9 11  1  0  0  0  0
  9 33  1  0  0  0  0
 10 15  1  0  0  0  0
 10 20  1  0  0  0  0
 10 34  1  0  0  0  0
 11 13  1  0  0  0  0
 11 35  1  0  0  0  0
 12 16  1  0  0  0  0
 12 36  1  0  0  0  0
 12 37  1  0  0  0  0
 13 16  1  0  0  0  0
 13 19  1  0  0  0  0
 13 38  1  0  0  0  0
 14 17  1  0  0  0  0
 14 39  1  0  0  0  0
 14 40  1  0  0  0  0
 15 17  1  0  0  0  0
 15 41  1  0  0  0  0
 16 42  1  0  0  0  0
 16 43  1  0  0  0  0
 17 44  1  0  0  0  0
 17 45  1  0  0  0  0
 18 46  1  0  0  0  0
 18 47  1  0  0  0  0
 18 48  1  0  0  0  0
 19 21  1  0  0  0  0
 19 22  1  0  0  0  0
 19 49  1  0  0  0  0
 20 50  1  0  0  0  0
 20 51  1  0  0  0  0
 20 52  1  0  0  0  0
 21 55  1  0  0  0  0
 21 56  1  0  0  0  0
 21 57  1  0  0  0  0
 23 28  1  0  0  0  0
 24 26  1  0  0  0  0
 24 58  1  0  0  0  0
 24 59  1  0  0  0  0
 25 27  1  0  0  0  0
 25 60  1  0  0  0  0
 25 61  1  0  0  0  0
 26 29  1  0  0  0  0
 26 62  1  0  0  0  0
 26 63  1  0  0  0  0
 27 29  1  0  0  0  0
 27 64  1  0  0  0  0
 27 65  1  0  0  0  0
 28 30  1  0  0  0  0
 28 31  2  0  0  0  0
 29 66  1  0  0  0  0
 29 67  1  0  0  0  0
 30 68  1  0  0  0  0
 31 69  1  0  0  0  0
 32 70  1  0  0  0  0
M  END
> <PUBCHEM_COMPOUND_CID>
28963128

> <PUBCHEM_CONFORMER_RMSD>
1

> <PUBCHEM_CONFORMER_DIVERSEORDER>
1
25
10
13
19
21
3
8
23
9
24
6
12
15
7
18
17
20
2
22
4
14
16
11
5

> <PUBCHEM_MMFF94_PARTIAL_CHARGES>
23
1 -0.68
11 0.28
15 0.3
19 0.06
2 -0.57
22 0.57
23 0.54
24 0.3
25 0.3
28 0.09
3 -0.57
30 0.16
31 0.16
32 0.47
4 -0.73
5 -0.66
53 0.37
54 0.4
6 -0.62
68 0.15
69 0.15
7 -0.62
70 0.15

> <PUBCHEM_EFFECTIVE_ROTOR_COUNT>
8.8

> <PUBCHEM_PHARMACOPHORE_FEATURES>
12
1 1 acceptor
1 1 donor
1 2 acceptor
1 21 hydrophobe
1 3 acceptor
1 4 donor
1 6 acceptor
3 6 7 32 cation
6 5 24 25 26 27 29 rings
6 6 7 28 30 31 32 rings
6 8 9 10 14 15 17 rings
6 8 9 11 12 13 16 rings

> <PUBCHEM_HEAVY_ATOM_COUNT>
32

> <PUBCHEM_ATOM_DEF_STEREO_COUNT>
7

> <PUBCHEM_ATOM_UDEF_STEREO_COUNT>
0

> <PUBCHEM_BOND_DEF_STEREO_COUNT>
0

> <PUBCHEM_BOND_UDEF_STEREO_COUNT>
0

> <PUBCHEM_ISOTOPIC_ATOM_COUNT>
0

> <PUBCHEM_COMPONENT_COUNT>
1

> <PUBCHEM_CACTVS_TAUTO_COUNT>
2

> <PUBCHEM_CONFORMER_ID>
01B9F13800000001

> <PUBCHEM_MMFF94_ENERGY>
91.9851

> <PUBCHEM_FEATURE_SELFOVERLAP>
60.911

> <PUBCHEM_SHAPE_FINGERPRINT>
10 15 16732987548199751860
10076449 9 10663824091816635994
10533779 1 17843674715995239456
10591671 39 15051738585674391309
10673678 19 17489590108376649540
11719270 70 16515405148823350139
11963148 33 14189286024624137565
12422481 6 17022902376349826018
12838862 33 17603855720321463189
13165053 68 17557973220279628511
13383668 254 18129679568989570985
13617811 41 13901912219770016760
13673619 4 9007066751269659946
14347424 109 13839988837189936398
15082195 135 16845575344451021266
15183329 4 16200436866255789497
15238133 3 16515695467586102550
15669420 48 12607403317658004368
15840311 113 18343305859712066636
16728300 4 13841079509880713616
16994733 274 18060420192619590721
19301679 30 13841083882495037408
20105231 36 12463571798828854533
20157964 124 18202569466963581054
20511986 3 17968089833374948955
20554085 129 17822005419487904232
20771845 171 16056892312167912788
21033648 29 18187645873386967104
21150785 3 17060338530771722321
21403212 168 17894623768930462264
21521721 280 18341896290152952763
21792934 111 17095793335191393449
21859007 373 17095231523652668053
22224240 67 18259984877344301403
22956985 138 15432259649439008170
23516275 100 18340766056984253488
23522609 53 16342886290205616491
24771293 8 18042402594248644932
25269216 80 13398361199847627488
3004659 81 14548732898382688347
335352 9 17313396607935417526
34797466 226 18131075900625728391
4093350 32 18272934899230875630
4258327 124 17702948161538916724
445580 167 17846493742963169765
44880568 143 17845946108889935225
4760202 170 18411408506821890373
5265222 85 16845567660643746319
57527293 21 17677884825214163348
6004065 56 18341332296570230581

> <PUBCHEM_SHAPE_MULTIPOLES>
621.01
23.01
2.32
1.87
26.75
0.06
0.09
14.17
1.4
-4.33
-0.57
0.06
-0.3
1.73

> <PUBCHEM_SHAPE_SELFOVERLAP>
1303

> <PUBCHEM_SHAPE_VOLUME>
343.6

> <PUBCHEM_COORDINATE_TYPE>
2
5
10

$$$$
