28963210
  -OEChem-12032416203D

 66 68  0     1  0  0  0  0  0999 V2000
   -5.9365    1.2398   -0.0838 S   0  0  0  0  0  0  0  0  0  0  0  0
    0.2334    0.8709   -1.8011 O   0  0  0  0  0  0  0  0  0  0  0  0
    4.3983   -1.8832   -0.2282 O   0  0  0  0  0  0  0  0  0  0  0  0
   -7.0171    1.1882   -1.0491 O   0  0  0  0  0  0  0  0  0  0  0  0
   -5.1127    2.4265    0.0448 O   0  0  0  0  0  0  0  0  0  0  0  0
   -4.9066   -0.0976   -0.2876 N   0  0  0  0  0  0  0  0  0  0  0  0
    4.6047    0.4306   -0.2671 N   0  0  0  0  0  0  0  0  0  0  0  0
   -1.0134   -1.5431    0.8812 C   0  0  1  0  0  0  0  0  0  0  0  0
   -1.0395   -0.3213   -0.0972 C   0  0  2  0  0  0  0  0  0  0  0  0
   -2.4537   -0.1712   -0.7679 C   0  0  1  0  0  0  0  0  0  0  0  0
    0.1666   -0.3601   -1.0795 C   0  0  2  0  0  0  0  0  0  0  0  0
    0.3519   -1.5948    1.6067 C   0  0  0  0  0  0  0  0  0  0  0  0
    1.5224   -0.5188   -0.3526 C   0  0  1  0  0  0  0  0  0  0  0  0
   -2.1092   -1.3530    1.9557 C   0  0  0  0  0  0  0  0  0  0  0  0
   -3.5507   -0.0573    0.3247 C   0  0  2  0  0  0  0  0  0  0  0  0
    1.5319   -1.6746    0.6474 C   0  0  0  0  0  0  0  0  0  0  0  0
   -3.5002   -1.1762    1.3642 C   0  0  0  0  0  0  0  0  0  0  0  0
   -1.2416   -2.8917    0.1525 C   0  0  0  0  0  0  0  0  0  0  0  0
    2.6822   -0.6883   -1.3419 C   0  0  2  0  0  0  0  0  0  0  0  0
   -2.5544    1.0292   -1.7233 C   0  0  0  0  0  0  0  0  0  0  0  0
    2.5005   -1.9333   -2.1907 C   0  0  0  0  0  0  0  0  0  0  0  0
    3.9707   -0.7756   -0.5634 C   0  0  0  0  0  0  0  0  0  0  0  0
    5.8596    0.4285    0.4877 C   0  0  0  0  0  0  0  0  0  0  0  0
    4.1438    1.7591   -0.6900 C   0  0  0  0  0  0  0  0  0  0  0  0
   -6.6191    0.8908    1.5206 C   0  0  0  0  0  0  0  0  0  0  0  0
    5.7628    1.3377    1.7098 C   0  0  0  0  0  0  0  0  0  0  0  0
    4.0152    2.6953    0.5097 C   0  0  0  0  0  0  0  0  0  0  0  0
    5.3107    2.7435    1.3183 C   0  0  0  0  0  0  0  0  0  0  0  0
   -0.9063    0.5889    0.5096 H   0  0  0  0  0  0  0  0  0  0  0  0
   -2.6541   -1.0627   -1.3755 H   0  0  0  0  0  0  0  0  0  0  0  0
   -0.0120   -1.1541   -1.8074 H   0  0  0  0  0  0  0  0  0  0  0  0
    0.3865   -2.4526    2.2907 H   0  0  0  0  0  0  0  0  0  0  0  0
    0.4709   -0.7001    2.2327 H   0  0  0  0  0  0  0  0  0  0  0  0
    1.6992    0.4037    0.2188 H   0  0  0  0  0  0  0  0  0  0  0  0
   -1.8778   -0.4699    2.5665 H   0  0  0  0  0  0  0  0  0  0  0  0
   -2.1190   -2.2075    2.6443 H   0  0  0  0  0  0  0  0  0  0  0  0
   -3.3990    0.8899    0.8562 H   0  0  0  0  0  0  0  0  0  0  0  0
    2.4341   -1.6458    1.2685 H   0  0  0  0  0  0  0  0  0  0  0  0
    1.5177   -2.6552    0.1679 H   0  0  0  0  0  0  0  0  0  0  0  0
   -3.8425   -2.1219    0.9265 H   0  0  0  0  0  0  0  0  0  0  0  0
   -4.2060   -0.9605    2.1759 H   0  0  0  0  0  0  0  0  0  0  0  0
   -2.2246   -2.9579   -0.3204 H   0  0  0  0  0  0  0  0  0  0  0  0
   -1.1708   -3.7276    0.8586 H   0  0  0  0  0  0  0  0  0  0  0  0
   -0.5060   -3.0705   -0.6368 H   0  0  0  0  0  0  0  0  0  0  0  0
    2.7187    0.1292   -2.0637 H   0  0  0  0  0  0  0  0  0  0  0  0
   -2.2276    1.9543   -1.2377 H   0  0  0  0  0  0  0  0  0  0  0  0
   -3.5779    1.1807   -2.0796 H   0  0  0  0  0  0  0  0  0  0  0  0
   -1.9593    0.8673   -2.6261 H   0  0  0  0  0  0  0  0  0  0  0  0
   -5.2747   -1.0105   -0.5799 H   0  0  0  0  0  0  0  0  0  0  0  0
    0.3481    1.5920   -1.1588 H   0  0  0  0  0  0  0  0  0  0  0  0
    2.4359   -2.8673   -1.6276 H   0  0  0  0  0  0  0  0  0  0  0  0
    3.3693   -2.0510   -2.8519 H   0  0  0  0  0  0  0  0  0  0  0  0
    1.6329   -1.8688   -2.8526 H   0  0  0  0  0  0  0  0  0  0  0  0
    6.1237   -0.5858    0.8028 H   0  0  0  0  0  0  0  0  0  0  0  0
    6.6486    0.7776   -0.1889 H   0  0  0  0  0  0  0  0  0  0  0  0
    4.8861    2.1467   -1.3980 H   0  0  0  0  0  0  0  0  0  0  0  0
    3.1849    1.7502   -1.2032 H   0  0  0  0  0  0  0  0  0  0  0  0
   -7.3417    1.6755    1.7560 H   0  0  0  0  0  0  0  0  0  0  0  0
   -7.1223   -0.0772    1.4884 H   0  0  0  0  0  0  0  0  0  0  0  0
   -5.8183    0.8953    2.2615 H   0  0  0  0  0  0  0  0  0  0  0  0
    6.7324    1.3854    2.2174 H   0  0  0  0  0  0  0  0  0  0  0  0
    5.0430    0.9145    2.4217 H   0  0  0  0  0  0  0  0  0  0  0  0
    3.2008    2.3480    1.1577 H   0  0  0  0  0  0  0  0  0  0  0  0
    3.7523    3.7030    0.1698 H   0  0  0  0  0  0  0  0  0  0  0  0
    5.1654    3.3518    2.2178 H   0  0  0  0  0  0  0  0  0  0  0  0
    6.0952    3.2281    0.7242 H   0  0  0  0  0  0  0  0  0  0  0  0
  1  4  2  0  0  0  0
  1  5  2  0  0  0  0
  1  6  1  0  0  0  0
  1 25  1  0  0  0  0
  2 11  1  0  0  0  0
  2 50  1  0  0  0  0
  3 22  2  0  0  0  0
  6 15  1  0  0  0  0
  6 49  1  0  0  0  0
  7 22  1  0  0  0  0
  7 23  1  0  0  0  0
  7 24  1  0  0  0  0
  8  9  1  0  0  0  0
  8 12  1  0  0  0  0
  8 14  1  0  0  0  0
  8 18  1  0  0  0  0
  9 10  1  0  0  0  0
  9 11  1  0  0  0  0
  9 29  1  0  0  0  0
 10 15  1  0  0  0  0
 10 20  1  0  0  0  0
 10 30  1  0  0  0  0
 11 13  1  0  0  0  0
 11 31  1  0  0  0  0
 12 16  1  0  0  0  0
 12 32  1  0  0  0  0
 12 33  1  0  0  0  0
 13 16  1  0  0  0  0
 13 19  1  0  0  0  0
 13 34  1  0  0  0  0
 14 17  1  0  0  0  0
 14 35  1  0  0  0  0
 14 36  1  0  0  0  0
 15 17  1  0  0  0  0
 15 37  1  0  0  0  0
 16 38  1  0  0  0  0
 16 39  1  0  0  0  0
 17 40  1  0  0  0  0
 17 41  1  0  0  0  0
 18 42  1  0  0  0  0
 18 43  1  0  0  0  0
 18 44  1  0  0  0  0
 19 21  1  0  0  0  0
 19 22  1  0  0  0  0
 19 45  1  0  0  0  0
 20 46  1  0  0  0  0
 20 47  1  0  0  0  0
 20 48  1  0  0  0  0
 21 51  1  0  0  0  0
 21 52  1  0  0  0  0
 21 53  1  0  0  0  0
 23 26  1  0  0  0  0
 23 54  1  0  0  0  0
 23 55  1  0  0  0  0
 24 27  1  0  0  0  0
 24 56  1  0  0  0  0
 24 57  1  0  0  0  0
 25 58  1  0  0  0  0
 25 59  1  0  0  0  0
 25 60  1  0  0  0  0
 26 28  1  0  0  0  0
 26 61  1  0  0  0  0
 26 62  1  0  0  0  0
 27 28  1  0  0  0  0
 27 63  1  0  0  0  0
 27 64  1  0  0  0  0
 28 65  1  0  0  0  0
 28 66  1  0  0  0  0
M  END
> <PUBCHEM_COMPOUND_CID>
28963210

> <PUBCHEM_CONFORMER_RMSD>
1

> <PUBCHEM_CONFORMER_DIVERSEORDER>
1
22
18
20
6
16
5
27
25
11
17
23
12
21
15
14
7
19
13
4
2
26
24
9
8
3
10

> <PUBCHEM_MMFF94_PARTIAL_CHARGES>
16
1 1.33
11 0.28
15 0.36
19 0.06
2 -0.68
22 0.57
23 0.3
24 0.3
25 0.11
3 -0.57
4 -0.65
49 0.42
5 -0.65
50 0.4
6 -0.91
7 -0.66

> <PUBCHEM_EFFECTIVE_ROTOR_COUNT>
7.8

> <PUBCHEM_PHARMACOPHORE_FEATURES>
10
1 2 acceptor
1 2 donor
1 21 hydrophobe
1 3 acceptor
1 4 acceptor
1 5 acceptor
1 6 donor
6 7 23 24 26 27 28 rings
6 8 9 10 14 15 17 rings
6 8 9 11 12 13 16 rings

> <PUBCHEM_HEAVY_ATOM_COUNT>
28

> <PUBCHEM_ATOM_DEF_STEREO_COUNT>
7

> <PUBCHEM_ATOM_UDEF_STEREO_COUNT>
0

> <PUBCHEM_BOND_DEF_STEREO_COUNT>
0

> <PUBCHEM_BOND_UDEF_STEREO_COUNT>
0

> <PUBCHEM_ISOTOPIC_ATOM_COUNT>
0

> <PUBCHEM_COMPONENT_COUNT>
1

> <PUBCHEM_CACTVS_TAUTO_COUNT>
1

> <PUBCHEM_CONFORMER_ID>
01B9F18A00000001

> <PUBCHEM_MMFF94_ENERGY>
72.7949

> <PUBCHEM_FEATURE_SELFOVERLAP>
50.778

> <PUBCHEM_SHAPE_FINGERPRINT>
10 15 17167868573118802557
10074138 170 17458631185116720787
10319926 262 18040712606685959234
10692045 39 17822562820686723986
11112241 14 18199741621245583857
11578080 2 18339648948351621842
11646440 116 18113631062241016577
11961588 58 16271923852593084758
12035758 1 17894919537901290073
12236239 1 16487256547472133895
12403259 118 18195519527434700016
12422481 6 16660635241673913663
12633257 1 17822846610877776804
13140716 1 17314529195364179239
13402501 40 18410007749664866016
13533116 47 18263645074296861122
13692114 37 17749397013665711555
14251764 30 8070031072883299467
14739800 52 18262789684019479753
14767858 380 15123508120608545257
15183329 4 15482671256676248033
15238133 3 16877953736515865703
15840311 113 18200323113480111505
17349148 13 15647047209709773074
17492 54 15626224615352765983
17980427 23 17750795639721442590
18222031 100 11815892332271684631
19319366 153 16415195646346584982
20157964 124 18060140924891702606
20715895 44 18342738529155753840
21033648 29 18261957453034003648
21150785 3 17203601602179716941
21475661 188 18338796831552216208
21641784 216 15123517986364644579
21792934 111 17168696428697953269
21859007 373 17895464818005932365
22122407 14 17917440842577691145
23559900 14 18041292014848817158
23569914 2 17694171731078496177
2838139 119 18272083894516802097
2916195 48 18411699902596865705
3004659 81 15840717266453292134
33382 64 11025793193683889968
3459 39 17749655329814420141
3472631 163 18411696603756280498
34797466 226 18060424578070914671
3680242 22 17167582691495129084
4093350 32 18059860523640978783
4340502 62 18260830388500018135
465052 167 12973601123717493176
474 4 17703796963784320310
5104073 3 17676491584598327401
7970288 3 12252440234726671096

> <PUBCHEM_SHAPE_MULTIPOLES>
546.64
15.52
2.73
1.82
8.18
0.46
0.05
12.31
-3.09
-1.69
-0.46
-0.06
-0.24
2.29

> <PUBCHEM_SHAPE_SELFOVERLAP>
1105.682

> <PUBCHEM_SHAPE_VOLUME>
322

> <PUBCHEM_COORDINATE_TYPE>
2
5
10

$$$$
