40780092
  -OEChem-12032416163D

 67 71  0     1  0  0  0  0  0999 V2000
   -3.3357    2.0717   -1.1878 O   0  0  0  0  0  0  0  0  0  0  0  0
    0.9428    3.5010   -0.4612 N   0  0  2  0  0  0  0  0  0  0  0  0
    5.0576    1.1232   -0.1995 N   0  0  0  0  0  0  0  0  0  0  0  0
   -1.5138    0.6840   -0.8608 N   0  0  0  0  0  0  0  0  0  0  0  0
    5.6069   -0.0855   -0.4086 N   0  0  0  0  0  0  0  0  0  0  0  0
   -3.6285   -0.1256   -0.4151 N   0  0  0  0  0  0  0  0  0  0  0  0
   -8.0449   -3.7241    1.1714 N   0  0  0  0  0  0  0  0  0  0  0  0
    1.8422    2.2249    1.6234 C   0  0  2  0  0  0  0  0  0  0  0  0
    2.9398    2.3183    0.5276 C   0  0  2  0  0  0  0  0  0  0  0  0
   -0.0161    2.4366   -0.0640 C   0  0  2  0  0  0  0  0  0  0  0  0
    0.5913    1.5387    1.0352 C   0  0  0  0  0  0  0  0  0  0  0  0
    2.2721    2.9065   -0.7482 C   0  0  0  0  0  0  0  0  0  0  0  0
    1.4413    3.6733    1.9765 C   0  0  0  0  0  0  0  0  0  0  0  0
    1.0894    4.4309    0.6842 C   0  0  0  0  0  0  0  0  0  0  0  0
    3.7630    1.0739    0.2270 C   0  0  0  0  0  0  0  0  0  0  0  0
   -0.5083    1.6195   -1.2605 C   0  0  0  0  0  0  0  0  0  0  0  0
    3.4429   -0.2597    0.3020 C   0  0  0  0  0  0  0  0  0  0  0  0
    4.6157   -0.9262   -0.1004 C   0  0  0  0  0  0  0  0  0  0  0  0
    4.8376   -2.4241   -0.2067 C   0  0  0  0  0  0  0  0  0  0  0  0
    3.9068   -3.0676   -1.2494 C   0  0  0  0  0  0  0  0  0  0  0  0
    4.7016   -3.1222    1.1578 C   0  0  0  0  0  0  0  0  0  0  0  0
    4.1443   -4.5730   -1.3565 C   0  0  0  0  0  0  0  0  0  0  0  0
    4.9361   -4.6273    1.0409 C   0  0  0  0  0  0  0  0  0  0  0  0
    5.8494    2.3080   -0.4360 C   0  0  0  0  0  0  0  0  0  0  0  0
    4.0180   -5.2609   -0.0003 C   0  0  0  0  0  0  0  0  0  0  0  0
   -2.8892    0.9777   -0.8506 C   0  0  0  0  0  0  0  0  0  0  0  0
   -5.0315   -0.2270   -0.2679 C   0  0  0  0  0  0  0  0  0  0  0  0
   -5.6017   -1.4167    0.1853 C   0  0  0  0  0  0  0  0  0  0  0  0
   -5.8452    0.8635   -0.5757 C   0  0  0  0  0  0  0  0  0  0  0  0
   -6.9855   -1.5160    0.3306 C   0  0  0  0  0  0  0  0  0  0  0  0
   -7.2291    0.7643   -0.4301 C   0  0  0  0  0  0  0  0  0  0  0  0
   -7.7992   -0.4255    0.0228 C   0  0  0  0  0  0  0  0  0  0  0  0
   -7.5701   -2.7345    0.7946 C   0  0  0  0  0  0  0  0  0  0  0  0
    2.2008    1.6905    2.5094 H   0  0  0  0  0  0  0  0  0  0  0  0
    3.6555    3.0679    0.8974 H   0  0  0  0  0  0  0  0  0  0  0  0
   -0.9049    2.9308    0.3563 H   0  0  0  0  0  0  0  0  0  0  0  0
    0.8292    0.5453    0.6526 H   0  0  0  0  0  0  0  0  0  0  0  0
   -0.1500    1.3957    1.8318 H   0  0  0  0  0  0  0  0  0  0  0  0
    2.9227    3.6854   -1.1673 H   0  0  0  0  0  0  0  0  0  0  0  0
    2.1901    2.1561   -1.5431 H   0  0  0  0  0  0  0  0  0  0  0  0
    2.2619    4.1827    2.4951 H   0  0  0  0  0  0  0  0  0  0  0  0
    0.5818    3.6666    2.6577 H   0  0  0  0  0  0  0  0  0  0  0  0
    0.1622    4.9996    0.8265 H   0  0  0  0  0  0  0  0  0  0  0  0
    1.8608    5.1786    0.4596 H   0  0  0  0  0  0  0  0  0  0  0  0
    0.2976    1.0377   -1.7189 H   0  0  0  0  0  0  0  0  0  0  0  0
   -0.9215    2.2825   -2.0294 H   0  0  0  0  0  0  0  0  0  0  0  0
    2.5126   -0.7094    0.6103 H   0  0  0  0  0  0  0  0  0  0  0  0
    5.8708   -2.5807   -0.5514 H   0  0  0  0  0  0  0  0  0  0  0  0
   -1.2179   -0.2411   -0.5646 H   0  0  0  0  0  0  0  0  0  0  0  0
    4.0641   -2.6040   -2.2313 H   0  0  0  0  0  0  0  0  0  0  0  0
    2.8570   -2.8877   -0.9837 H   0  0  0  0  0  0  0  0  0  0  0  0
    3.7023   -2.9460    1.5766 H   0  0  0  0  0  0  0  0  0  0  0  0
    5.4185   -2.6969    1.8711 H   0  0  0  0  0  0  0  0  0  0  0  0
    5.1446   -4.7563   -1.7675 H   0  0  0  0  0  0  0  0  0  0  0  0
    3.4257   -5.0096   -2.0592 H   0  0  0  0  0  0  0  0  0  0  0  0
    4.7713   -5.1020    2.0147 H   0  0  0  0  0  0  0  0  0  0  0  0
    5.9820   -4.8135    0.7676 H   0  0  0  0  0  0  0  0  0  0  0  0
    6.0165    2.8085    0.5207 H   0  0  0  0  0  0  0  0  0  0  0  0
    6.8094    2.0224   -0.8748 H   0  0  0  0  0  0  0  0  0  0  0  0
    5.3127    2.9581   -1.1302 H   0  0  0  0  0  0  0  0  0  0  0  0
    2.9784   -5.1988    0.3445 H   0  0  0  0  0  0  0  0  0  0  0  0
    4.2572   -6.3253   -0.1033 H   0  0  0  0  0  0  0  0  0  0  0  0
   -3.1011   -0.9604   -0.1719 H   0  0  0  0  0  0  0  0  0  0  0  0
   -4.9651   -2.2664    0.4250 H   0  0  0  0  0  0  0  0  0  0  0  0
   -5.4793    1.8161   -0.9315 H   0  0  0  0  0  0  0  0  0  0  0  0
   -7.8636    1.6127   -0.6693 H   0  0  0  0  0  0  0  0  0  0  0  0
   -8.8794   -0.4874    0.1310 H   0  0  0  0  0  0  0  0  0  0  0  0
  1 26  2  0  0  0  0
  2 10  1  0  0  0  0
  2 12  1  0  0  0  0
  2 14  1  0  0  0  0
  3  5  1  0  0  0  0
  3 15  1  0  0  0  0
  3 24  1  0  0  0  0
  4 16  1  0  0  0  0
  4 26  1  0  0  0  0
  4 49  1  0  0  0  0
  5 18  2  0  0  0  0
  6 26  1  0  0  0  0
  6 27  1  0  0  0  0
  6 63  1  0  0  0  0
  7 33  3  0  0  0  0
  8  9  1  0  0  0  0
  8 11  1  0  0  0  0
  8 13  1  0  0  0  0
  8 34  1  0  0  0  0
  9 12  1  0  0  0  0
  9 15  1  0  0  0  0
  9 35  1  0  0  0  0
 10 11  1  0  0  0  0
 10 16  1  0  0  0  0
 10 36  1  0  0  0  0
 11 37  1  0  0  0  0
 11 38  1  0  0  0  0
 12 39  1  0  0  0  0
 12 40  1  0  0  0  0
 13 14  1  0  0  0  0
 13 41  1  0  0  0  0
 13 42  1  0  0  0  0
 14 43  1  0  0  0  0
 14 44  1  0  0  0  0
 15 17  2  0  0  0  0
 16 45  1  0  0  0  0
 16 46  1  0  0  0  0
 17 18  1  0  0  0  0
 17 47  1  0  0  0  0
 18 19  1  0  0  0  0
 19 20  1  0  0  0  0
 19 21  1  0  0  0  0
 19 48  1  0  0  0  0
 20 22  1  0  0  0  0
 20 50  1  0  0  0  0
 20 51  1  0  0  0  0
 21 23  1  0  0  0  0
 21 52  1  0  0  0  0
 21 53  1  0  0  0  0
 22 25  1  0  0  0  0
 22 54  1  0  0  0  0
 22 55  1  0  0  0  0
 23 25  1  0  0  0  0
 23 56  1  0  0  0  0
 23 57  1  0  0  0  0
 24 58  1  0  0  0  0
 24 59  1  0  0  0  0
 24 60  1  0  0  0  0
 25 61  1  0  0  0  0
 25 62  1  0  0  0  0
 27 28  1  0  0  0  0
 27 29  2  0  0  0  0
 28 30  2  0  0  0  0
 28 64  1  0  0  0  0
 29 31  1  0  0  0  0
 29 65  1  0  0  0  0
 30 32  1  0  0  0  0
 30 33  1  0  0  0  0
 31 32  2  0  0  0  0
 31 66  1  0  0  0  0
 32 67  1  0  0  0  0
M  END
> <PUBCHEM_COMPOUND_CID>
40780092

> <PUBCHEM_CONFORMER_RMSD>
1.2

> <PUBCHEM_CONFORMER_DIVERSEORDER>
1
86
26
46
59
69
14
72
20
32
81
62
13
77
82
97
54
58
80
66
83
65
55
70
22
98
39
85
2
71
17
100
27
29
87
41
56
50
34
15
79
48
75
94
89
8
38
25
74
33
73
93
60
91
53
51
49
3
63
5
21
10
9
11
45
92
35
96
68
6
57
88
30
90
42
40
16
61
24
76
4
19
84
67
31
12
44
28
99
18
47
37
23
7
95
78
43
36
52
64

> <PUBCHEM_MMFF94_PARTIAL_CHARGES>
32
1 -0.57
10 0.27
12 0.27
14 0.27
15 -0.33
16 0.3
17 -0.15
18 0.11
19 0.18
2 -0.81
24 0.26
26 0.69
27 0.12
28 -0.15
29 -0.15
3 0.31
30 0.07
31 -0.15
32 -0.15
33 0.48
4 -0.73
47 0.15
49 0.37
5 -0.71
6 -0.55
63 0.37
64 0.15
65 0.15
66 0.15
67 0.15
7 -0.56
9 0.18

> <PUBCHEM_EFFECTIVE_ROTOR_COUNT>
9.4

> <PUBCHEM_PHARMACOPHORE_FEATURES>
10
1 1 acceptor
1 2 cation
1 4 donor
1 5 acceptor
1 6 donor
1 7 acceptor
5 3 5 15 17 18 rings
6 19 20 21 22 23 25 rings
6 27 28 29 30 31 32 rings
8 2 8 9 10 11 12 13 14 rings

> <PUBCHEM_HEAVY_ATOM_COUNT>
33

> <PUBCHEM_ATOM_DEF_STEREO_COUNT>
3

> <PUBCHEM_ATOM_UDEF_STEREO_COUNT>
0

> <PUBCHEM_BOND_DEF_STEREO_COUNT>
0

> <PUBCHEM_BOND_UDEF_STEREO_COUNT>
0

> <PUBCHEM_ISOTOPIC_ATOM_COUNT>
0

> <PUBCHEM_COMPONENT_COUNT>
1

> <PUBCHEM_CACTVS_TAUTO_COUNT>
3

> <PUBCHEM_CONFORMER_ID>
026E413C00000001

> <PUBCHEM_MMFF94_ENERGY>
66.1155

> <PUBCHEM_FEATURE_SELFOVERLAP>
50.796

> <PUBCHEM_SHAPE_FINGERPRINT>
10533779 47 18334871524429597523
10838868 229 18336829792882759355
11409948 35 18338229372510472351
117089 54 18268714909116385686
12623949 98 18335703879277624981
12655387 17 17981338789760618941
13008946 335 17555155215112902704
13560911 43 18263923238265399210
1361 4 18408323259332927485
13782708 43 18260265209996789831
13911852 28 18341045212228860557
13989917 61 18410014338144866950
14251764 30 18336825273626675469
15352257 5 18261392282571966619
15475509 35 18341611563643477321
15776043 110 17988928890050859555
17492 89 18053098429174213422
19301679 30 18270680861660445284
19303781 99 18048013213471192982
19319366 153 18341323501184006204
20715895 44 9367351439735079068
20775530 9 18128241312863487916
24771750 20 17898860316140227876
24893989 43 17390228466471953435
345986 75 17561078064854445296
439807 62 18262235517142075495
4435113 14 18260274061903807859
46194498 28 17967809496285328508
50009960 94 17971732416597997618
56611832 218 18046065127959521091
6700243 42 17458893843403961701
70251023 43 18266739083132524400
9831232 110 18334858350915372781

> <PUBCHEM_SHAPE_MULTIPOLES>
643.37
21.46
7.11
1.3
46.6
5.85
0.24
22.66
1.37
-10.71
1.39
-0.44
-0.14
2.43

> <PUBCHEM_SHAPE_SELFOVERLAP>
1373.492

> <PUBCHEM_SHAPE_VOLUME>
350.5

> <PUBCHEM_COORDINATE_TYPE>
2
5
10

$$$$
