75536890
  -OEChem-12032416323D

 44 46  0     1  0  0  0  0  0999 V2000
   -5.0929    0.8999    0.2870 S   0  0  0  0  0  0  0  0  0  0  0  0
    2.2489    1.8857   -1.4048 O   0  0  0  0  0  0  0  0  0  0  0  0
    2.7623   -2.3701    1.4388 O   0  0  0  0  0  0  0  0  0  0  0  0
   -0.0295   -1.8911   -0.9093 O   0  0  0  0  0  0  0  0  0  0  0  0
   -5.1411    2.1370   -0.4804 O   0  0  0  0  0  0  0  0  0  0  0  0
   -6.1753   -0.0666    0.1686 O   0  0  0  0  0  0  0  0  0  0  0  0
    3.1361   -0.0767   -0.4984 N   0  0  0  0  0  0  0  0  0  0  0  0
    4.0731    2.1544    0.0333 C   0  0  0  0  0  0  0  0  0  0  0  0
    3.7760    2.5479    1.4399 C   0  0  0  0  0  0  0  0  0  0  0  0
    3.7185    3.5685    0.3430 C   0  0  0  0  0  0  0  0  0  0  0  0
    3.0722    1.3133   -0.6956 C   0  0  0  0  0  0  0  0  0  0  0  0
    2.1438   -0.9284   -1.1558 C   0  0  0  0  0  0  0  0  0  0  0  0
    4.1494   -0.6955    0.3653 C   0  0  0  0  0  0  0  0  0  0  0  0
    1.1176   -1.4809   -0.1671 C   0  0  2  0  0  0  0  0  0  0  0  0
    3.9564   -2.1709    0.6892 C   0  0  0  0  0  0  0  0  0  0  0  0
    1.6318   -2.6758    0.6323 C   0  0  0  0  0  0  0  0  0  0  0  0
   -1.2028   -1.2442   -0.6311 C   0  0  0  0  0  0  0  0  0  0  0  0
   -1.2977    0.1359   -0.8096 C   0  0  0  0  0  0  0  0  0  0  0  0
   -2.3040   -1.9650   -0.1692 C   0  0  0  0  0  0  0  0  0  0  0  0
   -3.5948    0.0744   -0.0641 C   0  0  0  0  0  0  0  0  0  0  0  0
   -2.4936    0.7954   -0.5261 C   0  0  0  0  0  0  0  0  0  0  0  0
   -3.5001   -1.3057    0.1144 C   0  0  0  0  0  0  0  0  0  0  0  0
   -4.9543    1.3585    1.9999 C   0  0  0  0  0  0  0  0  0  0  0  0
    5.1099    1.9681   -0.2281 H   0  0  0  0  0  0  0  0  0  0  0  0
    4.6042    2.6007    2.1358 H   0  0  0  0  0  0  0  0  0  0  0  0
    2.8391    2.2340    1.8840 H   0  0  0  0  0  0  0  0  0  0  0  0
    2.7426    3.9537    0.0747 H   0  0  0  0  0  0  0  0  0  0  0  0
    4.5095    4.3081    0.3029 H   0  0  0  0  0  0  0  0  0  0  0  0
    1.6284   -0.3498   -1.9310 H   0  0  0  0  0  0  0  0  0  0  0  0
    2.6611   -1.7283   -1.6983 H   0  0  0  0  0  0  0  0  0  0  0  0
    4.1672   -0.1348    1.3054 H   0  0  0  0  0  0  0  0  0  0  0  0
    5.1187   -0.5508   -0.1252 H   0  0  0  0  0  0  0  0  0  0  0  0
    0.8660   -0.6888    0.5533 H   0  0  0  0  0  0  0  0  0  0  0  0
    3.9883   -2.8086   -0.2016 H   0  0  0  0  0  0  0  0  0  0  0  0
    4.7852   -2.4905    1.3308 H   0  0  0  0  0  0  0  0  0  0  0  0
    0.8375   -3.0173    1.3066 H   0  0  0  0  0  0  0  0  0  0  0  0
    1.8474   -3.5319   -0.0199 H   0  0  0  0  0  0  0  0  0  0  0  0
   -0.4533    0.7121   -1.1760 H   0  0  0  0  0  0  0  0  0  0  0  0
   -2.2348   -3.0399   -0.0265 H   0  0  0  0  0  0  0  0  0  0  0  0
   -2.5442    1.8712   -0.6685 H   0  0  0  0  0  0  0  0  0  0  0  0
   -4.3425   -1.8862    0.4795 H   0  0  0  0  0  0  0  0  0  0  0  0
   -5.8702    1.8797    2.2863 H   0  0  0  0  0  0  0  0  0  0  0  0
   -4.8371    0.4547    2.6009 H   0  0  0  0  0  0  0  0  0  0  0  0
   -4.0951    2.0206    2.1222 H   0  0  0  0  0  0  0  0  0  0  0  0
  1  5  2  0  0  0  0
  1  6  2  0  0  0  0
  1 20  1  0  0  0  0
  1 23  1  0  0  0  0
  2 11  2  0  0  0  0
  3 15  1  0  0  0  0
  3 16  1  0  0  0  0
  4 14  1  0  0  0  0
  4 17  1  0  0  0  0
  7 11  1  0  0  0  0
  7 12  1  0  0  0  0
  7 13  1  0  0  0  0
  8  9  1  0  0  0  0
  8 10  1  0  0  0  0
  8 11  1  0  0  0  0
  8 24  1  0  0  0  0
  9 10  1  0  0  0  0
  9 25  1  0  0  0  0
  9 26  1  0  0  0  0
 10 27  1  0  0  0  0
 10 28  1  0  0  0  0
 12 14  1  0  0  0  0
 12 29  1  0  0  0  0
 12 30  1  0  0  0  0
 13 15  1  0  0  0  0
 13 31  1  0  0  0  0
 13 32  1  0  0  0  0
 14 16  1  0  0  0  0
 14 33  1  0  0  0  0
 15 34  1  0  0  0  0
 15 35  1  0  0  0  0
 16 36  1  0  0  0  0
 16 37  1  0  0  0  0
 17 18  2  0  0  0  0
 17 19  1  0  0  0  0
 18 21  1  0  0  0  0
 18 38  1  0  0  0  0
 19 22  2  0  0  0  0
 19 39  1  0  0  0  0
 20 21  2  0  0  0  0
 20 22  1  0  0  0  0
 21 40  1  0  0  0  0
 22 41  1  0  0  0  0
 23 42  1  0  0  0  0
 23 43  1  0  0  0  0
 23 44  1  0  0  0  0
M  END
> <PUBCHEM_COMPOUND_CID>
75536890

> <PUBCHEM_CONFORMER_RMSD>
0.8

> <PUBCHEM_CONFORMER_DIVERSEORDER>
1
167
120
66
207
166
209
102
32
92
169
192
220
163
57
15
19
188
215
70
202
198
153
197
119
123
133
148
216
67
95
155
125
212
30
138
115
13
147
142
39
162
195
29
206
46
79
4
178
72
150
116
126
129
146
5
154
56
91
173
34
193
174
89
75
62
200
18
117
161
199
218
201
196
33
181
38
28
159
191
176
10
40
2
43
189
160
134
113
107
83
86
213
194
211
64
122
12
156
41
106
137
214
24
140
109
21
9
3
128
124
53
205
88
31
172
73
203
135
151
87
186
60
16
103
80
85
171
165
185
71
27
25
14
182
100
20
50
84
175
183
93
104
112
36
99
22
121
158
55
141
48
170
82
118
143
8
42
81
96
49
168
180
145
76
204
94
144
177
131
184
58
127
136
97
219
47
157
45
51
190
6
217
52
208
152
105
17
69
44
68
114
132
98
78
110
74
187
164
210
54
130
35
61
139
65
149
23
63
108
179
59
101
90
77
7
11
37
26
111

> <PUBCHEM_MMFF94_PARTIAL_CHARGES>
32
1 1.2
10 -0.2
11 0.63
12 0.3
13 0.3
14 0.28
15 0.28
16 0.28
17 0.08
18 -0.15
19 -0.15
2 -0.57
20 -0.01
21 -0.15
22 -0.15
23 0.11
24 0.1
25 0.1
26 0.1
27 0.1
28 0.1
3 -0.56
38 0.15
39 0.15
4 -0.36
40 0.15
41 0.15
5 -0.65
6 -0.65
7 -0.66
8 -0.1
9 -0.2

> <PUBCHEM_EFFECTIVE_ROTOR_COUNT>
7

> <PUBCHEM_PHARMACOPHORE_FEATURES>
7
1 2 acceptor
1 3 acceptor
1 4 acceptor
1 5 acceptor
1 6 acceptor
6 17 18 19 20 21 22 rings
7 3 7 12 13 14 15 16 rings

> <PUBCHEM_HEAVY_ATOM_COUNT>
23

> <PUBCHEM_ATOM_DEF_STEREO_COUNT>
1

> <PUBCHEM_ATOM_UDEF_STEREO_COUNT>
0

> <PUBCHEM_BOND_DEF_STEREO_COUNT>
0

> <PUBCHEM_BOND_UDEF_STEREO_COUNT>
0

> <PUBCHEM_ISOTOPIC_ATOM_COUNT>
0

> <PUBCHEM_COMPONENT_COUNT>
1

> <PUBCHEM_CACTVS_TAUTO_COUNT>
1

> <PUBCHEM_CONFORMER_ID>
048099FA00000001

> <PUBCHEM_MMFF94_ENERGY>
63.1437

> <PUBCHEM_FEATURE_SELFOVERLAP>
35.542

> <PUBCHEM_SHAPE_FINGERPRINT>
10042902 136 11026612291587666344
10674148 151 18338514270940816464
11045977 3 17822301132666621443
12166972 35 18058729087584971938
12633257 1 18335978679659275535
12788726 201 17417822720536046761
12925494 130 18264483980558404245
13140716 1 18408882949290379998
13878862 14 18189595190890395525
13965767 371 18043228323587024412
14178342 30 17970912390912389094
14251764 75 18270410514986586729
146900 427 18341342136571959881
14739800 52 18059282275151400984
14848178 96 18343300400624289585
14849402 71 18334294306040975504
14955137 171 18337953360342564322
15142526 21 18264204888607190938
15238133 3 17703792457714631579
15295992 7 18260274053113224978
15475509 84 17974277734570961248
17810953 82 18412265025503519572
17868525 174 18191014608825043480
17980427 23 17914866852177784486
19752476 56 18130791204703367400
20715895 44 18197212547471273297
21033648 144 18335971043460287343
21285901 2 12751233675359569378
21503847 285 18412830170633492150
21864079 5 18202282549720007006
22122407 14 18269001882431860065
235170 7 13614238136166831993
23559900 14 18058179336119084959
268830 7 18412257333665095911
34797466 226 17775294854948330391
350125 39 18335701611788249452
3680242 22 18341054003863138609
474 4 18115029726561206524
5104073 3 18408327704851108155
5895379 119 16987735497425596344
633830 44 18342173410127927174
960060 61 9655277217133004683

> <PUBCHEM_SHAPE_MULTIPOLES>
442.85
12.37
3.57
1.26
12.32
1.18
-0.34
7.04
-3.14
-4.4
-0.86
-0.06
0.25
-0.79

> <PUBCHEM_SHAPE_SELFOVERLAP>
911.021

> <PUBCHEM_SHAPE_VOLUME>
255.4

> <PUBCHEM_COORDINATE_TYPE>
2
5
10

$$$$
