45784224
  -OEChem-12032416313D

 50 54  0     1  0  0  0  0  0999 V2000
   -1.0168    0.1300   -0.0409 N   0  0  1  0  0  0  0  0  0  0  0  0
    3.5501   -1.1305    0.6757 N   0  0  0  0  0  0  0  0  0  0  0  0
    3.1416    0.8867   -0.1632 N   0  0  0  0  0  0  0  0  0  0  0  0
   -5.2835    1.4723    0.0823 N   0  0  0  0  0  0  0  0  0  0  0  0
    1.1460   -0.4092    0.6878 C   0  0  2  0  0  0  0  0  0  0  0  0
    0.2608   -0.3576   -0.5648 C   0  0  0  0  0  0  0  0  0  0  0  0
    0.5187    0.6141    1.6504 C   0  0  0  0  0  0  0  0  0  0  0  0
   -0.6591    1.2040    0.8857 C   0  0  0  0  0  0  0  0  0  0  0  0
   -1.9126    0.5829   -1.0949 C   0  0  0  0  0  0  0  0  0  0  0  0
    2.6091   -0.1824    0.3850 C   0  0  0  0  0  0  0  0  0  0  0  0
   -3.3395    0.6643   -0.6213 C   0  0  0  0  0  0  0  0  0  0  0  0
   -4.2300   -0.4279   -0.4243 C   0  0  0  0  0  0  0  0  0  0  0  0
    4.7713   -0.6409    0.2889 C   0  0  0  0  0  0  0  0  0  0  0  0
   -4.0159    1.8190   -0.3017 C   0  0  0  0  0  0  0  0  0  0  0  0
    4.4897    0.6193   -0.2313 C   0  0  0  0  0  0  0  0  0  0  0  0
   -5.4425    0.1064    0.0173 C   0  0  0  0  0  0  0  0  0  0  0  0
   -4.1206   -1.8241   -0.5795 C   0  0  0  0  0  0  0  0  0  0  0  0
    6.0586   -1.1756    0.3478 C   0  0  0  0  0  0  0  0  0  0  0  0
    5.5428    1.4067   -0.7267 C   0  0  0  0  0  0  0  0  0  0  0  0
   -6.5554   -0.6890    0.3125 C   0  0  0  0  0  0  0  0  0  0  0  0
   -6.2980    2.4181    0.4943 C   0  0  0  0  0  0  0  0  0  0  0  0
    7.0947   -0.3784   -0.1496 C   0  0  0  0  0  0  0  0  0  0  0  0
   -5.2256   -2.6321   -0.2880 C   0  0  0  0  0  0  0  0  0  0  0  0
    6.8436    0.8902   -0.6777 C   0  0  0  0  0  0  0  0  0  0  0  0
   -6.4233   -2.0712    0.1510 C   0  0  0  0  0  0  0  0  0  0  0  0
    8.4956   -0.8954   -0.1146 C   0  0  0  0  0  0  0  0  0  0  0  0
    1.0355   -1.4019    1.1480 H   0  0  0  0  0  0  0  0  0  0  0  0
    0.1606   -1.3484   -1.0214 H   0  0  0  0  0  0  0  0  0  0  0  0
    0.6723    0.3277   -1.3179 H   0  0  0  0  0  0  0  0  0  0  0  0
    0.1626    0.0966    2.5500 H   0  0  0  0  0  0  0  0  0  0  0  0
    1.2169    1.3946    1.9710 H   0  0  0  0  0  0  0  0  0  0  0  0
   -0.3375    2.1113    0.3581 H   0  0  0  0  0  0  0  0  0  0  0  0
   -1.4773    1.4650    1.5642 H   0  0  0  0  0  0  0  0  0  0  0  0
   -1.5934    1.5425   -1.5229 H   0  0  0  0  0  0  0  0  0  0  0  0
   -1.8960   -0.1354   -1.9264 H   0  0  0  0  0  0  0  0  0  0  0  0
    3.3802   -2.0329    1.0997 H   0  0  0  0  0  0  0  0  0  0  0  0
   -3.6972    2.8530   -0.3165 H   0  0  0  0  0  0  0  0  0  0  0  0
   -3.1942   -2.2776   -0.9204 H   0  0  0  0  0  0  0  0  0  0  0  0
    6.2397   -2.1615    0.7622 H   0  0  0  0  0  0  0  0  0  0  0  0
    5.3579    2.3936   -1.1386 H   0  0  0  0  0  0  0  0  0  0  0  0
   -7.4906   -0.2587    0.6546 H   0  0  0  0  0  0  0  0  0  0  0  0
   -5.8946    3.4330    0.4494 H   0  0  0  0  0  0  0  0  0  0  0  0
   -6.5931    2.1825    1.5199 H   0  0  0  0  0  0  0  0  0  0  0  0
   -7.1495    2.3283   -0.1850 H   0  0  0  0  0  0  0  0  0  0  0  0
   -5.1470   -3.7096   -0.4058 H   0  0  0  0  0  0  0  0  0  0  0  0
    7.6619    1.4973   -1.0584 H   0  0  0  0  0  0  0  0  0  0  0  0
   -7.2689   -2.7176    0.3717 H   0  0  0  0  0  0  0  0  0  0  0  0
    9.0012   -0.5477    0.7917 H   0  0  0  0  0  0  0  0  0  0  0  0
    8.5164   -1.9905   -0.1278 H   0  0  0  0  0  0  0  0  0  0  0  0
    9.0619   -0.5542   -0.9880 H   0  0  0  0  0  0  0  0  0  0  0  0
  1  6  1  0  0  0  0
  1  8  1  0  0  0  0
  1  9  1  0  0  0  0
  2 10  1  0  0  0  0
  2 13  1  0  0  0  0
  2 36  1  0  0  0  0
  3 10  2  0  0  0  0
  3 15  1  0  0  0  0
  4 14  1  0  0  0  0
  4 16  1  0  0  0  0
  4 21  1  0  0  0  0
  5  6  1  0  0  0  0
  5  7  1  0  0  0  0
  5 10  1  0  0  0  0
  5 27  1  0  0  0  0
  6 28  1  0  0  0  0
  6 29  1  0  0  0  0
  7  8  1  0  0  0  0
  7 30  1  0  0  0  0
  7 31  1  0  0  0  0
  8 32  1  0  0  0  0
  8 33  1  0  0  0  0
  9 11  1  0  0  0  0
  9 34  1  0  0  0  0
  9 35  1  0  0  0  0
 11 12  1  0  0  0  0
 11 14  2  0  0  0  0
 12 16  1  0  0  0  0
 12 17  2  0  0  0  0
 13 15  2  0  0  0  0
 13 18  1  0  0  0  0
 14 37  1  0  0  0  0
 15 19  1  0  0  0  0
 16 20  2  0  0  0  0
 17 23  1  0  0  0  0
 17 38  1  0  0  0  0
 18 22  2  0  0  0  0
 18 39  1  0  0  0  0
 19 24  2  0  0  0  0
 19 40  1  0  0  0  0
 20 25  1  0  0  0  0
 20 41  1  0  0  0  0
 21 42  1  0  0  0  0
 21 43  1  0  0  0  0
 21 44  1  0  0  0  0
 22 24  1  0  0  0  0
 22 26  1  0  0  0  0
 23 25  2  0  0  0  0
 23 45  1  0  0  0  0
 24 46  1  0  0  0  0
 25 47  1  0  0  0  0
 26 48  1  0  0  0  0
 26 49  1  0  0  0  0
 26 50  1  0  0  0  0
M  END
> <PUBCHEM_COMPOUND_CID>
45784224

> <PUBCHEM_CONFORMER_RMSD>
0.8

> <PUBCHEM_CONFORMER_DIVERSEORDER>
1
95
80
10
103
22
52
99
78
85
16
55
61
101
37
69
54
68
38
18
92
113
84
50
11
77
89
60
112
30
31
73
51
97
104
3
65
108
81
12
15
87
90
111
48
4
98
17
33
107
40
8
27
86
32
110
75
76
82
94
109
2
100
102
105
39
5
93
42
56
20
34
106
53
88
64
26
46
43
19
41
6
83
58
63
66
57
91
24
70
35
71
49
29
13
47
74
25
28
36
79
14
96
44
21
67
62
9
23
7
59
45
72

> <PUBCHEM_MMFF94_PARTIAL_CHARGES>
33
1 -0.81
10 0.01
11 -0.18
13 -0.15
14 -0.3
15 0.23
16 -0.15
17 -0.15
18 -0.15
19 -0.15
2 0.03
20 -0.15
21 0.26
22 -0.14
23 -0.15
24 -0.15
25 -0.15
26 0.14
3 -0.57
36 0.27
37 0.15
38 0.15
39 0.15
4 0.05
40 0.15
41 0.15
45 0.15
46 0.15
47 0.15
5 0.18
6 0.27
8 0.27
9 0.45

> <PUBCHEM_EFFECTIVE_ROTOR_COUNT>
4

> <PUBCHEM_PHARMACOPHORE_FEATURES>
9
1 1 cation
1 2 donor
1 4 cation
3 2 3 10 cation
5 1 5 6 7 8 rings
5 2 3 10 13 15 rings
5 4 11 12 14 16 rings
6 12 16 17 20 23 25 rings
6 13 15 18 19 22 24 rings

> <PUBCHEM_HEAVY_ATOM_COUNT>
26

> <PUBCHEM_ATOM_DEF_STEREO_COUNT>
1

> <PUBCHEM_ATOM_UDEF_STEREO_COUNT>
0

> <PUBCHEM_BOND_DEF_STEREO_COUNT>
0

> <PUBCHEM_BOND_UDEF_STEREO_COUNT>
0

> <PUBCHEM_ISOTOPIC_ATOM_COUNT>
0

> <PUBCHEM_COMPONENT_COUNT>
1

> <PUBCHEM_CACTVS_TAUTO_COUNT>
2

> <PUBCHEM_CONFORMER_ID>
02BA9CA000000001

> <PUBCHEM_MMFF94_ENERGY>
49.5586

> <PUBCHEM_FEATURE_SELFOVERLAP>
45.873

> <PUBCHEM_SHAPE_FINGERPRINT>
10299344 5 18335139795263127786
10411042 1 18123750023203965127
10595046 47 18260828189745898344
11315181 36 18333450950552269661
11524674 6 16845574249060775351
117089 54 17682687569003653195
11719270 70 17988923336959502310
12082328 90 18411980252160354206
12091667 2 16732983103014050005
12166972 35 18261112998002937540
12236239 1 18409167705896184012
13288520 33 18410291433008387271
13533116 47 16443616901718656848
1361 4 18333729109234940890
13668630 136 18343587318252686958
13673619 4 18201437025795250937
13690498 29 18336539495752143445
13885169 127 18413389817308377656
14251752 14 18272651238274033984
14849402 71 18115034129172704652
14856354 85 18342461461015767079
14933364 13 18411982464105603516
15142383 8 9295293829308468470
15183329 4 17603862312880322770
15352257 5 18272371979311180838
15461852 350 18410581682782560532
15537594 2 16845851282819346350
15716309 27 18334295379244683831
1577012 14 18113894936372656944
16114785 44 14563637792979750549
17093844 174 17346590872751889019
17844677 252 18343023328352963345
18681886 176 18410005568311336864
21150785 3 18113338626781657478
21236236 1 18408603673885414611
21267235 1 18409450310159123583
21315759 40 18040436577638043780
21315763 28 18335420175529372380
21623969 137 17418098719344785742
21756936 100 12751243623563844159
21792961 116 17846781767173851325
220451 1 18187642470839283210
23035841 295 18341895203441772235
23081809 10 18040432187748827224
23198884 109 18040998453417085587
23516275 137 18194420917250066667
23522609 53 18116177534938906236
23536379 177 18408603647746196248
23569943 247 16951955155896376610
3004659 81 18409164412072908530
314173 85 15339119043843634160
3178227 256 17060340747375981482
335352 9 18411130348028248325
397830 11 17130410484114277066
4073 2 18040721402388961642
4098825 35 18408041788830447698
4325135 7 18259703410672591391
4339292 15 17845642764124162359
44317340 157 17988639753217042056
445580 167 17676491691798468764
44802255 64 17458893857454577007
497634 4 18334009493637351437
5265222 85 18200593725761701470
57676310 188 17967811618458264666
58083652 198 15267050450331327178
59755656 520 16877943845586082594
7495541 125 18272085045330420377
9996256 80 18260264144681240300
999808 66 18114190778442871331

> <PUBCHEM_SHAPE_MULTIPOLES>
515.14
23.54
2.06
0.95
19.84
0.23
-0.13
4.05
1.65
-4.02
0.02
0.09
-0.14
-0.94

> <PUBCHEM_SHAPE_SELFOVERLAP>
1144.318

> <PUBCHEM_SHAPE_VOLUME>
279.3

> <PUBCHEM_COORDINATE_TYPE>
2
5
10

$$$$
