11887647
  -OEChem-12032416113D

 57 61  0     1  0  0  0  0  0999 V2000
    8.6389   -0.4799    0.8713 Cl  0  0  0  0  0  0  0  0  0  0  0  0
    2.6147   -1.2738   -0.6200 S   0  0  0  0  0  0  0  0  0  0  0  0
    2.6211   -1.5703   -2.0377 O   0  0  0  0  0  0  0  0  0  0  0  0
    2.1363   -2.2265    0.3599 O   0  0  0  0  0  0  0  0  0  0  0  0
   -2.8824    1.1103   -1.7643 O   0  0  0  0  0  0  0  0  0  0  0  0
    1.8238    0.2244   -0.3802 N   0  0  2  0  0  0  0  0  0  0  0  0
   -1.0591    1.5171   -0.3681 N   0  0  0  0  0  0  0  0  0  0  0  0
    1.1541    2.4736   -1.2327 C   0  0  1  0  0  0  0  0  0  0  0  0
    0.9011    1.9503    1.1534 C   0  0  2  0  0  0  0  0  0  0  0  0
    1.2901    3.0507    0.1700 C   0  0  0  0  0  0  0  0  0  0  0  0
    2.0886    1.2661   -1.4133 C   0  0  0  0  0  0  0  0  0  0  0  0
    1.8736    0.7654    1.0110 C   0  0  0  0  0  0  0  0  0  0  0  0
   -0.3166    2.1188   -1.4844 C   0  0  0  0  0  0  0  0  0  0  0  0
   -0.5268    1.4917    0.9230 C   0  0  0  0  0  0  0  0  0  0  0  0
   -1.2687    1.0438    1.9484 C   0  0  0  0  0  0  0  0  0  0  0  0
   -2.3662    1.0705   -0.6460 C   0  0  0  0  0  0  0  0  0  0  0  0
   -3.1604    0.5403    0.5174 C   0  0  0  0  0  0  0  0  0  0  0  0
   -2.6022    0.5563    1.7371 C   0  0  0  0  0  0  0  0  0  0  0  0
    4.3378   -1.0467   -0.1933 C   0  0  0  0  0  0  0  0  0  0  0  0
   -4.5202    0.0043    0.3326 C   0  0  0  0  0  0  0  0  0  0  0  0
    4.7254   -1.2742    1.1046 C   0  0  0  0  0  0  0  0  0  0  0  0
    5.2091   -0.6533   -1.1796 C   0  0  0  0  0  0  0  0  0  0  0  0
   -4.7421   -1.3451    0.0477 C   0  0  0  0  0  0  0  0  0  0  0  0
   -5.6057    0.8757    0.4474 C   0  0  0  0  0  0  0  0  0  0  0  0
    6.0686   -1.0970    1.4370 C   0  0  0  0  0  0  0  0  0  0  0  0
    6.5522   -0.4763   -0.8472 C   0  0  0  0  0  0  0  0  0  0  0  0
   -6.0425   -1.8203   -0.1215 C   0  0  0  0  0  0  0  0  0  0  0  0
    6.9819   -0.6981    0.4612 C   0  0  0  0  0  0  0  0  0  0  0  0
   -3.5886   -2.2916   -0.0782 C   0  0  0  0  0  0  0  0  0  0  0  0
   -6.9060    0.4004    0.2782 C   0  0  0  0  0  0  0  0  0  0  0  0
   -7.1245   -0.9476   -0.0063 C   0  0  0  0  0  0  0  0  0  0  0  0
   -6.3053   -3.2586   -0.4271 C   0  0  0  0  0  0  0  0  0  0  0  0
    1.4524    3.2311   -1.9683 H   0  0  0  0  0  0  0  0  0  0  0  0
    0.9979    2.3541    2.1698 H   0  0  0  0  0  0  0  0  0  0  0  0
    0.6437    3.9290    0.2916 H   0  0  0  0  0  0  0  0  0  0  0  0
    2.3199    3.3823    0.3508 H   0  0  0  0  0  0  0  0  0  0  0  0
    1.9357    0.8486   -2.4140 H   0  0  0  0  0  0  0  0  0  0  0  0
    3.1311    1.5963   -1.3368 H   0  0  0  0  0  0  0  0  0  0  0  0
    2.8922    1.0983    1.2413 H   0  0  0  0  0  0  0  0  0  0  0  0
    1.6014   -0.0207    1.7244 H   0  0  0  0  0  0  0  0  0  0  0  0
   -0.8600    3.0397   -1.7374 H   0  0  0  0  0  0  0  0  0  0  0  0
   -0.4109    1.4641   -2.3601 H   0  0  0  0  0  0  0  0  0  0  0  0
   -0.8771    1.0066    2.9596 H   0  0  0  0  0  0  0  0  0  0  0  0
   -3.1310    0.1838    2.6096 H   0  0  0  0  0  0  0  0  0  0  0  0
    4.0294   -1.5751    1.8803 H   0  0  0  0  0  0  0  0  0  0  0  0
    4.8920   -0.4667   -2.2001 H   0  0  0  0  0  0  0  0  0  0  0  0
   -5.4542    1.9299    0.6675 H   0  0  0  0  0  0  0  0  0  0  0  0
    6.3889   -1.2713    2.4610 H   0  0  0  0  0  0  0  0  0  0  0  0
    7.2524   -0.1631   -1.6174 H   0  0  0  0  0  0  0  0  0  0  0  0
   -2.6494   -1.7973   -0.3420 H   0  0  0  0  0  0  0  0  0  0  0  0
   -3.4400   -2.8259    0.8660 H   0  0  0  0  0  0  0  0  0  0  0  0
   -3.7508   -3.0236   -0.8761 H   0  0  0  0  0  0  0  0  0  0  0  0
   -7.7484    1.0800    0.3672 H   0  0  0  0  0  0  0  0  0  0  0  0
   -8.1440   -1.3007   -0.1367 H   0  0  0  0  0  0  0  0  0  0  0  0
   -5.7973   -3.9122    0.2896 H   0  0  0  0  0  0  0  0  0  0  0  0
   -7.3735   -3.4949   -0.3635 H   0  0  0  0  0  0  0  0  0  0  0  0
   -5.9771   -3.5012   -1.4430 H   0  0  0  0  0  0  0  0  0  0  0  0
  1 28  1  0  0  0  0
  2  3  2  0  0  0  0
  2  4  2  0  0  0  0
  2  6  1  0  0  0  0
  2 19  1  0  0  0  0
  5 16  2  0  0  0  0
  6 11  1  0  0  0  0
  6 12  1  0  0  0  0
  7 13  1  0  0  0  0
  7 14  1  0  0  0  0
  7 16  1  0  0  0  0
  8 10  1  0  0  0  0
  8 11  1  0  0  0  0
  8 13  1  0  0  0  0
  8 33  1  0  0  0  0
  9 10  1  0  0  0  0
  9 12  1  0  0  0  0
  9 14  1  0  0  0  0
  9 34  1  0  0  0  0
 10 35  1  0  0  0  0
 10 36  1  0  0  0  0
 11 37  1  0  0  0  0
 11 38  1  0  0  0  0
 12 39  1  0  0  0  0
 12 40  1  0  0  0  0
 13 41  1  0  0  0  0
 13 42  1  0  0  0  0
 14 15  2  0  0  0  0
 15 18  1  0  0  0  0
 15 43  1  0  0  0  0
 16 17  1  0  0  0  0
 17 18  2  0  0  0  0
 17 20  1  0  0  0  0
 18 44  1  0  0  0  0
 19 21  2  0  0  0  0
 19 22  1  0  0  0  0
 20 23  1  0  0  0  0
 20 24  2  0  0  0  0
 21 25  1  0  0  0  0
 21 45  1  0  0  0  0
 22 26  2  0  0  0  0
 22 46  1  0  0  0  0
 23 27  2  0  0  0  0
 23 29  1  0  0  0  0
 24 30  1  0  0  0  0
 24 47  1  0  0  0  0
 25 28  2  0  0  0  0
 25 48  1  0  0  0  0
 26 28  1  0  0  0  0
 26 49  1  0  0  0  0
 27 31  1  0  0  0  0
 27 32  1  0  0  0  0
 29 50  1  0  0  0  0
 29 51  1  0  0  0  0
 29 52  1  0  0  0  0
 30 31  2  0  0  0  0
 30 53  1  0  0  0  0
 31 54  1  0  0  0  0
 32 55  1  0  0  0  0
 32 56  1  0  0  0  0
 32 57  1  0  0  0  0
M  END
> <PUBCHEM_COMPOUND_CID>
11887647

> <PUBCHEM_CONFORMER_RMSD>
0.8

> <PUBCHEM_CONFORMER_DIVERSEORDER>
1
8
6
9
11
4
5
10
2
7
12
3

> <PUBCHEM_MMFF94_PARTIAL_CHARGES>
39
1 -0.18
11 0.36
12 0.36
13 0.3
14 -0.03
15 -0.15
16 0.62
17 -0.01
18 -0.15
19 -0.01
2 1.45
20 0.03
21 -0.15
22 -0.15
23 -0.14
24 -0.15
25 -0.15
26 -0.15
27 -0.14
28 0.18
29 0.14
3 -0.65
30 -0.15
31 -0.15
32 0.14
4 -0.65
43 0.15
44 0.15
45 0.15
46 0.15
47 0.15
48 0.15
49 0.15
5 -0.57
53 0.15
54 0.15
6 -0.85
7 -0.47
9 0.14

> <PUBCHEM_EFFECTIVE_ROTOR_COUNT>
4

> <PUBCHEM_PHARMACOPHORE_FEATURES>
8
1 3 acceptor
1 4 acceptor
1 5 acceptor
6 19 21 22 25 26 28 rings
6 20 23 24 27 30 31 rings
6 6 8 9 10 11 12 rings
6 7 14 15 16 17 18 rings
6 7 8 9 10 13 14 rings

> <PUBCHEM_HEAVY_ATOM_COUNT>
32

> <PUBCHEM_ATOM_DEF_STEREO_COUNT>
2

> <PUBCHEM_ATOM_UDEF_STEREO_COUNT>
0

> <PUBCHEM_BOND_DEF_STEREO_COUNT>
0

> <PUBCHEM_BOND_UDEF_STEREO_COUNT>
0

> <PUBCHEM_ISOTOPIC_ATOM_COUNT>
0

> <PUBCHEM_COMPONENT_COUNT>
1

> <PUBCHEM_CACTVS_TAUTO_COUNT>
1

> <PUBCHEM_CONFORMER_ID>
00B5641F00000001

> <PUBCHEM_MMFF94_ENERGY>
82.6692

> <PUBCHEM_FEATURE_SELFOVERLAP>
42.199

> <PUBCHEM_SHAPE_FINGERPRINT>
10 15 15195566792730841352
10190206 1 12829482606947531558
10290309 65 18268991977857792239
10670039 82 14634860934442366655
11135609 12 18343298193015828388
11135609 99 18130786814740349734
11315621 136 18263364857882588411
11456790 92 17703525367818070979
117089 54 18045790245968411395
11796584 16 18273224084385954453
12107183 9 18339933615439047425
12107698 1 17821729429205802221
12120059 20 18267605648297683774
12516196 113 18201440250983465160
12522641 33 17970069062054018972
13690498 29 17603857889216936941
13782708 43 18335699481394578833
14068700 675 18410293618345433561
14251751 18 18411981369141949287
14394314 77 18335701594255017481
1454969 45 18335427872485267790
15183329 4 14056999404156428712
15721738 202 17418093226561227186
15728490 51 18273213114802408766
15927050 60 17624692745711016964
17492 89 18047195434760323179
18336668 15 18411982481079517015
19958102 18 15213300773210631410
20028762 73 18342461447952238214
20567600 70 18341613741249814794
21223535 225 15140950713158762247
21424621 283 8430305819543933142
21756936 100 8502364499707797289
23522609 53 18044970954295280437
23559900 14 18270116954678507529
249057 3 18409730647903378761
2747138 104 17918276446367124632
2838139 119 8070021151651465355
3004659 81 18410576210424558635
3009799 131 16370729227609022960
3383291 50 18130510820933966079
4066623 53 15791448244949156524
4098825 35 17095239194548433573
4149490 64 18191312770039863011
4280585 95 18187364350115920987
4325135 7 18409731742792751330
437795 51 17632291333316032520
439807 62 17894351086041963215
463206 1 18262243321435483403
474113 269 13840528638113878880
5104073 3 17845102925610787193
59682541 35 17917986192630352194
5969126 39 17822287951317129108
59755656 520 10375860857930288121
6009941 240 18059575733582979793
613672 6 18041580052192684162
6523845 18 14273464678165455601

> <PUBCHEM_SHAPE_MULTIPOLES>
636.69
20.06
2.84
1.56
7.71
0.03
0.06
14.26
-2.55
-2.01
0.49
1.03
-0.42
-0.77

> <PUBCHEM_SHAPE_SELFOVERLAP>
1377.495

> <PUBCHEM_SHAPE_VOLUME>
351

> <PUBCHEM_COORDINATE_TYPE>
2
5
10

$$$$
