7662744
  -OEChem-12032416113D

 52 55  0     1  0  0  0  0  0999 V2000
   -2.9572    2.0777    2.2227 O   0  0  0  0  0  0  0  0  0  0  0  0
   -3.1675   -2.4830   -1.2669 O   0  0  0  0  0  0  0  0  0  0  0  0
   -1.6912   -0.7408   -1.6938 N   0  0  0  0  0  0  0  0  0  0  0  0
   -1.5392    1.6420    0.4101 N   0  0  0  0  0  0  0  0  0  0  0  0
   -2.0909   -3.0238    1.0518 N   0  0  0  0  0  0  0  0  0  0  0  0
    4.6701   -3.1430   -0.3244 N   0  0  0  0  0  0  0  0  0  0  0  0
   -2.4116    1.6236   -2.0004 C   0  0  1  0  0  0  0  0  0  0  0  0
   -0.0481    1.1237   -1.5468 C   0  0  2  0  0  0  0  0  0  0  0  0
   -0.9866    2.0081   -2.3660 C   0  0  0  0  0  0  0  0  0  0  0  0
   -2.6762    0.1425   -2.3178 C   0  0  0  0  0  0  0  0  0  0  0  0
   -2.6359    1.9401   -0.5213 C   0  0  0  0  0  0  0  0  0  0  0  0
   -0.2902   -0.3564   -1.9102 C   0  0  0  0  0  0  0  0  0  0  0  0
   -0.2400    1.3376   -0.0428 C   0  0  0  0  0  0  0  0  0  0  0  0
    0.7770    1.2183    0.8501 C   0  0  0  0  0  0  0  0  0  0  0  0
   -1.8451    1.7989    1.7738 C   0  0  0  0  0  0  0  0  0  0  0  0
   -2.1174   -1.8845   -1.0191 C   0  0  0  0  0  0  0  0  0  0  0  0
    0.4984    1.3701    2.2656 C   0  0  0  0  0  0  0  0  0  0  0  0
   -0.7252    1.6282    2.7267 C   0  0  0  0  0  0  0  0  0  0  0  0
    2.1605    0.9185    0.4205 C   0  0  0  0  0  0  0  0  0  0  0  0
   -1.2223   -2.3922    0.0828 C   0  0  0  0  0  0  0  0  0  0  0  0
    2.5776   -0.4038    0.3024 C   0  0  0  0  0  0  0  0  0  0  0  0
    3.0364    1.9625    0.1390 C   0  0  0  0  0  0  0  0  0  0  0  0
    3.8829   -0.6848   -0.1010 C   0  0  0  0  0  0  0  0  0  0  0  0
    4.3418    1.6816   -0.2646 C   0  0  0  0  0  0  0  0  0  0  0  0
   -3.0669   -2.0668    1.5875 C   0  0  0  0  0  0  0  0  0  0  0  0
   -1.3153   -3.6118    2.1509 C   0  0  0  0  0  0  0  0  0  0  0  0
    4.7651    0.3580   -0.3846 C   0  0  0  0  0  0  0  0  0  0  0  0
    4.3171   -2.0407   -0.2242 C   0  0  0  0  0  0  0  0  0  0  0  0
   -3.1175    2.2195   -2.5920 H   0  0  0  0  0  0  0  0  0  0  0  0
    0.9727    1.3855   -1.8466 H   0  0  0  0  0  0  0  0  0  0  0  0
   -0.8037    3.0692   -2.1553 H   0  0  0  0  0  0  0  0  0  0  0  0
   -0.8140    1.8596   -3.4390 H   0  0  0  0  0  0  0  0  0  0  0  0
   -3.6870   -0.1400   -2.0024 H   0  0  0  0  0  0  0  0  0  0  0  0
   -2.6145   -0.0260   -3.3998 H   0  0  0  0  0  0  0  0  0  0  0  0
   -2.8214    3.0186   -0.4201 H   0  0  0  0  0  0  0  0  0  0  0  0
   -3.5464    1.4453   -0.1597 H   0  0  0  0  0  0  0  0  0  0  0  0
   -0.0872   -0.5112   -2.9776 H   0  0  0  0  0  0  0  0  0  0  0  0
    0.3805   -1.0295   -1.3738 H   0  0  0  0  0  0  0  0  0  0  0  0
    1.3199    1.2545    2.9666 H   0  0  0  0  0  0  0  0  0  0  0  0
   -0.9254    1.7337    3.7862 H   0  0  0  0  0  0  0  0  0  0  0  0
   -0.6539   -1.5758    0.5373 H   0  0  0  0  0  0  0  0  0  0  0  0
   -0.5245   -3.1120   -0.3594 H   0  0  0  0  0  0  0  0  0  0  0  0
    1.8939   -1.2182    0.5335 H   0  0  0  0  0  0  0  0  0  0  0  0
    2.7204    2.9989    0.2278 H   0  0  0  0  0  0  0  0  0  0  0  0
    5.0284    2.4936   -0.4856 H   0  0  0  0  0  0  0  0  0  0  0  0
   -3.7784   -1.6822    0.8519 H   0  0  0  0  0  0  0  0  0  0  0  0
   -2.5746   -1.2110    2.0643 H   0  0  0  0  0  0  0  0  0  0  0  0
   -3.6851   -2.5565    2.3500 H   0  0  0  0  0  0  0  0  0  0  0  0
   -0.6090   -4.3550    1.7646 H   0  0  0  0  0  0  0  0  0  0  0  0
   -0.7505   -2.8550    2.7075 H   0  0  0  0  0  0  0  0  0  0  0  0
   -1.9748   -4.1379    2.8499 H   0  0  0  0  0  0  0  0  0  0  0  0
    5.7857    0.1551   -0.7003 H   0  0  0  0  0  0  0  0  0  0  0  0
  1 15  2  0  0  0  0
  2 16  2  0  0  0  0
  3 10  1  0  0  0  0
  3 12  1  0  0  0  0
  3 16  1  0  0  0  0
  4 11  1  0  0  0  0
  4 13  1  0  0  0  0
  4 15  1  0  0  0  0
  5 20  1  0  0  0  0
  5 25  1  0  0  0  0
  5 26  1  0  0  0  0
  6 28  3  0  0  0  0
  7  9  1  0  0  0  0
  7 10  1  0  0  0  0
  7 11  1  0  0  0  0
  7 29  1  0  0  0  0
  8  9  1  0  0  0  0
  8 12  1  0  0  0  0
  8 13  1  0  0  0  0
  8 30  1  0  0  0  0
  9 31  1  0  0  0  0
  9 32  1  0  0  0  0
 10 33  1  0  0  0  0
 10 34  1  0  0  0  0
 11 35  1  0  0  0  0
 11 36  1  0  0  0  0
 12 37  1  0  0  0  0
 12 38  1  0  0  0  0
 13 14  2  0  0  0  0
 14 17  1  0  0  0  0
 14 19  1  0  0  0  0
 15 18  1  0  0  0  0
 16 20  1  0  0  0  0
 17 18  2  0  0  0  0
 17 39  1  0  0  0  0
 18 40  1  0  0  0  0
 19 21  1  0  0  0  0
 19 22  2  0  0  0  0
 20 41  1  0  0  0  0
 20 42  1  0  0  0  0
 21 23  2  0  0  0  0
 21 43  1  0  0  0  0
 22 24  1  0  0  0  0
 22 44  1  0  0  0  0
 23 27  1  0  0  0  0
 23 28  1  0  0  0  0
 24 27  2  0  0  0  0
 24 45  1  0  0  0  0
 25 46  1  0  0  0  0
 25 47  1  0  0  0  0
 25 48  1  0  0  0  0
 26 49  1  0  0  0  0
 26 50  1  0  0  0  0
 26 51  1  0  0  0  0
 27 52  1  0  0  0  0
M  END
> <PUBCHEM_COMPOUND_CID>
7662744

> <PUBCHEM_CONFORMER_RMSD>
0.8

> <PUBCHEM_CONFORMER_DIVERSEORDER>
1
6
7
4
8
3
2
5

> <PUBCHEM_MMFF94_PARTIAL_CHARGES>
32
1 -0.57
10 0.3
11 0.3
12 0.3
13 -0.03
14 -0.03
15 0.62
16 0.57
17 -0.15
18 -0.14
19 0.03
2 -0.57
20 0.33
21 -0.15
22 -0.15
23 0.07
24 -0.15
25 0.27
26 0.27
27 -0.15
28 0.48
3 -0.66
39 0.15
4 -0.47
40 0.15
43 0.15
44 0.15
45 0.15
5 -0.81
52 0.15
6 -0.56
8 0.14

> <PUBCHEM_EFFECTIVE_ROTOR_COUNT>
5

> <PUBCHEM_PHARMACOPHORE_FEATURES>
8
1 1 acceptor
1 2 acceptor
1 5 cation
1 6 acceptor
6 19 21 22 23 24 27 rings
6 3 7 8 9 10 12 rings
6 4 13 14 15 17 18 rings
6 4 7 8 9 11 13 rings

> <PUBCHEM_HEAVY_ATOM_COUNT>
28

> <PUBCHEM_ATOM_DEF_STEREO_COUNT>
2

> <PUBCHEM_ATOM_UDEF_STEREO_COUNT>
0

> <PUBCHEM_BOND_DEF_STEREO_COUNT>
0

> <PUBCHEM_BOND_UDEF_STEREO_COUNT>
0

> <PUBCHEM_ISOTOPIC_ATOM_COUNT>
0

> <PUBCHEM_COMPONENT_COUNT>
1

> <PUBCHEM_CACTVS_TAUTO_COUNT>
1

> <PUBCHEM_CONFORMER_ID>
0074EC9800000001

> <PUBCHEM_MMFF94_ENERGY>
83.4339

> <PUBCHEM_FEATURE_SELFOVERLAP>
42.162

> <PUBCHEM_SHAPE_FINGERPRINT>
11135609 12 18334010601865403962
11725454 13 9726544291984844999
121448 382 15430857956143331344
12156800 1 17619686497048859955
12422481 6 18046100157679638491
12553582 1 16987709268244812396
12592029 89 17829030027695551941
131258 38 14401781163464726607
13135754 10 17911277001988183034
20775530 9 17684936090970898522
23598288 3 17489318502902748456
23728640 28 16987992770113549724
3493558 16 12456538991196140398
35225 105 18127719074303886027
394222 165 17479165367950941813
4340502 62 18055096280367346569
469060 322 17168439258355913882
484985 159 18131352964555566414
4921388 177 18113610209926433276
57527295 17 17629166516246912629
57527585 103 18121237393134827830

> <PUBCHEM_SHAPE_MULTIPOLES>
544.56
7.24
3.86
2.65
10.02
3.65
-0.66
2.69
1.24
-1.45
-1.03
-2.74
-0.94
0.78

> <PUBCHEM_SHAPE_SELFOVERLAP>
1180.266

> <PUBCHEM_SHAPE_VOLUME>
292

> <PUBCHEM_COORDINATE_TYPE>
2
5
10

$$$$
