11867282
  -OEChem-12032416223D

 57 61  0     1  0  0  0  0  0999 V2000
    2.0386    2.0410    1.1948 S   0  0  0  0  0  0  0  0  0  0  0  0
    3.0309   -4.5992    0.7194 F   0  0  0  0  0  0  0  0  0  0  0  0
    4.6803   -1.2148   -1.6945 F   0  0  0  0  0  0  0  0  0  0  0  0
   -0.9537    2.7532    1.7425 O   0  0  0  0  0  0  0  0  0  0  0  0
   -2.8661   -2.1394    1.7308 O   0  0  0  0  0  0  0  0  0  0  0  0
    2.4477    2.9504    2.2485 O   0  0  0  0  0  0  0  0  0  0  0  0
    1.2962    0.8368    1.5163 O   0  0  0  0  0  0  0  0  0  0  0  0
   -3.7640   -0.9932   -0.0677 N   0  0  0  0  0  0  0  0  0  0  0  0
   -2.3660    1.8728    0.0932 N   0  0  0  0  0  0  0  0  0  0  0  0
   -1.9789   -2.5046   -0.3800 N   0  0  0  0  0  0  0  0  0  0  0  0
    1.2311    2.9009   -0.0190 N   0  0  0  0  0  0  0  0  0  0  0  0
   -4.7927    1.2024    0.5450 C   0  0  1  0  0  0  0  0  0  0  0  0
   -3.8406    0.8882   -1.6989 C   0  0  2  0  0  0  0  0  0  0  0  0
   -5.0080    1.5043   -0.9325 C   0  0  0  0  0  0  0  0  0  0  0  0
   -4.7497   -0.3165    0.7803 C   0  0  0  0  0  0  0  0  0  0  0  0
   -3.5089    1.8958    1.0144 C   0  0  0  0  0  0  0  0  0  0  0  0
   -3.8314   -0.6420   -1.4980 C   0  0  0  0  0  0  0  0  0  0  0  0
   -2.5157    1.4709   -1.2409 C   0  0  0  0  0  0  0  0  0  0  0  0
   -1.4854    1.5677   -2.1013 C   0  0  0  0  0  0  0  0  0  0  0  0
   -1.1426    2.3710    0.5883 C   0  0  0  0  0  0  0  0  0  0  0  0
   -2.8555   -1.9008    0.5204 C   0  0  0  0  0  0  0  0  0  0  0  0
   -0.0377    2.4302   -0.4013 C   0  0  0  0  0  0  0  0  0  0  0  0
   -0.2052    2.0616   -1.6718 C   0  0  0  0  0  0  0  0  0  0  0  0
   -0.6972   -3.0389   -0.0993 C   0  0  0  0  0  0  0  0  0  0  0  0
    3.4996    1.5452    0.3301 C   0  0  0  0  0  0  0  0  0  0  0  0
    0.0124   -3.6969   -1.1000 C   0  0  0  0  0  0  0  0  0  0  0  0
   -0.1557   -2.9045    1.1761 C   0  0  0  0  0  0  0  0  0  0  0  0
    3.5045    0.3404   -0.3499 C   0  0  0  0  0  0  0  0  0  0  0  0
    4.6094    2.3710    0.3517 C   0  0  0  0  0  0  0  0  0  0  0  0
    1.2737   -4.2245   -0.8230 C   0  0  0  0  0  0  0  0  0  0  0  0
    1.1055   -3.4320    1.4530 C   0  0  0  0  0  0  0  0  0  0  0  0
    1.8202   -4.0920    0.4535 C   0  0  0  0  0  0  0  0  0  0  0  0
    4.6571   -0.0516   -1.0307 C   0  0  0  0  0  0  0  0  0  0  0  0
    5.7621    1.9793   -0.3292 C   0  0  0  0  0  0  0  0  0  0  0  0
    5.7859    0.7679   -1.0204 C   0  0  0  0  0  0  0  0  0  0  0  0
   -5.6317    1.6034    1.1271 H   0  0  0  0  0  0  0  0  0  0  0  0
   -3.9860    1.0955   -2.7672 H   0  0  0  0  0  0  0  0  0  0  0  0
   -5.0583    2.5870   -1.1029 H   0  0  0  0  0  0  0  0  0  0  0  0
   -5.9592    1.0800   -1.2762 H   0  0  0  0  0  0  0  0  0  0  0  0
   -4.5659   -0.5254    1.8392 H   0  0  0  0  0  0  0  0  0  0  0  0
   -5.7246   -0.7558    0.5349 H   0  0  0  0  0  0  0  0  0  0  0  0
   -3.7269    2.9587    1.1870 H   0  0  0  0  0  0  0  0  0  0  0  0
   -3.1857    1.4939    1.9830 H   0  0  0  0  0  0  0  0  0  0  0  0
   -4.7591   -1.0791   -1.8869 H   0  0  0  0  0  0  0  0  0  0  0  0
   -3.0091   -1.0696   -2.0737 H   0  0  0  0  0  0  0  0  0  0  0  0
   -1.5768    1.2507   -3.1349 H   0  0  0  0  0  0  0  0  0  0  0  0
    0.5917    2.1022   -2.4067 H   0  0  0  0  0  0  0  0  0  0  0  0
   -2.2810   -2.6193   -1.3413 H   0  0  0  0  0  0  0  0  0  0  0  0
    1.8193    3.1612   -0.8234 H   0  0  0  0  0  0  0  0  0  0  0  0
   -0.4024   -3.8066   -2.0985 H   0  0  0  0  0  0  0  0  0  0  0  0
   -0.6434   -2.3721    1.9830 H   0  0  0  0  0  0  0  0  0  0  0  0
    2.6340   -0.3080   -0.3756 H   0  0  0  0  0  0  0  0  0  0  0  0
    4.6077    3.3207    0.8775 H   0  0  0  0  0  0  0  0  0  0  0  0
    1.8307   -4.7382   -1.6009 H   0  0  0  0  0  0  0  0  0  0  0  0
    1.5359   -3.3219    2.4441 H   0  0  0  0  0  0  0  0  0  0  0  0
    6.6405    2.6180   -0.3228 H   0  0  0  0  0  0  0  0  0  0  0  0
    6.6830    0.4627   -1.5509 H   0  0  0  0  0  0  0  0  0  0  0  0
  1  6  2  0  0  0  0
  1  7  2  0  0  0  0
  1 11  1  0  0  0  0
  1 25  1  0  0  0  0
  2 32  1  0  0  0  0
  3 33  1  0  0  0  0
  4 20  2  0  0  0  0
  5 21  2  0  0  0  0
  8 15  1  0  0  0  0
  8 17  1  0  0  0  0
  8 21  1  0  0  0  0
  9 16  1  0  0  0  0
  9 18  1  0  0  0  0
  9 20  1  0  0  0  0
 10 21  1  0  0  0  0
 10 24  1  0  0  0  0
 10 48  1  0  0  0  0
 11 22  1  0  0  0  0
 11 49  1  0  0  0  0
 12 14  1  0  0  0  0
 12 15  1  0  0  0  0
 12 16  1  0  0  0  0
 12 36  1  0  0  0  0
 13 14  1  0  0  0  0
 13 17  1  0  0  0  0
 13 18  1  0  0  0  0
 13 37  1  0  0  0  0
 14 38  1  0  0  0  0
 14 39  1  0  0  0  0
 15 40  1  0  0  0  0
 15 41  1  0  0  0  0
 16 42  1  0  0  0  0
 16 43  1  0  0  0  0
 17 44  1  0  0  0  0
 17 45  1  0  0  0  0
 18 19  2  0  0  0  0
 19 23  1  0  0  0  0
 19 46  1  0  0  0  0
 20 22  1  0  0  0  0
 22 23  2  0  0  0  0
 23 47  1  0  0  0  0
 24 26  2  0  0  0  0
 24 27  1  0  0  0  0
 25 28  1  0  0  0  0
 25 29  2  0  0  0  0
 26 30  1  0  0  0  0
 26 50  1  0  0  0  0
 27 31  2  0  0  0  0
 27 51  1  0  0  0  0
 28 33  2  0  0  0  0
 28 52  1  0  0  0  0
 29 34  1  0  0  0  0
 29 53  1  0  0  0  0
 30 32  2  0  0  0  0
 30 54  1  0  0  0  0
 31 32  1  0  0  0  0
 31 55  1  0  0  0  0
 33 35  1  0  0  0  0
 34 35  2  0  0  0  0
 34 56  1  0  0  0  0
 35 57  1  0  0  0  0
M  END
> <PUBCHEM_COMPOUND_CID>
11867282

> <PUBCHEM_CONFORMER_RMSD>
1

> <PUBCHEM_CONFORMER_DIVERSEORDER>
1
44
129
100
57
35
12
89
75
79
17
90
116
119
81
38
84
99
25
46
95
111
31
28
93
80
8
87
120
73
50
102
16
104
88
62
117
51
5
83
76
101
32
45
77
94
27
69
131
130
42
65
63
118
3
34
36
105
128
97
61
123
19
58
60
41
74
49
39
40
91
107
11
29
112
71
85
86
122
30
121
52
98
6
110
37
72
48
56
43
33
127
2
126
115
66
124
14
20
64
113
9
21
103
82
68
96
108
106
24
78
23
67
55
70
114
59
125
53
13
54
26
109
92
4
18
47
7
22
15
10

> <PUBCHEM_MMFF94_PARTIAL_CHARGES>
45
1 1.45
10 -0.55
11 -0.75
13 0.14
15 0.3
16 0.3
17 0.3
18 -0.03
19 -0.15
2 -0.19
20 0.62
21 0.69
22 0.21
23 -0.15
24 0.12
25 -0.01
26 -0.15
27 -0.15
28 -0.15
29 -0.15
3 -0.19
30 -0.15
31 -0.15
32 0.19
33 0.19
34 -0.15
35 -0.15
4 -0.57
46 0.15
47 0.15
48 0.37
49 0.42
5 -0.57
50 0.15
51 0.15
52 0.15
53 0.15
54 0.15
55 0.15
56 0.15
57 0.15
6 -0.65
7 -0.65
8 -0.66
9 -0.47

> <PUBCHEM_EFFECTIVE_ROTOR_COUNT>
7

> <PUBCHEM_PHARMACOPHORE_FEATURES>
11
1 10 donor
1 11 donor
1 4 acceptor
1 5 acceptor
1 6 acceptor
1 7 acceptor
6 24 26 27 30 31 32 rings
6 25 28 29 33 34 35 rings
6 8 12 13 14 15 17 rings
6 9 12 13 14 16 18 rings
6 9 18 19 20 22 23 rings

> <PUBCHEM_HEAVY_ATOM_COUNT>
35

> <PUBCHEM_ATOM_DEF_STEREO_COUNT>
2

> <PUBCHEM_ATOM_UDEF_STEREO_COUNT>
0

> <PUBCHEM_BOND_DEF_STEREO_COUNT>
0

> <PUBCHEM_BOND_UDEF_STEREO_COUNT>
0

> <PUBCHEM_ISOTOPIC_ATOM_COUNT>
0

> <PUBCHEM_COMPONENT_COUNT>
1

> <PUBCHEM_CACTVS_TAUTO_COUNT>
2

> <PUBCHEM_CONFORMER_ID>
00B5149200000001

> <PUBCHEM_MMFF94_ENERGY>
86.5615

> <PUBCHEM_FEATURE_SELFOVERLAP>
57.411

> <PUBCHEM_SHAPE_FINGERPRINT>
10305334 12 17411921486994949664
11200772 71 17755035416846327748
11285246 1 17694467718990935967
11578080 2 17826513263044785933
12156800 1 17391402619766374027
13402501 40 18339647836013179254
14028597 1 17845675698138642457
14251757 5 17974297822085356412
14840074 17 17822015319540950109
15274700 242 17097187645597485400
15927050 60 18412539917228951367
16067690 210 16200160858651147633
17627616 140 18335978675564852930
20764821 26 18411690007140233654
20775530 9 16462756486421420907
21344244 246 18337371792053457999
3298306 158 18336819818960297871
373842 8 18120083997559350482
463206 1 17617942431421068566
469060 322 16950841526220298926
50150288 127 17058113015999679536
5080951 261 17827324951955746264
508706 21 18192989541803574846
5265222 85 18190185770194780533
86090 222 18337965553084278642

> <PUBCHEM_SHAPE_MULTIPOLES>
666.18
10.71
5.92
1.8
6.08
7.7
0.01
-5.5
2.18
2.98
-1.14
-0.28
-0.46
0.86

> <PUBCHEM_SHAPE_SELFOVERLAP>
1450.312

> <PUBCHEM_SHAPE_VOLUME>
364.6

> <PUBCHEM_COORDINATE_TYPE>
2
5
10

$$$$
