40779205
  -OEChem-12032416173D

 66 70  0     1  0  0  0  0  0999 V2000
   -4.2948    1.3617   -1.5167 O   0  0  0  0  0  0  0  0  0  0  0  0
   -0.2699    3.3682   -0.6556 N   0  0  2  0  0  0  0  0  0  0  0  0
    4.1021    1.5658   -0.1223 N   0  0  0  0  0  0  0  0  0  0  0  0
   -2.3145    0.2396   -1.0574 N   0  0  0  0  0  0  0  0  0  0  0  0
    4.8145    0.4348   -0.2618 N   0  0  0  0  0  0  0  0  0  0  0  0
   -4.3418   -0.8055   -0.6851 N   0  0  0  0  0  0  0  0  0  0  0  0
    0.6850    2.2888    1.5138 C   0  0  2  0  0  0  0  0  0  0  0  0
    1.8136    2.4920    0.4652 C   0  0  2  0  0  0  0  0  0  0  0  0
   -1.1000    2.1993   -0.2615 C   0  0  2  0  0  0  0  0  0  0  0  0
   -0.4350    1.4248    0.8968 C   0  0  0  0  0  0  0  0  0  0  0  0
    0.0814    3.6817    1.7938 C   0  0  0  0  0  0  0  0  0  0  0  0
    1.1382    2.9459   -0.8604 C   0  0  0  0  0  0  0  0  0  0  0  0
   -0.3025    4.3450    0.4594 C   0  0  0  0  0  0  0  0  0  0  0  0
   -1.4215    1.2869   -1.4470 C   0  0  0  0  0  0  0  0  0  0  0  0
    2.8060    1.3586    0.2489 C   0  0  0  0  0  0  0  0  0  0  0  0
    2.6605   -0.0026    0.3597 C   0  0  0  0  0  0  0  0  0  0  0  0
    3.9286   -0.5200    0.0341 C   0  0  0  0  0  0  0  0  0  0  0  0
    4.7418    2.8374   -0.3686 C   0  0  0  0  0  0  0  0  0  0  0  0
   -3.7083    0.3548   -1.1218 C   0  0  0  0  0  0  0  0  0  0  0  0
   -5.7795   -0.9562   -0.6479 C   0  0  0  0  0  0  0  0  0  0  0  0
   -6.1881   -2.4094   -0.9117 C   0  0  0  0  0  0  0  0  0  0  0  0
   -6.3524   -0.4505    0.6803 C   0  0  0  0  0  0  0  0  0  0  0  0
   -5.8568   -3.3321    0.2611 C   0  0  0  0  0  0  0  0  0  0  0  0
   -6.0208   -1.3765    1.8506 C   0  0  0  0  0  0  0  0  0  0  0  0
   -6.4468   -2.8141    1.5693 C   0  0  0  0  0  0  0  0  0  0  0  0
    4.3091   -1.9080   -0.0014 C   0  0  0  0  0  0  0  0  0  0  0  0
    3.3621   -2.8821   -0.3175 C   0  0  0  0  0  0  0  0  0  0  0  0
    5.6238   -2.2789    0.2801 C   0  0  0  0  0  0  0  0  0  0  0  0
    3.7298   -4.2273   -0.3518 C   0  0  0  0  0  0  0  0  0  0  0  0
    5.9917   -3.6239    0.2458 C   0  0  0  0  0  0  0  0  0  0  0  0
    5.0446   -4.5982   -0.0702 C   0  0  0  0  0  0  0  0  0  0  0  0
    1.0664    1.8348    2.4345 H   0  0  0  0  0  0  0  0  0  0  0  0
    2.4061    3.3409    0.8382 H   0  0  0  0  0  0  0  0  0  0  0  0
   -2.0651    2.5845    0.0998 H   0  0  0  0  0  0  0  0  0  0  0  0
   -0.0515    0.4600    0.5627 H   0  0  0  0  0  0  0  0  0  0  0  0
   -1.1896    1.2103    1.6645 H   0  0  0  0  0  0  0  0  0  0  0  0
    0.8019    4.3113    2.3288 H   0  0  0  0  0  0  0  0  0  0  0  0
   -0.8024    3.5828    2.4358 H   0  0  0  0  0  0  0  0  0  0  0  0
    1.7012    3.7906   -1.2791 H   0  0  0  0  0  0  0  0  0  0  0  0
    1.1942    2.1666   -1.6293 H   0  0  0  0  0  0  0  0  0  0  0  0
   -1.3020    4.7902    0.5386 H   0  0  0  0  0  0  0  0  0  0  0  0
    0.3746    5.1807    0.2413 H   0  0  0  0  0  0  0  0  0  0  0  0
   -0.5250    0.8026   -1.8467 H   0  0  0  0  0  0  0  0  0  0  0  0
   -1.8795    1.8649   -2.2580 H   0  0  0  0  0  0  0  0  0  0  0  0
    1.7787   -0.5513    0.6509 H   0  0  0  0  0  0  0  0  0  0  0  0
   -1.9187   -0.6303   -0.7143 H   0  0  0  0  0  0  0  0  0  0  0  0
    4.7938    3.3865    0.5746 H   0  0  0  0  0  0  0  0  0  0  0  0
    5.7518    2.6682   -0.7521 H   0  0  0  0  0  0  0  0  0  0  0  0
    4.1595    3.3872   -1.1111 H   0  0  0  0  0  0  0  0  0  0  0  0
   -6.1907   -0.3351   -1.4535 H   0  0  0  0  0  0  0  0  0  0  0  0
   -5.6979   -2.7841   -1.8183 H   0  0  0  0  0  0  0  0  0  0  0  0
   -7.2694   -2.4479   -1.0956 H   0  0  0  0  0  0  0  0  0  0  0  0
   -7.4437   -0.3746    0.5907 H   0  0  0  0  0  0  0  0  0  0  0  0
   -5.9826    0.5581    0.9004 H   0  0  0  0  0  0  0  0  0  0  0  0
   -3.7623   -1.5500   -0.3104 H   0  0  0  0  0  0  0  0  0  0  0  0
   -4.7703   -3.4355    0.3639 H   0  0  0  0  0  0  0  0  0  0  0  0
   -6.2483   -4.3353    0.0566 H   0  0  0  0  0  0  0  0  0  0  0  0
   -6.5220   -1.0160    2.7561 H   0  0  0  0  0  0  0  0  0  0  0  0
   -4.9431   -1.3466    2.0523 H   0  0  0  0  0  0  0  0  0  0  0  0
   -7.5414   -2.8663    1.5206 H   0  0  0  0  0  0  0  0  0  0  0  0
   -6.1336   -3.4605    2.3968 H   0  0  0  0  0  0  0  0  0  0  0  0
    2.3324   -2.6242   -0.5521 H   0  0  0  0  0  0  0  0  0  0  0  0
    6.3823   -1.5436    0.5379 H   0  0  0  0  0  0  0  0  0  0  0  0
    2.9932   -4.9859   -0.6000 H   0  0  0  0  0  0  0  0  0  0  0  0
    7.0149   -3.9132    0.4668 H   0  0  0  0  0  0  0  0  0  0  0  0
    5.3310   -5.6454   -0.0969 H   0  0  0  0  0  0  0  0  0  0  0  0
  1 19  2  0  0  0  0
  2  9  1  0  0  0  0
  2 12  1  0  0  0  0
  2 13  1  0  0  0  0
  3  5  1  0  0  0  0
  3 15  1  0  0  0  0
  3 18  1  0  0  0  0
  4 14  1  0  0  0  0
  4 19  1  0  0  0  0
  4 46  1  0  0  0  0
  5 17  2  0  0  0  0
  6 19  1  0  0  0  0
  6 20  1  0  0  0  0
  6 55  1  0  0  0  0
  7  8  1  0  0  0  0
  7 10  1  0  0  0  0
  7 11  1  0  0  0  0
  7 32  1  0  0  0  0
  8 12  1  0  0  0  0
  8 15  1  0  0  0  0
  8 33  1  0  0  0  0
  9 10  1  0  0  0  0
  9 14  1  0  0  0  0
  9 34  1  0  0  0  0
 10 35  1  0  0  0  0
 10 36  1  0  0  0  0
 11 13  1  0  0  0  0
 11 37  1  0  0  0  0
 11 38  1  0  0  0  0
 12 39  1  0  0  0  0
 12 40  1  0  0  0  0
 13 41  1  0  0  0  0
 13 42  1  0  0  0  0
 14 43  1  0  0  0  0
 14 44  1  0  0  0  0
 15 16  2  0  0  0  0
 16 17  1  0  0  0  0
 16 45  1  0  0  0  0
 17 26  1  0  0  0  0
 18 47  1  0  0  0  0
 18 48  1  0  0  0  0
 18 49  1  0  0  0  0
 20 21  1  0  0  0  0
 20 22  1  0  0  0  0
 20 50  1  0  0  0  0
 21 23  1  0  0  0  0
 21 51  1  0  0  0  0
 21 52  1  0  0  0  0
 22 24  1  0  0  0  0
 22 53  1  0  0  0  0
 22 54  1  0  0  0  0
 23 25  1  0  0  0  0
 23 56  1  0  0  0  0
 23 57  1  0  0  0  0
 24 25  1  0  0  0  0
 24 58  1  0  0  0  0
 24 59  1  0  0  0  0
 25 60  1  0  0  0  0
 25 61  1  0  0  0  0
 26 27  2  0  0  0  0
 26 28  1  0  0  0  0
 27 29  1  0  0  0  0
 27 62  1  0  0  0  0
 28 30  2  0  0  0  0
 28 63  1  0  0  0  0
 29 31  2  0  0  0  0
 29 64  1  0  0  0  0
 30 31  1  0  0  0  0
 30 65  1  0  0  0  0
 31 66  1  0  0  0  0
M  END
> <PUBCHEM_COMPOUND_CID>
40779205

> <PUBCHEM_CONFORMER_RMSD>
1

> <PUBCHEM_CONFORMER_DIVERSEORDER>
1
197
162
68
28
185
188
159
141
69
64
127
74
97
35
152
13
135
4
186
53
148
58
42
38
126
12
39
169
33
8
76
10
79
51
166
48
119
167
19
84
173
184
70
128
132
179
75
60
175
30
176
157
89
32
164
172
27
31
109
22
129
5
165
26
102
85
123
121
52
40
3
37
158
78
191
182
134
25
16
105
187
23
181
66
54
174
55
18
103
189
139
24
9
11
131
91
171
56
178
199
20
34
106
180
95
133
88
160
61
6
117
163
59
113
14
73
57
130
144
92
196
111
136
108
98
145
104
110
168
17
47
156
101
67
138
147
2
153
193
50
86
43
94
62
183
82
93
77
36
170
90
114
99
190
29
7
149
118
44
83
49
151
155
120
80
161
192
107
194
100
15
63
41
140
72
115
65
150
81
122
125
21
45
87
146
137
116
142
96
195
71
198
46
112
124
143
154
177

> <PUBCHEM_MMFF94_PARTIAL_CHARGES>
31
1 -0.57
12 0.27
13 0.27
14 0.3
15 -0.33
16 -0.15
17 0.23
18 0.26
19 0.69
2 -0.81
20 0.3
26 0.05
27 -0.15
28 -0.15
29 -0.15
3 0.31
30 -0.15
31 -0.15
4 -0.73
45 0.15
46 0.37
5 -0.71
55 0.37
6 -0.73
62 0.15
63 0.15
64 0.15
65 0.15
66 0.15
8 0.18
9 0.27

> <PUBCHEM_EFFECTIVE_ROTOR_COUNT>
9.4

> <PUBCHEM_PHARMACOPHORE_FEATURES>
9
1 1 acceptor
1 2 cation
1 4 donor
1 5 acceptor
1 6 donor
5 3 5 15 16 17 rings
6 20 21 22 23 24 25 rings
6 26 27 28 29 30 31 rings
8 2 7 8 9 10 11 12 13 rings

> <PUBCHEM_HEAVY_ATOM_COUNT>
31

> <PUBCHEM_ATOM_DEF_STEREO_COUNT>
3

> <PUBCHEM_ATOM_UDEF_STEREO_COUNT>
0

> <PUBCHEM_BOND_DEF_STEREO_COUNT>
0

> <PUBCHEM_BOND_UDEF_STEREO_COUNT>
0

> <PUBCHEM_ISOTOPIC_ATOM_COUNT>
0

> <PUBCHEM_COMPONENT_COUNT>
1

> <PUBCHEM_CACTVS_TAUTO_COUNT>
3

> <PUBCHEM_CONFORMER_ID>
026E3DC500000001

> <PUBCHEM_MMFF94_ENERGY>
60.0232

> <PUBCHEM_FEATURE_SELFOVERLAP>
45.72

> <PUBCHEM_SHAPE_FINGERPRINT>
10319688 140 18263646332278920612
11014199 57 18195525884012879892
11135926 11 18267570472800288636
117089 54 18410577266813271495
11763715 3 18264230048800833692
12107183 9 18272942588119303273
12342043 65 18114464569801813787
12422481 6 16988295183488676429
13782708 43 18113332011936364555
13911852 28 18412539916790737669
13955234 65 17982165922767574665
14251764 30 18409448072697446699
14429380 30 18266456508465402598
14866123 147 17982728572236542433
14950920 106 17843413023599547411
15019793 15 18267581506239735335
15728490 83 18051695447193605402
17492 89 18339637816350200276
17909252 39 18341888551059774610
19301676 85 17402041202546136623
19304144 158 17896583141717773684
19311894 1 17616816535730871338
19319366 153 18198054992585149188
20775530 9 18268976623311966774
23466295 7 18123187896628438332
23569914 2 13264116409734508526
24893989 43 17269756102170500367
25222932 49 18270956976665469574
2747138 104 18271517586616516706
2835820 90 17677629716367125915
314194 84 18342448292282112181
345986 75 17704354368201980489
3737641 26 18409445886611697635
3991529 202 18191330285565999331
4435113 14 17969233381355360027
46194498 28 17677888118367974597
50009960 94 18042943425337198426
513202 73 18264498295546830001
5912855 24 18270408191636132896
5951187 136 12283455786713420342
6201320 77 17896907420833804851
6700243 42 17313650595247508773
70251023 43 18338234869451536952
7970288 3 18411697660350085243
86090 222 17750232663972233451
9555976 147 17489601030705532307

> <PUBCHEM_SHAPE_MULTIPOLES>
607.19
17.48
6.73
1.36
18.46
1.75
0.27
24.44
1.46
-6.8
0.9
2.04
-0.47
1.18

> <PUBCHEM_SHAPE_SELFOVERLAP>
1297.432

> <PUBCHEM_SHAPE_VOLUME>
332.3

> <PUBCHEM_COORDINATE_TYPE>
2
5
10

$$$$
