11882552
  -OEChem-12032416153D

 64 66  0     1  0  0  0  0  0999 V2000
   -1.2600    3.6727   -1.7801 S   0  0  0  0  0  0  0  0  0  0  0  0
    7.4032    1.0249   -1.3775 S   0  0  0  0  0  0  0  0  0  0  0  0
   -2.3612   -2.3476    1.9661 O   0  0  0  0  0  0  0  0  0  0  0  0
    0.3605   -4.2100   -1.1373 O   0  0  0  0  0  0  0  0  0  0  0  0
   -2.3833   -4.2444   -1.8973 O   0  0  0  0  0  0  0  0  0  0  0  0
   -3.9114   -0.3403    2.0873 O   0  0  0  0  0  0  0  0  0  0  0  0
    2.1702   -1.5703    1.9537 O   0  0  0  0  0  0  0  0  0  0  0  0
   -5.7894    0.2421   -1.3757 O   0  0  0  0  0  0  0  0  0  0  0  0
    3.8992    0.3797    2.3184 O   0  0  0  0  0  0  0  0  0  0  0  0
    1.3242   -1.6266   -0.2043 N   0  0  0  0  0  0  0  0  0  0  0  0
   -3.3880    0.4205   -0.0495 N   0  0  0  0  0  0  0  0  0  0  0  0
   -6.6505    1.7634    0.1145 N   0  0  0  0  0  0  0  0  0  0  0  0
   -2.3521   -1.5793    0.7685 C   0  0  1  0  0  0  0  0  0  0  0  0
    0.0339   -2.1844    0.1371 C   0  0  1  0  0  0  0  0  0  0  0  0
   -0.9441   -1.0553    0.4792 C   0  0  0  0  0  0  0  0  0  0  0  0
   -0.4907   -3.0686   -1.0020 C   0  0  2  0  0  0  0  0  0  0  0  0
   -2.8702   -2.4407   -0.3813 C   0  0  0  0  0  0  0  0  0  0  0  0
   -1.9078   -3.5780   -0.7274 C   0  0  1  0  0  0  0  0  0  0  0  0
   -3.2962   -0.4422    1.0292 C   0  0  0  0  0  0  0  0  0  0  0  0
    2.2938   -1.3646    0.7491 C   0  0  0  0  0  0  0  0  0  0  0  0
   -4.2467    1.5828   -0.0613 C   0  0  1  0  0  0  0  0  0  0  0  0
   -3.7097    2.6907   -0.9746 C   0  0  0  0  0  0  0  0  0  0  0  0
    3.5554   -0.7673    0.2405 C   0  0  0  0  0  0  0  0  0  0  0  0
   -5.6172    1.1224   -0.5360 C   0  0  0  0  0  0  0  0  0  0  0  0
   -2.3368    3.1681   -0.5682 C   0  0  0  0  0  0  0  0  0  0  0  0
    4.2925    0.0734    1.0497 C   0  0  0  0  0  0  0  0  0  0  0  0
    3.9500   -1.0807   -1.0449 C   0  0  0  0  0  0  0  0  0  0  0  0
    5.4740    0.6239    0.5533 C   0  0  0  0  0  0  0  0  0  0  0  0
   -1.8281    3.2499    0.6895 C   0  0  0  0  0  0  0  0  0  0  0  0
    5.1316   -0.5303   -1.5414 C   0  0  0  0  0  0  0  0  0  0  0  0
    5.8936    0.3222   -0.7423 C   0  0  0  0  0  0  0  0  0  0  0  0
   -0.4936    3.7487    0.6708 C   0  0  0  0  0  0  0  0  0  0  0  0
   -0.0604    4.0195   -0.6085 C   0  0  0  0  0  0  0  0  0  0  0  0
    3.0613    1.5223    2.4784 C   0  0  0  0  0  0  0  0  0  0  0  0
    7.0540    2.8033   -1.2759 C   0  0  0  0  0  0  0  0  0  0  0  0
    0.1883   -2.8123    1.0239 H   0  0  0  0  0  0  0  0  0  0  0  0
   -0.5672   -0.5116    1.3565 H   0  0  0  0  0  0  0  0  0  0  0  0
   -0.9420   -0.3325   -0.3464 H   0  0  0  0  0  0  0  0  0  0  0  0
   -0.4533   -2.5287   -1.9568 H   0  0  0  0  0  0  0  0  0  0  0  0
   -3.0530   -1.8496   -1.2874 H   0  0  0  0  0  0  0  0  0  0  0  0
   -3.8439   -2.8787   -0.1223 H   0  0  0  0  0  0  0  0  0  0  0  0
   -1.8944   -4.3305    0.0689 H   0  0  0  0  0  0  0  0  0  0  0  0
    1.4532   -1.3220   -1.1636 H   0  0  0  0  0  0  0  0  0  0  0  0
   -1.7609   -3.1036    1.8683 H   0  0  0  0  0  0  0  0  0  0  0  0
    0.0055   -4.7530   -1.8618 H   0  0  0  0  0  0  0  0  0  0  0  0
   -2.3991   -3.6006   -2.6260 H   0  0  0  0  0  0  0  0  0  0  0  0
   -2.8926    0.2108   -0.9098 H   0  0  0  0  0  0  0  0  0  0  0  0
   -4.3399    1.9450    0.9700 H   0  0  0  0  0  0  0  0  0  0  0  0
   -4.3963    3.5472   -0.9574 H   0  0  0  0  0  0  0  0  0  0  0  0
   -3.6938    2.3272   -2.0113 H   0  0  0  0  0  0  0  0  0  0  0  0
    3.4030   -1.7657   -1.6849 H   0  0  0  0  0  0  0  0  0  0  0  0
   -7.6170    1.5383   -0.0969 H   0  0  0  0  0  0  0  0  0  0  0  0
   -6.4942    2.4866    0.8092 H   0  0  0  0  0  0  0  0  0  0  0  0
    6.0613    1.2805    1.1914 H   0  0  0  0  0  0  0  0  0  0  0  0
   -2.3557    2.9822    1.5953 H   0  0  0  0  0  0  0  0  0  0  0  0
    5.4466   -0.7825   -2.5510 H   0  0  0  0  0  0  0  0  0  0  0  0
    0.1177    3.9012    1.5507 H   0  0  0  0  0  0  0  0  0  0  0  0
    0.9035    4.4039   -0.9110 H   0  0  0  0  0  0  0  0  0  0  0  0
    2.7909    1.6037    3.5347 H   0  0  0  0  0  0  0  0  0  0  0  0
    2.1438    1.4206    1.8899 H   0  0  0  0  0  0  0  0  0  0  0  0
    3.5959    2.4307    2.1831 H   0  0  0  0  0  0  0  0  0  0  0  0
    7.8806    3.3566   -1.7292 H   0  0  0  0  0  0  0  0  0  0  0  0
    6.1347    3.0419   -1.8177 H   0  0  0  0  0  0  0  0  0  0  0  0
    6.9552    3.1200   -0.2344 H   0  0  0  0  0  0  0  0  0  0  0  0
  1 25  1  0  0  0  0
  1 33  1  0  0  0  0
  2 31  1  0  0  0  0
  2 35  1  0  0  0  0
  3 13  1  0  0  0  0
  3 44  1  0  0  0  0
  4 16  1  0  0  0  0
  4 45  1  0  0  0  0
  5 18  1  0  0  0  0
  5 46  1  0  0  0  0
  6 19  2  0  0  0  0
  7 20  2  0  0  0  0
  8 24  2  0  0  0  0
  9 26  1  0  0  0  0
  9 34  1  0  0  0  0
 10 14  1  0  0  0  0
 10 20  1  0  0  0  0
 10 43  1  0  0  0  0
 11 19  1  0  0  0  0
 11 21  1  0  0  0  0
 11 47  1  0  0  0  0
 12 24  1  0  0  0  0
 12 52  1  0  0  0  0
 12 53  1  0  0  0  0
 13 15  1  0  0  0  0
 13 17  1  0  0  0  0
 13 19  1  0  0  0  0
 14 15  1  0  0  0  0
 14 16  1  0  0  0  0
 14 36  1  0  0  0  0
 15 37  1  0  0  0  0
 15 38  1  0  0  0  0
 16 18  1  0  0  0  0
 16 39  1  0  0  0  0
 17 18  1  0  0  0  0
 17 40  1  0  0  0  0
 17 41  1  0  0  0  0
 18 42  1  0  0  0  0
 20 23  1  0  0  0  0
 21 22  1  0  0  0  0
 21 24  1  0  0  0  0
 21 48  1  0  0  0  0
 22 25  1  0  0  0  0
 22 49  1  0  0  0  0
 22 50  1  0  0  0  0
 23 26  2  0  0  0  0
 23 27  1  0  0  0  0
 25 29  2  0  0  0  0
 26 28  1  0  0  0  0
 27 30  2  0  0  0  0
 27 51  1  0  0  0  0
 28 31  2  0  0  0  0
 28 54  1  0  0  0  0
 29 32  1  0  0  0  0
 29 55  1  0  0  0  0
 30 31  1  0  0  0  0
 30 56  1  0  0  0  0
 32 33  2  0  0  0  0
 32 57  1  0  0  0  0
 33 58  1  0  0  0  0
 34 59  1  0  0  0  0
 34 60  1  0  0  0  0
 34 61  1  0  0  0  0
 35 62  1  0  0  0  0
 35 63  1  0  0  0  0
 35 64  1  0  0  0  0
M  END
> <PUBCHEM_COMPOUND_CID>
11882552

> <PUBCHEM_CONFORMER_RMSD>
1.2

> <PUBCHEM_CONFORMER_DIVERSEORDER>
1
77
19
6
47
18
35
8
66
4
67
50
10
75
27
36
31
55
42
14
22
59
56
30
49
62
60
3
48
80
45
37
11
39
2
65
12
25
20
83
43
52
57
15
63
85
9
7
28
74
89
53
61
38
32
64
21
23
68
79
17
40
69
41
5
34
87
73
24
16
70
13
58
86
33
26
82
71
72
46
84
81
78
54
44
29
51
76
88

> <PUBCHEM_MMFF94_PARTIAL_CHARGES>
46
1 -0.08
10 -0.73
11 -0.73
12 -0.8
13 0.34
14 0.3
16 0.28
18 0.28
19 0.57
2 -0.33
20 0.54
21 0.36
22 0.18
23 0.09
24 0.57
25 -0.14
26 0.08
27 -0.15
28 -0.15
29 -0.15
3 -0.68
30 -0.15
31 0.1
32 -0.15
33 -0.11
34 0.28
35 0.23
4 -0.68
43 0.37
44 0.4
45 0.4
46 0.4
47 0.37
5 -0.68
51 0.15
52 0.37
53 0.37
54 0.15
55 0.15
56 0.15
57 0.15
58 0.15
6 -0.57
7 -0.57
8 -0.57
9 -0.36

> <PUBCHEM_EFFECTIVE_ROTOR_COUNT>
12.2

> <PUBCHEM_PHARMACOPHORE_FEATURES>
17
1 10 donor
1 11 donor
1 12 donor
1 3 acceptor
1 3 donor
1 35 hydrophobe
1 4 acceptor
1 4 donor
1 5 acceptor
1 5 donor
1 6 acceptor
1 7 acceptor
1 8 acceptor
1 9 acceptor
5 1 25 29 32 33 rings
6 13 14 15 16 17 18 rings
6 23 26 27 28 30 31 rings

> <PUBCHEM_HEAVY_ATOM_COUNT>
35

> <PUBCHEM_ATOM_DEF_STEREO_COUNT>
5

> <PUBCHEM_ATOM_UDEF_STEREO_COUNT>
0

> <PUBCHEM_BOND_DEF_STEREO_COUNT>
0

> <PUBCHEM_BOND_UDEF_STEREO_COUNT>
0

> <PUBCHEM_ISOTOPIC_ATOM_COUNT>
0

> <PUBCHEM_COMPONENT_COUNT>
1

> <PUBCHEM_CACTVS_TAUTO_COUNT>
8

> <PUBCHEM_CONFORMER_ID>
00B5503800000001

> <PUBCHEM_MMFF94_ENERGY>
98.8783

> <PUBCHEM_FEATURE_SELFOVERLAP>
86.312

> <PUBCHEM_SHAPE_FINGERPRINT>
10670039 82 18263089821087819140
11513181 2 17909542101589285340
12596602 18 16805328794588697592
13402501 40 18340761546782152593
1361 2 18270667706934844117
13911987 19 18339351977755412509
13947920 24 18412271614537285512
14114211 80 18128829555510309809
14347329 18 18410857625519874552
14394314 77 18263089829626234029
14840074 17 18335986385199973649
14930077 153 18117862082248969228
15001296 14 18041285456270706620
15297060 5 18270973336433620472
15575132 122 18335427880521437688
15876981 60 18191030195198259382
15961568 22 18261678060668305285
16067690 210 17967532380858275576
161222 619 17698967921279135224
19053607 189 18192984929204280520
19319366 153 17749664099921199018
19611394 137 18115323279682974907
20101258 96 18047480199133603587
20511986 3 17313097523788069620
20764821 26 18337099189392783084
21033648 29 18272926159093884274
21716022 299 17047942898974557103
44249763 50 18200865292791782728
44802255 64 18270415987529283246
508706 21 18270952552838656246
6036956 94 18186811265808965741
6608658 132 18335692875339596279
7808743 9 18409166615227536022

> <PUBCHEM_SHAPE_MULTIPOLES>
671.95
15.01
5.68
1.93
16.11
0.38
0.72
8.3
-4.11
-4.67
-2.42
1.07
-0.14
-0.19

> <PUBCHEM_SHAPE_SELFOVERLAP>
1394.587

> <PUBCHEM_SHAPE_VOLUME>
385.7

> <PUBCHEM_COORDINATE_TYPE>
2
5
10

$$$$
