11865671
  -OEChem-12032416193D

 61 62  0     1  0  0  0  0  0999 V2000
   -1.9869    3.5832    1.5194 O   0  0  0  0  0  0  0  0  0  0  0  0
   -0.3013    4.2421   -1.6599 O   0  0  0  0  0  0  0  0  0  0  0  0
    2.5612    1.6790    1.9663 O   0  0  0  0  0  0  0  0  0  0  0  0
   -4.1620    1.3071   -1.3566 O   0  0  0  0  0  0  0  0  0  0  0  0
    4.8174    1.6186   -1.3178 O   0  0  0  0  0  0  0  0  0  0  0  0
   -0.5116   -4.8641    0.5514 O   0  0  0  0  0  0  0  0  0  0  0  0
   -2.6335    1.1447    0.3838 N   0  0  0  0  0  0  0  0  0  0  0  0
    2.5394    0.6470   -0.1240 N   0  0  0  0  0  0  0  0  0  0  0  0
   -4.6778    0.1043    0.5594 N   0  0  0  0  0  0  0  0  0  0  0  0
    6.0393    0.6187    0.3506 N   0  0  0  0  0  0  0  0  0  0  0  0
   -1.7376    3.4299    0.1205 C   0  0  2  0  0  0  0  0  0  0  0  0
   -1.5863    1.9342   -0.2169 C   0  0  1  0  0  0  0  0  0  0  0  0
   -0.4744    4.2193   -0.2445 C   0  0  1  0  0  0  0  0  0  0  0  0
    0.7826    3.6452    0.4316 C   0  0  0  0  0  0  0  0  0  0  0  0
    0.7973    2.1438    0.4856 C   0  0  0  0  0  0  0  0  0  0  0  0
   -0.2540    1.3648    0.1894 C   0  0  0  0  0  0  0  0  0  0  0  0
    2.0468    1.4788    0.8664 C   0  0  0  0  0  0  0  0  0  0  0  0
    3.7600   -0.1139    0.0187 C   0  0  1  0  0  0  0  0  0  0  0  0
   -3.8530    0.8909   -0.2408 C   0  0  0  0  0  0  0  0  0  0  0  0
    3.7453   -1.3958   -0.8215 C   0  0  0  0  0  0  0  0  0  0  0  0
    2.6106   -2.3211   -0.4553 C   0  0  0  0  0  0  0  0  0  0  0  0
    4.9046    0.7906   -0.4142 C   0  0  0  0  0  0  0  0  0  0  0  0
   -6.0009   -0.3073    0.1528 C   0  0  0  0  0  0  0  0  0  0  0  0
   -5.9914   -1.6351   -0.5950 C   0  0  0  0  0  0  0  0  0  0  0  0
    1.3803   -2.2052   -1.1025 C   0  0  0  0  0  0  0  0  0  0  0  0
    2.7915   -3.2916    0.5301 C   0  0  0  0  0  0  0  0  0  0  0  0
    0.3312   -3.0599   -0.7644 C   0  0  0  0  0  0  0  0  0  0  0  0
    1.7423   -4.1463    0.8683 C   0  0  0  0  0  0  0  0  0  0  0  0
    0.5122   -4.0304    0.2209 C   0  0  0  0  0  0  0  0  0  0  0  0
   -5.4494   -2.7810    0.2477 C   0  0  0  0  0  0  0  0  0  0  0  0
   -1.7422   -4.6910   -0.1496 C   0  0  0  0  0  0  0  0  0  0  0  0
   -2.6074    3.8285   -0.4159 H   0  0  0  0  0  0  0  0  0  0  0  0
   -1.6610    1.8154   -1.3058 H   0  0  0  0  0  0  0  0  0  0  0  0
   -0.5899    5.2616    0.0771 H   0  0  0  0  0  0  0  0  0  0  0  0
    1.6792    3.9976   -0.0924 H   0  0  0  0  0  0  0  0  0  0  0  0
    0.8341    4.0179    1.4624 H   0  0  0  0  0  0  0  0  0  0  0  0
   -0.1675    0.2813    0.2286 H   0  0  0  0  0  0  0  0  0  0  0  0
   -2.5000    0.7974    1.3293 H   0  0  0  0  0  0  0  0  0  0  0  0
   -2.1060    4.5326    1.6929 H   0  0  0  0  0  0  0  0  0  0  0  0
    0.4814    4.7859   -1.8520 H   0  0  0  0  0  0  0  0  0  0  0  0
    3.8761   -0.3641    1.0809 H   0  0  0  0  0  0  0  0  0  0  0  0
    2.0763    0.6273   -1.0285 H   0  0  0  0  0  0  0  0  0  0  0  0
    3.6770   -1.1499   -1.8904 H   0  0  0  0  0  0  0  0  0  0  0  0
    4.7001   -1.9270   -0.7114 H   0  0  0  0  0  0  0  0  0  0  0  0
   -4.3341   -0.2000    1.4650 H   0  0  0  0  0  0  0  0  0  0  0  0
   -6.4381    0.4708   -0.4824 H   0  0  0  0  0  0  0  0  0  0  0  0
   -6.6099   -0.3826    1.0599 H   0  0  0  0  0  0  0  0  0  0  0  0
    1.2267   -1.4571   -1.8757 H   0  0  0  0  0  0  0  0  0  0  0  0
    3.7448   -3.3897    1.0427 H   0  0  0  0  0  0  0  0  0  0  0  0
   -5.3863   -1.5469   -1.5051 H   0  0  0  0  0  0  0  0  0  0  0  0
   -7.0137   -1.8755   -0.9088 H   0  0  0  0  0  0  0  0  0  0  0  0
    6.8721    1.1717    0.1771 H   0  0  0  0  0  0  0  0  0  0  0  0
    6.0962   -0.0664    1.0973 H   0  0  0  0  0  0  0  0  0  0  0  0
   -0.5970   -2.9154   -1.3069 H   0  0  0  0  0  0  0  0  0  0  0  0
    1.8889   -4.8999    1.6372 H   0  0  0  0  0  0  0  0  0  0  0  0
   -4.4050   -2.6138    0.5277 H   0  0  0  0  0  0  0  0  0  0  0  0
   -6.0359   -2.9046    1.1636 H   0  0  0  0  0  0  0  0  0  0  0  0
   -5.4986   -3.7185   -0.3154 H   0  0  0  0  0  0  0  0  0  0  0  0
   -2.1765   -3.7038    0.0401 H   0  0  0  0  0  0  0  0  0  0  0  0
   -1.6274   -4.8945   -1.2196 H   0  0  0  0  0  0  0  0  0  0  0  0
   -2.4464   -5.4312    0.2439 H   0  0  0  0  0  0  0  0  0  0  0  0
  1 11  1  0  0  0  0
  1 39  1  0  0  0  0
  2 13  1  0  0  0  0
  2 40  1  0  0  0  0
  3 17  2  0  0  0  0
  4 19  2  0  0  0  0
  5 22  2  0  0  0  0
  6 29  1  0  0  0  0
  6 31  1  0  0  0  0
  7 12  1  0  0  0  0
  7 19  1  0  0  0  0
  7 38  1  0  0  0  0
  8 17  1  0  0  0  0
  8 18  1  0  0  0  0
  8 42  1  0  0  0  0
  9 19  1  0  0  0  0
  9 23  1  0  0  0  0
  9 45  1  0  0  0  0
 10 22  1  0  0  0  0
 10 52  1  0  0  0  0
 10 53  1  0  0  0  0
 11 12  1  0  0  0  0
 11 13  1  0  0  0  0
 11 32  1  0  0  0  0
 12 16  1  0  0  0  0
 12 33  1  0  0  0  0
 13 14  1  0  0  0  0
 13 34  1  0  0  0  0
 14 15  1  0  0  0  0
 14 35  1  0  0  0  0
 14 36  1  0  0  0  0
 15 16  2  0  0  0  0
 15 17  1  0  0  0  0
 16 37  1  0  0  0  0
 18 20  1  0  0  0  0
 18 22  1  0  0  0  0
 18 41  1  0  0  0  0
 20 21  1  0  0  0  0
 20 43  1  0  0  0  0
 20 44  1  0  0  0  0
 21 25  2  0  0  0  0
 21 26  1  0  0  0  0
 23 24  1  0  0  0  0
 23 46  1  0  0  0  0
 23 47  1  0  0  0  0
 24 30  1  0  0  0  0
 24 50  1  0  0  0  0
 24 51  1  0  0  0  0
 25 27  1  0  0  0  0
 25 48  1  0  0  0  0
 26 28  2  0  0  0  0
 26 49  1  0  0  0  0
 27 29  2  0  0  0  0
 27 54  1  0  0  0  0
 28 29  1  0  0  0  0
 28 55  1  0  0  0  0
 30 56  1  0  0  0  0
 30 57  1  0  0  0  0
 30 58  1  0  0  0  0
 31 59  1  0  0  0  0
 31 60  1  0  0  0  0
 31 61  1  0  0  0  0
M  END
> <PUBCHEM_COMPOUND_CID>
11865671

> <PUBCHEM_CONFORMER_RMSD>
1.2

> <PUBCHEM_CONFORMER_DIVERSEORDER>
1
70
27
75
64
79
58
80
52
30
56
18
32
19
23
65
13
38
25
69
57
24
26
16
76
77
78
11
40
31
59
12
63
68
34
48
9
62
28
66
67
60
10
15
73
29
74
82
21
85
61
22
43
55
71
50
14
17
5
54
49
20
83
42
6
72
46
84
51
44
8
81
53
7
2
47
86
41
37
35
39
33
4
45
36
3

> <PUBCHEM_MMFF94_PARTIAL_CHARGES>
41
1 -0.68
10 -0.8
11 0.28
12 0.44
13 0.28
14 0.14
15 -0.12
16 -0.29
17 0.62
18 0.36
19 0.69
2 -0.68
20 0.14
21 -0.14
22 0.57
23 0.3
25 -0.15
26 -0.15
27 -0.15
28 -0.15
29 0.08
3 -0.57
31 0.28
37 0.15
38 0.37
39 0.4
4 -0.57
40 0.4
42 0.37
45 0.37
48 0.15
49 0.15
5 -0.57
52 0.37
53 0.37
54 0.15
55 0.15
6 -0.36
7 -0.73
8 -0.73
9 -0.73

> <PUBCHEM_EFFECTIVE_ROTOR_COUNT>
12.8

> <PUBCHEM_PHARMACOPHORE_FEATURES>
15
1 1 acceptor
1 1 donor
1 10 donor
1 2 acceptor
1 2 donor
1 3 acceptor
1 30 hydrophobe
1 4 acceptor
1 5 acceptor
1 6 acceptor
1 7 donor
1 8 donor
1 9 donor
6 11 12 13 14 15 16 rings
6 21 25 26 27 28 29 rings

> <PUBCHEM_HEAVY_ATOM_COUNT>
31

> <PUBCHEM_ATOM_DEF_STEREO_COUNT>
4

> <PUBCHEM_ATOM_UDEF_STEREO_COUNT>
0

> <PUBCHEM_BOND_DEF_STEREO_COUNT>
0

> <PUBCHEM_BOND_UDEF_STEREO_COUNT>
0

> <PUBCHEM_ISOTOPIC_ATOM_COUNT>
0

> <PUBCHEM_COMPONENT_COUNT>
1

> <PUBCHEM_CACTVS_TAUTO_COUNT>
12

> <PUBCHEM_CONFORMER_ID>
00B50E4700000001

> <PUBCHEM_MMFF94_ENERGY>
65.2433

> <PUBCHEM_FEATURE_SELFOVERLAP>
76.183

> <PUBCHEM_SHAPE_FINGERPRINT>
10074138 170 17549211199518427352
10316853 100 18339923847754669859
10864689 126 18340774741248805199
1100329 8 18194965368546117318
12788726 201 17974859668860046846
13383661 66 17702404865567287342
13402501 40 18411422842767901163
13561361 72 18048873293483012539
1361 2 18338516473166470489
144659 178 18193843862617555125
15320467 1 18338799052050567819
16112460 7 17837793470803715531
20028762 73 18129096895781518855
20764821 26 18336558122577296771
21133410 62 18262500564645054351
22393880 68 17908432347075776140
23559900 14 17547281208713625032
325973 47 17979074117803190803
338550 245 18122906692508733823
3737641 26 18269283365370224545
373842 8 17689998260376196195
3882209 13 17397788347810992955
445580 102 18196648489183947487
463206 1 18269555108304567919
5309563 4 18413107239057912805
5895379 119 13153747814062149569
6433294 58 17907017274898820715
86090 222 18272080647325977793

> <PUBCHEM_SHAPE_MULTIPOLES>
582.83
10.97
7.66
1.13
8.72
3.46
0.01
2.63
-1.08
1.18
0.54
-0.34
-0.5
-0.03

> <PUBCHEM_SHAPE_SELFOVERLAP>
1201.637

> <PUBCHEM_SHAPE_VOLUME>
331

> <PUBCHEM_COORDINATE_TYPE>
2
5
10

$$$$
