45361634
  -OEChem-12032416393D

 74 77  0     1  0  0  0  0  0999 V2000
   -0.1321   -2.6745   -1.3133 O   0  0  0  0  0  0  0  0  0  0  0  0
    4.7539   -2.8877    0.8437 O   0  0  0  0  0  0  0  0  0  0  0  0
   -5.1033    2.0604   -1.2502 O   0  0  0  0  0  0  0  0  0  0  0  0
    6.6106    3.7454    0.6016 O   0  0  0  0  0  0  0  0  0  0  0  0
   -4.4982    0.2319    0.0404 N   0  0  0  0  0  0  0  0  0  0  0  0
    4.3106   -1.8775   -1.1965 N   0  0  0  0  0  0  0  0  0  0  0  0
   -9.1269    1.4987   -0.1757 N   0  0  0  0  0  0  0  0  0  0  0  0
   -8.5723   -0.8239    0.1474 N   0  0  0  0  0  0  0  0  0  0  0  0
   -0.3418    0.2230    1.1638 C   0  0  1  0  0  0  0  0  0  0  0  0
   -0.7552   -0.6936   -0.0353 C   0  0  2  0  0  0  0  0  0  0  0  0
   -2.3067   -0.9392   -0.0423 C   0  0  1  0  0  0  0  0  0  0  0  0
    0.1247   -1.9755   -0.0944 C   0  0  2  0  0  0  0  0  0  0  0  0
    1.1705    0.5366    1.0762 C   0  0  0  0  0  0  0  0  0  0  0  0
   -1.1068    1.5628    1.0615 C   0  0  0  0  0  0  0  0  0  0  0  0
    1.6384   -1.6592   -0.0767 C   0  0  1  0  0  0  0  0  0  0  0  0
   -3.0664    0.4170   -0.0695 C   0  0  2  0  0  0  0  0  0  0  0  0
    2.0371   -0.7156    1.0579 C   0  0  0  0  0  0  0  0  0  0  0  0
   -2.6181    1.3865    1.0238 C   0  0  0  0  0  0  0  0  0  0  0  0
   -0.6361   -0.4288    2.5388 C   0  0  0  0  0  0  0  0  0  0  0  0
    2.4856   -2.9354   -0.0034 C   0  0  2  0  0  0  0  0  0  0  0  0
   -2.7870   -1.8113   -1.2147 C   0  0  0  0  0  0  0  0  0  0  0  0
    2.1420   -3.7217    1.2569 C   0  0  0  0  0  0  0  0  0  0  0  0
    3.9681   -2.5787   -0.0495 C   0  0  0  0  0  0  0  0  0  0  0  0
   -5.4036    1.0834   -0.5691 C   0  0  0  0  0  0  0  0  0  0  0  0
   -6.8379    0.7728   -0.3383 C   0  0  0  0  0  0  0  0  0  0  0  0
    5.6570   -1.4282   -1.4648 C   0  0  0  0  0  0  0  0  0  0  0  0
   -7.8162    1.7450   -0.3805 C   0  0  0  0  0  0  0  0  0  0  0  0
   -7.2787   -0.5065   -0.0673 C   0  0  0  0  0  0  0  0  0  0  0  0
    5.9103   -0.0537   -0.9164 C   0  0  0  0  0  0  0  0  0  0  0  0
    5.3862    1.0643   -1.5654 C   0  0  0  0  0  0  0  0  0  0  0  0
    6.6698    0.1051    0.2427 C   0  0  0  0  0  0  0  0  0  0  0  0
   -9.4302    0.2118    0.0794 C   0  0  0  0  0  0  0  0  0  0  0  0
    5.6218    2.3410   -1.0554 C   0  0  0  0  0  0  0  0  0  0  0  0
    6.9055    1.3818    0.7527 C   0  0  0  0  0  0  0  0  0  0  0  0
    6.3815    2.4997    0.1036 C   0  0  0  0  0  0  0  0  0  0  0  0
    6.0442    4.8439   -0.1117 C   0  0  0  0  0  0  0  0  0  0  0  0
   -0.5435   -0.1376   -0.9628 H   0  0  0  0  0  0  0  0  0  0  0  0
   -2.5845   -1.4778    0.8725 H   0  0  0  0  0  0  0  0  0  0  0  0
   -0.1812   -2.6277    0.7253 H   0  0  0  0  0  0  0  0  0  0  0  0
    1.3760    1.1159    0.1658 H   0  0  0  0  0  0  0  0  0  0  0  0
    1.4763    1.1721    1.9173 H   0  0  0  0  0  0  0  0  0  0  0  0
   -0.8437    2.2161    1.9031 H   0  0  0  0  0  0  0  0  0  0  0  0
   -0.7978    2.0953    0.1519 H   0  0  0  0  0  0  0  0  0  0  0  0
    1.8563   -1.1408   -1.0200 H   0  0  0  0  0  0  0  0  0  0  0  0
   -2.8667    0.8945   -1.0388 H   0  0  0  0  0  0  0  0  0  0  0  0
    1.9754   -1.1875    2.0407 H   0  0  0  0  0  0  0  0  0  0  0  0
    3.0775   -0.3890    0.9461 H   0  0  0  0  0  0  0  0  0  0  0  0
   -3.0839    2.3677    0.8642 H   0  0  0  0  0  0  0  0  0  0  0  0
   -2.9825    1.0486    2.0016 H   0  0  0  0  0  0  0  0  0  0  0  0
   -1.7015   -0.6076    2.7043 H   0  0  0  0  0  0  0  0  0  0  0  0
   -0.2916    0.2190    3.3535 H   0  0  0  0  0  0  0  0  0  0  0  0
   -0.1381   -1.3948    2.6597 H   0  0  0  0  0  0  0  0  0  0  0  0
    2.2854   -3.5719   -0.8749 H   0  0  0  0  0  0  0  0  0  0  0  0
   -2.4087   -1.4355   -2.1708 H   0  0  0  0  0  0  0  0  0  0  0  0
   -3.8794   -1.8431   -1.2801 H   0  0  0  0  0  0  0  0  0  0  0  0
   -2.4729   -2.8511   -1.0877 H   0  0  0  0  0  0  0  0  0  0  0  0
   -4.8234   -0.4942    0.6705 H   0  0  0  0  0  0  0  0  0  0  0  0
    0.0835   -2.0815   -2.0532 H   0  0  0  0  0  0  0  0  0  0  0  0
    1.1152   -4.0938    1.2651 H   0  0  0  0  0  0  0  0  0  0  0  0
    2.7746   -4.6181    1.3030 H   0  0  0  0  0  0  0  0  0  0  0  0
    2.3343   -3.1838    2.1880 H   0  0  0  0  0  0  0  0  0  0  0  0
    3.6128   -1.7068   -1.9134 H   0  0  0  0  0  0  0  0  0  0  0  0
    5.7970   -1.4285   -2.5519 H   0  0  0  0  0  0  0  0  0  0  0  0
    6.3686   -2.1524   -1.0513 H   0  0  0  0  0  0  0  0  0  0  0  0
   -7.5797    2.7850   -0.5820 H   0  0  0  0  0  0  0  0  0  0  0  0
   -6.6109   -1.3607   -0.0310 H   0  0  0  0  0  0  0  0  0  0  0  0
    4.7922    0.9514   -2.4686 H   0  0  0  0  0  0  0  0  0  0  0  0
    7.0826   -0.7571    0.7596 H   0  0  0  0  0  0  0  0  0  0  0  0
  -10.4760   -0.0145    0.2479 H   0  0  0  0  0  0  0  0  0  0  0  0
    5.1847    3.1650   -1.6090 H   0  0  0  0  0  0  0  0  0  0  0  0
    7.4974    1.4992    1.6564 H   0  0  0  0  0  0  0  0  0  0  0  0
    6.3257    5.7565    0.4239 H   0  0  0  0  0  0  0  0  0  0  0  0
    4.9498    4.8001   -0.1151 H   0  0  0  0  0  0  0  0  0  0  0  0
    6.4598    4.9250   -1.1218 H   0  0  0  0  0  0  0  0  0  0  0  0
  1 12  1  0  0  0  0
  1 58  1  0  0  0  0
  2 23  2  0  0  0  0
  3 24  2  0  0  0  0
  4 35  1  0  0  0  0
  4 36  1  0  0  0  0
  5 16  1  0  0  0  0
  5 24  1  0  0  0  0
  5 57  1  0  0  0  0
  6 23  1  0  0  0  0
  6 26  1  0  0  0  0
  6 62  1  0  0  0  0
  7 27  2  0  0  0  0
  7 32  1  0  0  0  0
  8 28  1  0  0  0  0
  8 32  2  0  0  0  0
  9 10  1  0  0  0  0
  9 13  1  0  0  0  0
  9 14  1  0  0  0  0
  9 19  1  0  0  0  0
 10 11  1  0  0  0  0
 10 12  1  0  0  0  0
 10 37  1  0  0  0  0
 11 16  1  0  0  0  0
 11 21  1  0  0  0  0
 11 38  1  0  0  0  0
 12 15  1  0  0  0  0
 12 39  1  0  0  0  0
 13 17  1  0  0  0  0
 13 40  1  0  0  0  0
 13 41  1  0  0  0  0
 14 18  1  0  0  0  0
 14 42  1  0  0  0  0
 14 43  1  0  0  0  0
 15 17  1  0  0  0  0
 15 20  1  0  0  0  0
 15 44  1  0  0  0  0
 16 18  1  0  0  0  0
 16 45  1  0  0  0  0
 17 46  1  0  0  0  0
 17 47  1  0  0  0  0
 18 48  1  0  0  0  0
 18 49  1  0  0  0  0
 19 50  1  0  0  0  0
 19 51  1  0  0  0  0
 19 52  1  0  0  0  0
 20 22  1  0  0  0  0
 20 23  1  0  0  0  0
 20 53  1  0  0  0  0
 21 54  1  0  0  0  0
 21 55  1  0  0  0  0
 21 56  1  0  0  0  0
 22 59  1  0  0  0  0
 22 60  1  0  0  0  0
 22 61  1  0  0  0  0
 24 25  1  0  0  0  0
 25 27  1  0  0  0  0
 25 28  2  0  0  0  0
 26 29  1  0  0  0  0
 26 63  1  0  0  0  0
 26 64  1  0  0  0  0
 27 65  1  0  0  0  0
 28 66  1  0  0  0  0
 29 30  2  0  0  0  0
 29 31  1  0  0  0  0
 30 33  1  0  0  0  0
 30 67  1  0  0  0  0
 31 34  2  0  0  0  0
 31 68  1  0  0  0  0
 32 69  1  0  0  0  0
 33 35  2  0  0  0  0
 33 70  1  0  0  0  0
 34 35  1  0  0  0  0
 34 71  1  0  0  0  0
 36 72  1  0  0  0  0
 36 73  1  0  0  0  0
 36 74  1  0  0  0  0
M  END
> <PUBCHEM_COMPOUND_CID>
45361634

> <PUBCHEM_CONFORMER_RMSD>
1.2

> <PUBCHEM_CONFORMER_DIVERSEORDER>
1
104
101
97
2
69
92
62
70
30
106
45
86
94
107
99
111
93
109
72
46
60
31
54
17
100
19
49
25
24
87
63
42
33
95
13
34
113
90
98
53
61
3
32
74
5
18
79
28
110
76
36
55
88
58
56
23
22
84
4
91
112
43
35
96
65
71
16
39
40
81
48
82
80
83
8
73
50
44
67
64
26
105
20
10
85
27
68
89
21
78
6
51
29
41
14
15
52
12
75
59
11
9
7
38
47
57
77
66
103
102
108
37

> <PUBCHEM_MMFF94_PARTIAL_CHARGES>
35
1 -0.68
12 0.28
16 0.3
2 -0.57
20 0.06
23 0.57
24 0.54
25 0.09
26 0.44
27 0.16
28 0.16
29 -0.14
3 -0.57
30 -0.15
31 -0.15
32 0.47
33 -0.15
34 -0.15
35 0.08
36 0.28
4 -0.36
5 -0.73
57 0.37
58 0.4
6 -0.73
62 0.37
65 0.15
66 0.15
67 0.15
68 0.15
69 0.15
7 -0.62
70 0.15
71 0.15
8 -0.62

> <PUBCHEM_EFFECTIVE_ROTOR_COUNT>
10.6

> <PUBCHEM_PHARMACOPHORE_FEATURES>
14
1 1 acceptor
1 1 donor
1 2 acceptor
1 22 hydrophobe
1 3 acceptor
1 4 acceptor
1 5 donor
1 6 donor
1 7 acceptor
3 7 8 32 cation
6 29 30 31 33 34 35 rings
6 7 8 25 27 28 32 rings
6 9 10 11 14 16 18 rings
6 9 10 12 13 15 17 rings

> <PUBCHEM_HEAVY_ATOM_COUNT>
36

> <PUBCHEM_ATOM_DEF_STEREO_COUNT>
6

> <PUBCHEM_ATOM_UDEF_STEREO_COUNT>
1

> <PUBCHEM_BOND_DEF_STEREO_COUNT>
0

> <PUBCHEM_BOND_UDEF_STEREO_COUNT>
0

> <PUBCHEM_ISOTOPIC_ATOM_COUNT>
0

> <PUBCHEM_COMPONENT_COUNT>
1

> <PUBCHEM_CACTVS_TAUTO_COUNT>
4

> <PUBCHEM_CONFORMER_ID>
02B429E200000001

> <PUBCHEM_MMFF94_ENERGY>
113.988

> <PUBCHEM_FEATURE_SELFOVERLAP>
71.062

> <PUBCHEM_SHAPE_FINGERPRINT>
10533779 47 10231755630817099933
10673678 19 18412548704009365606
10816530 90 18343293786780543736
11007060 377 18261120647523548393
11135609 127 18341888650002712704
11135609 187 18198341952208495488
11211813 74 18410291389769174669
11693224 71 18128242584195893944
12047536 79 11314306153014452558
12522641 24 17458898254983915962
13165053 371 18335422331435274173
13165053 68 18191872434544288855
13617811 41 18343016696971327840
13782708 43 11815894544032025681
13947947 19 17846488254511794615
14117953 113 18412832404839756988
14675020 138 15357698565306860074
15082195 135 18341898455180375994
15361156 5 18413385441918663479
15840311 113 18409732846193295078
15890870 6 18409171048182866372
16728300 4 10737547445817748456
16992787 43 18343586256921277417
17686467 74 18113059347066069573
19053607 189 17982161529897025080
19302320 297 18261668264555239084
19319366 153 18410851019454835430
20715895 44 18410291450425652716
21049683 118 17676485077871119458
21049683 271 18343581841958758353
21521721 280 18410860932518325707
21781055 127 15554182415374133795
23522609 53 17559697078313184625
23569914 2 17027078269482591372
34797466 226 18131074796729787726
3534868 343 17488473962309115150
3552219 110 17846226531926472841
4073 2 18260550026928094859
4098825 35 18261673667486453861
4112364 45 18187351156931280512
4149490 64 18186801357403601938
439807 62 13039192485904875868
44317340 157 18412265030278515702
4625314 4 18337956684372808703
5109719 28 18335709372530734144
5265222 85 18413670219445935735
57634706 280 18040998461928074802
9831232 110 11455890247953277740
9849439 229 18261958552788341644

> <PUBCHEM_SHAPE_MULTIPOLES>
697.46
25.87
4.15
1.4
40.94
1.37
-0.29
18.51
5.27
-9.63
-0.06
-0.94
-0.24
0.3

> <PUBCHEM_SHAPE_SELFOVERLAP>
1474.994

> <PUBCHEM_SHAPE_VOLUME>
384.8

> <PUBCHEM_COORDINATE_TYPE>
2
5
10

$$$$
