7164827
  -OEChem-12032416133D

 68 69  0     1  0  0  0  0  0999 V2000
   -1.4955    0.6079   -1.7461 O   0  0  0  0  0  0  0  0  0  0  0  0
   -2.2164    3.4573    0.5554 O   0  0  0  0  0  0  0  0  0  0  0  0
   -3.6973   -3.5553    0.3705 O   0  0  0  0  0  0  0  0  0  0  0  0
   -4.2724    4.6315   -0.3292 O   0  0  0  0  0  0  0  0  0  0  0  0
    2.7721   -2.1592   -2.1977 O   0  0  0  0  0  0  0  0  0  0  0  0
    1.9804   -2.2618   -0.0411 O   0  0  0  0  0  0  0  0  0  0  0  0
    5.6100    2.6152    1.9810 O   0  0  0  0  0  0  0  0  0  0  0  0
   -2.9922    1.2836    0.2583 N   0  0  0  0  0  0  0  0  0  0  0  0
   -2.8847   -1.4747    0.9936 N   0  0  0  0  0  0  0  0  0  0  0  0
    0.2785   -0.1334   -0.4338 N   0  0  0  0  0  0  0  0  0  0  0  0
   -1.4975   -3.3901    0.9959 N   0  0  0  0  0  0  0  0  0  0  0  0
   -1.7052    0.6865    0.6330 C   0  0  1  0  0  0  0  0  0  0  0  0
   -1.8389   -0.5715    1.4950 C   0  0  0  0  0  0  0  0  0  0  0  0
   -4.0395    0.3495   -0.1832 C   0  0  0  0  0  0  0  0  0  0  0  0
   -4.1765   -0.8260    0.7736 C   0  0  0  0  0  0  0  0  0  0  0  0
   -0.9811    0.3983   -0.6506 C   0  0  0  0  0  0  0  0  0  0  0  0
   -3.0969    2.6767    0.1841 C   0  0  0  0  0  0  0  0  0  0  0  0
   -2.7573   -2.8537    0.7591 C   0  0  0  0  0  0  0  0  0  0  0  0
    1.1692   -0.5184   -1.5046 C   0  0  1  0  0  0  0  0  0  0  0  0
   -4.3788    3.2298   -0.3863 C   0  0  0  0  0  0  0  0  0  0  0  0
    2.0409    0.6621   -1.9577 C   0  0  0  0  0  0  0  0  0  0  0  0
   -1.2112   -4.7941    0.8029 C   0  0  0  0  0  0  0  0  0  0  0  0
    2.0044   -1.7423   -1.1522 C   0  0  0  0  0  0  0  0  0  0  0  0
    2.9937    1.1841   -0.9061 C   0  0  0  0  0  0  0  0  0  0  0  0
   -0.7820   -5.0596   -0.6347 C   0  0  0  0  0  0  0  0  0  0  0  0
   -0.1489   -5.2585    1.7907 C   0  0  0  0  0  0  0  0  0  0  0  0
    4.2792    0.6524   -0.8049 C   0  0  0  0  0  0  0  0  0  0  0  0
    2.5875    2.1967   -0.0370 C   0  0  0  0  0  0  0  0  0  0  0  0
   -5.4342    5.2788   -0.8452 C   0  0  0  0  0  0  0  0  0  0  0  0
    5.1586    1.1334    0.1650 C   0  0  0  0  0  0  0  0  0  0  0  0
    3.4667    2.6777    0.9330 C   0  0  0  0  0  0  0  0  0  0  0  0
    4.7524    2.1461    1.0340 C   0  0  0  0  0  0  0  0  0  0  0  0
    3.6037   -3.2958   -1.9435 C   0  0  0  0  0  0  0  0  0  0  0  0
    6.9091    2.0272    2.0289 C   0  0  0  0  0  0  0  0  0  0  0  0
   -1.1052    1.4248    1.1793 H   0  0  0  0  0  0  0  0  0  0  0  0
   -2.1822   -0.2671    2.4931 H   0  0  0  0  0  0  0  0  0  0  0  0
   -0.8846   -1.0653    1.6610 H   0  0  0  0  0  0  0  0  0  0  0  0
   -5.0075    0.8466   -0.2686 H   0  0  0  0  0  0  0  0  0  0  0  0
   -3.7797   -0.0069   -1.1853 H   0  0  0  0  0  0  0  0  0  0  0  0
   -4.9150   -1.5340    0.3854 H   0  0  0  0  0  0  0  0  0  0  0  0
   -4.5348   -0.4823    1.7515 H   0  0  0  0  0  0  0  0  0  0  0  0
    0.6358   -0.2038    0.5140 H   0  0  0  0  0  0  0  0  0  0  0  0
    0.5366   -0.8214   -2.3494 H   0  0  0  0  0  0  0  0  0  0  0  0
   -5.2237    2.9070    0.2298 H   0  0  0  0  0  0  0  0  0  0  0  0
   -4.4936    2.8953   -1.4224 H   0  0  0  0  0  0  0  0  0  0  0  0
   -0.7001   -2.7928    1.1634 H   0  0  0  0  0  0  0  0  0  0  0  0
    2.6214    0.3803   -2.8464 H   0  0  0  0  0  0  0  0  0  0  0  0
    1.3972    1.4887   -2.2884 H   0  0  0  0  0  0  0  0  0  0  0  0
   -2.1281   -5.3636    0.9974 H   0  0  0  0  0  0  0  0  0  0  0  0
   -0.5828   -6.1245   -0.7935 H   0  0  0  0  0  0  0  0  0  0  0  0
   -1.5620   -4.7534   -1.3403 H   0  0  0  0  0  0  0  0  0  0  0  0
    0.1262   -4.5013   -0.8874 H   0  0  0  0  0  0  0  0  0  0  0  0
    0.7938   -4.7191    1.6446 H   0  0  0  0  0  0  0  0  0  0  0  0
    0.0502   -6.3292    1.6778 H   0  0  0  0  0  0  0  0  0  0  0  0
   -0.4735   -5.0807    2.8218 H   0  0  0  0  0  0  0  0  0  0  0  0
    4.6126   -0.1314   -1.4794 H   0  0  0  0  0  0  0  0  0  0  0  0
    1.5890    2.6205   -0.1054 H   0  0  0  0  0  0  0  0  0  0  0  0
   -6.3155    5.0050   -0.2573 H   0  0  0  0  0  0  0  0  0  0  0  0
   -5.5827    5.0132   -1.8963 H   0  0  0  0  0  0  0  0  0  0  0  0
   -5.2852    6.3593   -0.7731 H   0  0  0  0  0  0  0  0  0  0  0  0
    6.1424    0.6770    0.1871 H   0  0  0  0  0  0  0  0  0  0  0  0
    3.1445    3.4666    1.6072 H   0  0  0  0  0  0  0  0  0  0  0  0
    4.1591   -3.5218   -2.8576 H   0  0  0  0  0  0  0  0  0  0  0  0
    2.9900   -4.1630   -1.6816 H   0  0  0  0  0  0  0  0  0  0  0  0
    4.3176   -3.0712   -1.1454 H   0  0  0  0  0  0  0  0  0  0  0  0
    7.4569    2.5191    2.8394 H   0  0  0  0  0  0  0  0  0  0  0  0
    7.4691    2.2126    1.1060 H   0  0  0  0  0  0  0  0  0  0  0  0
    6.8596    0.9616    2.2774 H   0  0  0  0  0  0  0  0  0  0  0  0
  1 16  2  0  0  0  0
  2 17  2  0  0  0  0
  3 18  2  0  0  0  0
  4 20  1  0  0  0  0
  4 29  1  0  0  0  0
  5 23  1  0  0  0  0
  5 33  1  0  0  0  0
  6 23  2  0  0  0  0
  7 32  1  0  0  0  0
  7 34  1  0  0  0  0
  8 12  1  0  0  0  0
  8 14  1  0  0  0  0
  8 17  1  0  0  0  0
  9 13  1  0  0  0  0
  9 15  1  0  0  0  0
  9 18  1  0  0  0  0
 10 16  1  0  0  0  0
 10 19  1  0  0  0  0
 10 42  1  0  0  0  0
 11 18  1  0  0  0  0
 11 22  1  0  0  0  0
 11 46  1  0  0  0  0
 12 13  1  0  0  0  0
 12 16  1  0  0  0  0
 12 35  1  0  0  0  0
 13 36  1  0  0  0  0
 13 37  1  0  0  0  0
 14 15  1  0  0  0  0
 14 38  1  0  0  0  0
 14 39  1  0  0  0  0
 15 40  1  0  0  0  0
 15 41  1  0  0  0  0
 17 20  1  0  0  0  0
 19 21  1  0  0  0  0
 19 23  1  0  0  0  0
 19 43  1  0  0  0  0
 20 44  1  0  0  0  0
 20 45  1  0  0  0  0
 21 24  1  0  0  0  0
 21 47  1  0  0  0  0
 21 48  1  0  0  0  0
 22 25  1  0  0  0  0
 22 26  1  0  0  0  0
 22 49  1  0  0  0  0
 24 27  2  0  0  0  0
 24 28  1  0  0  0  0
 25 50  1  0  0  0  0
 25 51  1  0  0  0  0
 25 52  1  0  0  0  0
 26 53  1  0  0  0  0
 26 54  1  0  0  0  0
 26 55  1  0  0  0  0
 27 30  1  0  0  0  0
 27 56  1  0  0  0  0
 28 31  2  0  0  0  0
 28 57  1  0  0  0  0
 29 58  1  0  0  0  0
 29 59  1  0  0  0  0
 29 60  1  0  0  0  0
 30 32  2  0  0  0  0
 30 61  1  0  0  0  0
 31 32  1  0  0  0  0
 31 62  1  0  0  0  0
 33 63  1  0  0  0  0
 33 64  1  0  0  0  0
 33 65  1  0  0  0  0
 34 66  1  0  0  0  0
 34 67  1  0  0  0  0
 34 68  1  0  0  0  0
M  END
> <PUBCHEM_COMPOUND_CID>
7164827

> <PUBCHEM_CONFORMER_RMSD>
1.2

> <PUBCHEM_CONFORMER_DIVERSEORDER>
1
52
46
42
48
35
16
59
69
66
26
13
45
10
12
43
63
8
60
56
58
4
40
32
53
47
64
57
51
22
55
65
21
7
41
6
20
5
54
44
29
62
31
3
49
38
15
68
14
18
50
67
39
34
27
2
28
61
19
11
37
17
36
25
30
33
9
24
23

> <PUBCHEM_MMFF94_PARTIAL_CHARGES>
38
1 -0.57
10 -0.73
11 -0.73
12 0.36
13 0.3
14 0.3
15 0.3
16 0.57
17 0.57
18 0.69
19 0.36
2 -0.57
20 0.34
21 0.14
22 0.3
23 0.66
24 -0.14
27 -0.15
28 -0.15
29 0.28
3 -0.57
30 -0.15
31 -0.15
32 0.08
33 0.28
34 0.28
4 -0.56
42 0.37
46 0.37
5 -0.43
56 0.15
57 0.15
6 -0.57
61 0.15
62 0.15
7 -0.36
8 -0.66
9 -0.66

> <PUBCHEM_EFFECTIVE_ROTOR_COUNT>
15.2

> <PUBCHEM_PHARMACOPHORE_FEATURES>
11
1 1 acceptor
1 10 donor
1 11 donor
1 2 acceptor
1 3 acceptor
1 4 acceptor
1 6 acceptor
1 7 acceptor
3 22 25 26 hydrophobe
6 24 27 28 30 31 32 rings
6 8 9 12 13 14 15 rings

> <PUBCHEM_HEAVY_ATOM_COUNT>
34

> <PUBCHEM_ATOM_DEF_STEREO_COUNT>
2

> <PUBCHEM_ATOM_UDEF_STEREO_COUNT>
0

> <PUBCHEM_BOND_DEF_STEREO_COUNT>
0

> <PUBCHEM_BOND_UDEF_STEREO_COUNT>
0

> <PUBCHEM_ISOTOPIC_ATOM_COUNT>
0

> <PUBCHEM_COMPONENT_COUNT>
1

> <PUBCHEM_CACTVS_TAUTO_COUNT>
4

> <PUBCHEM_CONFORMER_ID>
006D539B00000001

> <PUBCHEM_MMFF94_ENERGY>
88.4914

> <PUBCHEM_FEATURE_SELFOVERLAP>
55.841

> <PUBCHEM_SHAPE_FINGERPRINT>
10256941 240 18262498377673120292
10319688 77 17548403165260488247
10319926 262 18411701032716726448
10439779 11 17543909010160336273
10675989 125 17981041912377245593
12522641 24 17617668653358964945
12788726 201 17826813708405978787
13583140 156 18202294597208864940
14081887 123 18267036126727561071
14178342 30 18334582385886057996
14725015 67 18191612846252076027
14784336 7 17620190932536483169
15351339 4 16892594549941901374
17980427 26 17978489971985580933
21033648 29 18336272240732473317
21304303 282 18335964425385292741
23559900 14 18338253577833069772
4403749 210 18128238164769654328
469060 322 17556573580105135215
5265222 85 17683288773359666622
6004065 56 17762334713259314503
6371380 46 18121504553274671510
6669772 16 18267296531112130321
9981440 41 18130492128802783080

> <PUBCHEM_SHAPE_MULTIPOLES>
638.69
11.8
7.89
1.83
10.04
4.83
0.17
-14.82
-3.68
-9.05
-1.13
2.28
0.68
4.85

> <PUBCHEM_SHAPE_SELFOVERLAP>
1305.27

> <PUBCHEM_SHAPE_VOLUME>
367.6

> <PUBCHEM_COORDINATE_TYPE>
2
5
10

$$$$
