26744820
  -OEChem-12032416403D

 51 55  0     1  0  0  0  0  0999 V2000
   -8.3498    0.1307   -0.8825 F   0  0  0  0  0  0  0  0  0  0  0  0
   -6.6070    1.3995   -1.2407 F   0  0  0  0  0  0  0  0  0  0  0  0
   -6.8110   -0.5392   -2.2821 F   0  0  0  0  0  0  0  0  0  0  0  0
    0.4732    1.8847    2.3928 O   0  0  0  0  0  0  0  0  0  0  0  0
   -6.3638   -0.5312   -0.0390 O   0  0  0  0  0  0  0  0  0  0  0  0
    2.9923    0.4622    0.3608 N   0  0  1  0  0  0  0  0  0  0  0  0
    5.6904    2.2460   -1.5380 N   0  0  0  0  0  0  0  0  0  0  0  0
    4.1424    3.8283   -1.8517 N   0  0  0  0  0  0  0  0  0  0  0  0
   -0.1706    1.0514    0.4159 N   0  0  0  0  0  0  0  0  0  0  0  0
   -0.8949    1.6094    2.5131 N   0  0  0  0  0  0  0  0  0  0  0  0
    0.2149   -4.9614   -1.6444 N   0  0  0  0  0  0  0  0  0  0  0  0
    2.2803    1.7309    0.7402 C   0  0  1  0  0  0  0  0  0  0  0  0
    2.3294    2.8102   -0.3990 C   0  0  0  0  0  0  0  0  0  0  0  0
    4.4358    0.6922    0.0615 C   0  0  0  0  0  0  0  0  0  0  0  0
    4.6027    1.8740   -0.8082 C   0  0  0  0  0  0  0  0  0  0  0  0
    3.6728    2.8601   -1.0104 C   0  0  0  0  0  0  0  0  0  0  0  0
    2.9010   -0.5644    1.4078 C   0  0  0  0  0  0  0  0  0  0  0  0
    0.8191    1.5277    1.1283 C   0  0  0  0  0  0  0  0  0  0  0  0
    3.0643   -1.9524    0.8477 C   0  0  0  0  0  0  0  0  0  0  0  0
    5.3639    3.4310   -2.1502 C   0  0  0  0  0  0  0  0  0  0  0  0
    2.0133   -2.5543    0.1558 C   0  0  0  0  0  0  0  0  0  0  0  0
    4.2685   -2.6351    1.0187 C   0  0  0  0  0  0  0  0  0  0  0  0
   -1.2012    1.1210    1.3075 C   0  0  0  0  0  0  0  0  0  0  0  0
    2.1666   -3.8393   -0.3650 C   0  0  0  0  0  0  0  0  0  0  0  0
    4.4217   -3.9201    0.4980 C   0  0  0  0  0  0  0  0  0  0  0  0
   -2.5267    0.6955    0.9614 C   0  0  0  0  0  0  0  0  0  0  0  0
    3.3709   -4.5222   -0.1939 C   0  0  0  0  0  0  0  0  0  0  0  0
   -2.7884    0.1950   -0.3140 C   0  0  0  0  0  0  0  0  0  0  0  0
   -3.5543    0.7836    1.9004 C   0  0  0  0  0  0  0  0  0  0  0  0
   -4.0777   -0.2172   -0.6505 C   0  0  0  0  0  0  0  0  0  0  0  0
   -4.8437    0.3715    1.5640 C   0  0  0  0  0  0  0  0  0  0  0  0
    1.0896   -4.4585   -1.0709 C   0  0  0  0  0  0  0  0  0  0  0  0
   -5.1053   -0.1288    0.2886 C   0  0  0  0  0  0  0  0  0  0  0  0
   -7.0188    0.1193   -1.1221 C   0  0  0  0  0  0  0  0  0  0  0  0
    2.7989    2.1490    1.6165 H   0  0  0  0  0  0  0  0  0  0  0  0
    2.0605    3.7919    0.0085 H   0  0  0  0  0  0  0  0  0  0  0  0
    1.6007    2.5704   -1.1840 H   0  0  0  0  0  0  0  0  0  0  0  0
    4.8552   -0.1832   -0.4467 H   0  0  0  0  0  0  0  0  0  0  0  0
    5.0065    0.8618    0.9837 H   0  0  0  0  0  0  0  0  0  0  0  0
    1.9201   -0.5642    1.8983 H   0  0  0  0  0  0  0  0  0  0  0  0
    3.6110   -0.3800    2.2257 H   0  0  0  0  0  0  0  0  0  0  0  0
    6.5702    1.7527   -1.6142 H   0  0  0  0  0  0  0  0  0  0  0  0
    6.0589    3.9476   -2.7968 H   0  0  0  0  0  0  0  0  0  0  0  0
    1.0748   -2.0192    0.0240 H   0  0  0  0  0  0  0  0  0  0  0  0
    5.0957   -2.1775    1.5549 H   0  0  0  0  0  0  0  0  0  0  0  0
    5.3595   -4.4515    0.6312 H   0  0  0  0  0  0  0  0  0  0  0  0
    3.5056   -5.5245   -0.5935 H   0  0  0  0  0  0  0  0  0  0  0  0
   -2.0085    0.1121   -1.0669 H   0  0  0  0  0  0  0  0  0  0  0  0
   -3.3886    1.1683    2.9036 H   0  0  0  0  0  0  0  0  0  0  0  0
   -4.2665   -0.6116   -1.6451 H   0  0  0  0  0  0  0  0  0  0  0  0
   -5.6406    0.4426    2.2993 H   0  0  0  0  0  0  0  0  0  0  0  0
  1 34  1  0  0  0  0
  2 34  1  0  0  0  0
  3 34  1  0  0  0  0
  4 10  1  0  0  0  0
  4 18  1  0  0  0  0
  5 33  1  0  0  0  0
  5 34  1  0  0  0  0
  6 12  1  0  0  0  0
  6 14  1  0  0  0  0
  6 17  1  0  0  0  0
  7 15  1  0  0  0  0
  7 20  1  0  0  0  0
  7 42  1  0  0  0  0
  8 16  1  0  0  0  0
  8 20  2  0  0  0  0
  9 18  2  0  0  0  0
  9 23  1  0  0  0  0
 10 23  2  0  0  0  0
 11 32  3  0  0  0  0
 12 13  1  0  0  0  0
 12 18  1  0  0  0  0
 12 35  1  0  0  0  0
 13 16  1  0  0  0  0
 13 36  1  0  0  0  0
 13 37  1  0  0  0  0
 14 15  1  0  0  0  0
 14 38  1  0  0  0  0
 14 39  1  0  0  0  0
 15 16  2  0  0  0  0
 17 19  1  0  0  0  0
 17 40  1  0  0  0  0
 17 41  1  0  0  0  0
 19 21  1  0  0  0  0
 19 22  2  0  0  0  0
 20 43  1  0  0  0  0
 21 24  2  0  0  0  0
 21 44  1  0  0  0  0
 22 25  1  0  0  0  0
 22 45  1  0  0  0  0
 23 26  1  0  0  0  0
 24 27  1  0  0  0  0
 24 32  1  0  0  0  0
 25 27  2  0  0  0  0
 25 46  1  0  0  0  0
 26 28  2  0  0  0  0
 26 29  1  0  0  0  0
 27 47  1  0  0  0  0
 28 30  1  0  0  0  0
 28 48  1  0  0  0  0
 29 31  2  0  0  0  0
 29 49  1  0  0  0  0
 30 33  2  0  0  0  0
 30 50  1  0  0  0  0
 31 33  1  0  0  0  0
 31 51  1  0  0  0  0
M  END
> <PUBCHEM_COMPOUND_CID>
26744820

> <PUBCHEM_CONFORMER_RMSD>
1

> <PUBCHEM_CONFORMER_DIVERSEORDER>
1
28
100
76
118
102
120
96
103
127
68
101
143
79
124
130
133
52
90
93
86
98
67
29
33
95
31
7
107
110
4
61
135
62
19
40
91
106
35
36
60
128
109
82
116
55
85
111
141
136
71
63
27
57
13
39
80
134
78
138
115
81
119
108
77
25
94
6
58
21
89
84
145
54
45
97
117
20
105
87
114
17
73
53
56
121
51
69
41
132
42
59
38
144
126
129
12
123
14
142
47
50
16
32
83
2
37
23
75
44
74
122
66
46
99
92
104
147
8
64
15
22
131
11
70
72
24
9
139
113
65
137
34
26
30
18
48
140
112
10
146
5
125
43
88
3
49

> <PUBCHEM_MMFF94_PARTIAL_CHARGES>
44
1 -0.34
10 -0.41
11 -0.56
12 0.45
13 0.18
14 0.45
15 -0.33
16 0.05
17 0.41
18 0.3
19 -0.14
2 -0.34
20 0.04
21 -0.15
22 -0.15
23 0.46
24 0.07
25 -0.15
26 0.05
27 -0.15
28 -0.15
29 -0.15
3 -0.34
30 -0.15
31 -0.15
32 0.48
33 0.08
34 1.3
4 -0.02
42 0.27
43 0.15
44 0.15
45 0.15
46 0.15
47 0.15
48 0.15
49 0.15
5 -0.36
50 0.15
51 0.15
6 -0.81
7 0.03
8 -0.57
9 -0.57

> <PUBCHEM_EFFECTIVE_ROTOR_COUNT>
6.8

> <PUBCHEM_PHARMACOPHORE_FEATURES>
11
1 11 acceptor
1 5 acceptor
1 6 cation
1 7 donor
3 7 8 20 cation
3 9 10 23 cation
5 4 9 10 18 23 rings
5 7 8 15 16 20 rings
6 19 21 22 24 25 27 rings
6 26 28 29 30 31 33 rings
6 6 12 13 14 15 16 rings

> <PUBCHEM_HEAVY_ATOM_COUNT>
34

> <PUBCHEM_ATOM_DEF_STEREO_COUNT>
1

> <PUBCHEM_ATOM_UDEF_STEREO_COUNT>
0

> <PUBCHEM_BOND_DEF_STEREO_COUNT>
0

> <PUBCHEM_BOND_UDEF_STEREO_COUNT>
0

> <PUBCHEM_ISOTOPIC_ATOM_COUNT>
0

> <PUBCHEM_COMPONENT_COUNT>
1

> <PUBCHEM_CACTVS_TAUTO_COUNT>
2

> <PUBCHEM_CONFORMER_ID>
019817F400000001

> <PUBCHEM_MMFF94_ENERGY>
79.6462

> <PUBCHEM_FEATURE_SELFOVERLAP>
55.922

> <PUBCHEM_SHAPE_FINGERPRINT>
10010297 198 17695393275441995241
10622 236 18197777687372453147
11069576 57 18270963444833547118
11135926 11 18337407018446882800
11181472 205 18337678521475441441
13150687 139 18338534035989539420
13540713 5 18057057821489818273
13636023 51 18113335314745083551
13911987 19 18046088174721868980
13968360 50 18335424603872906120
14675020 138 18270666693180722976
15082195 135 18334570235645915993
15250474 111 18201436952791499347
15264996 154 18060141990181704471
15264996 19 18053383489831854455
15484559 13 18113903788659014984
15705408 1 18048062704526207236
16989378 47 18056501477522892510
16989713 51 17258222870379752622
17138139 8 17916302934342662830
19304671 126 17604139355904782581
19319366 153 18271523195363146662
20587220 46 17560793334171821799
21033648 29 14490470945658961536
21304303 94 18200887252949193478
23522609 53 18129123185677810441
34797466 226 17749384876261679257
4093350 32 18040996258926628853
46194498 28 18114736053888028693
474144 1 18272370854082211014
5223283 242 17532934892226008589
57035037 87 15068634769218624646
59682541 52 18335127692715415261
6058803 2 17983880903277335928
6677587 24 17825641577419026188

> <PUBCHEM_SHAPE_MULTIPOLES>
636.26
16.47
6.03
2.02
35.28
7.03
0.11
-4.47
-8.69
-13.52
-3.17
0.79
-1.04
-3.63

> <PUBCHEM_SHAPE_SELFOVERLAP>
1406.626

> <PUBCHEM_SHAPE_VOLUME>
343.2

> <PUBCHEM_COORDINATE_TYPE>
2
5
10

$$$$
