75536611
  -OEChem-12032416303D

 40 42  0     1  0  0  0  0  0999 V2000
   -6.2695   -1.7845   -0.1175 S   0  0  0  0  0  0  0  0  0  0  0  0
    6.3984    0.5340   -0.9822 S   0  0  0  0  0  0  0  0  0  0  0  0
    0.3647   -0.9680    0.2019 O   0  0  0  0  0  0  0  0  0  0  0  0
   -0.7891    2.4128   -0.1778 O   0  0  0  0  0  0  0  0  0  0  0  0
    3.8092    1.8214   -0.3990 O   0  0  0  0  0  0  0  0  0  0  0  0
   -3.0589    0.2556    0.0883 N   0  0  0  0  0  0  0  0  0  0  0  0
    2.8966    0.1712    0.9527 N   0  0  0  0  0  0  0  0  0  0  0  0
   -1.6693    0.1403   -0.3234 C   0  0  1  0  0  0  0  0  0  0  0  0
   -0.7427    1.1141    0.3807 C   0  0  1  0  0  0  0  0  0  0  0  0
    0.6080    0.4478    0.1567 C   0  0  1  0  0  0  0  0  0  0  0  0
   -1.0484   -1.1939    0.0566 C   0  0  0  0  0  0  0  0  0  0  0  0
    1.6437    0.8243    1.2012 C   0  0  0  0  0  0  0  0  0  0  0  0
   -3.9409   -0.4449   -0.8377 C   0  0  0  0  0  0  0  0  0  0  0  0
   -5.3836   -0.3502   -0.4178 C   0  0  0  0  0  0  0  0  0  0  0  0
    3.8941    0.7312    0.1602 C   0  0  0  0  0  0  0  0  0  0  0  0
   -6.1485    0.7794   -0.2268 C   0  0  0  0  0  0  0  0  0  0  0  0
    5.1231   -0.0836   -0.0208 C   0  0  0  0  0  0  0  0  0  0  0  0
   -7.4794    0.4633    0.1716 C   0  0  0  0  0  0  0  0  0  0  0  0
   -7.6811   -0.8959    0.2698 C   0  0  0  0  0  0  0  0  0  0  0  0
    5.4173   -1.3284    0.4907 C   0  0  0  0  0  0  0  0  0  0  0  0
    6.7070   -1.7809    0.0882 C   0  0  0  0  0  0  0  0  0  0  0  0
    7.3491   -0.8650   -0.7156 C   0  0  0  0  0  0  0  0  0  0  0  0
   -1.5796    0.3080   -1.4062 H   0  0  0  0  0  0  0  0  0  0  0  0
   -0.9786    1.1805    1.4501 H   0  0  0  0  0  0  0  0  0  0  0  0
    0.9947    0.6809   -0.8442 H   0  0  0  0  0  0  0  0  0  0  0  0
   -1.4164   -1.5657    1.0199 H   0  0  0  0  0  0  0  0  0  0  0  0
   -1.2149   -1.9683   -0.6982 H   0  0  0  0  0  0  0  0  0  0  0  0
    1.3212    0.5008    2.1970 H   0  0  0  0  0  0  0  0  0  0  0  0
    1.7963    1.9086    1.2210 H   0  0  0  0  0  0  0  0  0  0  0  0
   -3.3163    1.2427    0.1113 H   0  0  0  0  0  0  0  0  0  0  0  0
   -3.6435   -1.4975   -0.9179 H   0  0  0  0  0  0  0  0  0  0  0  0
   -3.8567   -0.0104   -1.8425 H   0  0  0  0  0  0  0  0  0  0  0  0
   -0.5806    2.3460   -1.1250 H   0  0  0  0  0  0  0  0  0  0  0  0
    3.0308   -0.7422    1.3727 H   0  0  0  0  0  0  0  0  0  0  0  0
   -5.7777    1.7869   -0.3668 H   0  0  0  0  0  0  0  0  0  0  0  0
   -8.2499    1.1954    0.3753 H   0  0  0  0  0  0  0  0  0  0  0  0
   -8.5898   -1.4094    0.5503 H   0  0  0  0  0  0  0  0  0  0  0  0
    4.7586   -1.9074    1.1244 H   0  0  0  0  0  0  0  0  0  0  0  0
    7.1417   -2.7300    0.3736 H   0  0  0  0  0  0  0  0  0  0  0  0
    8.3311   -0.9505   -1.1592 H   0  0  0  0  0  0  0  0  0  0  0  0
  1 14  1  0  0  0  0
  1 19  1  0  0  0  0
  2 17  1  0  0  0  0
  2 22  1  0  0  0  0
  3 10  1  0  0  0  0
  3 11  1  0  0  0  0
  4  9  1  0  0  0  0
  4 33  1  0  0  0  0
  5 15  2  0  0  0  0
  6  8  1  0  0  0  0
  6 13  1  0  0  0  0
  6 30  1  0  0  0  0
  7 12  1  0  0  0  0
  7 15  1  0  0  0  0
  7 34  1  0  0  0  0
  8  9  1  0  0  0  0
  8 11  1  0  0  0  0
  8 23  1  0  0  0  0
  9 10  1  0  0  0  0
  9 24  1  0  0  0  0
 10 12  1  0  0  0  0
 10 25  1  0  0  0  0
 11 26  1  0  0  0  0
 11 27  1  0  0  0  0
 12 28  1  0  0  0  0
 12 29  1  0  0  0  0
 13 14  1  0  0  0  0
 13 31  1  0  0  0  0
 13 32  1  0  0  0  0
 14 16  2  0  0  0  0
 15 17  1  0  0  0  0
 16 18  1  0  0  0  0
 16 35  1  0  0  0  0
 17 20  2  0  0  0  0
 18 19  2  0  0  0  0
 18 36  1  0  0  0  0
 19 37  1  0  0  0  0
 20 21  1  0  0  0  0
 20 38  1  0  0  0  0
 21 22  2  0  0  0  0
 21 39  1  0  0  0  0
 22 40  1  0  0  0  0
M  END
> <PUBCHEM_COMPOUND_CID>
75536611

> <PUBCHEM_CONFORMER_RMSD>
1

> <PUBCHEM_CONFORMER_DIVERSEORDER>
1
38
31
52
62
159
37
86
101
18
103
154
70
163
120
128
92
41
49
88
121
11
156
119
50
47
56
133
107
53
143
158
150
162
111
82
66
140
129
167
148
123
30
109
63
124
93
21
97
113
155
81
33
95
65
35
6
116
106
126
34
108
40
76
5
39
44
85
90
16
130
134
135
77
151
54
104
80
127
58
164
75
10
100
157
43
146
136
118
8
114
139
102
138
69
110
94
74
125
2
51
46
24
161
67
26
83
60
36
72
29
165
112
22
91
19
15
57
117
9
84
99
142
132
32
98
23
20
105
89
153
48
122
145
79
166
13
64
27
96
42
55
3
14
168
144
160
115
7
45
61
78
17
152
28
87
4
149
73
131
59
71
12
141
25
137
147
68

> <PUBCHEM_MMFF94_PARTIAL_CHARGES>
31
1 -0.08
10 0.28
11 0.28
12 0.3
13 0.45
14 -0.14
15 0.71
16 -0.15
17 -0.05
18 -0.15
19 -0.11
2 -0.08
20 -0.15
21 -0.15
22 -0.11
3 -0.56
30 0.36
33 0.4
34 0.37
35 0.15
36 0.15
37 0.15
38 0.15
39 0.15
4 -0.68
40 0.15
5 -0.57
6 -0.9
7 -0.73
8 0.27
9 0.28

> <PUBCHEM_EFFECTIVE_ROTOR_COUNT>
8

> <PUBCHEM_PHARMACOPHORE_FEATURES>
10
1 3 acceptor
1 4 acceptor
1 4 donor
1 5 acceptor
1 6 cation
1 6 donor
1 7 donor
5 1 14 16 18 19 rings
5 2 17 20 21 22 rings
5 3 8 9 10 11 rings

> <PUBCHEM_HEAVY_ATOM_COUNT>
22

> <PUBCHEM_ATOM_DEF_STEREO_COUNT>
3

> <PUBCHEM_ATOM_UDEF_STEREO_COUNT>
0

> <PUBCHEM_BOND_DEF_STEREO_COUNT>
0

> <PUBCHEM_BOND_UDEF_STEREO_COUNT>
0

> <PUBCHEM_ISOTOPIC_ATOM_COUNT>
0

> <PUBCHEM_COMPONENT_COUNT>
1

> <PUBCHEM_CACTVS_TAUTO_COUNT>
2

> <PUBCHEM_CONFORMER_ID>
048098E300000001

> <PUBCHEM_MMFF94_ENERGY>
31.6882

> <PUBCHEM_FEATURE_SELFOVERLAP>
50.747

> <PUBCHEM_SHAPE_FINGERPRINT>
10 15 10879988069147307638
10299344 5 18409731759582379731
106641 1 9079107865285821877
11524674 6 16702300174510947607
11638347 137 12607410987873690724
11719270 70 17775287153413235518
11724838 91 8502650403106675666
12166972 35 18040999552649736540
125118 31 10447933883864857762
13533116 47 17095511856304870610
13668630 136 18272373053595973046
13685833 64 18060137639690048994
13885169 127 18271807891417889641
13914758 101 15123517990712767987
14123256 10 13840264788411488007
14251752 14 18343018874334447741
14251764 18 17632580456969977504
14251764 46 16588023511192611715
14429380 56 8214135222930836195
14856354 85 18333452071660261191
14933364 13 18259703402346355333
15183329 4 18131073722750268131
15352257 5 18409729573407667971
15849732 13 17458346351048342159
17093844 174 12679463093618608207
21095086 128 18341330072410109055
21150785 3 17167864162345463166
21267235 1 18410857659294011065
21315763 28 18342455967937263381
21781051 124 18340216279198805590
220451 1 16805315605102775667
221357 26 18040434378747086068
22224240 67 10809344451167990272
22956985 138 17271182917083558390
23035841 295 18410853265959205211
23522609 53 18126595433561313504
23559900 14 18339073912866936920
246663 6 18342741814320438231
28498 318 17917430899754273831
3004659 81 18408319995558611776
328311 84 18411421721950040643
33532 11 18412823581700323711
335352 9 18341610438910340927
34797466 226 16515407365395739694
4107672 100 18114457856546826365
465052 167 18201439207432765974
5207 217 13623530156167114481
5758199 1 11241965958981808269
59682541 35 10159689197050472830
59755656 215 18202566155027149607
59755656 520 18333726944982594031
6438161 24 18261104146423240426

> <PUBCHEM_SHAPE_MULTIPOLES>
432.88
24.1
1.7
0.87
7.4
0.08
-0.01
-8.31
3.07
-0.5
0
-0.56
0.05
-0.25

> <PUBCHEM_SHAPE_SELFOVERLAP>
885.729

> <PUBCHEM_SHAPE_VOLUME>
251.3

> <PUBCHEM_COORDINATE_TYPE>
2
5
10

$$$$
