56775695
  -OEChem-12032416273D

 43 46  0     0  0  0  0  0  0999 V2000
    1.2156    2.5050   -0.1650 Cl  0  0  0  0  0  0  0  0  0  0  0  0
    2.2979   -3.6708    1.1482 O   0  0  0  0  0  0  0  0  0  0  0  0
   -2.9951   -1.7249    0.0633 O   0  0  0  0  0  0  0  0  0  0  0  0
    1.7304   -0.8140    0.3054 N   0  0  0  0  0  0  0  0  0  0  0  0
   -1.8983   -2.5296   -0.2203 N   0  0  0  0  0  0  0  0  0  0  0  0
   -4.8832   -0.0093    0.4904 N   0  0  0  0  0  0  0  0  0  0  0  0
    1.3446   -2.1825   -0.0484 C   0  0  0  0  0  0  0  0  0  0  0  0
    1.0448   -2.9544    1.2317 C   0  0  0  0  0  0  0  0  0  0  0  0
    2.6002   -3.0440   -0.1191 C   0  0  0  0  0  0  0  0  0  0  0  0
    0.3602   -2.2382   -1.1762 C   0  0  0  0  0  0  0  0  0  0  0  0
    2.4929   -0.2292   -0.7971 C   0  0  0  0  0  0  0  0  0  0  0  0
   -0.9879   -1.7019   -0.7411 C   0  0  0  0  0  0  0  0  0  0  0  0
    3.3922    0.8742   -0.3408 C   0  0  0  0  0  0  0  0  0  0  0  0
   -1.4493   -0.3762   -0.8101 C   0  0  0  0  0  0  0  0  0  0  0  0
   -2.7157   -0.4448   -0.2922 C   0  0  0  0  0  0  0  0  0  0  0  0
    2.8980    2.1419   -0.0339 C   0  0  0  0  0  0  0  0  0  0  0  0
    4.7570    0.6110   -0.2249 C   0  0  0  0  0  0  0  0  0  0  0  0
   -3.7602    0.5089   -0.0554 C   0  0  0  0  0  0  0  0  0  0  0  0
    3.7686    3.1464    0.3889 C   0  0  0  0  0  0  0  0  0  0  0  0
    5.6278    1.6154    0.1977 C   0  0  0  0  0  0  0  0  0  0  0  0
    5.1336    2.8832    0.5046 C   0  0  0  0  0  0  0  0  0  0  0  0
   -3.5981    1.8479   -0.3724 C   0  0  0  0  0  0  0  0  0  0  0  0
   -4.6568    2.7109   -0.1119 C   0  0  0  0  0  0  0  0  0  0  0  0
   -5.8908    0.8598    0.7292 C   0  0  0  0  0  0  0  0  0  0  0  0
   -5.8285    2.2154    0.4493 C   0  0  0  0  0  0  0  0  0  0  0  0
    0.2101   -3.6613    1.1907 H   0  0  0  0  0  0  0  0  0  0  0  0
    0.9720   -2.3807    2.1619 H   0  0  0  0  0  0  0  0  0  0  0  0
    3.5874   -2.5751   -0.0708 H   0  0  0  0  0  0  0  0  0  0  0  0
    2.6129   -3.7898   -0.9217 H   0  0  0  0  0  0  0  0  0  0  0  0
    0.2176   -3.2787   -1.5001 H   0  0  0  0  0  0  0  0  0  0  0  0
    0.6973   -1.7066   -2.0731 H   0  0  0  0  0  0  0  0  0  0  0  0
    0.9678   -0.1958    0.5765 H   0  0  0  0  0  0  0  0  0  0  0  0
    1.8086    0.1652   -1.5596 H   0  0  0  0  0  0  0  0  0  0  0  0
    3.0990   -0.9550   -1.3525 H   0  0  0  0  0  0  0  0  0  0  0  0
   -0.9353    0.4935   -1.1903 H   0  0  0  0  0  0  0  0  0  0  0  0
    5.1599   -0.3715   -0.4569 H   0  0  0  0  0  0  0  0  0  0  0  0
    3.3993    4.1395    0.6320 H   0  0  0  0  0  0  0  0  0  0  0  0
    6.6905    1.4104    0.2885 H   0  0  0  0  0  0  0  0  0  0  0  0
    5.8116    3.6651    0.8339 H   0  0  0  0  0  0  0  0  0  0  0  0
   -2.6850    2.2379   -0.8098 H   0  0  0  0  0  0  0  0  0  0  0  0
   -4.5691    3.7677   -0.3456 H   0  0  0  0  0  0  0  0  0  0  0  0
   -6.7825    0.4236    1.1673 H   0  0  0  0  0  0  0  0  0  0  0  0
   -6.6665    2.8696    0.6609 H   0  0  0  0  0  0  0  0  0  0  0  0
  1 16  1  0  0  0  0
  2  8  1  0  0  0  0
  2  9  1  0  0  0  0
  3  5  1  0  0  0  0
  3 15  1  0  0  0  0
  4  7  1  0  0  0  0
  4 11  1  0  0  0  0
  4 32  1  0  0  0  0
  5 12  2  0  0  0  0
  6 18  1  0  0  0  0
  6 24  2  0  0  0  0
  7  8  1  0  0  0  0
  7  9  1  0  0  0  0
  7 10  1  0  0  0  0
  8 26  1  0  0  0  0
  8 27  1  0  0  0  0
  9 28  1  0  0  0  0
  9 29  1  0  0  0  0
 10 12  1  0  0  0  0
 10 30  1  0  0  0  0
 10 31  1  0  0  0  0
 11 13  1  0  0  0  0
 11 33  1  0  0  0  0
 11 34  1  0  0  0  0
 12 14  1  0  0  0  0
 13 16  1  0  0  0  0
 13 17  2  0  0  0  0
 14 15  2  0  0  0  0
 14 35  1  0  0  0  0
 15 18  1  0  0  0  0
 16 19  2  0  0  0  0
 17 20  1  0  0  0  0
 17 36  1  0  0  0  0
 18 22  2  0  0  0  0
 19 21  1  0  0  0  0
 19 37  1  0  0  0  0
 20 21  2  0  0  0  0
 20 38  1  0  0  0  0
 21 39  1  0  0  0  0
 22 23  1  0  0  0  0
 22 40  1  0  0  0  0
 23 25  2  0  0  0  0
 23 41  1  0  0  0  0
 24 25  1  0  0  0  0
 24 42  1  0  0  0  0
 25 43  1  0  0  0  0
M  END
> <PUBCHEM_COMPOUND_CID>
56775695

> <PUBCHEM_CONFORMER_RMSD>
1

> <PUBCHEM_CONFORMER_DIVERSEORDER>
1
32
78
118
133
106
155
49
151
132
164
163
80
29
46
50
64
66
142
112
171
153
134
130
60
89
102
156
79
75
147
150
27
166
172
174
85
14
88
104
157
119
44
103
113
70
131
154
169
177
52
122
137
165
149
51
128
121
37
97
107
143
114
38
95
145
178
36
53
127
116
108
146
40
144
10
124
73
43
100
115
58
62
90
67
83
136
168
139
162
105
160
179
87
91
54
28
98
140
167
63
82
15
39
120
173
21
72
96
109
74
111
125
135
101
26
84
34
13
93
42
41
99
25
92
8
123
9
81
33
175
16
126
35
117
176
170
138
31
45
22
76
110
48
68
17
55
61
19
23
148
158
7
77
59
30
57
24
65
3
159
161
141
6
20
71
4
94
18
129
5
69
2
12
86
152
56
11
47

> <PUBCHEM_MMFF94_PARTIAL_CHARGES>
35
1 -0.18
10 0.18
11 0.41
12 0.11
13 -0.14
14 -0.15
15 0.09
16 0.18
17 -0.15
18 0.36
19 -0.15
2 -0.52
20 -0.15
21 -0.15
22 -0.15
23 -0.15
24 0.16
25 -0.15
3 -0.02
32 0.36
35 0.15
36 0.15
37 0.15
38 0.15
39 0.15
4 -0.84
40 0.15
41 0.15
42 0.15
43 0.15
5 -0.41
6 -0.62
7 0.21
8 0.26
9 0.26

> <PUBCHEM_EFFECTIVE_ROTOR_COUNT>
6.8

> <PUBCHEM_PHARMACOPHORE_FEATURES>
9
1 2 acceptor
1 4 cation
1 4 donor
1 5 acceptor
1 6 acceptor
4 2 7 8 9 rings
5 3 5 12 14 15 rings
6 13 16 17 19 20 21 rings
6 6 18 22 23 24 25 rings

> <PUBCHEM_HEAVY_ATOM_COUNT>
25

> <PUBCHEM_ATOM_DEF_STEREO_COUNT>
0

> <PUBCHEM_ATOM_UDEF_STEREO_COUNT>
0

> <PUBCHEM_BOND_DEF_STEREO_COUNT>
0

> <PUBCHEM_BOND_UDEF_STEREO_COUNT>
0

> <PUBCHEM_ISOTOPIC_ATOM_COUNT>
0

> <PUBCHEM_COMPONENT_COUNT>
1

> <PUBCHEM_CACTVS_TAUTO_COUNT>
1

> <PUBCHEM_CONFORMER_ID>
0362540F00000001

> <PUBCHEM_MMFF94_ENERGY>
61.088

> <PUBCHEM_FEATURE_SELFOVERLAP>
45.672

> <PUBCHEM_SHAPE_FINGERPRINT>
10411042 1 17763184635927407558
1100329 8 17474105397769566724
12107183 9 18337095835982901162
12422481 6 18044349700761403568
12769317 202 18342450439628915184
12788726 201 17470180609282929742
12925494 130 18410009936266982361
12930653 34 18263367039362198659
13402501 40 18413109463556294141
13878862 14 18044637729884549613
13965767 371 18113889464473675700
14178342 30 18115033033839414543
14251764 75 18342186595588244617
14466204 15 18338792416251995816
14739800 52 18411695469921623531
14790565 3 18265053707637578204
14849402 71 18261678082565173410
15142526 21 18334857250866019115
15420108 30 18270666645777839670
15475509 35 16589152606487032547
15475509 84 17611459732022241026
16760501 71 18410577262686225819
20642791 35 18339928104589701246
21033648 144 18334849494750954495
21033648 29 18198899408919941880
21279426 13 18343027705451983500
21421861 104 18115298961292508986
21475661 188 18413111684180246516
21987483 16 18260276248828080859
22122407 14 18052269401670689785
23559900 14 17983867687826424615
23845131 108 18260265274290099947
244849 19 17896625936533806779
283562 15 17976811309492837071
2838139 119 18271803549068621548
338550 245 18263649618245919876
3411729 13 18410577253626844804
3459 39 18200008751421831824
3680242 22 18409163282264544344
376196 1 17987794267308174708
392239 28 17901113237003394731
5104073 3 18262812744511054321
5252454 2 18342446063025546405
5265222 85 18192724560113736908
57724786 102 18128262190478123313
5895379 119 17342104693074203376
59124914 9 18411981386443306720
633830 44 18342171224242508278
636775 72 17693934499319478824
7288768 16 18041277763567067291
7808743 9 18341609373320562387
79837 15 18044094785551507362
9981440 41 18263643020848748667

> <PUBCHEM_SHAPE_MULTIPOLES>
489.68
12.93
4.72
0.92
8.61
1.51
0.04
-13.19
2.28
-3.31
0.88
-0.06
0.44
-0.25

> <PUBCHEM_SHAPE_SELFOVERLAP>
1058.313

> <PUBCHEM_SHAPE_VOLUME>
269.3

> <PUBCHEM_COORDINATE_TYPE>
2
5
10

$$$$
