7050338
  -OEChem-12032416193D

 53 56  0     1  0  0  0  0  0999 V2000
   -9.3596   -1.1087   -0.1740 Cl  0  0  0  0  0  0  0  0  0  0  0  0
    7.3543   -2.9492   -0.4532 S   0  0  0  0  0  0  0  0  0  0  0  0
   -2.7909   -1.4437    1.6525 O   0  0  0  0  0  0  0  0  0  0  0  0
   -3.3125    1.5131   -1.8895 O   0  0  0  0  0  0  0  0  0  0  0  0
    3.3484    2.2005    1.3782 O   0  0  0  0  0  0  0  0  0  0  0  0
    5.6481    1.8724   -0.0196 O   0  0  0  0  0  0  0  0  0  0  0  0
   -1.4873    0.7368   -0.6850 N   0  0  0  0  0  0  0  0  0  0  0  0
   -3.5032   -0.0774   -0.1451 N   0  0  0  0  0  0  0  0  0  0  0  0
    1.7809    0.6399    0.7583 N   0  0  0  0  0  0  0  0  0  0  0  0
   -1.2016   -0.1423    0.4156 C   0  0  1  0  0  0  0  0  0  0  0  0
    0.6416    1.4681    1.0807 C   0  0  2  0  0  0  0  0  0  0  0  0
   -0.5464    0.6180    1.5643 C   0  0  0  0  0  0  0  0  0  0  0  0
    0.2501    2.3528   -0.1160 C   0  0  0  0  0  0  0  0  0  0  0  0
   -0.4214    1.5549   -1.2353 C   0  0  0  0  0  0  0  0  0  0  0  0
   -2.5969   -0.6414    0.7475 C   0  0  0  0  0  0  0  0  0  0  0  0
   -2.8413    0.7880   -1.0218 C   0  0  0  0  0  0  0  0  0  0  0  0
   -4.9127   -0.3262   -0.1521 C   0  0  0  0  0  0  0  0  0  0  0  0
    3.0909    1.0795    0.9358 C   0  0  0  0  0  0  0  0  0  0  0  0
   -5.5780   -0.6299    1.0384 C   0  0  0  0  0  0  0  0  0  0  0  0
   -5.6304   -0.2660   -1.3493 C   0  0  0  0  0  0  0  0  0  0  0  0
    4.1413    0.1102    0.5937 C   0  0  0  0  0  0  0  0  0  0  0  0
   -6.9517   -0.8718    1.0317 C   0  0  0  0  0  0  0  0  0  0  0  0
   -7.0040   -0.5079   -1.3561 C   0  0  0  0  0  0  0  0  0  0  0  0
    5.3750    0.5456    0.1299 C   0  0  0  0  0  0  0  0  0  0  0  0
    3.8718   -1.2435    0.7430 C   0  0  0  0  0  0  0  0  0  0  0  0
   -7.6647   -0.8109   -0.1656 C   0  0  0  0  0  0  0  0  0  0  0  0
    6.3583   -0.3905   -0.1908 C   0  0  0  0  0  0  0  0  0  0  0  0
    4.8549   -2.1795    0.4222 C   0  0  0  0  0  0  0  0  0  0  0  0
    6.0982   -1.7530   -0.0445 C   0  0  0  0  0  0  0  0  0  0  0  0
    5.3452    2.4574   -1.2843 C   0  0  0  0  0  0  0  0  0  0  0  0
    7.6439   -2.5951   -2.2098 C   0  0  0  0  0  0  0  0  0  0  0  0
   -0.5895   -0.9743    0.0525 H   0  0  0  0  0  0  0  0  0  0  0  0
    0.9377    2.1273    1.9062 H   0  0  0  0  0  0  0  0  0  0  0  0
   -1.2843    1.2853    2.0301 H   0  0  0  0  0  0  0  0  0  0  0  0
   -0.2295   -0.0853    2.3441 H   0  0  0  0  0  0  0  0  0  0  0  0
    1.1228    2.8827   -0.5149 H   0  0  0  0  0  0  0  0  0  0  0  0
   -0.4550    3.1166    0.2374 H   0  0  0  0  0  0  0  0  0  0  0  0
   -0.8246    2.2277   -1.9984 H   0  0  0  0  0  0  0  0  0  0  0  0
    0.2963    0.8825   -1.7178 H   0  0  0  0  0  0  0  0  0  0  0  0
    1.5991   -0.2464    0.2988 H   0  0  0  0  0  0  0  0  0  0  0  0
   -5.0636   -0.6547    1.9940 H   0  0  0  0  0  0  0  0  0  0  0  0
   -5.1447   -0.0637   -2.2991 H   0  0  0  0  0  0  0  0  0  0  0  0
   -7.4549   -1.0997    1.9679 H   0  0  0  0  0  0  0  0  0  0  0  0
   -7.5460   -0.4635   -2.2973 H   0  0  0  0  0  0  0  0  0  0  0  0
    2.9290   -1.6154    1.1333 H   0  0  0  0  0  0  0  0  0  0  0  0
    7.3254   -0.0418   -0.5460 H   0  0  0  0  0  0  0  0  0  0  0  0
    4.6367   -3.2371    0.5490 H   0  0  0  0  0  0  0  0  0  0  0  0
    5.9572    2.0039   -2.0703 H   0  0  0  0  0  0  0  0  0  0  0  0
    5.5777    3.5245   -1.2324 H   0  0  0  0  0  0  0  0  0  0  0  0
    4.2831    2.3425   -1.5235 H   0  0  0  0  0  0  0  0  0  0  0  0
    8.0804   -1.6014   -2.3381 H   0  0  0  0  0  0  0  0  0  0  0  0
    6.7066   -2.6561   -2.7695 H   0  0  0  0  0  0  0  0  0  0  0  0
    8.3407   -3.3344   -2.6135 H   0  0  0  0  0  0  0  0  0  0  0  0
  1 26  1  0  0  0  0
  2 29  1  0  0  0  0
  2 31  1  0  0  0  0
  3 15  2  0  0  0  0
  4 16  2  0  0  0  0
  5 18  2  0  0  0  0
  6 24  1  0  0  0  0
  6 30  1  0  0  0  0
  7 10  1  0  0  0  0
  7 14  1  0  0  0  0
  7 16  1  0  0  0  0
  8 15  1  0  0  0  0
  8 16  1  0  0  0  0
  8 17  1  0  0  0  0
  9 11  1  0  0  0  0
  9 18  1  0  0  0  0
  9 40  1  0  0  0  0
 10 12  1  0  0  0  0
 10 15  1  0  0  0  0
 10 32  1  0  0  0  0
 11 12  1  0  0  0  0
 11 13  1  0  0  0  0
 11 33  1  0  0  0  0
 12 34  1  0  0  0  0
 12 35  1  0  0  0  0
 13 14  1  0  0  0  0
 13 36  1  0  0  0  0
 13 37  1  0  0  0  0
 14 38  1  0  0  0  0
 14 39  1  0  0  0  0
 17 19  2  0  0  0  0
 17 20  1  0  0  0  0
 18 21  1  0  0  0  0
 19 22  1  0  0  0  0
 19 41  1  0  0  0  0
 20 23  2  0  0  0  0
 20 42  1  0  0  0  0
 21 24  2  0  0  0  0
 21 25  1  0  0  0  0
 22 26  2  0  0  0  0
 22 43  1  0  0  0  0
 23 26  1  0  0  0  0
 23 44  1  0  0  0  0
 24 27  1  0  0  0  0
 25 28  2  0  0  0  0
 25 45  1  0  0  0  0
 27 29  2  0  0  0  0
 27 46  1  0  0  0  0
 28 29  1  0  0  0  0
 28 47  1  0  0  0  0
 30 48  1  0  0  0  0
 30 49  1  0  0  0  0
 30 50  1  0  0  0  0
 31 51  1  0  0  0  0
 31 52  1  0  0  0  0
 31 53  1  0  0  0  0
M  END
> <PUBCHEM_COMPOUND_CID>
7050338

> <PUBCHEM_CONFORMER_RMSD>
1

> <PUBCHEM_CONFORMER_DIVERSEORDER>
1
25
4
7
18
16
23
20
9
2
21
19
12
24
3
5
6
10
11
15
8
13
22
26
14
17

> <PUBCHEM_MMFF94_PARTIAL_CHARGES>
37
1 -0.18
10 0.36
11 0.3
14 0.3
15 0.57
16 0.69
17 0.12
18 0.54
19 -0.15
2 -0.33
20 -0.15
21 0.09
22 -0.15
23 -0.15
24 0.08
25 -0.15
26 0.18
27 -0.15
28 -0.15
29 0.1
3 -0.57
30 0.28
31 0.23
4 -0.57
40 0.37
41 0.15
42 0.15
43 0.15
44 0.15
45 0.15
46 0.15
47 0.15
5 -0.57
6 -0.36
7 -0.66
8 -0.24
9 -0.73

> <PUBCHEM_EFFECTIVE_ROTOR_COUNT>
7

> <PUBCHEM_PHARMACOPHORE_FEATURES>
10
1 3 acceptor
1 31 hydrophobe
1 4 acceptor
1 5 acceptor
1 6 acceptor
1 9 donor
5 7 8 10 15 16 rings
6 17 19 20 22 23 26 rings
6 21 24 25 27 28 29 rings
6 7 10 11 12 13 14 rings

> <PUBCHEM_HEAVY_ATOM_COUNT>
31

> <PUBCHEM_ATOM_DEF_STEREO_COUNT>
2

> <PUBCHEM_ATOM_UDEF_STEREO_COUNT>
0

> <PUBCHEM_BOND_DEF_STEREO_COUNT>
0

> <PUBCHEM_BOND_UDEF_STEREO_COUNT>
0

> <PUBCHEM_ISOTOPIC_ATOM_COUNT>
0

> <PUBCHEM_COMPONENT_COUNT>
1

> <PUBCHEM_CACTVS_TAUTO_COUNT>
2

> <PUBCHEM_CONFORMER_ID>
006B946200000001

> <PUBCHEM_MMFF94_ENERGY>
95.6155

> <PUBCHEM_FEATURE_SELFOVERLAP>
50.866

> <PUBCHEM_SHAPE_FINGERPRINT>
10299344 5 18131632300928219843
10319926 262 14261347003032535357
11578821 258 12179833993277481535
117089 54 17769664097058564366
11719270 70 14261361279757437709
12236239 1 16558749052705242049
12592606 108 18059853978702072375
13533116 47 18273210928368714928
13617811 41 16805038519387475527
13668630 136 18343580720344390250
13673619 4 18411697656440070876
13685833 64 18413668010882640515
13782708 43 18412255147152312543
13914758 101 17704077292089185449
14216079 64 18343019978009342938
14347424 109 16630519661550090368
150020 25 17748828513981169739
15064986 266 18334304136398345800
15082195 135 17749683973679434924
15131766 46 16913388961003542465
15183329 4 18040431066693817537
15198563 99 17822283536412866773
15352257 5 18411134770927256139
16994733 274 12252177468373729095
19301679 30 17203057270534762708
19302320 297 11455591185993540186
19841028 212 18202280299711648826
20105231 36 17603308155252555443
2026 5 18198341754830612054
21033650 10 16805886165680729420
21150785 3 14345791652562263635
21307412 95 18261117369889319787
21344244 181 18334294270990700098
21365058 113 18113900476802244565
221357 26 18335417950847167488
2215653 11 18334570261282883163
22956985 138 16914557445600120382
23522609 53 17986418713199989249
23559900 14 18042118929028711569
23569917 315 18339645659600072415
23569943 247 18271803471997418475
23576562 1 13985248629486787327
24771750 20 17028269259524053797
255183 451 18341902849353984644
3004659 81 18261108548558529130
34797466 226 17822289123832625140
4258327 124 12685105777594468874
437815 12 18335138704826861513
439807 62 18333449820570026802
445580 126 11025800920899884974
46194498 28 17822007649125102500
465052 167 18060136540283909852
474113 269 17489583425164684263
54039377 194 18130791102130769230
59682541 35 11167938087536032351
59755656 215 17749381564688933115

> <PUBCHEM_SHAPE_MULTIPOLES>
605.26
25.64
2.6
1.56
16.44
0.1
-0.36
18.51
-6.58
-6.44
-0.57
0.05
-0.02
1.69

> <PUBCHEM_SHAPE_SELFOVERLAP>
1286.479

> <PUBCHEM_SHAPE_VOLUME>
341.4

> <PUBCHEM_COORDINATE_TYPE>
2
5
10

$$$$
