11913221
  -OEChem-12032416143D

 66 71  0     1  0  0  0  0  0999 V2000
    4.7803    1.3193   -0.1475 S   0  0  0  0  0  0  0  0  0  0  0  0
    0.8776   -0.1492    1.5424 O   0  0  0  0  0  0  0  0  0  0  0  0
    2.5587   -2.7750    1.7549 O   0  0  0  0  0  0  0  0  0  0  0  0
    5.0195    1.8297    1.1883 O   0  0  0  0  0  0  0  0  0  0  0  0
    4.6267    2.2237   -1.2709 O   0  0  0  0  0  0  0  0  0  0  0  0
    3.4510    0.2554   -0.1350 N   0  0  0  0  0  0  0  0  0  0  0  0
   -0.1504   -3.4737    0.4398 N   0  0  0  0  0  0  0  0  0  0  0  0
   -2.1300   -2.3417   -0.1136 N   0  0  0  0  0  0  0  0  0  0  0  0
   -1.5435   -4.4119   -1.1989 N   0  0  0  0  0  0  0  0  0  0  0  0
    2.4060   -1.7810    0.7281 C   0  0  1  0  0  0  0  0  0  0  0  0
    0.9557   -1.3390    0.7397 C   0  0  1  0  0  0  0  0  0  0  0  0
    3.1753   -0.5339    1.0903 C   0  0  2  0  0  0  0  0  0  0  0  0
    0.2274   -2.4760    1.4168 C   0  0  2  0  0  0  0  0  0  0  0  0
    2.1970    0.2192    1.9704 C   0  0  0  0  0  0  0  0  0  0  0  0
    1.2812   -3.0333    2.3558 C   0  0  0  0  0  0  0  0  0  0  0  0
   -1.3091   -3.4070   -0.3134 C   0  0  0  0  0  0  0  0  0  0  0  0
    6.0983    0.1948   -0.5476 C   0  0  0  0  0  0  0  0  0  0  0  0
    7.3704    0.9835   -0.6005 C   0  0  0  0  0  0  0  0  0  0  0  0
   -3.2504   -2.3087   -0.8644 C   0  0  0  0  0  0  0  0  0  0  0  0
    7.7794    1.5565   -1.8012 C   0  0  0  0  0  0  0  0  0  0  0  0
    8.1361    1.1382    0.5515 C   0  0  0  0  0  0  0  0  0  0  0  0
   -2.6821   -4.3153   -1.9164 C   0  0  0  0  0  0  0  0  0  0  0  0
   -3.5816   -3.2766   -1.7906 C   0  0  0  0  0  0  0  0  0  0  0  0
   -4.1068   -1.1693   -0.6373 C   0  0  0  0  0  0  0  0  0  0  0  0
    8.9644    2.2907   -1.8502 C   0  0  0  0  0  0  0  0  0  0  0  0
    9.3210    1.8727    0.5025 C   0  0  0  0  0  0  0  0  0  0  0  0
    9.7351    2.4487   -0.6983 C   0  0  0  0  0  0  0  0  0  0  0  0
   -3.5583    0.0502   -0.2338 C   0  0  0  0  0  0  0  0  0  0  0  0
   -5.4869   -1.2816   -0.8205 C   0  0  0  0  0  0  0  0  0  0  0  0
   -4.3857    1.1516   -0.0148 C   0  0  0  0  0  0  0  0  0  0  0  0
   -6.3142   -0.1800   -0.6016 C   0  0  0  0  0  0  0  0  0  0  0  0
   -5.7636    1.0364   -0.1987 C   0  0  0  0  0  0  0  0  0  0  0  0
   -6.6219    2.1790    0.0278 C   0  0  0  0  0  0  0  0  0  0  0  0
   -6.9083    3.0546   -1.0197 C   0  0  0  0  0  0  0  0  0  0  0  0
   -7.1636    2.4048    1.2933 C   0  0  0  0  0  0  0  0  0  0  0  0
   -7.7360    4.1559   -0.8017 C   0  0  0  0  0  0  0  0  0  0  0  0
   -7.9914    3.5062    1.5112 C   0  0  0  0  0  0  0  0  0  0  0  0
   -8.2775    4.3818    0.4637 C   0  0  0  0  0  0  0  0  0  0  0  0
    2.7065   -2.2417   -0.2185 H   0  0  0  0  0  0  0  0  0  0  0  0
    0.5831   -1.0820   -0.2571 H   0  0  0  0  0  0  0  0  0  0  0  0
    4.1079   -0.7518    1.6197 H   0  0  0  0  0  0  0  0  0  0  0  0
   -0.6427   -2.1568    2.0020 H   0  0  0  0  0  0  0  0  0  0  0  0
    2.2967   -0.0898    3.0167 H   0  0  0  0  0  0  0  0  0  0  0  0
    2.2968    1.3075    1.9234 H   0  0  0  0  0  0  0  0  0  0  0  0
    1.1824   -4.1059    2.5494 H   0  0  0  0  0  0  0  0  0  0  0  0
    1.2644   -2.5085    3.3175 H   0  0  0  0  0  0  0  0  0  0  0  0
    3.1009   -0.1194   -1.0250 H   0  0  0  0  0  0  0  0  0  0  0  0
    0.4791   -4.2441    0.2455 H   0  0  0  0  0  0  0  0  0  0  0  0
    6.1458   -0.5825    0.2208 H   0  0  0  0  0  0  0  0  0  0  0  0
    5.8760   -0.2744   -1.5111 H   0  0  0  0  0  0  0  0  0  0  0  0
    7.1882    1.4398   -2.7054 H   0  0  0  0  0  0  0  0  0  0  0  0
    7.8246    0.6935    1.4928 H   0  0  0  0  0  0  0  0  0  0  0  0
   -2.8537   -5.1201   -2.6232 H   0  0  0  0  0  0  0  0  0  0  0  0
   -4.4649   -3.2496   -2.4156 H   0  0  0  0  0  0  0  0  0  0  0  0
    9.2871    2.7393   -2.7852 H   0  0  0  0  0  0  0  0  0  0  0  0
    9.9212    1.9957    1.3992 H   0  0  0  0  0  0  0  0  0  0  0  0
   10.6577    3.0205   -0.7365 H   0  0  0  0  0  0  0  0  0  0  0  0
   -2.4876    0.1771   -0.0917 H   0  0  0  0  0  0  0  0  0  0  0  0
   -5.9606   -2.2162   -1.1090 H   0  0  0  0  0  0  0  0  0  0  0  0
   -3.9401    2.0935    0.2967 H   0  0  0  0  0  0  0  0  0  0  0  0
   -7.3869   -0.2879   -0.7442 H   0  0  0  0  0  0  0  0  0  0  0  0
   -6.4945    2.8933   -2.0124 H   0  0  0  0  0  0  0  0  0  0  0  0
   -6.9508    1.7322    2.1209 H   0  0  0  0  0  0  0  0  0  0  0  0
   -7.9590    4.8377   -1.6172 H   0  0  0  0  0  0  0  0  0  0  0  0
   -8.4132    3.6822    2.4964 H   0  0  0  0  0  0  0  0  0  0  0  0
   -8.9221    5.2393    0.6333 H   0  0  0  0  0  0  0  0  0  0  0  0
  1  4  2  0  0  0  0
  1  5  2  0  0  0  0
  1  6  1  0  0  0  0
  1 17  1  0  0  0  0
  2 11  1  0  0  0  0
  2 14  1  0  0  0  0
  3 10  1  0  0  0  0
  3 15  1  0  0  0  0
  6 12  1  0  0  0  0
  6 47  1  0  0  0  0
  7 13  1  0  0  0  0
  7 16  1  0  0  0  0
  7 48  1  0  0  0  0
  8 16  1  0  0  0  0
  8 19  2  0  0  0  0
  9 16  2  0  0  0  0
  9 22  1  0  0  0  0
 10 11  1  0  0  0  0
 10 12  1  0  0  0  0
 10 39  1  0  0  0  0
 11 13  1  0  0  0  0
 11 40  1  0  0  0  0
 12 14  1  0  0  0  0
 12 41  1  0  0  0  0
 13 15  1  0  0  0  0
 13 42  1  0  0  0  0
 14 43  1  0  0  0  0
 14 44  1  0  0  0  0
 15 45  1  0  0  0  0
 15 46  1  0  0  0  0
 17 18  1  0  0  0  0
 17 49  1  0  0  0  0
 17 50  1  0  0  0  0
 18 20  2  0  0  0  0
 18 21  1  0  0  0  0
 19 23  1  0  0  0  0
 19 24  1  0  0  0  0
 20 25  1  0  0  0  0
 20 51  1  0  0  0  0
 21 26  2  0  0  0  0
 21 52  1  0  0  0  0
 22 23  2  0  0  0  0
 22 53  1  0  0  0  0
 23 54  1  0  0  0  0
 24 28  2  0  0  0  0
 24 29  1  0  0  0  0
 25 27  2  0  0  0  0
 25 55  1  0  0  0  0
 26 27  1  0  0  0  0
 26 56  1  0  0  0  0
 27 57  1  0  0  0  0
 28 30  1  0  0  0  0
 28 58  1  0  0  0  0
 29 31  2  0  0  0  0
 29 59  1  0  0  0  0
 30 32  2  0  0  0  0
 30 60  1  0  0  0  0
 31 32  1  0  0  0  0
 31 61  1  0  0  0  0
 32 33  1  0  0  0  0
 33 34  2  0  0  0  0
 33 35  1  0  0  0  0
 34 36  1  0  0  0  0
 34 62  1  0  0  0  0
 35 37  2  0  0  0  0
 35 63  1  0  0  0  0
 36 38  2  0  0  0  0
 36 64  1  0  0  0  0
 37 38  1  0  0  0  0
 37 65  1  0  0  0  0
 38 66  1  0  0  0  0
M  END
> <PUBCHEM_COMPOUND_CID>
11913221

> <PUBCHEM_CONFORMER_RMSD>
1.2

> <PUBCHEM_CONFORMER_DIVERSEORDER>
1
222
191
214
272
172
179
291
26
167
35
62
194
39
249
127
210
175
213
89
250
232
202
86
266
260
42
75
252
144
126
245
99
149
21
276
107
56
198
189
59
241
68
296
80
17
38
8
283
106
136
173
142
72
287
30
13
233
154
256
156
295
188
196
114
58
190
270
297
293
215
193
119
253
100
176
66
15
280
247
125
224
185
155
45
64
171
164
121
263
153
102
67
237
95
162
61
290
168
133
115
84
229
238
54
137
221
265
208
10
286
112
118
226
246
139
255
212
240
91
135
207
145
200
288
205
220
110
187
218
269
273
98
209
124
63
152
217
274
199
88
268
123
111
285
77
92
57
41
271
82
81
150
129
183
31
281
40
132
159
235
108
131
234
79
251
244
239
254
140
178
148
74
19
44
25
47
181
158
23
298
90
14
32
143
170
197
117
53
28
96
160
230
278
279
7
93
258
103
206
292
231
146
83
216
219
48
113
33
138
60
69
70
289
46
262
85
101
204
166
37
257
182
225
223
27
227
16
122
184
264
105
165
104
36
52
97
277
94
76
180
120
134
161
55
267
147
201
259
248
243
5
284
203
43
192
151
261
12
211
6
177
49
275
163
4
186
3
228
78
236
169
87
50
157
282
73
29
9
20
174
109
51
242
294
128
130
65
18
141
71
116
11
22
195
24
34
2

> <PUBCHEM_MMFF94_PARTIAL_CHARGES>
53
1 1.33
10 0.28
11 0.28
12 0.36
13 0.37
14 0.28
15 0.28
16 0.72
17 0.25
18 -0.14
19 0.31
2 -0.56
20 -0.15
21 -0.15
22 0.16
23 -0.15
25 -0.15
26 -0.15
27 -0.15
28 -0.15
29 -0.15
3 -0.56
30 -0.15
31 -0.15
34 -0.15
35 -0.15
36 -0.15
37 -0.15
38 -0.15
4 -0.65
47 0.42
48 0.4
5 -0.65
51 0.15
52 0.15
53 0.15
54 0.15
55 0.15
56 0.15
57 0.15
58 0.15
59 0.15
6 -0.91
60 0.15
61 0.15
62 0.15
63 0.15
64 0.15
65 0.15
66 0.15
7 -0.87
8 -0.62
9 -0.62

> <PUBCHEM_EFFECTIVE_ROTOR_COUNT>
9.2

> <PUBCHEM_PHARMACOPHORE_FEATURES>
14
1 2 acceptor
1 3 acceptor
1 4 acceptor
1 5 acceptor
1 6 donor
1 7 donor
1 8 acceptor
4 7 8 9 16 cation
5 2 10 11 12 14 rings
5 3 10 11 13 15 rings
6 18 20 21 25 26 27 rings
6 24 28 29 30 31 32 rings
6 33 34 35 36 37 38 rings
6 8 9 16 19 22 23 rings

> <PUBCHEM_HEAVY_ATOM_COUNT>
38

> <PUBCHEM_ATOM_DEF_STEREO_COUNT>
4

> <PUBCHEM_ATOM_UDEF_STEREO_COUNT>
0

> <PUBCHEM_BOND_DEF_STEREO_COUNT>
0

> <PUBCHEM_BOND_UDEF_STEREO_COUNT>
0

> <PUBCHEM_ISOTOPIC_ATOM_COUNT>
0

> <PUBCHEM_COMPONENT_COUNT>
1

> <PUBCHEM_CACTVS_TAUTO_COUNT>
3

> <PUBCHEM_CONFORMER_ID>
00B5C80500000001

> <PUBCHEM_MMFF94_ENERGY>
114.3551

> <PUBCHEM_FEATURE_SELFOVERLAP>
71.77

> <PUBCHEM_SHAPE_FINGERPRINT>
10372059 70 18343294899668106120
10533779 1 18336537236336446221
10670039 82 18264478658418347310
10864689 126 18272082790520478873
10917259 69 18411979161961613784
10939801 23 18335703780889782117
10952577 141 18411706473649571741
11181472 205 18186803617821709516
11374522 174 18268713819043745805
11410812 94 18270680991574866700
11621639 336 18190177880672666996
1200032 147 18261110742564274307
12013929 112 18341621387177871142
12061779 8 18260263049527915986
12559415 135 18339640157609023768
12838863 1 8862651388024997665
13726171 33 18411422774575744307
13782708 43 10663230339096499665
14040221 275 15430042066933535336
14040221 97 18342179913784436401
14394314 77 18335140869512055909
14664723 55 18261955249025139453
150020 25 17489590104319305976
15183329 4 17605540258557268838
15406563 185 16629948933854436817
15439362 3 18341896247035176591
15448158 71 18114453475136248215
16067689 134 18408601487747561344
16728433 281 18343023289460737705
16992727 255 18410577305641628232
19302320 297 17676496051059301684
21057603 192 18117851112649930835
21223535 225 18338794641245028246
21756936 100 18114743849112032267
21796203 349 16008752433154753638
23516275 100 17972311808151023981
23522609 53 18187917405156321858
23569914 152 17701271231094049798
3711267 37 18041001764800565196
38570 142 18259703415131738538
3986486 107 16773799160881418289
42767 23 12751240255487011837
444735 79 10737280256150437568
44575985 433 18343022164248593153
44575985 74 18412256256029341645
44802255 64 17988646332711658607
44880568 143 18199187485472336928
4516262 110 18113604695146987399
57527295 17 18339070610159113978
57634706 229 17822017557403722914
57676310 115 18337399240693872732
6058803 2 18194088933843173451
6201320 221 15625395494050279804
6201320 82 17605859117061629340
6673363 416 18270115851151318391
6698420 124 17894633652104508706
6703917 75 18115030821641607107
9896288 288 18263085573392563515

> <PUBCHEM_SHAPE_MULTIPOLES>
742.47
31.16
6.2
1.83
34.79
2.23
-0.28
-50.75
7.28
-11.7
1.16
0.96
0.79
-5.26

> <PUBCHEM_SHAPE_SELFOVERLAP>
1624.552

> <PUBCHEM_SHAPE_VOLUME>
402.9

> <PUBCHEM_COORDINATE_TYPE>
2
5
10

$$$$
