40533534
  -OEChem-12032416253D

 54 58  0     1  0  0  0  0  0999 V2000
    2.0564   -1.5408   -0.7058 S   0  0  0  0  0  0  0  0  0  0  0  0
    2.0274   -1.9304   -2.0997 O   0  0  0  0  0  0  0  0  0  0  0  0
    1.6107   -2.4485    0.3302 O   0  0  0  0  0  0  0  0  0  0  0  0
   -3.5220    0.6683   -1.7989 O   0  0  0  0  0  0  0  0  0  0  0  0
    7.5845    0.1200    0.5929 O   0  0  0  0  0  0  0  0  0  0  0  0
    1.2431   -0.0462   -0.5250 N   0  0  2  0  0  0  0  0  0  0  0  0
   -1.6639    1.1904   -0.4897 N   0  0  0  0  0  0  0  0  0  0  0  0
   -6.5237   -2.0481   -0.4971 N   0  0  0  0  0  0  0  0  0  0  0  0
    0.4998    2.1374   -1.4806 C   0  0  1  0  0  0  0  0  0  0  0  0
    0.3350    1.7472    0.9385 C   0  0  2  0  0  0  0  0  0  0  0  0
    0.6692    2.7964   -0.1182 C   0  0  0  0  0  0  0  0  0  0  0  0
    1.4529    0.9395   -1.6236 C   0  0  0  0  0  0  0  0  0  0  0  0
    1.3265    0.5743    0.8310 C   0  0  0  0  0  0  0  0  0  0  0  0
   -0.9706    1.7409   -1.6624 C   0  0  0  0  0  0  0  0  0  0  0  0
   -1.0899    1.2495    0.7824 C   0  0  0  0  0  0  0  0  0  0  0  0
   -1.7891    0.8477    1.8557 C   0  0  0  0  0  0  0  0  0  0  0  0
   -2.9696    0.7035   -0.6980 C   0  0  0  0  0  0  0  0  0  0  0  0
   -3.7148    0.2267    0.5197 C   0  0  0  0  0  0  0  0  0  0  0  0
   -3.1182    0.3239    1.7172 C   0  0  0  0  0  0  0  0  0  0  0  0
    3.7061   -1.0447   -0.3187 C   0  0  0  0  0  0  0  0  0  0  0  0
   -5.0685   -0.3444    0.4111 C   0  0  0  0  0  0  0  0  0  0  0  0
    4.1587   -1.0980    0.9998 C   0  0  0  0  0  0  0  0  0  0  0  0
    4.5566   -0.5995   -1.3306 C   0  0  0  0  0  0  0  0  0  0  0  0
    5.4619   -0.7063    1.3061 C   0  0  0  0  0  0  0  0  0  0  0  0
    5.8598   -0.2075   -1.0243 C   0  0  0  0  0  0  0  0  0  0  0  0
   -6.1459    0.2328    1.0741 C   0  0  0  0  0  0  0  0  0  0  0  0
   -5.3081   -1.4739   -0.3550 C   0  0  0  0  0  0  0  0  0  0  0  0
    6.3124   -0.2607    0.2941 C   0  0  0  0  0  0  0  0  0  0  0  0
   -7.4120   -0.3290    0.9523 C   0  0  0  0  0  0  0  0  0  0  0  0
   -7.5467   -1.4590    0.1619 C   0  0  0  0  0  0  0  0  0  0  0  0
    7.9822    0.0383    1.9609 C   0  0  0  0  0  0  0  0  0  0  0  0
    0.7582    2.8571   -2.2676 H   0  0  0  0  0  0  0  0  0  0  0  0
    0.4560    2.2105    1.9266 H   0  0  0  0  0  0  0  0  0  0  0  0
    0.0089    3.6678   -0.0251 H   0  0  0  0  0  0  0  0  0  0  0  0
    1.6970    3.1576    0.0089 H   0  0  0  0  0  0  0  0  0  0  0  0
    1.2786    0.4621   -2.5937 H   0  0  0  0  0  0  0  0  0  0  0  0
    2.4848    1.3053   -1.6019 H   0  0  0  0  0  0  0  0  0  0  0  0
    2.3358    0.9585    1.0112 H   0  0  0  0  0  0  0  0  0  0  0  0
    1.0962   -0.1732    1.5985 H   0  0  0  0  0  0  0  0  0  0  0  0
   -1.5408    2.6354   -1.9488 H   0  0  0  0  0  0  0  0  0  0  0  0
   -1.0795    1.0355   -2.4959 H   0  0  0  0  0  0  0  0  0  0  0  0
   -1.3642    0.8761    2.8537 H   0  0  0  0  0  0  0  0  0  0  0  0
   -3.6049   -0.0104    2.6288 H   0  0  0  0  0  0  0  0  0  0  0  0
    3.5130   -1.4401    1.8037 H   0  0  0  0  0  0  0  0  0  0  0  0
    4.2248   -0.5473   -2.3637 H   0  0  0  0  0  0  0  0  0  0  0  0
    5.7483   -0.7725    2.3501 H   0  0  0  0  0  0  0  0  0  0  0  0
    6.5177    0.1390   -1.8167 H   0  0  0  0  0  0  0  0  0  0  0  0
   -6.0195    1.1228    1.6853 H   0  0  0  0  0  0  0  0  0  0  0  0
   -4.5101   -1.9761   -0.8943 H   0  0  0  0  0  0  0  0  0  0  0  0
   -8.2666    0.1046    1.4590 H   0  0  0  0  0  0  0  0  0  0  0  0
   -8.5133   -1.9352    0.0341 H   0  0  0  0  0  0  0  0  0  0  0  0
    9.0214    0.3787    2.0162 H   0  0  0  0  0  0  0  0  0  0  0  0
    7.9645   -0.9949    2.3240 H   0  0  0  0  0  0  0  0  0  0  0  0
    7.3916    0.7106    2.5924 H   0  0  0  0  0  0  0  0  0  0  0  0
  1  2  2  0  0  0  0
  1  3  2  0  0  0  0
  1  6  1  0  0  0  0
  1 20  1  0  0  0  0
  4 17  2  0  0  0  0
  5 28  1  0  0  0  0
  5 31  1  0  0  0  0
  6 12  1  0  0  0  0
  6 13  1  0  0  0  0
  7 14  1  0  0  0  0
  7 15  1  0  0  0  0
  7 17  1  0  0  0  0
  8 27  1  0  0  0  0
  8 30  2  0  0  0  0
  9 11  1  0  0  0  0
  9 12  1  0  0  0  0
  9 14  1  0  0  0  0
  9 32  1  0  0  0  0
 10 11  1  0  0  0  0
 10 13  1  0  0  0  0
 10 15  1  0  0  0  0
 10 33  1  0  0  0  0
 11 34  1  0  0  0  0
 11 35  1  0  0  0  0
 12 36  1  0  0  0  0
 12 37  1  0  0  0  0
 13 38  1  0  0  0  0
 13 39  1  0  0  0  0
 14 40  1  0  0  0  0
 14 41  1  0  0  0  0
 15 16  2  0  0  0  0
 16 19  1  0  0  0  0
 16 42  1  0  0  0  0
 17 18  1  0  0  0  0
 18 19  2  0  0  0  0
 18 21  1  0  0  0  0
 19 43  1  0  0  0  0
 20 22  2  0  0  0  0
 20 23  1  0  0  0  0
 21 26  1  0  0  0  0
 21 27  2  0  0  0  0
 22 24  1  0  0  0  0
 22 44  1  0  0  0  0
 23 25  2  0  0  0  0
 23 45  1  0  0  0  0
 24 28  2  0  0  0  0
 24 46  1  0  0  0  0
 25 28  1  0  0  0  0
 25 47  1  0  0  0  0
 26 29  2  0  0  0  0
 26 48  1  0  0  0  0
 27 49  1  0  0  0  0
 29 30  1  0  0  0  0
 29 50  1  0  0  0  0
 30 51  1  0  0  0  0
 31 52  1  0  0  0  0
 31 53  1  0  0  0  0
 31 54  1  0  0  0  0
M  END
> <PUBCHEM_COMPOUND_CID>
40533534

> <PUBCHEM_CONFORMER_RMSD>
0.8

> <PUBCHEM_CONFORMER_DIVERSEORDER>
2
9
4
12
7
5
11
3
1
10
8
6

> <PUBCHEM_MMFF94_PARTIAL_CHARGES>
39
1 1.45
10 0.14
12 0.36
13 0.36
14 0.3
15 -0.03
16 -0.15
17 0.62
18 -0.01
19 -0.15
2 -0.65
20 -0.01
21 0.03
22 -0.15
23 -0.15
24 -0.15
25 -0.15
26 -0.15
27 0.16
28 0.08
29 -0.15
3 -0.65
30 0.16
31 0.28
4 -0.57
42 0.15
43 0.15
44 0.15
45 0.15
46 0.15
47 0.15
48 0.15
49 0.15
5 -0.36
50 0.15
51 0.15
6 -0.85
7 -0.47
8 -0.62

> <PUBCHEM_EFFECTIVE_ROTOR_COUNT>
5

> <PUBCHEM_PHARMACOPHORE_FEATURES>
10
1 2 acceptor
1 3 acceptor
1 4 acceptor
1 5 acceptor
1 8 acceptor
6 20 22 23 24 25 28 rings
6 6 9 10 11 12 13 rings
6 7 15 16 17 18 19 rings
6 7 9 10 11 14 15 rings
6 8 21 26 27 29 30 rings

> <PUBCHEM_HEAVY_ATOM_COUNT>
31

> <PUBCHEM_ATOM_DEF_STEREO_COUNT>
2

> <PUBCHEM_ATOM_UDEF_STEREO_COUNT>
0

> <PUBCHEM_BOND_DEF_STEREO_COUNT>
0

> <PUBCHEM_BOND_UDEF_STEREO_COUNT>
0

> <PUBCHEM_ISOTOPIC_ATOM_COUNT>
0

> <PUBCHEM_COMPONENT_COUNT>
1

> <PUBCHEM_CACTVS_TAUTO_COUNT>
3

> <PUBCHEM_CONFORMER_ID>
026A7E1E00000002

> <PUBCHEM_MMFF94_ENERGY>
86.0549

> <PUBCHEM_FEATURE_SELFOVERLAP>
52.352

> <PUBCHEM_SHAPE_FINGERPRINT>
10 15 15482674580553627769
10165383 225 12391514187141064617
10483366 6 11746927677659784992
106641 1 16415478272801531355
10930396 42 17750494330966073624
11135609 99 18129662044842747551
11720765 8 16009040526359575820
11828532 37 13696456412020513937
12107698 1 17749109997985431565
12516196 113 18342742900952432560
12596602 18 17131841923583499883
12633257 1 13470400033811485639
13540713 4 16083078423092969713
13914758 101 13045936902592029936
14068700 675 18410857676801343905
14341114 176 15769779030960043464
1454969 45 18335710459599999862
14955137 171 16128659652263053720
15052358 14 11025800877670428976
15183329 4 13190335764367171604
15274700 256 11458419168791678214
15301273 46 16773805770223805868
15728490 51 17704069629034202702
15840311 113 15697998552808097816
15961568 22 9079127648454424139
17349148 13 16154288100360049100
17492 89 17753323180699258610
18335252 114 11746928832916440275
18393751 57 18059562621400901834
19958102 18 15213017103110084546
20028762 73 18343588459918000510
22149856 69 18269567065066011906
22224240 67 18131068238525677378
22956985 138 17904201434933792302
23559900 14 16515976985581227141
24893992 56 9439396922824711399
2747138 104 18060143145801141042
2838139 119 8142083148431967191
3004659 81 18412550933566565571
3009799 131 16153429462934780520
3633792 109 14418125189416549080
4066623 53 15791731927349146807
4098825 35 17167860851284524117
4149490 64 18192719058581689427
4325135 7 18411421709086088346
437795 51 16845286172866724786
439807 62 17240485810549563431
463206 1 18337676438009698699
469060 322 18263063510118346214
474113 269 13407336454059248368
5104073 3 17773035250889236114
57724786 102 10591459703965247194
59682541 35 18130503119798167450
5969126 39 17894344458533132821
59755656 215 11458419137423542674
59755656 520 10519698965245083841
6126387 218 18272086081535747001
613672 6 17968959520775058867
6669772 16 17387418050300239860
9689198 14 15339119061334694018
9962374 69 18337673148365352359

> <PUBCHEM_SHAPE_MULTIPOLES>
603.39
19.72
2.13
1.82
0.84
0.39
0.06
-10.31
-6.54
0.62
0.63
-1.07
0.22
-0.18

> <PUBCHEM_SHAPE_SELFOVERLAP>
1313.702

> <PUBCHEM_SHAPE_VOLUME>
328.9

> <PUBCHEM_COORDINATE_TYPE>
2
5
10

$$$$
