51137785
  -OEChem-12032416223D

 45 48  0     1  0  0  0  0  0999 V2000
   -0.5024    1.4727   -0.2548 O   0  0  0  0  0  0  0  0  0  0  0  0
    2.7462   -0.7043    2.4867 O   0  0  0  0  0  0  0  0  0  0  0  0
   -5.3845   -2.4609    0.3649 O   0  0  0  0  0  0  0  0  0  0  0  0
    2.4471    0.9649    0.8999 N   0  0  0  0  0  0  0  0  0  0  0  0
   -0.7783    3.5635   -1.0013 N   0  0  0  0  0  0  0  0  0  0  0  0
   -2.0181    2.9526   -0.9740 N   0  0  0  0  0  0  0  0  0  0  0  0
    1.5801    2.7663   -0.3911 C   0  0  1  0  0  0  0  0  0  0  0  0
    1.9477    3.2681    1.0139 C   0  0  0  0  0  0  0  0  0  0  0  0
    2.3734    1.4547   -0.4776 C   0  0  0  0  0  0  0  0  0  0  0  0
    2.0424    1.9950    1.8439 C   0  0  0  0  0  0  0  0  0  0  0  0
    0.0756    2.6631   -0.5734 C   0  0  0  0  0  0  0  0  0  0  0  0
    2.7680   -0.3164    1.3203 C   0  0  0  0  0  0  0  0  0  0  0  0
    3.1506   -1.2939    0.2896 C   0  0  0  0  0  0  0  0  0  0  0  0
   -1.8091    1.7344   -0.5322 C   0  0  0  0  0  0  0  0  0  0  0  0
    4.2575   -1.0536   -0.5244 C   0  0  0  0  0  0  0  0  0  0  0  0
    2.4055   -2.4618    0.1265 C   0  0  0  0  0  0  0  0  0  0  0  0
   -2.7274    0.6575   -0.3007 C   0  0  0  0  0  0  0  0  0  0  0  0
    4.6193   -1.9810   -1.5015 C   0  0  0  0  0  0  0  0  0  0  0  0
    2.7673   -3.3893   -0.8506 C   0  0  0  0  0  0  0  0  0  0  0  0
   -4.0874    0.8334   -0.5562 C   0  0  0  0  0  0  0  0  0  0  0  0
   -2.2606   -0.5662    0.1792 C   0  0  0  0  0  0  0  0  0  0  0  0
    3.8743   -3.1487   -1.6645 C   0  0  0  0  0  0  0  0  0  0  0  0
   -4.9806   -0.2141   -0.3316 C   0  0  0  0  0  0  0  0  0  0  0  0
   -3.1537   -1.6138    0.4038 C   0  0  0  0  0  0  0  0  0  0  0  0
   -4.5136   -1.4377    0.1485 C   0  0  0  0  0  0  0  0  0  0  0  0
   -4.8392   -3.6845    0.8564 C   0  0  0  0  0  0  0  0  0  0  0  0
    1.9379    3.4677   -1.1546 H   0  0  0  0  0  0  0  0  0  0  0  0
    2.9333    3.7497    0.9783 H   0  0  0  0  0  0  0  0  0  0  0  0
    1.2366    3.9854    1.4352 H   0  0  0  0  0  0  0  0  0  0  0  0
    1.9226    0.7110   -1.1413 H   0  0  0  0  0  0  0  0  0  0  0  0
    3.3978    1.6605   -0.8061 H   0  0  0  0  0  0  0  0  0  0  0  0
    2.7641    2.0703    2.6628 H   0  0  0  0  0  0  0  0  0  0  0  0
    1.0700    1.7084    2.2595 H   0  0  0  0  0  0  0  0  0  0  0  0
    4.8635   -0.1606   -0.3974 H   0  0  0  0  0  0  0  0  0  0  0  0
    1.5389   -2.6590    0.7524 H   0  0  0  0  0  0  0  0  0  0  0  0
    5.4842   -1.7963   -2.1319 H   0  0  0  0  0  0  0  0  0  0  0  0
    2.1868   -4.2983   -0.9781 H   0  0  0  0  0  0  0  0  0  0  0  0
   -4.4735    1.7784   -0.9308 H   0  0  0  0  0  0  0  0  0  0  0  0
   -1.2081   -0.7405    0.3893 H   0  0  0  0  0  0  0  0  0  0  0  0
    4.1565   -3.8713   -2.4246 H   0  0  0  0  0  0  0  0  0  0  0  0
   -6.0388   -0.0715   -0.5328 H   0  0  0  0  0  0  0  0  0  0  0  0
   -2.7239   -2.5373    0.7767 H   0  0  0  0  0  0  0  0  0  0  0  0
   -4.1420   -4.1311    0.1394 H   0  0  0  0  0  0  0  0  0  0  0  0
   -4.3902   -3.5558    1.8472 H   0  0  0  0  0  0  0  0  0  0  0  0
   -5.6719   -4.3861    0.9717 H   0  0  0  0  0  0  0  0  0  0  0  0
  1 11  1  0  0  0  0
  1 14  1  0  0  0  0
  2 12  2  0  0  0  0
  3 25  1  0  0  0  0
  3 26  1  0  0  0  0
  4  9  1  0  0  0  0
  4 10  1  0  0  0  0
  4 12  1  0  0  0  0
  5  6  1  0  0  0  0
  5 11  2  0  0  0  0
  6 14  2  0  0  0  0
  7  8  1  0  0  0  0
  7  9  1  0  0  0  0
  7 11  1  0  0  0  0
  7 27  1  0  0  0  0
  8 10  1  0  0  0  0
  8 28  1  0  0  0  0
  8 29  1  0  0  0  0
  9 30  1  0  0  0  0
  9 31  1  0  0  0  0
 10 32  1  0  0  0  0
 10 33  1  0  0  0  0
 12 13  1  0  0  0  0
 13 15  2  0  0  0  0
 13 16  1  0  0  0  0
 14 17  1  0  0  0  0
 15 18  1  0  0  0  0
 15 34  1  0  0  0  0
 16 19  2  0  0  0  0
 16 35  1  0  0  0  0
 17 20  2  0  0  0  0
 17 21  1  0  0  0  0
 18 22  2  0  0  0  0
 18 36  1  0  0  0  0
 19 22  1  0  0  0  0
 19 37  1  0  0  0  0
 20 23  1  0  0  0  0
 20 38  1  0  0  0  0
 21 24  2  0  0  0  0
 21 39  1  0  0  0  0
 22 40  1  0  0  0  0
 23 25  2  0  0  0  0
 23 41  1  0  0  0  0
 24 25  1  0  0  0  0
 24 42  1  0  0  0  0
 26 43  1  0  0  0  0
 26 44  1  0  0  0  0
 26 45  1  0  0  0  0
M  END
> <PUBCHEM_COMPOUND_CID>
51137785

> <PUBCHEM_CONFORMER_RMSD>
0.8

> <PUBCHEM_CONFORMER_DIVERSEORDER>
1
14
12
32
25
35
9
23
16
8
20
26
44
50
2
29
18
43
5
19
17
11
38
21
40
6
46
37
10
48
4
30
47
24
31
27
13
41
39
28
7
33
3
36
22
49
45
34
42
15

> <PUBCHEM_MMFF94_PARTIAL_CHARGES>
34
1 -0.28
10 0.3
11 0.3
12 0.54
13 0.09
14 0.43
15 -0.15
16 -0.15
17 0.05
18 -0.15
19 -0.15
2 -0.57
20 -0.15
21 -0.15
22 -0.15
23 -0.15
24 -0.15
25 0.08
26 0.28
3 -0.36
34 0.15
35 0.15
36 0.15
37 0.15
38 0.15
39 0.15
4 -0.66
40 0.15
41 0.15
42 0.15
5 -0.34
6 -0.34
7 0.18
9 0.3

> <PUBCHEM_EFFECTIVE_ROTOR_COUNT>
6

> <PUBCHEM_PHARMACOPHORE_FEATURES>
6
1 2 acceptor
1 3 acceptor
5 1 5 6 11 14 rings
5 4 7 8 9 10 rings
6 13 15 16 18 19 22 rings
6 17 20 21 23 24 25 rings

> <PUBCHEM_HEAVY_ATOM_COUNT>
26

> <PUBCHEM_ATOM_DEF_STEREO_COUNT>
1

> <PUBCHEM_ATOM_UDEF_STEREO_COUNT>
0

> <PUBCHEM_BOND_DEF_STEREO_COUNT>
0

> <PUBCHEM_BOND_UDEF_STEREO_COUNT>
0

> <PUBCHEM_ISOTOPIC_ATOM_COUNT>
0

> <PUBCHEM_COMPONENT_COUNT>
1

> <PUBCHEM_CACTVS_TAUTO_COUNT>
1

> <PUBCHEM_CONFORMER_ID>
030C4CF900000001

> <PUBCHEM_MMFF94_ENERGY>
73.313

> <PUBCHEM_FEATURE_SELFOVERLAP>
30.449

> <PUBCHEM_SHAPE_FINGERPRINT>
10928967 22 18114747032088428763
114674 6 18337105760813987266
12596599 1 18409444765656928161
12712778 12 17256222866880543074
13135754 10 16269130900064541456
13150687 139 17246412358618061844
13402501 40 18409728473874596994
13533116 47 18201717388560138985
1361 2 18050286165840438387
13631057 29 18125448514843400094
13785724 45 18337124444649315527
13911882 115 18272082782552399450
13941206 138 16683733485935566212
13989917 61 18050011292455743603
14251740 57 18269276927425614627
14251757 5 18049451339755147716
14363568 33 18273217521422673092
14681488 357 18411706521026028375
14863182 85 18118968241768772076
14866123 147 17981049605206627617
15003188 105 17822842212203603074
15484559 13 16592533914022520885
15664445 248 17459194151627967325
15927050 60 16390995769135084941
17909252 39 18339370763340887306
18681886 176 17684083961012206268
1979834 28 18124311868295074819
20028762 73 17476081701533281527
20775530 9 18341612572971328339
21197605 99 17325491497934439091
21279426 13 18261097579549847461
22440779 20 15263993636909180334
22849339 104 18045781183011663349
23379529 103 17981615870806353422
23428019 142 16542731023863001326
23466295 7 17695361278294542910
23559900 14 18409164411651077925
255183 313 17621570115535086736
3117164 225 18270414802191727225
329604 57 18338241449631747030
3737641 26 18271815596705113580
437795 139 17622756140821007990
4461854 278 17762910157199019914
4573279 150 17827398538046894795
46194498 28 18336551628491584870
5309563 4 18410295847765691591
57307002 29 17899143711008757957
613672 6 18337653279255492325
6287921 2 18199747118793146939
6823239 73 18411698764436067010
9709674 26 18338505370602235021

> <PUBCHEM_SHAPE_MULTIPOLES>
502.52
10.71
5.17
1.47
9.14
0.01
-0.55
-11.27
0.71
-0.73
0.8
-1.57
-0.02
3.26

> <PUBCHEM_SHAPE_SELFOVERLAP>
1099.643

> <PUBCHEM_SHAPE_VOLUME>
273.8

> <PUBCHEM_COORDINATE_TYPE>
2
5
10

$$$$
