71694011
  -OEChem-12032416293D

 54 57  0     1  0  0  0  0  0999 V2000
    2.1904   -4.1040   -1.4604 O   0  0  0  0  0  0  0  0  0  0  0  0
   -0.5058   -4.6171   -1.3800 O   0  0  0  0  0  0  0  0  0  0  0  0
    1.1836    0.3713   -0.9671 O   0  0  0  0  0  0  0  0  0  0  0  0
   -6.3659    3.1494   -0.1550 O   0  0  0  0  0  0  0  0  0  0  0  0
    2.0372   -1.4643    0.1650 N   0  0  0  0  0  0  0  0  0  0  0  0
   -2.5264    0.4463    1.3850 N   0  0  0  0  0  0  0  0  0  0  0  0
   -4.2520    1.3046    0.0115 N   0  0  0  0  0  0  0  0  0  0  0  0
    5.4807    4.5554   -1.5958 N   0  0  0  0  0  0  0  0  0  0  0  0
   -0.1255   -2.4449    0.8693 C   0  0  2  0  0  0  0  0  0  0  0  0
    0.9923   -2.3883   -0.1964 C   0  0  2  0  0  0  0  0  0  0  0  0
    1.4998   -3.8283   -0.2564 C   0  0  1  0  0  0  0  0  0  0  0  0
   -0.5912   -3.9232    0.9150 C   0  0  0  0  0  0  0  0  0  0  0  0
    0.2205   -4.6504   -0.1552 C   0  0  1  0  0  0  0  0  0  0  0  0
   -1.2368   -1.4483    0.6154 C   0  0  0  0  0  0  0  0  0  0  0  0
   -1.9793   -1.4857   -0.5597 C   0  0  0  0  0  0  0  0  0  0  0  0
   -1.5471   -0.4715    1.5477 C   0  0  0  0  0  0  0  0  0  0  0  0
    2.0448   -0.1417   -0.2574 C   0  0  0  0  0  0  0  0  0  0  0  0
   -2.9950   -0.5582   -0.7636 C   0  0  0  0  0  0  0  0  0  0  0  0
   -3.2267    0.3788    0.2305 C   0  0  0  0  0  0  0  0  0  0  0  0
    3.2064    0.6750    0.1793 C   0  0  0  0  0  0  0  0  0  0  0  0
   -5.6284    0.8382   -0.1882 C   0  0  0  0  0  0  0  0  0  0  0  0
   -4.1248    2.6369    0.6182 C   0  0  0  0  0  0  0  0  0  0  0  0
   -6.4448    1.9234   -0.8815 C   0  0  0  0  0  0  0  0  0  0  0  0
   -5.0208    3.6259   -0.1187 C   0  0  0  0  0  0  0  0  0  0  0  0
    3.6211    1.7645   -0.5868 C   0  0  0  0  0  0  0  0  0  0  0  0
    3.8828    0.3518    1.3558 C   0  0  0  0  0  0  0  0  0  0  0  0
    4.7122    2.5307   -0.1766 C   0  0  0  0  0  0  0  0  0  0  0  0
    4.9738    1.1183    1.7661 C   0  0  0  0  0  0  0  0  0  0  0  0
    5.3886    2.2076    0.9998 C   0  0  0  0  0  0  0  0  0  0  0  0
    5.1362    3.6480   -0.9597 C   0  0  0  0  0  0  0  0  0  0  0  0
    0.3111   -2.2203    1.8537 H   0  0  0  0  0  0  0  0  0  0  0  0
    0.6163   -2.0938   -1.1840 H   0  0  0  0  0  0  0  0  0  0  0  0
    2.1650   -4.0460    0.5888 H   0  0  0  0  0  0  0  0  0  0  0  0
   -0.3379   -4.3344    1.9003 H   0  0  0  0  0  0  0  0  0  0  0  0
   -1.6713   -4.0385    0.7754 H   0  0  0  0  0  0  0  0  0  0  0  0
    0.4177   -5.6978    0.0916 H   0  0  0  0  0  0  0  0  0  0  0  0
    2.7956   -1.8278    0.7316 H   0  0  0  0  0  0  0  0  0  0  0  0
    2.3971   -5.0541   -1.4673 H   0  0  0  0  0  0  0  0  0  0  0  0
   -1.3265   -5.1213   -1.2466 H   0  0  0  0  0  0  0  0  0  0  0  0
   -1.7841   -2.2274   -1.3278 H   0  0  0  0  0  0  0  0  0  0  0  0
   -1.0048   -0.3884    2.4843 H   0  0  0  0  0  0  0  0  0  0  0  0
   -3.5642   -0.5797   -1.6871 H   0  0  0  0  0  0  0  0  0  0  0  0
   -5.6734   -0.0761   -0.7894 H   0  0  0  0  0  0  0  0  0  0  0  0
   -6.0653    0.6151    0.7930 H   0  0  0  0  0  0  0  0  0  0  0  0
   -3.0894    2.9951    0.5721 H   0  0  0  0  0  0  0  0  0  0  0  0
   -4.4241    2.5777    1.6719 H   0  0  0  0  0  0  0  0  0  0  0  0
   -6.1010    2.0861   -1.9102 H   0  0  0  0  0  0  0  0  0  0  0  0
   -7.4975    1.6267   -0.9267 H   0  0  0  0  0  0  0  0  0  0  0  0
   -5.0186    4.5898    0.3998 H   0  0  0  0  0  0  0  0  0  0  0  0
   -4.6678    3.7986   -1.1427 H   0  0  0  0  0  0  0  0  0  0  0  0
    3.0991    2.0177   -1.5074 H   0  0  0  0  0  0  0  0  0  0  0  0
    3.5740   -0.4659    1.9999 H   0  0  0  0  0  0  0  0  0  0  0  0
    5.4957    0.8719    2.6862 H   0  0  0  0  0  0  0  0  0  0  0  0
    6.2394    2.7965    1.3340 H   0  0  0  0  0  0  0  0  0  0  0  0
  1 11  1  0  0  0  0
  1 38  1  0  0  0  0
  2 13  1  0  0  0  0
  2 39  1  0  0  0  0
  3 17  2  0  0  0  0
  4 23  1  0  0  0  0
  4 24  1  0  0  0  0
  5 10  1  0  0  0  0
  5 17  1  0  0  0  0
  5 37  1  0  0  0  0
  6 16  1  0  0  0  0
  6 19  2  0  0  0  0
  7 19  1  0  0  0  0
  7 21  1  0  0  0  0
  7 22  1  0  0  0  0
  8 30  3  0  0  0  0
  9 10  1  0  0  0  0
  9 12  1  0  0  0  0
  9 14  1  0  0  0  0
  9 31  1  0  0  0  0
 10 11  1  0  0  0  0
 10 32  1  0  0  0  0
 11 13  1  0  0  0  0
 11 33  1  0  0  0  0
 12 13  1  0  0  0  0
 12 34  1  0  0  0  0
 12 35  1  0  0  0  0
 13 36  1  0  0  0  0
 14 15  1  0  0  0  0
 14 16  2  0  0  0  0
 15 18  2  0  0  0  0
 15 40  1  0  0  0  0
 16 41  1  0  0  0  0
 17 20  1  0  0  0  0
 18 19  1  0  0  0  0
 18 42  1  0  0  0  0
 20 25  1  0  0  0  0
 20 26  2  0  0  0  0
 21 23  1  0  0  0  0
 21 43  1  0  0  0  0
 21 44  1  0  0  0  0
 22 24  1  0  0  0  0
 22 45  1  0  0  0  0
 22 46  1  0  0  0  0
 23 47  1  0  0  0  0
 23 48  1  0  0  0  0
 24 49  1  0  0  0  0
 24 50  1  0  0  0  0
 25 27  2  0  0  0  0
 25 51  1  0  0  0  0
 26 28  1  0  0  0  0
 26 52  1  0  0  0  0
 27 29  1  0  0  0  0
 27 30  1  0  0  0  0
 28 29  2  0  0  0  0
 28 53  1  0  0  0  0
 29 54  1  0  0  0  0
M  END
> <PUBCHEM_COMPOUND_CID>
71694011

> <PUBCHEM_CONFORMER_RMSD>
1

> <PUBCHEM_CONFORMER_DIVERSEORDER>
1
58
63
25
50
8
45
44
33
61
57
34
47
9
7
26
62
48
51
20
39
55
56
14
23
42
54
31
60
36
28
32
38
52
49
43
4
30
40
37
19
18
46
16
10
24
41
13
11
22
15
35
59
29
64
3
21
2
53
17
12
6
27
5

> <PUBCHEM_MMFF94_PARTIAL_CHARGES>
39
1 -0.68
10 0.3
11 0.28
13 0.28
14 -0.14
15 -0.15
16 0.16
17 0.54
18 -0.15
19 0.41
2 -0.68
20 0.09
21 0.37
22 0.37
23 0.28
24 0.28
25 -0.15
26 -0.15
27 0.07
28 -0.15
29 -0.15
3 -0.57
30 0.48
37 0.37
38 0.4
39 0.4
4 -0.56
40 0.15
41 0.15
42 0.15
5 -0.73
51 0.15
52 0.15
53 0.15
54 0.15
6 -0.62
7 -0.84
8 -0.56
9 0.14

> <PUBCHEM_EFFECTIVE_ROTOR_COUNT>
7.2

> <PUBCHEM_PHARMACOPHORE_FEATURES>
13
1 1 acceptor
1 1 donor
1 2 acceptor
1 2 donor
1 3 acceptor
1 4 acceptor
1 5 donor
1 8 acceptor
3 6 7 19 cation
5 9 10 11 12 13 rings
6 20 25 26 27 28 29 rings
6 4 7 21 22 23 24 rings
6 6 14 15 16 18 19 rings

> <PUBCHEM_HEAVY_ATOM_COUNT>
30

> <PUBCHEM_ATOM_DEF_STEREO_COUNT>
4

> <PUBCHEM_ATOM_UDEF_STEREO_COUNT>
0

> <PUBCHEM_BOND_DEF_STEREO_COUNT>
0

> <PUBCHEM_BOND_UDEF_STEREO_COUNT>
0

> <PUBCHEM_ISOTOPIC_ATOM_COUNT>
0

> <PUBCHEM_COMPONENT_COUNT>
1

> <PUBCHEM_CACTVS_TAUTO_COUNT>
2

> <PUBCHEM_CONFORMER_ID>
0445F6BB00000001

> <PUBCHEM_MMFF94_ENERGY>
95.1098

> <PUBCHEM_FEATURE_SELFOVERLAP>
65.984

> <PUBCHEM_SHAPE_FINGERPRINT>
10675989 125 18267589000588025185
10937287 8 18412262839465223783
11059845 2 18195502970594562696
11386260 185 17690550898059951421
11477941 20 17117768488771378676
12107183 9 18261659429806771458
12166972 35 17482544197300317235
12633257 1 15936418840123254417
12788726 201 17688022429174636770
13590594 115 17402342472736483267
13944108 23 18048041774739733508
14068700 675 17554603994181961370
14117953 113 18409444748709920540
14251764 30 9727637210854217617
14251764 75 18339934744409038129
14294032 229 18197225960553957659
14849402 71 18263927627093844954
15064981 113 18058452170332986268
15163728 17 18411425028831927576
15198563 99 17765434640265181959
15420108 30 18338781369379969010
15439362 3 18341048537098088786
15513586 35 16375802593018753508
15979999 66 17693381040589173390
16988056 13 17905327325758973012
1813 80 7925633349032080314
19053607 189 18410003308600461401
21133410 127 18041563529190682100
21304303 282 18057299872803625406
22950370 63 9583523143648404809
23516275 100 16250534266735866369
23522609 53 17532938427902465796
23559900 14 17980477863650505683
245318 6 18041292039917442764
376196 1 18334860480824090915
4058900 60 18410019818453837720
5219985 13 18411136960964632997
53794403 172 18337395928782990015
57091435 61 18337950078559574385
57724786 102 18186795894616105168
6034566 193 18337965591929005513
6058803 2 17899962014622846458
6371380 46 18411424978062765414
6523845 18 18052015563990493506
7288768 16 18113336440184413707
7808743 9 18193561297009619648
9849439 229 18335426780851879485
9981440 41 18410011056989703011

> <PUBCHEM_SHAPE_MULTIPOLES>
573.98
13.84
6.89
1.34
5.48
4.64
0.14
-24.98
-0.92
-2.09
-2.53
-1.09
-0.01
-0.7

> <PUBCHEM_SHAPE_SELFOVERLAP>
1235.652

> <PUBCHEM_SHAPE_VOLUME>
312.1

> <PUBCHEM_COORDINATE_TYPE>
2
5
10

$$$$
