40778218
  -OEChem-12032416173D

 67 70  0     1  0  0  0  0  0999 V2000
    2.6483    2.4512    0.2296 F   0  0  0  0  0  0  0  0  0  0  0  0
   -3.7732   -0.5108   -0.5142 O   0  0  0  0  0  0  0  0  0  0  0  0
   -5.1715   -3.4850    0.9345 O   0  0  0  0  0  0  0  0  0  0  0  0
   -6.5765   -1.6904   -0.6062 O   0  0  0  0  0  0  0  0  0  0  0  0
   -1.7611   -1.4477   -1.9472 O   0  0  0  0  0  0  0  0  0  0  0  0
    4.8854   -1.9853   -1.4725 O   0  0  0  0  0  0  0  0  0  0  0  0
   -1.8344    1.2025    0.9216 O   0  0  0  0  0  0  0  0  0  0  0  0
    0.0179   -2.1853   -0.6509 N   0  0  0  0  0  0  0  0  0  0  0  0
    2.6384   -1.4980    0.1389 N   0  0  0  0  0  0  0  0  0  0  0  0
   -3.9280    2.1233    0.5752 N   0  0  0  0  0  0  0  0  0  0  0  0
   -2.0630    3.3394   -0.0229 N   0  0  0  0  0  0  0  0  0  0  0  0
   -3.7082   -1.9146   -0.2073 C   0  0  2  0  0  0  0  0  0  0  0  0
   -4.7350   -2.1434    0.8888 C   0  0  1  0  0  0  0  0  0  0  0  0
   -5.8258   -1.1707    0.4905 C   0  0  1  0  0  0  0  0  0  0  0  0
   -5.0195    0.0223   -0.0108 C   0  0  1  0  0  0  0  0  0  0  0  0
   -2.2943   -2.2829    0.2056 C   0  0  0  0  0  0  0  0  0  0  0  0
   -4.6883    1.0223    1.0885 C   0  0  0  0  0  0  0  0  0  0  0  0
   -1.3291   -1.9327   -0.8984 C   0  0  0  0  0  0  0  0  0  0  0  0
    0.5693   -2.7588    0.5783 C   0  0  0  0  0  0  0  0  0  0  0  0
    1.0213   -1.8995   -1.6731 C   0  0  0  0  0  0  0  0  0  0  0  0
    1.6458   -1.8458    1.1649 C   0  0  0  0  0  0  0  0  0  0  0  0
    2.1013   -0.9694   -1.1253 C   0  0  0  0  0  0  0  0  0  0  0  0
    3.9165   -1.0802    0.5269 C   0  0  0  0  0  0  0  0  0  0  0  0
   -2.5240    2.1393    0.5254 C   0  0  0  0  0  0  0  0  0  0  0  0
    5.0225   -1.3294   -0.2857 C   0  0  0  0  0  0  0  0  0  0  0  0
    4.0784   -0.4073    1.7380 C   0  0  0  0  0  0  0  0  0  0  0  0
    6.2903   -0.9059    0.1128 C   0  0  0  0  0  0  0  0  0  0  0  0
    5.3464    0.0162    2.1364 C   0  0  0  0  0  0  0  0  0  0  0  0
    6.4523   -0.2331    1.3239 C   0  0  0  0  0  0  0  0  0  0  0  0
   -0.7230    3.7364   -0.2404 C   0  0  0  0  0  0  0  0  0  0  0  0
    5.0051   -3.4061   -1.4445 C   0  0  0  0  0  0  0  0  0  0  0  0
    0.3224    2.8812    0.1086 C   0  0  0  0  0  0  0  0  0  0  0  0
   -0.4465    4.9828   -0.8025 C   0  0  0  0  0  0  0  0  0  0  0  0
    1.6440    3.2724   -0.1045 C   0  0  0  0  0  0  0  0  0  0  0  0
    0.8752    5.3740   -1.0155 C   0  0  0  0  0  0  0  0  0  0  0  0
    1.9206    4.5189   -0.6664 C   0  0  0  0  0  0  0  0  0  0  0  0
   -3.9844   -2.4693   -1.1143 H   0  0  0  0  0  0  0  0  0  0  0  0
   -4.3256   -1.8707    1.8689 H   0  0  0  0  0  0  0  0  0  0  0  0
   -6.5253   -0.9451    1.3003 H   0  0  0  0  0  0  0  0  0  0  0  0
   -5.5148    0.5306   -0.8464 H   0  0  0  0  0  0  0  0  0  0  0  0
   -2.2312   -3.3538    0.4238 H   0  0  0  0  0  0  0  0  0  0  0  0
   -2.0103   -1.7077    1.0945 H   0  0  0  0  0  0  0  0  0  0  0  0
   -4.1093    0.5506    1.8900 H   0  0  0  0  0  0  0  0  0  0  0  0
   -5.6058    1.4332    1.5220 H   0  0  0  0  0  0  0  0  0  0  0  0
    1.0037   -3.7294    0.3087 H   0  0  0  0  0  0  0  0  0  0  0  0
   -0.1985   -2.9477    1.3303 H   0  0  0  0  0  0  0  0  0  0  0  0
    0.5612   -1.4532   -2.5603 H   0  0  0  0  0  0  0  0  0  0  0  0
    1.4602   -2.8581   -1.9751 H   0  0  0  0  0  0  0  0  0  0  0  0
    1.1770   -0.9302    1.5475 H   0  0  0  0  0  0  0  0  0  0  0  0
    2.1158   -2.3707    2.0055 H   0  0  0  0  0  0  0  0  0  0  0  0
    2.8621   -0.8266   -1.8978 H   0  0  0  0  0  0  0  0  0  0  0  0
    1.6662    0.0188   -0.9290 H   0  0  0  0  0  0  0  0  0  0  0  0
   -5.9046   -3.5314    1.5716 H   0  0  0  0  0  0  0  0  0  0  0  0
   -7.2370   -1.0195   -0.8500 H   0  0  0  0  0  0  0  0  0  0  0  0
   -4.4327    2.9289    0.2187 H   0  0  0  0  0  0  0  0  0  0  0  0
    3.2392   -0.1794    2.3889 H   0  0  0  0  0  0  0  0  0  0  0  0
    7.1564   -1.0956   -0.5155 H   0  0  0  0  0  0  0  0  0  0  0  0
    5.4723    0.5440    3.0773 H   0  0  0  0  0  0  0  0  0  0  0  0
   -2.7703    4.0147   -0.3018 H   0  0  0  0  0  0  0  0  0  0  0  0
    7.4393    0.0978    1.6336 H   0  0  0  0  0  0  0  0  0  0  0  0
    4.8554   -3.7820   -2.4603 H   0  0  0  0  0  0  0  0  0  0  0  0
    4.2432   -3.8465   -0.7936 H   0  0  0  0  0  0  0  0  0  0  0  0
    6.0038   -3.6997   -1.1061 H   0  0  0  0  0  0  0  0  0  0  0  0
    0.1894    1.9020    0.5463 H   0  0  0  0  0  0  0  0  0  0  0  0
   -1.2518    5.6586   -1.0787 H   0  0  0  0  0  0  0  0  0  0  0  0
    1.0907    6.3443   -1.4532 H   0  0  0  0  0  0  0  0  0  0  0  0
    2.9498    4.8229   -0.8322 H   0  0  0  0  0  0  0  0  0  0  0  0
  1 34  1  0  0  0  0
  2 12  1  0  0  0  0
  2 15  1  0  0  0  0
  3 13  1  0  0  0  0
  3 53  1  0  0  0  0
  4 14  1  0  0  0  0
  4 54  1  0  0  0  0
  5 18  2  0  0  0  0
  6 25  1  0  0  0  0
  6 31  1  0  0  0  0
  7 24  2  0  0  0  0
  8 18  1  0  0  0  0
  8 19  1  0  0  0  0
  8 20  1  0  0  0  0
  9 21  1  0  0  0  0
  9 22  1  0  0  0  0
  9 23  1  0  0  0  0
 10 17  1  0  0  0  0
 10 24  1  0  0  0  0
 10 55  1  0  0  0  0
 11 24  1  0  0  0  0
 11 30  1  0  0  0  0
 11 59  1  0  0  0  0
 12 13  1  0  0  0  0
 12 16  1  0  0  0  0
 12 37  1  0  0  0  0
 13 14  1  0  0  0  0
 13 38  1  0  0  0  0
 14 15  1  0  0  0  0
 14 39  1  0  0  0  0
 15 17  1  0  0  0  0
 15 40  1  0  0  0  0
 16 18  1  0  0  0  0
 16 41  1  0  0  0  0
 16 42  1  0  0  0  0
 17 43  1  0  0  0  0
 17 44  1  0  0  0  0
 19 21  1  0  0  0  0
 19 45  1  0  0  0  0
 19 46  1  0  0  0  0
 20 22  1  0  0  0  0
 20 47  1  0  0  0  0
 20 48  1  0  0  0  0
 21 49  1  0  0  0  0
 21 50  1  0  0  0  0
 22 51  1  0  0  0  0
 22 52  1  0  0  0  0
 23 25  1  0  0  0  0
 23 26  2  0  0  0  0
 25 27  2  0  0  0  0
 26 28  1  0  0  0  0
 26 56  1  0  0  0  0
 27 29  1  0  0  0  0
 27 57  1  0  0  0  0
 28 29  2  0  0  0  0
 28 58  1  0  0  0  0
 29 60  1  0  0  0  0
 30 32  2  0  0  0  0
 30 33  1  0  0  0  0
 31 61  1  0  0  0  0
 31 62  1  0  0  0  0
 31 63  1  0  0  0  0
 32 34  1  0  0  0  0
 32 64  1  0  0  0  0
 33 35  2  0  0  0  0
 33 65  1  0  0  0  0
 34 36  2  0  0  0  0
 35 36  1  0  0  0  0
 35 66  1  0  0  0  0
 36 67  1  0  0  0  0
M  END
> <PUBCHEM_COMPOUND_CID>
40778218

> <PUBCHEM_CONFORMER_RMSD>
1.4

> <PUBCHEM_CONFORMER_DIVERSEORDER>
1
99
87
5
114
56
101
125
33
57
141
122
82
143
110
132
84
102
63
72
90
127
138
32
103
142
137
106
78
76
71
3
108
67
121
24
98
89
50
124
120
45
131
20
58
37
135
51
119
112
86
65
35
43
41
34
104
73
47
100
95
91
42
113
26
83
126
28
23
117
123
79
14
109
21
40
107
39
118
75
54
59
53
96
44
134
74
70
38
11
133
15
81
105
85
128
77
97
115
111
140
93
64
136
55
36
130
80
49
10
88
52
60
92
18
66
9
19
46
69
62
116
13
61
129
25
94
30
48
68
2
8
17
6
139
16
12
27
22
7
29
31
4

> <PUBCHEM_MMFF94_PARTIAL_CHARGES>
48
1 -0.19
10 -0.73
11 -0.55
12 0.28
13 0.28
14 0.28
15 0.28
16 0.06
17 0.3
18 0.57
19 0.3
2 -0.56
20 0.3
21 0.37
22 0.37
23 0.1
24 0.69
25 0.08
26 -0.15
27 -0.15
28 -0.15
29 -0.15
3 -0.68
30 0.12
31 0.28
32 -0.15
33 -0.15
34 0.19
35 -0.15
36 -0.15
4 -0.68
5 -0.57
53 0.4
54 0.4
55 0.37
56 0.15
57 0.15
58 0.15
59 0.37
6 -0.36
60 0.15
64 0.15
65 0.15
66 0.15
67 0.15
7 -0.57
8 -0.66
9 -0.84

> <PUBCHEM_EFFECTIVE_ROTOR_COUNT>
12.2

> <PUBCHEM_PHARMACOPHORE_FEATURES>
15
1 10 donor
1 11 donor
1 2 acceptor
1 3 acceptor
1 3 donor
1 4 acceptor
1 4 donor
1 5 acceptor
1 6 acceptor
1 7 acceptor
1 9 cation
5 2 12 13 14 15 rings
6 23 25 26 27 28 29 rings
6 30 32 33 34 35 36 rings
6 8 9 19 20 21 22 rings

> <PUBCHEM_HEAVY_ATOM_COUNT>
36

> <PUBCHEM_ATOM_DEF_STEREO_COUNT>
4

> <PUBCHEM_ATOM_UDEF_STEREO_COUNT>
0

> <PUBCHEM_BOND_DEF_STEREO_COUNT>
0

> <PUBCHEM_BOND_UDEF_STEREO_COUNT>
0

> <PUBCHEM_ISOTOPIC_ATOM_COUNT>
0

> <PUBCHEM_COMPONENT_COUNT>
1

> <PUBCHEM_CACTVS_TAUTO_COUNT>
3

> <PUBCHEM_CONFORMER_ID>
026E39EA00000001

> <PUBCHEM_MMFF94_ENERGY>
119.2173

> <PUBCHEM_FEATURE_SELFOVERLAP>
76.196

> <PUBCHEM_SHAPE_FINGERPRINT>
10032420 55 17604139346660447713
10256941 240 17394717385690135180
10864689 126 17834678197400210276
11093857 5 17836924508905139688
12422481 6 18060420213635068360
13561361 72 18268707213183227024
14028597 1 17677034764965212306
14117953 113 18339643313903766293
14849402 71 18118124903480800372
15001296 14 18334295413314694152
15264996 154 18120670264404503062
15400415 2 17184468712646275284
15419008 145 18264756676890533362
15781502 13 17409674060265075070
15961568 22 18411981321618020055
15968369 153 18272645796846349800
16067690 210 18187921738524479704
17627616 140 17903643221700758645
20721686 56 18337951319852608803
21033648 29 17775271751449554378
21133665 82 17329159473721800508
21344244 246 18051681442428483495
21792965 2 17538835184794546387
21796203 349 17974608837346853288
25019877 29 17060337452803958703
373842 8 18338516472723462752
392239 28 18335989774229968091
4280585 95 18335696122704260521
463206 1 18334306352670347705
469060 322 18410022008992589163
508706 21 18268705004947687628
653340 110 18122623851643187216
9961470 85 18054211405097331313

> <PUBCHEM_SHAPE_MULTIPOLES>
678.45
14.1
6.65
1.49
1.06
10.81
0.02
-11.86
3.87
-0.82
-2.21
1.51
-0.63
0.78

> <PUBCHEM_SHAPE_SELFOVERLAP>
1442.865

> <PUBCHEM_SHAPE_VOLUME>
376.6

> <PUBCHEM_COORDINATE_TYPE>
2
5
10

$$$$
