7134448
  -OEChem-12032416343D

 69 71  0     1  0  0  0  0  0999 V2000
    3.4931   -2.0301   -1.0507 O   0  0  0  0  0  0  0  0  0  0  0  0
    5.9023   -0.6458   -2.1102 O   0  0  0  0  0  0  0  0  0  0  0  0
    6.9377    0.7595   -0.6493 O   0  0  0  0  0  0  0  0  0  0  0  0
    1.0009   -3.7948    1.9330 O   0  0  0  0  0  0  0  0  0  0  0  0
   -0.5748   -4.7034   -1.2410 O   0  0  0  0  0  0  0  0  0  0  0  0
   -3.4021   -1.5312    1.8982 O   0  0  0  0  0  0  0  0  0  0  0  0
   -5.4850   -1.6992   -1.4946 O   0  0  0  0  0  0  0  0  0  0  0  0
   -1.0553    5.4764    0.8094 O   0  0  0  0  0  0  0  0  0  0  0  0
    1.8890   -1.5603    0.5646 N   0  0  0  0  0  0  0  0  0  0  0  0
   -3.1990   -0.7582   -0.2917 N   0  0  0  0  0  0  0  0  0  0  0  0
   -6.7051   -0.4241   -0.0242 N   0  0  0  0  0  0  0  0  0  0  0  0
    4.0357    0.8780    0.3409 C   0  0  0  0  0  0  0  0  0  0  0  0
    2.6270    1.4738    0.4687 C   0  0  0  0  0  0  0  0  0  0  0  0
    4.8427    1.7849    1.2800 C   0  0  0  0  0  0  0  0  0  0  0  0
    2.8407    2.9832    0.5556 C   0  0  0  0  0  0  0  0  0  0  0  0
    4.2641    3.1831    1.0756 C   0  0  0  0  0  0  0  0  0  0  0  0
    4.0737   -0.5819    0.7975 C   0  0  0  0  0  0  0  0  0  0  0  0
    4.5520    0.9704   -1.1043 C   0  0  0  0  0  0  0  0  0  0  0  0
    3.1486   -1.4709   -0.0131 C   0  0  0  0  0  0  0  0  0  0  0  0
    5.9291    0.3883   -1.2305 C   0  0  0  0  0  0  0  0  0  0  0  0
    0.8141   -2.3387   -0.0007 C   0  0  1  0  0  0  0  0  0  0  0  0
    0.8323   -3.7908    0.5138 C   0  0  2  0  0  0  0  0  0  0  0  0
   -0.4692   -4.5256    0.1700 C   0  0  1  0  0  0  0  0  0  0  0  0
   -0.4882   -1.6315    0.2609 C   0  0  0  0  0  0  0  0  0  0  0  0
   -1.7090   -3.7872    0.7030 C   0  0  0  0  0  0  0  0  0  0  0  0
   -1.6098   -2.2929    0.5837 C   0  0  0  0  0  0  0  0  0  0  0  0
   -2.8211   -1.5000    0.8139 C   0  0  0  0  0  0  0  0  0  0  0  0
   -4.3624    0.0993   -0.3070 C   0  0  1  0  0  0  0  0  0  0  0  0
   -4.2077    1.2685   -1.2863 C   0  0  0  0  0  0  0  0  0  0  0  0
   -5.5515   -0.7659   -0.6982 C   0  0  0  0  0  0  0  0  0  0  0  0
   -3.3675    2.3909   -0.7274 C   0  0  0  0  0  0  0  0  0  0  0  0
   -3.9709    3.4246   -0.0111 C   0  0  0  0  0  0  0  0  0  0  0  0
   -1.9870    2.3942   -0.9275 C   0  0  0  0  0  0  0  0  0  0  0  0
   -3.1938    4.4615    0.5052 C   0  0  0  0  0  0  0  0  0  0  0  0
   -1.2100    3.4310   -0.4112 C   0  0  0  0  0  0  0  0  0  0  0  0
   -1.8134    4.4648    0.3051 C   0  0  0  0  0  0  0  0  0  0  0  0
    1.9638    1.2134   -0.3628 H   0  0  0  0  0  0  0  0  0  0  0  0
    2.1456    1.1435    1.3977 H   0  0  0  0  0  0  0  0  0  0  0  0
    5.9246    1.7785    1.1491 H   0  0  0  0  0  0  0  0  0  0  0  0
    4.6625    1.4919    2.3234 H   0  0  0  0  0  0  0  0  0  0  0  0
    2.0995    3.4520    1.2112 H   0  0  0  0  0  0  0  0  0  0  0  0
    2.7368    3.4433   -0.4338 H   0  0  0  0  0  0  0  0  0  0  0  0
    4.8554    3.7402    0.3399 H   0  0  0  0  0  0  0  0  0  0  0  0
    4.2773    3.7581    2.0072 H   0  0  0  0  0  0  0  0  0  0  0  0
    3.7914   -0.6540    1.8567 H   0  0  0  0  0  0  0  0  0  0  0  0
    5.0821   -1.0089    0.7487 H   0  0  0  0  0  0  0  0  0  0  0  0
    3.8661    0.4718   -1.7997 H   0  0  0  0  0  0  0  0  0  0  0  0
    4.6128    2.0071   -1.4565 H   0  0  0  0  0  0  0  0  0  0  0  0
    0.9510   -2.3552   -1.0900 H   0  0  0  0  0  0  0  0  0  0  0  0
    1.7216   -1.1043    1.4570 H   0  0  0  0  0  0  0  0  0  0  0  0
    1.6934   -4.3111    0.0771 H   0  0  0  0  0  0  0  0  0  0  0  0
   -0.4506   -5.5281    0.6148 H   0  0  0  0  0  0  0  0  0  0  0  0
   -0.4926   -0.5473    0.1687 H   0  0  0  0  0  0  0  0  0  0  0  0
   -2.6040   -4.1344    0.1725 H   0  0  0  0  0  0  0  0  0  0  0  0
   -1.8390   -4.0305    1.7650 H   0  0  0  0  0  0  0  0  0  0  0  0
    6.7867   -1.0559   -2.2191 H   0  0  0  0  0  0  0  0  0  0  0  0
    1.0379   -4.7230    2.2205 H   0  0  0  0  0  0  0  0  0  0  0  0
   -1.3871   -5.2090   -1.4140 H   0  0  0  0  0  0  0  0  0  0  0  0
   -2.6812   -0.8626   -1.1601 H   0  0  0  0  0  0  0  0  0  0  0  0
   -4.5206    0.4714    0.7134 H   0  0  0  0  0  0  0  0  0  0  0  0
   -3.7802    0.9264   -2.2386 H   0  0  0  0  0  0  0  0  0  0  0  0
   -5.1946    1.6746   -1.5471 H   0  0  0  0  0  0  0  0  0  0  0  0
   -5.0451    3.4317    0.1534 H   0  0  0  0  0  0  0  0  0  0  0  0
   -1.5046    1.5950   -1.4839 H   0  0  0  0  0  0  0  0  0  0  0  0
   -6.7453    0.3477    0.6337 H   0  0  0  0  0  0  0  0  0  0  0  0
   -7.5688   -0.9329   -0.1806 H   0  0  0  0  0  0  0  0  0  0  0  0
   -3.6694    5.2635    1.0631 H   0  0  0  0  0  0  0  0  0  0  0  0
   -0.1360    3.4220   -0.5750 H   0  0  0  0  0  0  0  0  0  0  0  0
   -0.1237    5.3160    0.5802 H   0  0  0  0  0  0  0  0  0  0  0  0
  1 19  2  0  0  0  0
  2 20  1  0  0  0  0
  2 56  1  0  0  0  0
  3 20  2  0  0  0  0
  4 22  1  0  0  0  0
  4 57  1  0  0  0  0
  5 23  1  0  0  0  0
  5 58  1  0  0  0  0
  6 27  2  0  0  0  0
  7 30  2  0  0  0  0
  8 36  1  0  0  0  0
  8 69  1  0  0  0  0
  9 19  1  0  0  0  0
  9 21  1  0  0  0  0
  9 50  1  0  0  0  0
 10 27  1  0  0  0  0
 10 28  1  0  0  0  0
 10 59  1  0  0  0  0
 11 30  1  0  0  0  0
 11 65  1  0  0  0  0
 11 66  1  0  0  0  0
 12 13  1  0  0  0  0
 12 14  1  0  0  0  0
 12 17  1  0  0  0  0
 12 18  1  0  0  0  0
 13 15  1  0  0  0  0
 13 37  1  0  0  0  0
 13 38  1  0  0  0  0
 14 16  1  0  0  0  0
 14 39  1  0  0  0  0
 14 40  1  0  0  0  0
 15 16  1  0  0  0  0
 15 41  1  0  0  0  0
 15 42  1  0  0  0  0
 16 43  1  0  0  0  0
 16 44  1  0  0  0  0
 17 19  1  0  0  0  0
 17 45  1  0  0  0  0
 17 46  1  0  0  0  0
 18 20  1  0  0  0  0
 18 47  1  0  0  0  0
 18 48  1  0  0  0  0
 21 22  1  0  0  0  0
 21 24  1  0  0  0  0
 21 49  1  0  0  0  0
 22 23  1  0  0  0  0
 22 51  1  0  0  0  0
 23 25  1  0  0  0  0
 23 52  1  0  0  0  0
 24 26  2  0  0  0  0
 24 53  1  0  0  0  0
 25 26  1  0  0  0  0
 25 54  1  0  0  0  0
 25 55  1  0  0  0  0
 26 27  1  0  0  0  0
 28 29  1  0  0  0  0
 28 30  1  0  0  0  0
 28 60  1  0  0  0  0
 29 31  1  0  0  0  0
 29 61  1  0  0  0  0
 29 62  1  0  0  0  0
 31 32  2  0  0  0  0
 31 33  1  0  0  0  0
 32 34  1  0  0  0  0
 32 63  1  0  0  0  0
 33 35  2  0  0  0  0
 33 64  1  0  0  0  0
 34 36  2  0  0  0  0
 34 67  1  0  0  0  0
 35 36  1  0  0  0  0
 35 68  1  0  0  0  0
M  END
> <PUBCHEM_COMPOUND_CID>
7134448

> <PUBCHEM_CONFORMER_RMSD>
1.2

> <PUBCHEM_CONFORMER_DIVERSEORDER>
1
74
113
92
44
46
118
24
88
138
146
72
144
110
34
103
43
86
136
12
89
69
116
119
28
36
94
105
6
84
80
131
152
48
127
32
128
145
101
55
111
90
150
99
56
156
31
54
5
51
21
59
126
120
122
139
73
47
71
95
106
151
140
83
57
104
37
98
135
42
39
75
96
97
115
41
79
157
70
35
100
58
17
53
137
87
76
78
33
112
63
85
147
114
38
155
130
153
149
134
102
27
40
133
108
125
66
62
13
10
123
142
132
109
26
91
124
52
121
7
19
22
45
68
129
30
23
141
9
20
29
81
93
18
11
117
60
64
61
82
49
65
25
148
50
143
154
77
15
8
107
2
16
14
3
67
4

> <PUBCHEM_MMFF94_PARTIAL_CHARGES>
44
1 -0.57
10 -0.73
11 -0.8
17 0.06
18 0.06
19 0.57
2 -0.65
20 0.66
21 0.44
22 0.28
23 0.28
24 -0.29
25 0.14
26 -0.12
27 0.62
28 0.36
29 0.14
3 -0.57
30 0.57
31 -0.14
32 -0.15
33 -0.15
34 -0.15
35 -0.15
36 0.08
4 -0.68
5 -0.68
50 0.37
53 0.15
56 0.5
57 0.4
58 0.4
59 0.37
6 -0.57
63 0.15
64 0.15
65 0.37
66 0.37
67 0.15
68 0.15
69 0.45
7 -0.57
8 -0.53
9 -0.73

> <PUBCHEM_EFFECTIVE_ROTOR_COUNT>
13.8

> <PUBCHEM_PHARMACOPHORE_FEATURES>
17
1 1 acceptor
1 10 donor
1 11 donor
1 2 acceptor
1 3 acceptor
1 4 acceptor
1 4 donor
1 5 acceptor
1 5 donor
1 6 acceptor
1 7 acceptor
1 8 donor
1 9 donor
3 2 3 20 anion
5 12 13 14 15 16 rings
6 21 22 23 24 25 26 rings
6 31 32 33 34 35 36 rings

> <PUBCHEM_HEAVY_ATOM_COUNT>
36

> <PUBCHEM_ATOM_DEF_STEREO_COUNT>
4

> <PUBCHEM_ATOM_UDEF_STEREO_COUNT>
0

> <PUBCHEM_BOND_DEF_STEREO_COUNT>
0

> <PUBCHEM_BOND_UDEF_STEREO_COUNT>
0

> <PUBCHEM_ISOTOPIC_ATOM_COUNT>
0

> <PUBCHEM_COMPONENT_COUNT>
1

> <PUBCHEM_CACTVS_TAUTO_COUNT>
16

> <PUBCHEM_CONFORMER_ID>
006CDCF000000001

> <PUBCHEM_MMFF94_ENERGY>
83.7762

> <PUBCHEM_FEATURE_SELFOVERLAP>
86.342

> <PUBCHEM_SHAPE_FINGERPRINT>
10439779 11 17689417309612606938
10556698 54 18196942071372461214
10670039 82 18335143077103458476
10864689 126 18410849963013388285
11059048 146 18266746774933992224
11135609 149 17129599942830003382
11513181 2 18270684147342329494
12788726 201 18408038515648754008
13402501 40 18337946891614972681
15082195 135 18122886661061015567
15320467 1 18338509871533172257
15351339 4 18338511937786449184
15927050 60 18268986480837618989
15968369 153 18200296818819608104
16067689 391 17555191159683361126
17627616 140 18048598127238025728
19611394 137 17825677922208134667
20764821 26 18193273001150057040
21033648 144 18128824225735541494
21859007 373 18271517702680269362
325973 47 18338515368922681337
3383291 50 18337102492828755787
3882209 13 11860920069218200209
437795 96 17836066145925430680
463206 1 18194113251704169605
50150288 127 16772126730512413769
508706 21 18409738356657479656
54324442 115 18340774822736645032
6004065 56 18195516220484163671
6371009 1 18192126262009075098
6608658 132 18411408540737763623

> <PUBCHEM_SHAPE_MULTIPOLES>
678.97
13.57
7.49
1.37
6.23
1.37
-0.12
5.02
-4.36
-4.52
1.82
0.77
-0.38
0.84

> <PUBCHEM_SHAPE_SELFOVERLAP>
1429.708

> <PUBCHEM_SHAPE_VOLUME>
378.7

> <PUBCHEM_COORDINATE_TYPE>
2
5
10

$$$$
