45360967
  -OEChem-12032416253D

 69 73  0     1  0  0  0  0  0999 V2000
    1.7974   -1.8533   -0.8232 O   0  0  0  0  0  0  0  0  0  0  0  0
   -4.8506   -0.1326   -2.2888 O   0  0  0  0  0  0  0  0  0  0  0  0
    3.0855    0.2329    0.3086 N   0  0  1  0  0  0  0  0  0  0  0  0
   -0.2709    1.4084   -0.5535 N   0  0  1  0  0  0  0  0  0  0  0  0
   -0.2242   -1.3907    0.1438 N   0  0  0  0  0  0  0  0  0  0  0  0
    5.9612   -1.0367   -0.1333 N   0  0  0  0  0  0  0  0  0  0  0  0
    6.2806    0.4654    1.4736 N   0  0  0  0  0  0  0  0  0  0  0  0
   -6.2424   -0.0093   -0.4350 N   0  0  0  0  0  0  0  0  0  0  0  0
    0.9850    1.4465    0.2281 C   0  0  1  0  0  0  0  0  0  0  0  0
    1.6516    0.0968    0.6261 C   0  0  1  0  0  0  0  0  0  0  0  0
    2.1402    2.1779   -0.4806 C   0  0  0  0  0  0  0  0  0  0  0  0
    3.3732    1.6606    0.2298 C   0  0  0  0  0  0  0  0  0  0  0  0
   -1.4194    0.7788    0.1560 C   0  0  2  0  0  0  0  0  0  0  0  0
    1.1105   -1.1304   -0.1028 C   0  0  0  0  0  0  0  0  0  0  0  0
   -1.0792   -0.5153    0.9208 C   0  0  0  0  0  0  0  0  0  0  0  0
    3.9546   -0.4500    1.2584 C   0  0  0  0  0  0  0  0  0  0  0  0
   -2.5513    0.4460   -0.8388 C   0  0  0  0  0  0  0  0  0  0  0  0
   -0.6373    2.7558   -1.0218 C   0  0  0  0  0  0  0  0  0  0  0  0
    5.4038   -0.3195    0.8885 C   0  0  0  0  0  0  0  0  0  0  0  0
   -3.8895    0.3794   -0.1264 C   0  0  0  0  0  0  0  0  0  0  0  0
   -5.0191    0.0516   -1.0864 C   0  0  0  0  0  0  0  0  0  0  0  0
    7.2860   -0.6915   -0.2129 C   0  0  0  0  0  0  0  0  0  0  0  0
    7.4606    0.2471    0.8002 C   0  0  0  0  0  0  0  0  0  0  0  0
    5.2797   -1.9894   -0.9805 C   0  0  0  0  0  0  0  0  0  0  0  0
    8.3151   -1.1073   -1.0584 C   0  0  0  0  0  0  0  0  0  0  0  0
    8.7308    0.8153    0.9959 C   0  0  0  0  0  0  0  0  0  0  0  0
   -7.4724   -0.3043   -1.1310 C   0  0  0  0  0  0  0  0  0  0  0  0
    9.5727   -0.5314   -0.8496 C   0  0  0  0  0  0  0  0  0  0  0  0
    9.7791    0.4129    0.1588 C   0  0  0  0  0  0  0  0  0  0  0  0
   -8.6541   -0.3117   -0.2048 C   0  0  0  0  0  0  0  0  0  0  0  0
   -9.0354   -1.4940    0.4293 C   0  0  0  0  0  0  0  0  0  0  0  0
   -9.3704    0.8635    0.0217 C   0  0  0  0  0  0  0  0  0  0  0  0
  -10.1333   -1.5014    1.2899 C   0  0  0  0  0  0  0  0  0  0  0  0
  -10.4682    0.8563    0.8821 C   0  0  0  0  0  0  0  0  0  0  0  0
  -10.8497   -0.3262    1.5162 C   0  0  0  0  0  0  0  0  0  0  0  0
    0.7930    1.9984    1.1614 H   0  0  0  0  0  0  0  0  0  0  0  0
    1.5192   -0.0573    1.7051 H   0  0  0  0  0  0  0  0  0  0  0  0
    2.1807    1.9129   -1.5457 H   0  0  0  0  0  0  0  0  0  0  0  0
    2.0609    3.2667   -0.3962 H   0  0  0  0  0  0  0  0  0  0  0  0
    3.4609    2.1242    1.2208 H   0  0  0  0  0  0  0  0  0  0  0  0
    4.2745    1.8814   -0.3506 H   0  0  0  0  0  0  0  0  0  0  0  0
   -1.7977    1.4959    0.8982 H   0  0  0  0  0  0  0  0  0  0  0  0
   -1.9661   -1.0971    1.1858 H   0  0  0  0  0  0  0  0  0  0  0  0
   -0.5848   -0.2782    1.8682 H   0  0  0  0  0  0  0  0  0  0  0  0
    3.6937   -1.5130    1.3230 H   0  0  0  0  0  0  0  0  0  0  0  0
    3.8197   -0.0439    2.2702 H   0  0  0  0  0  0  0  0  0  0  0  0
   -2.6476    1.1808   -1.6415 H   0  0  0  0  0  0  0  0  0  0  0  0
   -2.3446   -0.5017   -1.3537 H   0  0  0  0  0  0  0  0  0  0  0  0
   -0.6411   -2.2071   -0.2928 H   0  0  0  0  0  0  0  0  0  0  0  0
   -0.7644    3.4490   -0.1819 H   0  0  0  0  0  0  0  0  0  0  0  0
    0.1281    3.1630   -1.6905 H   0  0  0  0  0  0  0  0  0  0  0  0
   -1.5526    2.7870   -1.6153 H   0  0  0  0  0  0  0  0  0  0  0  0
   -3.8959   -0.3829    0.6588 H   0  0  0  0  0  0  0  0  0  0  0  0
   -4.1164    1.3452    0.3413 H   0  0  0  0  0  0  0  0  0  0  0  0
    4.7316   -2.6956   -0.3525 H   0  0  0  0  0  0  0  0  0  0  0  0
    4.5993   -1.4404   -1.6359 H   0  0  0  0  0  0  0  0  0  0  0  0
    6.0003   -2.5447   -1.5834 H   0  0  0  0  0  0  0  0  0  0  0  0
   -6.2757    0.1603    0.5667 H   0  0  0  0  0  0  0  0  0  0  0  0
    8.1637   -1.8379   -1.8444 H   0  0  0  0  0  0  0  0  0  0  0  0
    8.9013    1.5498    1.7765 H   0  0  0  0  0  0  0  0  0  0  0  0
   -7.6049    0.4389   -1.9266 H   0  0  0  0  0  0  0  0  0  0  0  0
   -7.3618   -1.2744   -1.6303 H   0  0  0  0  0  0  0  0  0  0  0  0
   10.4048   -0.8247   -1.4849 H   0  0  0  0  0  0  0  0  0  0  0  0
   10.7679    0.8428    0.2967 H   0  0  0  0  0  0  0  0  0  0  0  0
   -8.4842   -2.4157    0.2622 H   0  0  0  0  0  0  0  0  0  0  0  0
   -9.0820    1.7913   -0.4652 H   0  0  0  0  0  0  0  0  0  0  0  0
  -10.4300   -2.4219    1.7839 H   0  0  0  0  0  0  0  0  0  0  0  0
  -11.0258    1.7714    1.0589 H   0  0  0  0  0  0  0  0  0  0  0  0
  -11.7043   -0.3317    2.1864 H   0  0  0  0  0  0  0  0  0  0  0  0
  1 14  2  0  0  0  0
  2 21  2  0  0  0  0
  3 10  1  0  0  0  0
  3 12  1  0  0  0  0
  3 16  1  0  0  0  0
  4  9  1  0  0  0  0
  4 13  1  0  0  0  0
  4 18  1  0  0  0  0
  5 14  1  0  0  0  0
  5 15  1  0  0  0  0
  5 49  1  0  0  0  0
  6 19  1  0  0  0  0
  6 22  1  0  0  0  0
  6 24  1  0  0  0  0
  7 19  2  0  0  0  0
  7 23  1  0  0  0  0
  8 21  1  0  0  0  0
  8 27  1  0  0  0  0
  8 58  1  0  0  0  0
  9 10  1  0  0  0  0
  9 11  1  0  0  0  0
  9 36  1  0  0  0  0
 10 14  1  0  0  0  0
 10 37  1  0  0  0  0
 11 12  1  0  0  0  0
 11 38  1  0  0  0  0
 11 39  1  0  0  0  0
 12 40  1  0  0  0  0
 12 41  1  0  0  0  0
 13 15  1  0  0  0  0
 13 17  1  0  0  0  0
 13 42  1  0  0  0  0
 15 43  1  0  0  0  0
 15 44  1  0  0  0  0
 16 19  1  0  0  0  0
 16 45  1  0  0  0  0
 16 46  1  0  0  0  0
 17 20  1  0  0  0  0
 17 47  1  0  0  0  0
 17 48  1  0  0  0  0
 18 50  1  0  0  0  0
 18 51  1  0  0  0  0
 18 52  1  0  0  0  0
 20 21  1  0  0  0  0
 20 53  1  0  0  0  0
 20 54  1  0  0  0  0
 22 23  1  0  0  0  0
 22 25  2  0  0  0  0
 23 26  2  0  0  0  0
 24 55  1  0  0  0  0
 24 56  1  0  0  0  0
 24 57  1  0  0  0  0
 25 28  1  0  0  0  0
 25 59  1  0  0  0  0
 26 29  1  0  0  0  0
 26 60  1  0  0  0  0
 27 30  1  0  0  0  0
 27 61  1  0  0  0  0
 27 62  1  0  0  0  0
 28 29  2  0  0  0  0
 28 63  1  0  0  0  0
 29 64  1  0  0  0  0
 30 31  2  0  0  0  0
 30 32  1  0  0  0  0
 31 33  1  0  0  0  0
 31 65  1  0  0  0  0
 32 34  2  0  0  0  0
 32 66  1  0  0  0  0
 33 35  2  0  0  0  0
 33 67  1  0  0  0  0
 34 35  1  0  0  0  0
 34 68  1  0  0  0  0
 35 69  1  0  0  0  0
M  END
> <PUBCHEM_COMPOUND_CID>
45360967

> <PUBCHEM_CONFORMER_RMSD>
1.4

> <PUBCHEM_CONFORMER_DIVERSEORDER>
3
54
124
81
95
64
50
16
82
24
30
139
41
103
45
88
97
79
27
136
42
118
2
80
113
109
22
101
29
94
112
125
76
87
70
36
123
32
130
38
141
104
26
63
61
83
46
137
53
100
51
17
128
71
96
68
85
67
21
60
13
6
47
39
105
120
74
90
31
126
111
122
7
73
99
78
69
59
89
65
129
119
40
115
44
15
58
93
35
75
106
14
132
92
12
131
48
25
49
98
133
135
142
20
56
28
5
138
134
86
114
18
102
107
110
72
10
62
33
23
1
9
84
19
34
140
108
43
121
57
91
55
37
127
77
11
8
4
116
66
117
52

> <PUBCHEM_MMFF94_PARTIAL_CHARGES>
44
1 -0.57
10 0.33
12 0.27
13 0.27
14 0.57
15 0.3
16 0.45
18 0.27
19 0.01
2 -0.57
20 0.06
21 0.57
22 -0.15
23 0.23
24 0.26
25 -0.15
26 -0.15
27 0.44
28 -0.15
29 -0.15
3 -0.81
30 -0.14
31 -0.15
32 -0.15
33 -0.15
34 -0.15
35 -0.15
4 -0.81
49 0.37
5 -0.73
58 0.37
59 0.15
6 0.05
60 0.15
63 0.15
64 0.15
65 0.15
66 0.15
67 0.15
68 0.15
69 0.15
7 -0.57
8 -0.73
9 0.27

> <PUBCHEM_EFFECTIVE_ROTOR_COUNT>
9.4

> <PUBCHEM_PHARMACOPHORE_FEATURES>
12
1 1 acceptor
1 2 acceptor
1 3 cation
1 4 cation
1 5 donor
1 8 donor
3 6 7 19 cation
5 3 9 10 11 12 rings
5 6 7 19 22 23 rings
6 22 23 25 26 28 29 rings
6 30 31 32 33 34 35 rings
7 4 5 9 10 13 14 15 rings

> <PUBCHEM_HEAVY_ATOM_COUNT>
35

> <PUBCHEM_ATOM_DEF_STEREO_COUNT>
3

> <PUBCHEM_ATOM_UDEF_STEREO_COUNT>
0

> <PUBCHEM_BOND_DEF_STEREO_COUNT>
0

> <PUBCHEM_BOND_UDEF_STEREO_COUNT>
0

> <PUBCHEM_ISOTOPIC_ATOM_COUNT>
0

> <PUBCHEM_COMPONENT_COUNT>
1

> <PUBCHEM_CACTVS_TAUTO_COUNT>
6

> <PUBCHEM_CONFORMER_ID>
02B4274700000003

> <PUBCHEM_MMFF94_ENERGY>
84.515

> <PUBCHEM_FEATURE_SELFOVERLAP>
61.043

> <PUBCHEM_SHAPE_FINGERPRINT>
10076449 9 17530682109165363253
10162869 55 14056721244762738238
11409948 35 16128384718911750062
11443803 9 10665228159291424657
12013929 2 12175626178844797604
12089408 11 14273728530548153901
12522641 33 16271929306953800847
12559415 90 9223238425007782599
13617811 41 18333454227733850732
14251764 46 18186521003554844283
14344974 52 14779554512509911316
14359421 15 17130724778297341038
15061470 23 13758071900752844018
15461852 350 15285354016900232247
15840311 113 17968098659986319188
16067689 302 18339643343520423614
16728433 110 17676205801100031725
17686467 74 15068622699964443197
1818759 1 18408323289671907651
19315958 150 16845578604146726119
20105231 36 18408882932232141879
21150785 3 15068337900208264797
21267235 1 18335419067417637381
21403212 168 10519984872342927884
21585481 151 18336266825854379131
21792965 184 18340218401414049945
232437 2 17676486146420656915
249057 3 18261107508686060183
3092352 35 15574710292694984616
3178227 256 18409444795737639659
335352 9 18260827115734984174
395649 100 12685101397772897529
44389302 135 15626222374176677222
4461854 278 18202282520099069255
4874694 18 12612754610021701864
5381727 24 15068614981486303168
54039377 194 18333449850982710797
636775 8 15285362843522191113
636783 248 17346598629521232056
6691757 9 14851894626030382361
67123 10 14562529574698766923
9663363 56 18334011701672398168

> <PUBCHEM_SHAPE_MULTIPOLES>
678.66
40.88
1.8
1.32
53.72
0.53
0.12
-9.55
-8.19
-0.29
0.34
0.74
-0.12
1.77

> <PUBCHEM_SHAPE_SELFOVERLAP>
1457.158

> <PUBCHEM_SHAPE_VOLUME>
373.3

> <PUBCHEM_COORDINATE_TYPE>
2
5
10

$$$$
