45783817
  -OEChem-12032416263D

 52 55  0     1  0  0  0  0  0999 V2000
   -1.5171   -1.5293    1.9683 O   0  0  0  0  0  0  0  0  0  0  0  0
   -3.6428   -0.4027   -0.8096 N   0  0  1  0  0  0  0  0  0  0  0  0
   -0.8077   -0.9966   -0.0884 N   0  0  0  0  0  0  0  0  0  0  0  0
   -0.1215   -1.4402    2.0486 N   0  0  0  0  0  0  0  0  0  0  0  0
    3.9284   -0.8847    0.9985 N   0  0  0  0  0  0  0  0  0  0  0  0
    5.5553   -0.3758   -0.6656 N   0  0  0  0  0  0  0  0  0  0  0  0
   -3.3108   -1.2858    0.3263 C   0  0  1  0  0  0  0  0  0  0  0  0
   -3.7879   -2.6828   -0.1119 C   0  0  0  0  0  0  0  0  0  0  0  0
   -4.4277   -2.4745   -1.4773 C   0  0  0  0  0  0  0  0  0  0  0  0
   -4.7968   -1.0048   -1.4777 C   0  0  0  0  0  0  0  0  0  0  0  0
   -3.8979    0.9754   -0.4104 C   0  0  0  0  0  0  0  0  0  0  0  0
   -1.8380   -1.2544    0.6769 C   0  0  0  0  0  0  0  0  0  0  0  0
   -2.6204    1.7373   -0.1775 C   0  0  0  0  0  0  0  0  0  0  0  0
   -2.3697    2.3142    1.0675 C   0  0  0  0  0  0  0  0  0  0  0  0
   -1.6889    1.8687   -1.2074 C   0  0  0  0  0  0  0  0  0  0  0  0
    0.2230   -1.1226    0.7970 C   0  0  0  0  0  0  0  0  0  0  0  0
   -1.1876    3.0226    1.2825 C   0  0  0  0  0  0  0  0  0  0  0  0
   -0.5068    2.5771   -0.9924 C   0  0  0  0  0  0  0  0  0  0  0  0
   -0.2559    3.1540    0.2526 C   0  0  0  0  0  0  0  0  0  0  0  0
    1.5868   -0.9259    0.3984 C   0  0  0  0  0  0  0  0  0  0  0  0
    1.0077    3.9121    0.4829 C   0  0  0  0  0  0  0  0  0  0  0  0
    1.9096   -0.5975   -0.9135 C   0  0  0  0  0  0  0  0  0  0  0  0
    2.6236   -1.0566    1.3082 C   0  0  0  0  0  0  0  0  0  0  0  0
    3.2408   -0.4126   -1.2706 C   0  0  0  0  0  0  0  0  0  0  0  0
    4.2037   -0.5663   -0.2861 C   0  0  0  0  0  0  0  0  0  0  0  0
    5.8865   -0.0354   -2.0316 C   0  0  0  0  0  0  0  0  0  0  0  0
    6.6119   -0.5129    0.3124 C   0  0  0  0  0  0  0  0  0  0  0  0
   -3.8858   -1.0038    1.2195 H   0  0  0  0  0  0  0  0  0  0  0  0
   -2.9861   -3.4271   -0.1675 H   0  0  0  0  0  0  0  0  0  0  0  0
   -4.5419   -3.0528    0.5935 H   0  0  0  0  0  0  0  0  0  0  0  0
   -5.2935   -3.1249   -1.6320 H   0  0  0  0  0  0  0  0  0  0  0  0
   -3.6965   -2.6857   -2.2675 H   0  0  0  0  0  0  0  0  0  0  0  0
   -4.9296   -0.6239   -2.4951 H   0  0  0  0  0  0  0  0  0  0  0  0
   -5.7237   -0.8451   -0.9123 H   0  0  0  0  0  0  0  0  0  0  0  0
   -4.4244    1.5057   -1.2165 H   0  0  0  0  0  0  0  0  0  0  0  0
   -4.5642    1.0297    0.4606 H   0  0  0  0  0  0  0  0  0  0  0  0
   -3.0855    2.2181    1.8794 H   0  0  0  0  0  0  0  0  0  0  0  0
   -1.8720    1.4286   -2.1842 H   0  0  0  0  0  0  0  0  0  0  0  0
   -1.0028    3.4651    2.2577 H   0  0  0  0  0  0  0  0  0  0  0  0
    0.2124    2.6710   -1.8018 H   0  0  0  0  0  0  0  0  0  0  0  0
    0.8773    4.6769    1.2560 H   0  0  0  0  0  0  0  0  0  0  0  0
    1.3278    4.4285   -0.4284 H   0  0  0  0  0  0  0  0  0  0  0  0
    1.8026    3.2284    0.7976 H   0  0  0  0  0  0  0  0  0  0  0  0
    1.1450   -0.4792   -1.6770 H   0  0  0  0  0  0  0  0  0  0  0  0
    2.4566   -1.3104    2.3508 H   0  0  0  0  0  0  0  0  0  0  0  0
    3.4482   -0.1573   -2.3026 H   0  0  0  0  0  0  0  0  0  0  0  0
    5.5733   -0.8212   -2.7283 H   0  0  0  0  0  0  0  0  0  0  0  0
    5.4433    0.9230   -2.3250 H   0  0  0  0  0  0  0  0  0  0  0  0
    6.9688    0.0758   -2.1650 H   0  0  0  0  0  0  0  0  0  0  0  0
    6.4846    0.2117    1.1243 H   0  0  0  0  0  0  0  0  0  0  0  0
    6.6165   -1.5219    0.7393 H   0  0  0  0  0  0  0  0  0  0  0  0
    7.6021   -0.3412   -0.1228 H   0  0  0  0  0  0  0  0  0  0  0  0
  1  4  1  0  0  0  0
  1 12  1  0  0  0  0
  2  7  1  0  0  0  0
  2 10  1  0  0  0  0
  2 11  1  0  0  0  0
  3 12  2  0  0  0  0
  3 16  1  0  0  0  0
  4 16  2  0  0  0  0
  5 23  1  0  0  0  0
  5 25  2  0  0  0  0
  6 25  1  0  0  0  0
  6 26  1  0  0  0  0
  6 27  1  0  0  0  0
  7  8  1  0  0  0  0
  7 12  1  0  0  0  0
  7 28  1  0  0  0  0
  8  9  1  0  0  0  0
  8 29  1  0  0  0  0
  8 30  1  0  0  0  0
  9 10  1  0  0  0  0
  9 31  1  0  0  0  0
  9 32  1  0  0  0  0
 10 33  1  0  0  0  0
 10 34  1  0  0  0  0
 11 13  1  0  0  0  0
 11 35  1  0  0  0  0
 11 36  1  0  0  0  0
 13 14  2  0  0  0  0
 13 15  1  0  0  0  0
 14 17  1  0  0  0  0
 14 37  1  0  0  0  0
 15 18  2  0  0  0  0
 15 38  1  0  0  0  0
 16 20  1  0  0  0  0
 17 19  2  0  0  0  0
 17 39  1  0  0  0  0
 18 19  1  0  0  0  0
 18 40  1  0  0  0  0
 19 21  1  0  0  0  0
 20 22  1  0  0  0  0
 20 23  2  0  0  0  0
 21 41  1  0  0  0  0
 21 42  1  0  0  0  0
 21 43  1  0  0  0  0
 22 24  2  0  0  0  0
 22 44  1  0  0  0  0
 23 45  1  0  0  0  0
 24 25  1  0  0  0  0
 24 46  1  0  0  0  0
 26 47  1  0  0  0  0
 26 48  1  0  0  0  0
 26 49  1  0  0  0  0
 27 50  1  0  0  0  0
 27 51  1  0  0  0  0
 27 52  1  0  0  0  0
M  END
> <PUBCHEM_COMPOUND_CID>
45783817

> <PUBCHEM_CONFORMER_RMSD>
0.8

> <PUBCHEM_CONFORMER_DIVERSEORDER>
1
14
16
7
59
24
45
60
2
41
74
42
25
28
69
55
48
70
3
47
64
12
50
71
63
5
22
77
11
73
57
6
35
33
72
27
46
34
23
29
75
17
44
76
52
43
10
8
31
53
32
58
66
40
26
15
67
62
56
37
21
36
4
39
30
61
51
13
68
54
18
49
38
19
65
20
9

> <PUBCHEM_MMFF94_PARTIAL_CHARGES>
32
1 -0.02
10 0.27
11 0.41
12 0.3
13 -0.14
14 -0.15
15 -0.15
16 0.46
17 -0.15
18 -0.15
19 -0.14
2 -0.81
20 0.05
21 0.14
22 -0.15
23 0.16
24 -0.15
25 0.41
26 0.37
27 0.37
3 -0.57
37 0.15
38 0.15
39 0.15
4 -0.41
40 0.15
44 0.15
45 0.15
46 0.15
5 -0.62
6 -0.84
7 0.45

> <PUBCHEM_EFFECTIVE_ROTOR_COUNT>
6

> <PUBCHEM_PHARMACOPHORE_FEATURES>
7
1 2 cation
3 3 4 16 cation
3 5 6 25 cation
5 1 3 4 12 16 rings
5 2 7 8 9 10 rings
6 13 14 15 17 18 19 rings
6 5 20 22 23 24 25 rings

> <PUBCHEM_HEAVY_ATOM_COUNT>
27

> <PUBCHEM_ATOM_DEF_STEREO_COUNT>
1

> <PUBCHEM_ATOM_UDEF_STEREO_COUNT>
0

> <PUBCHEM_BOND_DEF_STEREO_COUNT>
0

> <PUBCHEM_BOND_UDEF_STEREO_COUNT>
0

> <PUBCHEM_ISOTOPIC_ATOM_COUNT>
0

> <PUBCHEM_COMPONENT_COUNT>
1

> <PUBCHEM_CACTVS_TAUTO_COUNT>
1

> <PUBCHEM_CONFORMER_ID>
02BA9B0900000001

> <PUBCHEM_MMFF94_ENERGY>
69.7559

> <PUBCHEM_FEATURE_SELFOVERLAP>
35.524

> <PUBCHEM_SHAPE_FINGERPRINT>
10871710 139 18114744807332344101
10937287 8 17478052653082274457
1100329 8 18411981343673404169
12156800 1 15074186159322363796
12166972 35 17603871164496566566
12788726 201 18262231123379982386
13009979 54 17681807649840535035
13782708 43 17560814186944367670
14787075 74 18334011692381070948
14790565 3 17836362649583748097
14910302 57 17917149373438909598
14931854 50 18114174224942359415
15183329 4 17896047551554982926
17357779 13 18341607152775114473
17492 54 18115294589205958829
17818456 19 17976241457769343978
19319366 153 17751919113045303907
20642791 239 18188197742040415197
20642791 35 18337094732055343509
20691752 17 17604692483162112961
20775438 99 17187542375483820719
20905425 154 18122621927856151629
21304303 64 17095245791971719221
21344244 246 17765141057743417095
21623110 236 18336276720731438020
23402539 116 18410011039635883350
23419403 2 17974536334209131405
23557571 272 18272931600569514862
23559900 14 18268135621439393753
392239 28 18411138018101912864
4280585 95 18339911701439229773
5171179 24 18270674393413687809
531348 171 18127982910246174966
57527585 103 17460912598239502387
7471813 234 18339922739784755750

> <PUBCHEM_SHAPE_MULTIPOLES>
524.87
11.24
3.76
1.67
15.66
3.96
0.05
-6.64
-4.87
-3.53
0.54
0.31
-0.39
-0.79

> <PUBCHEM_SHAPE_SELFOVERLAP>
1132.458

> <PUBCHEM_SHAPE_VOLUME>
291.4

> <PUBCHEM_COORDINATE_TYPE>
2
5
10

$$$$
