11941660
  -OEChem-12032416163D

 63 67  0     1  0  0  0  0  0999 V2000
   -0.0227   -3.8414    0.8792 O   0  0  0  0  0  0  0  0  0  0  0  0
   -1.0799   -1.2040    2.1688 O   0  0  0  0  0  0  0  0  0  0  0  0
    3.8664   -1.9588    0.9692 O   0  0  0  0  0  0  0  0  0  0  0  0
   -7.1908    3.7714    1.4945 O   0  0  0  0  0  0  0  0  0  0  0  0
    9.9302    1.0671   -0.7578 O   0  0  0  0  0  0  0  0  0  0  0  0
   -2.2818   -2.7315   -0.9217 N   0  0  0  0  0  0  0  0  0  0  0  0
    1.9313   -0.8128    1.5053 N   0  0  0  0  0  0  0  0  0  0  0  0
    3.7600    0.3795    0.7908 N   0  0  0  0  0  0  0  0  0  0  0  0
   -3.7552   -0.9376   -0.8624 N   0  0  0  0  0  0  0  0  0  0  0  0
   -3.2326   -2.0587   -2.9306 N   0  0  0  0  0  0  0  0  0  0  0  0
   -0.9695   -1.6595    0.8098 C   0  0  1  0  0  0  0  0  0  0  0  0
    0.3167   -2.4556    0.7054 C   0  0  1  0  0  0  0  0  0  0  0  0
   -2.0532   -2.6666    0.5052 C   0  0  2  0  0  0  0  0  0  0  0  0
    1.1471   -1.9676    1.8704 C   0  0  2  0  0  0  0  0  0  0  0  0
   -1.4473   -3.9674    0.9995 C   0  0  0  0  0  0  0  0  0  0  0  0
    0.0876   -1.6110    2.8978 C   0  0  0  0  0  0  0  0  0  0  0  0
   -3.1265   -1.8717   -1.6012 C   0  0  0  0  0  0  0  0  0  0  0  0
    3.2603   -0.8950    1.0726 C   0  0  0  0  0  0  0  0  0  0  0  0
   -4.5707   -0.1170   -1.5566 C   0  0  0  0  0  0  0  0  0  0  0  0
    5.0529    0.7229    0.3312 C   0  0  0  0  0  0  0  0  0  0  0  0
   -4.0641   -1.2036   -3.5612 C   0  0  0  0  0  0  0  0  0  0  0  0
   -4.7660   -0.2036   -2.9199 C   0  0  0  0  0  0  0  0  0  0  0  0
   -5.2455    0.8863   -0.7686 C   0  0  0  0  0  0  0  0  0  0  0  0
    5.3793    2.0597    0.1022 C   0  0  0  0  0  0  0  0  0  0  0  0
    6.0009   -0.2751    0.1059 C   0  0  0  0  0  0  0  0  0  0  0  0
    6.6539    2.3982   -0.3521 C   0  0  0  0  0  0  0  0  0  0  0  0
    7.2754    0.0635   -0.3485 C   0  0  0  0  0  0  0  0  0  0  0  0
   -6.6395    0.9203   -0.7305 C   0  0  0  0  0  0  0  0  0  0  0  0
   -4.5051    1.8224   -0.0465 C   0  0  0  0  0  0  0  0  0  0  0  0
    7.6020    1.4001   -0.5775 C   0  0  0  0  0  0  0  0  0  0  0  0
   -7.2931    1.8903    0.0295 C   0  0  0  0  0  0  0  0  0  0  0  0
   -5.1587    2.7924    0.7134 C   0  0  0  0  0  0  0  0  0  0  0  0
   -6.5526    2.8264    0.7514 C   0  0  0  0  0  0  0  0  0  0  0  0
    8.9309    1.7537   -1.0505 C   0  0  0  0  0  0  0  0  0  0  0  0
    9.1329    2.9867   -1.9247 C   0  0  0  0  0  0  0  0  0  0  0  0
   -6.3731    4.6977    2.2080 C   0  0  0  0  0  0  0  0  0  0  0  0
   -0.9714   -0.7717    0.1695 H   0  0  0  0  0  0  0  0  0  0  0  0
    0.8037   -2.3569   -0.2702 H   0  0  0  0  0  0  0  0  0  0  0  0
   -2.9911   -2.4826    1.0419 H   0  0  0  0  0  0  0  0  0  0  0  0
    1.8188   -2.7381    2.2639 H   0  0  0  0  0  0  0  0  0  0  0  0
   -1.6692   -4.1229    2.0611 H   0  0  0  0  0  0  0  0  0  0  0  0
   -1.7804   -4.8517    0.4474 H   0  0  0  0  0  0  0  0  0  0  0  0
    0.3859   -0.8106    3.5817 H   0  0  0  0  0  0  0  0  0  0  0  0
   -0.1910   -2.4874    3.4934 H   0  0  0  0  0  0  0  0  0  0  0  0
   -1.7656   -3.4029   -1.4789 H   0  0  0  0  0  0  0  0  0  0  0  0
    1.4788    0.0965    1.4995 H   0  0  0  0  0  0  0  0  0  0  0  0
    3.1243    1.1605    0.9318 H   0  0  0  0  0  0  0  0  0  0  0  0
   -4.1525   -1.3485   -4.6327 H   0  0  0  0  0  0  0  0  0  0  0  0
   -5.4190    0.4629   -3.4696 H   0  0  0  0  0  0  0  0  0  0  0  0
    4.6505    2.8470    0.2763 H   0  0  0  0  0  0  0  0  0  0  0  0
    5.8230   -1.3302    0.2587 H   0  0  0  0  0  0  0  0  0  0  0  0
    6.8851    3.4479   -0.5099 H   0  0  0  0  0  0  0  0  0  0  0  0
    8.0007   -0.7273   -0.5227 H   0  0  0  0  0  0  0  0  0  0  0  0
   -7.2357    0.1966   -1.2815 H   0  0  0  0  0  0  0  0  0  0  0  0
   -3.4176    1.8126   -0.0670 H   0  0  0  0  0  0  0  0  0  0  0  0
   -8.3792    1.9109    0.0566 H   0  0  0  0  0  0  0  0  0  0  0  0
   -4.5229    3.4889    1.2493 H   0  0  0  0  0  0  0  0  0  0  0  0
    9.9922    2.8214   -2.5816 H   0  0  0  0  0  0  0  0  0  0  0  0
    8.2610    3.1584   -2.5616 H   0  0  0  0  0  0  0  0  0  0  0  0
    9.3190    3.8576   -1.2915 H   0  0  0  0  0  0  0  0  0  0  0  0
   -5.7597    4.1944    2.9630 H   0  0  0  0  0  0  0  0  0  0  0  0
   -5.7733    5.3119    1.5279 H   0  0  0  0  0  0  0  0  0  0  0  0
   -7.0451    5.3767    2.7431 H   0  0  0  0  0  0  0  0  0  0  0  0
  1 12  1  0  0  0  0
  1 15  1  0  0  0  0
  2 11  1  0  0  0  0
  2 16  1  0  0  0  0
  3 18  2  0  0  0  0
  4 33  1  0  0  0  0
  4 36  1  0  0  0  0
  5 34  2  0  0  0  0
  6 13  1  0  0  0  0
  6 17  1  0  0  0  0
  6 45  1  0  0  0  0
  7 14  1  0  0  0  0
  7 18  1  0  0  0  0
  7 46  1  0  0  0  0
  8 18  1  0  0  0  0
  8 20  1  0  0  0  0
  8 47  1  0  0  0  0
  9 17  1  0  0  0  0
  9 19  2  0  0  0  0
 10 17  2  0  0  0  0
 10 21  1  0  0  0  0
 11 12  1  0  0  0  0
 11 13  1  0  0  0  0
 11 37  1  0  0  0  0
 12 14  1  0  0  0  0
 12 38  1  0  0  0  0
 13 15  1  0  0  0  0
 13 39  1  0  0  0  0
 14 16  1  0  0  0  0
 14 40  1  0  0  0  0
 15 41  1  0  0  0  0
 15 42  1  0  0  0  0
 16 43  1  0  0  0  0
 16 44  1  0  0  0  0
 19 22  1  0  0  0  0
 19 23  1  0  0  0  0
 20 24  2  0  0  0  0
 20 25  1  0  0  0  0
 21 22  2  0  0  0  0
 21 48  1  0  0  0  0
 22 49  1  0  0  0  0
 23 28  2  0  0  0  0
 23 29  1  0  0  0  0
 24 26  1  0  0  0  0
 24 50  1  0  0  0  0
 25 27  2  0  0  0  0
 25 51  1  0  0  0  0
 26 30  2  0  0  0  0
 26 52  1  0  0  0  0
 27 30  1  0  0  0  0
 27 53  1  0  0  0  0
 28 31  1  0  0  0  0
 28 54  1  0  0  0  0
 29 32  2  0  0  0  0
 29 55  1  0  0  0  0
 30 34  1  0  0  0  0
 31 33  2  0  0  0  0
 31 56  1  0  0  0  0
 32 33  1  0  0  0  0
 32 57  1  0  0  0  0
 34 35  1  0  0  0  0
 35 58  1  0  0  0  0
 35 59  1  0  0  0  0
 35 60  1  0  0  0  0
 36 61  1  0  0  0  0
 36 62  1  0  0  0  0
 36 63  1  0  0  0  0
M  END
> <PUBCHEM_COMPOUND_CID>
11941660

> <PUBCHEM_CONFORMER_RMSD>
1

> <PUBCHEM_CONFORMER_DIVERSEORDER>
1
19
75
108
111
115
14
50
97
76
122
27
40
45
70
109
21
126
127
74
4
71
90
103
10
38
16
133
79
49
82
68
48
96
44
140
94
3
52
118
119
142
47
73
43
46
104
23
28
18
53
139
98
24
125
134
20
93
33
8
124
130
136
86
72
138
81
36
80
63
105
7
62
131
69
100
42
32
22
35
29
141
17
78
59
88
121
129
58
11
77
64
112
116
85
101
25
99
65
30
51
89
87
31
92
67
12
95
117
110
123
60
66
34
26
39
91
114
57
107
83
55
2
61
9
5
37
106
132
54
143
84
15
13
6
113
120
56
41
135
137
102
128

> <PUBCHEM_MMFF94_PARTIAL_CHARGES>
48
1 -0.56
10 -0.62
11 0.28
12 0.28
13 0.37
14 0.3
15 0.28
16 0.28
17 0.72
18 0.69
19 0.31
2 -0.56
20 0.12
21 0.16
22 -0.15
24 -0.15
25 -0.15
26 -0.15
27 -0.15
28 -0.15
29 -0.15
3 -0.57
30 0.09
31 -0.15
32 -0.15
33 0.08
34 0.42
35 0.06
36 0.28
4 -0.36
45 0.4
46 0.37
47 0.37
48 0.15
49 0.15
5 -0.57
50 0.15
51 0.15
52 0.15
53 0.15
54 0.15
55 0.15
56 0.15
57 0.15
6 -0.87
7 -0.73
8 -0.55
9 -0.62

> <PUBCHEM_EFFECTIVE_ROTOR_COUNT>
10.2

> <PUBCHEM_PHARMACOPHORE_FEATURES>
15
1 1 acceptor
1 2 acceptor
1 3 acceptor
1 4 acceptor
1 5 acceptor
1 6 donor
1 7 donor
1 8 donor
1 9 acceptor
4 6 9 10 17 cation
5 1 11 12 13 15 rings
5 2 11 12 14 16 rings
6 20 24 25 26 27 30 rings
6 23 28 29 31 32 33 rings
6 9 10 17 19 21 22 rings

> <PUBCHEM_HEAVY_ATOM_COUNT>
36

> <PUBCHEM_ATOM_DEF_STEREO_COUNT>
4

> <PUBCHEM_ATOM_UDEF_STEREO_COUNT>
0

> <PUBCHEM_BOND_DEF_STEREO_COUNT>
0

> <PUBCHEM_BOND_UDEF_STEREO_COUNT>
0

> <PUBCHEM_ISOTOPIC_ATOM_COUNT>
0

> <PUBCHEM_COMPONENT_COUNT>
1

> <PUBCHEM_CACTVS_TAUTO_COUNT>
48

> <PUBCHEM_CONFORMER_ID>
00B6371C00000001

> <PUBCHEM_MMFF94_ENERGY>
121.6622

> <PUBCHEM_FEATURE_SELFOVERLAP>
76.883

> <PUBCHEM_SHAPE_FINGERPRINT>
10369192 42 18260832618163765867
10794284 68 18201434814742019415
10920273 25 18410019814454600705
10952577 141 18059298656690177249
11181472 205 18113901590342920468
11273773 42 18409444791389912077
11410812 94 17917989491260557472
1200032 147 18113899347425545922
12013929 29 18338235968947417864
12061779 8 18337390435562698865
12120059 9 16056328220770827686
13165053 182 18119539975242251624
13383665 225 17559949928377586117
13782708 43 12607137244413320262
14150022 121 17604441820154366155
14340393 48 18262503829130825064
14340393 91 17131548431193492624
14664723 55 18409166601836394661
14765038 42 18333167258544356997
14840074 17 18261382296852469197
15064981 194 17970639699407471342
15131766 46 18114727254127767229
15357212 105 18058171623217299955
15510800 12 13398625086817560542
15685185 35 18260553359036654544
16120349 67 18341896285921347595
16126227 98 18260831505223241672
16728433 281 18188775088956289148
16992727 255 18059570239670663121
16993427 108 9295280647225928383
17852330 134 18341901741273917758
17899979 129 18336548231853422962
19304152 47 15647317633329605655
20771845 35 9294992527814154150
21223535 225 18343294899108722128
21307412 95 14979951506331401871
21585480 29 8790885194590321052
21772528 278 18186526488338838419
21774942 28 18342449362393717528
21792965 184 11530779097992981832
24771750 20 17059211420438867231
3552219 110 18337935884711104863
3610482 184 18201423771536939367
38570 142 18411976928156665531
397830 11 12107776394563685890
44880568 143 17702936058875153480
4516262 110 18335975360482564469
474113 269 9727630588462429859
508180 173 17774998037762941408
57634706 229 18187934992366839130
5911458 16 18412262801064011689
5937810 71 17895196675399038268
6201320 82 17970365896176581020
6289498 60 16878493670768924196
6703917 75 18410576189282901995

> <PUBCHEM_SHAPE_MULTIPOLES>
686.61
27.81
5.09
2.71
52.08
1.19
-1.36
37.65
-10.04
-6.68
2.62
-4.04
-0.84
-7.48

> <PUBCHEM_SHAPE_SELFOVERLAP>
1498.217

> <PUBCHEM_SHAPE_VOLUME>
371.3

> <PUBCHEM_COORDINATE_TYPE>
2
5
10

$$$$
