75536565
  -OEChem-12032416303D

 48 50  0     1  0  0  0  0  0999 V2000
    0.5869   -1.1856   -0.4029 O   0  0  0  0  0  0  0  0  0  0  0  0
   -0.3628    2.0737    0.7723 O   0  0  0  0  0  0  0  0  0  0  0  0
    4.2298    1.3967    0.1185 O   0  0  0  0  0  0  0  0  0  0  0  0
    3.1935   -0.6152    0.6705 N   0  0  0  0  0  0  0  0  0  0  0  0
   -2.7566    0.1318    0.1600 N   0  0  0  0  0  0  0  0  0  0  0  0
   -7.2414    1.0603   -0.2356 N   0  0  0  0  0  0  0  0  0  0  0  0
    0.9158    0.0938    0.1636 C   0  0  1  0  0  0  0  0  0  0  0  0
   -0.3886    0.6610    0.7073 C   0  0  2  0  0  0  0  0  0  0  0  0
    5.3764   -0.6463   -0.3359 C   0  0  0  0  0  0  0  0  0  0  0  0
   -1.3823    0.1397   -0.3142 C   0  0  1  0  0  0  0  0  0  0  0  0
    6.3950   -0.8635    0.7889 C   0  0  0  0  0  0  0  0  0  0  0  0
    6.1200    0.0922   -1.4499 C   0  0  0  0  0  0  0  0  0  0  0  0
    7.7228   -0.3364    0.2555 C   0  0  0  0  0  0  0  0  0  0  0  0
    7.3226    0.7193   -0.7593 C   0  0  0  0  0  0  0  0  0  0  0  0
   -0.8392   -1.2553   -0.5773 C   0  0  0  0  0  0  0  0  0  0  0  0
    1.9863   -0.0755    1.2268 C   0  0  0  0  0  0  0  0  0  0  0  0
    4.2213    0.1692    0.1595 C   0  0  0  0  0  0  0  0  0  0  0  0
   -3.6920   -0.0493   -0.9437 C   0  0  0  0  0  0  0  0  0  0  0  0
   -5.1205   -0.0766   -0.4690 C   0  0  0  0  0  0  0  0  0  0  0  0
   -5.6471   -1.2025    0.1543 C   0  0  0  0  0  0  0  0  0  0  0  0
   -5.9516    1.0190   -0.6388 C   0  0  0  0  0  0  0  0  0  0  0  0
   -6.9699   -1.1982    0.5829 C   0  0  0  0  0  0  0  0  0  0  0  0
   -7.7182   -0.0524    0.3663 C   0  0  0  0  0  0  0  0  0  0  0  0
    1.3030    0.7214   -0.6500 H   0  0  0  0  0  0  0  0  0  0  0  0
   -0.6058    0.2650    1.7072 H   0  0  0  0  0  0  0  0  0  0  0  0
   -1.2963    0.7590   -1.2183 H   0  0  0  0  0  0  0  0  0  0  0  0
    5.0068   -1.6044   -0.7207 H   0  0  0  0  0  0  0  0  0  0  0  0
    6.4782   -1.9230    1.0543 H   0  0  0  0  0  0  0  0  0  0  0  0
    6.1171   -0.3229    1.7018 H   0  0  0  0  0  0  0  0  0  0  0  0
    6.4729   -0.6354   -2.1920 H   0  0  0  0  0  0  0  0  0  0  0  0
    5.5199    0.8351   -1.9845 H   0  0  0  0  0  0  0  0  0  0  0  0
    8.2731   -1.1451   -0.2403 H   0  0  0  0  0  0  0  0  0  0  0  0
    8.3580    0.0668    1.0496 H   0  0  0  0  0  0  0  0  0  0  0  0
    7.0343    1.6471   -0.2519 H   0  0  0  0  0  0  0  0  0  0  0  0
    8.1302    0.9485   -1.4603 H   0  0  0  0  0  0  0  0  0  0  0  0
   -1.2165   -1.9919    0.1415 H   0  0  0  0  0  0  0  0  0  0  0  0
   -1.0635   -1.6127   -1.5869 H   0  0  0  0  0  0  0  0  0  0  0  0
    1.6582   -0.7836    1.9956 H   0  0  0  0  0  0  0  0  0  0  0  0
    2.2079    0.8833    1.7076 H   0  0  0  0  0  0  0  0  0  0  0  0
    3.2913   -1.6262    0.6577 H   0  0  0  0  0  0  0  0  0  0  0  0
   -2.9556    1.0213    0.6187 H   0  0  0  0  0  0  0  0  0  0  0  0
   -0.1711    2.4172   -0.1167 H   0  0  0  0  0  0  0  0  0  0  0  0
   -3.4947   -0.9902   -1.4727 H   0  0  0  0  0  0  0  0  0  0  0  0
   -3.5725    0.7535   -1.6829 H   0  0  0  0  0  0  0  0  0  0  0  0
   -5.0364   -2.0875    0.3107 H   0  0  0  0  0  0  0  0  0  0  0  0
   -5.5993    1.9282   -1.1162 H   0  0  0  0  0  0  0  0  0  0  0  0
   -7.4015   -2.0645    1.0711 H   0  0  0  0  0  0  0  0  0  0  0  0
   -8.7549    0.0016    0.6819 H   0  0  0  0  0  0  0  0  0  0  0  0
  1  7  1  0  0  0  0
  1 15  1  0  0  0  0
  2  8  1  0  0  0  0
  2 42  1  0  0  0  0
  3 17  2  0  0  0  0
  4 16  1  0  0  0  0
  4 17  1  0  0  0  0
  4 40  1  0  0  0  0
  5 10  1  0  0  0  0
  5 18  1  0  0  0  0
  5 41  1  0  0  0  0
  6 21  1  0  0  0  0
  6 23  2  0  0  0  0
  7  8  1  0  0  0  0
  7 16  1  0  0  0  0
  7 24  1  0  0  0  0
  8 10  1  0  0  0  0
  8 25  1  0  0  0  0
  9 11  1  0  0  0  0
  9 12  1  0  0  0  0
  9 17  1  0  0  0  0
  9 27  1  0  0  0  0
 10 15  1  0  0  0  0
 10 26  1  0  0  0  0
 11 13  1  0  0  0  0
 11 28  1  0  0  0  0
 11 29  1  0  0  0  0
 12 14  1  0  0  0  0
 12 30  1  0  0  0  0
 12 31  1  0  0  0  0
 13 14  1  0  0  0  0
 13 32  1  0  0  0  0
 13 33  1  0  0  0  0
 14 34  1  0  0  0  0
 14 35  1  0  0  0  0
 15 36  1  0  0  0  0
 15 37  1  0  0  0  0
 16 38  1  0  0  0  0
 16 39  1  0  0  0  0
 18 19  1  0  0  0  0
 18 43  1  0  0  0  0
 18 44  1  0  0  0  0
 19 20  1  0  0  0  0
 19 21  2  0  0  0  0
 20 22  2  0  0  0  0
 20 45  1  0  0  0  0
 21 46  1  0  0  0  0
 22 23  1  0  0  0  0
 22 47  1  0  0  0  0
 23 48  1  0  0  0  0
M  END
> <PUBCHEM_COMPOUND_CID>
75536565

> <PUBCHEM_CONFORMER_RMSD>
1

> <PUBCHEM_CONFORMER_DIVERSEORDER>
1
70
177
49
27
119
29
52
37
10
85
118
47
155
14
124
83
171
84
138
54
91
63
185
131
56
187
156
121
38
48
170
8
181
26
97
122
77
60
149
46
190
178
74
94
176
175
109
133
115
100
120
140
51
25
194
197
108
168
142
169
7
64
137
36
148
116
28
42
87
93
139
191
107
58
134
132
195
72
111
34
106
65
40
80
9
43
114
165
163
113
66
18
45
126
143
183
167
174
144
188
61
76
127
166
158
6
193
75
125
21
79
136
189
98
182
123
23
112
96
44
89
35
105
4
57
130
90
95
196
159
86
117
92
20
173
41
73
110
22
78
141
103
82
161
153
12
59
31
15
17
101
30
192
2
151
19
186
102
62
99
32
68
135
67
172
81
33
69
152
164
71
162
160
55
154
88
53
13
24
147
180
16
146
128
179
104
5
150
157
3
50
11
39
184
145
129

> <PUBCHEM_MMFF94_PARTIAL_CHARGES>
26
1 -0.56
10 0.27
15 0.28
16 0.3
17 0.57
18 0.41
19 -0.14
2 -0.68
20 -0.15
21 0.16
22 -0.15
23 0.16
3 -0.57
4 -0.73
40 0.37
41 0.36
42 0.4
45 0.15
46 0.15
47 0.15
48 0.15
5 -0.9
6 -0.62
7 0.28
8 0.28
9 0.06

> <PUBCHEM_EFFECTIVE_ROTOR_COUNT>
9

> <PUBCHEM_PHARMACOPHORE_FEATURES>
11
1 1 acceptor
1 2 acceptor
1 2 donor
1 3 acceptor
1 4 donor
1 5 cation
1 5 donor
1 6 acceptor
5 1 7 8 10 15 rings
5 9 11 12 13 14 rings
6 6 19 20 21 22 23 rings

> <PUBCHEM_HEAVY_ATOM_COUNT>
23

> <PUBCHEM_ATOM_DEF_STEREO_COUNT>
3

> <PUBCHEM_ATOM_UDEF_STEREO_COUNT>
0

> <PUBCHEM_BOND_DEF_STEREO_COUNT>
0

> <PUBCHEM_BOND_UDEF_STEREO_COUNT>
0

> <PUBCHEM_ISOTOPIC_ATOM_COUNT>
0

> <PUBCHEM_COMPONENT_COUNT>
1

> <PUBCHEM_CACTVS_TAUTO_COUNT>
2

> <PUBCHEM_CONFORMER_ID>
048098B500000001

> <PUBCHEM_MMFF94_ENERGY>
45.3203

> <PUBCHEM_FEATURE_SELFOVERLAP>
55.822

> <PUBCHEM_SHAPE_FINGERPRINT>
10050765 1 18051131393438077610
10066227 49 18041837299618100530
10299344 5 17967813847123433411
10319688 140 16629414540885645182
106641 1 12468644932156173556
11315181 36 17676206875949039973
11524674 6 17775565364652761551
11638347 137 12107781900701495664
12091667 2 18130784560715728783
12166972 35 17967535687687896188
12236239 1 18040996232982296902
13533116 47 16226314933689385344
13685833 64 16272210782484073522
14123256 10 18410575080383942368
14251752 14 18343862208221567229
14251764 18 17313105258685974791
14251764 46 18343301466472023879
14849402 71 16950575422842208461
14856354 85 18412547635211264431
14933364 13 18260829297831636605
15183329 4 15985105201852601287
15461852 350 8214134166943433249
15716309 27 17530682104775339835
15849732 13 18413671326650218789
18006028 8 15770056129159422960
18335252 98 18186804672938544602
20157964 124 16660644047390715522
21095086 128 17240480308000398027
21150785 3 17967534579701695580
21267235 1 18343304768732324800
21315763 28 17240198816196888638
21792961 116 18339354163487564445
22224240 67 14851605492277000568
23035841 295 18411698794527231123
23559900 14 15912748596613243194
246663 6 18060423525086690487
28498 318 15267066925720216220
335352 9 18131346432273662837
34797466 226 17022626364334262678
4325135 7 16443063906850690855
5283156 175 18411698756400020242
5758199 1 16443064989271945161
59682541 35 14923951158609637141
59755656 215 17632579318571587599
59755656 520 17749103417790137467
8209 1 18410573985156732398

> <PUBCHEM_SHAPE_MULTIPOLES>
440.78
25.22
1.27
1.01
2.15
0.16
0.06
-0.81
1.85
0.64
-0.11
-0.69
0.04
-0.08

> <PUBCHEM_SHAPE_SELFOVERLAP>
918.967

> <PUBCHEM_SHAPE_VOLUME>
250.6

> <PUBCHEM_COORDINATE_TYPE>
2
5
10

$$$$
