25388978
  -OEChem-12032416163D

 57 60  0     1  0  0  0  0  0999 V2000
   -0.3725    3.3582   -0.1115 O   0  0  0  0  0  0  0  0  0  0  0  0
   -3.3061   -0.5082    1.3655 N   0  0  2  0  0  0  0  0  0  0  0  0
    0.7232   -2.7224   -0.6191 N   0  0  0  0  0  0  0  0  0  0  0  0
   -2.6601    2.9764    0.1121 N   0  0  0  0  0  0  0  0  0  0  0  0
    2.0323   -2.4368   -0.7241 N   0  0  0  0  0  0  0  0  0  0  0  0
   -2.4588   -1.3404   -0.9524 C   0  0  2  0  0  0  0  0  0  0  0  0
   -1.5151   -1.8317    0.1800 C   0  0  2  0  0  0  0  0  0  0  0  0
   -3.2477    0.6276    0.4079 C   0  0  2  0  0  0  0  0  0  0  0  0
   -2.5555    0.1991   -0.9038 C   0  0  0  0  0  0  0  0  0  0  0  0
   -1.9662   -1.1336    1.4947 C   0  0  0  0  0  0  0  0  0  0  0  0
   -3.8641   -1.8934   -0.6320 C   0  0  0  0  0  0  0  0  0  0  0  0
   -4.2379   -1.5205    0.8133 C   0  0  0  0  0  0  0  0  0  0  0  0
   -0.0128   -1.7297   -0.0418 C   0  0  0  0  0  0  0  0  0  0  0  0
   -2.5956    1.8706    1.0171 C   0  0  0  0  0  0  0  0  0  0  0  0
    0.8766   -0.7251    0.2517 C   0  0  0  0  0  0  0  0  0  0  0  0
    3.4668   -0.5190   -0.1188 C   0  0  0  0  0  0  0  0  0  0  0  0
    2.1199   -1.2153   -0.1906 C   0  0  0  0  0  0  0  0  0  0  0  0
    3.8945   -0.2495    1.3345 C   0  0  0  0  0  0  0  0  0  0  0  0
    3.4872    0.7768   -0.9482 C   0  0  0  0  0  0  0  0  0  0  0  0
    5.2553    0.4423    1.3969 C   0  0  0  0  0  0  0  0  0  0  0  0
    4.8498    1.4642   -0.8766 C   0  0  0  0  0  0  0  0  0  0  0  0
    5.2752    1.7220    0.5659 C   0  0  0  0  0  0  0  0  0  0  0  0
    0.2379   -3.9943   -1.1023 C   0  0  0  0  0  0  0  0  0  0  0  0
   -1.5378    3.6357   -0.3827 C   0  0  0  0  0  0  0  0  0  0  0  0
   -1.8885    4.7468   -1.3357 C   0  0  0  0  0  0  0  0  0  0  0  0
   -2.1183   -1.6780   -1.9367 H   0  0  0  0  0  0  0  0  0  0  0  0
   -1.7262   -2.9023    0.3226 H   0  0  0  0  0  0  0  0  0  0  0  0
   -4.2822    0.9140    0.1658 H   0  0  0  0  0  0  0  0  0  0  0  0
   -1.5515    0.6280   -0.9979 H   0  0  0  0  0  0  0  0  0  0  0  0
   -3.1399    0.5588   -1.7598 H   0  0  0  0  0  0  0  0  0  0  0  0
   -2.0065   -1.8851    2.2954 H   0  0  0  0  0  0  0  0  0  0  0  0
   -1.2477   -0.3942    1.8596 H   0  0  0  0  0  0  0  0  0  0  0  0
   -3.8830   -2.9829   -0.7523 H   0  0  0  0  0  0  0  0  0  0  0  0
   -4.5975   -1.4764   -1.3329 H   0  0  0  0  0  0  0  0  0  0  0  0
   -5.2664   -1.1402    0.8457 H   0  0  0  0  0  0  0  0  0  0  0  0
   -4.2357   -2.4147    1.4497 H   0  0  0  0  0  0  0  0  0  0  0  0
   -1.5541    1.6904    1.2999 H   0  0  0  0  0  0  0  0  0  0  0  0
   -3.1348    2.1710    1.9228 H   0  0  0  0  0  0  0  0  0  0  0  0
    0.6632    0.2298    0.7096 H   0  0  0  0  0  0  0  0  0  0  0  0
    4.2130   -1.1984   -0.5574 H   0  0  0  0  0  0  0  0  0  0  0  0
   -3.5805    3.3130   -0.1562 H   0  0  0  0  0  0  0  0  0  0  0  0
    3.9397   -1.1918    1.8945 H   0  0  0  0  0  0  0  0  0  0  0  0
    3.1490    0.3785    1.8394 H   0  0  0  0  0  0  0  0  0  0  0  0
    2.7158    1.4701   -0.5884 H   0  0  0  0  0  0  0  0  0  0  0  0
    3.2453    0.5572   -1.9955 H   0  0  0  0  0  0  0  0  0  0  0  0
    6.0301   -0.2429    1.0313 H   0  0  0  0  0  0  0  0  0  0  0  0
    5.5016    0.6759    2.4388 H   0  0  0  0  0  0  0  0  0  0  0  0
    4.8125    2.4124   -1.4246 H   0  0  0  0  0  0  0  0  0  0  0  0
    5.6010    0.8377   -1.3728 H   0  0  0  0  0  0  0  0  0  0  0  0
    4.6018    2.4606    1.0180 H   0  0  0  0  0  0  0  0  0  0  0  0
    6.2815    2.1556    0.5813 H   0  0  0  0  0  0  0  0  0  0  0  0
   -0.6230   -3.8211   -1.7520 H   0  0  0  0  0  0  0  0  0  0  0  0
    1.0275   -4.4921   -1.6717 H   0  0  0  0  0  0  0  0  0  0  0  0
   -0.0396   -4.6055   -0.2402 H   0  0  0  0  0  0  0  0  0  0  0  0
   -2.6781    5.3744   -0.9128 H   0  0  0  0  0  0  0  0  0  0  0  0
   -1.0074    5.3682   -1.5175 H   0  0  0  0  0  0  0  0  0  0  0  0
   -2.2304    4.3192   -2.2821 H   0  0  0  0  0  0  0  0  0  0  0  0
  1 24  2  0  0  0  0
  2  8  1  0  0  0  0
  2 10  1  0  0  0  0
  2 12  1  0  0  0  0
  3  5  1  0  0  0  0
  3 13  1  0  0  0  0
  3 23  1  0  0  0  0
  4 14  1  0  0  0  0
  4 24  1  0  0  0  0
  4 41  1  0  0  0  0
  5 17  2  0  0  0  0
  6  7  1  0  0  0  0
  6  9  1  0  0  0  0
  6 11  1  0  0  0  0
  6 26  1  0  0  0  0
  7 10  1  0  0  0  0
  7 13  1  0  0  0  0
  7 27  1  0  0  0  0
  8  9  1  0  0  0  0
  8 14  1  0  0  0  0
  8 28  1  0  0  0  0
  9 29  1  0  0  0  0
  9 30  1  0  0  0  0
 10 31  1  0  0  0  0
 10 32  1  0  0  0  0
 11 12  1  0  0  0  0
 11 33  1  0  0  0  0
 11 34  1  0  0  0  0
 12 35  1  0  0  0  0
 12 36  1  0  0  0  0
 13 15  2  0  0  0  0
 14 37  1  0  0  0  0
 14 38  1  0  0  0  0
 15 17  1  0  0  0  0
 15 39  1  0  0  0  0
 16 17  1  0  0  0  0
 16 18  1  0  0  0  0
 16 19  1  0  0  0  0
 16 40  1  0  0  0  0
 18 20  1  0  0  0  0
 18 42  1  0  0  0  0
 18 43  1  0  0  0  0
 19 21  1  0  0  0  0
 19 44  1  0  0  0  0
 19 45  1  0  0  0  0
 20 22  1  0  0  0  0
 20 46  1  0  0  0  0
 20 47  1  0  0  0  0
 21 22  1  0  0  0  0
 21 48  1  0  0  0  0
 21 49  1  0  0  0  0
 22 50  1  0  0  0  0
 22 51  1  0  0  0  0
 23 52  1  0  0  0  0
 23 53  1  0  0  0  0
 23 54  1  0  0  0  0
 24 25  1  0  0  0  0
 25 55  1  0  0  0  0
 25 56  1  0  0  0  0
 25 57  1  0  0  0  0
M  END
> <PUBCHEM_COMPOUND_CID>
25388978

> <PUBCHEM_CONFORMER_RMSD>
0.8

> <PUBCHEM_CONFORMER_DIVERSEORDER>
2
54
80
57
50
45
14
90
79
75
19
94
38
70
26
62
32
81
61
35
13
73
11
82
91
56
89
31
83
78
59
22
6
52
92
25
77
93
21
87
46
74
18
47
88
16
30
33
60
51
44
5
34
43
49
72
68
71
37
9
85
28
58
63
40
7
4
64
24
86
76
15
12
84
66
69
27
23
53
3
17
1
10
41
29
65
48
67
8
36
20
42
55
39

> <PUBCHEM_MMFF94_PARTIAL_CHARGES>
19
1 -0.57
10 0.27
12 0.27
13 -0.33
14 0.3
15 -0.15
16 0.18
17 0.11
2 -0.81
23 0.26
24 0.57
25 0.06
3 0.31
39 0.15
4 -0.73
41 0.37
5 -0.71
7 0.18
8 0.27

> <PUBCHEM_EFFECTIVE_ROTOR_COUNT>
7.4

> <PUBCHEM_PHARMACOPHORE_FEATURES>
7
1 1 acceptor
1 2 cation
1 4 donor
1 5 acceptor
5 3 5 13 15 17 rings
6 16 18 19 20 21 22 rings
8 2 6 7 8 9 10 11 12 rings

> <PUBCHEM_HEAVY_ATOM_COUNT>
25

> <PUBCHEM_ATOM_DEF_STEREO_COUNT>
3

> <PUBCHEM_ATOM_UDEF_STEREO_COUNT>
0

> <PUBCHEM_BOND_DEF_STEREO_COUNT>
0

> <PUBCHEM_BOND_UDEF_STEREO_COUNT>
0

> <PUBCHEM_ISOTOPIC_ATOM_COUNT>
0

> <PUBCHEM_COMPONENT_COUNT>
1

> <PUBCHEM_CACTVS_TAUTO_COUNT>
2

> <PUBCHEM_CONFORMER_ID>
018367B200000002

> <PUBCHEM_MMFF94_ENERGY>
41.4072

> <PUBCHEM_FEATURE_SELFOVERLAP>
35.522

> <PUBCHEM_SHAPE_FINGERPRINT>
10498660 4 18411981360040292420
10670039 82 18337686273595485988
10871710 139 18412831312952186437
1100329 8 17907300210412812775
11221954 11 18122346774527832221
11595378 159 18334283280458909696
12100795 323 18119249458963237572
12596602 18 17386000736798534482
12788726 201 18334016133620068684
13911987 19 18264200477607479375
13944108 23 15667888027249644236
14142880 1 18343591724635795329
14251764 38 18264200323341726488
14466204 15 17977945679634285298
14840074 17 18267035031463583928
15575132 122 18408888468349787700
15961568 22 18337678623878981860
20567600 299 16101901580375285741
21403212 168 11531299128343553543
22113638 7 18122627424744475101
23558518 356 18117275852548994187
23559900 14 17983014449491330618
238 59 17040339226275546773
25019877 29 17273428376502004583
3117164 225 17828749661184550442
3187 122 18260278434190785377
469060 322 18338534030971483051
474144 1 17606138396349786524
6036956 94 18187929550628152668
6287921 2 18266193754939269366
6608658 132 18265616666148629956
7399639 24 18341338807804156131
7808743 9 18126286574542074912
9862522 239 18341604902444249440
9981440 41 18409162199405726427

> <PUBCHEM_SHAPE_MULTIPOLES>
488.69
9.69
4.99
1.33
11.36
4.75
0.19
2.25
2.27
-3.54
-2.33
0.07
0
0.43

> <PUBCHEM_SHAPE_SELFOVERLAP>
1024.012

> <PUBCHEM_SHAPE_VOLUME>
273.3

> <PUBCHEM_COORDINATE_TYPE>
2
5
10

$$$$
