45783455
  -OEChem-12032416263D

 55 58  0     1  0  0  0  0  0999 V2000
   -2.6073    1.9809   -1.1127 O   0  0  0  0  0  0  0  0  0  0  0  0
    3.7809    0.8304    1.3450 O   0  0  0  0  0  0  0  0  0  0  0  0
    5.3032   -1.4925    0.9792 O   0  0  0  0  0  0  0  0  0  0  0  0
   -3.4683   -0.7835    1.1504 N   0  0  1  0  0  0  0  0  0  0  0  0
   -1.2113    0.9905    0.3319 N   0  0  0  0  0  0  0  0  0  0  0  0
   -1.3213    2.4230   -1.4485 N   0  0  0  0  0  0  0  0  0  0  0  0
    1.3957    2.7787   -1.4451 N   0  0  0  0  0  0  0  0  0  0  0  0
   -3.7155    0.5208    0.5038 C   0  0  1  0  0  0  0  0  0  0  0  0
   -4.3677    1.3834    1.6000 C   0  0  0  0  0  0  0  0  0  0  0  0
   -4.5016    0.4621    2.8041 C   0  0  0  0  0  0  0  0  0  0  0  0
   -4.4823   -0.9255    2.1955 C   0  0  0  0  0  0  0  0  0  0  0  0
   -3.4848   -1.9007    0.2150 C   0  0  0  0  0  0  0  0  0  0  0  0
   -2.4526    1.1421   -0.0550 C   0  0  0  0  0  0  0  0  0  0  0  0
   -2.1884   -2.0179   -0.5415 C   0  0  0  0  0  0  0  0  0  0  0  0
   -2.1855   -1.9507   -1.9348 C   0  0  0  0  0  0  0  0  0  0  0  0
   -0.9906   -2.1965    0.1507 C   0  0  0  0  0  0  0  0  0  0  0  0
   -0.5539    1.7954   -0.5523 C   0  0  0  0  0  0  0  0  0  0  0  0
   -0.9849   -2.0622   -2.6358 C   0  0  0  0  0  0  0  0  0  0  0  0
    0.2101   -2.3081   -0.5505 C   0  0  0  0  0  0  0  0  0  0  0  0
    0.2131   -2.2407   -1.9437 C   0  0  0  0  0  0  0  0  0  0  0  0
    0.8714    1.9522   -0.5125 C   0  0  0  0  0  0  0  0  0  0  0  0
    1.4965   -2.3605   -2.6940 C   0  0  0  0  0  0  0  0  0  0  0  0
    1.6223    1.2798    0.4383 C   0  0  0  0  0  0  0  0  0  0  0  0
    3.0000    1.4679    0.4315 C   0  0  0  0  0  0  0  0  0  0  0  0
    2.7382    2.9367   -1.4207 C   0  0  0  0  0  0  0  0  0  0  0  0
    3.5765    2.3105   -0.5124 C   0  0  0  0  0  0  0  0  0  0  0  0
    3.3252   -0.4366    1.8181 C   0  0  0  0  0  0  0  0  0  0  0  0
    4.5257   -1.3001    2.1547 C   0  0  0  0  0  0  0  0  0  0  0  0
    6.4570   -2.2790    1.2413 C   0  0  0  0  0  0  0  0  0  0  0  0
   -4.4425    0.4181   -0.3142 H   0  0  0  0  0  0  0  0  0  0  0  0
   -5.3637    1.7050    1.2719 H   0  0  0  0  0  0  0  0  0  0  0  0
   -3.7934    2.2798    1.8580 H   0  0  0  0  0  0  0  0  0  0  0  0
   -3.6438    0.5979    3.4745 H   0  0  0  0  0  0  0  0  0  0  0  0
   -5.4140    0.6574    3.3751 H   0  0  0  0  0  0  0  0  0  0  0  0
   -4.2094   -1.6850    2.9346 H   0  0  0  0  0  0  0  0  0  0  0  0
   -5.4666   -1.1712    1.7770 H   0  0  0  0  0  0  0  0  0  0  0  0
   -3.6015   -2.8455    0.7646 H   0  0  0  0  0  0  0  0  0  0  0  0
   -4.3452   -1.8489   -0.4651 H   0  0  0  0  0  0  0  0  0  0  0  0
   -3.1108   -1.8098   -2.4868 H   0  0  0  0  0  0  0  0  0  0  0  0
   -0.9772   -2.2566    1.2358 H   0  0  0  0  0  0  0  0  0  0  0  0
   -0.9955   -2.0056   -3.7210 H   0  0  0  0  0  0  0  0  0  0  0  0
    1.1359   -2.4519   -0.0009 H   0  0  0  0  0  0  0  0  0  0  0  0
    1.9606   -1.3750   -2.8018 H   0  0  0  0  0  0  0  0  0  0  0  0
    2.1963   -3.0233   -2.1736 H   0  0  0  0  0  0  0  0  0  0  0  0
    1.3355   -2.7834   -3.6914 H   0  0  0  0  0  0  0  0  0  0  0  0
    1.1384    0.6526    1.1793 H   0  0  0  0  0  0  0  0  0  0  0  0
    3.1381    3.6037   -2.1773 H   0  0  0  0  0  0  0  0  0  0  0  0
    4.6480    2.4754   -0.5412 H   0  0  0  0  0  0  0  0  0  0  0  0
    2.7049   -0.2897    2.7087 H   0  0  0  0  0  0  0  0  0  0  0  0
    2.7526   -0.9629    1.0450 H   0  0  0  0  0  0  0  0  0  0  0  0
    5.1421   -0.7976    2.9093 H   0  0  0  0  0  0  0  0  0  0  0  0
    4.1934   -2.2687    2.5441 H   0  0  0  0  0  0  0  0  0  0  0  0
    7.0121   -2.3978    0.3069 H   0  0  0  0  0  0  0  0  0  0  0  0
    6.1711   -3.2704    1.6059 H   0  0  0  0  0  0  0  0  0  0  0  0
    7.1038   -1.7810    1.9702 H   0  0  0  0  0  0  0  0  0  0  0  0
  1  6  1  0  0  0  0
  1 13  1  0  0  0  0
  2 24  1  0  0  0  0
  2 27  1  0  0  0  0
  3 28  1  0  0  0  0
  3 29  1  0  0  0  0
  4  8  1  0  0  0  0
  4 11  1  0  0  0  0
  4 12  1  0  0  0  0
  5 13  2  0  0  0  0
  5 17  1  0  0  0  0
  6 17  2  0  0  0  0
  7 21  2  0  0  0  0
  7 25  1  0  0  0  0
  8  9  1  0  0  0  0
  8 13  1  0  0  0  0
  8 30  1  0  0  0  0
  9 10  1  0  0  0  0
  9 31  1  0  0  0  0
  9 32  1  0  0  0  0
 10 11  1  0  0  0  0
 10 33  1  0  0  0  0
 10 34  1  0  0  0  0
 11 35  1  0  0  0  0
 11 36  1  0  0  0  0
 12 14  1  0  0  0  0
 12 37  1  0  0  0  0
 12 38  1  0  0  0  0
 14 15  2  0  0  0  0
 14 16  1  0  0  0  0
 15 18  1  0  0  0  0
 15 39  1  0  0  0  0
 16 19  2  0  0  0  0
 16 40  1  0  0  0  0
 17 21  1  0  0  0  0
 18 20  2  0  0  0  0
 18 41  1  0  0  0  0
 19 20  1  0  0  0  0
 19 42  1  0  0  0  0
 20 22  1  0  0  0  0
 21 23  1  0  0  0  0
 22 43  1  0  0  0  0
 22 44  1  0  0  0  0
 22 45  1  0  0  0  0
 23 24  2  0  0  0  0
 23 46  1  0  0  0  0
 24 26  1  0  0  0  0
 25 26  2  0  0  0  0
 25 47  1  0  0  0  0
 26 48  1  0  0  0  0
 27 28  1  0  0  0  0
 27 49  1  0  0  0  0
 27 50  1  0  0  0  0
 28 51  1  0  0  0  0
 28 52  1  0  0  0  0
 29 53  1  0  0  0  0
 29 54  1  0  0  0  0
 29 55  1  0  0  0  0
M  END
> <PUBCHEM_COMPOUND_CID>
45783455

> <PUBCHEM_CONFORMER_RMSD>
1

> <PUBCHEM_CONFORMER_DIVERSEORDER>
1
28
103
38
76
57
93
48
22
14
80
89
79
27
70
110
35
42
2
91
92
68
40
107
50
61
78
87
73
23
30
75
97
108
43
88
84
71
60
102
63
90
67
37
111
10
16
65
24
56
13
9
44
34
36
51
21
55
104
41
98
58
83
3
94
59
100
99
49
45
86
66
105
31
52
39
69
46
15
33
25
53
77
11
7
106
62
109
54
72
19
82
95
32
5
29
8
81
17
64
101
96
6
20
4
18
85
26
47
12
74

> <PUBCHEM_MMFF94_PARTIAL_CHARGES>
34
1 -0.02
11 0.27
12 0.41
13 0.3
14 -0.14
15 -0.15
16 -0.15
17 0.46
18 -0.15
19 -0.15
2 -0.36
20 -0.14
21 0.36
22 0.14
23 -0.15
24 0.08
25 0.16
26 -0.15
27 0.28
28 0.28
29 0.28
3 -0.56
39 0.15
4 -0.81
40 0.15
41 0.15
42 0.15
46 0.15
47 0.15
48 0.15
5 -0.57
6 -0.41
7 -0.62
8 0.45

> <PUBCHEM_EFFECTIVE_ROTOR_COUNT>
9

> <PUBCHEM_PHARMACOPHORE_FEATURES>
9
1 2 acceptor
1 3 acceptor
1 4 cation
1 7 acceptor
3 5 6 17 cation
5 1 5 6 13 17 rings
5 4 8 9 10 11 rings
6 14 15 16 18 19 20 rings
6 7 21 23 24 25 26 rings

> <PUBCHEM_HEAVY_ATOM_COUNT>
29

> <PUBCHEM_ATOM_DEF_STEREO_COUNT>
1

> <PUBCHEM_ATOM_UDEF_STEREO_COUNT>
0

> <PUBCHEM_BOND_DEF_STEREO_COUNT>
0

> <PUBCHEM_BOND_UDEF_STEREO_COUNT>
0

> <PUBCHEM_ISOTOPIC_ATOM_COUNT>
0

> <PUBCHEM_COMPONENT_COUNT>
1

> <PUBCHEM_CACTVS_TAUTO_COUNT>
1

> <PUBCHEM_CONFORMER_ID>
02BA999F00000001

> <PUBCHEM_MMFF94_ENERGY>
67.2341

> <PUBCHEM_FEATURE_SELFOVERLAP>
45.676

> <PUBCHEM_SHAPE_FINGERPRINT>
11135926 11 17896878962528258884
11725454 13 15482683385231316401
12422481 6 18342740676433764338
12633257 1 18409452474801743355
12788726 201 17268637916498939837
15064986 96 18269011837643214795
16110190 28 18411976962853611530
19319366 153 16822214295214395829
20554085 129 17346328055477363153
5265222 85 17482868888169921980
6287921 2 17630625426733245951
7064713 232 17989207048853992467
9862522 239 18343021120992740181

> <PUBCHEM_SHAPE_MULTIPOLES>
559.27
10.15
3.89
2.71
7.78
0.21
-0.17
1.81
-9.76
1.73
2.44
-0.11
0.98
-2.37

> <PUBCHEM_SHAPE_SELFOVERLAP>
1197.332

> <PUBCHEM_SHAPE_VOLUME>
311.5

> <PUBCHEM_COORDINATE_TYPE>
2
5
10

$$$$
