75537109
  -OEChem-12032416313D

 44 46  0     1  0  0  0  0  0999 V2000
    5.9560   -0.3442    0.7829 O   0  0  0  0  0  0  0  0  0  0  0  0
   -5.7846    0.0026    1.7694 O   0  0  0  0  0  0  0  0  0  0  0  0
    3.6177   -0.3343    0.5573 N   0  0  0  0  0  0  0  0  0  0  0  0
    1.0439   -1.2300   -0.1388 N   0  0  2  0  0  0  0  0  0  0  0  0
    4.7429    1.5434    0.0551 N   0  0  0  0  0  0  0  0  0  0  0  0
   -4.9739    0.8908   -0.2585 N   0  0  0  0  0  0  0  0  0  0  0  0
    2.5867    0.6425    0.2751 C   0  0  2  0  0  0  0  0  0  0  0  0
    1.5417    0.0543   -0.6723 C   0  0  0  0  0  0  0  0  0  0  0  0
    3.3605    1.8351   -0.2833 C   0  0  0  0  0  0  0  0  0  0  0  0
    3.2356   -1.6760    0.9458 C   0  0  0  0  0  0  0  0  0  0  0  0
    2.1463   -2.2020    0.0078 C   0  0  0  0  0  0  0  0  0  0  0  0
    4.9048    0.2174    0.5049 C   0  0  0  0  0  0  0  0  0  0  0  0
   -0.0006   -1.7717   -1.0076 C   0  0  0  0  0  0  0  0  0  0  0  0
    5.8101    2.4850   -0.2019 C   0  0  0  0  0  0  0  0  0  0  0  0
   -1.3162   -1.0667   -0.8094 C   0  0  0  0  0  0  0  0  0  0  0  0
   -2.0958   -1.3484    0.3125 C   0  0  0  0  0  0  0  0  0  0  0  0
   -1.7555   -0.1324   -1.7473 C   0  0  0  0  0  0  0  0  0  0  0  0
   -3.3148   -0.6961    0.4963 C   0  0  0  0  0  0  0  0  0  0  0  0
   -2.9747    0.5199   -1.5636 C   0  0  0  0  0  0  0  0  0  0  0  0
   -3.7543    0.2382   -0.4418 C   0  0  0  0  0  0  0  0  0  0  0  0
   -5.8856    0.7408    0.7949 C   0  0  0  0  0  0  0  0  0  0  0  0
   -7.0903    1.6316    0.6225 C   0  0  0  0  0  0  0  0  0  0  0  0
    2.1267    0.9095    1.2357 H   0  0  0  0  0  0  0  0  0  0  0  0
    1.9739   -0.0935   -1.6714 H   0  0  0  0  0  0  0  0  0  0  0  0
    0.7327    0.7863   -0.7681 H   0  0  0  0  0  0  0  0  0  0  0  0
    3.2855    1.9189   -1.3724 H   0  0  0  0  0  0  0  0  0  0  0  0
    3.0529    2.7780    0.1787 H   0  0  0  0  0  0  0  0  0  0  0  0
    2.8646   -1.6230    1.9758 H   0  0  0  0  0  0  0  0  0  0  0  0
    4.1162   -2.3260    0.9354 H   0  0  0  0  0  0  0  0  0  0  0  0
    2.5864   -2.4228   -0.9740 H   0  0  0  0  0  0  0  0  0  0  0  0
    1.7683   -3.1456    0.4191 H   0  0  0  0  0  0  0  0  0  0  0  0
    0.2997   -1.7564   -2.0643 H   0  0  0  0  0  0  0  0  0  0  0  0
   -0.1778   -2.8315   -0.7757 H   0  0  0  0  0  0  0  0  0  0  0  0
    5.8568    2.6779   -1.2770 H   0  0  0  0  0  0  0  0  0  0  0  0
    6.7657    2.0757    0.1352 H   0  0  0  0  0  0  0  0  0  0  0  0
    5.5978    3.4145    0.3324 H   0  0  0  0  0  0  0  0  0  0  0  0
   -1.7631   -2.0746    1.0497 H   0  0  0  0  0  0  0  0  0  0  0  0
   -1.1580    0.0965   -2.6257 H   0  0  0  0  0  0  0  0  0  0  0  0
   -3.8625   -0.9666    1.3882 H   0  0  0  0  0  0  0  0  0  0  0  0
   -3.3047    1.2456   -2.3027 H   0  0  0  0  0  0  0  0  0  0  0  0
   -5.2236    1.5570   -0.9866 H   0  0  0  0  0  0  0  0  0  0  0  0
   -7.5903    1.4014   -0.3225 H   0  0  0  0  0  0  0  0  0  0  0  0
   -6.7779    2.6797    0.6253 H   0  0  0  0  0  0  0  0  0  0  0  0
   -7.7932    1.4677    1.4440 H   0  0  0  0  0  0  0  0  0  0  0  0
  1 12  2  0  0  0  0
  2 21  2  0  0  0  0
  3  7  1  0  0  0  0
  3 10  1  0  0  0  0
  3 12  1  0  0  0  0
  4  8  1  0  0  0  0
  4 11  1  0  0  0  0
  4 13  1  0  0  0  0
  5  9  1  0  0  0  0
  5 12  1  0  0  0  0
  5 14  1  0  0  0  0
  6 20  1  0  0  0  0
  6 21  1  0  0  0  0
  6 41  1  0  0  0  0
  7  8  1  0  0  0  0
  7  9  1  0  0  0  0
  7 23  1  0  0  0  0
  8 24  1  0  0  0  0
  8 25  1  0  0  0  0
  9 26  1  0  0  0  0
  9 27  1  0  0  0  0
 10 11  1  0  0  0  0
 10 28  1  0  0  0  0
 10 29  1  0  0  0  0
 11 30  1  0  0  0  0
 11 31  1  0  0  0  0
 13 15  1  0  0  0  0
 13 32  1  0  0  0  0
 13 33  1  0  0  0  0
 14 34  1  0  0  0  0
 14 35  1  0  0  0  0
 14 36  1  0  0  0  0
 15 16  2  0  0  0  0
 15 17  1  0  0  0  0
 16 18  1  0  0  0  0
 16 37  1  0  0  0  0
 17 19  2  0  0  0  0
 17 38  1  0  0  0  0
 18 20  2  0  0  0  0
 18 39  1  0  0  0  0
 19 20  1  0  0  0  0
 19 40  1  0  0  0  0
 21 22  1  0  0  0  0
 22 42  1  0  0  0  0
 22 43  1  0  0  0  0
 22 44  1  0  0  0  0
M  END
> <PUBCHEM_COMPOUND_CID>
75537109

> <PUBCHEM_CONFORMER_RMSD>
0.8

> <PUBCHEM_CONFORMER_DIVERSEORDER>
1
14
6
20
16
18
23
10
13
3
17
21
15
7
19
11
8
22
9
4
5
12
2

> <PUBCHEM_MMFF94_PARTIAL_CHARGES>
27
1 -0.57
10 0.3
11 0.27
12 0.69
13 0.41
14 0.3
15 -0.14
16 -0.15
17 -0.15
18 -0.15
19 -0.15
2 -0.57
20 0.12
21 0.57
22 0.06
3 -0.66
37 0.15
38 0.15
39 0.15
4 -0.81
40 0.15
41 0.37
5 -0.66
6 -0.55
7 0.3
8 0.27
9 0.3

> <PUBCHEM_EFFECTIVE_ROTOR_COUNT>
5.2

> <PUBCHEM_PHARMACOPHORE_FEATURES>
7
1 1 acceptor
1 2 acceptor
1 4 cation
1 6 donor
5 3 5 7 9 12 rings
6 15 16 17 18 19 20 rings
6 3 4 7 8 10 11 rings

> <PUBCHEM_HEAVY_ATOM_COUNT>
22

> <PUBCHEM_ATOM_DEF_STEREO_COUNT>
1

> <PUBCHEM_ATOM_UDEF_STEREO_COUNT>
0

> <PUBCHEM_BOND_DEF_STEREO_COUNT>
0

> <PUBCHEM_BOND_UDEF_STEREO_COUNT>
0

> <PUBCHEM_ISOTOPIC_ATOM_COUNT>
0

> <PUBCHEM_COMPONENT_COUNT>
1

> <PUBCHEM_CACTVS_TAUTO_COUNT>
3

> <PUBCHEM_CONFORMER_ID>
04809AD500000001

> <PUBCHEM_MMFF94_ENERGY>
56.8158

> <PUBCHEM_FEATURE_SELFOVERLAP>
35.617

> <PUBCHEM_SHAPE_FINGERPRINT>
10 15 17967250909796489929
10354089 29 18408603647714547746
10670039 82 15769506335181446433
10753850 27 11241971490778366109
11089746 13 17346306120609701600
11724838 91 18411981386606869543
11796584 16 15123788501112310510
12236239 1 17774996890716808022
12403259 415 18041559123027839551
12555020 224 10592044665667998621
12596602 18 18260270741977867433
12623949 98 13262937587408968600
12633257 1 17168146792494251061
12670543 26 11959733755132252267
12788726 201 17632585911520921985
12892183 10 16950552238666434527
13668630 136 11746937564131064849
14251740 57 13046205145038818232
14251764 75 18266462199133675996
14341114 176 17821727234704223980
15183329 4 13901917682525155823
15188451 53 14129053742598499329
15342168 16 18272932713382834711
15475509 35 16371842946941525698
16760501 71 18334297599684955069
17857418 61 11169913879359907345
1813 80 14201400460612847575
18222031 100 11818990773334424198
19784866 240 11386365937585440863
21033650 10 14405193833457960515
21065199 12 17604141541298882975
21637258 2 12757152407208624277
22122407 14 18201168702024641281
221357 26 11095884856615450731
22224240 67 18259705589123129491
22393880 68 13110955427267859877
23559900 14 17241615996639225455
23622692 118 8574441923535838766
270888 7 18272651280955071392
2767999 5 17632294562661823313
2838139 119 17560794416687553569
3004659 81 10519987049790860301
312425 54 17458633268423525585
3178227 256 18114175316776539186
3472631 163 16702011002609742409
397830 11 18336560365262245427
4259306 186 9151173155920916259
4325135 7 18202278131137903207
465052 167 11747232242417375049
5104073 3 18189601912840994866
56616090 284 10952048949225678751
5718773 13 9078850562591411372
57724786 102 18411699889643691060
59682541 52 15625955200781509804
633830 44 18341044220676958534
6608658 132 16630532787381844241
76465 3 8070034367191995262
7970288 3 10953731214157935737
8272917 22 18341611486814321878
960060 61 10303804389474010675

> <PUBCHEM_SHAPE_MULTIPOLES>
421.09
16.09
2.13
1.25
9.09
0.18
0.19
10.72
-6.14
-2.24
0.01
1.26
-0.1
-0.87

> <PUBCHEM_SHAPE_SELFOVERLAP>
885.57

> <PUBCHEM_SHAPE_VOLUME>
238.7

> <PUBCHEM_COORDINATE_TYPE>
2
5
10

$$$$
