25338983
  -OEChem-12032416193D

 53 56  0     1  0  0  0  0  0999 V2000
    3.7944   -4.8297   -0.1974 F   0  0  0  0  0  0  0  0  0  0  0  0
    0.4320    3.9179    2.0086 O   0  0  0  0  0  0  0  0  0  0  0  0
    0.2462    1.6193    2.1440 O   0  0  0  0  0  0  0  0  0  0  0  0
    3.9395    1.3078    0.9162 O   0  0  0  0  0  0  0  0  0  0  0  0
   -4.8503   -2.5080    1.8507 O   0  0  0  0  0  0  0  0  0  0  0  0
    1.7669    1.2188    0.0351 N   0  0  0  0  0  0  0  0  0  0  0  0
   -1.2300    0.8427   -2.1791 N   0  0  0  0  0  0  0  0  0  0  0  0
   -1.1250    3.0672   -2.3493 N   0  0  0  0  0  0  0  0  0  0  0  0
    1.4948    2.6449    0.3547 C   0  0  1  0  0  0  0  0  0  0  0  0
    0.8313    3.4414   -0.7887 C   0  0  0  0  0  0  0  0  0  0  0  0
   -0.2006    1.2408   -1.3790 C   0  0  0  0  0  0  0  0  0  0  0  0
    0.6708    0.3911   -0.5469 C   0  0  0  0  0  0  0  0  0  0  0  0
   -0.1599    2.6073   -1.4978 C   0  0  0  0  0  0  0  0  0  0  0  0
   -1.6946   -0.5053   -2.3987 C   0  0  0  0  0  0  0  0  0  0  0  0
   -1.7549    1.9785   -2.7425 C   0  0  0  0  0  0  0  0  0  0  0  0
    0.6546    2.6363    1.6000 C   0  0  0  0  0  0  0  0  0  0  0  0
    3.0013    0.6767    0.4316 C   0  0  0  0  0  0  0  0  0  0  0  0
   -2.5358   -1.0397   -1.2662 C   0  0  0  0  0  0  0  0  0  0  0  0
    3.2090   -0.7689    0.2663 C   0  0  0  0  0  0  0  0  0  0  0  0
   -2.1632   -2.2154   -0.6145 C   0  0  0  0  0  0  0  0  0  0  0  0
   -3.6862   -0.3575   -0.8705 C   0  0  0  0  0  0  0  0  0  0  0  0
    3.7473   -1.2647   -0.9212 C   0  0  0  0  0  0  0  0  0  0  0  0
    2.8685   -1.6451    1.2969 C   0  0  0  0  0  0  0  0  0  0  0  0
   -2.9411   -2.7089    0.4327 C   0  0  0  0  0  0  0  0  0  0  0  0
   -4.4643   -0.8511    0.1767 C   0  0  0  0  0  0  0  0  0  0  0  0
   -0.3601    4.0571    3.1923 C   0  0  0  0  0  0  0  0  0  0  0  0
   -4.0918   -2.0268    0.8282 C   0  0  0  0  0  0  0  0  0  0  0  0
    3.9449   -2.6364   -1.0782 C   0  0  0  0  0  0  0  0  0  0  0  0
    3.0659   -3.0168    1.1399 C   0  0  0  0  0  0  0  0  0  0  0  0
    3.6041   -3.5125   -0.0477 C   0  0  0  0  0  0  0  0  0  0  0  0
   -6.0136   -1.7607    2.2035 C   0  0  0  0  0  0  0  0  0  0  0  0
    2.4373    3.1365    0.6246 H   0  0  0  0  0  0  0  0  0  0  0  0
    1.6062    3.7242   -1.5124 H   0  0  0  0  0  0  0  0  0  0  0  0
    0.3673    4.3676   -0.4347 H   0  0  0  0  0  0  0  0  0  0  0  0
    0.1150   -0.0622    0.2794 H   0  0  0  0  0  0  0  0  0  0  0  0
    1.0967   -0.4137   -1.1508 H   0  0  0  0  0  0  0  0  0  0  0  0
   -0.8110   -1.1303   -2.5736 H   0  0  0  0  0  0  0  0  0  0  0  0
   -2.2808   -0.5226   -3.3255 H   0  0  0  0  0  0  0  0  0  0  0  0
   -2.5915    1.9511   -3.4276 H   0  0  0  0  0  0  0  0  0  0  0  0
   -1.2684   -2.7561   -0.9111 H   0  0  0  0  0  0  0  0  0  0  0  0
   -3.9980    0.5539   -1.3727 H   0  0  0  0  0  0  0  0  0  0  0  0
    4.0157   -0.5907   -1.7306 H   0  0  0  0  0  0  0  0  0  0  0  0
    2.4475   -1.2691    2.2258 H   0  0  0  0  0  0  0  0  0  0  0  0
   -2.6453   -3.6248    0.9370 H   0  0  0  0  0  0  0  0  0  0  0  0
   -5.3459   -0.2728    0.4313 H   0  0  0  0  0  0  0  0  0  0  0  0
   -0.4630    5.1237    3.4092 H   0  0  0  0  0  0  0  0  0  0  0  0
    0.1356    3.5725    4.0388 H   0  0  0  0  0  0  0  0  0  0  0  0
   -1.3562    3.6333    3.0329 H   0  0  0  0  0  0  0  0  0  0  0  0
    4.3638   -3.0227   -2.0026 H   0  0  0  0  0  0  0  0  0  0  0  0
    2.8005   -3.6992    1.9419 H   0  0  0  0  0  0  0  0  0  0  0  0
   -6.4961   -2.2867    3.0338 H   0  0  0  0  0  0  0  0  0  0  0  0
   -6.7367   -1.7300    1.3813 H   0  0  0  0  0  0  0  0  0  0  0  0
   -5.7544   -0.7603    2.5663 H   0  0  0  0  0  0  0  0  0  0  0  0
  1 30  1  0  0  0  0
  2 16  1  0  0  0  0
  2 26  1  0  0  0  0
  3 16  2  0  0  0  0
  4 17  2  0  0  0  0
  5 27  1  0  0  0  0
  5 31  1  0  0  0  0
  6  9  1  0  0  0  0
  6 12  1  0  0  0  0
  6 17  1  0  0  0  0
  7 11  1  0  0  0  0
  7 14  1  0  0  0  0
  7 15  1  0  0  0  0
  8 13  1  0  0  0  0
  8 15  2  0  0  0  0
  9 10  1  0  0  0  0
  9 16  1  0  0  0  0
  9 32  1  0  0  0  0
 10 13  1  0  0  0  0
 10 33  1  0  0  0  0
 10 34  1  0  0  0  0
 11 12  1  0  0  0  0
 11 13  2  0  0  0  0
 12 35  1  0  0  0  0
 12 36  1  0  0  0  0
 14 18  1  0  0  0  0
 14 37  1  0  0  0  0
 14 38  1  0  0  0  0
 15 39  1  0  0  0  0
 17 19  1  0  0  0  0
 18 20  2  0  0  0  0
 18 21  1  0  0  0  0
 19 22  2  0  0  0  0
 19 23  1  0  0  0  0
 20 24  1  0  0  0  0
 20 40  1  0  0  0  0
 21 25  2  0  0  0  0
 21 41  1  0  0  0  0
 22 28  1  0  0  0  0
 22 42  1  0  0  0  0
 23 29  2  0  0  0  0
 23 43  1  0  0  0  0
 24 27  2  0  0  0  0
 24 44  1  0  0  0  0
 25 27  1  0  0  0  0
 25 45  1  0  0  0  0
 26 46  1  0  0  0  0
 26 47  1  0  0  0  0
 26 48  1  0  0  0  0
 28 30  2  0  0  0  0
 28 49  1  0  0  0  0
 29 30  1  0  0  0  0
 29 50  1  0  0  0  0
 31 51  1  0  0  0  0
 31 52  1  0  0  0  0
 31 53  1  0  0  0  0
M  END
> <PUBCHEM_COMPOUND_CID>
25338983

> <PUBCHEM_CONFORMER_RMSD>
1

> <PUBCHEM_CONFORMER_DIVERSEORDER>
1
11
9
23
17
7
5
3
14
25
18
26
16
6
20
24
21
27
12
10
4
15
19
22
2
13
8

> <PUBCHEM_MMFF94_PARTIAL_CHARGES>
40
1 -0.19
10 0.18
11 -0.33
12 0.48
13 0.05
14 0.4
15 0.04
16 0.66
17 0.54
18 -0.14
19 0.09
2 -0.43
20 -0.15
21 -0.15
22 -0.15
23 -0.15
24 -0.15
25 -0.15
26 0.28
27 0.08
28 -0.15
29 -0.15
3 -0.57
30 0.19
31 0.28
39 0.15
4 -0.57
40 0.15
41 0.15
42 0.15
43 0.15
44 0.15
45 0.15
49 0.15
5 -0.36
50 0.15
6 -0.66
7 0.05
8 -0.57
9 0.36

> <PUBCHEM_EFFECTIVE_ROTOR_COUNT>
7.8

> <PUBCHEM_PHARMACOPHORE_FEATURES>
8
1 3 acceptor
1 4 acceptor
1 5 acceptor
3 7 8 15 cation
5 7 8 11 13 15 rings
6 18 20 21 24 25 27 rings
6 19 22 23 28 29 30 rings
6 6 9 10 11 12 13 rings

> <PUBCHEM_HEAVY_ATOM_COUNT>
31

> <PUBCHEM_ATOM_DEF_STEREO_COUNT>
1

> <PUBCHEM_ATOM_UDEF_STEREO_COUNT>
0

> <PUBCHEM_BOND_DEF_STEREO_COUNT>
0

> <PUBCHEM_BOND_UDEF_STEREO_COUNT>
0

> <PUBCHEM_ISOTOPIC_ATOM_COUNT>
0

> <PUBCHEM_COMPONENT_COUNT>
1

> <PUBCHEM_CACTVS_TAUTO_COUNT>
1

> <PUBCHEM_CONFORMER_ID>
0182A46700000001

> <PUBCHEM_MMFF94_ENERGY>
89.3528

> <PUBCHEM_FEATURE_SELFOVERLAP>
40.701

> <PUBCHEM_SHAPE_FINGERPRINT>
10064457 181 17259902347897793616
11374522 58 18410022031222442323
12128747 34 18409162221697726741
12156800 1 17339883718298830294
12160290 23 17695893450528067844
12633257 1 17416698040874253193
12788726 201 17413847870322199172
13135754 10 17769957687361614422
13533116 47 18125436656380991599
13583140 156 17770497848766812463
14363568 33 18337394945584015902
150020 26 18263089967122332691
17974551 9 18411141364007718593
20578428 11 13841970290678233927
20771845 38 15252048748262950194
20775530 9 18408321068789323894
22440779 20 17898598413175756289
23466295 7 17975137539452263678
24893989 43 15027916575800819168
3117164 225 18262250984290116243
3380486 145 17842240810385287534
35225 105 16913120331692705874
3737641 26 18408044017887124918
484985 159 17760653564059309730
57527585 103 17621049659344045838
6287921 2 17829894591748765003
6823239 73 17314222444578791011
7097593 13 18129380556674920079
77296 10 18055617655327480247
86090 222 17677620920184562883

> <PUBCHEM_SHAPE_MULTIPOLES>
592.27
8.85
5.89
2.75
6.99
0.76
-0.41
-12.01
-3.6
-3.8
-2.17
2.1
2.67
2.27

> <PUBCHEM_SHAPE_SELFOVERLAP>
1291.039

> <PUBCHEM_SHAPE_VOLUME>
324.7

> <PUBCHEM_COORDINATE_TYPE>
2
5
10

$$$$
