26762517
  -OEChem-12032416183D

 54 57  0     1  0  0  0  0  0999 V2000
    3.7098    2.0316   -1.4481 S   0  0  0  0  0  0  0  0  0  0  0  0
    4.2635    2.3181    1.4163 S   0  0  0  0  0  0  0  0  0  0  0  0
    4.3403   -3.2658   -0.1318 O   0  0  0  0  0  0  0  0  0  0  0  0
    2.7374    2.4576   -2.4365 O   0  0  0  0  0  0  0  0  0  0  0  0
    5.1021    2.4152   -1.5821 O   0  0  0  0  0  0  0  0  0  0  0  0
   -3.1692   -0.1787    1.7478 O   0  0  0  0  0  0  0  0  0  0  0  0
    1.0199   -1.8652   -0.3885 N   0  0  1  0  0  0  0  0  0  0  0  0
    2.7501   -3.0266    1.4834 N   0  0  0  0  0  0  0  0  0  0  0  0
    3.6233    0.3470   -1.2583 N   0  0  0  0  0  0  0  0  0  0  0  0
   -3.9884   -0.6220   -0.4074 N   0  0  0  0  0  0  0  0  0  0  0  0
    2.1329   -2.6733   -0.8871 C   0  0  1  0  0  0  0  0  0  0  0  0
    2.3726   -0.3696   -1.5982 C   0  0  1  0  0  0  0  0  0  0  0  0
    2.6807   -1.8077   -2.0179 C   0  0  0  0  0  0  0  0  0  0  0  0
    0.4403   -2.4019    0.8411 C   0  0  1  0  0  0  0  0  0  0  0  0
    1.4807   -0.4779   -0.3624 C   0  0  0  0  0  0  0  0  0  0  0  0
    1.4803   -2.5109    1.9511 C   0  0  0  0  0  0  0  0  0  0  0  0
    3.1813   -2.9800    0.1766 C   0  0  0  0  0  0  0  0  0  0  0  0
   -0.7795   -1.6051    1.3059 C   0  0  0  0  0  0  0  0  0  0  0  0
   -1.8396   -1.4839    0.2175 C   0  0  0  0  0  0  0  0  0  0  0  0
   -3.0696   -0.6878    0.6364 C   0  0  0  0  0  0  0  0  0  0  0  0
    3.1664    2.6053    0.1332 C   0  0  0  0  0  0  0  0  0  0  0  0
    2.0254    3.2469    0.5624 C   0  0  0  0  0  0  0  0  0  0  0  0
    2.0525    3.5064    1.9631 C   0  0  0  0  0  0  0  0  0  0  0  0
    3.2127    3.0531    2.5510 C   0  0  0  0  0  0  0  0  0  0  0  0
   -5.2471    0.0248   -0.4092 C   0  0  0  0  0  0  0  0  0  0  0  0
   -6.0469   -0.0090   -1.5515 C   0  0  0  0  0  0  0  0  0  0  0  0
   -5.6878    0.6963    0.7311 C   0  0  0  0  0  0  0  0  0  0  0  0
   -7.2875    0.6288   -1.5536 C   0  0  0  0  0  0  0  0  0  0  0  0
   -6.9284    1.3340    0.7292 C   0  0  0  0  0  0  0  0  0  0  0  0
   -7.7282    1.3003   -0.4132 C   0  0  0  0  0  0  0  0  0  0  0  0
    1.7767   -3.6340   -1.2775 H   0  0  0  0  0  0  0  0  0  0  0  0
    1.8543    0.1272   -2.4250 H   0  0  0  0  0  0  0  0  0  0  0  0
    3.7424   -1.9739   -2.2273 H   0  0  0  0  0  0  0  0  0  0  0  0
    2.1268   -2.0314   -2.9393 H   0  0  0  0  0  0  0  0  0  0  0  0
    0.0913   -3.4191    0.6117 H   0  0  0  0  0  0  0  0  0  0  0  0
    2.0373   -0.2432    0.5514 H   0  0  0  0  0  0  0  0  0  0  0  0
    0.6461    0.2271   -0.4331 H   0  0  0  0  0  0  0  0  0  0  0  0
    1.6883   -1.5384    2.4114 H   0  0  0  0  0  0  0  0  0  0  0  0
    1.1310   -3.1797    2.7453 H   0  0  0  0  0  0  0  0  0  0  0  0
   -0.4825   -0.6028    1.6415 H   0  0  0  0  0  0  0  0  0  0  0  0
   -1.2196   -2.0966    2.1835 H   0  0  0  0  0  0  0  0  0  0  0  0
    3.4322   -3.2879    2.1887 H   0  0  0  0  0  0  0  0  0  0  0  0
    4.1830   -0.0846   -0.5113 H   0  0  0  0  0  0  0  0  0  0  0  0
   -2.1745   -2.4855   -0.0804 H   0  0  0  0  0  0  0  0  0  0  0  0
   -1.4336   -0.9930   -0.6743 H   0  0  0  0  0  0  0  0  0  0  0  0
   -3.7445   -1.0913   -1.2771 H   0  0  0  0  0  0  0  0  0  0  0  0
    1.2085    3.5170   -0.0941 H   0  0  0  0  0  0  0  0  0  0  0  0
    1.2608    3.9998    2.5116 H   0  0  0  0  0  0  0  0  0  0  0  0
    3.4935    3.1181    3.5927 H   0  0  0  0  0  0  0  0  0  0  0  0
   -5.7154   -0.5287   -2.4468 H   0  0  0  0  0  0  0  0  0  0  0  0
   -5.1276    0.7655    1.6527 H   0  0  0  0  0  0  0  0  0  0  0  0
   -7.9103    0.6026   -2.4430 H   0  0  0  0  0  0  0  0  0  0  0  0
   -7.2730    1.8570    1.6167 H   0  0  0  0  0  0  0  0  0  0  0  0
   -8.6941    1.7969   -0.4146 H   0  0  0  0  0  0  0  0  0  0  0  0
  1  4  2  0  0  0  0
  1  5  2  0  0  0  0
  1  9  1  0  0  0  0
  1 21  1  0  0  0  0
  2 21  1  0  0  0  0
  2 24  1  0  0  0  0
  3 17  2  0  0  0  0
  6 20  2  0  0  0  0
  7 11  1  0  0  0  0
  7 14  1  0  0  0  0
  7 15  1  0  0  0  0
  8 16  1  0  0  0  0
  8 17  1  0  0  0  0
  8 42  1  0  0  0  0
  9 12  1  0  0  0  0
  9 43  1  0  0  0  0
 10 20  1  0  0  0  0
 10 25  1  0  0  0  0
 10 46  1  0  0  0  0
 11 13  1  0  0  0  0
 11 17  1  0  0  0  0
 11 31  1  0  0  0  0
 12 13  1  0  0  0  0
 12 15  1  0  0  0  0
 12 32  1  0  0  0  0
 13 33  1  0  0  0  0
 13 34  1  0  0  0  0
 14 16  1  0  0  0  0
 14 18  1  0  0  0  0
 14 35  1  0  0  0  0
 15 36  1  0  0  0  0
 15 37  1  0  0  0  0
 16 38  1  0  0  0  0
 16 39  1  0  0  0  0
 18 19  1  0  0  0  0
 18 40  1  0  0  0  0
 18 41  1  0  0  0  0
 19 20  1  0  0  0  0
 19 44  1  0  0  0  0
 19 45  1  0  0  0  0
 21 22  2  0  0  0  0
 22 23  1  0  0  0  0
 22 47  1  0  0  0  0
 23 24  2  0  0  0  0
 23 48  1  0  0  0  0
 24 49  1  0  0  0  0
 25 26  2  0  0  0  0
 25 27  1  0  0  0  0
 26 28  1  0  0  0  0
 26 50  1  0  0  0  0
 27 29  2  0  0  0  0
 27 51  1  0  0  0  0
 28 30  2  0  0  0  0
 28 52  1  0  0  0  0
 29 30  1  0  0  0  0
 29 53  1  0  0  0  0
 30 54  1  0  0  0  0
M  END
> <PUBCHEM_COMPOUND_CID>
26762517

> <PUBCHEM_CONFORMER_RMSD>
1.2

> <PUBCHEM_CONFORMER_DIVERSEORDER>
3
111
120
47
77
39
24
123
98
112
52
139
81
87
51
37
61
100
105
25
53
101
90
154
121
92
58
122
150
153
86
66
72
34
124
69
99
5
38
62
1
109
40
135
88
41
80
76
82
137
113
110
79
64
15
106
67
33
141
57
59
96
7
146
55
78
70
140
147
128
75
127
138
11
91
130
84
117
149
30
143
42
89
28
104
10
103
56
108
142
71
36
148
125
126
22
2
54
102
97
114
20
68
45
118
63
132
50
32
107
85
145
83
133
43
116
94
144
19
44
155
9
21
46
65
95
14
23
73
60
29
152
16
12
151
35
93
13
115
17
18
136
48
8
6
27
119
26
4
49
131
31
129
74
134

> <PUBCHEM_MMFF94_PARTIAL_CHARGES>
39
1 1.5
10 -0.55
11 0.33
12 0.36
14 0.27
15 0.27
16 0.3
17 0.57
19 0.06
2 -0.08
20 0.57
21 -0.02
22 -0.15
23 -0.15
24 -0.11
25 0.12
26 -0.15
27 -0.15
28 -0.15
29 -0.15
3 -0.57
30 -0.15
4 -0.65
42 0.37
43 0.42
46 0.37
47 0.15
48 0.15
49 0.15
5 -0.65
50 0.15
51 0.15
52 0.15
53 0.15
54 0.15
6 -0.57
7 -0.81
8 -0.73
9 -0.91

> <PUBCHEM_EFFECTIVE_ROTOR_COUNT>
9.2

> <PUBCHEM_PHARMACOPHORE_FEATURES>
12
1 10 donor
1 3 acceptor
1 4 acceptor
1 5 acceptor
1 6 acceptor
1 7 cation
1 8 donor
1 9 donor
5 2 21 22 23 24 rings
5 7 11 12 13 15 rings
6 25 26 27 28 29 30 rings
6 7 8 11 14 16 17 rings

> <PUBCHEM_HEAVY_ATOM_COUNT>
30

> <PUBCHEM_ATOM_DEF_STEREO_COUNT>
3

> <PUBCHEM_ATOM_UDEF_STEREO_COUNT>
0

> <PUBCHEM_BOND_DEF_STEREO_COUNT>
0

> <PUBCHEM_BOND_UDEF_STEREO_COUNT>
0

> <PUBCHEM_ISOTOPIC_ATOM_COUNT>
0

> <PUBCHEM_COMPONENT_COUNT>
1

> <PUBCHEM_CACTVS_TAUTO_COUNT>
6

> <PUBCHEM_CONFORMER_ID>
01985D1500000003

> <PUBCHEM_MMFF94_ENERGY>
66.0476

> <PUBCHEM_FEATURE_SELFOVERLAP>
61.142

> <PUBCHEM_SHAPE_FINGERPRINT>
10675989 125 18341615966106990128
10721379 63 18202560670480117457
11115154 58 18053394205674874266
11331351 85 17979621347849781026
11399939 17 14201683108315935281
11578080 2 18113909302764553067
11954058 11 10737276927260366497
1200032 147 16733849599770840220
12166972 35 18058161726958730499
12717326 135 18052813939142049784
12769317 202 18338525230377842484
13751561 76 17024004022533916933
13878862 14 18262502729054584173
14118638 360 18338794628824746343
15082195 135 17775287153829732575
15183329 4 17775290456986799373
19026451 147 18201718401412739786
20578428 11 12319160884726068435
21304303 172 17910401589470832362
21304303 282 17197390628340197726
21475661 188 18268709596510391560
21968339 14 18343024380477207774
22122407 14 18119263774885475961
23559900 14 17749675091344148995
3298306 158 18267584787366811433
376196 1 18196656417714642150
4066623 53 18338511924511858285
4371632 12 17701537544461386489
44317340 157 18411422817704751723
495365 180 18113336392892885179
513532 50 16630235995855520896
57091435 61 18337951298472977389
57359948 33 15697718100218154985
59025328 239 16268877024695778084

> <PUBCHEM_SHAPE_MULTIPOLES>
581.68
16.25
4.76
2.26
42.82
0.53
0.13
9.47
4.68
-9.23
-1.83
-2.03
0.82
0.45

> <PUBCHEM_SHAPE_SELFOVERLAP>
1212.347

> <PUBCHEM_SHAPE_VOLUME>
329.5

> <PUBCHEM_COORDINATE_TYPE>
2
5
10

$$$$
