28961232
  -OEChem-12032416143D

 68 70  0     1  0  0  0  0  0999 V2000
   -5.0188   -4.6920   -1.2117 F   0  0  0  0  0  0  0  0  0  0  0  0
   -3.6305    4.8407    1.5289 F   0  0  0  0  0  0  0  0  0  0  0  0
    0.2143    0.9346   -1.8050 O   0  0  0  0  0  0  0  0  0  0  0  0
    1.8663    3.0461   -0.4705 O   0  0  0  0  0  0  0  0  0  0  0  0
   -1.2553    2.8560   -3.2379 O   0  0  0  0  0  0  0  0  0  0  0  0
    3.5594    0.7379   -0.3044 N   0  0  1  0  0  0  0  0  0  0  0  0
   -0.5263   -0.5763    0.4977 N   0  0  0  0  0  0  0  0  0  0  0  0
    5.4736   -2.2279    0.9211 N   0  0  0  0  0  0  0  0  0  0  0  0
    2.5475    0.8773   -1.3370 C   0  0  1  0  0  0  0  0  0  0  0  0
    1.2056    0.1836   -1.0692 C   0  0  1  0  0  0  0  0  0  0  0  0
    2.1371    2.3070   -1.6544 C   0  0  1  0  0  0  0  0  0  0  0  0
    0.8506    2.0635   -2.4344 C   0  0  2  0  0  0  0  0  0  0  0  0
    0.7434    0.1262    0.3825 C   0  0  0  0  0  0  0  0  0  0  0  0
   -0.1210    3.2290   -2.4722 C   0  0  0  0  0  0  0  0  0  0  0  0
    4.1789   -0.5902   -0.3565 C   0  0  0  0  0  0  0  0  0  0  0  0
    4.5861    1.7764   -0.4361 C   0  0  0  0  0  0  0  0  0  0  0  0
    4.8725   -0.8994    0.9667 C   0  0  0  0  0  0  0  0  0  0  0  0
   -0.3271   -2.0247    0.4078 C   0  0  0  0  0  0  0  0  0  0  0  0
   -1.1946   -0.2351    1.7558 C   0  0  0  0  0  0  0  0  0  0  0  0
   -1.5807   -2.7372   -0.0251 C   0  0  0  0  0  0  0  0  0  0  0  0
   -1.8456    1.1212    1.6950 C   0  0  0  0  0  0  0  0  0  0  0  0
    4.4556   -3.2605    1.1209 C   0  0  0  0  0  0  0  0  0  0  0  0
    6.5274   -2.3513    1.9293 C   0  0  0  0  0  0  0  0  0  0  0  0
   -1.8245   -4.0420    0.4039 C   0  0  0  0  0  0  0  0  0  0  0  0
   -1.9702    1.8872    2.8540 C   0  0  0  0  0  0  0  0  0  0  0  0
   -2.4985   -2.0930   -0.8548 C   0  0  0  0  0  0  0  0  0  0  0  0
   -2.3241    1.6117    0.4800 C   0  0  0  0  0  0  0  0  0  0  0  0
   -2.9857   -4.7025    0.0030 C   0  0  0  0  0  0  0  0  0  0  0  0
   -2.5732    3.1436    2.7982 C   0  0  0  0  0  0  0  0  0  0  0  0
   -3.6597   -2.7536   -1.2559 C   0  0  0  0  0  0  0  0  0  0  0  0
   -2.9272    2.8681    0.4241 C   0  0  0  0  0  0  0  0  0  0  0  0
   -3.9033   -4.0583   -0.8270 C   0  0  0  0  0  0  0  0  0  0  0  0
   -3.0519    3.6340    1.5832 C   0  0  0  0  0  0  0  0  0  0  0  0
    2.9403    0.4709   -2.2835 H   0  0  0  0  0  0  0  0  0  0  0  0
    1.2461   -0.8162   -1.5122 H   0  0  0  0  0  0  0  0  0  0  0  0
    2.8735    2.8555   -2.2513 H   0  0  0  0  0  0  0  0  0  0  0  0
    1.0828    1.7412   -3.4576 H   0  0  0  0  0  0  0  0  0  0  0  0
    0.6377    1.1569    0.7396 H   0  0  0  0  0  0  0  0  0  0  0  0
    1.4988   -0.3459    1.0230 H   0  0  0  0  0  0  0  0  0  0  0  0
    0.3402    4.1092   -2.9302 H   0  0  0  0  0  0  0  0  0  0  0  0
   -0.4779    3.4849   -1.4703 H   0  0  0  0  0  0  0  0  0  0  0  0
    3.3997   -1.3399   -0.5292 H   0  0  0  0  0  0  0  0  0  0  0  0
    4.8806   -0.6710   -1.1979 H   0  0  0  0  0  0  0  0  0  0  0  0
    5.3903    1.6592    0.2957 H   0  0  0  0  0  0  0  0  0  0  0  0
    4.2041    2.7803   -0.2331 H   0  0  0  0  0  0  0  0  0  0  0  0
    5.0479    1.7730   -1.4310 H   0  0  0  0  0  0  0  0  0  0  0  0
    1.7130    3.9705   -0.7292 H   0  0  0  0  0  0  0  0  0  0  0  0
    5.6709   -0.1691    1.1345 H   0  0  0  0  0  0  0  0  0  0  0  0
    4.1783   -0.7983    1.8120 H   0  0  0  0  0  0  0  0  0  0  0  0
    0.0337   -2.4234    1.3661 H   0  0  0  0  0  0  0  0  0  0  0  0
    0.4313   -2.2961   -0.3347 H   0  0  0  0  0  0  0  0  0  0  0  0
   -0.4901   -0.2912    2.5969 H   0  0  0  0  0  0  0  0  0  0  0  0
   -2.0055   -0.9408    1.9791 H   0  0  0  0  0  0  0  0  0  0  0  0
   -1.8623    3.6157   -3.2394 H   0  0  0  0  0  0  0  0  0  0  0  0
    3.7112   -3.2645    0.3193 H   0  0  0  0  0  0  0  0  0  0  0  0
    3.9338   -3.1497    2.0787 H   0  0  0  0  0  0  0  0  0  0  0  0
    4.9166   -4.2552    1.1026 H   0  0  0  0  0  0  0  0  0  0  0  0
    7.3278   -1.6260    1.7447 H   0  0  0  0  0  0  0  0  0  0  0  0
    6.9916   -3.3428    1.8822 H   0  0  0  0  0  0  0  0  0  0  0  0
    6.1464   -2.1968    2.9454 H   0  0  0  0  0  0  0  0  0  0  0  0
   -1.1165   -4.5550    1.0492 H   0  0  0  0  0  0  0  0  0  0  0  0
   -1.6026    1.5154    3.8067 H   0  0  0  0  0  0  0  0  0  0  0  0
   -2.3254   -1.0936   -1.2390 H   0  0  0  0  0  0  0  0  0  0  0  0
   -2.2604    1.0439   -0.4413 H   0  0  0  0  0  0  0  0  0  0  0  0
   -3.1757   -5.7184    0.3365 H   0  0  0  0  0  0  0  0  0  0  0  0
   -2.6706    3.7403    3.7003 H   0  0  0  0  0  0  0  0  0  0  0  0
   -4.3706   -2.2555   -1.9086 H   0  0  0  0  0  0  0  0  0  0  0  0
   -3.3017    3.2496   -0.5214 H   0  0  0  0  0  0  0  0  0  0  0  0
  1 32  1  0  0  0  0
  2 33  1  0  0  0  0
  3 10  1  0  0  0  0
  3 12  1  0  0  0  0
  4 11  1  0  0  0  0
  4 47  1  0  0  0  0
  5 14  1  0  0  0  0
  5 54  1  0  0  0  0
  6  9  1  0  0  0  0
  6 15  1  0  0  0  0
  6 16  1  0  0  0  0
  7 13  1  0  0  0  0
  7 18  1  0  0  0  0
  7 19  1  0  0  0  0
  8 17  1  0  0  0  0
  8 22  1  0  0  0  0
  8 23  1  0  0  0  0
  9 10  1  0  0  0  0
  9 11  1  0  0  0  0
  9 34  1  0  0  0  0
 10 13  1  0  0  0  0
 10 35  1  0  0  0  0
 11 12  1  0  0  0  0
 11 36  1  0  0  0  0
 12 14  1  0  0  0  0
 12 37  1  0  0  0  0
 13 38  1  0  0  0  0
 13 39  1  0  0  0  0
 14 40  1  0  0  0  0
 14 41  1  0  0  0  0
 15 17  1  0  0  0  0
 15 42  1  0  0  0  0
 15 43  1  0  0  0  0
 16 44  1  0  0  0  0
 16 45  1  0  0  0  0
 16 46  1  0  0  0  0
 17 48  1  0  0  0  0
 17 49  1  0  0  0  0
 18 20  1  0  0  0  0
 18 50  1  0  0  0  0
 18 51  1  0  0  0  0
 19 21  1  0  0  0  0
 19 52  1  0  0  0  0
 19 53  1  0  0  0  0
 20 24  2  0  0  0  0
 20 26  1  0  0  0  0
 21 25  2  0  0  0  0
 21 27  1  0  0  0  0
 22 55  1  0  0  0  0
 22 56  1  0  0  0  0
 22 57  1  0  0  0  0
 23 58  1  0  0  0  0
 23 59  1  0  0  0  0
 23 60  1  0  0  0  0
 24 28  1  0  0  0  0
 24 61  1  0  0  0  0
 25 29  1  0  0  0  0
 25 62  1  0  0  0  0
 26 30  2  0  0  0  0
 26 63  1  0  0  0  0
 27 31  2  0  0  0  0
 27 64  1  0  0  0  0
 28 32  2  0  0  0  0
 28 65  1  0  0  0  0
 29 33  2  0  0  0  0
 29 66  1  0  0  0  0
 30 32  1  0  0  0  0
 30 67  1  0  0  0  0
 31 33  1  0  0  0  0
 31 68  1  0  0  0  0
M  END
> <PUBCHEM_COMPOUND_CID>
28961232

> <PUBCHEM_CONFORMER_RMSD>
1.2

> <PUBCHEM_CONFORMER_DIVERSEORDER>
1
37
70
45
36
10
44
62
69
7
23
20
11
73
65
26
66
41
72
50
22
16
59
21
67
4
32
74
18
77
51
25
49
24
27
29
52
33
60
57
64
28
68
14
13
76
47
75
61
8
48
53
38
30
58
15
12
40
63
56
39
17
6
54
55
35
19
43
42
2
9
31
46
71
5
34
3

> <PUBCHEM_MMFF94_PARTIAL_CHARGES>
43
1 -0.19
10 0.28
11 0.28
12 0.28
13 0.27
14 0.28
15 0.27
16 0.27
17 0.27
18 0.41
19 0.41
2 -0.19
20 -0.14
21 -0.14
22 0.27
23 0.27
24 -0.15
25 -0.15
26 -0.15
27 -0.15
28 -0.15
29 -0.15
3 -0.56
30 -0.15
31 -0.15
32 0.19
33 0.19
4 -0.68
47 0.4
5 -0.68
54 0.4
6 -0.81
61 0.15
62 0.15
63 0.15
64 0.15
65 0.15
66 0.15
67 0.15
68 0.15
7 -0.81
8 -0.81
9 0.27

> <PUBCHEM_EFFECTIVE_ROTOR_COUNT>
12

> <PUBCHEM_PHARMACOPHORE_FEATURES>
11
1 3 acceptor
1 4 acceptor
1 4 donor
1 5 acceptor
1 5 donor
1 6 cation
1 7 cation
1 8 cation
5 3 9 10 11 12 rings
6 20 24 26 28 30 32 rings
6 21 25 27 29 31 33 rings

> <PUBCHEM_HEAVY_ATOM_COUNT>
33

> <PUBCHEM_ATOM_DEF_STEREO_COUNT>
4

> <PUBCHEM_ATOM_UDEF_STEREO_COUNT>
0

> <PUBCHEM_BOND_DEF_STEREO_COUNT>
0

> <PUBCHEM_BOND_UDEF_STEREO_COUNT>
0

> <PUBCHEM_ISOTOPIC_ATOM_COUNT>
0

> <PUBCHEM_COMPONENT_COUNT>
1

> <PUBCHEM_CACTVS_TAUTO_COUNT>
1

> <PUBCHEM_CONFORMER_ID>
01B9E9D000000001

> <PUBCHEM_MMFF94_ENERGY>
93.8206

> <PUBCHEM_FEATURE_SELFOVERLAP>
55.825

> <PUBCHEM_SHAPE_FINGERPRINT>
11297750 10 14013410828809912580
11720765 8 18048017864687711439
12156800 1 17321495726898158493
12160290 23 17696801861817392923
12293681 160 17040945606590086300
12422481 6 17465401719827653568
12633257 1 18267591208991830184
12788726 201 18271250541943852370
14068700 675 18195242445872072590
15219462 58 17843938508178868600
15420108 30 17977946787228757091
15815584 197 17030537174539368929
17818456 19 18340497728299730219
18365409 1 18128245702367738311
21033648 29 17912943690128612008
21304303 282 18057875854140678085
2132832 1 18265899249021180492
21703447 108 18056194919942259176
23559900 14 17466499427315756190
238918 7 17465395113804000465
255183 313 18118962478075102402
3380486 145 18113338592237816332
376196 1 15981459041170183080
38695281 34 17908426857574795785
3886686 26 18199464368881056442
44880168 125 17976252436397258154
5028188 123 18342181039245521070

> <PUBCHEM_SHAPE_MULTIPOLES>
632.03
9.97
7.28
2.73
14.68
3.56
0.15
8.52
-3.9
-9.89
0.14
-0.93
-3.07
-6.37

> <PUBCHEM_SHAPE_SELFOVERLAP>
1317.503

> <PUBCHEM_SHAPE_VOLUME>
362.8

> <PUBCHEM_COORDINATE_TYPE>
2
5
10

$$$$
