11886423
  -OEChem-12032416393D

 49 52  0     1  0  0  0  0  0999 V2000
   -3.3447   -1.1373    0.8367 S   0  0  0  0  0  0  0  0  0  0  0  0
   -0.7750   -2.5234    0.6845 S   0  0  0  0  0  0  0  0  0  0  0  0
    5.9504   -1.7526    0.8443 S   0  0  0  0  0  0  0  0  0  0  0  0
   -4.6664   -1.3010    0.2671 O   0  0  0  0  0  0  0  0  0  0  0  0
   -3.0940   -1.3077    2.2525 O   0  0  0  0  0  0  0  0  0  0  0  0
    1.7508    2.0869    1.7174 O   0  0  0  0  0  0  0  0  0  0  0  0
    3.9229   -0.9449   -1.3652 O   0  0  0  0  0  0  0  0  0  0  0  0
   -2.7174    0.3730    0.3322 N   0  0  2  0  0  0  0  0  0  0  0  0
   -0.0102    1.9983    0.1841 N   0  0  0  0  0  0  0  0  0  0  0  0
    3.5262    0.9191   -0.0254 N   0  0  0  0  0  0  0  0  0  0  0  0
   -2.3741    2.8125    0.7379 C   0  0  1  0  0  0  0  0  0  0  0  0
   -1.8986    1.8675   -1.4788 C   0  0  2  0  0  0  0  0  0  0  0  0
   -2.4793    3.0807   -0.7576 C   0  0  0  0  0  0  0  0  0  0  0  0
   -3.1726    1.5550    1.1186 C   0  0  0  0  0  0  0  0  0  0  0  0
   -2.7335    0.6189   -1.1409 C   0  0  0  0  0  0  0  0  0  0  0  0
   -0.8932    2.7043    1.1220 C   0  0  0  0  0  0  0  0  0  0  0  0
   -0.4456    1.6506   -1.0986 C   0  0  0  0  0  0  0  0  0  0  0  0
    0.4119    1.1082   -1.9794 C   0  0  0  0  0  0  0  0  0  0  0  0
    1.3180    1.7833    0.6048 C   0  0  0  0  0  0  0  0  0  0  0  0
    2.2357    1.1553   -0.3981 C   0  0  0  0  0  0  0  0  0  0  0  0
    1.7786    0.8554   -1.6185 C   0  0  0  0  0  0  0  0  0  0  0  0
   -2.3549   -2.4147    0.0678 C   0  0  0  0  0  0  0  0  0  0  0  0
   -2.6264   -3.3112   -0.9130 C   0  0  0  0  0  0  0  0  0  0  0  0
   -1.4949   -4.1339   -1.1830 C   0  0  0  0  0  0  0  0  0  0  0  0
   -0.4192   -3.8124   -0.3849 C   0  0  0  0  0  0  0  0  0  0  0  0
    4.2966   -0.1150   -0.5373 C   0  0  0  0  0  0  0  0  0  0  0  0
    5.6901   -0.1505    0.0458 C   0  0  0  0  0  0  0  0  0  0  0  0
    4.6191   -1.6644    2.0651 C   0  0  0  0  0  0  0  0  0  0  0  0
   -2.8086    3.6552    1.2902 H   0  0  0  0  0  0  0  0  0  0  0  0
   -1.9725    2.0480   -2.5593 H   0  0  0  0  0  0  0  0  0  0  0  0
   -1.9325    3.9932   -1.0266 H   0  0  0  0  0  0  0  0  0  0  0  0
   -3.5257    3.2361   -1.0473 H   0  0  0  0  0  0  0  0  0  0  0  0
   -3.0438    1.3575    2.1884 H   0  0  0  0  0  0  0  0  0  0  0  0
   -4.2404    1.7199    0.9304 H   0  0  0  0  0  0  0  0  0  0  0  0
   -3.7689    0.7583   -1.4747 H   0  0  0  0  0  0  0  0  0  0  0  0
   -2.3227   -0.2464   -1.6713 H   0  0  0  0  0  0  0  0  0  0  0  0
   -0.4796    3.7184    1.2092 H   0  0  0  0  0  0  0  0  0  0  0  0
   -0.7843    2.2491    2.1145 H   0  0  0  0  0  0  0  0  0  0  0  0
    0.0967    0.8252   -2.9784 H   0  0  0  0  0  0  0  0  0  0  0  0
    2.3944    0.4512   -2.4130 H   0  0  0  0  0  0  0  0  0  0  0  0
    3.8479    1.3857    0.8190 H   0  0  0  0  0  0  0  0  0  0  0  0
   -3.5765   -3.3911   -1.4246 H   0  0  0  0  0  0  0  0  0  0  0  0
   -1.4709   -4.9211   -1.9252 H   0  0  0  0  0  0  0  0  0  0  0  0
    0.5590   -4.2723   -0.3791 H   0  0  0  0  0  0  0  0  0  0  0  0
    5.8638    0.6553    0.7647 H   0  0  0  0  0  0  0  0  0  0  0  0
    6.4075   -0.0304   -0.7719 H   0  0  0  0  0  0  0  0  0  0  0  0
    4.6796   -0.7350    2.6377 H   0  0  0  0  0  0  0  0  0  0  0  0
    4.7223   -2.5017    2.7608 H   0  0  0  0  0  0  0  0  0  0  0  0
    3.6400   -1.7441    1.5863 H   0  0  0  0  0  0  0  0  0  0  0  0
  1  4  2  0  0  0  0
  1  5  2  0  0  0  0
  1  8  1  0  0  0  0
  1 22  1  0  0  0  0
  2 22  1  0  0  0  0
  2 25  1  0  0  0  0
  3 27  1  0  0  0  0
  3 28  1  0  0  0  0
  6 19  2  0  0  0  0
  7 26  2  0  0  0  0
  8 14  1  0  0  0  0
  8 15  1  0  0  0  0
  9 16  1  0  0  0  0
  9 17  1  0  0  0  0
  9 19  1  0  0  0  0
 10 20  1  0  0  0  0
 10 26  1  0  0  0  0
 10 41  1  0  0  0  0
 11 13  1  0  0  0  0
 11 14  1  0  0  0  0
 11 16  1  0  0  0  0
 11 29  1  0  0  0  0
 12 13  1  0  0  0  0
 12 15  1  0  0  0  0
 12 17  1  0  0  0  0
 12 30  1  0  0  0  0
 13 31  1  0  0  0  0
 13 32  1  0  0  0  0
 14 33  1  0  0  0  0
 14 34  1  0  0  0  0
 15 35  1  0  0  0  0
 15 36  1  0  0  0  0
 16 37  1  0  0  0  0
 16 38  1  0  0  0  0
 17 18  2  0  0  0  0
 18 21  1  0  0  0  0
 18 39  1  0  0  0  0
 19 20  1  0  0  0  0
 20 21  2  0  0  0  0
 21 40  1  0  0  0  0
 22 23  2  0  0  0  0
 23 24  1  0  0  0  0
 23 42  1  0  0  0  0
 24 25  2  0  0  0  0
 24 43  1  0  0  0  0
 25 44  1  0  0  0  0
 26 27  1  0  0  0  0
 27 45  1  0  0  0  0
 27 46  1  0  0  0  0
 28 47  1  0  0  0  0
 28 48  1  0  0  0  0
 28 49  1  0  0  0  0
M  END
> <PUBCHEM_COMPOUND_CID>
11886423

> <PUBCHEM_CONFORMER_RMSD>
0.8

> <PUBCHEM_CONFORMER_DIVERSEORDER>
1
83
65
6
74
24
89
56
26
95
51
19
70
92
35
91
37
50
23
75
78
17
5
86
63
53
94
93
57
33
29
54
43
96
76
46
15
16
69
67
8
30
52
64
79
97
44
72
11
32
27
25
49
22
48
18
77
71
102
12
10
4
82
90
62
60
21
13
73
38
88
100
58
84
80
45
61
14
2
55
87
3
39
42
81
34
85
7
20
59
41
47
31
99
101
36
28
98
66
40
9
68

> <PUBCHEM_MMFF94_PARTIAL_CHARGES>
32
1 1.5
10 -0.54
12 0.14
14 0.36
15 0.36
16 0.3
17 -0.03
18 -0.15
19 0.62
2 -0.08
20 0.12
21 -0.15
22 -0.02
23 -0.15
24 -0.15
25 -0.11
26 0.57
27 0.29
28 0.23
3 -0.46
39 0.15
4 -0.65
40 0.15
41 0.37
42 0.15
43 0.15
44 0.15
5 -0.65
6 -0.57
7 -0.57
8 -0.85
9 -0.47

> <PUBCHEM_EFFECTIVE_ROTOR_COUNT>
7

> <PUBCHEM_PHARMACOPHORE_FEATURES>
10
1 10 donor
1 28 hydrophobe
1 4 acceptor
1 5 acceptor
1 6 acceptor
1 7 acceptor
5 2 22 23 24 25 rings
6 8 11 12 13 14 15 rings
6 9 11 12 13 16 17 rings
6 9 17 18 19 20 21 rings

> <PUBCHEM_HEAVY_ATOM_COUNT>
28

> <PUBCHEM_ATOM_DEF_STEREO_COUNT>
2

> <PUBCHEM_ATOM_UDEF_STEREO_COUNT>
0

> <PUBCHEM_BOND_DEF_STEREO_COUNT>
0

> <PUBCHEM_BOND_UDEF_STEREO_COUNT>
0

> <PUBCHEM_ISOTOPIC_ATOM_COUNT>
0

> <PUBCHEM_COMPONENT_COUNT>
1

> <PUBCHEM_CACTVS_TAUTO_COUNT>
2

> <PUBCHEM_CONFORMER_ID>
00B55F5700000001

> <PUBCHEM_MMFF94_ENERGY>
62.2622

> <PUBCHEM_FEATURE_SELFOVERLAP>
52.347

> <PUBCHEM_SHAPE_FINGERPRINT>
10483366 6 18266999766452338335
107951 10 17313661543393413019
11112241 14 17559372700923652962
11524674 6 18196926686968521654
11552529 35 18341331201458850716
12422481 6 18046941228008294411
12523318 42 18339913853761437216
12553582 1 17833570250498402119
12633257 1 17916606352038302387
12712778 12 18338216199313168794
12788726 201 18337125552381651862
13004483 165 18337114587272350157
13631057 29 18266177417511454988
14020679 6 17702952417820138776
14844126 61 18410291410694826602
15927050 60 17982175518240926301
16728300 4 18114737119056411787
19319366 153 16672790600970753837
20775530 9 17908708675817184630
22956985 138 11520831892920458732
23559900 14 18337382829181145344
238918 7 18059579044923962270
3027735 51 18340204099240525999
35225 105 18265028319742350543
463206 1 18192433197562927298
5085150 59 18266443322514370535
5265222 85 18264796322979203708
6287921 2 17262141537629651050
7970288 3 17751372895689096659

> <PUBCHEM_SHAPE_MULTIPOLES>
549.36
9.51
4.87
1.79
16.12
3.69
-0.16
3.56
-2.7
-4.25
0.47
0.11
-0.1
-0.74

> <PUBCHEM_SHAPE_SELFOVERLAP>
1139.475

> <PUBCHEM_SHAPE_VOLUME>
314

> <PUBCHEM_COORDINATE_TYPE>
2
5
10

$$$$
