45783771
  -OEChem-12032416363D

 47 50  0     1  0  0  0  0  0999 V2000
   -1.1137   -1.0560    1.9955 O   0  0  0  0  0  0  0  0  0  0  0  0
   -2.0554    1.9995   -0.7127 O   0  0  0  0  0  0  0  0  0  0  0  0
    0.7957    2.4509   -1.5466 O   0  0  0  0  0  0  0  0  0  0  0  0
   -3.4286   -0.5931   -0.6075 N   0  0  1  0  0  0  0  0  0  0  0  0
   -0.3854   -1.2026   -0.1175 N   0  0  0  0  0  0  0  0  0  0  0  0
    0.2666   -0.8228    2.0423 N   0  0  0  0  0  0  0  0  0  0  0  0
    4.2886   -0.3089    0.8711 N   0  0  0  0  0  0  0  0  0  0  0  0
    5.9205   -0.2623   -0.8639 N   0  0  0  0  0  0  0  0  0  0  0  0
   -2.8685   -1.5502    0.3676 C   0  0  1  0  0  0  0  0  0  0  0  0
   -3.0803   -2.9331   -0.2757 C   0  0  0  0  0  0  0  0  0  0  0  0
   -3.8195   -2.6572   -1.5774 C   0  0  0  0  0  0  0  0  0  0  0  0
   -4.4732   -1.3112   -1.3381 C   0  0  0  0  0  0  0  0  0  0  0  0
   -3.9315    0.6275    0.0096 C   0  0  0  0  0  0  0  0  0  0  0  0
   -1.4150   -1.2710    0.6881 C   0  0  0  0  0  0  0  0  0  0  0  0
   -2.8207    1.5909    0.3332 C   0  0  0  0  0  0  0  0  0  0  0  0
   -2.3908    2.1732    1.5031 C   0  0  0  0  0  0  0  0  0  0  0  0
    0.6234   -0.9256    0.7585 C   0  0  0  0  0  0  0  0  0  0  0  0
   -1.1268    2.8522   -0.2051 C   0  0  0  0  0  0  0  0  0  0  0  0
   -1.2910    2.9924    1.1533 C   0  0  0  0  0  0  0  0  0  0  0  0
    1.9785   -0.7591    0.3186 C   0  0  0  0  0  0  0  0  0  0  0  0
   -0.1772    3.4277   -1.1681 C   0  0  0  0  0  0  0  0  0  0  0  0
    2.3149   -0.8747   -1.0257 C   0  0  0  0  0  0  0  0  0  0  0  0
    2.9932   -0.4777    1.2191 C   0  0  0  0  0  0  0  0  0  0  0  0
    3.6371   -0.7077   -1.4225 C   0  0  0  0  0  0  0  0  0  0  0  0
    4.5776   -0.4286   -0.4441 C   0  0  0  0  0  0  0  0  0  0  0  0
    6.9815    0.0277    0.0449 C   0  0  0  0  0  0  0  0  0  0  0  0
   -3.4446   -1.5341    1.3036 H   0  0  0  0  0  0  0  0  0  0  0  0
   -2.1526   -3.4840   -0.4640 H   0  0  0  0  0  0  0  0  0  0  0  0
   -3.7092   -3.5503    0.3778 H   0  0  0  0  0  0  0  0  0  0  0  0
   -4.5456   -3.4402   -1.8149 H   0  0  0  0  0  0  0  0  0  0  0  0
   -3.1033   -2.5930   -2.4060 H   0  0  0  0  0  0  0  0  0  0  0  0
   -5.3823   -1.4315   -0.7353 H   0  0  0  0  0  0  0  0  0  0  0  0
   -4.7323   -0.8172   -2.2796 H   0  0  0  0  0  0  0  0  0  0  0  0
   -4.5354    0.4228    0.9025 H   0  0  0  0  0  0  0  0  0  0  0  0
   -4.5907    1.1526   -0.6951 H   0  0  0  0  0  0  0  0  0  0  0  0
   -2.8146    2.0256    2.4860 H   0  0  0  0  0  0  0  0  0  0  0  0
   -0.6934    3.6065    1.8117 H   0  0  0  0  0  0  0  0  0  0  0  0
    0.3494    4.2831   -0.7334 H   0  0  0  0  0  0  0  0  0  0  0  0
   -0.6974    3.7634   -2.0709 H   0  0  0  0  0  0  0  0  0  0  0  0
    1.5683   -1.0930   -1.7848 H   0  0  0  0  0  0  0  0  0  0  0  0
    2.8145   -0.3712    2.2849 H   0  0  0  0  0  0  0  0  0  0  0  0
    3.9060   -0.7972   -2.4700 H   0  0  0  0  0  0  0  0  0  0  0  0
    1.3965    2.8798   -2.1796 H   0  0  0  0  0  0  0  0  0  0  0  0
    6.0814   -0.1273   -1.8562 H   0  0  0  0  0  0  0  0  0  0  0  0
    7.0934   -0.7664    0.7904 H   0  0  0  0  0  0  0  0  0  0  0  0
    7.9277    0.1069   -0.4995 H   0  0  0  0  0  0  0  0  0  0  0  0
    6.8132    0.9784    0.5612 H   0  0  0  0  0  0  0  0  0  0  0  0
  1  6  1  0  0  0  0
  1 14  1  0  0  0  0
  2 15  1  0  0  0  0
  2 18  1  0  0  0  0
  3 21  1  0  0  0  0
  3 43  1  0  0  0  0
  4  9  1  0  0  0  0
  4 12  1  0  0  0  0
  4 13  1  0  0  0  0
  5 14  2  0  0  0  0
  5 17  1  0  0  0  0
  6 17  2  0  0  0  0
  7 23  1  0  0  0  0
  7 25  2  0  0  0  0
  8 25  1  0  0  0  0
  8 26  1  0  0  0  0
  8 44  1  0  0  0  0
  9 10  1  0  0  0  0
  9 14  1  0  0  0  0
  9 27  1  0  0  0  0
 10 11  1  0  0  0  0
 10 28  1  0  0  0  0
 10 29  1  0  0  0  0
 11 12  1  0  0  0  0
 11 30  1  0  0  0  0
 11 31  1  0  0  0  0
 12 32  1  0  0  0  0
 12 33  1  0  0  0  0
 13 15  1  0  0  0  0
 13 34  1  0  0  0  0
 13 35  1  0  0  0  0
 15 16  2  0  0  0  0
 16 19  1  0  0  0  0
 16 36  1  0  0  0  0
 17 20  1  0  0  0  0
 18 19  2  0  0  0  0
 18 21  1  0  0  0  0
 19 37  1  0  0  0  0
 20 22  1  0  0  0  0
 20 23  2  0  0  0  0
 21 38  1  0  0  0  0
 21 39  1  0  0  0  0
 22 24  2  0  0  0  0
 22 40  1  0  0  0  0
 23 41  1  0  0  0  0
 24 25  1  0  0  0  0
 24 42  1  0  0  0  0
 26 45  1  0  0  0  0
 26 46  1  0  0  0  0
 26 47  1  0  0  0  0
M  END
> <PUBCHEM_COMPOUND_CID>
45783771

> <PUBCHEM_CONFORMER_RMSD>
0.8

> <PUBCHEM_CONFORMER_DIVERSEORDER>
1
187
207
177
197
101
53
173
137
64
93
179
121
150
206
184
112
166
113
198
76
117
147
31
85
62
52
81
96
27
128
149
106
70
194
174
127
191
111
123
56
105
99
109
118
45
165
23
203
19
73
208
115
139
72
14
172
49
75
13
38
116
47
190
204
182
22
100
34
169
48
24
2
196
151
145
126
205
87
141
17
144
188
36
132
120
80
68
6
65
122
163
10
39
35
97
181
178
104
135
90
107
155
193
84
168
189
142
61
71
185
129
88
200
30
171
186
136
180
157
161
102
9
25
159
170
28
20
83
133
89
124
79
156
167
98
195
143
78
158
176
7
131
153
32
18
29
95
86
110
175
201
82
160
16
8
162
92
57
4
74
146
33
140
43
119
192
183
67
51
44
77
114
134
152
58
54
138
125
209
148
41
60
94
12
40
130
15
103
59
66
50
5
154
164
46
199
69
3
108
63
202
55
210
26
21
91
42
37
11

> <PUBCHEM_MMFF94_PARTIAL_CHARGES>
31
1 -0.02
12 0.27
13 0.45
14 0.3
15 -0.04
16 -0.15
17 0.46
18 -0.04
19 -0.15
2 -0.28
20 0.05
21 0.46
22 -0.15
23 0.16
24 -0.15
25 0.41
26 0.37
3 -0.68
36 0.15
37 0.15
4 -0.81
40 0.15
41 0.15
42 0.15
43 0.4
44 0.4
5 -0.57
6 -0.41
7 -0.62
8 -0.87
9 0.45

> <PUBCHEM_EFFECTIVE_ROTOR_COUNT>
7

> <PUBCHEM_PHARMACOPHORE_FEATURES>
11
1 2 acceptor
1 3 acceptor
1 3 donor
1 4 cation
1 8 donor
3 5 6 17 cation
3 7 8 25 cation
5 1 5 6 14 17 rings
5 2 15 16 18 19 rings
5 4 9 10 11 12 rings
6 7 20 22 23 24 25 rings

> <PUBCHEM_HEAVY_ATOM_COUNT>
26

> <PUBCHEM_ATOM_DEF_STEREO_COUNT>
1

> <PUBCHEM_ATOM_UDEF_STEREO_COUNT>
0

> <PUBCHEM_BOND_DEF_STEREO_COUNT>
0

> <PUBCHEM_BOND_UDEF_STEREO_COUNT>
0

> <PUBCHEM_ISOTOPIC_ATOM_COUNT>
0

> <PUBCHEM_COMPONENT_COUNT>
1

> <PUBCHEM_CACTVS_TAUTO_COUNT>
8

> <PUBCHEM_CONFORMER_ID>
02BA9ADB00000001

> <PUBCHEM_MMFF94_ENERGY>
44.7746

> <PUBCHEM_FEATURE_SELFOVERLAP>
55.823

> <PUBCHEM_SHAPE_FINGERPRINT>
10087517 78 18335139787443508524
10369192 42 16840757404794446728
10498660 4 18263638476883897829
107951 10 16627723427519463217
10871710 139 18115305562457328133
10937287 8 17550110259999823049
11477941 20 18342736356097883908
11488393 25 17185597360725285787
12156800 1 16086936458295436005
12166972 35 17386008437321721486
12788726 201 18410284788182700035
13947920 75 18408037394999880042
13994607 96 17532113642738536745
14081887 123 18341320098567431544
14142880 1 18192442870319758441
14910302 57 18059573517000001206
14955137 171 18341908411283729603
15849732 13 18202293498646692587
15961568 22 18195516207367666488
17349148 13 17821728321489302754
17357779 13 18200578289722696237
17492 54 18116414974459319517
17686467 74 18267296720469746424
17818456 19 17977649927964418874
18336668 15 18040720285449596925
20600515 1 17973975608874338705
20642791 239 18040983065055795973
20775438 99 16972772583081444631
20905425 154 17979074109218121957
21033650 10 18193862378754421726
21344244 246 17835230530046218077
21623110 236 18335995258623837484
23402539 116 18408603677922029542
23419403 2 17762572504113166301
23557571 272 18201720656296989119
4280585 95 18338222864516602396
469060 322 18116177543971010969
531348 171 18270688537352890686
57527585 103 17316773375589468433
7471813 234 18266458896150058958
81228 2 18410577258333463891

> <PUBCHEM_SHAPE_MULTIPOLES>
492.55
10.69
3.56
1.63
18.22
2.65
0.22
-4.5
-2.67
-4.6
-0.84
-0.16
0.06
-1.08

> <PUBCHEM_SHAPE_SELFOVERLAP>
1064.435

> <PUBCHEM_SHAPE_VOLUME>
273

> <PUBCHEM_COORDINATE_TYPE>
2
5
10

$$$$
