44716528
  -OEChem-12032416163D

 69 74  0     1  0  0  0  0  0999 V2000
    4.0270    4.7304    0.5180 F   0  0  0  0  0  0  0  0  0  0  0  0
    5.3701    4.3484   -1.8328 F   0  0  0  0  0  0  0  0  0  0  0  0
    4.1085    0.8957    2.0077 O   0  0  0  0  0  0  0  0  0  0  0  0
    4.9753   -0.3009    0.2319 O   0  0  0  0  0  0  0  0  0  0  0  0
    1.6260    0.0310    1.0959 N   0  0  2  0  0  0  0  0  0  0  0  0
   -2.3837    1.3477    0.1136 N   0  0  0  0  0  0  0  0  0  0  0  0
   -0.6741   -2.9559    0.7491 N   0  0  0  0  0  0  0  0  0  0  0  0
   -7.3405    1.1920   -0.0631 N   0  0  0  0  0  0  0  0  0  0  0  0
   -9.1632    2.1765   -0.8633 N   0  0  0  0  0  0  0  0  0  0  0  0
    0.4430   -0.7839    1.5594 C   0  0  1  0  0  0  0  0  0  0  0  0
    1.3757    0.6791   -0.2289 C   0  0  1  0  0  0  0  0  0  0  0  0
   -0.8785   -0.0065    1.5098 C   0  0  0  0  0  0  0  0  0  0  0  0
   -1.1467    0.5680    0.1227 C   0  0  2  0  0  0  0  0  0  0  0  0
    0.0320    1.4515   -0.2702 C   0  0  0  0  0  0  0  0  0  0  0  0
    2.8306   -0.8629    1.1572 C   0  0  1  0  0  0  0  0  0  0  0  0
    0.3971   -2.1125    0.8438 C   0  0  0  0  0  0  0  0  0  0  0  0
    2.8054   -2.0502    0.1661 C   0  0  0  0  0  0  0  0  0  0  0  0
    1.4711   -2.7127    0.2155 C   0  0  0  0  0  0  0  0  0  0  0  0
    2.4541    1.6697   -0.6621 C   0  0  0  0  0  0  0  0  0  0  0  0
    1.0272   -3.9534   -0.3138 C   0  0  0  0  0  0  0  0  0  0  0  0
   -0.3214   -4.0814    0.0342 C   0  0  0  0  0  0  0  0  0  0  0  0
    4.0975   -0.0797    1.0551 C   0  0  0  0  0  0  0  0  0  0  0  0
   -3.5430    0.4734    0.0274 C   0  0  0  0  0  0  0  0  0  0  0  0
    2.7541    2.7694    0.1417 C   0  0  0  0  0  0  0  0  0  0  0  0
    3.1390    1.4751   -1.8617 C   0  0  0  0  0  0  0  0  0  0  0  0
    1.6374   -4.9863   -1.0533 C   0  0  0  0  0  0  0  0  0  0  0  0
   -1.0888   -5.1960   -0.3230 C   0  0  0  0  0  0  0  0  0  0  0  0
   -4.8304    1.2961    0.0446 C   0  0  0  0  0  0  0  0  0  0  0  0
    0.8801   -6.1050   -1.4183 C   0  0  0  0  0  0  0  0  0  0  0  0
    3.7391    3.6744   -0.2537 C   0  0  0  0  0  0  0  0  0  0  0  0
    4.1238    2.3800   -2.2572 C   0  0  0  0  0  0  0  0  0  0  0  0
   -0.4618   -6.2062   -1.0578 C   0  0  0  0  0  0  0  0  0  0  0  0
   -6.0632    0.3921   -0.0362 C   0  0  0  0  0  0  0  0  0  0  0  0
    4.4240    3.4797   -1.4531 C   0  0  0  0  0  0  0  0  0  0  0  0
    5.2732    1.7272    2.0229 C   0  0  0  0  0  0  0  0  0  0  0  0
   -7.9418    1.7925    1.0069 C   0  0  0  0  0  0  0  0  0  0  0  0
   -8.1098    1.4498   -1.1635 C   0  0  0  0  0  0  0  0  0  0  0  0
   -9.0644    2.3935    0.4884 C   0  0  0  0  0  0  0  0  0  0  0  0
    0.6170   -1.0134    2.6209 H   0  0  0  0  0  0  0  0  0  0  0  0
    1.3019   -0.1000   -0.9985 H   0  0  0  0  0  0  0  0  0  0  0  0
   -0.8251    0.8148    2.2393 H   0  0  0  0  0  0  0  0  0  0  0  0
   -1.6988   -0.6498    1.8456 H   0  0  0  0  0  0  0  0  0  0  0  0
   -1.2140   -0.2390   -0.6190 H   0  0  0  0  0  0  0  0  0  0  0  0
   -0.1283    1.8483   -1.2828 H   0  0  0  0  0  0  0  0  0  0  0  0
    0.0649    2.3230    0.3987 H   0  0  0  0  0  0  0  0  0  0  0  0
    2.8711   -1.2953    2.1702 H   0  0  0  0  0  0  0  0  0  0  0  0
    3.0079   -1.7180   -0.8592 H   0  0  0  0  0  0  0  0  0  0  0  0
    3.5897   -2.7700    0.4308 H   0  0  0  0  0  0  0  0  0  0  0  0
   -2.3877    1.9795   -0.6872 H   0  0  0  0  0  0  0  0  0  0  0  0
   -1.5926   -2.7862    1.1348 H   0  0  0  0  0  0  0  0  0  0  0  0
   -3.5760   -0.2275    0.8679 H   0  0  0  0  0  0  0  0  0  0  0  0
   -3.5081   -0.1163   -0.8971 H   0  0  0  0  0  0  0  0  0  0  0  0
    2.2353    2.9378    1.0815 H   0  0  0  0  0  0  0  0  0  0  0  0
    2.9171    0.6228   -2.4980 H   0  0  0  0  0  0  0  0  0  0  0  0
    2.6829   -4.9217   -1.3407 H   0  0  0  0  0  0  0  0  0  0  0  0
   -2.1336   -5.2770   -0.0422 H   0  0  0  0  0  0  0  0  0  0  0  0
   -4.8387    1.9999   -0.7978 H   0  0  0  0  0  0  0  0  0  0  0  0
   -4.8767    1.9010    0.9593 H   0  0  0  0  0  0  0  0  0  0  0  0
    1.3460   -6.9038   -1.9892 H   0  0  0  0  0  0  0  0  0  0  0  0
    4.6578    2.2285   -3.1906 H   0  0  0  0  0  0  0  0  0  0  0  0
   -1.0311   -7.0845   -1.3513 H   0  0  0  0  0  0  0  0  0  0  0  0
   -6.0671   -0.2144   -0.9483 H   0  0  0  0  0  0  0  0  0  0  0  0
   -6.1483   -0.2671    0.8346 H   0  0  0  0  0  0  0  0  0  0  0  0
    4.9981    2.6926    2.4563 H   0  0  0  0  0  0  0  0  0  0  0  0
    5.6869    1.8934    1.0242 H   0  0  0  0  0  0  0  0  0  0  0  0
    6.0293    1.2638    2.6631 H   0  0  0  0  0  0  0  0  0  0  0  0
   -7.5345    1.7423    2.0069 H   0  0  0  0  0  0  0  0  0  0  0  0
   -7.8546    1.0865   -2.1495 H   0  0  0  0  0  0  0  0  0  0  0  0
   -9.8066    2.9715    1.0194 H   0  0  0  0  0  0  0  0  0  0  0  0
  1 30  1  0  0  0  0
  2 34  1  0  0  0  0
  3 22  1  0  0  0  0
  3 35  1  0  0  0  0
  4 22  2  0  0  0  0
  5 10  1  0  0  0  0
  5 11  1  0  0  0  0
  5 15  1  0  0  0  0
  6 13  1  0  0  0  0
  6 23  1  0  0  0  0
  6 49  1  0  0  0  0
  7 16  1  0  0  0  0
  7 21  1  0  0  0  0
  7 50  1  0  0  0  0
  8 33  1  0  0  0  0
  8 36  1  0  0  0  0
  8 37  1  0  0  0  0
  9 37  2  0  0  0  0
  9 38  1  0  0  0  0
 10 12  1  0  0  0  0
 10 16  1  0  0  0  0
 10 39  1  0  0  0  0
 11 14  1  0  0  0  0
 11 19  1  0  0  0  0
 11 40  1  0  0  0  0
 12 13  1  0  0  0  0
 12 41  1  0  0  0  0
 12 42  1  0  0  0  0
 13 14  1  0  0  0  0
 13 43  1  0  0  0  0
 14 44  1  0  0  0  0
 14 45  1  0  0  0  0
 15 17  1  0  0  0  0
 15 22  1  0  0  0  0
 15 46  1  0  0  0  0
 16 18  2  0  0  0  0
 17 18  1  0  0  0  0
 17 47  1  0  0  0  0
 17 48  1  0  0  0  0
 18 20  1  0  0  0  0
 19 24  2  0  0  0  0
 19 25  1  0  0  0  0
 20 21  1  0  0  0  0
 20 26  2  0  0  0  0
 21 27  2  0  0  0  0
 23 28  1  0  0  0  0
 23 51  1  0  0  0  0
 23 52  1  0  0  0  0
 24 30  1  0  0  0  0
 24 53  1  0  0  0  0
 25 31  2  0  0  0  0
 25 54  1  0  0  0  0
 26 29  1  0  0  0  0
 26 55  1  0  0  0  0
 27 32  1  0  0  0  0
 27 56  1  0  0  0  0
 28 33  1  0  0  0  0
 28 57  1  0  0  0  0
 28 58  1  0  0  0  0
 29 32  2  0  0  0  0
 29 59  1  0  0  0  0
 30 34  2  0  0  0  0
 31 34  1  0  0  0  0
 31 60  1  0  0  0  0
 32 61  1  0  0  0  0
 33 62  1  0  0  0  0
 33 63  1  0  0  0  0
 35 64  1  0  0  0  0
 35 65  1  0  0  0  0
 35 66  1  0  0  0  0
 36 38  2  0  0  0  0
 36 67  1  0  0  0  0
 37 68  1  0  0  0  0
 38 69  1  0  0  0  0
M  END
> <PUBCHEM_COMPOUND_CID>
44716528

> <PUBCHEM_CONFORMER_RMSD>
1

> <PUBCHEM_CONFORMER_DIVERSEORDER>
1
72
107
198
126
201
5
218
121
64
157
187
199
27
12
191
144
140
28
128
44
84
195
160
45
211
188
29
25
110
196
137
82
70
162
26
180
56
88
95
47
41
65
179
43
62
54
163
139
209
123
68
168
150
165
124
173
80
106
75
99
90
136
171
127
36
207
74
194
98
8
114
151
109
33
55
85
184
145
169
7
149
134
146
122
32
183
111
16
193
204
205
185
116
152
34
57
39
46
21
212
203
22
182
148
50
158
119
118
3
96
53
81
120
141
125
48
135
59
175
24
77
108
138
112
176
6
142
76
214
164
100
147
102
206
37
115
132
58
83
42
177
170
86
172
30
92
113
104
91
67
38
66
202
167
89
210
20
217
178
155
213
49
4
159
52
161
9
117
220
73
166
10
78
181
174
11
94
189
97
69
133
93
60
153
17
154
131
129
13
40
14
19
23
87
105
143
2
35
197
71
200
219
186
31
15
18
156
63
192
51
130
103
190
215
101
79
61
216
208

> <PUBCHEM_MMFF94_PARTIAL_CHARGES>
46
1 -0.19
10 0.45
11 0.41
13 0.27
15 0.33
16 -0.33
17 0.18
18 -0.18
19 -0.14
2 -0.19
21 -0.15
22 0.66
23 0.27
24 -0.15
25 -0.15
26 -0.15
27 -0.15
29 -0.15
3 -0.43
30 0.19
31 -0.15
32 -0.15
33 0.26
34 0.19
35 0.28
36 -0.3
37 0.04
38 0.08
4 -0.57
49 0.36
5 -0.81
50 0.27
53 0.15
54 0.15
55 0.15
56 0.15
59 0.15
6 -0.9
60 0.15
61 0.15
67 0.15
68 0.15
69 0.15
7 0.03
8 0.05
9 -0.57

> <PUBCHEM_EFFECTIVE_ROTOR_COUNT>
9.2

> <PUBCHEM_PHARMACOPHORE_FEATURES>
13
1 4 acceptor
1 5 cation
1 6 cation
1 6 donor
1 7 cation
1 7 donor
3 8 9 37 cation
5 7 16 18 20 21 rings
5 8 9 36 37 38 rings
6 19 24 25 30 31 34 rings
6 20 21 26 27 29 32 rings
6 5 10 11 12 13 14 rings
6 5 10 15 16 17 18 rings

> <PUBCHEM_HEAVY_ATOM_COUNT>
38

> <PUBCHEM_ATOM_DEF_STEREO_COUNT>
4

> <PUBCHEM_ATOM_UDEF_STEREO_COUNT>
0

> <PUBCHEM_BOND_DEF_STEREO_COUNT>
0

> <PUBCHEM_BOND_UDEF_STEREO_COUNT>
0

> <PUBCHEM_ISOTOPIC_ATOM_COUNT>
0

> <PUBCHEM_COMPONENT_COUNT>
1

> <PUBCHEM_CACTVS_TAUTO_COUNT>
1

> <PUBCHEM_CONFORMER_ID>
02AA51F000000001

> <PUBCHEM_MMFF94_ENERGY>
72.4861

> <PUBCHEM_FEATURE_SELFOVERLAP>
66.224

> <PUBCHEM_SHAPE_FINGERPRINT>
10319688 140 18266465304668714183
10554248 39 18195514915183670117
10673678 19 18411420609690407985
10675989 125 18410859824432366505
10952577 141 17534366684236719620
11505856 67 17323821318249245853
11719270 70 18410852145051725985
12788726 201 17687744256995744930
13008946 170 18129081369860151649
13008946 62 17754772582049027845
13540713 5 17826781832029438664
13692114 37 18339917220831453547
14004853 49 18341899640480846067
14294032 229 18049734201942991713
15082195 135 18337400318608929177
15198563 99 17331409073588083167
15392192 104 18261403256778118409
15400415 2 18411699928868115181
15448158 71 17460036407926798772
15484559 13 18413394228197599614
16090146 7 18272384069960150074
17899979 129 18337119999010491829
18365409 1 18200580497246852566
19319366 153 18130213888026234059
22149856 69 18341342098555876561
255183 451 17767970835802182735
27425 322 17916852638226988041
3534868 343 18127977412666833153
394071 54 18263083220102834929
46194498 28 18115590323531913205
6609424 69 17240755125909643693
9831232 110 18122063110130735295

> <PUBCHEM_SHAPE_MULTIPOLES>
730.83
17.51
8.47
1.65
62.7
14.52
-0.12
-27.28
-1.34
-8.26
-4.46
-2.12
-0.76
-1.18

> <PUBCHEM_SHAPE_SELFOVERLAP>
1602.604

> <PUBCHEM_SHAPE_VOLUME>
397.3

> <PUBCHEM_COORDINATE_TYPE>
2
5
10

$$$$
