26761888
  -OEChem-12032416293D

 40 43  0     1  0  0  0  0  0999 V2000
    0.3081    2.1134   -0.9345 O   0  0  0  0  0  0  0  0  0  0  0  0
   -6.5760   -1.0144    0.2148 O   0  0  0  0  0  0  0  0  0  0  0  0
    2.6255    0.6660    1.3090 N   0  0  1  0  0  0  0  0  0  0  0  0
    5.8807   -1.0056    0.4865 N   0  0  0  0  0  0  0  0  0  0  0  0
    4.8129   -1.7338   -1.3376 N   0  0  0  0  0  0  0  0  0  0  0  0
   -0.2824    0.1757    0.0213 N   0  0  0  0  0  0  0  0  0  0  0  0
   -1.0902    2.0591   -0.9957 N   0  0  0  0  0  0  0  0  0  0  0  0
    2.2045    0.7806   -0.1298 C   0  0  1  0  0  0  0  0  0  0  0  0
    2.6487   -0.4586   -0.9854 C   0  0  0  0  0  0  0  0  0  0  0  0
    4.1064    0.5612    1.4579 C   0  0  0  0  0  0  0  0  0  0  0  0
    4.0261   -0.8633   -0.6386 C   0  0  0  0  0  0  0  0  0  0  0  0
    4.6572   -0.4080    0.4893 C   0  0  0  0  0  0  0  0  0  0  0  0
    0.7027    0.9667   -0.3218 C   0  0  0  0  0  0  0  0  0  0  0  0
    2.1644    1.8020    2.1184 C   0  0  0  0  0  0  0  0  0  0  0  0
    5.9271   -1.7964   -0.6351 C   0  0  0  0  0  0  0  0  0  0  0  0
   -1.3624    0.8880   -0.4124 C   0  0  0  0  0  0  0  0  0  0  0  0
   -2.7014    0.4002   -0.2491 C   0  0  0  0  0  0  0  0  0  0  0  0
   -2.9252   -0.8314    0.3665 C   0  0  0  0  0  0  0  0  0  0  0  0
   -3.7797    1.1562   -0.7088 C   0  0  0  0  0  0  0  0  0  0  0  0
   -4.2271   -1.3070    0.5224 C   0  0  0  0  0  0  0  0  0  0  0  0
   -5.0817    0.6808   -0.5530 C   0  0  0  0  0  0  0  0  0  0  0  0
   -5.3055   -0.5508    0.0625 C   0  0  0  0  0  0  0  0  0  0  0  0
   -6.7327   -2.2809    0.8532 C   0  0  0  0  0  0  0  0  0  0  0  0
    2.7029    1.6678   -0.5497 H   0  0  0  0  0  0  0  0  0  0  0  0
    2.5812   -0.2158   -2.0525 H   0  0  0  0  0  0  0  0  0  0  0  0
    1.9809   -1.3098   -0.8002 H   0  0  0  0  0  0  0  0  0  0  0  0
    4.3442    0.2411    2.4790 H   0  0  0  0  0  0  0  0  0  0  0  0
    4.5810    1.5359    1.2856 H   0  0  0  0  0  0  0  0  0  0  0  0
    1.0713    1.8362    2.1679 H   0  0  0  0  0  0  0  0  0  0  0  0
    2.5258    2.7596    1.7266 H   0  0  0  0  0  0  0  0  0  0  0  0
    2.5097    1.7010    3.1538 H   0  0  0  0  0  0  0  0  0  0  0  0
    6.6165   -0.8897    1.1709 H   0  0  0  0  0  0  0  0  0  0  0  0
    6.7981   -2.3882   -0.8780 H   0  0  0  0  0  0  0  0  0  0  0  0
   -2.1051   -1.4432    0.7346 H   0  0  0  0  0  0  0  0  0  0  0  0
   -3.6445    2.1198   -1.1936 H   0  0  0  0  0  0  0  0  0  0  0  0
   -4.3295   -2.2709    1.0090 H   0  0  0  0  0  0  0  0  0  0  0  0
   -5.9180    1.2738   -0.9130 H   0  0  0  0  0  0  0  0  0  0  0  0
   -7.8062   -2.4935    0.8902 H   0  0  0  0  0  0  0  0  0  0  0  0
   -6.3758   -2.2565    1.8885 H   0  0  0  0  0  0  0  0  0  0  0  0
   -6.2675   -3.0845    0.2724 H   0  0  0  0  0  0  0  0  0  0  0  0
  1  7  1  0  0  0  0
  1 13  1  0  0  0  0
  2 22  1  0  0  0  0
  2 23  1  0  0  0  0
  3  8  1  0  0  0  0
  3 10  1  0  0  0  0
  3 14  1  0  0  0  0
  4 12  1  0  0  0  0
  4 15  1  0  0  0  0
  4 32  1  0  0  0  0
  5 11  1  0  0  0  0
  5 15  2  0  0  0  0
  6 13  2  0  0  0  0
  6 16  1  0  0  0  0
  7 16  2  0  0  0  0
  8  9  1  0  0  0  0
  8 13  1  0  0  0  0
  8 24  1  0  0  0  0
  9 11  1  0  0  0  0
  9 25  1  0  0  0  0
  9 26  1  0  0  0  0
 10 12  1  0  0  0  0
 10 27  1  0  0  0  0
 10 28  1  0  0  0  0
 11 12  2  0  0  0  0
 14 29  1  0  0  0  0
 14 30  1  0  0  0  0
 14 31  1  0  0  0  0
 15 33  1  0  0  0  0
 16 17  1  0  0  0  0
 17 18  2  0  0  0  0
 17 19  1  0  0  0  0
 18 20  1  0  0  0  0
 18 34  1  0  0  0  0
 19 21  2  0  0  0  0
 19 35  1  0  0  0  0
 20 22  2  0  0  0  0
 20 36  1  0  0  0  0
 21 22  1  0  0  0  0
 21 37  1  0  0  0  0
 23 38  1  0  0  0  0
 23 39  1  0  0  0  0
 23 40  1  0  0  0  0
M  END
> <PUBCHEM_COMPOUND_CID>
26761888

> <PUBCHEM_CONFORMER_RMSD>
0.6

> <PUBCHEM_CONFORMER_DIVERSEORDER>
1
25
14
10
5
6
13
9
12
26
16
8
23
20
7
11
19
2
17
21
15
24
22
3
4
18

> <PUBCHEM_MMFF94_PARTIAL_CHARGES>
29
1 -0.02
10 0.45
11 0.05
12 -0.33
13 0.3
14 0.27
15 0.04
16 0.46
17 0.05
18 -0.15
19 -0.15
2 -0.36
20 -0.15
21 -0.15
22 0.08
23 0.28
3 -0.81
32 0.27
33 0.15
34 0.15
35 0.15
36 0.15
37 0.15
4 0.03
5 -0.57
6 -0.57
7 -0.41
8 0.45
9 0.18

> <PUBCHEM_EFFECTIVE_ROTOR_COUNT>
3.8

> <PUBCHEM_PHARMACOPHORE_FEATURES>
9
1 2 acceptor
1 3 cation
1 4 donor
3 4 5 15 cation
3 6 7 16 cation
5 1 6 7 13 16 rings
5 4 5 11 12 15 rings
6 17 18 19 20 21 22 rings
6 3 8 9 10 11 12 rings

> <PUBCHEM_HEAVY_ATOM_COUNT>
23

> <PUBCHEM_ATOM_DEF_STEREO_COUNT>
1

> <PUBCHEM_ATOM_UDEF_STEREO_COUNT>
0

> <PUBCHEM_BOND_DEF_STEREO_COUNT>
0

> <PUBCHEM_BOND_UDEF_STEREO_COUNT>
0

> <PUBCHEM_ISOTOPIC_ATOM_COUNT>
0

> <PUBCHEM_COMPONENT_COUNT>
1

> <PUBCHEM_CACTVS_TAUTO_COUNT>
2

> <PUBCHEM_CONFORMER_ID>
01985AA000000001

> <PUBCHEM_MMFF94_ENERGY>
56.3516

> <PUBCHEM_FEATURE_SELFOVERLAP>
45.772

> <PUBCHEM_SHAPE_FINGERPRINT>
10688039 33 17989205915410466336
10692045 39 12391245855233999972
10693767 8 15358806809642268962
11128504 68 16443071590678753566
11545043 162 18412822469730808817
11796584 16 18335980866082290434
12035758 1 17988626499011055922
12236239 1 16588023468517368796
12516196 113 18409449202020858884
12596602 18 17632578266742612451
12616971 3 16200430295304291033
12633257 1 16845570937186769668
12788726 201 16806157740367627917
13288520 33 18187366528539923061
13402501 40 18411984637248740374
13533116 47 17988925608289637857
13673619 4 18343024372114171692
13685833 64 18411140242382866083
13782708 43 18342733005453394463
13862211 1 18186521003470727507
13914758 101 17131549437065093865
13955234 65 18129375055275780592
14123256 34 18041005072399785539
14216079 64 18409167714855760359
14294032 229 17169821186513385173
14341114 176 17775565351303096352
14386348 63 18411698764309297478
14528608 73 13767932320946115090
14848160 23 18341891883458354823
15183329 4 14851602176572998759
15238133 3 13182735966082416018
15348495 7 17917146208438025739
15475509 35 18263629703062629242
15475509 84 16128378125862611864
15537594 2 17530964640445306425
17492 89 17974011940604679331
17844677 252 18335141981386092493
17980427 23 13398621767150771153
1813 80 17749387074430548812
18222031 100 17967530194598355637
18681886 176 17821730554945941924
19141452 34 18130503119439770055
19377110 9 14405182894064994421
193927 3 18187372055767284993
19784866 240 18334584551113940861
20281389 69 11455899053063392063
20374829 77 18260267425698650869
21033648 29 17916566692606171169
21049683 271 18342181094515983280
21150785 3 16877949360049647206
21267235 1 18113624508500321923
21521239 73 16226328111108076274
21623969 137 17988926652241439182
2297311 6 18260550000545873797
23016692 55 17894348882465036955
2303208 19 18411419514283875667
23081809 10 15647046036988554781
23522609 53 17898605048869224021
23559900 14 18335416889484349797
239999 70 18408882945717657520
25122255 55 18337116747767728131
2838139 119 8142079823958436026
3004659 81 17603588538383996990
312425 54 17846502573558582763
335352 9 18186517692989803229
3383291 50 18187648059320541667
3411729 13 17897443028704211380
345986 75 16558184879119099994
3472631 163 10663809789422767642
351380 3 17748825219946683315
4325135 7 18041000670374707892
465052 167 18411987974374558350
5104073 3 17845649240765520032
559249 180 18259702277497446919
59682541 35 18343291584174353962
59755656 215 18260824878579820923
636775 8 18057897840828334374
7237137 82 16660917790788179013
7495541 125 18341610409019818196
7970288 3 18186237329365701835
86090 222 18059033703930526246
8863177 126 18343021137524120191
960060 61 15647049378309320857

> <PUBCHEM_SHAPE_MULTIPOLES>
436.69
16.47
2.03
1.3
8.63
0.1
0.42
11.92
1.69
0.24
-0.01
-1.09
-0.38
2.57

> <PUBCHEM_SHAPE_SELFOVERLAP>
957.975

> <PUBCHEM_SHAPE_VOLUME>
238.5

> <PUBCHEM_COORDINATE_TYPE>
2
5
10

$$$$
