56774753
  -OEChem-12032416213D

 57 60  0     1  0  0  0  0  0999 V2000
   -1.9009    2.6597    1.2714 O   0  0  0  0  0  0  0  0  0  0  0  0
   -1.6352    0.6102   -2.3950 O   0  0  0  0  0  0  0  0  0  0  0  0
   -5.1708    2.6967   -0.2607 O   0  0  0  0  0  0  0  0  0  0  0  0
   -5.8188   -0.1177    1.1358 O   0  0  0  0  0  0  0  0  0  0  0  0
    5.3283    1.7183   -0.1208 O   0  0  0  0  0  0  0  0  0  0  0  0
   -3.5338    1.0441   -0.3360 N   0  0  0  0  0  0  0  0  0  0  0  0
    4.1951   -0.3413   -0.1726 N   0  0  0  0  0  0  0  0  0  0  0  0
    6.5482   -1.5411    0.3442 N   0  0  0  0  0  0  0  0  0  0  0  0
    8.9431   -0.1134    0.6489 N   0  0  0  0  0  0  0  0  0  0  0  0
   -2.1440    0.6756   -0.0389 C   0  0  1  0  0  0  0  0  0  0  0  0
   -1.2086    1.1573   -1.1518 C   0  0  1  0  0  0  0  0  0  0  0  0
   -1.7302    1.2479    1.3116 C   0  0  0  0  0  0  0  0  0  0  0  0
   -4.2751    0.1896   -1.2539 C   0  0  0  0  0  0  0  0  0  0  0  0
   -4.0780    2.2522    0.0953 C   0  0  0  0  0  0  0  0  0  0  0  0
    0.2222    0.7603   -0.8919 C   0  0  0  0  0  0  0  0  0  0  0  0
   -3.2634    3.0005    1.1445 C   0  0  0  0  0  0  0  0  0  0  0  0
   -4.5903   -1.1469   -0.6468 C   0  0  0  0  0  0  0  0  0  0  0  0
    1.2106    1.7397   -0.7937 C   0  0  0  0  0  0  0  0  0  0  0  0
    0.5581   -0.5861   -0.7501 C   0  0  0  0  0  0  0  0  0  0  0  0
   -5.3478   -1.2387    0.5208 C   0  0  0  0  0  0  0  0  0  0  0  0
   -4.1167   -2.3049   -1.2637 C   0  0  0  0  0  0  0  0  0  0  0  0
    2.5347    1.3729   -0.5539 C   0  0  0  0  0  0  0  0  0  0  0  0
    1.8822   -0.9531   -0.5104 C   0  0  0  0  0  0  0  0  0  0  0  0
    2.8706    0.0264   -0.4123 C   0  0  0  0  0  0  0  0  0  0  0  0
   -5.6316   -2.4883    1.0716 C   0  0  0  0  0  0  0  0  0  0  0  0
   -4.4005   -3.5546   -0.7128 C   0  0  0  0  0  0  0  0  0  0  0  0
   -5.1579   -3.6464    0.4548 C   0  0  0  0  0  0  0  0  0  0  0  0
   -6.5844   -0.3045    2.3247 C   0  0  0  0  0  0  0  0  0  0  0  0
    5.3124    0.4944   -0.0444 C   0  0  0  0  0  0  0  0  0  0  0  0
    6.5968   -0.1982    0.2394 C   0  0  0  0  0  0  0  0  0  0  0  0
    7.7731    0.5030    0.3891 C   0  0  0  0  0  0  0  0  0  0  0  0
    7.7183   -2.1575    0.6041 C   0  0  0  0  0  0  0  0  0  0  0  0
    8.8945   -1.4564    0.7537 C   0  0  0  0  0  0  0  0  0  0  0  0
   -2.1125   -0.4165    0.0419 H   0  0  0  0  0  0  0  0  0  0  0  0
   -1.2843    2.2455   -1.2637 H   0  0  0  0  0  0  0  0  0  0  0  0
   -0.6893    1.0316    1.5671 H   0  0  0  0  0  0  0  0  0  0  0  0
   -2.3448    0.8319    2.1208 H   0  0  0  0  0  0  0  0  0  0  0  0
   -3.7641    0.0894   -2.2103 H   0  0  0  0  0  0  0  0  0  0  0  0
   -5.2319    0.6635   -1.5079 H   0  0  0  0  0  0  0  0  0  0  0  0
   -3.3127    4.0682    0.9071 H   0  0  0  0  0  0  0  0  0  0  0  0
   -3.7556    2.8533    2.1132 H   0  0  0  0  0  0  0  0  0  0  0  0
   -1.5359   -0.3563   -2.3635 H   0  0  0  0  0  0  0  0  0  0  0  0
    0.9624    2.7923   -0.9010 H   0  0  0  0  0  0  0  0  0  0  0  0
   -0.1922   -1.3678   -0.8283 H   0  0  0  0  0  0  0  0  0  0  0  0
   -3.5235   -2.2497   -2.1726 H   0  0  0  0  0  0  0  0  0  0  0  0
    3.2408    2.1886   -0.4909 H   0  0  0  0  0  0  0  0  0  0  0  0
    2.1301   -2.0062   -0.4033 H   0  0  0  0  0  0  0  0  0  0  0  0
   -6.2128   -2.6376    1.9749 H   0  0  0  0  0  0  0  0  0  0  0  0
   -4.0310   -4.4561   -1.1927 H   0  0  0  0  0  0  0  0  0  0  0  0
   -5.3780   -4.6201    0.8828 H   0  0  0  0  0  0  0  0  0  0  0  0
    4.3594   -1.3413   -0.0772 H   0  0  0  0  0  0  0  0  0  0  0  0
   -6.8759    0.6901    2.6782 H   0  0  0  0  0  0  0  0  0  0  0  0
   -5.9878   -0.7616    3.1214 H   0  0  0  0  0  0  0  0  0  0  0  0
   -7.5104   -0.8550    2.1268 H   0  0  0  0  0  0  0  0  0  0  0  0
    7.8322    1.5820    0.3086 H   0  0  0  0  0  0  0  0  0  0  0  0
    7.6800   -3.2364    0.6885 H   0  0  0  0  0  0  0  0  0  0  0  0
    9.8342   -1.9525    0.9624 H   0  0  0  0  0  0  0  0  0  0  0  0
  1 12  1  0  0  0  0
  1 16  1  0  0  0  0
  2 11  1  0  0  0  0
  2 42  1  0  0  0  0
  3 14  2  0  0  0  0
  4 20  1  0  0  0  0
  4 28  1  0  0  0  0
  5 29  2  0  0  0  0
  6 10  1  0  0  0  0
  6 13  1  0  0  0  0
  6 14  1  0  0  0  0
  7 24  1  0  0  0  0
  7 29  1  0  0  0  0
  7 51  1  0  0  0  0
  8 30  2  0  0  0  0
  8 32  1  0  0  0  0
  9 31  2  0  0  0  0
  9 33  1  0  0  0  0
 10 11  1  0  0  0  0
 10 12  1  0  0  0  0
 10 34  1  0  0  0  0
 11 15  1  0  0  0  0
 11 35  1  0  0  0  0
 12 36  1  0  0  0  0
 12 37  1  0  0  0  0
 13 17  1  0  0  0  0
 13 38  1  0  0  0  0
 13 39  1  0  0  0  0
 14 16  1  0  0  0  0
 15 18  2  0  0  0  0
 15 19  1  0  0  0  0
 16 40  1  0  0  0  0
 16 41  1  0  0  0  0
 17 20  1  0  0  0  0
 17 21  2  0  0  0  0
 18 22  1  0  0  0  0
 18 43  1  0  0  0  0
 19 23  2  0  0  0  0
 19 44  1  0  0  0  0
 20 25  2  0  0  0  0
 21 26  1  0  0  0  0
 21 45  1  0  0  0  0
 22 24  2  0  0  0  0
 22 46  1  0  0  0  0
 23 24  1  0  0  0  0
 23 47  1  0  0  0  0
 25 27  1  0  0  0  0
 25 48  1  0  0  0  0
 26 27  2  0  0  0  0
 26 49  1  0  0  0  0
 27 50  1  0  0  0  0
 28 52  1  0  0  0  0
 28 53  1  0  0  0  0
 28 54  1  0  0  0  0
 29 30  1  0  0  0  0
 30 31  1  0  0  0  0
 31 55  1  0  0  0  0
 32 33  2  0  0  0  0
 32 56  1  0  0  0  0
 33 57  1  0  0  0  0
M  END
> <PUBCHEM_COMPOUND_CID>
56774753

> <PUBCHEM_CONFORMER_RMSD>
1

> <PUBCHEM_CONFORMER_DIVERSEORDER>
2
51
138
65
42
22
90
102
136
94
120
127
43
33
118
103
47
27
26
88
106
115
77
135
81
134
125
60
105
18
131
14
86
109
85
122
52
128
87
69
130
89
92
96
129
117
58
29
45
23
44
133
93
116
53
137
104
57
55
7
123
121
100
39
28
83
72
46
15
75
98
34
95
132
76
24
119
73
84
37
78
70
40
30
71
124
63
6
107
112
64
79
113
11
61
59
12
13
82
50
91
126
31
25
5
62
67
68
140
8
99
74
110
139
3
10
101
49
111
16
97
114
9
19
1
80
56
4
32
21
54
108
48
36
38
17
41
20
35
66

> <PUBCHEM_MMFF94_PARTIAL_CHARGES>
46
1 -0.56
10 0.3
11 0.42
12 0.28
13 0.44
14 0.57
15 -0.14
16 0.34
17 -0.14
18 -0.15
19 -0.15
2 -0.68
20 0.08
21 -0.15
22 -0.15
23 -0.15
24 0.12
25 -0.15
26 -0.15
27 -0.15
28 0.28
29 0.54
3 -0.57
30 0.4
31 0.16
32 0.16
33 0.16
4 -0.36
42 0.4
43 0.15
44 0.15
45 0.15
46 0.15
47 0.15
48 0.15
49 0.15
5 -0.57
50 0.15
51 0.37
55 0.15
56 0.15
57 0.15
6 -0.66
7 -0.55
8 -0.62
9 -0.62

> <PUBCHEM_EFFECTIVE_ROTOR_COUNT>
9

> <PUBCHEM_PHARMACOPHORE_FEATURES>
13
1 1 acceptor
1 2 acceptor
1 2 donor
1 3 acceptor
1 4 acceptor
1 5 acceptor
1 7 donor
1 8 acceptor
1 9 acceptor
6 1 6 10 12 14 16 rings
6 15 18 19 22 23 24 rings
6 17 20 21 25 26 27 rings
6 8 9 30 31 32 33 rings

> <PUBCHEM_HEAVY_ATOM_COUNT>
33

> <PUBCHEM_ATOM_DEF_STEREO_COUNT>
2

> <PUBCHEM_ATOM_UDEF_STEREO_COUNT>
0

> <PUBCHEM_BOND_DEF_STEREO_COUNT>
0

> <PUBCHEM_BOND_UDEF_STEREO_COUNT>
0

> <PUBCHEM_ISOTOPIC_ATOM_COUNT>
0

> <PUBCHEM_COMPONENT_COUNT>
1

> <PUBCHEM_CACTVS_TAUTO_COUNT>
4

> <PUBCHEM_CONFORMER_ID>
0362506100000002

> <PUBCHEM_MMFF94_ENERGY>
113.1481

> <PUBCHEM_FEATURE_SELFOVERLAP>
65.982

> <PUBCHEM_SHAPE_FINGERPRINT>
10 15 17704348875656064116
10066227 112 9151178653711495038
10076449 9 8502362331719912605
11135926 11 18261105253881477647
11315181 36 18335417967383744252
12166972 35 18261113019351140964
13631057 29 18410005576822513719
13782708 43 17385995157999974398
14068700 675 18337675333717332755
14211702 104 18412268333224618718
14844126 61 18341614841579210851
14849402 71 18271245053630217872
14856354 85 18130505335553191919
15183329 4 7853577898562393996
15461852 350 12179849415717829811
16114785 44 14692023401783550809
16994733 274 11312056548335133774
17780758 139 18412262835671163271
19611394 137 18201720678088350272
21424621 283 11743843577634765198
23522609 53 18046377294086304357
23559900 14 18339913939777230149
23576562 1 9511160942098464746
3383291 50 17822295716586560194
3504750 166 18341889723037486663
392239 28 18272098239897020281
4015057 19 16443355328676637461
4073 2 18271247119197594766
4169191 19 10735884980110706958
44389302 135 18044360649657110322
44802255 64 17459174206954372127
4616759 239 17561089094478070443
4874694 18 18269546157096818670
5104073 3 17916313736190862130
563151 97 10015867569884316564
68570916 9 18335988657443401812
9555976 147 18201168676028321320
9896288 288 18130512929165782977
9953998 17 18202567276266477251
999808 66 18186519921070637478

> <PUBCHEM_SHAPE_MULTIPOLES>
629.85
24.02
3.44
1.44
53.2
1.24
-0.1
13.45
-9.45
-6.1
-0.43
-2.24
-0.12
-1.13

> <PUBCHEM_SHAPE_SELFOVERLAP>
1364.596

> <PUBCHEM_SHAPE_VOLUME>
338.7

> <PUBCHEM_COORDINATE_TYPE>
2
5
10

$$$$
