26745224
  -OEChem-12032416283D

 49 51  0     1  0  0  0  0  0999 V2000
   -1.6368    2.1100    0.6682 O   0  0  0  0  0  0  0  0  0  0  0  0
    1.1451   -0.7845   -1.7872 O   0  0  0  0  0  0  0  0  0  0  0  0
    4.0368   -4.4403   -0.2429 O   0  0  0  0  0  0  0  0  0  0  0  0
    2.2276   -4.5459    1.1284 O   0  0  0  0  0  0  0  0  0  0  0  0
    0.4388    2.1313   -0.3857 N   0  0  0  0  0  0  0  0  0  0  0  0
   -0.7899   -0.6872   -0.4885 N   0  0  0  0  0  0  0  0  0  0  0  0
   -4.0461   -1.2589    1.2783 N   0  0  0  0  0  0  0  0  0  0  0  0
   -4.8925    0.1072   -0.2728 N   0  0  0  0  0  0  0  0  0  0  0  0
    1.0400    3.1986    0.3828 C   0  0  0  0  0  0  0  0  0  0  0  0
    1.7120    2.6550    1.6482 C   0  0  0  0  0  0  0  0  0  0  0  0
    2.0282    4.0021   -0.4695 C   0  0  0  0  0  0  0  0  0  0  0  0
    2.9927    1.8782    1.3428 C   0  0  0  0  0  0  0  0  0  0  0  0
    3.3084    3.2229   -0.7713 C   0  0  0  0  0  0  0  0  0  0  0  0
    3.9645    2.7022    0.5037 C   0  0  0  0  0  0  0  0  0  0  0  0
   -1.2348    0.5817   -1.1251 C   0  0  1  0  0  0  0  0  0  0  0  0
   -2.7344    0.6270   -1.4876 C   0  0  0  0  0  0  0  0  0  0  0  0
   -0.8526    1.6798   -0.1734 C   0  0  0  0  0  0  0  0  0  0  0  0
   -1.5794   -1.2365    0.6502 C   0  0  0  0  0  0  0  0  0  0  0  0
   -3.5422   -0.0238   -0.4369 C   0  0  0  0  0  0  0  0  0  0  0  0
   -2.9975   -0.8623    0.5026 C   0  0  0  0  0  0  0  0  0  0  0  0
    0.4606   -1.2092   -0.8530 C   0  0  0  0  0  0  0  0  0  0  0  0
    0.9687   -2.3697   -0.0327 C   0  0  0  0  0  0  0  0  0  0  0  0
   -5.1659   -0.6488    0.7717 C   0  0  0  0  0  0  0  0  0  0  0  0
    2.3214   -2.8120   -0.5522 C   0  0  0  0  0  0  0  0  0  0  0  0
    2.8276   -4.0169    0.2017 C   0  0  0  0  0  0  0  0  0  0  0  0
    0.2292    3.8706    0.6909 H   0  0  0  0  0  0  0  0  0  0  0  0
    1.0211    2.0097    2.2041 H   0  0  0  0  0  0  0  0  0  0  0  0
    1.9600    3.4960    2.3083 H   0  0  0  0  0  0  0  0  0  0  0  0
    2.2940    4.9227    0.0657 H   0  0  0  0  0  0  0  0  0  0  0  0
    1.5577    4.3069   -1.4120 H   0  0  0  0  0  0  0  0  0  0  0  0
    2.7450    0.9509    0.8116 H   0  0  0  0  0  0  0  0  0  0  0  0
    3.4759    1.5850    2.2817 H   0  0  0  0  0  0  0  0  0  0  0  0
    4.0122    3.8723   -1.3045 H   0  0  0  0  0  0  0  0  0  0  0  0
    3.0894    2.3829   -1.4409 H   0  0  0  0  0  0  0  0  0  0  0  0
    4.3300    3.5493    1.0972 H   0  0  0  0  0  0  0  0  0  0  0  0
    4.8383    2.0929    0.2466 H   0  0  0  0  0  0  0  0  0  0  0  0
   -0.6803    0.7331   -2.0598 H   0  0  0  0  0  0  0  0  0  0  0  0
    1.0176    1.6535   -1.0698 H   0  0  0  0  0  0  0  0  0  0  0  0
   -2.8912    0.0754   -2.4229 H   0  0  0  0  0  0  0  0  0  0  0  0
   -3.0698    1.6570   -1.6522 H   0  0  0  0  0  0  0  0  0  0  0  0
   -1.1587   -0.8156    1.5698 H   0  0  0  0  0  0  0  0  0  0  0  0
   -1.4822   -2.3237    0.6892 H   0  0  0  0  0  0  0  0  0  0  0  0
   -4.0102   -1.8808    2.0753 H   0  0  0  0  0  0  0  0  0  0  0  0
    0.2627   -3.2029   -0.1174 H   0  0  0  0  0  0  0  0  0  0  0  0
    1.0391   -2.0696    1.0186 H   0  0  0  0  0  0  0  0  0  0  0  0
   -6.1428   -0.7980    1.2089 H   0  0  0  0  0  0  0  0  0  0  0  0
    2.2576   -3.0868   -1.6116 H   0  0  0  0  0  0  0  0  0  0  0  0
    3.0566   -2.0069   -0.4386 H   0  0  0  0  0  0  0  0  0  0  0  0
    4.3608   -5.2169    0.2612 H   0  0  0  0  0  0  0  0  0  0  0  0
  1 17  2  0  0  0  0
  2 21  2  0  0  0  0
  3 25  1  0  0  0  0
  3 49  1  0  0  0  0
  4 25  2  0  0  0  0
  5  9  1  0  0  0  0
  5 17  1  0  0  0  0
  5 38  1  0  0  0  0
  6 15  1  0  0  0  0
  6 18  1  0  0  0  0
  6 21  1  0  0  0  0
  7 20  1  0  0  0  0
  7 23  1  0  0  0  0
  7 43  1  0  0  0  0
  8 19  1  0  0  0  0
  8 23  2  0  0  0  0
  9 10  1  0  0  0  0
  9 11  1  0  0  0  0
  9 26  1  0  0  0  0
 10 12  1  0  0  0  0
 10 27  1  0  0  0  0
 10 28  1  0  0  0  0
 11 13  1  0  0  0  0
 11 29  1  0  0  0  0
 11 30  1  0  0  0  0
 12 14  1  0  0  0  0
 12 31  1  0  0  0  0
 12 32  1  0  0  0  0
 13 14  1  0  0  0  0
 13 33  1  0  0  0  0
 13 34  1  0  0  0  0
 14 35  1  0  0  0  0
 14 36  1  0  0  0  0
 15 16  1  0  0  0  0
 15 17  1  0  0  0  0
 15 37  1  0  0  0  0
 16 19  1  0  0  0  0
 16 39  1  0  0  0  0
 16 40  1  0  0  0  0
 18 20  1  0  0  0  0
 18 41  1  0  0  0  0
 18 42  1  0  0  0  0
 19 20  2  0  0  0  0
 21 22  1  0  0  0  0
 22 24  1  0  0  0  0
 22 44  1  0  0  0  0
 22 45  1  0  0  0  0
 23 46  1  0  0  0  0
 24 25  1  0  0  0  0
 24 47  1  0  0  0  0
 24 48  1  0  0  0  0
M  END
> <PUBCHEM_COMPOUND_CID>
26745224

> <PUBCHEM_CONFORMER_RMSD>
1

> <PUBCHEM_CONFORMER_DIVERSEORDER>
1
54
4
40
19
48
45
51
49
15
8
34
13
28
2
26
27
35
42
9
36
43
44
21
25
24
29
32
23
53
33
52
31
12
14
46
10
11
6
37
39
38
20
41
18
30
7
16
5
22
47
17
50
3

> <PUBCHEM_MMFF94_PARTIAL_CHARGES>
24
1 -0.57
15 0.36
16 0.18
17 0.57
18 0.48
19 0.05
2 -0.57
20 -0.33
21 0.57
22 0.06
23 0.04
24 0.06
25 0.66
3 -0.65
38 0.37
4 -0.57
43 0.27
46 0.15
49 0.5
5 -0.73
6 -0.66
7 0.03
8 -0.57
9 0.3

> <PUBCHEM_EFFECTIVE_ROTOR_COUNT>
9

> <PUBCHEM_PHARMACOPHORE_FEATURES>
11
1 1 acceptor
1 2 acceptor
1 3 acceptor
1 4 acceptor
1 5 donor
1 7 donor
3 3 4 25 anion
3 7 8 23 cation
5 7 8 19 20 23 rings
6 6 15 16 18 19 20 rings
6 9 10 11 12 13 14 rings

> <PUBCHEM_HEAVY_ATOM_COUNT>
25

> <PUBCHEM_ATOM_DEF_STEREO_COUNT>
1

> <PUBCHEM_ATOM_UDEF_STEREO_COUNT>
0

> <PUBCHEM_BOND_DEF_STEREO_COUNT>
0

> <PUBCHEM_BOND_UDEF_STEREO_COUNT>
0

> <PUBCHEM_ISOTOPIC_ATOM_COUNT>
0

> <PUBCHEM_COMPONENT_COUNT>
1

> <PUBCHEM_CACTVS_TAUTO_COUNT>
4

> <PUBCHEM_CONFORMER_ID>
0198198800000001

> <PUBCHEM_MMFF94_ENERGY>
39.1657

> <PUBCHEM_FEATURE_SELFOVERLAP>
55.981

> <PUBCHEM_SHAPE_FINGERPRINT>
11578080 2 18040992883050718917
12293681 160 16895368622210878445
12592029 89 18339926046841346025
12788726 201 17255950174921430859
12839892 36 17904762529133573395
13140716 1 18125436659789131136
13540713 4 18113337514749098799
138480 1 18338516327068821918
14178342 30 16827261049555431152
14866123 147 17691124155618273746
151778 21 18192146221128443768
15230672 131 18046917254303454780
17859628 97 18267300026977632296
19591789 44 18050566549567615670
19930381 70 18410007737069627482
20028762 73 17478896442673829239
20101258 96 18051419461316331306
20600515 1 17551241661669873500
22956985 138 18334857229549853554
23366157 5 18336559243500385749
23419403 2 18189320304387923759
23559900 14 17968101880473260727
5265222 85 18120100739093924548
5385378 56 18340778134436083545
58807428 26 18125435555998477392
79837 15 17762902464738239995
81228 2 17192638113387152821

> <PUBCHEM_SHAPE_MULTIPOLES>
471.09
7.99
6.17
1.33
6.36
9.6
0.01
-3.68
1.76
-10
0.56
-0.04
-0.23
0.59

> <PUBCHEM_SHAPE_SELFOVERLAP>
989.473

> <PUBCHEM_SHAPE_VOLUME>
261.1

> <PUBCHEM_COORDINATE_TYPE>
2
5
10

$$$$
