45784418
  -OEChem-12032416353D

 68 71  0     1  0  0  0  0  0999 V2000
   -8.0403    1.5114    0.0511 S   0  0  0  0  0  0  0  0  0  0  0  0
   -0.7409   -1.6636    1.7484 O   0  0  0  0  0  0  0  0  0  0  0  0
   -5.2754   -1.7549   -0.9773 O   0  0  0  0  0  0  0  0  0  0  0  0
    4.7697    2.2609    0.5796 O   0  0  0  0  0  0  0  0  0  0  0  0
    4.0299    0.1581   -0.0580 N   0  0  0  0  0  0  0  0  0  0  0  0
   -5.2668   -1.0721    1.2394 N   0  0  0  0  0  0  0  0  0  0  0  0
    6.5532   -0.7215    0.0262 N   0  0  0  0  0  0  0  0  0  0  0  0
   -0.0129    0.1362   -1.5390 C   0  0  1  0  0  0  0  0  0  0  0  0
    0.2044   -0.3304   -0.0610 C   0  0  2  0  0  0  0  0  0  0  0  0
    1.7101   -0.6997    0.1929 C   0  0  1  0  0  0  0  0  0  0  0  0
   -0.8286   -1.4211    0.3435 C   0  0  2  0  0  0  0  0  0  0  0  0
   -1.4774    0.5989   -1.7238 C   0  0  0  0  0  0  0  0  0  0  0  0
    0.9032    1.3485   -1.8248 C   0  0  0  0  0  0  0  0  0  0  0  0
   -2.2873   -0.9931    0.0592 C   0  0  1  0  0  0  0  0  0  0  0  0
    2.6277    0.5017   -0.1693 C   0  0  2  0  0  0  0  0  0  0  0  0
   -2.4911   -0.4800   -1.3662 C   0  0  0  0  0  0  0  0  0  0  0  0
    2.3755    1.0582   -1.5703 C   0  0  0  0  0  0  0  0  0  0  0  0
    0.2886   -0.9844   -2.5660 C   0  0  0  0  0  0  0  0  0  0  0  0
   -3.2789   -2.1285    0.3417 C   0  0  2  0  0  0  0  0  0  0  0  0
    2.0008   -1.1407    1.6374 C   0  0  0  0  0  0  0  0  0  0  0  0
   -2.9528   -3.3383   -0.5269 C   0  0  0  0  0  0  0  0  0  0  0  0
   -4.7059   -1.6432    0.1063 C   0  0  0  0  0  0  0  0  0  0  0  0
    4.9914    1.0828    0.3125 C   0  0  0  0  0  0  0  0  0  0  0  0
    6.3884    0.5795    0.3545 C   0  0  0  0  0  0  0  0  0  0  0  0
   -6.6087   -0.5379    1.2624 C   0  0  0  0  0  0  0  0  0  0  0  0
    7.4248    1.4262    0.7135 C   0  0  0  0  0  0  0  0  0  0  0  0
   -6.6475    0.9021    0.8393 C   0  0  0  0  0  0  0  0  0  0  0  0
    8.7133    0.9041    0.7367 C   0  0  0  0  0  0  0  0  0  0  0  0
    7.8196   -1.1937    0.0601 C   0  0  0  0  0  0  0  0  0  0  0  0
   -5.6777    1.8679    0.9952 C   0  0  0  0  0  0  0  0  0  0  0  0
    8.9230   -0.4299    0.4050 C   0  0  0  0  0  0  0  0  0  0  0  0
   -6.0836    3.1248    0.4609 C   0  0  0  0  0  0  0  0  0  0  0  0
   -7.3480    3.0717   -0.0833 C   0  0  0  0  0  0  0  0  0  0  0  0
    0.0022    0.5350    0.5905 H   0  0  0  0  0  0  0  0  0  0  0  0
    1.9791   -1.5506   -0.4458 H   0  0  0  0  0  0  0  0  0  0  0  0
   -0.5548   -2.3476   -0.1644 H   0  0  0  0  0  0  0  0  0  0  0  0
   -1.6465    0.9215   -2.7592 H   0  0  0  0  0  0  0  0  0  0  0  0
   -1.6685    1.4790   -1.0948 H   0  0  0  0  0  0  0  0  0  0  0  0
    0.7787    1.6828   -2.8627 H   0  0  0  0  0  0  0  0  0  0  0  0
    0.6031    2.1948   -1.1922 H   0  0  0  0  0  0  0  0  0  0  0  0
   -2.5328   -0.1662    0.7424 H   0  0  0  0  0  0  0  0  0  0  0  0
    2.4252    1.3077    0.5496 H   0  0  0  0  0  0  0  0  0  0  0  0
   -3.4828   -0.0263   -1.4748 H   0  0  0  0  0  0  0  0  0  0  0  0
   -2.4320   -1.2691   -2.1181 H   0  0  0  0  0  0  0  0  0  0  0  0
    2.7589    0.3637   -2.3278 H   0  0  0  0  0  0  0  0  0  0  0  0
    2.9472    1.9847   -1.7107 H   0  0  0  0  0  0  0  0  0  0  0  0
    1.3320   -1.3093   -2.5460 H   0  0  0  0  0  0  0  0  0  0  0  0
    0.0825   -0.6378   -3.5855 H   0  0  0  0  0  0  0  0  0  0  0  0
   -0.3173   -1.8793   -2.3991 H   0  0  0  0  0  0  0  0  0  0  0  0
   -3.1968   -2.4425    1.3904 H   0  0  0  0  0  0  0  0  0  0  0  0
    1.5701   -2.1244    1.8442 H   0  0  0  0  0  0  0  0  0  0  0  0
    3.0742   -1.2477    1.8244 H   0  0  0  0  0  0  0  0  0  0  0  0
    1.6093   -0.4176    2.3603 H   0  0  0  0  0  0  0  0  0  0  0  0
    4.3186   -0.7811   -0.3172 H   0  0  0  0  0  0  0  0  0  0  0  0
   -0.9330   -0.8304    2.2114 H   0  0  0  0  0  0  0  0  0  0  0  0
   -1.9980   -3.8024   -0.2684 H   0  0  0  0  0  0  0  0  0  0  0  0
   -3.7123   -4.1127   -0.3567 H   0  0  0  0  0  0  0  0  0  0  0  0
   -2.9741   -3.1451   -1.6014 H   0  0  0  0  0  0  0  0  0  0  0  0
   -4.7129   -0.9978    2.0877 H   0  0  0  0  0  0  0  0  0  0  0  0
   -6.9754   -0.6268    2.2908 H   0  0  0  0  0  0  0  0  0  0  0  0
   -7.2414   -1.1588    0.6181 H   0  0  0  0  0  0  0  0  0  0  0  0
    7.2623    2.4668    0.9726 H   0  0  0  0  0  0  0  0  0  0  0  0
    9.5527    1.5353    1.0127 H   0  0  0  0  0  0  0  0  0  0  0  0
    7.9294   -2.2396   -0.2067 H   0  0  0  0  0  0  0  0  0  0  0  0
   -4.7206    1.6932    1.4702 H   0  0  0  0  0  0  0  0  0  0  0  0
    9.9187   -0.8582    0.4162 H   0  0  0  0  0  0  0  0  0  0  0  0
   -5.4791    4.0223    0.4751 H   0  0  0  0  0  0  0  0  0  0  0  0
   -7.8982    3.8746   -0.5533 H   0  0  0  0  0  0  0  0  0  0  0  0
  1 27  1  0  0  0  0
  1 33  1  0  0  0  0
  2 11  1  0  0  0  0
  2 55  1  0  0  0  0
  3 22  2  0  0  0  0
  4 23  2  0  0  0  0
  5 15  1  0  0  0  0
  5 23  1  0  0  0  0
  5 54  1  0  0  0  0
  6 22  1  0  0  0  0
  6 25  1  0  0  0  0
  6 59  1  0  0  0  0
  7 24  1  0  0  0  0
  7 29  2  0  0  0  0
  8  9  1  0  0  0  0
  8 12  1  0  0  0  0
  8 13  1  0  0  0  0
  8 18  1  0  0  0  0
  9 10  1  0  0  0  0
  9 11  1  0  0  0  0
  9 34  1  0  0  0  0
 10 15  1  0  0  0  0
 10 20  1  0  0  0  0
 10 35  1  0  0  0  0
 11 14  1  0  0  0  0
 11 36  1  0  0  0  0
 12 16  1  0  0  0  0
 12 37  1  0  0  0  0
 12 38  1  0  0  0  0
 13 17  1  0  0  0  0
 13 39  1  0  0  0  0
 13 40  1  0  0  0  0
 14 16  1  0  0  0  0
 14 19  1  0  0  0  0
 14 41  1  0  0  0  0
 15 17  1  0  0  0  0
 15 42  1  0  0  0  0
 16 43  1  0  0  0  0
 16 44  1  0  0  0  0
 17 45  1  0  0  0  0
 17 46  1  0  0  0  0
 18 47  1  0  0  0  0
 18 48  1  0  0  0  0
 18 49  1  0  0  0  0
 19 21  1  0  0  0  0
 19 22  1  0  0  0  0
 19 50  1  0  0  0  0
 20 51  1  0  0  0  0
 20 52  1  0  0  0  0
 20 53  1  0  0  0  0
 21 56  1  0  0  0  0
 21 57  1  0  0  0  0
 21 58  1  0  0  0  0
 23 24  1  0  0  0  0
 24 26  2  0  0  0  0
 25 27  1  0  0  0  0
 25 60  1  0  0  0  0
 25 61  1  0  0  0  0
 26 28  1  0  0  0  0
 26 62  1  0  0  0  0
 27 30  2  0  0  0  0
 28 31  2  0  0  0  0
 28 63  1  0  0  0  0
 29 31  1  0  0  0  0
 29 64  1  0  0  0  0
 30 32  1  0  0  0  0
 30 65  1  0  0  0  0
 31 66  1  0  0  0  0
 32 33  2  0  0  0  0
 32 67  1  0  0  0  0
 33 68  1  0  0  0  0
M  END
> <PUBCHEM_COMPOUND_CID>
45784418

> <PUBCHEM_CONFORMER_RMSD>
1

> <PUBCHEM_CONFORMER_DIVERSEORDER>
1
147
20
154
102
194
134
146
201
93
143
199
104
120
166
100
49
191
106
202
122
175
37
75
114
119
189
13
153
148
164
158
176
203
35
17
79
73
142
181
159
126
83
118
195
97
107
170
184
162
188
200
165
56
179
18
86
196
95
182
156
61
125
63
110
7
157
155
180
87
19
58
190
123
92
193
77
150
141
72
168
178
115
133
198
124
54
177
127
183
50
69
149
38
70
44
137
187
140
192
6
197
68
64
48
96
121
160
76
171
135
186
145
94
45
151
144
173
12
105
185
109
139
15
33
111
85
174
90
71
138
132
167
81
88
117
11
91
169
42
53
101
108
152
28
31
39
36
51
41
3
84
62
46
112
47
116
59
80
89
66
131
82
23
129
9
52
98
57
128
25
29
99
65
43
8
103
136
161
16
67
24
32
172
14
21
22
78
5
4
34
163
27
40
60
130
26
55
30
2
113
74
10

> <PUBCHEM_MMFF94_PARTIAL_CHARGES>
32
1 -0.08
11 0.28
15 0.3
19 0.06
2 -0.68
22 0.57
23 0.54
24 0.4
25 0.48
26 -0.15
27 -0.14
28 -0.15
29 0.16
3 -0.57
30 -0.15
31 -0.15
32 -0.15
33 -0.11
4 -0.57
5 -0.73
54 0.37
55 0.4
59 0.37
6 -0.73
62 0.15
63 0.15
64 0.15
65 0.15
66 0.15
67 0.15
68 0.15
7 -0.62

> <PUBCHEM_EFFECTIVE_ROTOR_COUNT>
9.6

> <PUBCHEM_PHARMACOPHORE_FEATURES>
12
1 2 acceptor
1 2 donor
1 21 hydrophobe
1 3 acceptor
1 4 acceptor
1 5 donor
1 6 donor
1 7 acceptor
5 1 27 30 32 33 rings
6 7 24 26 28 29 31 rings
6 8 9 10 13 15 17 rings
6 8 9 11 12 14 16 rings

> <PUBCHEM_HEAVY_ATOM_COUNT>
33

> <PUBCHEM_ATOM_DEF_STEREO_COUNT>
6

> <PUBCHEM_ATOM_UDEF_STEREO_COUNT>
1

> <PUBCHEM_BOND_DEF_STEREO_COUNT>
0

> <PUBCHEM_BOND_UDEF_STEREO_COUNT>
0

> <PUBCHEM_ISOTOPIC_ATOM_COUNT>
0

> <PUBCHEM_COMPONENT_COUNT>
1

> <PUBCHEM_CACTVS_TAUTO_COUNT>
4

> <PUBCHEM_CONFORMER_ID>
02BA9D6200000001

> <PUBCHEM_MMFF94_ENERGY>
85.5345

> <PUBCHEM_FEATURE_SELFOVERLAP>
60.912

> <PUBCHEM_SHAPE_FINGERPRINT>
10076449 9 13118005495735397308
100830 39 18413390908679165681
10190108 129 17168143408529364498
10554248 39 15626236705744071244
10577160 183 16486967362913232190
10580692 12 18412545405506065554
10666366 153 17988655069270353876
10674148 151 18187364333843381248
10906281 52 17604445092639753094
11135926 11 17458335347210592139
11181472 205 17774736294488824424
11456790 92 18260545650129398344
11477941 20 14189577404364625099
12422481 6 17604150308202522269
12539747 363 16805324396505958964
13383668 40 18268153055176067686
13782708 43 11747206987514165945
13811026 1 18201441354763855161
13885169 127 18342455962830068770
13914758 101 18341897402739250314
14040221 310 13973962100352668363
14150023 24 17704069582206606374
14444916 359 17168143429983817354
14747282 305 16879336815518447538
14856354 85 15791735234922772355
15021287 119 17168150052823225061
15064986 96 17774162289284432414
15131766 46 17341801589576789496
15142383 8 17704071798878689640
15461852 350 17775278383711885335
15776043 110 17821732728305012777
18603816 31 13984958342023215121
20105231 36 16298385760637687826
20156587 191 18118963590250541238
20982279 24 14346350114296565144
21033648 29 17916850422640964256
21130935 74 18263925604586521218
21150785 3 9583520910660887168
21267235 1 17023182760357351374
21585482 57 11599712992323030570
21756936 100 18341609309639910141
21792938 324 18058429029166474536
21792961 116 13479125792496714288
21927370 108 14634866414414493726
22149856 69 18410008850458083288
22288116 15 11239995668293913077
2260408 40 17822295647745496751
23424782 7 8142080953687425998
23522609 53 17532397393942861932
23559900 14 17242169287342410924
23569914 2 17270555271431446697
23576562 1 15482091903509922568
2838139 119 18059852887553636233
3178227 256 15936413342649440080
3383291 50 17022900207296578834
4093350 32 18271806788097006786
484989 97 9006762199159355141
5028188 123 18335991956310406406
54039377 194 10159687011751193993
54583773 228 9799392452770181234
58083652 198 16371006360231340901
6086070 43 15984809459126544899
6201320 215 18201720609643641281
999808 66 13912321287507062209

> <PUBCHEM_SHAPE_MULTIPOLES>
650.42
26.04
2.8
1.62
24.72
0.26
-0.73
13.26
9.81
-5.53
0.21
-0.42
-0.18
-0.18

> <PUBCHEM_SHAPE_SELFOVERLAP>
1361.882

> <PUBCHEM_SHAPE_VOLUME>
370.1

> <PUBCHEM_COORDINATE_TYPE>
2
5
10

$$$$
