11883409
  -OEChem-12032416353D

 59 62  0     1  0  0  0  0  0999 V2000
    4.6422   -0.0960   -2.1925 S   0  0  0  0  0  0  0  0  0  0  0  0
   -9.9373   -0.1269   -0.4745 F   0  0  0  0  0  0  0  0  0  0  0  0
   -9.0942    1.5921    0.5444 F   0  0  0  0  0  0  0  0  0  0  0  0
   -8.7119    1.2928   -1.5753 F   0  0  0  0  0  0  0  0  0  0  0  0
    0.1612    1.1107   -1.1807 O   0  0  0  0  0  0  0  0  0  0  0  0
    1.7364    1.2196    1.4591 O   0  0  0  0  0  0  0  0  0  0  0  0
   -1.7624    0.8260    0.7972 O   0  0  0  0  0  0  0  0  0  0  0  0
    5.0315    1.2061   -2.6993 O   0  0  0  0  0  0  0  0  0  0  0  0
    4.8968   -1.2899   -2.9756 O   0  0  0  0  0  0  0  0  0  0  0  0
   -2.4721   -1.3410    0.9711 O   0  0  0  0  0  0  0  0  0  0  0  0
    4.6153   -2.5815   -0.4701 O   0  0  0  0  0  0  0  0  0  0  0  0
    7.5052    1.5797    1.7036 O   0  0  0  0  0  0  0  0  0  0  0  0
    3.0009   -0.0664   -1.7592 N   0  0  0  0  0  0  0  0  0  0  0  0
   -3.9548    0.4025    0.4787 N   0  0  0  0  0  0  0  0  0  0  0  0
    1.7968    0.3099    0.3408 C   0  0  1  0  0  0  0  0  0  0  0  0
    0.3759    0.1272   -0.1549 C   0  0  1  0  0  0  0  0  0  0  0  0
    2.5054    0.9661   -0.8181 C   0  0  2  0  0  0  0  0  0  0  0  0
   -0.4427    0.4190    1.0798 C   0  0  1  0  0  0  0  0  0  0  0  0
    1.4014    1.7713   -1.4754 C   0  0  0  0  0  0  0  0  0  0  0  0
    0.3611    1.5146    1.7428 C   0  0  0  0  0  0  0  0  0  0  0  0
    5.4290   -0.3291   -0.6268 C   0  0  0  0  0  0  0  0  0  0  0  0
   -2.7264   -0.1603    0.7660 C   0  0  0  0  0  0  0  0  0  0  0  0
    5.3252   -1.5428    0.0528 C   0  0  0  0  0  0  0  0  0  0  0  0
    6.1613    0.7204   -0.0720 C   0  0  0  0  0  0  0  0  0  0  0  0
    6.7898    0.5562    1.1624 C   0  0  0  0  0  0  0  0  0  0  0  0
    5.9538   -1.7070    1.2871 C   0  0  0  0  0  0  0  0  0  0  0  0
   -5.2028   -0.2491    0.3533 C   0  0  0  0  0  0  0  0  0  0  0  0
    6.6861   -0.6575    1.8420 C   0  0  0  0  0  0  0  0  0  0  0  0
   -6.3489    0.4884    0.0563 C   0  0  0  0  0  0  0  0  0  0  0  0
   -5.2879   -1.6306    0.5268 C   0  0  0  0  0  0  0  0  0  0  0  0
    4.5652   -3.7831    0.2964 C   0  0  0  0  0  0  0  0  0  0  0  0
   -7.5800   -0.1556   -0.0671 C   0  0  0  0  0  0  0  0  0  0  0  0
   -6.5190   -2.2746    0.4032 C   0  0  0  0  0  0  0  0  0  0  0  0
   -7.6651   -1.5370    0.1064 C   0  0  0  0  0  0  0  0  0  0  0  0
    7.5703    2.7931    0.9557 C   0  0  0  0  0  0  0  0  0  0  0  0
   -8.8054    0.6326   -0.3842 C   0  0  0  0  0  0  0  0  0  0  0  0
    2.2551   -0.6194    0.6929 H   0  0  0  0  0  0  0  0  0  0  0  0
    0.1772   -0.8561   -0.5909 H   0  0  0  0  0  0  0  0  0  0  0  0
    3.3156    1.6326   -0.5087 H   0  0  0  0  0  0  0  0  0  0  0  0
   -0.4183   -0.4527    1.7482 H   0  0  0  0  0  0  0  0  0  0  0  0
    1.5104    1.8679   -2.5600 H   0  0  0  0  0  0  0  0  0  0  0  0
    1.3411    2.7767   -1.0446 H   0  0  0  0  0  0  0  0  0  0  0  0
    0.2080    1.5466    2.8258 H   0  0  0  0  0  0  0  0  0  0  0  0
    0.1218    2.5065    1.3433 H   0  0  0  0  0  0  0  0  0  0  0  0
    2.3992   -0.8799   -1.9352 H   0  0  0  0  0  0  0  0  0  0  0  0
    6.2163    1.6491   -0.6266 H   0  0  0  0  0  0  0  0  0  0  0  0
   -3.9662    1.4100    0.3394 H   0  0  0  0  0  0  0  0  0  0  0  0
    5.9183   -2.6185    1.8733 H   0  0  0  0  0  0  0  0  0  0  0  0
    7.1740   -0.7902    2.8039 H   0  0  0  0  0  0  0  0  0  0  0  0
   -6.2864    1.5658   -0.0795 H   0  0  0  0  0  0  0  0  0  0  0  0
   -4.4449   -2.2668    0.7578 H   0  0  0  0  0  0  0  0  0  0  0  0
    5.5583   -4.2302    0.4133 H   0  0  0  0  0  0  0  0  0  0  0  0
    4.0590   -3.6296    1.2555 H   0  0  0  0  0  0  0  0  0  0  0  0
    3.9603   -4.4996   -0.2691 H   0  0  0  0  0  0  0  0  0  0  0  0
   -6.5863   -3.3503    0.5380 H   0  0  0  0  0  0  0  0  0  0  0  0
   -8.6149   -2.0565    0.0143 H   0  0  0  0  0  0  0  0  0  0  0  0
    8.0778    2.6484   -0.0041 H   0  0  0  0  0  0  0  0  0  0  0  0
    6.5809    3.2488    0.8401 H   0  0  0  0  0  0  0  0  0  0  0  0
    8.1786    3.4961    1.5344 H   0  0  0  0  0  0  0  0  0  0  0  0
  1  8  2  0  0  0  0
  1  9  2  0  0  0  0
  1 13  1  0  0  0  0
  1 21  1  0  0  0  0
  2 36  1  0  0  0  0
  3 36  1  0  0  0  0
  4 36  1  0  0  0  0
  5 16  1  0  0  0  0
  5 19  1  0  0  0  0
  6 15  1  0  0  0  0
  6 20  1  0  0  0  0
  7 18  1  0  0  0  0
  7 22  1  0  0  0  0
 10 22  2  0  0  0  0
 11 23  1  0  0  0  0
 11 31  1  0  0  0  0
 12 25  1  0  0  0  0
 12 35  1  0  0  0  0
 13 17  1  0  0  0  0
 13 45  1  0  0  0  0
 14 22  1  0  0  0  0
 14 27  1  0  0  0  0
 14 47  1  0  0  0  0
 15 16  1  0  0  0  0
 15 17  1  0  0  0  0
 15 37  1  0  0  0  0
 16 18  1  0  0  0  0
 16 38  1  0  0  0  0
 17 19  1  0  0  0  0
 17 39  1  0  0  0  0
 18 20  1  0  0  0  0
 18 40  1  0  0  0  0
 19 41  1  0  0  0  0
 19 42  1  0  0  0  0
 20 43  1  0  0  0  0
 20 44  1  0  0  0  0
 21 23  2  0  0  0  0
 21 24  1  0  0  0  0
 23 26  1  0  0  0  0
 24 25  2  0  0  0  0
 24 46  1  0  0  0  0
 25 28  1  0  0  0  0
 26 28  2  0  0  0  0
 26 48  1  0  0  0  0
 27 29  1  0  0  0  0
 27 30  2  0  0  0  0
 28 49  1  0  0  0  0
 29 32  2  0  0  0  0
 29 50  1  0  0  0  0
 30 33  1  0  0  0  0
 30 51  1  0  0  0  0
 31 52  1  0  0  0  0
 31 53  1  0  0  0  0
 31 54  1  0  0  0  0
 32 34  1  0  0  0  0
 32 36  1  0  0  0  0
 33 34  2  0  0  0  0
 33 55  1  0  0  0  0
 34 56  1  0  0  0  0
 35 57  1  0  0  0  0
 35 58  1  0  0  0  0
 35 59  1  0  0  0  0
M  END
> <PUBCHEM_COMPOUND_CID>
11883409

> <PUBCHEM_CONFORMER_RMSD>
1.4

> <PUBCHEM_CONFORMER_DIVERSEORDER>
1
39
142
167
181
21
163
100
83
140
59
146
169
92
68
113
86
56
172
107
84
63
2
102
96
184
128
90
126
98
19
80
143
116
50
94
27
104
166
124
89
12
62
159
165
42
91
32
138
18
152
136
14
141
10
103
133
122
156
81
153
33
154
145
137
11
161
87
30
7
178
48
95
129
171
179
44
16
149
155
130
82
61
40
78
51
180
31
144
85
119
65
76
120
162
123
25
64
60
75
106
114
73
79
175
71
47
24
88
183
111
26
45
168
125
93
151
6
164
160
13
101
108
43
66
177
148
58
121
97
49
127
176
173
23
55
20
70
28
117
72
57
46
8
174
15
77
158
5
53
131
29
170
135
35
4
41
182
110
22
132
112
118
134
17
105
9
157
36
150
99
109
69
115
3
139
34
54
67
147
52
37
74
38

> <PUBCHEM_MMFF94_PARTIAL_CHARGES>
45
1 1.45
10 -0.57
11 -0.36
12 -0.36
13 -0.91
14 -0.55
15 0.28
16 0.28
17 0.36
18 0.28
19 0.28
2 -0.34
20 0.28
21 -0.01
22 0.78
23 0.08
24 -0.15
25 0.08
26 -0.15
27 0.12
28 -0.15
29 -0.15
3 -0.34
30 -0.15
31 0.28
32 -0.14
33 -0.15
34 -0.15
35 0.28
36 1.16
4 -0.34
45 0.42
46 0.15
47 0.37
48 0.15
49 0.15
5 -0.56
50 0.15
51 0.15
55 0.15
56 0.15
6 -0.56
7 -0.43
8 -0.65
9 -0.65

> <PUBCHEM_EFFECTIVE_ROTOR_COUNT>
11.2

> <PUBCHEM_PHARMACOPHORE_FEATURES>
13
1 10 acceptor
1 11 acceptor
1 12 acceptor
1 13 donor
1 14 donor
1 5 acceptor
1 6 acceptor
1 8 acceptor
1 9 acceptor
5 5 15 16 17 19 rings
5 6 15 16 18 20 rings
6 21 23 24 25 26 28 rings
6 27 29 30 32 33 34 rings

> <PUBCHEM_HEAVY_ATOM_COUNT>
36

> <PUBCHEM_ATOM_DEF_STEREO_COUNT>
4

> <PUBCHEM_ATOM_UDEF_STEREO_COUNT>
0

> <PUBCHEM_BOND_DEF_STEREO_COUNT>
0

> <PUBCHEM_BOND_UDEF_STEREO_COUNT>
0

> <PUBCHEM_ISOTOPIC_ATOM_COUNT>
0

> <PUBCHEM_COMPONENT_COUNT>
1

> <PUBCHEM_CACTVS_TAUTO_COUNT>
2

> <PUBCHEM_CONFORMER_ID>
00B5539100000001

> <PUBCHEM_MMFF94_ENERGY>
100.5656

> <PUBCHEM_FEATURE_SELFOVERLAP>
66.71

> <PUBCHEM_SHAPE_FINGERPRINT>
10391435 84 17632576089384188135
11135609 127 17895479249502378172
11135926 11 15502364643938258731
11719270 70 18343868796802211231
11991303 11 12035743023709272369
12082328 90 17312826013847278291
12098696 120 17313098632469217843
12355185 293 17822004290476423477
12539747 91 17703784809090878449
12857493 111 17918274260082247945
13811026 1 17775852302795606337
13835254 42 15912781487884045552
14118638 360 17060066938414767448
14251764 18 13398631650149755749
14400156 350 16878518951162043972
14849402 71 12535338022074516211
15119646 104 18040719164642356738
15183329 4 18041290906224748751
15461852 350 11095880485093136877
1577012 14 17385734633420287039
19841028 212 18262516988326025154
22224240 67 14548736209818180885
4760202 70 13110373816135328585
5223283 242 13623530160646783254
5758199 1 13110965335915510861
59682541 52 17894921710658915302
6441014 3 17184750195923211914
8988823 20 18411700994135951744
9689198 14 12324243880121719247
99344 41 18335137605294589443
9962374 69 16701726255696146473

> <PUBCHEM_SHAPE_MULTIPOLES>
665.97
30.26
2.49
1.94
57.89
1.65
-1.06
-1.18
1.19
-3.29
0.27
-4.27
-0.45
1.15

> <PUBCHEM_SHAPE_SELFOVERLAP>
1423.222

> <PUBCHEM_SHAPE_VOLUME>
373.9

> <PUBCHEM_COORDINATE_TYPE>
2
5
10

$$$$
