7674709
  -OEChem-12032416363D

 51 55  0     1  0  0  0  0  0999 V2000
    4.3496    3.4321    0.0046 S   0  0  0  0  0  0  0  0  0  0  0  0
   -5.9221   -0.0580    1.7580 F   0  0  0  0  0  0  0  0  0  0  0  0
   -7.8846    0.1536    0.8202 F   0  0  0  0  0  0  0  0  0  0  0  0
   -6.5895    1.9052    0.9936 F   0  0  0  0  0  0  0  0  0  0  0  0
   -0.4463   -1.8466    1.3125 O   0  0  0  0  0  0  0  0  0  0  0  0
    3.3591    1.3433    2.4981 O   0  0  0  0  0  0  0  0  0  0  0  0
   -6.0586    0.2589   -0.5028 O   0  0  0  0  0  0  0  0  0  0  0  0
    4.1387   -0.0103    0.7564 N   0  0  0  0  0  0  0  0  0  0  0  0
    1.5580   -1.7181    0.1268 N   0  0  0  0  0  0  0  0  0  0  0  0
    3.8011   -2.4451    1.1298 C   0  0  1  0  0  0  0  0  0  0  0  0
    3.7170   -1.5355   -1.1566 C   0  0  2  0  0  0  0  0  0  0  0  0
    4.2001   -2.7169   -0.3167 C   0  0  0  0  0  0  0  0  0  0  0  0
    4.4508   -1.1416    1.6295 C   0  0  0  0  0  0  0  0  0  0  0  0
    2.2703   -2.3987    1.2185 C   0  0  0  0  0  0  0  0  0  0  0  0
    4.4041   -0.2419   -0.6731 C   0  0  0  0  0  0  0  0  0  0  0  0
    2.2118   -1.3759   -1.0596 C   0  0  0  0  0  0  0  0  0  0  0  0
    1.5175   -0.8681   -2.0905 C   0  0  0  0  0  0  0  0  0  0  0  0
    0.1728   -1.5274    0.2960 C   0  0  0  0  0  0  0  0  0  0  0  0
    3.5816    1.1477    1.3043 C   0  0  0  0  0  0  0  0  0  0  0  0
   -0.5697   -0.9123   -0.8594 C   0  0  0  0  0  0  0  0  0  0  0  0
    0.1065   -0.6294   -1.9827 C   0  0  0  0  0  0  0  0  0  0  0  0
    3.1988    2.2282    0.3892 C   0  0  0  0  0  0  0  0  0  0  0  0
   -2.0068   -0.6061   -0.7656 C   0  0  0  0  0  0  0  0  0  0  0  0
    1.9953    2.4332   -0.2400 C   0  0  0  0  0  0  0  0  0  0  0  0
   -2.9506   -1.5571   -1.1548 C   0  0  0  0  0  0  0  0  0  0  0  0
   -2.4260    0.6361   -0.2879 C   0  0  0  0  0  0  0  0  0  0  0  0
    2.0155    3.6015   -1.0552 C   0  0  0  0  0  0  0  0  0  0  0  0
    3.2353    4.2402   -1.0138 C   0  0  0  0  0  0  0  0  0  0  0  0
   -4.3119   -1.2664   -1.0664 C   0  0  0  0  0  0  0  0  0  0  0  0
   -3.7875    0.9268   -0.1994 C   0  0  0  0  0  0  0  0  0  0  0  0
   -4.7303   -0.0245   -0.5887 C   0  0  0  0  0  0  0  0  0  0  0  0
   -6.5996    0.5731    0.7757 C   0  0  0  0  0  0  0  0  0  0  0  0
    4.1596   -3.2608    1.7697 H   0  0  0  0  0  0  0  0  0  0  0  0
    4.0068   -1.7144   -2.2001 H   0  0  0  0  0  0  0  0  0  0  0  0
    3.7543   -3.6548   -0.6710 H   0  0  0  0  0  0  0  0  0  0  0  0
    5.2883   -2.8265   -0.3995 H   0  0  0  0  0  0  0  0  0  0  0  0
    4.1402   -0.9348    2.6590 H   0  0  0  0  0  0  0  0  0  0  0  0
    5.5425   -1.2469    1.6363 H   0  0  0  0  0  0  0  0  0  0  0  0
    1.8877   -3.4285    1.2226 H   0  0  0  0  0  0  0  0  0  0  0  0
    1.9549   -1.9562    2.1719 H   0  0  0  0  0  0  0  0  0  0  0  0
    5.4919   -0.3300   -0.7836 H   0  0  0  0  0  0  0  0  0  0  0  0
    4.0907    0.6053   -1.2875 H   0  0  0  0  0  0  0  0  0  0  0  0
    2.0040   -0.5801   -3.0165 H   0  0  0  0  0  0  0  0  0  0  0  0
   -0.3813   -0.1813   -2.8435 H   0  0  0  0  0  0  0  0  0  0  0  0
    1.1357    1.7872   -0.1202 H   0  0  0  0  0  0  0  0  0  0  0  0
   -2.6402   -2.5300   -1.5282 H   0  0  0  0  0  0  0  0  0  0  0  0
   -1.7030    1.3883    0.0185 H   0  0  0  0  0  0  0  0  0  0  0  0
    1.1772    3.9560   -1.6407 H   0  0  0  0  0  0  0  0  0  0  0  0
    3.5252    5.1430   -1.5327 H   0  0  0  0  0  0  0  0  0  0  0  0
   -5.0420   -2.0115   -1.3706 H   0  0  0  0  0  0  0  0  0  0  0  0
   -4.0994    1.9005    0.1680 H   0  0  0  0  0  0  0  0  0  0  0  0
  1 22  1  0  0  0  0
  1 28  1  0  0  0  0
  2 32  1  0  0  0  0
  3 32  1  0  0  0  0
  4 32  1  0  0  0  0
  5 18  2  0  0  0  0
  6 19  2  0  0  0  0
  7 31  1  0  0  0  0
  7 32  1  0  0  0  0
  8 13  1  0  0  0  0
  8 15  1  0  0  0  0
  8 19  1  0  0  0  0
  9 14  1  0  0  0  0
  9 16  1  0  0  0  0
  9 18  1  0  0  0  0
 10 12  1  0  0  0  0
 10 13  1  0  0  0  0
 10 14  1  0  0  0  0
 10 33  1  0  0  0  0
 11 12  1  0  0  0  0
 11 15  1  0  0  0  0
 11 16  1  0  0  0  0
 11 34  1  0  0  0  0
 12 35  1  0  0  0  0
 12 36  1  0  0  0  0
 13 37  1  0  0  0  0
 13 38  1  0  0  0  0
 14 39  1  0  0  0  0
 14 40  1  0  0  0  0
 15 41  1  0  0  0  0
 15 42  1  0  0  0  0
 16 17  2  0  0  0  0
 17 21  1  0  0  0  0
 17 43  1  0  0  0  0
 18 20  1  0  0  0  0
 19 22  1  0  0  0  0
 20 21  2  0  0  0  0
 20 23  1  0  0  0  0
 21 44  1  0  0  0  0
 22 24  2  0  0  0  0
 23 25  2  0  0  0  0
 23 26  1  0  0  0  0
 24 27  1  0  0  0  0
 24 45  1  0  0  0  0
 25 29  1  0  0  0  0
 25 46  1  0  0  0  0
 26 30  2  0  0  0  0
 26 47  1  0  0  0  0
 27 28  2  0  0  0  0
 27 48  1  0  0  0  0
 28 49  1  0  0  0  0
 29 31  2  0  0  0  0
 29 50  1  0  0  0  0
 30 31  1  0  0  0  0
 30 51  1  0  0  0  0
M  END
> <PUBCHEM_COMPOUND_CID>
7674709

> <PUBCHEM_CONFORMER_RMSD>
0.8

> <PUBCHEM_CONFORMER_DIVERSEORDER>
1
13
17
12
23
6
16
15
14
11
4
18
2
21
10
7
5
22
20
8
19
3
9

> <PUBCHEM_MMFF94_PARTIAL_CHARGES>
39
1 -0.08
11 0.14
13 0.3
14 0.3
15 0.3
16 -0.03
17 -0.15
18 0.62
19 0.71
2 -0.34
20 -0.01
21 -0.15
22 -0.05
23 0.03
24 -0.15
25 -0.15
26 -0.15
27 -0.15
28 -0.11
29 -0.15
3 -0.34
30 -0.15
31 0.08
32 1.3
4 -0.34
43 0.15
44 0.15
45 0.15
46 0.15
47 0.15
48 0.15
49 0.15
5 -0.57
50 0.15
51 0.15
6 -0.57
7 -0.36
8 -0.66
9 -0.47

> <PUBCHEM_EFFECTIVE_ROTOR_COUNT>
6

> <PUBCHEM_PHARMACOPHORE_FEATURES>
8
1 5 acceptor
1 6 acceptor
1 7 acceptor
5 1 22 24 27 28 rings
6 23 25 26 29 30 31 rings
6 8 10 11 12 13 15 rings
6 9 10 11 12 14 16 rings
6 9 16 17 18 20 21 rings

> <PUBCHEM_HEAVY_ATOM_COUNT>
32

> <PUBCHEM_ATOM_DEF_STEREO_COUNT>
2

> <PUBCHEM_ATOM_UDEF_STEREO_COUNT>
0

> <PUBCHEM_BOND_DEF_STEREO_COUNT>
0

> <PUBCHEM_BOND_UDEF_STEREO_COUNT>
0

> <PUBCHEM_ISOTOPIC_ATOM_COUNT>
0

> <PUBCHEM_COMPONENT_COUNT>
1

> <PUBCHEM_CACTVS_TAUTO_COUNT>
1

> <PUBCHEM_CONFORMER_ID>
00751B5500000001

> <PUBCHEM_MMFF94_ENERGY>
91.6814

> <PUBCHEM_FEATURE_SELFOVERLAP>
42.192

> <PUBCHEM_SHAPE_FINGERPRINT>
10165383 225 17822018636057134022
10483366 6 18336276725943979068
10674148 151 18128825321496327028
10675989 125 18268996560646048456
11578080 2 18116730692413780634
11796584 16 12035991461865833695
12107698 1 18341333288696795137
12166972 35 18201442415488512394
12422481 6 18341046337964310613
12633257 1 17679273477807551344
13965767 371 17843933002210045154
14251764 75 17974011948693870044
14849402 71 18334295392356445700
15183329 4 16343706539102280009
15336146 87 18041278782228820565
15348495 7 18187651323394705715
19958102 18 9943530679155815307
21033648 29 17240750784145781511
21285901 2 12967132692036544883
21641784 216 15554180207165189723
21792934 111 18041000606309225765
21860390 5 18412256264439759414
22122407 14 18338532837440586265
23559900 14 17418103082910408503
23569914 152 11164613014039434921
249057 3 18060139808417075110
25147074 1 18129654318533750807
3411729 13 18340491169942841228
3680242 22 18412263913449472161
373842 8 18337951191410726573
394071 54 18411416211058334061
397830 11 18115316699929661987
474 4 18265039409611633526
5104073 3 18335708282215526787
513532 50 16486978427387581916
9896288 288 17251746154016944088

> <PUBCHEM_SHAPE_MULTIPOLES>
613
14.62
3.97
1.77
32.85
3.78
-0.22
4.13
-5.37
-7.04
0.36
-0.59
-0.29
-1.29

> <PUBCHEM_SHAPE_SELFOVERLAP>
1343.019

> <PUBCHEM_SHAPE_VOLUME>
335.3

> <PUBCHEM_COORDINATE_TYPE>
2
5
10

$$$$
