11882072
  -OEChem-12032416123D

 68 71  0     1  0  0  0  0  0999 V2000
    3.5967    5.1248   -1.6715 S   0  0  0  0  0  0  0  0  0  0  0  0
    2.5039    0.3039    1.8544 O   0  0  0  0  0  0  0  0  0  0  0  0
    2.5881   -1.1154   -1.3922 O   0  0  0  0  0  0  0  0  0  0  0  0
   -2.7742    0.4091    0.8716 O   0  0  0  0  0  0  0  0  0  0  0  0
   -0.0004    3.2934    2.6561 O   0  0  0  0  0  0  0  0  0  0  0  0
   -6.9947    1.7322   -0.7694 O   0  0  0  0  0  0  0  0  0  0  0  0
    1.5084   -1.7910    0.5310 N   0  0  0  0  0  0  0  0  0  0  0  0
   -1.5643   -1.5521    1.0563 N   0  0  0  0  0  0  0  0  0  0  0  0
    1.1096    1.7464    0.6738 N   0  0  0  0  0  0  0  0  0  0  0  0
    4.4781   -3.3665   -0.5299 N   0  0  0  0  0  0  0  0  0  0  0  0
   -3.6553   -1.6300    0.1123 N   0  0  0  0  0  0  0  0  0  0  0  0
    2.1123    4.0356    3.1687 N   0  0  0  0  0  0  0  0  0  0  0  0
   -0.3984   -0.9719    1.6792 C   0  0  2  0  0  0  0  0  0  0  0  0
    0.6609   -0.6067    0.6388 C   0  0  1  0  0  0  0  0  0  0  0  0
    0.3158   -1.9935    2.5676 C   0  0  0  0  0  0  0  0  0  0  0  0
    1.2123   -2.7500    1.5958 C   0  0  0  0  0  0  0  0  0  0  0  0
    1.5377    0.5095    1.1245 C   0  0  0  0  0  0  0  0  0  0  0  0
    2.3947   -1.9770   -0.5335 C   0  0  0  0  0  0  0  0  0  0  0  0
    3.1137   -3.2443   -0.5668 C   0  0  0  0  0  0  0  0  0  0  0  0
    1.7689    2.9851    1.0188 C   0  0  1  0  0  0  0  0  0  0  0  0
   -2.6884   -0.8032    0.6912 C   0  0  0  0  0  0  0  0  0  0  0  0
    1.5893    4.0603   -0.0598 C   0  0  0  0  0  0  0  0  0  0  0  0
    2.5783   -4.5113   -0.6408 C   0  0  0  0  0  0  0  0  0  0  0  0
    1.1759    3.4542    2.3396 C   0  0  0  0  0  0  0  0  0  0  0  0
    4.8219   -4.6924   -0.5785 C   0  0  0  0  0  0  0  0  0  0  0  0
    3.6591   -5.4274   -0.6484 C   0  0  0  0  0  0  0  0  0  0  0  0
    2.5264    3.8636   -1.2280 C   0  0  0  0  0  0  0  0  0  0  0  0
    5.4245   -2.2755   -0.4508 C   0  0  0  0  0  0  0  0  0  0  0  0
   -4.9264   -1.2616   -0.3867 C   0  0  0  0  0  0  0  0  0  0  0  0
    2.6618    2.7606   -2.0421 C   0  0  0  0  0  0  0  0  0  0  0  0
   -5.3385    0.0699   -0.3311 C   0  0  0  0  0  0  0  0  0  0  0  0
   -5.7680   -2.2298   -0.9343 C   0  0  0  0  0  0  0  0  0  0  0  0
    3.6575    2.9534   -3.0430 C   0  0  0  0  0  0  0  0  0  0  0  0
    4.2449    4.1962   -2.9558 C   0  0  0  0  0  0  0  0  0  0  0  0
   -6.5921    0.4330   -0.8233 C   0  0  0  0  0  0  0  0  0  0  0  0
   -7.0216   -1.8668   -1.4264 C   0  0  0  0  0  0  0  0  0  0  0  0
   -7.4336   -0.5353   -1.3708 C   0  0  0  0  0  0  0  0  0  0  0  0
   -6.0849    2.6705   -0.1969 C   0  0  0  0  0  0  0  0  0  0  0  0
   -0.7195   -0.1053    2.2683 H   0  0  0  0  0  0  0  0  0  0  0  0
    0.2462   -0.3665   -0.3472 H   0  0  0  0  0  0  0  0  0  0  0  0
   -0.3619   -2.6601    3.1100 H   0  0  0  0  0  0  0  0  0  0  0  0
    0.9367   -1.4714    3.3056 H   0  0  0  0  0  0  0  0  0  0  0  0
    2.1327   -3.1108    2.0637 H   0  0  0  0  0  0  0  0  0  0  0  0
    0.6699   -3.5944    1.1598 H   0  0  0  0  0  0  0  0  0  0  0  0
   -1.5441   -2.5376    0.8122 H   0  0  0  0  0  0  0  0  0  0  0  0
    0.2470    1.8021    0.1394 H   0  0  0  0  0  0  0  0  0  0  0  0
    2.8350    2.7702    1.1700 H   0  0  0  0  0  0  0  0  0  0  0  0
    0.5573    4.0610   -0.4353 H   0  0  0  0  0  0  0  0  0  0  0  0
    1.7506    5.0522    0.3826 H   0  0  0  0  0  0  0  0  0  0  0  0
    1.5276   -4.7598   -0.7004 H   0  0  0  0  0  0  0  0  0  0  0  0
   -3.4260   -2.6179    0.0379 H   0  0  0  0  0  0  0  0  0  0  0  0
    5.8569   -5.0065   -0.5619 H   0  0  0  0  0  0  0  0  0  0  0  0
    3.5975   -6.5051   -0.7030 H   0  0  0  0  0  0  0  0  0  0  0  0
    5.4073   -1.7371   -1.4015 H   0  0  0  0  0  0  0  0  0  0  0  0
    5.1334   -1.6186    0.3730 H   0  0  0  0  0  0  0  0  0  0  0  0
    6.4257   -2.6730   -0.2652 H   0  0  0  0  0  0  0  0  0  0  0  0
    1.8517    4.3782    4.0875 H   0  0  0  0  0  0  0  0  0  0  0  0
    3.0821    4.1590    2.8962 H   0  0  0  0  0  0  0  0  0  0  0  0
    2.0757    1.8567   -1.9410 H   0  0  0  0  0  0  0  0  0  0  0  0
   -4.6947    0.8206    0.0892 H   0  0  0  0  0  0  0  0  0  0  0  0
   -5.4591   -3.2708   -0.9836 H   0  0  0  0  0  0  0  0  0  0  0  0
    3.9276    2.2184   -3.7899 H   0  0  0  0  0  0  0  0  0  0  0  0
    5.0235    4.6036   -3.5852 H   0  0  0  0  0  0  0  0  0  0  0  0
   -7.6769   -2.6207   -1.8528 H   0  0  0  0  0  0  0  0  0  0  0  0
   -8.4113   -0.2585   -1.7558 H   0  0  0  0  0  0  0  0  0  0  0  0
   -5.8935    2.4554    0.8600 H   0  0  0  0  0  0  0  0  0  0  0  0
   -5.1631    2.7501   -0.7833 H   0  0  0  0  0  0  0  0  0  0  0  0
   -6.5694    3.6519   -0.2363 H   0  0  0  0  0  0  0  0  0  0  0  0
  1 27  1  0  0  0  0
  1 34  1  0  0  0  0
  2 17  2  0  0  0  0
  3 18  2  0  0  0  0
  4 21  2  0  0  0  0
  5 24  2  0  0  0  0
  6 35  1  0  0  0  0
  6 38  1  0  0  0  0
  7 14  1  0  0  0  0
  7 16  1  0  0  0  0
  7 18  1  0  0  0  0
  8 13  1  0  0  0  0
  8 21  1  0  0  0  0
  8 45  1  0  0  0  0
  9 17  1  0  0  0  0
  9 20  1  0  0  0  0
  9 46  1  0  0  0  0
 10 19  1  0  0  0  0
 10 25  1  0  0  0  0
 10 28  1  0  0  0  0
 11 21  1  0  0  0  0
 11 29  1  0  0  0  0
 11 51  1  0  0  0  0
 12 24  1  0  0  0  0
 12 57  1  0  0  0  0
 12 58  1  0  0  0  0
 13 14  1  0  0  0  0
 13 15  1  0  0  0  0
 13 39  1  0  0  0  0
 14 17  1  0  0  0  0
 14 40  1  0  0  0  0
 15 16  1  0  0  0  0
 15 41  1  0  0  0  0
 15 42  1  0  0  0  0
 16 43  1  0  0  0  0
 16 44  1  0  0  0  0
 18 19  1  0  0  0  0
 19 23  2  0  0  0  0
 20 22  1  0  0  0  0
 20 24  1  0  0  0  0
 20 47  1  0  0  0  0
 22 27  1  0  0  0  0
 22 48  1  0  0  0  0
 22 49  1  0  0  0  0
 23 26  1  0  0  0  0
 23 50  1  0  0  0  0
 25 26  2  0  0  0  0
 25 52  1  0  0  0  0
 26 53  1  0  0  0  0
 27 30  2  0  0  0  0
 28 54  1  0  0  0  0
 28 55  1  0  0  0  0
 28 56  1  0  0  0  0
 29 31  2  0  0  0  0
 29 32  1  0  0  0  0
 30 33  1  0  0  0  0
 30 59  1  0  0  0  0
 31 35  1  0  0  0  0
 31 60  1  0  0  0  0
 32 36  2  0  0  0  0
 32 61  1  0  0  0  0
 33 34  2  0  0  0  0
 33 62  1  0  0  0  0
 34 63  1  0  0  0  0
 35 37  2  0  0  0  0
 36 37  1  0  0  0  0
 36 64  1  0  0  0  0
 37 65  1  0  0  0  0
 38 66  1  0  0  0  0
 38 67  1  0  0  0  0
 38 68  1  0  0  0  0
M  END
> <PUBCHEM_COMPOUND_CID>
11882072

> <PUBCHEM_CONFORMER_RMSD>
1.2

> <PUBCHEM_CONFORMER_DIVERSEORDER>
1
61
100
28
83
79
72
68
77
93
90
96
107
36
85
106
47
89
60
33
11
51
75
54
112
55
103
5
58
45
17
9
59
25
57
15
56
111
46
65
82
43
21
97
69
101
81
48
110
84
14
62
91
92
6
74
108
71
37
32
95
30
35
38
73
34
13
64
7
104
98
76
102
78
19
39
109
94
86
40
41
70
99
87
44
4
67
24
29
23
105
16
26
42
22
18
49
88
12
52
31
10
8
50
20
63
27
53
66
80
3
2

> <PUBCHEM_MMFF94_PARTIAL_CHARGES>
52
1 -0.08
10 0.05
11 -0.55
12 -0.8
13 0.3
14 0.36
16 0.3
17 0.57
18 0.71
19 -0.24
2 -0.57
20 0.36
21 0.69
22 0.18
23 -0.15
24 0.57
25 -0.3
26 -0.15
27 -0.14
28 0.26
29 0.12
3 -0.57
30 -0.15
31 -0.15
32 -0.15
33 -0.15
34 -0.11
35 0.08
36 -0.15
37 -0.15
38 0.28
4 -0.57
45 0.37
46 0.37
5 -0.57
50 0.15
51 0.37
52 0.15
53 0.15
57 0.37
58 0.37
59 0.15
6 -0.36
60 0.15
61 0.15
62 0.15
63 0.15
64 0.15
65 0.15
7 -0.66
8 -0.73
9 -0.73

> <PUBCHEM_EFFECTIVE_ROTOR_COUNT>
14

> <PUBCHEM_PHARMACOPHORE_FEATURES>
14
1 10 cation
1 11 donor
1 12 donor
1 2 acceptor
1 3 acceptor
1 4 acceptor
1 5 acceptor
1 6 acceptor
1 8 donor
1 9 donor
5 1 27 30 33 34 rings
5 10 19 23 25 26 rings
5 7 13 14 15 16 rings
6 29 31 32 35 36 37 rings

> <PUBCHEM_HEAVY_ATOM_COUNT>
38

> <PUBCHEM_ATOM_DEF_STEREO_COUNT>
3

> <PUBCHEM_ATOM_UDEF_STEREO_COUNT>
0

> <PUBCHEM_BOND_DEF_STEREO_COUNT>
0

> <PUBCHEM_BOND_UDEF_STEREO_COUNT>
0

> <PUBCHEM_ISOTOPIC_ATOM_COUNT>
0

> <PUBCHEM_COMPONENT_COUNT>
1

> <PUBCHEM_CACTVS_TAUTO_COUNT>
12

> <PUBCHEM_CONFORMER_ID>
00B54E5800000001

> <PUBCHEM_MMFF94_ENERGY>
98.5891

> <PUBCHEM_FEATURE_SELFOVERLAP>
71.101

> <PUBCHEM_SHAPE_FINGERPRINT>
10079526 769 18338250266366194636
10721379 63 18131071579762008747
10974685 15 17191223553239467796
11093857 51 18120375616489171909
11115154 58 18198342858388111619
11720765 8 18341890749407997864
14068700 675 18196094344235294670
15082195 135 18409167736103379999
15357212 105 18335715953391114313
15775530 1 18117857704717705642
15950262 2 15143805243397865214
16988056 13 18408878516773380373
21304303 282 16763913726449766338
21583282 1 18273493490436492294
21716022 299 18341623576978176068
21968339 14 18340210790277333868
23559900 14 18272356556874703819
23576562 1 18263362487398283973
24771750 20 18191598642572896134
25025965 108 16695887758758870980
4046055 25 18125162623912594486
4066623 53 18119518843865141006
4394409 98 18194133043499220396
44317340 157 18410858798415211031
44802255 64 17323543133644836308
45266715 3 17772195473135278608
508180 173 18190741921768379673

> <PUBCHEM_SHAPE_MULTIPOLES>
726.64
15.36
8.54
2.69
39.19
0.62
-0.93
-2.26
11.61
-17.73
2.64
-2.58
3.28
-1.64

> <PUBCHEM_SHAPE_SELFOVERLAP>
1540.501

> <PUBCHEM_SHAPE_VOLUME>
408.4

> <PUBCHEM_COORDINATE_TYPE>
2
5
10

$$$$
