51137063
  -OEChem-12032416213D

 36 39  0     1  0  0  0  0  0999 V2000
   -4.0844   -1.5929   -1.3093 S   0  0  0  0  0  0  0  0  0  0  0  0
    2.1629    0.1237    1.3527 O   0  0  0  0  0  0  0  0  0  0  0  0
   -2.1704    1.4278   -0.0022 N   0  0  1  0  0  0  0  0  0  0  0  0
    1.8845    0.4547   -0.8721 N   0  0  0  0  0  0  0  0  0  0  0  0
    0.0369    1.1451    0.7376 C   0  0  1  0  0  0  0  0  0  0  0  0
   -0.1872    2.6133    0.3357 C   0  0  0  0  0  0  0  0  0  0  0  0
   -1.1462    0.3881    0.1192 C   0  0  0  0  0  0  0  0  0  0  0  0
   -1.4576    2.6024   -0.5045 C   0  0  0  0  0  0  0  0  0  0  0  0
   -3.2655    1.0293   -0.8742 C   0  0  0  0  0  0  0  0  0  0  0  0
    1.3770    0.5739    0.3350 C   0  0  0  0  0  0  0  0  0  0  0  0
   -3.9907   -0.1801   -0.3465 C   0  0  0  0  0  0  0  0  0  0  0  0
    3.2842   -0.3266    0.7167 C   0  0  0  0  0  0  0  0  0  0  0  0
    3.1102   -0.1225   -0.6443 C   0  0  0  0  0  0  0  0  0  0  0  0
   -4.6300   -0.3359    0.8637 C   0  0  0  0  0  0  0  0  0  0  0  0
    4.4141   -0.8926    1.2942 C   0  0  0  0  0  0  0  0  0  0  0  0
    4.1332   -0.5059   -1.5233 C   0  0  0  0  0  0  0  0  0  0  0  0
   -5.2040   -1.6325    1.0025 C   0  0  0  0  0  0  0  0  0  0  0  0
   -4.9819   -2.4182   -0.1070 C   0  0  0  0  0  0  0  0  0  0  0  0
    5.4250   -1.2698    0.4036 C   0  0  0  0  0  0  0  0  0  0  0  0
    5.2898   -1.0812   -0.9774 C   0  0  0  0  0  0  0  0  0  0  0  0
   -0.0439    1.0860    1.8324 H   0  0  0  0  0  0  0  0  0  0  0  0
   -0.3379    3.2186    1.2383 H   0  0  0  0  0  0  0  0  0  0  0  0
    0.6531    3.0456   -0.2179 H   0  0  0  0  0  0  0  0  0  0  0  0
   -0.8780   -0.0319   -0.8597 H   0  0  0  0  0  0  0  0  0  0  0  0
   -1.4548   -0.4345    0.7735 H   0  0  0  0  0  0  0  0  0  0  0  0
   -2.0341    3.5234   -0.3728 H   0  0  0  0  0  0  0  0  0  0  0  0
   -1.1986    2.4992   -1.5661 H   0  0  0  0  0  0  0  0  0  0  0  0
   -3.9944    1.8483   -0.9344 H   0  0  0  0  0  0  0  0  0  0  0  0
   -2.9102    0.8553   -1.8989 H   0  0  0  0  0  0  0  0  0  0  0  0
   -4.6872    0.4400    1.6166 H   0  0  0  0  0  0  0  0  0  0  0  0
    4.5088   -1.0340    2.3636 H   0  0  0  0  0  0  0  0  0  0  0  0
    4.0391   -0.3647   -2.5949 H   0  0  0  0  0  0  0  0  0  0  0  0
   -5.7523   -1.9717    1.8717 H   0  0  0  0  0  0  0  0  0  0  0  0
   -5.3037   -3.4372   -0.2690 H   0  0  0  0  0  0  0  0  0  0  0  0
    6.3356   -1.7191    0.7926 H   0  0  0  0  0  0  0  0  0  0  0  0
    6.0963   -1.3864   -1.6396 H   0  0  0  0  0  0  0  0  0  0  0  0
  1 11  1  0  0  0  0
  1 18  1  0  0  0  0
  2 10  1  0  0  0  0
  2 12  1  0  0  0  0
  3  7  1  0  0  0  0
  3  8  1  0  0  0  0
  3  9  1  0  0  0  0
  4 10  2  0  0  0  0
  4 13  1  0  0  0  0
  5  6  1  0  0  0  0
  5  7  1  0  0  0  0
  5 10  1  0  0  0  0
  5 21  1  0  0  0  0
  6  8  1  0  0  0  0
  6 22  1  0  0  0  0
  6 23  1  0  0  0  0
  7 24  1  0  0  0  0
  7 25  1  0  0  0  0
  8 26  1  0  0  0  0
  8 27  1  0  0  0  0
  9 11  1  0  0  0  0
  9 28  1  0  0  0  0
  9 29  1  0  0  0  0
 11 14  2  0  0  0  0
 12 13  1  0  0  0  0
 12 15  2  0  0  0  0
 13 16  2  0  0  0  0
 14 17  1  0  0  0  0
 14 30  1  0  0  0  0
 15 19  1  0  0  0  0
 15 31  1  0  0  0  0
 16 20  1  0  0  0  0
 16 32  1  0  0  0  0
 17 18  2  0  0  0  0
 17 33  1  0  0  0  0
 18 34  1  0  0  0  0
 19 20  2  0  0  0  0
 19 35  1  0  0  0  0
 20 36  1  0  0  0  0
M  END
> <PUBCHEM_COMPOUND_CID>
51137063

> <PUBCHEM_CONFORMER_RMSD>
0.6

> <PUBCHEM_CONFORMER_DIVERSEORDER>
1
127
98
20
143
130
144
103
71
79
129
105
37
29
149
142
121
138
126
124
97
141
116
72
17
83
135
44
110
27
33
73
146
88
94
31
93
69
154
47
117
134
45
153
99
148
14
119
133
139
90
87
54
74
4
132
48
120
28
86
147
101
151
122
136
107
113
61
100
46
104
95
131
108
55
140
26
67
34
70
32
3
150
7
39
80
114
23
2
137
152
128
5
59
145
19
24
9
109
22
125
13
112
43
11
111
50
68
89
115
51
21
64
35
123
38
16
15
81
30
118
40
78
6
18
102
25
42
58
12
57
96
60
41
56
36
75
106
52
76
63
84
10
66
53
92
8
77
82
65
85
62
49
91

> <PUBCHEM_MMFF94_PARTIAL_CHARGES>
26
1 -0.08
10 0.3
11 -0.14
12 0.14
13 0.23
14 -0.15
15 -0.15
16 -0.15
17 -0.15
18 -0.11
19 -0.15
2 -0.28
20 -0.15
3 -0.81
30 0.15
31 0.15
32 0.15
33 0.15
34 0.15
35 0.15
36 0.15
4 -0.57
5 0.18
7 0.27
8 0.27
9 0.45

> <PUBCHEM_EFFECTIVE_ROTOR_COUNT>
4

> <PUBCHEM_PHARMACOPHORE_FEATURES>
5
1 3 cation
5 1 11 14 17 18 rings
5 2 4 10 12 13 rings
5 3 5 6 7 8 rings
6 12 13 15 16 19 20 rings

> <PUBCHEM_HEAVY_ATOM_COUNT>
20

> <PUBCHEM_ATOM_DEF_STEREO_COUNT>
1

> <PUBCHEM_ATOM_UDEF_STEREO_COUNT>
0

> <PUBCHEM_BOND_DEF_STEREO_COUNT>
0

> <PUBCHEM_BOND_UDEF_STEREO_COUNT>
0

> <PUBCHEM_ISOTOPIC_ATOM_COUNT>
0

> <PUBCHEM_COMPONENT_COUNT>
1

> <PUBCHEM_CACTVS_TAUTO_COUNT>
1

> <PUBCHEM_CONFORMER_ID>
030C4A2700000001

> <PUBCHEM_MMFF94_ENERGY>
32.2063

> <PUBCHEM_FEATURE_SELFOVERLAP>
25.492

> <PUBCHEM_SHAPE_FINGERPRINT>
10591671 39 9079105675200764361
10928967 22 18336540612143713723
10968037 57 18342174531652376607
11045515 52 17603867780120957517
11046707 91 18410008827975398697
11089746 13 12035729842823158062
11128504 68 17313391144525435694
11370993 144 16271933679362142215
11543360 7 15647048283419688561
11552529 35 14331684977811446332
11796584 16 17981324487598416934
12236239 1 17822293440596049486
12363563 72 18410858789139376785
12553582 1 18408597089600284171
12633257 1 15769771381502048053
12670546 177 16225766315535414835
12892183 10 15195294135669954093
12969540 114 13334737937846883507
13103583 49 16200158715842501083
13544653 18 17846492651703866521
13740256 8 18412265064279232769
14123255 352 9151175350575390479
1420 369 18413107277280251115
14251732 14 18339938068865868228
14251740 79 17167867478150101579
14251751 18 18411696582476629394
14251757 5 17459202943600140931
14251764 30 18114753753976276571
14347329 18 8646773313381223366
14576447 43 17894912919272057122
14848178 96 8574449633281488967
14950920 106 15841266030071945523
15209294 21 11167936952794422784
15537594 2 18333735689329897619
17138139 8 17822284742670779666
17349148 13 17894633621659227266
17780758 139 17775568633011421635
1813 80 18411986900996860997
18222031 100 18271520992060702597
18785283 64 17344891113907289952
18927931 339 18341611486592288839
19141452 34 17847060004441650847
193927 3 18343586247940562781
200 152 17603589599325568192
20281389 69 9655570812375724750
20374829 77 18410291411137859881
20403669 9 18341049700844335175
20621476 21 18060149699858490110
21054139 6 17967532346820297250
21065201 7 18126841595785563520
21401589 2 9943531855839685263
21403212 168 18200605705553949539
22950370 63 18410863191512490701
23402539 116 18040716926663552756
235170 7 15647044963357708547
23557571 272 18057887948231215124
23559900 14 18336533971702098792
25122255 55 18269843012795027974
2767999 5 9007061240510244483
2838139 119 11963380869123733871
3004659 81 18113336422630030359
312425 54 16917355835478352383
312425 83 14636246280359978587
314173 85 18202562869593335265
351380 3 18334860528189868187
3737641 26 17987529121138396958
38570 142 14116095006286430682
4028521 119 12396298149417071109
465052 167 18339652260288748167
495365 180 12540688232917941520
5104073 3 18130783426422643056
5352402 22 17132119034820384750
5486654 36 18409458007505455089
59682541 52 14418395694487720994
7495541 125 18202559580075654688
7970288 3 18337388339882694491
8217 86 17459200740729777875
8863177 126 17971203766506395683
999808 66 17059785399709847406

> <PUBCHEM_SHAPE_MULTIPOLES>
399.61
13.44
2.35
1.31
1.72
0.89
-0.08
-10.83
-0.05
-2.47
-0.14
0.5
-0.32
0.26

> <PUBCHEM_SHAPE_SELFOVERLAP>
864.258

> <PUBCHEM_SHAPE_VOLUME>
221.9

> <PUBCHEM_COORDINATE_TYPE>
2
5
10

$$$$
