45361411
  -OEChem-12032416353D

 77 79  0     1  0  0  0  0  0999 V2000
    0.2988   -2.5339   -1.4185 O   0  0  0  0  0  0  0  0  0  0  0  0
    5.0159   -2.1198    1.0611 O   0  0  0  0  0  0  0  0  0  0  0  0
   -5.2363    1.5547   -1.7978 O   0  0  0  0  0  0  0  0  0  0  0  0
   -4.4660   -0.1558   -0.4268 N   0  0  0  0  0  0  0  0  0  0  0  0
    4.5957   -1.2035   -1.0278 N   0  0  0  0  0  0  0  0  0  0  0  0
   -0.4252    0.3563    0.9686 C   0  0  1  0  0  0  0  0  0  0  0  0
   -0.6428   -0.6227   -0.2327 C   0  0  2  0  0  0  0  0  0  0  0  0
   -2.1497   -1.0543   -0.3363 C   0  0  1  0  0  0  0  0  0  0  0  0
    0.3860   -1.7895   -0.2026 C   0  0  2  0  0  0  0  0  0  0  0  0
    1.0412    0.8491    0.9735 C   0  0  0  0  0  0  0  0  0  0  0  0
   -1.3362    1.5918    0.7835 C   0  0  0  0  0  0  0  0  0  0  0  0
    1.8462   -1.2922   -0.0926 C   0  0  1  0  0  0  0  0  0  0  0  0
   -3.0625    0.1994   -0.4464 C   0  0  2  0  0  0  0  0  0  0  0  0
    2.0505   -0.2892    1.0428 C   0  0  0  0  0  0  0  0  0  0  0  0
   -2.8094    1.2335    0.6504 C   0  0  0  0  0  0  0  0  0  0  0  0
   -0.7329   -0.3042    2.3364 C   0  0  0  0  0  0  0  0  0  0  0  0
    2.8329   -2.4552    0.0674 C   0  0  2  0  0  0  0  0  0  0  0  0
   -2.4408   -1.9968   -1.5164 C   0  0  0  0  0  0  0  0  0  0  0  0
    2.5004   -3.2570    1.3209 C   0  0  0  0  0  0  0  0  0  0  0  0
    4.2618   -1.9225    0.1106 C   0  0  0  0  0  0  0  0  0  0  0  0
   -5.4359    0.5569   -1.1080 C   0  0  0  0  0  0  0  0  0  0  0  0
   -6.8322   -0.0139   -0.9201 C   0  0  0  0  0  0  0  0  0  0  0  0
   -7.5891    0.5238    0.3175 C   0  0  0  0  0  0  0  0  0  0  0  0
    5.8939   -0.5990   -1.2174 C   0  0  0  0  0  0  0  0  0  0  0  0
   -7.7361    2.0534    0.2672 C   0  0  0  0  0  0  0  0  0  0  0  0
   -6.7749    0.1540    1.5729 C   0  0  0  0  0  0  0  0  0  0  0  0
   -8.9824   -0.1164    0.4358 C   0  0  0  0  0  0  0  0  0  0  0  0
    5.9428    0.8047   -0.6868 C   0  0  0  0  0  0  0  0  0  0  0  0
    5.6130    1.8757   -1.5172 C   0  0  0  0  0  0  0  0  0  0  0  0
    6.3180    1.0377    0.6362 C   0  0  0  0  0  0  0  0  0  0  0  0
    5.6584    3.1800   -1.0246 C   0  0  0  0  0  0  0  0  0  0  0  0
    6.3634    2.3418    1.1289 C   0  0  0  0  0  0  0  0  0  0  0  0
    6.0337    3.4131    0.2984 C   0  0  0  0  0  0  0  0  0  0  0  0
   -0.4363   -0.0601   -1.1574 H   0  0  0  0  0  0  0  0  0  0  0  0
   -2.4231   -1.6077    0.5710 H   0  0  0  0  0  0  0  0  0  0  0  0
    0.1049   -2.4607    0.6106 H   0  0  0  0  0  0  0  0  0  0  0  0
    1.2377    1.4343    0.0649 H   0  0  0  0  0  0  0  0  0  0  0  0
    1.2104    1.5303    1.8174 H   0  0  0  0  0  0  0  0  0  0  0  0
   -1.2114    2.2856    1.6247 H   0  0  0  0  0  0  0  0  0  0  0  0
   -1.0316    2.1432   -0.1162 H   0  0  0  0  0  0  0  0  0  0  0  0
    2.0646   -0.7664   -1.0317 H   0  0  0  0  0  0  0  0  0  0  0  0
   -2.8584    0.6826   -1.4119 H   0  0  0  0  0  0  0  0  0  0  0  0
    1.9786   -0.7493    2.0305 H   0  0  0  0  0  0  0  0  0  0  0  0
    3.0493    0.1590    0.9920 H   0  0  0  0  0  0  0  0  0  0  0  0
   -3.3784    2.1478    0.4373 H   0  0  0  0  0  0  0  0  0  0  0  0
   -3.1955    0.8691    1.6101 H   0  0  0  0  0  0  0  0  0  0  0  0
   -0.1323   -1.2007    2.5134 H   0  0  0  0  0  0  0  0  0  0  0  0
   -0.5251    0.3936    3.1562 H   0  0  0  0  0  0  0  0  0  0  0  0
   -1.7781   -0.6081    2.4355 H   0  0  0  0  0  0  0  0  0  0  0  0
    2.7705   -3.1251   -0.7998 H   0  0  0  0  0  0  0  0  0  0  0  0
   -2.0450   -1.5935   -2.4541 H   0  0  0  0  0  0  0  0  0  0  0  0
   -3.5143   -2.1614   -1.6538 H   0  0  0  0  0  0  0  0  0  0  0  0
   -2.0142   -2.9888   -1.3437 H   0  0  0  0  0  0  0  0  0  0  0  0
   -4.7427   -0.9469    0.1466 H   0  0  0  0  0  0  0  0  0  0  0  0
    0.4921   -1.9312   -2.1567 H   0  0  0  0  0  0  0  0  0  0  0  0
    2.5628   -2.6848    2.2494 H   0  0  0  0  0  0  0  0  0  0  0  0
    3.2310   -4.0694    1.4303 H   0  0  0  0  0  0  0  0  0  0  0  0
    1.5273   -3.7504    1.2702 H   0  0  0  0  0  0  0  0  0  0  0  0
   -6.7633   -1.1089   -0.8767 H   0  0  0  0  0  0  0  0  0  0  0  0
   -7.4004    0.2146   -1.8312 H   0  0  0  0  0  0  0  0  0  0  0  0
    3.9330   -1.1290   -1.7929 H   0  0  0  0  0  0  0  0  0  0  0  0
    6.6598   -1.2169   -0.7338 H   0  0  0  0  0  0  0  0  0  0  0  0
    6.1093   -0.6112   -2.2919 H   0  0  0  0  0  0  0  0  0  0  0  0
   -8.2665    2.3649   -0.6395 H   0  0  0  0  0  0  0  0  0  0  0  0
   -8.3042    2.4232    1.1285 H   0  0  0  0  0  0  0  0  0  0  0  0
   -6.7648    2.5591    0.2787 H   0  0  0  0  0  0  0  0  0  0  0  0
   -7.3387    0.3982    2.4817 H   0  0  0  0  0  0  0  0  0  0  0  0
   -6.5564   -0.9190    1.6097 H   0  0  0  0  0  0  0  0  0  0  0  0
   -5.8337    0.7078    1.6397 H   0  0  0  0  0  0  0  0  0  0  0  0
   -9.5954    0.1190   -0.4413 H   0  0  0  0  0  0  0  0  0  0  0  0
   -8.9099   -1.2073    0.5087 H   0  0  0  0  0  0  0  0  0  0  0  0
   -9.5155    0.2436    1.3228 H   0  0  0  0  0  0  0  0  0  0  0  0
    5.3170    1.7070   -2.5492 H   0  0  0  0  0  0  0  0  0  0  0  0
    6.5805    0.2137    1.2939 H   0  0  0  0  0  0  0  0  0  0  0  0
    5.4010    4.0140   -1.6709 H   0  0  0  0  0  0  0  0  0  0  0  0
    6.6559    2.5234    2.1590 H   0  0  0  0  0  0  0  0  0  0  0  0
    6.0689    4.4285    0.6821 H   0  0  0  0  0  0  0  0  0  0  0  0
  1  9  1  0  0  0  0
  1 55  1  0  0  0  0
  2 20  2  0  0  0  0
  3 21  2  0  0  0  0
  4 13  1  0  0  0  0
  4 21  1  0  0  0  0
  4 54  1  0  0  0  0
  5 20  1  0  0  0  0
  5 24  1  0  0  0  0
  5 61  1  0  0  0  0
  6  7  1  0  0  0  0
  6 10  1  0  0  0  0
  6 11  1  0  0  0  0
  6 16  1  0  0  0  0
  7  8  1  0  0  0  0
  7  9  1  0  0  0  0
  7 34  1  0  0  0  0
  8 13  1  0  0  0  0
  8 18  1  0  0  0  0
  8 35  1  0  0  0  0
  9 12  1  0  0  0  0
  9 36  1  0  0  0  0
 10 14  1  0  0  0  0
 10 37  1  0  0  0  0
 10 38  1  0  0  0  0
 11 15  1  0  0  0  0
 11 39  1  0  0  0  0
 11 40  1  0  0  0  0
 12 14  1  0  0  0  0
 12 17  1  0  0  0  0
 12 41  1  0  0  0  0
 13 15  1  0  0  0  0
 13 42  1  0  0  0  0
 14 43  1  0  0  0  0
 14 44  1  0  0  0  0
 15 45  1  0  0  0  0
 15 46  1  0  0  0  0
 16 47  1  0  0  0  0
 16 48  1  0  0  0  0
 16 49  1  0  0  0  0
 17 19  1  0  0  0  0
 17 20  1  0  0  0  0
 17 50  1  0  0  0  0
 18 51  1  0  0  0  0
 18 52  1  0  0  0  0
 18 53  1  0  0  0  0
 19 56  1  0  0  0  0
 19 57  1  0  0  0  0
 19 58  1  0  0  0  0
 21 22  1  0  0  0  0
 22 23  1  0  0  0  0
 22 59  1  0  0  0  0
 22 60  1  0  0  0  0
 23 25  1  0  0  0  0
 23 26  1  0  0  0  0
 23 27  1  0  0  0  0
 24 28  1  0  0  0  0
 24 62  1  0  0  0  0
 24 63  1  0  0  0  0
 25 64  1  0  0  0  0
 25 65  1  0  0  0  0
 25 66  1  0  0  0  0
 26 67  1  0  0  0  0
 26 68  1  0  0  0  0
 26 69  1  0  0  0  0
 27 70  1  0  0  0  0
 27 71  1  0  0  0  0
 27 72  1  0  0  0  0
 28 29  2  0  0  0  0
 28 30  1  0  0  0  0
 29 31  1  0  0  0  0
 29 73  1  0  0  0  0
 30 32  2  0  0  0  0
 30 74  1  0  0  0  0
 31 33  2  0  0  0  0
 31 75  1  0  0  0  0
 32 33  1  0  0  0  0
 32 76  1  0  0  0  0
 33 77  1  0  0  0  0
M  END
> <PUBCHEM_COMPOUND_CID>
45361411

> <PUBCHEM_CONFORMER_RMSD>
1.2

> <PUBCHEM_CONFORMER_DIVERSEORDER>
2
65
123
75
60
118
124
104
29
54
116
16
76
78
28
131
110
82
100
92
89
130
59
93
70
14
44
6
128
74
129
86
67
112
27
32
33
53
117
125
88
101
58
99
15
56
96
133
108
39
122
119
35
66
1
113
132
94
55
11
77
87
71
121
21
41
46
72
51
63
103
7
24
107
83
31
69
25
5
13
52
62
37
106
38
34
115
111
61
18
127
50
22
90
79
109
98
19
3
114
45
9
57
120
36
12
81
20
64
68
49
84
17
30
102
97
43
47
85
10
40
8
73
42
80
91
105
126
95
48
23
4
26

> <PUBCHEM_MMFF94_PARTIAL_CHARGES>
26
1 -0.68
13 0.3
17 0.06
2 -0.57
20 0.57
21 0.57
22 0.06
24 0.44
28 -0.14
29 -0.15
3 -0.57
30 -0.15
31 -0.15
32 -0.15
33 -0.15
4 -0.73
5 -0.73
54 0.37
55 0.4
61 0.37
73 0.15
74 0.15
75 0.15
76 0.15
77 0.15
9 0.28

> <PUBCHEM_EFFECTIVE_ROTOR_COUNT>
10.6

> <PUBCHEM_PHARMACOPHORE_FEATURES>
11
1 1 acceptor
1 1 donor
1 19 hydrophobe
1 2 acceptor
1 3 acceptor
1 4 donor
1 5 donor
4 23 25 26 27 hydrophobe
6 28 29 30 31 32 33 rings
6 6 7 8 11 13 15 rings
6 6 7 9 10 12 14 rings

> <PUBCHEM_HEAVY_ATOM_COUNT>
33

> <PUBCHEM_ATOM_DEF_STEREO_COUNT>
6

> <PUBCHEM_ATOM_UDEF_STEREO_COUNT>
1

> <PUBCHEM_BOND_DEF_STEREO_COUNT>
0

> <PUBCHEM_BOND_UDEF_STEREO_COUNT>
0

> <PUBCHEM_ISOTOPIC_ATOM_COUNT>
0

> <PUBCHEM_COMPONENT_COUNT>
1

> <PUBCHEM_CACTVS_TAUTO_COUNT>
4

> <PUBCHEM_CONFORMER_ID>
02B4290300000002

> <PUBCHEM_MMFF94_ENERGY>
94.2445

> <PUBCHEM_FEATURE_SELFOVERLAP>
55.835

> <PUBCHEM_SHAPE_FINGERPRINT>
10319688 67 16008750242716455993
10638233 991 18341898467622432449
10673678 19 18412267237638283886
10816530 90 17917706911801622528
10906281 52 17917720080483081879
11007060 377 18335144206975185219
11135609 187 18127129895518497152
11211813 74 18410008823923609341
11456790 92 17822559518394741872
12422481 6 11675691410386597998
13150687 139 18202292420636314294
13617811 41 18341607148670928648
13782708 43 11240001152792784625
14117953 113 18408888473747581332
14251757 52 18411418410292755177
14461889 52 17095531694605985691
14849402 71 18272370902076119577
15064981 194 18196390314736867302
15183329 4 17988928885434574081
15276724 80 18340768144205405549
15361156 5 18412822504770775927
15840311 113 18409733954078397678
16728300 4 8069488979560437264
16992787 43 18343587364901683017
17686467 74 18113903780633660797
19319366 153 18410285887652649070
20157964 124 18334857217117989204
20715895 44 18336823200112383636
21033648 29 17822576131417731380
21049683 118 17822843295474144554
21521721 280 18408888425721777267
23522609 53 17845954947826830657
23559900 14 17417517129037705040
23569914 2 16882395754908032908
3044373 193 17022905649099003444
34797466 226 18202287974480044926
3552219 110 17917441917237452001
397830 11 17895202138075049747
4073 2 18334296487890039867
4098825 35 18335138649224498897
4149490 64 18186799175781612290
4340502 62 17313103038399327850
439807 62 13326582839462860644
44317340 157 18409731764104265518
4625314 4 18410578340655036399
474113 269 10953731227738383689
5109719 28 17895202133337399092
5265222 85 18201717379965066383
6081469 158 11024109837714656003
6328613 192 18202003244176404371
9831232 110 12679458694638758596

> <PUBCHEM_SHAPE_MULTIPOLES>
651.55
23.08
3.26
1.59
26.75
0.07
-0.12
14.86
1.78
-6.49
0.06
0.02
-0.05
-0.73

> <PUBCHEM_SHAPE_SELFOVERLAP>
1344.558

> <PUBCHEM_SHAPE_VOLUME>
370.9

> <PUBCHEM_COORDINATE_TYPE>
2
5
10

$$$$
