75536935
  -OEChem-12032416323D

 39 40  0     1  0  0  0  0  0999 V2000
    4.1091    0.8592   -0.8823 O   0  0  0  0  0  0  0  0  0  0  0  0
    2.6823   -2.4205   -0.4775 O   0  0  0  0  0  0  0  0  0  0  0  0
   -4.7924   -0.3118   -0.9284 O   0  0  0  0  0  0  0  0  0  0  0  0
    1.2842    0.9144    0.4379 N   0  0  2  0  0  0  0  0  0  0  0  0
    1.5052   -0.5358    0.4334 C   0  0  0  0  0  0  0  0  0  0  0  0
    2.8514   -1.0543   -0.0968 C   0  0  2  0  0  0  0  0  0  0  0  0
    2.4718    1.7051    0.7642 C   0  0  0  0  0  0  0  0  0  0  0  0
    0.1604    1.2491    1.3135 C   0  0  0  0  0  0  0  0  0  0  0  0
    3.3867   -0.2934   -1.3023 C   0  0  0  0  0  0  0  0  0  0  0  0
    3.2936    1.9582   -0.5003 C   0  0  0  0  0  0  0  0  0  0  0  0
   -1.1582    0.8342    0.7167 C   0  0  0  0  0  0  0  0  0  0  0  0
   -1.7276    1.5874   -0.3100 C   0  0  0  0  0  0  0  0  0  0  0  0
   -1.8101   -0.3042    1.1906 C   0  0  0  0  0  0  0  0  0  0  0  0
    2.7297   -3.2791    0.6508 C   0  0  0  0  0  0  0  0  0  0  0  0
   -2.9489    1.2025   -0.8626 C   0  0  0  0  0  0  0  0  0  0  0  0
   -3.0317   -0.6892    0.6380 C   0  0  0  0  0  0  0  0  0  0  0  0
   -3.6010    0.0642   -0.3885 C   0  0  0  0  0  0  0  0  0  0  0  0
   -5.4045   -1.4860   -0.3963 C   0  0  0  0  0  0  0  0  0  0  0  0
    0.7091   -1.0063   -0.1585 H   0  0  0  0  0  0  0  0  0  0  0  0
    1.3924   -0.9312    1.4520 H   0  0  0  0  0  0  0  0  0  0  0  0
    3.6039   -0.9832    0.7012 H   0  0  0  0  0  0  0  0  0  0  0  0
    3.0688    1.2356    1.5551 H   0  0  0  0  0  0  0  0  0  0  0  0
    2.1759    2.6953    1.1329 H   0  0  0  0  0  0  0  0  0  0  0  0
    0.2894    0.8334    2.3221 H   0  0  0  0  0  0  0  0  0  0  0  0
    0.0952    2.3364    1.4610 H   0  0  0  0  0  0  0  0  0  0  0  0
    4.0980   -0.9254   -1.8465 H   0  0  0  0  0  0  0  0  0  0  0  0
    2.5995   -0.0305   -2.0195 H   0  0  0  0  0  0  0  0  0  0  0  0
    2.6640    2.2681   -1.3439 H   0  0  0  0  0  0  0  0  0  0  0  0
    3.9785    2.7909   -0.3038 H   0  0  0  0  0  0  0  0  0  0  0  0
   -1.2290    2.4761   -0.6882 H   0  0  0  0  0  0  0  0  0  0  0  0
   -1.3764   -0.9000    1.9895 H   0  0  0  0  0  0  0  0  0  0  0  0
    2.6629   -4.3104    0.2923 H   0  0  0  0  0  0  0  0  0  0  0  0
    1.8859   -3.1047    1.3236 H   0  0  0  0  0  0  0  0  0  0  0  0
    3.6762   -3.1694    1.1894 H   0  0  0  0  0  0  0  0  0  0  0  0
   -3.3875    1.7931   -1.6623 H   0  0  0  0  0  0  0  0  0  0  0  0
   -3.4835   -1.5837    1.0530 H   0  0  0  0  0  0  0  0  0  0  0  0
   -6.3425   -1.6364   -0.9408 H   0  0  0  0  0  0  0  0  0  0  0  0
   -5.6648   -1.3606    0.6602 H   0  0  0  0  0  0  0  0  0  0  0  0
   -4.7882   -2.3747   -0.5696 H   0  0  0  0  0  0  0  0  0  0  0  0
  1  9  1  0  0  0  0
  1 10  1  0  0  0  0
  2  6  1  0  0  0  0
  2 14  1  0  0  0  0
  3 17  1  0  0  0  0
  3 18  1  0  0  0  0
  4  5  1  0  0  0  0
  4  7  1  0  0  0  0
  4  8  1  0  0  0  0
  5  6  1  0  0  0  0
  5 19  1  0  0  0  0
  5 20  1  0  0  0  0
  6  9  1  0  0  0  0
  6 21  1  0  0  0  0
  7 10  1  0  0  0  0
  7 22  1  0  0  0  0
  7 23  1  0  0  0  0
  8 11  1  0  0  0  0
  8 24  1  0  0  0  0
  8 25  1  0  0  0  0
  9 26  1  0  0  0  0
  9 27  1  0  0  0  0
 10 28  1  0  0  0  0
 10 29  1  0  0  0  0
 11 12  2  0  0  0  0
 11 13  1  0  0  0  0
 12 15  1  0  0  0  0
 12 30  1  0  0  0  0
 13 16  2  0  0  0  0
 13 31  1  0  0  0  0
 14 32  1  0  0  0  0
 14 33  1  0  0  0  0
 14 34  1  0  0  0  0
 15 17  2  0  0  0  0
 15 35  1  0  0  0  0
 16 17  1  0  0  0  0
 16 36  1  0  0  0  0
 18 37  1  0  0  0  0
 18 38  1  0  0  0  0
 18 39  1  0  0  0  0
M  END
> <PUBCHEM_COMPOUND_CID>
75536935

> <PUBCHEM_CONFORMER_RMSD>
0.8

> <PUBCHEM_CONFORMER_DIVERSEORDER>
1
29
26
2
15
6
24
3
14
23
7
21
31
5
17
10
20
16
13
12
4
28
19
11
8
30
18
25
22
27
9

> <PUBCHEM_MMFF94_PARTIAL_CHARGES>
22
1 -0.56
10 0.28
11 -0.14
12 -0.15
13 -0.15
14 0.28
15 -0.15
16 -0.15
17 0.08
18 0.28
2 -0.56
3 -0.36
30 0.15
31 0.15
35 0.15
36 0.15
4 -0.81
5 0.27
6 0.28
7 0.27
8 0.41
9 0.28

> <PUBCHEM_EFFECTIVE_ROTOR_COUNT>
5.4

> <PUBCHEM_PHARMACOPHORE_FEATURES>
6
1 1 acceptor
1 2 acceptor
1 3 acceptor
1 4 cation
6 11 12 13 15 16 17 rings
7 1 4 5 6 7 9 10 rings

> <PUBCHEM_HEAVY_ATOM_COUNT>
18

> <PUBCHEM_ATOM_DEF_STEREO_COUNT>
1

> <PUBCHEM_ATOM_UDEF_STEREO_COUNT>
0

> <PUBCHEM_BOND_DEF_STEREO_COUNT>
0

> <PUBCHEM_BOND_UDEF_STEREO_COUNT>
0

> <PUBCHEM_ISOTOPIC_ATOM_COUNT>
0

> <PUBCHEM_COMPONENT_COUNT>
1

> <PUBCHEM_CACTVS_TAUTO_COUNT>
1

> <PUBCHEM_CONFORMER_ID>
04809A2700000001

> <PUBCHEM_MMFF94_ENERGY>
65.2003

> <PUBCHEM_FEATURE_SELFOVERLAP>
30.447

> <PUBCHEM_SHAPE_FINGERPRINT>
10366900 7 18336273417621323984
10498660 4 17313653881087751229
11578080 2 17059479743297517088
11640471 11 13912325706685641760
11796584 16 17560803268978783951
12251169 10 9511463311964280984
12553582 1 16988837280985452997
12616999 72 18408881871274401808
12670546 177 17968093174727012637
13083527 12 18190448378065273450
13675066 3 12679464209814206869
14576447 43 18342461422144796358
15183329 4 17917991651808344909
15502722 9 18408886230924696048
15537594 2 18130789018538835207
18186145 218 16805896077931959576
200 152 18131072644745339657
20281475 54 18343021056309553809
20361792 2 16917063347878297945
20626108 58 18118671133295662194
20645477 70 18344149193504149318
20715895 44 7852760983262459263
20871999 31 18186800288425606421
21054139 6 18198614626427730558
21452121 199 18266732477351419442
23114952 82 18187365385482802676
235170 7 17822560673234672375
23557571 272 17168720750686131825
23559900 14 18261107469941560328
23596394 208 18408600361827085725
238 59 18335708238706821138
239999 70 17917714655685848180
2871803 45 18411986887837288502
3060560 45 18335422430471962740
3323516 105 18341891930718845249
33382 64 18271810194095503075
33824 294 18342453789829597362
3472631 163 15864355808382313143
465052 167 16988005032762118805
474 4 10809337841392526797
5281201 14 18186802439734632549
58051976 378 18335986458150815336
59682541 52 18197752476847777893
6433294 58 18411698803012352751
88748 71 18193559969617162587
94968 8 18060702809840998772
960060 61 18412538825832179813
9709674 26 18261394425265041731

> <PUBCHEM_SHAPE_MULTIPOLES>
347.84
9.4
2.57
1.18
7.43
1.81
0.05
2.79
-3.43
-2.71
0.22
-0.1
-0.13
-0.13

> <PUBCHEM_SHAPE_SELFOVERLAP>
710.947

> <PUBCHEM_SHAPE_VOLUME>
200.5

> <PUBCHEM_COORDINATE_TYPE>
2
5
10

$$$$
