56775500
  -OEChem-12032416213D

 51 53  0     0  0  0  0  0  0999 V2000
    0.8731   -2.0379    2.0844 O   0  0  0  0  0  0  0  0  0  0  0  0
    4.1208   -0.6093   -1.0101 O   0  0  0  0  0  0  0  0  0  0  0  0
   -5.7387    2.2637    1.0653 O   0  0  0  0  0  0  0  0  0  0  0  0
    4.8982    2.4175    0.9146 O   0  0  0  0  0  0  0  0  0  0  0  0
   -1.3483   -1.9131    0.0236 N   0  0  0  0  0  0  0  0  0  0  0  0
   -4.5484    0.8262   -0.3184 N   0  0  0  0  0  0  0  0  0  0  0  0
    2.8759   -1.1455   -1.3164 N   0  0  0  0  0  0  0  0  0  0  0  0
    0.0143   -1.4150    0.2322 C   0  0  0  0  0  0  0  0  0  0  0  0
   -2.1822   -0.8324   -0.4969 C   0  0  0  0  0  0  0  0  0  0  0  0
    0.8840   -2.5611    0.7368 C   0  0  0  0  0  0  0  0  0  0  0  0
    0.1282   -0.8760    1.6536 C   0  0  0  0  0  0  0  0  0  0  0  0
    0.5094   -0.5755   -0.9054 C   0  0  0  0  0  0  0  0  0  0  0  0
   -3.5701   -1.3704   -0.8686 C   0  0  0  0  0  0  0  0  0  0  0  0
   -2.3025    0.2878    0.5443 C   0  0  0  0  0  0  0  0  0  0  0  0
   -4.4916   -0.2398   -1.3264 C   0  0  0  0  0  0  0  0  0  0  0  0
   -3.2480    1.3847    0.0581 C   0  0  0  0  0  0  0  0  0  0  0  0
    1.9934   -0.3051   -0.7689 C   0  0  0  0  0  0  0  0  0  0  0  0
   -5.7148    1.3419    0.2456 C   0  0  0  0  0  0  0  0  0  0  0  0
    2.6168    0.7691   -0.1107 C   0  0  0  0  0  0  0  0  0  0  0  0
    3.9534    0.5306   -0.2920 C   0  0  0  0  0  0  0  0  0  0  0  0
    5.1758    1.2321    0.1182 C   0  0  0  0  0  0  0  0  0  0  0  0
   -7.0128    0.7112   -0.1915 C   0  0  0  0  0  0  0  0  0  0  0  0
    6.0107    1.7539   -1.0875 C   0  0  0  0  0  0  0  0  0  0  0  0
    6.1032    0.3622    1.0161 C   0  0  0  0  0  0  0  0  0  0  0  0
   -1.7978   -0.4310   -1.4408 H   0  0  0  0  0  0  0  0  0  0  0  0
   -1.7858   -2.3353    0.8423 H   0  0  0  0  0  0  0  0  0  0  0  0
    1.9107   -2.6636    0.3836 H   0  0  0  0  0  0  0  0  0  0  0  0
    0.4371   -3.5625    0.7049 H   0  0  0  0  0  0  0  0  0  0  0  0
   -0.7672   -0.7945    2.2758 H   0  0  0  0  0  0  0  0  0  0  0  0
    0.7193    0.0323    1.7999 H   0  0  0  0  0  0  0  0  0  0  0  0
    0.0340    0.4102   -0.9655 H   0  0  0  0  0  0  0  0  0  0  0  0
    0.3513   -1.0767   -1.8704 H   0  0  0  0  0  0  0  0  0  0  0  0
   -4.0235   -1.8680   -0.0008 H   0  0  0  0  0  0  0  0  0  0  0  0
   -3.4883   -2.1208   -1.6643 H   0  0  0  0  0  0  0  0  0  0  0  0
   -1.3580    0.7948    0.7504 H   0  0  0  0  0  0  0  0  0  0  0  0
   -2.7017   -0.1103    1.4863 H   0  0  0  0  0  0  0  0  0  0  0  0
   -4.1135    0.2105   -2.2520 H   0  0  0  0  0  0  0  0  0  0  0  0
   -5.4796   -0.6470   -1.5478 H   0  0  0  0  0  0  0  0  0  0  0  0
   -3.3623    2.1459    0.8366 H   0  0  0  0  0  0  0  0  0  0  0  0
   -2.8367    1.8824   -0.8284 H   0  0  0  0  0  0  0  0  0  0  0  0
    2.1623    1.5965    0.4140 H   0  0  0  0  0  0  0  0  0  0  0  0
   -7.0235   -0.3507    0.0684 H   0  0  0  0  0  0  0  0  0  0  0  0
   -7.1554    0.8455   -1.2670 H   0  0  0  0  0  0  0  0  0  0  0  0
   -7.8458    1.1969    0.3261 H   0  0  0  0  0  0  0  0  0  0  0  0
    6.8965    2.3043   -0.7505 H   0  0  0  0  0  0  0  0  0  0  0  0
    5.4156    2.4496   -1.6908 H   0  0  0  0  0  0  0  0  0  0  0  0
    6.3350    0.9318   -1.7344 H   0  0  0  0  0  0  0  0  0  0  0  0
    6.9862    0.9247    1.3401 H   0  0  0  0  0  0  0  0  0  0  0  0
    6.4367   -0.5397    0.4917 H   0  0  0  0  0  0  0  0  0  0  0  0
    5.5732    0.0531    1.9249 H   0  0  0  0  0  0  0  0  0  0  0  0
    5.7462    2.8311    1.1503 H   0  0  0  0  0  0  0  0  0  0  0  0
  1 10  1  0  0  0  0
  1 11  1  0  0  0  0
  2  7  1  0  0  0  0
  2 20  1  0  0  0  0
  3 18  2  0  0  0  0
  4 21  1  0  0  0  0
  4 51  1  0  0  0  0
  5  8  1  0  0  0  0
  5  9  1  0  0  0  0
  5 26  1  0  0  0  0
  6 15  1  0  0  0  0
  6 16  1  0  0  0  0
  6 18  1  0  0  0  0
  7 17  2  0  0  0  0
  8 10  1  0  0  0  0
  8 11  1  0  0  0  0
  8 12  1  0  0  0  0
  9 13  1  0  0  0  0
  9 14  1  0  0  0  0
  9 25  1  0  0  0  0
 10 27  1  0  0  0  0
 10 28  1  0  0  0  0
 11 29  1  0  0  0  0
 11 30  1  0  0  0  0
 12 17  1  0  0  0  0
 12 31  1  0  0  0  0
 12 32  1  0  0  0  0
 13 15  1  0  0  0  0
 13 33  1  0  0  0  0
 13 34  1  0  0  0  0
 14 16  1  0  0  0  0
 14 35  1  0  0  0  0
 14 36  1  0  0  0  0
 15 37  1  0  0  0  0
 15 38  1  0  0  0  0
 16 39  1  0  0  0  0
 16 40  1  0  0  0  0
 17 19  1  0  0  0  0
 18 22  1  0  0  0  0
 19 20  2  0  0  0  0
 19 41  1  0  0  0  0
 20 21  1  0  0  0  0
 21 23  1  0  0  0  0
 21 24  1  0  0  0  0
 22 42  1  0  0  0  0
 22 43  1  0  0  0  0
 22 44  1  0  0  0  0
 23 45  1  0  0  0  0
 23 46  1  0  0  0  0
 23 47  1  0  0  0  0
 24 48  1  0  0  0  0
 24 49  1  0  0  0  0
 24 50  1  0  0  0  0
M  END
> <PUBCHEM_COMPOUND_CID>
56775500

> <PUBCHEM_CONFORMER_RMSD>
1

> <PUBCHEM_CONFORMER_DIVERSEORDER>
1
35
14
65
107
42
89
78
102
40
109
47
69
116
87
7
95
55
49
34
53
3
74
93
68
106
113
43
54
37
13
66
75
8
71
48
58
27
82
103
57
91
108
36
64
63
32
86
50
92
9
44
62
4
85
24
22
25
114
6
2
17
11
33
77
23
56
79
73
10
15
39
28
31
26
60
88
70
29
46
83
98
16
5
80
84
115
59
20
94
52
105
19
99
100
21
90
61
97
110
67
30
96
72
112
101
81
38
104
111
18
76
45
41
51
12

> <PUBCHEM_MMFF94_PARTIAL_CHARGES>
23
1 -0.52
10 0.26
11 0.26
12 0.18
15 0.3
16 0.3
17 0.11
18 0.57
19 -0.15
2 -0.02
20 -0.04
21 0.46
22 0.06
26 0.36
3 -0.57
4 -0.68
41 0.15
5 -0.84
51 0.4
6 -0.66
7 -0.41
8 0.21
9 0.27

> <PUBCHEM_EFFECTIVE_ROTOR_COUNT>
8

> <PUBCHEM_PHARMACOPHORE_FEATURES>
11
1 1 acceptor
1 3 acceptor
1 4 acceptor
1 4 donor
1 5 cation
1 5 donor
1 7 acceptor
3 21 23 24 hydrophobe
4 1 8 10 11 rings
5 2 7 17 19 20 rings
6 6 9 13 14 15 16 rings

> <PUBCHEM_HEAVY_ATOM_COUNT>
24

> <PUBCHEM_ATOM_DEF_STEREO_COUNT>
0

> <PUBCHEM_ATOM_UDEF_STEREO_COUNT>
0

> <PUBCHEM_BOND_DEF_STEREO_COUNT>
0

> <PUBCHEM_BOND_UDEF_STEREO_COUNT>
0

> <PUBCHEM_ISOTOPIC_ATOM_COUNT>
0

> <PUBCHEM_COMPONENT_COUNT>
1

> <PUBCHEM_CACTVS_TAUTO_COUNT>
1

> <PUBCHEM_CONFORMER_ID>
0362534C00000001

> <PUBCHEM_MMFF94_ENERGY>
56.2272

> <PUBCHEM_FEATURE_SELFOVERLAP>
55.821

> <PUBCHEM_SHAPE_FINGERPRINT>
10 15 16950288420521875949
10319926 262 13912598308518297103
10692045 39 17895463744786373914
10906281 52 18188504578793487724
11646440 116 18336274491611613641
117890 112 18412824720462223548
11961588 58 18273207595758695503
12236239 1 18340205198810175903
12596602 18 16588308332128817808
12623949 98 11675149333726699584
12633257 1 15213310741481513313
12895836 83 17846776308935082639
12895837 130 18200313358707354597
13631057 29 18115867581078391283
13685833 64 9079114466545197157
13690498 29 16056303060182514725
13862211 1 10807942556836838844
13911987 19 15626227969769541324
13914758 101 18130787837702130466
13955234 65 18044377123922412515
14178000 29 10231757799079147466
14216079 64 8790888471682386573
14251757 52 18270401573803452345
14251764 30 7853308552763692952
14461889 52 17676780825023725755
14739800 52 18339629066911215553
15183329 4 17632582638576077761
15188451 53 12107791822165288857
17913733 40 17676491614336258659
1813 80 11455893568063101234
18222031 100 11455888044545208838
18335252 98 18201442506590648343
19784866 34 18335138683114687043
200 152 14836137575983321374
20388580 30 11671776083349469410
20715895 44 18201719557228434144
20871999 31 14261361240648765203
21033648 29 18337952423944177016
21304304 249 11314313841032358137
21403212 168 17676475134541280394
21424621 283 18409450297184434137
21637258 2 9655579582477163204
22224240 67 17240484723743391955
22950370 63 9511471039079782430
23198884 109 16559038173214284705
23402539 116 18339354270814300230
23559900 14 17489863830240987122
25147074 1 18264188297576469627
2767999 5 18407755945481990356
2838139 119 18272363191976677212
2916195 48 18411981398790034393
3004659 81 16701464446726072558
3009799 131 15626220226133332746
312425 54 12107778597465457277
314194 84 10952050091122412300
3472631 163 18412825797860698501
34797466 226 17060063665676152365
351380 3 10447930563802039765
3633792 109 17060349474981538614
4340502 62 17386014936250682211
465052 167 13551476947259121234
474 4 18113905969938016101
5104073 3 18186522081687166371
5385378 56 18041558044827784194
543368 44 18342454838376903285
57724786 102 17677056862450767052
59682541 35 18336559287478239665
59682541 52 17560815290571004020
59755656 520 18187079576683948534
7808743 9 18271802407097768457
7970288 3 10879993549183485484

> <PUBCHEM_SHAPE_MULTIPOLES>
455.49
15.94
2.29
1.35
3.67
0.24
0.26
-12.65
-0.56
-0.19
0.68
-0.48
0.35
-0.84

> <PUBCHEM_SHAPE_SELFOVERLAP>
948.052

> <PUBCHEM_SHAPE_VOLUME>
260.9

> <PUBCHEM_COORDINATE_TYPE>
2
5
10

$$$$
