75536646
  -OEChem-12032416333D

 43 45  0     1  0  0  0  0  0999 V2000
    7.9866   -1.7290   -0.5352 F   0  0  0  0  0  0  0  0  0  0  0  0
   -0.2572   -0.8348    0.1744 O   0  0  0  0  0  0  0  0  0  0  0  0
   -1.5907    2.4940   -0.0399 O   0  0  0  0  0  0  0  0  0  0  0  0
    3.0346    2.1645   -0.2431 O   0  0  0  0  0  0  0  0  0  0  0  0
   -3.7415    0.2063    0.0889 N   0  0  0  0  0  0  0  0  0  0  0  0
    2.2029    0.3983    1.0106 N   0  0  0  0  0  0  0  0  0  0  0  0
   -6.4853   -1.3316    0.5073 N   0  0  0  0  0  0  0  0  0  0  0  0
   -6.9874    0.2500   -0.9686 N   0  0  0  0  0  0  0  0  0  0  0  0
   -2.3446    0.1882   -0.3136 C   0  0  1  0  0  0  0  0  0  0  0  0
   -1.4779    1.1721    0.4503 C   0  0  1  0  0  0  0  0  0  0  0  0
   -0.0911    0.5925    0.2060 C   0  0  1  0  0  0  0  0  0  0  0  0
   -1.6548   -1.1288    0.0026 C   0  0  0  0  0  0  0  0  0  0  0  0
    0.9144    0.9686    1.2797 C   0  0  0  0  0  0  0  0  0  0  0  0
   -4.5768   -0.4909   -0.8818 C   0  0  0  0  0  0  0  0  0  0  0  0
   -6.0257   -0.4966   -0.4728 C   0  0  0  0  0  0  0  0  0  0  0  0
    3.1744    1.0525    0.2591 C   0  0  0  0  0  0  0  0  0  0  0  0
    4.4474    0.3160    0.0487 C   0  0  0  0  0  0  0  0  0  0  0  0
   -7.8254   -1.1028    0.6454 C   0  0  0  0  0  0  0  0  0  0  0  0
   -8.1119   -0.1231   -0.2758 C   0  0  0  0  0  0  0  0  0  0  0  0
    5.2245    0.5753   -1.0804 C   0  0  0  0  0  0  0  0  0  0  0  0
    4.8661   -0.6340    0.9802 C   0  0  0  0  0  0  0  0  0  0  0  0
    6.4198   -0.1157   -1.2781 C   0  0  0  0  0  0  0  0  0  0  0  0
    6.0615   -1.3250    0.7826 C   0  0  0  0  0  0  0  0  0  0  0  0
    6.8383   -1.0659   -0.3465 C   0  0  0  0  0  0  0  0  0  0  0  0
   -2.2556    0.4175   -1.3850 H   0  0  0  0  0  0  0  0  0  0  0  0
   -1.7253    1.1690    1.5192 H   0  0  0  0  0  0  0  0  0  0  0  0
    0.2900    0.8987   -0.7771 H   0  0  0  0  0  0  0  0  0  0  0  0
   -2.0094   -1.5702    0.9412 H   0  0  0  0  0  0  0  0  0  0  0  0
   -1.7735   -1.8700   -0.7935 H   0  0  0  0  0  0  0  0  0  0  0  0
    0.6026    0.5758    2.2537 H   0  0  0  0  0  0  0  0  0  0  0  0
    1.0075    2.0571    1.3577 H   0  0  0  0  0  0  0  0  0  0  0  0
   -4.0558    1.1745    0.1600 H   0  0  0  0  0  0  0  0  0  0  0  0
   -4.2511   -1.5315   -1.0007 H   0  0  0  0  0  0  0  0  0  0  0  0
   -4.5029   -0.0096   -1.8650 H   0  0  0  0  0  0  0  0  0  0  0  0
   -1.3712    2.4888   -0.9869 H   0  0  0  0  0  0  0  0  0  0  0  0
    2.3575   -0.5494    1.3374 H   0  0  0  0  0  0  0  0  0  0  0  0
   -5.9358   -1.9969    1.0350 H   0  0  0  0  0  0  0  0  0  0  0  0
   -8.4300   -1.6399    1.3618 H   0  0  0  0  0  0  0  0  0  0  0  0
   -9.0707    0.3327   -0.4753 H   0  0  0  0  0  0  0  0  0  0  0  0
    4.9134    1.3085   -1.8199 H   0  0  0  0  0  0  0  0  0  0  0  0
    4.3073   -0.8437    1.8874 H   0  0  0  0  0  0  0  0  0  0  0  0
    7.0247    0.0850   -2.1574 H   0  0  0  0  0  0  0  0  0  0  0  0
    6.3917   -2.0599    1.5109 H   0  0  0  0  0  0  0  0  0  0  0  0
  1 24  1  0  0  0  0
  2 11  1  0  0  0  0
  2 12  1  0  0  0  0
  3 10  1  0  0  0  0
  3 35  1  0  0  0  0
  4 16  2  0  0  0  0
  5  9  1  0  0  0  0
  5 14  1  0  0  0  0
  5 32  1  0  0  0  0
  6 13  1  0  0  0  0
  6 16  1  0  0  0  0
  6 36  1  0  0  0  0
  7 15  1  0  0  0  0
  7 18  1  0  0  0  0
  7 37  1  0  0  0  0
  8 15  2  0  0  0  0
  8 19  1  0  0  0  0
  9 10  1  0  0  0  0
  9 12  1  0  0  0  0
  9 25  1  0  0  0  0
 10 11  1  0  0  0  0
 10 26  1  0  0  0  0
 11 13  1  0  0  0  0
 11 27  1  0  0  0  0
 12 28  1  0  0  0  0
 12 29  1  0  0  0  0
 13 30  1  0  0  0  0
 13 31  1  0  0  0  0
 14 15  1  0  0  0  0
 14 33  1  0  0  0  0
 14 34  1  0  0  0  0
 16 17  1  0  0  0  0
 17 20  2  0  0  0  0
 17 21  1  0  0  0  0
 18 19  2  0  0  0  0
 18 38  1  0  0  0  0
 19 39  1  0  0  0  0
 20 22  1  0  0  0  0
 20 40  1  0  0  0  0
 21 23  2  0  0  0  0
 21 41  1  0  0  0  0
 22 24  2  0  0  0  0
 22 42  1  0  0  0  0
 23 24  1  0  0  0  0
 23 43  1  0  0  0  0
M  END
> <PUBCHEM_COMPOUND_CID>
75536646

> <PUBCHEM_CONFORMER_RMSD>
0.8

> <PUBCHEM_CONFORMER_DIVERSEORDER>
1
3
167
165
164
148
75
33
28
112
13
121
96
110
78
116
174
15
103
178
69
98
74
70
67
80
92
46
99
156
166
138
90
173
21
133
184
62
10
130
139
129
149
142
111
58
107
83
155
122
45
114
7
180
108
5
157
60
120
81
101
88
176
73
160
150
182
123
93
38
39
115
124
76
91
56
34
191
190
49
189
86
36
171
131
85
57
17
126
20
66
51
71
127
117
77
179
158
162
125
59
63
42
37
97
14
47
8
55
109
68
145
104
187
170
172
105
135
41
153
177
82
169
29
23
100
48
119
168
181
44
144
4
128
65
24
151
188
32
40
113
175
2
22
163
53
12
161
27
132
186
6
143
185
136
30
95
159
61
54
35
16
11
106
52
141
9
72
154
79
43
118
134
19
50
84
18
26
140
25
147
146
102
152
64
137
87
94
89
183
31

> <PUBCHEM_MMFF94_PARTIAL_CHARGES>
34
1 -0.19
10 0.28
11 0.28
12 0.28
13 0.3
14 0.45
15 0.01
16 0.54
17 0.09
18 -0.3
19 0.08
2 -0.56
20 -0.15
21 -0.15
22 -0.15
23 -0.15
24 0.19
3 -0.68
32 0.36
35 0.4
36 0.37
37 0.27
38 0.15
39 0.15
4 -0.57
40 0.15
41 0.15
42 0.15
43 0.15
5 -0.9
6 -0.73
7 0.03
8 -0.57
9 0.27

> <PUBCHEM_EFFECTIVE_ROTOR_COUNT>
8

> <PUBCHEM_PHARMACOPHORE_FEATURES>
12
1 2 acceptor
1 3 acceptor
1 3 donor
1 4 acceptor
1 5 cation
1 5 donor
1 6 donor
1 7 donor
3 7 8 15 cation
5 2 9 10 11 12 rings
5 7 8 15 18 19 rings
6 17 20 21 22 23 24 rings

> <PUBCHEM_HEAVY_ATOM_COUNT>
24

> <PUBCHEM_ATOM_DEF_STEREO_COUNT>
3

> <PUBCHEM_ATOM_UDEF_STEREO_COUNT>
0

> <PUBCHEM_BOND_DEF_STEREO_COUNT>
0

> <PUBCHEM_BOND_UDEF_STEREO_COUNT>
0

> <PUBCHEM_ISOTOPIC_ATOM_COUNT>
0

> <PUBCHEM_COMPONENT_COUNT>
1

> <PUBCHEM_CACTVS_TAUTO_COUNT>
2

> <PUBCHEM_CONFORMER_ID>
0480990600000001

> <PUBCHEM_MMFF94_ENERGY>
42.3938

> <PUBCHEM_FEATURE_SELFOVERLAP>
60.899

> <PUBCHEM_SHAPE_FINGERPRINT>
10 15 11096164145337399228
10299344 5 18260830393290968131
106641 1 10375864191425653381
11135609 127 16516259556496882932
11315181 36 12107502629754742271
11524674 6 17203889691269277847
11638347 137 13110970820662614356
12166972 35 17967253117552482413
125118 31 10591773090369521435
12592606 108 18202560713783724495
13668630 136 18409448072755572942
13673619 4 18131911554969450273
13685833 64 17989486325224035880
13885169 127 17846781767728129489
14216079 64 17988926652109362366
14251752 14 18411978057806690045
14251764 18 17489872656462188280
14251764 46 17821729438539430782
14294032 229 18193842531421559425
14347424 109 16343697764088468592
14428016 86 11746935374462445928
14856354 85 17749110020146141175
14933364 13 17676485060405834597
15131766 46 13828127374405890434
15183329 4 18334295348847460600
15188451 53 17203611467561216826
15849732 13 17095525110532137319
20157964 124 8286209357251499456
2026 5 17843971347853177438
20554085 129 11242249696990020492
21033648 29 13190633801539707428
21150785 3 16588024610482842775
21267235 1 18410857659235969425
21344244 246 18114742604410332282
21781051 124 18335427906049239931
21792961 116 18409443653909400269
220451 1 16443335491060758897
221357 26 17385721392326484924
22224240 67 8502654805116026425
22956985 138 17556031186846829782
23035841 295 18342455963536820519
23522609 53 18126879115993062760
23559900 14 18268422606621736152
246663 6 18341896294479561979
24771293 8 11025793180999929023
28498 318 18201999915402696207
3004659 81 18408601470509072080
328311 84 18410013260592690283
34797466 226 16081088181706165950
4107672 100 17894905197348439157
444769 64 17989204867828686543
445580 37 16805595937845149589
5758199 1 12612747996193538829
59682541 35 10663811983998075303
59682541 52 17240486880255006186
59755656 215 18412261722963812975
6438161 24 18333724703172709034

> <PUBCHEM_SHAPE_MULTIPOLES>
449.1
25.05
1.61
1.04
16.08
0.48
0.01
-11.92
4.42
-1.03
-0.11
-0.71
-0.01
0.18

> <PUBCHEM_SHAPE_SELFOVERLAP>
954.47

> <PUBCHEM_SHAPE_VOLUME>
252.4

> <PUBCHEM_COORDINATE_TYPE>
2
5
10

$$$$
