45360433
  -OEChem-12032416353D

 82 86  0     1  0  0  0  0  0999 V2000
   -3.7044    2.0578   -1.9940 O   0  0  0  0  0  0  0  0  0  0  0  0
   -4.6502   -3.0652    0.8087 O   0  0  0  0  0  0  0  0  0  0  0  0
   -7.6779    0.6454    0.8321 O   0  0  0  0  0  0  0  0  0  0  0  0
   -7.0980   -1.9766    1.5107 O   0  0  0  0  0  0  0  0  0  0  0  0
    0.6226    3.4640   -1.5210 N   0  0  2  0  0  0  0  0  0  0  0  0
   -1.9778    0.7800   -1.1156 N   0  0  0  0  0  0  0  0  0  0  0  0
    2.7859    0.2165   -0.5677 N   0  0  0  0  0  0  0  0  0  0  0  0
    4.5831   -1.0830    0.3750 N   0  0  0  0  0  0  0  0  0  0  0  0
    2.0765   -4.3522   -2.4303 N   0  0  0  0  0  0  0  0  0  0  0  0
    1.3537    2.9183    0.9184 C   0  0  2  0  0  0  0  0  0  0  0  0
    2.5011    2.5956   -0.0784 C   0  0  2  0  0  0  0  0  0  0  0  0
   -0.4143    2.6337   -0.8533 C   0  0  2  0  0  0  0  0  0  0  0  0
    0.0907    2.1284    0.5153 C   0  0  0  0  0  0  0  0  0  0  0  0
    1.0249    4.4171    0.7484 C   0  0  0  0  0  0  0  0  0  0  0  0
    1.9252    2.7528   -1.5147 C   0  0  0  0  0  0  0  0  0  0  0  0
    0.7747    4.7152   -0.7403 C   0  0  0  0  0  0  0  0  0  0  0  0
   -0.9021    1.4862   -1.7402 C   0  0  0  0  0  0  0  0  0  0  0  0
    3.2609    1.2888    0.0992 C   0  0  0  0  0  0  0  0  0  0  0  0
    4.3758    1.2542    0.9117 C   0  0  0  0  0  0  0  0  0  0  0  0
    5.0030    0.0291    1.0131 C   0  0  0  0  0  0  0  0  0  0  0  0
    3.4850   -0.9202   -0.3874 C   0  0  0  0  0  0  0  0  0  0  0  0
    6.2176   -0.1054    1.8689 C   0  0  0  0  0  0  0  0  0  0  0  0
   -3.3162    1.1263   -1.2939 C   0  0  0  0  0  0  0  0  0  0  0  0
    7.4862   -0.5206    1.0675 C   0  0  0  0  0  0  0  0  0  0  0  0
    6.0255   -1.1044    3.0476 C   0  0  0  0  0  0  0  0  0  0  0  0
    3.0057   -2.0868   -1.0818 C   0  0  0  0  0  0  0  0  0  0  0  0
   -4.3128    0.3097   -0.5545 C   0  0  0  0  0  0  0  0  0  0  0  0
    7.8614    0.4891   -0.0111 C   0  0  0  0  0  0  0  0  0  0  0  0
    4.9056   -0.6924    3.9960 C   0  0  0  0  0  0  0  0  0  0  0  0
    1.6497   -2.2300   -1.3536 C   0  0  0  0  0  0  0  0  0  0  0  0
    3.8978   -3.0749   -1.4834 C   0  0  0  0  0  0  0  0  0  0  0  0
   -5.5440    0.8617   -0.2014 C   0  0  0  0  0  0  0  0  0  0  0  0
   -4.0169   -1.0102   -0.2136 C   0  0  0  0  0  0  0  0  0  0  0  0
   -4.9521   -1.7779    0.4803 C   0  0  0  0  0  0  0  0  0  0  0  0
   -6.4795    0.0939    0.4924 C   0  0  0  0  0  0  0  0  0  0  0  0
    1.2396   -3.3709   -2.0244 C   0  0  0  0  0  0  0  0  0  0  0  0
    3.3873   -4.1780   -2.1485 C   0  0  0  0  0  0  0  0  0  0  0  0
   -6.1834   -1.2258    0.8333 C   0  0  0  0  0  0  0  0  0  0  0  0
   -3.3702   -3.5523    0.4103 C   0  0  0  0  0  0  0  0  0  0  0  0
   -7.9005    2.0002    0.4455 C   0  0  0  0  0  0  0  0  0  0  0  0
   -7.0395   -1.9373    2.9348 C   0  0  0  0  0  0  0  0  0  0  0  0
    1.6416    2.6942    1.9508 H   0  0  0  0  0  0  0  0  0  0  0  0
    3.2550    3.3904    0.0357 H   0  0  0  0  0  0  0  0  0  0  0  0
   -1.2889    3.2767   -0.6738 H   0  0  0  0  0  0  0  0  0  0  0  0
    0.3205    1.0569    0.4988 H   0  0  0  0  0  0  0  0  0  0  0  0
   -0.6921    2.2760    1.2697 H   0  0  0  0  0  0  0  0  0  0  0  0
    1.8519    5.0346    1.1179 H   0  0  0  0  0  0  0  0  0  0  0  0
    0.1381    4.6736    1.3406 H   0  0  0  0  0  0  0  0  0  0  0  0
    2.6415    3.3280   -2.1177 H   0  0  0  0  0  0  0  0  0  0  0  0
    1.8226    1.8080   -2.0567 H   0  0  0  0  0  0  0  0  0  0  0  0
   -0.1224    5.3369   -0.8500 H   0  0  0  0  0  0  0  0  0  0  0  0
    1.5979    5.3130   -1.1521 H   0  0  0  0  0  0  0  0  0  0  0  0
   -0.1133    0.7525   -1.9323 H   0  0  0  0  0  0  0  0  0  0  0  0
   -1.2410    1.8728   -2.7084 H   0  0  0  0  0  0  0  0  0  0  0  0
    4.7307    2.1329    1.4361 H   0  0  0  0  0  0  0  0  0  0  0  0
   -1.7199    0.0444   -0.4669 H   0  0  0  0  0  0  0  0  0  0  0  0
    6.4447    0.8696    2.3239 H   0  0  0  0  0  0  0  0  0  0  0  0
    7.3384   -1.5030    0.6024 H   0  0  0  0  0  0  0  0  0  0  0  0
    8.3337   -0.6185    1.7571 H   0  0  0  0  0  0  0  0  0  0  0  0
    6.9574   -1.1686    3.6227 H   0  0  0  0  0  0  0  0  0  0  0  0
    5.8176   -2.1109    2.6639 H   0  0  0  0  0  0  0  0  0  0  0  0
    7.0961    0.5490   -0.7908 H   0  0  0  0  0  0  0  0  0  0  0  0
    8.0003    1.4869    0.4167 H   0  0  0  0  0  0  0  0  0  0  0  0
    8.8000    0.1929   -0.4904 H   0  0  0  0  0  0  0  0  0  0  0  0
    5.0731    0.3167    4.3859 H   0  0  0  0  0  0  0  0  0  0  0  0
    3.9296   -0.7161    3.5020 H   0  0  0  0  0  0  0  0  0  0  0  0
    4.8633   -1.3807    4.8463 H   0  0  0  0  0  0  0  0  0  0  0  0
    0.9103   -1.4948   -1.0529 H   0  0  0  0  0  0  0  0  0  0  0  0
    4.9662   -3.0084   -1.3046 H   0  0  0  0  0  0  0  0  0  0  0  0
   -5.7218    1.8937   -0.4838 H   0  0  0  0  0  0  0  0  0  0  0  0
   -3.0708   -1.4237   -0.5389 H   0  0  0  0  0  0  0  0  0  0  0  0
    0.1922   -3.5317   -2.2577 H   0  0  0  0  0  0  0  0  0  0  0  0
    4.0414   -4.9758   -2.4848 H   0  0  0  0  0  0  0  0  0  0  0  0
   -3.2966   -4.5865    0.7628 H   0  0  0  0  0  0  0  0  0  0  0  0
   -2.5571   -2.9969    0.8906 H   0  0  0  0  0  0  0  0  0  0  0  0
   -3.2708   -3.5831   -0.6802 H   0  0  0  0  0  0  0  0  0  0  0  0
   -8.9020    2.2734    0.7941 H   0  0  0  0  0  0  0  0  0  0  0  0
   -7.9024    2.1149   -0.6439 H   0  0  0  0  0  0  0  0  0  0  0  0
   -7.1977    2.6814    0.9373 H   0  0  0  0  0  0  0  0  0  0  0  0
   -7.8285   -2.5842    3.3280 H   0  0  0  0  0  0  0  0  0  0  0  0
   -7.2082   -0.9191    3.2996 H   0  0  0  0  0  0  0  0  0  0  0  0
   -6.0733   -2.3082    3.2913 H   0  0  0  0  0  0  0  0  0  0  0  0
  1 23  2  0  0  0  0
  2 34  1  0  0  0  0
  2 39  1  0  0  0  0
  3 35  1  0  0  0  0
  3 40  1  0  0  0  0
  4 38  1  0  0  0  0
  4 41  1  0  0  0  0
  5 12  1  0  0  0  0
  5 15  1  0  0  0  0
  5 16  1  0  0  0  0
  6 17  1  0  0  0  0
  6 23  1  0  0  0  0
  6 56  1  0  0  0  0
  7 18  1  0  0  0  0
  7 21  2  0  0  0  0
  8 20  2  0  0  0  0
  8 21  1  0  0  0  0
  9 36  2  0  0  0  0
  9 37  1  0  0  0  0
 10 11  1  0  0  0  0
 10 13  1  0  0  0  0
 10 14  1  0  0  0  0
 10 42  1  0  0  0  0
 11 15  1  0  0  0  0
 11 18  1  0  0  0  0
 11 43  1  0  0  0  0
 12 13  1  0  0  0  0
 12 17  1  0  0  0  0
 12 44  1  0  0  0  0
 13 45  1  0  0  0  0
 13 46  1  0  0  0  0
 14 16  1  0  0  0  0
 14 47  1  0  0  0  0
 14 48  1  0  0  0  0
 15 49  1  0  0  0  0
 15 50  1  0  0  0  0
 16 51  1  0  0  0  0
 16 52  1  0  0  0  0
 17 53  1  0  0  0  0
 17 54  1  0  0  0  0
 18 19  2  0  0  0  0
 19 20  1  0  0  0  0
 19 55  1  0  0  0  0
 20 22  1  0  0  0  0
 21 26  1  0  0  0  0
 22 24  1  0  0  0  0
 22 25  1  0  0  0  0
 22 57  1  0  0  0  0
 23 27  1  0  0  0  0
 24 28  1  0  0  0  0
 24 58  1  0  0  0  0
 24 59  1  0  0  0  0
 25 29  1  0  0  0  0
 25 60  1  0  0  0  0
 25 61  1  0  0  0  0
 26 30  2  0  0  0  0
 26 31  1  0  0  0  0
 27 32  2  0  0  0  0
 27 33  1  0  0  0  0
 28 62  1  0  0  0  0
 28 63  1  0  0  0  0
 28 64  1  0  0  0  0
 29 65  1  0  0  0  0
 29 66  1  0  0  0  0
 29 67  1  0  0  0  0
 30 36  1  0  0  0  0
 30 68  1  0  0  0  0
 31 37  2  0  0  0  0
 31 69  1  0  0  0  0
 32 35  1  0  0  0  0
 32 70  1  0  0  0  0
 33 34  2  0  0  0  0
 33 71  1  0  0  0  0
 34 38  1  0  0  0  0
 35 38  2  0  0  0  0
 36 72  1  0  0  0  0
 37 73  1  0  0  0  0
 39 74  1  0  0  0  0
 39 75  1  0  0  0  0
 39 76  1  0  0  0  0
 40 77  1  0  0  0  0
 40 78  1  0  0  0  0
 40 79  1  0  0  0  0
 41 80  1  0  0  0  0
 41 81  1  0  0  0  0
 41 82  1  0  0  0  0
M  END
> <PUBCHEM_COMPOUND_CID>
45360433

> <PUBCHEM_CONFORMER_RMSD>
1.2

> <PUBCHEM_CONFORMER_DIVERSEORDER>
3
13
20
49
8
14
23
57
58
56
12
48
37
10
25
51
52
38
39
30
19
36
40
45
24
44
34
16
55
42
15
35
46
32
27
53
9
5
18
43
29
28
11
17
4
33
50
6
47
21
41
7
2
31
22
54
1
26

> <PUBCHEM_MMFF94_PARTIAL_CHARGES>
41
1 -0.57
11 0.14
12 0.27
15 0.27
16 0.27
17 0.3
18 0.17
19 -0.15
2 -0.36
20 0.17
21 0.62
22 0.14
23 0.54
27 0.09
3 -0.36
30 -0.15
31 -0.15
32 -0.15
33 -0.15
34 0.08
35 0.08
36 0.16
37 0.16
38 0.08
39 0.28
4 -0.36
40 0.28
41 0.28
5 -0.81
55 0.15
56 0.37
6 -0.73
68 0.15
69 0.15
7 -0.62
70 0.15
71 0.15
72 0.15
73 0.15
8 -0.62
9 -0.62

> <PUBCHEM_EFFECTIVE_ROTOR_COUNT>
13.2

> <PUBCHEM_PHARMACOPHORE_FEATURES>
15
1 1 acceptor
1 2 acceptor
1 28 hydrophobe
1 29 hydrophobe
1 3 acceptor
1 4 acceptor
1 5 cation
1 6 donor
1 8 acceptor
1 9 acceptor
3 7 8 21 cation
6 27 32 33 34 35 38 rings
6 7 8 18 19 20 21 rings
6 9 26 30 31 36 37 rings
8 5 10 11 12 13 14 15 16 rings

> <PUBCHEM_HEAVY_ATOM_COUNT>
41

> <PUBCHEM_ATOM_DEF_STEREO_COUNT>
3

> <PUBCHEM_ATOM_UDEF_STEREO_COUNT>
0

> <PUBCHEM_BOND_DEF_STEREO_COUNT>
0

> <PUBCHEM_BOND_UDEF_STEREO_COUNT>
0

> <PUBCHEM_ISOTOPIC_ATOM_COUNT>
0

> <PUBCHEM_COMPONENT_COUNT>
1

> <PUBCHEM_CACTVS_TAUTO_COUNT>
6

> <PUBCHEM_CONFORMER_ID>
02B4253100000003

> <PUBCHEM_MMFF94_ENERGY>
140.0468

> <PUBCHEM_FEATURE_SELFOVERLAP>
76.133

> <PUBCHEM_SHAPE_FINGERPRINT>
10190108 129 18130506341324481988
10258939 38 18114169801706864328
10864689 126 18118408341774926479
11093857 5 18048594811802776748
117089 54 17169561911794826827
11828532 37 17459478934515388283
12128747 34 17774438261970336153
12422481 6 18340198704055070962
13383668 262 15652718654274952675
13560911 23 18263354953271760043
13690498 29 17168412805863620453
13751561 76 18338798910132212946
13782708 43 17676200290994438489
150020 26 18341894121315859245
15927050 60 17764302148222050716
1979834 28 18272089405038594038
20501277 246 18344145886516800058
21033648 29 17702647995698276458
21796203 349 18339923822328075672
2260408 40 17988653955824147984
22889206 1 17843394335507026233
25222932 49 17967522480942593762
3178227 256 18272364287921188664
439807 62 17530959177199601601
4435113 14 18042704934561393283
4461854 278 18271809064208108502
50009960 94 17751060604464455379
563151 40 17326898881787975348
613672 6 18266444439053075748
6176135 31 18270971266386322155
6695519 79 17272536544471217282

> <PUBCHEM_SHAPE_MULTIPOLES>
795.38
20.62
5.72
2.65
20.52
0.18
-1.83
-7.61
-15
-1.32
3.23
-2.56
-1.89
3.56

> <PUBCHEM_SHAPE_SELFOVERLAP>
1702.401

> <PUBCHEM_SHAPE_VOLUME>
434.6

> <PUBCHEM_COORDINATE_TYPE>
2
5
10

$$$$
