51137143
  -OEChem-12032416243D

 51 54  0     1  0  0  0  0  0999 V2000
    6.3365    0.6954   -0.6485 S   0  0  0  0  0  0  0  0  0  0  0  0
    1.2718   -1.9160    0.5802 O   0  0  0  0  0  0  0  0  0  0  0  0
    7.3083   -0.2761   -1.1281 O   0  0  0  0  0  0  0  0  0  0  0  0
    6.0040    1.8527   -1.4654 O   0  0  0  0  0  0  0  0  0  0  0  0
   -3.0814   -0.1792   -0.0058 N   0  0  1  0  0  0  0  0  0  0  0  0
    1.1516    0.2943    0.0935 N   0  0  0  0  0  0  0  0  0  0  0  0
   -0.9789   -0.9840    0.6507 C   0  0  1  0  0  0  0  0  0  0  0  0
   -1.5720   -0.1169    1.7748 C   0  0  0  0  0  0  0  0  0  0  0  0
   -1.8203   -0.6445   -0.5870 C   0  0  0  0  0  0  0  0  0  0  0  0
   -2.6878    0.6798    1.1109 C   0  0  0  0  0  0  0  0  0  0  0  0
   -3.9152    0.5178   -0.9740 C   0  0  0  0  0  0  0  0  0  0  0  0
    0.5040   -0.8015    0.4232 C   0  0  0  0  0  0  0  0  0  0  0  0
   -5.3484    0.6038   -0.5207 C   0  0  0  0  0  0  0  0  0  0  0  0
    2.4597   -0.1203    0.0240 C   0  0  0  0  0  0  0  0  0  0  0  0
    2.5371   -1.4729    0.3213 C   0  0  0  0  0  0  0  0  0  0  0  0
   -6.1932   -0.5032   -0.5980 C   0  0  0  0  0  0  0  0  0  0  0  0
   -5.8279    1.8132   -0.0178 C   0  0  0  0  0  0  0  0  0  0  0  0
    3.6385    0.5750   -0.2814 C   0  0  0  0  0  0  0  0  0  0  0  0
    4.8459   -0.1384   -0.2706 C   0  0  0  0  0  0  0  0  0  0  0  0
    3.7128   -2.2129    0.3421 C   0  0  0  0  0  0  0  0  0  0  0  0
    4.8796   -1.5045    0.0353 C   0  0  0  0  0  0  0  0  0  0  0  0
   -7.5176   -0.4010   -0.1723 C   0  0  0  0  0  0  0  0  0  0  0  0
   -5.7026   -1.8085   -1.1328 C   0  0  0  0  0  0  0  0  0  0  0  0
   -7.1523    1.9157    0.4080 C   0  0  0  0  0  0  0  0  0  0  0  0
   -7.9971    0.8085    0.3307 C   0  0  0  0  0  0  0  0  0  0  0  0
    6.9215    1.2833    0.9240 C   0  0  0  0  0  0  0  0  0  0  0  0
    8.2233    2.0403    0.7837 C   0  0  0  0  0  0  0  0  0  0  0  0
   -1.1564   -2.0361    0.9156 H   0  0  0  0  0  0  0  0  0  0  0  0
   -1.9865   -0.7671    2.5553 H   0  0  0  0  0  0  0  0  0  0  0  0
   -0.8376    0.5436    2.2478 H   0  0  0  0  0  0  0  0  0  0  0  0
   -1.9666   -1.5252   -1.2217 H   0  0  0  0  0  0  0  0  0  0  0  0
   -1.3441    0.1395   -1.1910 H   0  0  0  0  0  0  0  0  0  0  0  0
   -3.5083    0.8633    1.8116 H   0  0  0  0  0  0  0  0  0  0  0  0
   -2.2953    1.6459    0.7682 H   0  0  0  0  0  0  0  0  0  0  0  0
   -3.5206    1.5187   -1.1993 H   0  0  0  0  0  0  0  0  0  0  0  0
   -3.8959   -0.0010   -1.9414 H   0  0  0  0  0  0  0  0  0  0  0  0
   -5.1813    2.6841    0.0504 H   0  0  0  0  0  0  0  0  0  0  0  0
    3.5997    1.6346   -0.5100 H   0  0  0  0  0  0  0  0  0  0  0  0
    3.7281   -3.2687    0.5816 H   0  0  0  0  0  0  0  0  0  0  0  0
    5.8226   -2.0463    0.0477 H   0  0  0  0  0  0  0  0  0  0  0  0
   -8.1895   -1.2535   -0.2252 H   0  0  0  0  0  0  0  0  0  0  0  0
   -6.4971   -2.5636   -1.1353 H   0  0  0  0  0  0  0  0  0  0  0  0
   -4.8919   -2.2076   -0.5161 H   0  0  0  0  0  0  0  0  0  0  0  0
   -5.3646   -1.7059   -2.1687 H   0  0  0  0  0  0  0  0  0  0  0  0
   -7.5256    2.8572    0.8001 H   0  0  0  0  0  0  0  0  0  0  0  0
   -9.0282    0.8882    0.6624 H   0  0  0  0  0  0  0  0  0  0  0  0
    7.0552    0.4149    1.5761 H   0  0  0  0  0  0  0  0  0  0  0  0
    6.1480    1.9322    1.3456 H   0  0  0  0  0  0  0  0  0  0  0  0
    8.5640    2.3953    1.7612 H   0  0  0  0  0  0  0  0  0  0  0  0
    8.1076    2.9089    0.1277 H   0  0  0  0  0  0  0  0  0  0  0  0
    9.0079    1.4049    0.3606 H   0  0  0  0  0  0  0  0  0  0  0  0
  1  3  2  0  0  0  0
  1  4  2  0  0  0  0
  1 19  1  0  0  0  0
  1 26  1  0  0  0  0
  2 12  1  0  0  0  0
  2 15  1  0  0  0  0
  5  9  1  0  0  0  0
  5 10  1  0  0  0  0
  5 11  1  0  0  0  0
  6 12  2  0  0  0  0
  6 14  1  0  0  0  0
  7  8  1  0  0  0  0
  7  9  1  0  0  0  0
  7 12  1  0  0  0  0
  7 28  1  0  0  0  0
  8 10  1  0  0  0  0
  8 29  1  0  0  0  0
  8 30  1  0  0  0  0
  9 31  1  0  0  0  0
  9 32  1  0  0  0  0
 10 33  1  0  0  0  0
 10 34  1  0  0  0  0
 11 13  1  0  0  0  0
 11 35  1  0  0  0  0
 11 36  1  0  0  0  0
 13 16  1  0  0  0  0
 13 17  2  0  0  0  0
 14 15  2  0  0  0  0
 14 18  1  0  0  0  0
 15 20  1  0  0  0  0
 16 22  2  0  0  0  0
 16 23  1  0  0  0  0
 17 24  1  0  0  0  0
 17 37  1  0  0  0  0
 18 19  2  0  0  0  0
 18 38  1  0  0  0  0
 19 21  1  0  0  0  0
 20 21  2  0  0  0  0
 20 39  1  0  0  0  0
 21 40  1  0  0  0  0
 22 25  1  0  0  0  0
 22 41  1  0  0  0  0
 23 42  1  0  0  0  0
 23 43  1  0  0  0  0
 23 44  1  0  0  0  0
 24 25  2  0  0  0  0
 24 45  1  0  0  0  0
 25 46  1  0  0  0  0
 26 27  1  0  0  0  0
 26 47  1  0  0  0  0
 26 48  1  0  0  0  0
 27 49  1  0  0  0  0
 27 50  1  0  0  0  0
 27 51  1  0  0  0  0
M  END
> <PUBCHEM_COMPOUND_CID>
51137143

> <PUBCHEM_CONFORMER_RMSD>
0.8

> <PUBCHEM_CONFORMER_DIVERSEORDER>
1
201
74
195
165
164
211
192
173
86
155
19
83
189
199
185
57
182
170
207
203
47
127
5
187
143
197
6
72
157
89
119
156
198
117
141
91
204
162
56
177
70
180
126
50
174
200
159
132
133
161
18
190
17
209
121
92
163
138
150
183
167
10
144
212
193
75
146
128
46
188
16
7
78
184
168
60
178
176
175
145
110
79
206
88
54
179
9
69
147
191
93
129
214
94
87
114
122
8
99
181
52
95
111
217
169
61
80
186
215
116
140
103
23
84
210
208
196
98
35
202
134
154
194
2
106
158
90
120
85
77
205
136
68
27
30
149
123
112
64
53
25
171
142
82
26
36
55
39
65
115
11
148
71
172
37
33
3
109
124
21
97
14
58
151
131
113
153
38
118
29
76
73
125
42
105
34
62
28
45
108
22
63
104
51
166
59
31
13
32
213
24
160
135
130
216
101
81
67
96
49
139
44
48
107
41
4
66
100
15
152
40
20
12
137
43
102

> <PUBCHEM_MMFF94_PARTIAL_CHARGES>
32
1 1.2
10 0.27
11 0.41
12 0.3
13 -0.14
14 0.23
15 0.14
16 -0.14
17 -0.15
18 -0.15
19 -0.01
2 -0.28
20 -0.15
21 -0.15
22 -0.15
23 0.14
24 -0.15
25 -0.15
26 0.11
3 -0.65
37 0.15
38 0.15
39 0.15
4 -0.65
40 0.15
41 0.15
45 0.15
46 0.15
5 -0.81
6 -0.57
7 0.18
9 0.27

> <PUBCHEM_EFFECTIVE_ROTOR_COUNT>
6

> <PUBCHEM_PHARMACOPHORE_FEATURES>
7
1 3 acceptor
1 4 acceptor
1 5 cation
5 2 6 12 14 15 rings
5 5 7 8 9 10 rings
6 13 16 17 22 24 25 rings
6 14 15 18 19 20 21 rings

> <PUBCHEM_HEAVY_ATOM_COUNT>
27

> <PUBCHEM_ATOM_DEF_STEREO_COUNT>
1

> <PUBCHEM_ATOM_UDEF_STEREO_COUNT>
0

> <PUBCHEM_BOND_DEF_STEREO_COUNT>
0

> <PUBCHEM_BOND_UDEF_STEREO_COUNT>
0

> <PUBCHEM_ISOTOPIC_ATOM_COUNT>
0

> <PUBCHEM_COMPONENT_COUNT>
1

> <PUBCHEM_CACTVS_TAUTO_COUNT>
1

> <PUBCHEM_CONFORMER_ID>
030C4A7700000001

> <PUBCHEM_MMFF94_ENERGY>
47.6651

> <PUBCHEM_FEATURE_SELFOVERLAP>
35.658

> <PUBCHEM_SHAPE_FINGERPRINT>
10 15 14418140625196526110
10299344 5 18341894078825070015
10369192 42 18272087180730767077
10411042 1 17684363955048035498
10595046 47 18337669720611951187
11135609 187 18341894082476680171
11315181 36 18411136923591562021
11646440 116 16370730309676934157
12082328 90 18272649056789448271
12236239 1 18343017762038235815
12539745 222 12685352047578959446
13533116 47 18270396092607569970
13690498 29 17987786536821087039
14251764 18 17967531272397555593
14461889 52 17749113313257241634
14849402 71 18334018328195753317
14856354 85 17917711310765953455
14933364 13 18411419488772489253
15183329 4 17775286036995505457
15301273 46 11602812498094580032
15352257 5 12031789158188623117
1577012 14 18412820270654649775
16994733 274 18188207607453798017
18335252 98 18334019410870026459
18643901 69 12391520792727114616
19489759 90 8142080980042909279
20156587 128 15769514066740218336
20157964 124 18260267426247575770
21033648 29 17968376866292275120
21150785 3 17489869354048834728
21298829 104 18409732859089200508
21795232 338 18271247231647745635
22224240 67 16950284009648400811
23081809 10 18341884170056125175
23536379 177 18339641145076637115
23559900 14 15841257246641915602
23576562 1 16915921033403099645
24771293 8 18260264183468263468
2838139 119 17603300475080662685
3004659 81 17132110247422857209
335352 9 18334020476522991350
34797466 226 16128373801009885496
3711267 37 18272944799701199249
4073 2 18186806889574543635
4093350 32 18343584006548195094
4098825 35 18337390448610480981
4149490 64 18259987046081987578
4325135 7 18408885136198535815
4340502 62 15791731884573676322
445580 126 18260541226217793016
445580 37 17632301134257302409
504579 68 18059864935052627958
5080951 261 16371003074924731571
5219985 9 12247683772735390026
5265222 85 18272930540520149743
5470011 282 16630812127775736236
5758199 1 18260547822738978803
5937810 71 17632304441219129729
59682541 35 16950292806443120889
59682541 52 17560812000868816974

> <PUBCHEM_SHAPE_MULTIPOLES>
531.93
26.05
1.99
1.12
0.6
0.02
0.06
-12.48
-3.33
-1.11
0.1
-0.33
-0.11
-0.79

> <PUBCHEM_SHAPE_SELFOVERLAP>
1138.892

> <PUBCHEM_SHAPE_VOLUME>
298.4

> <PUBCHEM_COORDINATE_TYPE>
2
5
10

$$$$
