45783697
  -OEChem-12032416263D

 50 53  0     1  0  0  0  0  0999 V2000
   -0.1629   -1.8545    1.8781 O   0  0  0  0  0  0  0  0  0  0  0  0
    6.1209    1.2216   -1.0502 O   0  0  0  0  0  0  0  0  0  0  0  0
   -2.7523   -1.0343   -0.5974 N   0  0  1  0  0  0  0  0  0  0  0  0
   -3.3071    3.1229    0.0915 N   0  0  0  0  0  0  0  0  0  0  0  0
    0.1985   -0.9752   -0.1500 N   0  0  0  0  0  0  0  0  0  0  0  0
    1.1725   -1.4323    1.8689 N   0  0  0  0  0  0  0  0  0  0  0  0
    4.8537    0.2009    0.6041 N   0  0  0  0  0  0  0  0  0  0  0  0
   -3.2894    0.1989   -0.0268 C   0  0  0  0  0  0  0  0  0  0  0  0
   -2.1125   -1.9093    0.4051 C   0  0  1  0  0  0  0  0  0  0  0  0
   -3.7889   -1.8377   -1.2460 C   0  0  0  0  0  0  0  0  0  0  0  0
   -3.9261    1.0568   -1.1230 C   0  0  0  0  0  0  0  0  0  0  0  0
   -2.1936    0.9945    0.6887 C   0  0  0  0  0  0  0  0  0  0  0  0
   -2.2839   -3.3342   -0.1530 C   0  0  0  0  0  0  0  0  0  0  0  0
   -3.0829   -3.1648   -1.4374 C   0  0  0  0  0  0  0  0  0  0  0  0
   -4.4060    2.3976   -0.5611 C   0  0  0  0  0  0  0  0  0  0  0  0
   -2.7299    2.3373    1.1912 C   0  0  0  0  0  0  0  0  0  0  0  0
   -0.6627   -1.5487    0.6521 C   0  0  0  0  0  0  0  0  0  0  0  0
   -3.7692    4.4223    0.5783 C   0  0  0  0  0  0  0  0  0  0  0  0
    1.3097   -0.9250    0.6403 C   0  0  0  0  0  0  0  0  0  0  0  0
    2.5428   -0.3622    0.1710 C   0  0  0  0  0  0  0  0  0  0  0  0
    2.6500    0.1555   -1.1151 C   0  0  0  0  0  0  0  0  0  0  0  0
    3.6638   -0.3161    0.9841 C   0  0  0  0  0  0  0  0  0  0  0  0
    3.8579    0.6959   -1.5425 C   0  0  0  0  0  0  0  0  0  0  0  0
    4.9200    0.6947   -0.6527 C   0  0  0  0  0  0  0  0  0  0  0  0
    7.1777    1.1953   -0.0982 C   0  0  0  0  0  0  0  0  0  0  0  0
   -4.0680   -0.0429    0.7116 H   0  0  0  0  0  0  0  0  0  0  0  0
   -2.6534   -1.8628    1.3612 H   0  0  0  0  0  0  0  0  0  0  0  0
   -4.0987   -1.4374   -2.2159 H   0  0  0  0  0  0  0  0  0  0  0  0
   -4.6723   -1.9672   -0.6079 H   0  0  0  0  0  0  0  0  0  0  0  0
   -3.2061    1.2393   -1.9324 H   0  0  0  0  0  0  0  0  0  0  0  0
   -4.7945    0.5593   -1.5693 H   0  0  0  0  0  0  0  0  0  0  0  0
   -1.8222    0.4707    1.5742 H   0  0  0  0  0  0  0  0  0  0  0  0
   -1.3490    1.1868    0.0149 H   0  0  0  0  0  0  0  0  0  0  0  0
   -1.3374   -3.8496   -0.3489 H   0  0  0  0  0  0  0  0  0  0  0  0
   -2.8569   -3.9421    0.5578 H   0  0  0  0  0  0  0  0  0  0  0  0
   -3.7803   -3.9914   -1.6024 H   0  0  0  0  0  0  0  0  0  0  0  0
   -2.4017   -3.1165   -2.2960 H   0  0  0  0  0  0  0  0  0  0  0  0
   -5.2340    2.2286    0.1401 H   0  0  0  0  0  0  0  0  0  0  0  0
   -4.8006    2.9942   -1.3928 H   0  0  0  0  0  0  0  0  0  0  0  0
   -1.8971    2.8900    1.6434 H   0  0  0  0  0  0  0  0  0  0  0  0
   -3.4737    2.1658    1.9808 H   0  0  0  0  0  0  0  0  0  0  0  0
   -4.1534    5.0289   -0.2494 H   0  0  0  0  0  0  0  0  0  0  0  0
   -4.5598    4.3254    1.3311 H   0  0  0  0  0  0  0  0  0  0  0  0
   -2.9394    4.9852    1.0198 H   0  0  0  0  0  0  0  0  0  0  0  0
    1.8099    0.1517   -1.8047 H   0  0  0  0  0  0  0  0  0  0  0  0
    3.6635   -0.6985    2.0006 H   0  0  0  0  0  0  0  0  0  0  0  0
    3.9580    1.1038   -2.5424 H   0  0  0  0  0  0  0  0  0  0  0  0
    6.9230    1.7862    0.7880 H   0  0  0  0  0  0  0  0  0  0  0  0
    7.4319    0.1666    0.1785 H   0  0  0  0  0  0  0  0  0  0  0  0
    8.0597    1.6470   -0.5620 H   0  0  0  0  0  0  0  0  0  0  0  0
  1  6  1  0  0  0  0
  1 17  1  0  0  0  0
  2 24  1  0  0  0  0
  2 25  1  0  0  0  0
  3  8  1  0  0  0  0
  3  9  1  0  0  0  0
  3 10  1  0  0  0  0
  4 15  1  0  0  0  0
  4 16  1  0  0  0  0
  4 18  1  0  0  0  0
  5 17  2  0  0  0  0
  5 19  1  0  0  0  0
  6 19  2  0  0  0  0
  7 22  1  0  0  0  0
  7 24  2  0  0  0  0
  8 11  1  0  0  0  0
  8 12  1  0  0  0  0
  8 26  1  0  0  0  0
  9 13  1  0  0  0  0
  9 17  1  0  0  0  0
  9 27  1  0  0  0  0
 10 14  1  0  0  0  0
 10 28  1  0  0  0  0
 10 29  1  0  0  0  0
 11 15  1  0  0  0  0
 11 30  1  0  0  0  0
 11 31  1  0  0  0  0
 12 16  1  0  0  0  0
 12 32  1  0  0  0  0
 12 33  1  0  0  0  0
 13 14  1  0  0  0  0
 13 34  1  0  0  0  0
 13 35  1  0  0  0  0
 14 36  1  0  0  0  0
 14 37  1  0  0  0  0
 15 38  1  0  0  0  0
 15 39  1  0  0  0  0
 16 40  1  0  0  0  0
 16 41  1  0  0  0  0
 18 42  1  0  0  0  0
 18 43  1  0  0  0  0
 18 44  1  0  0  0  0
 19 20  1  0  0  0  0
 20 21  1  0  0  0  0
 20 22  2  0  0  0  0
 21 23  2  0  0  0  0
 21 45  1  0  0  0  0
 22 46  1  0  0  0  0
 23 24  1  0  0  0  0
 23 47  1  0  0  0  0
 25 48  1  0  0  0  0
 25 49  1  0  0  0  0
 25 50  1  0  0  0  0
M  END
> <PUBCHEM_COMPOUND_CID>
45783697

> <PUBCHEM_CONFORMER_RMSD>
0.8

> <PUBCHEM_CONFORMER_DIVERSEORDER>
1
38
50
26
31
40
5
43
25
11
35
45
10
44
49
46
51
19
6
18
27
29
22
4
12
20
34
13
14
42
37
39
28
41
17
15
8
24
32
33
16
3
2
36
47
23
9
21
30
7
48

> <PUBCHEM_MMFF94_PARTIAL_CHARGES>
24
1 -0.02
10 0.27
15 0.27
16 0.27
17 0.3
18 0.27
19 0.46
2 -0.36
20 0.05
21 -0.15
22 0.16
23 -0.15
24 0.39
25 0.28
3 -0.81
4 -0.81
45 0.15
46 0.15
47 0.15
5 -0.57
6 -0.41
7 -0.62
8 0.27
9 0.45

> <PUBCHEM_EFFECTIVE_ROTOR_COUNT>
6.2

> <PUBCHEM_PHARMACOPHORE_FEATURES>
7
1 3 cation
1 4 cation
3 5 6 19 cation
5 1 5 6 17 19 rings
5 3 9 10 13 14 rings
6 4 8 11 12 15 16 rings
6 7 20 21 22 23 24 rings

> <PUBCHEM_HEAVY_ATOM_COUNT>
25

> <PUBCHEM_ATOM_DEF_STEREO_COUNT>
1

> <PUBCHEM_ATOM_UDEF_STEREO_COUNT>
0

> <PUBCHEM_BOND_DEF_STEREO_COUNT>
0

> <PUBCHEM_BOND_UDEF_STEREO_COUNT>
0

> <PUBCHEM_ISOTOPIC_ATOM_COUNT>
0

> <PUBCHEM_COMPONENT_COUNT>
1

> <PUBCHEM_CACTVS_TAUTO_COUNT>
1

> <PUBCHEM_CONFORMER_ID>
02BA9A9100000001

> <PUBCHEM_MMFF94_ENERGY>
45.6988

> <PUBCHEM_FEATURE_SELFOVERLAP>
35.524

> <PUBCHEM_SHAPE_FINGERPRINT>
10087517 78 18335700589755286292
10291535 26 18336833098972725546
10871710 139 18408321065010990029
10937287 8 18053103926352868881
11049842 53 18055335955931522195
11089746 13 18115020935628366716
11370993 144 14056992772252247940
11477941 20 17985540289482334588
11640471 11 18188486857468124195
12107183 9 18118956989360619290
12173636 292 18269825437962308967
12788726 201 18337378431693621651
14142880 1 18113902646034216749
14187579 7 18267869560995118788
14251764 38 18267025140724035384
14251764 75 17981335486598822905
14294032 229 18342745092240237617
14713325 29 18342749549841829775
14739800 52 18267281258313525576
14767858 380 18268125619193616405
15064981 113 18129367229639217286
15163728 17 18269281179195032343
15183329 4 17676481775257324646
15289351 153 18046351006153273516
15463212 79 18335978692849866531
16992828 155 17968370135256383173
16994733 274 15648428153934585871
17818456 19 18124018054030738898
19489759 90 18338799030717688462
20511986 3 18040984112337232844
21033650 10 18265357104279731486
21756936 100 18186810191981809922
22393880 68 18131362886415297630
235170 7 17489313026782010014
23522609 53 11167111345197989042
23557571 272 18130226059430840030
25147074 1 18115291324788370458
255183 451 17408789365558603831
312425 83 18270418143370049166
341906 21 18412535523081612904
3610482 184 18189354466668591940
38570 142 17969236546598004694
397830 11 10953745556171198910
4169191 19 17096936978827163140
44802255 64 17845941844376930836
46194498 28 16414324901804270673
469060 322 18042146369732508945
474 4 17822290132859503595
484985 159 13901904561811641245
5048184 11 18336830766990405169
5104073 3 16516528971063488008
5283173 99 18343021121077298880
531348 171 18343308050588921350
6299153 45 18115298965946218026
6327066 14 18264203626214392637
633830 44 17894633617470203290
7288768 16 17676498206984243057
7808743 9 18411699842272606065

> <PUBCHEM_SHAPE_MULTIPOLES>
477.84
12.86
4.08
1.45
22.89
1.94
0.11
8.57
-3.91
-8.52
0.14
0.22
-0.41
-1.86

> <PUBCHEM_SHAPE_SELFOVERLAP>
1019.722

> <PUBCHEM_SHAPE_VOLUME>
267.6

> <PUBCHEM_COORDINATE_TYPE>
2
5
10

$$$$
