11884055
  -OEChem-12032416153D

 48 51  0     1  0  0  0  0  0999 V2000
   -0.8341    1.0342    1.1796 O   0  0  0  0  0  0  0  0  0  0  0  0
   -2.2320    3.2141   -0.4629 O   0  0  0  0  0  0  0  0  0  0  0  0
    1.2075    2.2313   -0.2714 O   0  0  0  0  0  0  0  0  0  0  0  0
   -5.7845    0.8279   -0.1063 O   0  0  0  0  0  0  0  0  0  0  0  0
    1.5187    0.1619   -1.1939 O   0  0  0  0  0  0  0  0  0  0  0  0
   -4.5912   -2.4658    0.2652 O   0  0  0  0  0  0  0  0  0  0  0  0
    7.3885   -2.4110   -0.0742 O   0  0  0  0  0  0  0  0  0  0  0  0
   -3.7407    0.0417    0.5887 N   0  0  0  0  0  0  0  0  0  0  0  0
    3.2012    1.2236    0.0399 N   0  0  0  0  0  0  0  0  0  0  0  0
   -2.3840    1.7792   -0.4532 C   0  0  1  0  0  0  0  0  0  0  0  0
   -1.0031    1.1927   -0.2390 C   0  0  1  0  0  0  0  0  0  0  0  0
   -3.1552    1.3473    0.7722 C   0  0  2  0  0  0  0  0  0  0  0  0
   -0.1016    2.2697   -0.7931 C   0  0  1  0  0  0  0  0  0  0  0  0
   -2.0756    1.3237    1.8405 C   0  0  0  0  0  0  0  0  0  0  0  0
   -0.8341    3.5326   -0.3998 C   0  0  0  0  0  0  0  0  0  0  0  0
   -5.0533   -0.1306    0.1493 C   0  0  0  0  0  0  0  0  0  0  0  0
    1.9523    1.1010   -0.5377 C   0  0  0  0  0  0  0  0  0  0  0  0
   -5.4950   -1.5221   -0.0204 C   0  0  0  0  0  0  0  0  0  0  0  0
   -6.6817   -2.0106   -0.4231 C   0  0  0  0  0  0  0  0  0  0  0  0
    4.2685    0.2974    0.0103 C   0  0  0  0  0  0  0  0  0  0  0  0
   -6.5193   -3.4161   -0.3918 C   0  0  0  0  0  0  0  0  0  0  0  0
   -5.2309   -3.6422    0.0335 C   0  0  0  0  0  0  0  0  0  0  0  0
    5.4545    0.6073    0.6567 C   0  0  0  0  0  0  0  0  0  0  0  0
    4.1082   -0.9024   -0.6645 C   0  0  0  0  0  0  0  0  0  0  0  0
    6.5077   -0.3067    0.6277 C   0  0  0  0  0  0  0  0  0  0  0  0
    5.1615   -1.8164   -0.6933 C   0  0  0  0  0  0  0  0  0  0  0  0
    6.3613   -1.5185   -0.0473 C   0  0  0  0  0  0  0  0  0  0  0  0
    8.5863   -2.0433    0.6084 C   0  0  0  0  0  0  0  0  0  0  0  0
   -2.8366    1.4873   -1.4062 H   0  0  0  0  0  0  0  0  0  0  0  0
   -0.8866    0.2087   -0.7008 H   0  0  0  0  0  0  0  0  0  0  0  0
   -3.9441    2.0555    1.0474 H   0  0  0  0  0  0  0  0  0  0  0  0
   -0.0720    2.2098   -1.8894 H   0  0  0  0  0  0  0  0  0  0  0  0
   -2.2484    0.5838    2.6280 H   0  0  0  0  0  0  0  0  0  0  0  0
   -1.9685    2.3077    2.3101 H   0  0  0  0  0  0  0  0  0  0  0  0
   -0.5900    3.8559    0.6184 H   0  0  0  0  0  0  0  0  0  0  0  0
   -0.6170    4.3662   -1.0744 H   0  0  0  0  0  0  0  0  0  0  0  0
   -3.1585   -0.7780    0.7383 H   0  0  0  0  0  0  0  0  0  0  0  0
    3.3768    2.0858    0.5501 H   0  0  0  0  0  0  0  0  0  0  0  0
   -7.5654   -1.4581   -0.7081 H   0  0  0  0  0  0  0  0  0  0  0  0
   -7.2497   -4.1702   -0.6470 H   0  0  0  0  0  0  0  0  0  0  0  0
   -4.6485   -4.5341    0.2130 H   0  0  0  0  0  0  0  0  0  0  0  0
    5.5780    1.5487    1.1852 H   0  0  0  0  0  0  0  0  0  0  0  0
    3.2115   -1.2029   -1.1865 H   0  0  0  0  0  0  0  0  0  0  0  0
    7.4113   -0.0117    1.1503 H   0  0  0  0  0  0  0  0  0  0  0  0
    5.0426   -2.7594   -1.2202 H   0  0  0  0  0  0  0  0  0  0  0  0
    8.4167   -1.9267    1.6842 H   0  0  0  0  0  0  0  0  0  0  0  0
    9.2953   -2.8684    0.4842 H   0  0  0  0  0  0  0  0  0  0  0  0
    9.0474   -1.1557    0.1622 H   0  0  0  0  0  0  0  0  0  0  0  0
  1 11  1  0  0  0  0
  1 14  1  0  0  0  0
  2 10  1  0  0  0  0
  2 15  1  0  0  0  0
  3 13  1  0  0  0  0
  3 17  1  0  0  0  0
  4 16  2  0  0  0  0
  5 17  2  0  0  0  0
  6 18  1  0  0  0  0
  6 22  1  0  0  0  0
  7 27  1  0  0  0  0
  7 28  1  0  0  0  0
  8 12  1  0  0  0  0
  8 16  1  0  0  0  0
  8 37  1  0  0  0  0
  9 17  1  0  0  0  0
  9 20  1  0  0  0  0
  9 38  1  0  0  0  0
 10 11  1  0  0  0  0
 10 12  1  0  0  0  0
 10 29  1  0  0  0  0
 11 13  1  0  0  0  0
 11 30  1  0  0  0  0
 12 14  1  0  0  0  0
 12 31  1  0  0  0  0
 13 15  1  0  0  0  0
 13 32  1  0  0  0  0
 14 33  1  0  0  0  0
 14 34  1  0  0  0  0
 15 35  1  0  0  0  0
 15 36  1  0  0  0  0
 16 18  1  0  0  0  0
 18 19  2  0  0  0  0
 19 21  1  0  0  0  0
 19 39  1  0  0  0  0
 20 23  2  0  0  0  0
 20 24  1  0  0  0  0
 21 22  2  0  0  0  0
 21 40  1  0  0  0  0
 22 41  1  0  0  0  0
 23 25  1  0  0  0  0
 23 42  1  0  0  0  0
 24 26  2  0  0  0  0
 24 43  1  0  0  0  0
 25 27  2  0  0  0  0
 25 44  1  0  0  0  0
 26 27  1  0  0  0  0
 26 45  1  0  0  0  0
 28 46  1  0  0  0  0
 28 47  1  0  0  0  0
 28 48  1  0  0  0  0
M  END
> <PUBCHEM_COMPOUND_CID>
11884055

> <PUBCHEM_CONFORMER_RMSD>
1

> <PUBCHEM_CONFORMER_DIVERSEORDER>
1
34
47
45
33
28
12
4
29
23
9
35
31
38
17
44
46
7
42
24
14
32
22
8
25
36
6
26
30
37
15
10
11
16
2
39
18
20
48
43
41
27
21
5
19
3
40
13

> <PUBCHEM_MMFF94_PARTIAL_CHARGES>
37
1 -0.56
10 0.28
11 0.28
12 0.3
13 0.28
14 0.28
15 0.28
16 0.71
17 0.78
18 0.05
19 -0.15
2 -0.56
20 0.12
21 -0.15
22 -0.01
23 -0.15
24 -0.15
25 -0.15
26 -0.15
27 0.08
28 0.28
3 -0.43
37 0.37
38 0.37
39 0.15
4 -0.57
40 0.15
41 0.15
42 0.15
43 0.15
44 0.15
45 0.15
5 -0.57
6 -0.28
7 -0.36
8 -0.73
9 -0.55

> <PUBCHEM_EFFECTIVE_ROTOR_COUNT>
9.2

> <PUBCHEM_PHARMACOPHORE_FEATURES>
12
1 1 acceptor
1 2 acceptor
1 4 acceptor
1 5 acceptor
1 6 acceptor
1 7 acceptor
1 8 donor
1 9 donor
5 1 10 11 12 14 rings
5 2 10 11 13 15 rings
5 6 18 19 21 22 rings
6 20 23 24 25 26 27 rings

> <PUBCHEM_HEAVY_ATOM_COUNT>
28

> <PUBCHEM_ATOM_DEF_STEREO_COUNT>
4

> <PUBCHEM_ATOM_UDEF_STEREO_COUNT>
0

> <PUBCHEM_BOND_DEF_STEREO_COUNT>
0

> <PUBCHEM_BOND_UDEF_STEREO_COUNT>
0

> <PUBCHEM_ISOTOPIC_ATOM_COUNT>
0

> <PUBCHEM_COMPONENT_COUNT>
1

> <PUBCHEM_CACTVS_TAUTO_COUNT>
4

> <PUBCHEM_CONFORMER_ID>
00B5561700000001

> <PUBCHEM_MMFF94_ENERGY>
78.5033

> <PUBCHEM_FEATURE_SELFOVERLAP>
61.617

> <PUBCHEM_SHAPE_FINGERPRINT>
10622 236 17626094614594612847
10939801 23 18057042626248361302
11135609 201 10303820865327026781
11135609 99 18342175592140118486
11410812 94 16515948299573356996
11497681 19 18408608085006862028
12522641 126 18115035229332912668
12596602 18 18131633353348201864
12643181 29 18409163278085400479
12838863 1 18201148966914121335
13540713 5 18263947547385136533
1361 4 18047194334869004107
13782708 43 18342174454005050264
13885169 86 10087642619577609707
13944108 23 7996324203057035439
14068700 675 18333733511480895364
14211702 104 18271535255267791303
14251751 18 18341896324649659137
14344974 204 18412827954615789662
14347329 18 9007063430964392463
14671636 106 18411420623071519582
15064981 113 14201662149096887466
15183329 4 14273453665151422508
15188451 53 18413669119015799170
15274700 208 16700326667762232472
15419008 145 18338507553068873794
15510800 12 18059585693564543431
15604295 49 10737870711560557366
15728490 51 18341048627307869116
15803439 3 17028501995881484541
16126227 98 9511462234270400463
16992779 147 16413771912744822576
20028762 73 18411139143246362934
2026 5 18411415151083471615
20691028 202 9871752390234637410
208703 8 18337103574871130339
21033648 29 13756983385095888107
21130935 74 18198621043995392954
21197605 99 18343584062583652166
21298829 104 9871746906088960162
21585480 29 17414416588068572134
21756936 100 9007053548498091609
229767 44 18060137686582126143
23389318 12 18113905987993533462
23522609 53 18048917131645036212
23559900 14 18340762763017604609
23569943 247 18126006203863881987
25122255 55 18412271644232570191
255183 313 17060333054409053943
270888 7 9439411219916310375
2748736 6 9727361186227733843
312425 54 17845386461222305267
32027 91 18268424823562871171
3504750 166 18339365154314727809
3627633 1 18409728422325317077
392239 28 16200146638325717605
397830 11 18342164567418070544
406291 66 18410292557768443371
4280585 95 18409167710439090727
439807 62 18338239396785273539
5104073 3 17846228808005880009
559249 180 18411138057183268895
5718773 13 18410291432270058354
636775 8 18270126704755319198
6376802 137 17988652925528013011
7288768 16 11743845763715583821
7970288 3 18410011078501624487
96874 4 18341047527390735127
9689198 14 9007064594805570331

> <PUBCHEM_SHAPE_MULTIPOLES>
525.18
22.02
4.16
0.99
20.68
0.87
-0.23
26.8
-1.63
-5.16
0.58
0.01
-0.28
-0.53

> <PUBCHEM_SHAPE_SELFOVERLAP>
1143.55

> <PUBCHEM_SHAPE_VOLUME>
286.6

> <PUBCHEM_COORDINATE_TYPE>
2
5
10

$$$$
