28960230
  -OEChem-12032416133D

 60 62  0     1  0  0  0  0  0999 V2000
   -5.7947    1.9766    0.7588 O   0  0  0  0  0  0  0  0  0  0  0  0
    1.5322   -1.0009    0.1870 N   0  0  0  0  0  0  0  0  0  0  0  0
   -5.1151    0.1329   -0.4803 N   0  0  0  0  0  0  0  0  0  0  0  0
    1.3172   -2.2025    0.7495 N   0  0  0  0  0  0  0  0  0  0  0  0
   -7.2351    0.1878    0.4279 N   0  0  0  0  0  0  0  0  0  0  0  0
   -2.0766   -1.1471   -0.4247 C   0  0  2  0  0  0  0  0  0  0  0  0
   -2.7303    0.0919    0.2170 C   0  0  0  0  0  0  0  0  0  0  0  0
   -3.7703    0.6007   -0.7953 C   0  0  1  0  0  0  0  0  0  0  0  0
   -0.6158   -1.3026   -0.0701 C   0  0  0  0  0  0  0  0  0  0  0  0
   -2.3480   -0.9288   -1.8844 C   0  0  0  0  0  0  0  0  0  0  0  0
   -3.2743    0.0157   -2.0806 C   0  0  0  0  0  0  0  0  0  0  0  0
    0.4066   -0.4198   -0.3187 C   0  0  0  0  0  0  0  0  0  0  0  0
    0.0032   -2.3813    0.5895 C   0  0  0  0  0  0  0  0  0  0  0  0
    6.7783    1.1650    0.0936 C   0  0  0  0  0  0  0  0  0  0  0  0
    2.8216   -0.4683    0.1642 C   0  0  0  0  0  0  0  0  0  0  0  0
    0.4033    0.9007   -0.9807 C   0  0  0  0  0  0  0  0  0  0  0  0
    5.4001    0.5960    0.1178 C   0  0  0  0  0  0  0  0  0  0  0  0
   -0.6262   -3.6157    1.0910 C   0  0  0  0  0  0  0  0  0  0  0  0
    3.0842    0.7511    0.7888 C   0  0  0  0  0  0  0  0  0  0  0  0
    3.8482   -1.1555   -0.4835 C   0  0  0  0  0  0  0  0  0  0  0  0
   -6.0286    0.8676    0.2803 C   0  0  0  0  0  0  0  0  0  0  0  0
    4.3735    1.2831    0.7658 C   0  0  0  0  0  0  0  0  0  0  0  0
    5.1375   -0.6234   -0.5068 C   0  0  0  0  0  0  0  0  0  0  0  0
    7.8460    0.3069   -0.6632 C   0  0  0  0  0  0  0  0  0  0  0  0
    6.8017    2.5624   -0.6002 C   0  0  0  0  0  0  0  0  0  0  0  0
    7.3403    1.3475    1.5377 C   0  0  0  0  0  0  0  0  0  0  0  0
   -8.3506    0.7260    1.1702 C   0  0  0  0  0  0  0  0  0  0  0  0
   -9.1282    1.7340    0.3496 C   0  0  0  0  0  0  0  0  0  0  0  0
   -2.6230   -2.0474   -0.1148 H   0  0  0  0  0  0  0  0  0  0  0  0
   -3.1737   -0.1570    1.1889 H   0  0  0  0  0  0  0  0  0  0  0  0
   -2.0001    0.8876    0.4089 H   0  0  0  0  0  0  0  0  0  0  0  0
   -3.7667    1.6953   -0.8264 H   0  0  0  0  0  0  0  0  0  0  0  0
   -1.8832   -1.4937   -2.6804 H   0  0  0  0  0  0  0  0  0  0  0  0
   -3.6377    0.3133   -3.0541 H   0  0  0  0  0  0  0  0  0  0  0  0
   -5.3914   -0.7923   -0.7958 H   0  0  0  0  0  0  0  0  0  0  0  0
    0.3859    1.7045   -0.2378 H   0  0  0  0  0  0  0  0  0  0  0  0
    1.2830    1.0366   -1.6187 H   0  0  0  0  0  0  0  0  0  0  0  0
   -0.4648    1.0381   -1.6289 H   0  0  0  0  0  0  0  0  0  0  0  0
   -1.0859   -4.1735    0.2687 H   0  0  0  0  0  0  0  0  0  0  0  0
    0.0998   -4.2760    1.5772 H   0  0  0  0  0  0  0  0  0  0  0  0
   -1.4047   -3.3798    1.8238 H   0  0  0  0  0  0  0  0  0  0  0  0
    2.3023    1.2955    1.3124 H   0  0  0  0  0  0  0  0  0  0  0  0
    3.6597   -2.1049   -0.9791 H   0  0  0  0  0  0  0  0  0  0  0  0
    4.5507    2.2324    1.2629 H   0  0  0  0  0  0  0  0  0  0  0  0
    5.8971   -1.1983   -1.0249 H   0  0  0  0  0  0  0  0  0  0  0  0
    7.5811    0.1759   -1.7188 H   0  0  0  0  0  0  0  0  0  0  0  0
    7.9628   -0.6830   -0.2069 H   0  0  0  0  0  0  0  0  0  0  0  0
    8.8306    0.7895   -0.6376 H   0  0  0  0  0  0  0  0  0  0  0  0
    6.1843    3.2941   -0.0676 H   0  0  0  0  0  0  0  0  0  0  0  0
    6.4220    2.4938   -1.6265 H   0  0  0  0  0  0  0  0  0  0  0  0
    7.8188    2.9688   -0.6440 H   0  0  0  0  0  0  0  0  0  0  0  0
    7.3542    0.3911    2.0736 H   0  0  0  0  0  0  0  0  0  0  0  0
    6.7370    2.0473    2.1262 H   0  0  0  0  0  0  0  0  0  0  0  0
    8.3642    1.7388    1.5205 H   0  0  0  0  0  0  0  0  0  0  0  0
   -7.3410   -0.7204   -0.0134 H   0  0  0  0  0  0  0  0  0  0  0  0
   -8.9937   -0.1136    1.4519 H   0  0  0  0  0  0  0  0  0  0  0  0
   -7.9736    1.1955    2.0849 H   0  0  0  0  0  0  0  0  0  0  0  0
   -8.5029    2.5877    0.0689 H   0  0  0  0  0  0  0  0  0  0  0  0
   -9.5045    1.2803   -0.5734 H   0  0  0  0  0  0  0  0  0  0  0  0
   -9.9832    2.1110    0.9192 H   0  0  0  0  0  0  0  0  0  0  0  0
  1 21  2  0  0  0  0
  2  4  1  0  0  0  0
  2 12  1  0  0  0  0
  2 15  1  0  0  0  0
  3  8  1  0  0  0  0
  3 21  1  0  0  0  0
  3 35  1  0  0  0  0
  4 13  2  0  0  0  0
  5 21  1  0  0  0  0
  5 27  1  0  0  0  0
  5 55  1  0  0  0  0
  6  7  1  0  0  0  0
  6  9  1  0  0  0  0
  6 10  1  0  0  0  0
  6 29  1  0  0  0  0
  7  8  1  0  0  0  0
  7 30  1  0  0  0  0
  7 31  1  0  0  0  0
  8 11  1  0  0  0  0
  8 32  1  0  0  0  0
  9 12  2  0  0  0  0
  9 13  1  0  0  0  0
 10 11  2  0  0  0  0
 10 33  1  0  0  0  0
 11 34  1  0  0  0  0
 12 16  1  0  0  0  0
 13 18  1  0  0  0  0
 14 17  1  0  0  0  0
 14 24  1  0  0  0  0
 14 25  1  0  0  0  0
 14 26  1  0  0  0  0
 15 19  2  0  0  0  0
 15 20  1  0  0  0  0
 16 36  1  0  0  0  0
 16 37  1  0  0  0  0
 16 38  1  0  0  0  0
 17 22  2  0  0  0  0
 17 23  1  0  0  0  0
 18 39  1  0  0  0  0
 18 40  1  0  0  0  0
 18 41  1  0  0  0  0
 19 22  1  0  0  0  0
 19 42  1  0  0  0  0
 20 23  2  0  0  0  0
 20 43  1  0  0  0  0
 22 44  1  0  0  0  0
 23 45  1  0  0  0  0
 24 46  1  0  0  0  0
 24 47  1  0  0  0  0
 24 48  1  0  0  0  0
 25 49  1  0  0  0  0
 25 50  1  0  0  0  0
 25 51  1  0  0  0  0
 26 52  1  0  0  0  0
 26 53  1  0  0  0  0
 26 54  1  0  0  0  0
 27 28  1  0  0  0  0
 27 56  1  0  0  0  0
 27 57  1  0  0  0  0
 28 58  1  0  0  0  0
 28 59  1  0  0  0  0
 28 60  1  0  0  0  0
M  END
> <PUBCHEM_COMPOUND_CID>
28960230

> <PUBCHEM_CONFORMER_RMSD>
1

> <PUBCHEM_CONFORMER_DIVERSEORDER>
1
20
29
34
36
66
55
7
42
10
3
69
52
64
54
61
44
15
45
27
37
6
46
63
8
65
28
14
30
59
35
23
57
48
60
16
43
58
31
49
38
56
13
39
50
2
22
51
53
25
41
9
33
62
12
68
19
11
26
18
5
40
24
32
67
17
47
21
4

> <PUBCHEM_MMFF94_PARTIAL_CHARGES>
31
1 -0.57
10 -0.29
11 -0.29
12 -0.33
13 0.11
14 0.14
15 -0.02
16 0.18
17 -0.14
18 0.18
19 -0.15
2 0.59
20 -0.15
21 0.69
22 -0.15
23 -0.15
27 0.3
3 -0.73
33 0.15
34 0.15
35 0.37
4 -0.71
42 0.15
43 0.15
44 0.15
45 0.15
5 -0.73
55 0.37
6 0.32
8 0.44
9 -0.18

> <PUBCHEM_EFFECTIVE_ROTOR_COUNT>
7.6

> <PUBCHEM_PHARMACOPHORE_FEATURES>
8
1 1 acceptor
1 3 donor
1 4 acceptor
1 5 donor
4 14 24 25 26 hydrophobe
5 2 4 9 12 13 rings
5 6 7 8 10 11 rings
6 15 17 19 20 22 23 rings

> <PUBCHEM_HEAVY_ATOM_COUNT>
28

> <PUBCHEM_ATOM_DEF_STEREO_COUNT>
2

> <PUBCHEM_ATOM_UDEF_STEREO_COUNT>
0

> <PUBCHEM_BOND_DEF_STEREO_COUNT>
0

> <PUBCHEM_BOND_UDEF_STEREO_COUNT>
0

> <PUBCHEM_ISOTOPIC_ATOM_COUNT>
0

> <PUBCHEM_COMPONENT_COUNT>
1

> <PUBCHEM_CACTVS_TAUTO_COUNT>
3

> <PUBCHEM_CONFORMER_ID>
01B9E5E600000001

> <PUBCHEM_MMFF94_ENERGY>
74.8247

> <PUBCHEM_FEATURE_SELFOVERLAP>
40.644

> <PUBCHEM_SHAPE_FINGERPRINT>
10 15 17530684316150610797
10162869 55 18114179762320683575
10165383 225 18333733511290666274
106641 1 16660648470331375893
10670039 82 15482676737355094539
10904742 90 18343301453492345391
10906281 52 18410862096628075028
11135609 201 18409160009230276889
11135609 99 12685106894750488609
11796584 16 14979666719771213646
12202916 173 10519987062924455396
12236239 1 18130784543161514647
12539765 74 18272658956367468390
13668630 136 9439398026283491001
13782708 43 8286215954801099460
14556957 393 13829861282826026850
14849402 71 18410014381479557793
15064981 194 17916030242600686401
15183329 4 15698002929168463531
15188451 53 12035447233532054095
15510800 12 8213859353023785129
15690457 1 12179848316396404497
15706992 2 18339935886432131313
15728490 51 18411418450092660127
1577012 14 17988916765310768927
15840311 113 18412268302642610301
16126227 98 18410013268960929443
16992610 120 18261689133700552214
18222031 100 10375867485317754030
18393751 57 17749390381755709299
18608769 82 18335702780051080315
20105231 36 15357969025032068336
20505436 4 18202276988381593311
21033648 29 18339071713822173440
21304304 249 8142085377229954456
21307412 95 12247676106355871373
21424621 283 18412545392425712122
21521721 280 18408042905363923195
21585482 111 18267024956235906441
21756936 100 18342733048735461327
22224240 67 18040999540434422379
23389318 12 9799403460855561978
23559900 14 13901612087260608706
23576562 1 14332541485006937753
249057 3 16200429191138947953
3004659 81 13038902240066778626
3009799 131 12823292398910319118
3014063 24 7925914781006285745
3178227 256 17821730537207176269
3633792 109 15770063830795335694
3711267 37 17846509136152937561
4073 2 18409732901928220578
4093350 32 17917996049142719478
4098825 35 17561082514155616951
4339292 15 9871481911466091328
4340502 62 18260553290944730539
4516262 110 18341323410688603197
5104073 3 17968087647347410962
5385378 56 18261106340676898386
54076057 127 18271815579726386515
5718773 13 9655309124656549876
5758199 1 18408605851328241275
59682541 35 17894639162821089033
59682541 52 17346330271896466900
59755656 520 18335696165390364486
6081469 158 10015867565804971049
6698420 124 18412268332849877698
9689198 14 18201725037748920677
9953998 17 17821732745827480563

> <PUBCHEM_SHAPE_MULTIPOLES>
550.43
24.28
2.46
1.31
18.28
1.52
-0.34
-20.64
5.2
-0.35
0.81
0.53
0.04
-0.43

> <PUBCHEM_SHAPE_SELFOVERLAP>
1161.547

> <PUBCHEM_SHAPE_VOLUME>
313.9

> <PUBCHEM_COORDINATE_TYPE>
2
5
10

$$$$
