28991371
  -OEChem-12032416163D

 63 68  0     1  0  0  0  0  0999 V2000
    6.3246    3.0754   -1.3655 S   0  0  0  0  0  0  0  0  0  0  0  0
    1.0860   -6.5763    1.7117 F   0  0  0  0  0  0  0  0  0  0  0  0
   -3.2310   -2.1960   -1.8729 O   0  0  0  0  0  0  0  0  0  0  0  0
   -1.3194   -1.0839   -2.5408 O   0  0  0  0  0  0  0  0  0  0  0  0
   -0.5580   -0.6121    0.0443 N   0  0  2  0  0  0  0  0  0  0  0  0
   -2.1316    2.7953   -0.1028 N   0  0  0  0  0  0  0  0  0  0  0  0
    3.0958    1.6148    0.0252 N   0  0  0  0  0  0  0  0  0  0  0  0
   -0.5876    0.7881   -0.4801 C   0  0  2  0  0  0  0  0  0  0  0  0
    0.6702   -1.3351   -0.3726 C   0  0  1  0  0  0  0  0  0  0  0  0
    0.6449    1.5728   -0.0042 C   0  0  0  0  0  0  0  0  0  0  0  0
    1.9288    0.8797   -0.4595 C   0  0  2  0  0  0  0  0  0  0  0  0
    1.9420   -0.5606    0.0502 C   0  0  0  0  0  0  0  0  0  0  0  0
   -1.8286   -1.3486   -0.1988 C   0  0  1  0  0  0  0  0  0  0  0  0
   -1.8639    1.4553   -0.0624 C   0  0  0  0  0  0  0  0  0  0  0  0
   -3.0450   -0.6787    0.4899 C   0  0  0  0  0  0  0  0  0  0  0  0
   -3.0003    0.8037    0.3646 C   0  0  0  0  0  0  0  0  0  0  0  0
    0.7824   -2.7498    0.1901 C   0  0  0  0  0  0  0  0  0  0  0  0
   -3.9915    1.7873    0.6299 C   0  0  0  0  0  0  0  0  0  0  0  0
   -3.4202    3.0279    0.3294 C   0  0  0  0  0  0  0  0  0  0  0  0
   -2.0692   -1.5110   -1.6732 C   0  0  0  0  0  0  0  0  0  0  0  0
    4.2723    1.2955   -0.7686 C   0  0  0  0  0  0  0  0  0  0  0  0
    1.3883   -3.7544   -0.5645 C   0  0  0  0  0  0  0  0  0  0  0  0
    0.2791   -3.0382    1.4588 C   0  0  0  0  0  0  0  0  0  0  0  0
   -5.3223    1.7484    1.0922 C   0  0  0  0  0  0  0  0  0  0  0  0
   -4.1179    4.2329    0.4709 C   0  0  0  0  0  0  0  0  0  0  0  0
   -6.0301    2.9465    1.2398 C   0  0  0  0  0  0  0  0  0  0  0  0
    1.4907   -5.0470   -0.0509 C   0  0  0  0  0  0  0  0  0  0  0  0
    0.3814   -4.3308    1.9725 C   0  0  0  0  0  0  0  0  0  0  0  0
    5.4910    2.0377   -0.2882 C   0  0  0  0  0  0  0  0  0  0  0  0
   -5.4352    4.1686    0.9335 C   0  0  0  0  0  0  0  0  0  0  0  0
    0.9872   -5.3352    1.2177 C   0  0  0  0  0  0  0  0  0  0  0  0
   -3.5835   -2.4231   -3.2412 C   0  0  0  0  0  0  0  0  0  0  0  0
    6.0758    2.0095    0.9588 C   0  0  0  0  0  0  0  0  0  0  0  0
    7.2232    2.8511    1.0307 C   0  0  0  0  0  0  0  0  0  0  0  0
    7.4717    3.4903   -0.1639 C   0  0  0  0  0  0  0  0  0  0  0  0
   -0.5611    0.8044   -1.5753 H   0  0  0  0  0  0  0  0  0  0  0  0
    0.6993   -1.4116   -1.4656 H   0  0  0  0  0  0  0  0  0  0  0  0
    0.6215    2.5933   -0.4089 H   0  0  0  0  0  0  0  0  0  0  0  0
    0.6292    1.6718    1.0908 H   0  0  0  0  0  0  0  0  0  0  0  0
    1.9204    0.8749   -1.5584 H   0  0  0  0  0  0  0  0  0  0  0  0
    2.0301   -0.5623    1.1467 H   0  0  0  0  0  0  0  0  0  0  0  0
    2.8230   -1.0938   -0.3280 H   0  0  0  0  0  0  0  0  0  0  0  0
   -1.7838   -2.3653    0.2013 H   0  0  0  0  0  0  0  0  0  0  0  0
   -3.0160   -0.9223    1.5603 H   0  0  0  0  0  0  0  0  0  0  0  0
   -3.9994   -1.0533    0.1044 H   0  0  0  0  0  0  0  0  0  0  0  0
   -1.4871    3.5144   -0.4008 H   0  0  0  0  0  0  0  0  0  0  0  0
    2.9169    2.6168   -0.0472 H   0  0  0  0  0  0  0  0  0  0  0  0
    4.0861    1.5214   -1.8265 H   0  0  0  0  0  0  0  0  0  0  0  0
    4.5107    0.2272   -0.7070 H   0  0  0  0  0  0  0  0  0  0  0  0
    1.7858   -3.5427   -1.5536 H   0  0  0  0  0  0  0  0  0  0  0  0
   -0.1738   -2.2708    2.0807 H   0  0  0  0  0  0  0  0  0  0  0  0
   -5.7997    0.8031    1.3341 H   0  0  0  0  0  0  0  0  0  0  0  0
   -3.6566    5.1851    0.2312 H   0  0  0  0  0  0  0  0  0  0  0  0
   -7.0562    2.9217    1.5970 H   0  0  0  0  0  0  0  0  0  0  0  0
    1.9626   -5.8293   -0.6379 H   0  0  0  0  0  0  0  0  0  0  0  0
   -0.0051   -4.5545    2.9624 H   0  0  0  0  0  0  0  0  0  0  0  0
   -6.0038    5.0872    1.0547 H   0  0  0  0  0  0  0  0  0  0  0  0
   -3.7251   -1.4693   -3.7585 H   0  0  0  0  0  0  0  0  0  0  0  0
   -4.5257   -2.9771   -3.2620 H   0  0  0  0  0  0  0  0  0  0  0  0
   -2.8127   -3.0213   -3.7364 H   0  0  0  0  0  0  0  0  0  0  0  0
    5.7036    1.4142    1.7829 H   0  0  0  0  0  0  0  0  0  0  0  0
    7.8355    2.9807    1.9137 H   0  0  0  0  0  0  0  0  0  0  0  0
    8.2722    4.1811   -0.3885 H   0  0  0  0  0  0  0  0  0  0  0  0
  1 29  1  0  0  0  0
  1 35  1  0  0  0  0
  2 31  1  0  0  0  0
  3 20  1  0  0  0  0
  3 32  1  0  0  0  0
  4 20  2  0  0  0  0
  5  8  1  0  0  0  0
  5  9  1  0  0  0  0
  5 13  1  0  0  0  0
  6 14  1  0  0  0  0
  6 19  1  0  0  0  0
  6 46  1  0  0  0  0
  7 11  1  0  0  0  0
  7 21  1  0  0  0  0
  7 47  1  0  0  0  0
  8 10  1  0  0  0  0
  8 14  1  0  0  0  0
  8 36  1  0  0  0  0
  9 12  1  0  0  0  0
  9 17  1  0  0  0  0
  9 37  1  0  0  0  0
 10 11  1  0  0  0  0
 10 38  1  0  0  0  0
 10 39  1  0  0  0  0
 11 12  1  0  0  0  0
 11 40  1  0  0  0  0
 12 41  1  0  0  0  0
 12 42  1  0  0  0  0
 13 15  1  0  0  0  0
 13 20  1  0  0  0  0
 13 43  1  0  0  0  0
 14 16  2  0  0  0  0
 15 16  1  0  0  0  0
 15 44  1  0  0  0  0
 15 45  1  0  0  0  0
 16 18  1  0  0  0  0
 17 22  2  0  0  0  0
 17 23  1  0  0  0  0
 18 19  1  0  0  0  0
 18 24  2  0  0  0  0
 19 25  2  0  0  0  0
 21 29  1  0  0  0  0
 21 48  1  0  0  0  0
 21 49  1  0  0  0  0
 22 27  1  0  0  0  0
 22 50  1  0  0  0  0
 23 28  2  0  0  0  0
 23 51  1  0  0  0  0
 24 26  1  0  0  0  0
 24 52  1  0  0  0  0
 25 30  1  0  0  0  0
 25 53  1  0  0  0  0
 26 30  2  0  0  0  0
 26 54  1  0  0  0  0
 27 31  2  0  0  0  0
 27 55  1  0  0  0  0
 28 31  1  0  0  0  0
 28 56  1  0  0  0  0
 29 33  2  0  0  0  0
 30 57  1  0  0  0  0
 32 58  1  0  0  0  0
 32 59  1  0  0  0  0
 32 60  1  0  0  0  0
 33 34  1  0  0  0  0
 33 61  1  0  0  0  0
 34 35  2  0  0  0  0
 34 62  1  0  0  0  0
 35 63  1  0  0  0  0
M  END
> <PUBCHEM_COMPOUND_CID>
28991371

> <PUBCHEM_CONFORMER_RMSD>
1

> <PUBCHEM_CONFORMER_DIVERSEORDER>
1
27
21
7
18
26
5
11
16
20
22
19
10
14
8
9
13
4
23
25
6
15
3
24
17
12
28
2

> <PUBCHEM_MMFF94_PARTIAL_CHARGES>
45
1 -0.08
11 0.27
13 0.33
14 -0.33
15 0.18
16 -0.18
17 -0.14
19 -0.15
2 -0.19
20 0.66
21 0.45
22 -0.15
23 -0.15
24 -0.15
25 -0.15
26 -0.15
27 -0.15
28 -0.15
29 -0.14
3 -0.43
30 -0.15
31 0.19
32 0.28
33 -0.15
34 -0.15
35 -0.11
4 -0.57
46 0.27
47 0.36
5 -0.81
50 0.15
51 0.15
52 0.15
53 0.15
54 0.15
55 0.15
56 0.15
57 0.15
6 0.03
61 0.15
62 0.15
63 0.15
7 -0.9
8 0.45
9 0.41

> <PUBCHEM_EFFECTIVE_ROTOR_COUNT>
7.2

> <PUBCHEM_PHARMACOPHORE_FEATURES>
12
1 4 acceptor
1 5 cation
1 6 cation
1 6 donor
1 7 cation
1 7 donor
5 1 29 33 34 35 rings
5 6 14 16 18 19 rings
6 17 22 23 27 28 31 rings
6 18 19 24 25 26 30 rings
6 5 8 13 14 15 16 rings
6 5 8 9 10 11 12 rings

> <PUBCHEM_HEAVY_ATOM_COUNT>
35

> <PUBCHEM_ATOM_DEF_STEREO_COUNT>
4

> <PUBCHEM_ATOM_UDEF_STEREO_COUNT>
0

> <PUBCHEM_BOND_DEF_STEREO_COUNT>
0

> <PUBCHEM_BOND_UDEF_STEREO_COUNT>
0

> <PUBCHEM_ISOTOPIC_ATOM_COUNT>
0

> <PUBCHEM_COMPONENT_COUNT>
1

> <PUBCHEM_CACTVS_TAUTO_COUNT>
1

> <PUBCHEM_CONFORMER_ID>
01BA5F8B00000001

> <PUBCHEM_MMFF94_ENERGY>
75.4092

> <PUBCHEM_FEATURE_SELFOVERLAP>
61.092

> <PUBCHEM_SHAPE_FINGERPRINT>
10190206 1 18129932486212077045
10290309 65 18264206920291135428
10675989 125 18197509428696232328
11136131 41 18261673671138083803
11421498 54 18198043950277108335
11445158 3 17242187953080732893
12608794 3 18041278888980796980
12788726 201 18197484337169786686
12988421 55 18261382360897307148
13140716 1 18336546010985338314
13540713 5 18269538503496914374
13911987 19 18045479049010332167
14565420 104 18337678503308817136
14659021 117 17983285225672462036
14790565 3 18410015438156998600
15064981 194 17827931946714294876
15219463 3 17754422936638926204
15361156 5 17768813414223366500
15448158 71 18268137661327566864
15513586 35 16375529901645503052
15684973 49 18199449104509354610
15927050 60 18339648854179306719
16090146 7 17969778773191785630
16114785 44 18340497779791566523
17980427 26 18337105653408325486
18393751 57 18334584559119177169
19319366 153 18339362967891115272
20505436 4 18202005404582085637
21033648 29 18343016735969093696
21424621 283 18411705408988233968
22311459 1 18121502616386773896
23522609 53 17460609258835015044
23559900 14 17757555149425218017
244849 19 17536630363733902465
249999 5 18193562164155137768
283562 15 18339070614062898351
3411729 13 18268435624678133657
376196 1 18131633387729006332
4144715 1 18123195860627225696
4408954 64 15797405549647037402
4409770 3 17828478399239661962
44249763 50 17560511911177680580
5171179 24 17415269817492192472
5219985 13 18411423912494404260
5265222 85 18339931527436556392
563151 40 18343025518511756680
563151 97 18410284826689368357
57527293 21 18057051208278827425
6058803 2 18126826241193617415
6371380 46 18338531742471371246
6673363 416 17257379540898662470
6691757 9 18190725605409304224
6695519 79 18051450380859535033
6697151 62 17251442207391279317
6700243 42 17115559488564930204
7288768 16 18187651322772070578
9896288 288 18340495572648199451
9981440 41 18335147504755655768

> <PUBCHEM_SHAPE_MULTIPOLES>
690.18
14.23
8.47
1.81
21.52
11.47
1.14
-28.46
-1.57
0.38
-3.93
-1.33
1.99
-3.8

> <PUBCHEM_SHAPE_SELFOVERLAP>
1509.975

> <PUBCHEM_SHAPE_VOLUME>
378.9

> <PUBCHEM_COORDINATE_TYPE>
2
5
10

$$$$
