38027396
  -OEChem-12032416253D

 68 69  0     1  0  0  0  0  0999 V2000
    2.3466   -2.8160    1.1900 S   0  0  0  0  0  0  0  0  0  0  0  0
   -0.8195    3.8873    0.1113 O   0  0  0  0  0  0  0  0  0  0  0  0
    2.3801   -2.9384    2.6349 O   0  0  0  0  0  0  0  0  0  0  0  0
    2.9909   -3.8143    0.3583 O   0  0  0  0  0  0  0  0  0  0  0  0
    2.9084   -1.2707    0.7437 N   0  0  0  0  0  0  0  0  0  0  0  0
   -1.4662    2.1702    1.5375 N   0  0  0  0  0  0  0  0  0  0  0  0
   -4.8565    1.6036    0.1043 N   0  0  0  0  0  0  0  0  0  0  0  0
   -4.5005   -2.5144   -0.8366 N   0  0  0  0  0  0  0  0  0  0  0  0
    1.6849    0.6596   -1.1944 C   0  0  1  0  0  0  0  0  0  0  0  0
    3.2023    0.4021   -1.0182 C   0  0  1  0  0  0  0  0  0  0  0  0
    1.3934    2.1680   -1.1935 C   0  0  0  0  0  0  0  0  0  0  0  0
    1.8563    2.8501    0.1077 C   0  0  2  0  0  0  0  0  0  0  0  0
    1.1465    0.0281   -2.4821 C   0  0  0  0  0  0  0  0  0  0  0  0
    3.2606    2.4321    0.4937 C   0  0  0  0  0  0  0  0  0  0  0  0
    3.8507    1.3428   -0.0298 C   0  0  0  0  0  0  0  0  0  0  0  0
    3.4721   -1.0468   -0.5966 C   0  0  0  0  0  0  0  0  0  0  0  0
    0.8709    2.5847    1.2512 C   0  0  0  0  0  0  0  0  0  0  0  0
   -0.3656    0.2078   -2.5711 C   0  0  0  0  0  0  0  0  0  0  0  0
    1.8361    0.6339   -3.7003 C   0  0  0  0  0  0  0  0  0  0  0  0
    3.9896    3.3214    1.4623 C   0  0  0  0  0  0  0  0  0  0  0  0
   -0.5434    2.9746    0.8850 C   0  0  0  0  0  0  0  0  0  0  0  0
    0.6531   -2.7415    0.6887 C   0  0  0  0  0  0  0  0  0  0  0  0
   -2.8945    2.3179    1.3772 C   0  0  0  0  0  0  0  0  0  0  0  0
   -3.4117    1.4621    0.2303 C   0  0  0  0  0  0  0  0  0  0  0  0
    0.2885   -3.1372   -0.5983 C   0  0  0  0  0  0  0  0  0  0  0  0
   -0.3187   -2.2873    1.5804 C   0  0  0  0  0  0  0  0  0  0  0  0
   -1.0478   -3.0786   -0.9935 C   0  0  0  0  0  0  0  0  0  0  0  0
   -1.6550   -2.2287    1.1850 C   0  0  0  0  0  0  0  0  0  0  0  0
   -2.0196   -2.6244   -0.1018 C   0  0  0  0  0  0  0  0  0  0  0  0
   -5.5443    0.8014    1.1180 C   0  0  0  0  0  0  0  0  0  0  0  0
   -5.2987    1.2141   -1.2361 C   0  0  0  0  0  0  0  0  0  0  0  0
   -3.3888   -2.5637   -0.5074 C   0  0  0  0  0  0  0  0  0  0  0  0
    1.1375    0.2182   -0.3524 H   0  0  0  0  0  0  0  0  0  0  0  0
    3.7451    0.5737   -1.9510 H   0  0  0  0  0  0  0  0  0  0  0  0
    0.3436    2.3809   -1.3952 H   0  0  0  0  0  0  0  0  0  0  0  0
    1.9521    2.6562   -2.0021 H   0  0  0  0  0  0  0  0  0  0  0  0
    1.8661    3.9305   -0.0945 H   0  0  0  0  0  0  0  0  0  0  0  0
    1.3455   -1.0482   -2.4768 H   0  0  0  0  0  0  0  0  0  0  0  0
    4.8782    1.1168    0.2491 H   0  0  0  0  0  0  0  0  0  0  0  0
    4.5516   -1.2342   -0.5474 H   0  0  0  0  0  0  0  0  0  0  0  0
    3.0546   -1.7477   -1.3236 H   0  0  0  0  0  0  0  0  0  0  0  0
    1.1399    3.1743    2.1361 H   0  0  0  0  0  0  0  0  0  0  0  0
    0.9089    1.5298    1.5496 H   0  0  0  0  0  0  0  0  0  0  0  0
   -0.6564    1.2198   -2.8699 H   0  0  0  0  0  0  0  0  0  0  0  0
   -0.8589   -0.0286   -1.6233 H   0  0  0  0  0  0  0  0  0  0  0  0
   -0.7750   -0.4681   -3.3308 H   0  0  0  0  0  0  0  0  0  0  0  0
    1.6618    1.7063   -3.8182 H   0  0  0  0  0  0  0  0  0  0  0  0
    1.4243    0.1683   -4.6053 H   0  0  0  0  0  0  0  0  0  0  0  0
    2.9090    0.4393   -3.7420 H   0  0  0  0  0  0  0  0  0  0  0  0
    4.0259    4.3475    1.0826 H   0  0  0  0  0  0  0  0  0  0  0  0
    5.0220    2.9943    1.6257 H   0  0  0  0  0  0  0  0  0  0  0  0
    3.4886    3.3266    2.4349 H   0  0  0  0  0  0  0  0  0  0  0  0
    3.2299   -0.6451    1.4922 H   0  0  0  0  0  0  0  0  0  0  0  0
   -1.1405    1.4358    2.1592 H   0  0  0  0  0  0  0  0  0  0  0  0
   -3.3339    2.0284    2.3362 H   0  0  0  0  0  0  0  0  0  0  0  0
   -3.1249    3.3757    1.2047 H   0  0  0  0  0  0  0  0  0  0  0  0
   -2.9166    1.8111   -0.6864 H   0  0  0  0  0  0  0  0  0  0  0  0
   -3.1107    0.4151    0.3542 H   0  0  0  0  0  0  0  0  0  0  0  0
    1.0288   -3.4888   -1.3111 H   0  0  0  0  0  0  0  0  0  0  0  0
   -0.0548   -1.9667    2.5841 H   0  0  0  0  0  0  0  0  0  0  0  0
   -1.3161   -3.3874   -2.0010 H   0  0  0  0  0  0  0  0  0  0  0  0
   -2.4007   -1.8688    1.8899 H   0  0  0  0  0  0  0  0  0  0  0  0
   -5.3110    1.1413    2.1314 H   0  0  0  0  0  0  0  0  0  0  0  0
   -5.2976   -0.2636    1.0449 H   0  0  0  0  0  0  0  0  0  0  0  0
   -6.6304    0.9043    1.0106 H   0  0  0  0  0  0  0  0  0  0  0  0
   -4.8434    1.8614   -1.9941 H   0  0  0  0  0  0  0  0  0  0  0  0
   -6.3831    1.3360   -1.3353 H   0  0  0  0  0  0  0  0  0  0  0  0
   -5.0446    0.1763   -1.4729 H   0  0  0  0  0  0  0  0  0  0  0  0
  1  3  2  0  0  0  0
  1  4  2  0  0  0  0
  1  5  1  0  0  0  0
  1 22  1  0  0  0  0
  2 21  2  0  0  0  0
  5 16  1  0  0  0  0
  5 53  1  0  0  0  0
  6 21  1  0  0  0  0
  6 23  1  0  0  0  0
  6 54  1  0  0  0  0
  7 24  1  0  0  0  0
  7 30  1  0  0  0  0
  7 31  1  0  0  0  0
  8 32  3  0  0  0  0
  9 10  1  0  0  0  0
  9 11  1  0  0  0  0
  9 13  1  0  0  0  0
  9 33  1  0  0  0  0
 10 15  1  0  0  0  0
 10 16  1  0  0  0  0
 10 34  1  0  0  0  0
 11 12  1  0  0  0  0
 11 35  1  0  0  0  0
 11 36  1  0  0  0  0
 12 14  1  0  0  0  0
 12 17  1  0  0  0  0
 12 37  1  0  0  0  0
 13 18  1  0  0  0  0
 13 19  1  0  0  0  0
 13 38  1  0  0  0  0
 14 15  2  0  0  0  0
 14 20  1  0  0  0  0
 15 39  1  0  0  0  0
 16 40  1  0  0  0  0
 16 41  1  0  0  0  0
 17 21  1  0  0  0  0
 17 42  1  0  0  0  0
 17 43  1  0  0  0  0
 18 44  1  0  0  0  0
 18 45  1  0  0  0  0
 18 46  1  0  0  0  0
 19 47  1  0  0  0  0
 19 48  1  0  0  0  0
 19 49  1  0  0  0  0
 20 50  1  0  0  0  0
 20 51  1  0  0  0  0
 20 52  1  0  0  0  0
 22 25  2  0  0  0  0
 22 26  1  0  0  0  0
 23 24  1  0  0  0  0
 23 55  1  0  0  0  0
 23 56  1  0  0  0  0
 24 57  1  0  0  0  0
 24 58  1  0  0  0  0
 25 27  1  0  0  0  0
 25 59  1  0  0  0  0
 26 28  2  0  0  0  0
 26 60  1  0  0  0  0
 27 29  2  0  0  0  0
 27 61  1  0  0  0  0
 28 29  1  0  0  0  0
 28 62  1  0  0  0  0
 29 32  1  0  0  0  0
 30 63  1  0  0  0  0
 30 64  1  0  0  0  0
 30 65  1  0  0  0  0
 31 66  1  0  0  0  0
 31 67  1  0  0  0  0
 31 68  1  0  0  0  0
M  END
> <PUBCHEM_COMPOUND_CID>
38027396

> <PUBCHEM_CONFORMER_RMSD>
1.2

> <PUBCHEM_CONFORMER_DIVERSEORDER>
2
209
22
28
47
146
186
103
172
192
142
43
164
76
30
51
156
95
58
69
155
57
204
135
42
141
87
81
91
75
35
183
126
73
99
25
26
127
4
197
37
70
90
137
80
159
53
138
133
38
33
119
147
206
92
136
124
11
120
174
84
24
93
170
165
160
78
56
167
109
101
7
117
68
112
85
201
199
182
32
129
13
9
34
63
18
145
67
200
173
105
72
131
96
59
89
60
66
162
118
40
178
100
44
161
29
153
114
132
122
144
52
17
196
125
14
12
20
19
54
157
123
45
1
203
217
152
143
102
104
176
36
195
61
185
212
198
169
140
5
106
208
27
6
184
77
86
97
193
82
55
16
65
158
71
151
116
216
150
166
39
181
194
210
168
171
191
190
211
31
215
205
154
88
108
10
74
41
180
189
23
139
111
50
49
62
113
8
48
110
15
46
128
213
175
207
94
188
79
130
187
83
163
214
179
21
3
134
64
149
121
98
177
202
148
115
107

> <PUBCHEM_MMFF94_PARTIAL_CHARGES>
34
1 1.45
10 0.14
12 0.14
14 -0.28
15 -0.29
16 0.36
17 0.06
2 -0.57
20 0.14
21 0.57
22 -0.01
23 0.3
24 0.27
25 -0.15
26 -0.15
27 -0.15
28 -0.15
29 0.07
3 -0.65
30 0.27
31 0.27
32 0.48
39 0.15
4 -0.65
5 -0.91
53 0.42
54 0.37
59 0.15
6 -0.73
60 0.15
61 0.15
62 0.15
7 -0.81
8 -0.56

> <PUBCHEM_EFFECTIVE_ROTOR_COUNT>
11.8

> <PUBCHEM_PHARMACOPHORE_FEATURES>
10
1 2 acceptor
1 3 acceptor
1 4 acceptor
1 5 donor
1 6 donor
1 7 cation
1 8 acceptor
3 13 18 19 hydrophobe
6 22 25 26 27 28 29 rings
6 9 10 11 12 14 15 rings

> <PUBCHEM_HEAVY_ATOM_COUNT>
32

> <PUBCHEM_ATOM_DEF_STEREO_COUNT>
3

> <PUBCHEM_ATOM_UDEF_STEREO_COUNT>
0

> <PUBCHEM_BOND_DEF_STEREO_COUNT>
0

> <PUBCHEM_BOND_UDEF_STEREO_COUNT>
0

> <PUBCHEM_ISOTOPIC_ATOM_COUNT>
0

> <PUBCHEM_COMPONENT_COUNT>
1

> <PUBCHEM_CACTVS_TAUTO_COUNT>
2

> <PUBCHEM_CONFORMER_ID>
0244408400000002

> <PUBCHEM_MMFF94_ENERGY>
50.2153

> <PUBCHEM_FEATURE_SELFOVERLAP>
50.764

> <PUBCHEM_SHAPE_FINGERPRINT>
10032420 55 17693660724205714617
10675989 125 17978506761318695577
10708813 3 18335139804016385079
1100329 8 18338231557493850130
11513181 2 17478057055402510983
11828532 37 17326604208519188455
12156800 1 16197296746788132924
12422481 6 17606088810935814824
12788726 201 17689725572063270593
13122387 1 18339369552139134305
14117953 113 17475229103364378357
18336668 15 18115864097094451499
20764821 26 18339369685562929057
25222932 49 18341896350609451573
3052486 1 18265332983152982112
3298306 158 18334021597029271305
35225 105 18341619148671559052
463206 1 17617667548755609545
469060 322 17824554191475143863
6287921 2 17335630704670840315
6669772 16 18340198687070484985

> <PUBCHEM_SHAPE_MULTIPOLES>
624.86
8.37
5.78
2.43
9.29
1.47
-1.68
-3.67
0.51
-0.61
2.62
-1.18
0.08
-0.91

> <PUBCHEM_SHAPE_SELFOVERLAP>
1261.302

> <PUBCHEM_SHAPE_VOLUME>
367.5

> <PUBCHEM_COORDINATE_TYPE>
2
5
10

$$$$
