75536513
  -OEChem-12032416303D

 47 47  0     1  0  0  0  0  0999 V2000
   -0.2577    0.3136   -0.2668 O   0  0  0  0  0  0  0  0  0  0  0  0
   -2.3226   -2.2973    1.0841 O   0  0  0  0  0  0  0  0  0  0  0  0
    2.2160   -0.2531   -1.9361 O   0  0  0  0  0  0  0  0  0  0  0  0
   -3.8779   -0.0108   -0.4088 N   0  0  0  0  0  0  0  0  0  0  0  0
    1.9422   -1.5353   -0.0173 N   0  0  0  0  0  0  0  0  0  0  0  0
   -2.5599   -0.0324    0.2044 C   0  0  1  0  0  0  0  0  0  0  0  0
   -1.8664   -1.3788    0.1101 C   0  0  1  0  0  0  0  0  0  0  0  0
   -0.4158   -0.9784    0.3429 C   0  0  1  0  0  0  0  0  0  0  0  0
   -1.5628    0.8698   -0.5042 C   0  0  0  0  0  0  0  0  0  0  0  0
    0.5803   -1.9546   -0.2574 C   0  0  0  0  0  0  0  0  0  0  0  0
   -4.6263    1.1732   -0.0038 C   0  0  0  0  0  0  0  0  0  0  0  0
    4.2111    0.8572    0.4410 C   0  0  0  0  0  0  0  0  0  0  0  0
    4.0627   -0.4282   -0.4074 C   0  0  0  0  0  0  0  0  0  0  0  0
    2.6476   -0.7159   -0.8821 C   0  0  0  0  0  0  0  0  0  0  0  0
   -5.2113    0.9774    1.3920 C   0  0  0  0  0  0  0  0  0  0  0  0
   -5.7250    1.4530   -1.0241 C   0  0  0  0  0  0  0  0  0  0  0  0
    5.6735    1.0756    0.8641 C   0  0  0  0  0  0  0  0  0  0  0  0
    3.7708    2.0539   -0.4248 C   0  0  0  0  0  0  0  0  0  0  0  0
    3.3217    0.8109    1.6940 C   0  0  0  0  0  0  0  0  0  0  0  0
   -2.6087    0.2345    1.2673 H   0  0  0  0  0  0  0  0  0  0  0  0
   -1.9998   -1.8226   -0.8843 H   0  0  0  0  0  0  0  0  0  0  0  0
   -0.2084   -0.8613    1.4148 H   0  0  0  0  0  0  0  0  0  0  0  0
   -1.7135    0.8858   -1.5898 H   0  0  0  0  0  0  0  0  0  0  0  0
   -1.5866    1.9004   -0.1377 H   0  0  0  0  0  0  0  0  0  0  0  0
    0.4354   -2.0336   -1.3408 H   0  0  0  0  0  0  0  0  0  0  0  0
    0.4626   -2.9499    0.1828 H   0  0  0  0  0  0  0  0  0  0  0  0
   -4.3960   -0.8521   -0.1571 H   0  0  0  0  0  0  0  0  0  0  0  0
   -3.9804    2.0598    0.0073 H   0  0  0  0  0  0  0  0  0  0  0  0
    2.3877   -1.8579    0.8365 H   0  0  0  0  0  0  0  0  0  0  0  0
   -2.2033   -1.8968    1.9619 H   0  0  0  0  0  0  0  0  0  0  0  0
    4.4282   -1.2913    0.1642 H   0  0  0  0  0  0  0  0  0  0  0  0
    4.6995   -0.3710   -1.3000 H   0  0  0  0  0  0  0  0  0  0  0  0
   -5.8560    0.0920    1.4377 H   0  0  0  0  0  0  0  0  0  0  0  0
   -4.4406    0.8740    2.1613 H   0  0  0  0  0  0  0  0  0  0  0  0
   -5.8246    1.8418    1.6710 H   0  0  0  0  0  0  0  0  0  0  0  0
   -6.4360    0.6214   -1.0882 H   0  0  0  0  0  0  0  0  0  0  0  0
   -5.3019    1.6140   -2.0220 H   0  0  0  0  0  0  0  0  0  0  0  0
   -6.2865    2.3535   -0.7525 H   0  0  0  0  0  0  0  0  0  0  0  0
    5.7905    2.0002    1.4404 H   0  0  0  0  0  0  0  0  0  0  0  0
    6.3311    1.1406   -0.0098 H   0  0  0  0  0  0  0  0  0  0  0  0
    6.0273    0.2462    1.4865 H   0  0  0  0  0  0  0  0  0  0  0  0
    3.9444    3.0001    0.1014 H   0  0  0  0  0  0  0  0  0  0  0  0
    4.3328    2.0936   -1.3648 H   0  0  0  0  0  0  0  0  0  0  0  0
    2.7037    2.0183   -0.6681 H   0  0  0  0  0  0  0  0  0  0  0  0
    3.5463   -0.0724    2.3019 H   0  0  0  0  0  0  0  0  0  0  0  0
    3.4841    1.6943    2.3226 H   0  0  0  0  0  0  0  0  0  0  0  0
    2.2562    0.7903    1.4439 H   0  0  0  0  0  0  0  0  0  0  0  0
  1  8  1  0  0  0  0
  1  9  1  0  0  0  0
  2  7  1  0  0  0  0
  2 30  1  0  0  0  0
  3 14  2  0  0  0  0
  4  6  1  0  0  0  0
  4 11  1  0  0  0  0
  4 27  1  0  0  0  0
  5 10  1  0  0  0  0
  5 14  1  0  0  0  0
  5 29  1  0  0  0  0
  6  7  1  0  0  0  0
  6  9  1  0  0  0  0
  6 20  1  0  0  0  0
  7  8  1  0  0  0  0
  7 21  1  0  0  0  0
  8 10  1  0  0  0  0
  8 22  1  0  0  0  0
  9 23  1  0  0  0  0
  9 24  1  0  0  0  0
 10 25  1  0  0  0  0
 10 26  1  0  0  0  0
 11 15  1  0  0  0  0
 11 16  1  0  0  0  0
 11 28  1  0  0  0  0
 12 13  1  0  0  0  0
 12 17  1  0  0  0  0
 12 18  1  0  0  0  0
 12 19  1  0  0  0  0
 13 14  1  0  0  0  0
 13 31  1  0  0  0  0
 13 32  1  0  0  0  0
 15 33  1  0  0  0  0
 15 34  1  0  0  0  0
 15 35  1  0  0  0  0
 16 36  1  0  0  0  0
 16 37  1  0  0  0  0
 16 38  1  0  0  0  0
 17 39  1  0  0  0  0
 17 40  1  0  0  0  0
 17 41  1  0  0  0  0
 18 42  1  0  0  0  0
 18 43  1  0  0  0  0
 18 44  1  0  0  0  0
 19 45  1  0  0  0  0
 19 46  1  0  0  0  0
 19 47  1  0  0  0  0
M  END
> <PUBCHEM_COMPOUND_CID>
75536513

> <PUBCHEM_CONFORMER_RMSD>
0.8

> <PUBCHEM_CONFORMER_DIVERSEORDER>
1
211
55
71
124
90
73
95
256
122
217
163
53
140
196
257
11
57
202
151
77
68
89
195
251
85
66
72
75
178
119
12
223
245
157
14
129
88
187
62
120
131
220
246
175
69
4
52
188
174
137
106
103
105
243
114
25
221
233
191
210
154
41
22
155
161
130
142
102
189
29
253
91
63
24
230
160
136
169
143
166
204
16
43
67
199
213
118
42
231
84
177
149
126
107
167
248
201
127
153
141
96
203
197
159
83
219
37
198
148
242
200
116
44
110
224
49
39
58
208
147
20
46
93
74
104
156
112
18
215
97
158
128
171
99
172
8
185
45
176
38
152
48
249
252
234
61
236
218
168
23
186
111
145
3
59
237
139
162
183
79
173
32
64
254
115
60
13
94
101
5
80
165
225
15
235
184
70
134
133
194
228
27
9
150
132
227
181
87
192
56
81
121
33
35
86
113
250
135
216
98
7
259
19
258
179
31
206
146
117
30
182
34
260
65
92
78
247
238
214
54
123
239
164
109
100
212
76
241
222
47
17
6
51
40
209
232
226
229
170
138
26
205
190
193
244
36
144
50
2
125
82
207
240
108
180
28
10
255
21

> <PUBCHEM_MMFF94_PARTIAL_CHARGES>
16
1 -0.56
10 0.3
11 0.27
13 0.06
14 0.57
2 -0.68
27 0.36
29 0.37
3 -0.57
30 0.4
4 -0.9
5 -0.73
6 0.27
7 0.28
8 0.28
9 0.28

> <PUBCHEM_EFFECTIVE_ROTOR_COUNT>
8

> <PUBCHEM_PHARMACOPHORE_FEATURES>
10
1 1 acceptor
1 2 acceptor
1 2 donor
1 3 acceptor
1 4 cation
1 4 donor
1 5 donor
3 11 15 16 hydrophobe
4 12 17 18 19 hydrophobe
5 1 6 7 8 9 rings

> <PUBCHEM_HEAVY_ATOM_COUNT>
19

> <PUBCHEM_ATOM_DEF_STEREO_COUNT>
3

> <PUBCHEM_ATOM_UDEF_STEREO_COUNT>
0

> <PUBCHEM_BOND_DEF_STEREO_COUNT>
0

> <PUBCHEM_BOND_UDEF_STEREO_COUNT>
0

> <PUBCHEM_ISOTOPIC_ATOM_COUNT>
0

> <PUBCHEM_COMPONENT_COUNT>
1

> <PUBCHEM_CACTVS_TAUTO_COUNT>
2

> <PUBCHEM_CONFORMER_ID>
0480988100000001

> <PUBCHEM_MMFF94_ENERGY>
32.231

> <PUBCHEM_FEATURE_SELFOVERLAP>
50.746

> <PUBCHEM_SHAPE_FINGERPRINT>
10014705 185 18410291424101954623
11132069 177 18187088359970858887
11543360 7 16702295746378162783
12403259 415 18261392178859866204
12596602 18 16008756817984584964
12616999 72 15339117905682471678
12633257 1 18188197793305638232
12969540 114 18271513222559816525
13533116 47 18263361382842777674
13675066 3 17385444302036336875
13955234 65 18196378021992755731
14123256 34 11386358198139302648
14251758 9 8286207162992404215
14251764 30 13407341929688740056
14252887 29 8718536199600514558
14366163 111 17060339595807482873
14528608 73 17346590876873088301
15375358 24 18413109463402592231
17834072 32 18268148837243680588
17834072 33 16988836181758603317
17959699 21 17917716760119622625
17980427 23 17969221303621831110
1813 80 11743831469848014803
193927 3 9655571920392696007
20388580 30 10159693621019963146
20645477 56 18186803560873986551
20645477 70 17489312936514136334
20715895 44 18335697213420459085
21150785 3 16917056777295532525
21452121 103 18262232214291242634
21618674 25 18411980243401893559
23402539 116 18271798064711746132
23402655 69 17561362889820756500
23557571 272 18270970166388955830
23559900 14 18411426081463360502
23590187 173 18343300370854482236
2838139 119 17918268749332595000
2916195 48 18410573964362611809
3060560 45 16200432485995977708
34797466 226 15626222459337433017
351380 180 18341609326476829228
351380 3 10953457427351656120
3680242 22 18334294232414673696
42 15 13406795510473304263
4259306 186 10231758881257749817
465052 167 11169914961713161616
474 4 18413671322355380920
495365 180 18201995500002697182
5104073 3 18334300829669258419
53917941 68 18334282177027146631
59682541 52 16271664325480071324
960060 61 13973965380847878253

> <PUBCHEM_SHAPE_MULTIPOLES>
363.44
12.75
2.01
1.28
4.7
0.48
0.06
-8.29
1.23
-0.02
0.15
-0.15
-0.17
0.99

> <PUBCHEM_SHAPE_SELFOVERLAP>
710.943

> <PUBCHEM_SHAPE_VOLUME>
221.4

> <PUBCHEM_COORDINATE_TYPE>
2
5
10

$$$$
