11866248
  -OEChem-12032416153D

 59 63  0     1  0  0  0  0  0999 V2000
   -0.8150   -2.5255    0.9527 S   0  0  0  0  0  0  0  0  0  0  0  0
   -3.7256   -0.1949   -0.9989 S   0  0  0  0  0  0  0  0  0  0  0  0
    4.3406    1.9444   -0.1172 O   0  0  0  0  0  0  0  0  0  0  0  0
    6.1048    3.4195   -0.1527 O   0  0  0  0  0  0  0  0  0  0  0  0
   -3.9176   -1.1543   -2.0693 O   0  0  0  0  0  0  0  0  0  0  0  0
   -3.0100    1.0438   -1.2410 O   0  0  0  0  0  0  0  0  0  0  0  0
   -0.8296   -0.1175    0.0087 N   0  0  0  0  0  0  0  0  0  0  0  0
   -3.0591   -0.9971    0.3735 N   0  0  0  0  0  0  0  0  0  0  0  0
    2.9935   -0.1515    0.2630 C   0  0  1  0  0  0  0  0  0  0  0  0
    3.1142   -1.7214    0.0389 C   0  0  1  0  0  0  0  0  0  0  0  0
    4.2229    0.5406   -0.3505 C   0  0  2  0  0  0  0  0  0  0  0  0
    5.4947    0.0129    0.2850 C   0  0  1  0  0  0  0  0  0  0  0  0
    4.4972   -2.2436    0.5363 C   0  0  0  0  0  0  0  0  0  0  0  0
    5.6964   -1.4587   -0.0140 C   0  0  0  0  0  0  0  0  0  0  0  0
    1.6198    0.4275   -0.2331 C   0  0  1  0  0  0  0  0  0  0  0  0
    1.9987   -2.4405    0.8587 C   0  0  0  0  0  0  0  0  0  0  0  0
    6.5073    1.0080   -0.2491 C   0  0  1  0  0  0  0  0  0  0  0  0
    2.9639   -2.1136   -1.4554 C   0  0  0  0  0  0  0  0  0  0  0  0
    0.4924   -0.4954    0.1607 C   0  0  0  0  0  0  0  0  0  0  0  0
    0.6820   -1.7776    0.6377 C   0  0  0  0  0  0  0  0  0  0  0  0
    5.6773    2.2758   -0.1668 C   0  0  0  0  0  0  0  0  0  0  0  0
    1.3560    1.8444    0.2939 C   0  0  0  0  0  0  0  0  0  0  0  0
    7.7723    1.0826    0.5845 C   0  0  0  0  0  0  0  0  0  0  0  0
   -1.6052   -1.1035    0.4037 C   0  0  0  0  0  0  0  0  0  0  0  0
   -5.3246    0.2497   -0.3849 C   0  0  0  0  0  0  0  0  0  0  0  0
   -5.4880    1.4695    0.2468 C   0  0  0  0  0  0  0  0  0  0  0  0
   -6.3787   -0.6309   -0.5485 C   0  0  0  0  0  0  0  0  0  0  0  0
   -6.7480    1.8203    0.7314 C   0  0  0  0  0  0  0  0  0  0  0  0
   -7.6387   -0.2799   -0.0639 C   0  0  0  0  0  0  0  0  0  0  0  0
   -7.8232    0.9458    0.5760 C   0  0  0  0  0  0  0  0  0  0  0  0
   -9.1709    1.3209    1.0936 C   0  0  0  0  0  0  0  0  0  0  0  0
    3.0268    0.0250    1.3500 H   0  0  0  0  0  0  0  0  0  0  0  0
    4.2166    0.4033   -1.4394 H   0  0  0  0  0  0  0  0  0  0  0  0
    5.4323    0.1402    1.3778 H   0  0  0  0  0  0  0  0  0  0  0  0
    4.6155   -3.3050    0.2846 H   0  0  0  0  0  0  0  0  0  0  0  0
    4.5299   -2.1852    1.6328 H   0  0  0  0  0  0  0  0  0  0  0  0
    6.6161   -1.8203    0.4594 H   0  0  0  0  0  0  0  0  0  0  0  0
    5.8070   -1.6284   -1.0906 H   0  0  0  0  0  0  0  0  0  0  0  0
    1.6314    0.4754   -1.3299 H   0  0  0  0  0  0  0  0  0  0  0  0
    2.2294   -2.3881    1.9308 H   0  0  0  0  0  0  0  0  0  0  0  0
    1.9535   -3.5030    0.5897 H   0  0  0  0  0  0  0  0  0  0  0  0
    6.7454    0.8180   -1.3021 H   0  0  0  0  0  0  0  0  0  0  0  0
    3.0546   -3.1993   -1.5795 H   0  0  0  0  0  0  0  0  0  0  0  0
    1.9929   -1.8276   -1.8701 H   0  0  0  0  0  0  0  0  0  0  0  0
    3.7303   -1.6555   -2.0863 H   0  0  0  0  0  0  0  0  0  0  0  0
    2.0537    2.5717   -0.1263 H   0  0  0  0  0  0  0  0  0  0  0  0
    0.3524    2.1907    0.0212 H   0  0  0  0  0  0  0  0  0  0  0  0
    1.4302    1.8827    1.3863 H   0  0  0  0  0  0  0  0  0  0  0  0
    8.3017    0.1247    0.5814 H   0  0  0  0  0  0  0  0  0  0  0  0
    8.4498    1.8459    0.1872 H   0  0  0  0  0  0  0  0  0  0  0  0
    7.5549    1.3523    1.6239 H   0  0  0  0  0  0  0  0  0  0  0  0
   -3.5160   -1.8773    0.6464 H   0  0  0  0  0  0  0  0  0  0  0  0
   -4.6621    2.1604    0.3844 H   0  0  0  0  0  0  0  0  0  0  0  0
   -6.2527   -1.5919   -1.0374 H   0  0  0  0  0  0  0  0  0  0  0  0
   -6.8794    2.7781    1.2281 H   0  0  0  0  0  0  0  0  0  0  0  0
   -8.4690   -0.9697   -0.1912 H   0  0  0  0  0  0  0  0  0  0  0  0
   -9.7365    0.4348    1.4013 H   0  0  0  0  0  0  0  0  0  0  0  0
   -9.0903    1.9701    1.9721 H   0  0  0  0  0  0  0  0  0  0  0  0
   -9.7374    1.8475    0.3191 H   0  0  0  0  0  0  0  0  0  0  0  0
  1 20  1  0  0  0  0
  1 24  1  0  0  0  0
  2  5  2  0  0  0  0
  2  6  2  0  0  0  0
  2  8  1  0  0  0  0
  2 25  1  0  0  0  0
  3 11  1  0  0  0  0
  3 21  1  0  0  0  0
  4 21  2  0  0  0  0
  7 19  1  0  0  0  0
  7 24  2  0  0  0  0
  8 24  1  0  0  0  0
  8 52  1  0  0  0  0
  9 10  1  0  0  0  0
  9 11  1  0  0  0  0
  9 15  1  0  0  0  0
  9 32  1  0  0  0  0
 10 13  1  0  0  0  0
 10 16  1  0  0  0  0
 10 18  1  0  0  0  0
 11 12  1  0  0  0  0
 11 33  1  0  0  0  0
 12 14  1  0  0  0  0
 12 17  1  0  0  0  0
 12 34  1  0  0  0  0
 13 14  1  0  0  0  0
 13 35  1  0  0  0  0
 13 36  1  0  0  0  0
 14 37  1  0  0  0  0
 14 38  1  0  0  0  0
 15 19  1  0  0  0  0
 15 22  1  0  0  0  0
 15 39  1  0  0  0  0
 16 20  1  0  0  0  0
 16 40  1  0  0  0  0
 16 41  1  0  0  0  0
 17 21  1  0  0  0  0
 17 23  1  0  0  0  0
 17 42  1  0  0  0  0
 18 43  1  0  0  0  0
 18 44  1  0  0  0  0
 18 45  1  0  0  0  0
 19 20  2  0  0  0  0
 22 46  1  0  0  0  0
 22 47  1  0  0  0  0
 22 48  1  0  0  0  0
 23 49  1  0  0  0  0
 23 50  1  0  0  0  0
 23 51  1  0  0  0  0
 25 26  2  0  0  0  0
 25 27  1  0  0  0  0
 26 28  1  0  0  0  0
 26 53  1  0  0  0  0
 27 29  2  0  0  0  0
 27 54  1  0  0  0  0
 28 30  2  0  0  0  0
 28 55  1  0  0  0  0
 29 30  1  0  0  0  0
 29 56  1  0  0  0  0
 30 31  1  0  0  0  0
 31 57  1  0  0  0  0
 31 58  1  0  0  0  0
 31 59  1  0  0  0  0
M  END
> <PUBCHEM_COMPOUND_CID>
11866248

> <PUBCHEM_CONFORMER_RMSD>
0.8

> <PUBCHEM_CONFORMER_DIVERSEORDER>
1
20
21
9
14
23
16
7
4
3
13
24
6
19
10
22
5
8
15
12
17
2
11
18

> <PUBCHEM_MMFF94_PARTIAL_CHARGES>
28
1 -0.08
11 0.28
15 0.18
16 0.18
17 0.06
19 0.05
2 1.45
20 -0.14
21 0.66
24 0.52
25 -0.01
26 -0.15
27 -0.15
28 -0.15
29 -0.15
3 -0.43
30 -0.14
31 0.14
4 -0.57
5 -0.65
52 0.42
53 0.15
54 0.15
55 0.15
56 0.15
6 -0.65
7 -0.57
8 -0.7

> <PUBCHEM_EFFECTIVE_ROTOR_COUNT>
4.2

> <PUBCHEM_PHARMACOPHORE_FEATURES>
10
1 4 acceptor
1 5 acceptor
1 6 acceptor
1 7 acceptor
1 8 donor
5 1 7 19 20 24 rings
5 3 11 12 17 21 rings
6 25 26 27 28 29 30 rings
6 9 10 11 12 13 14 rings
6 9 10 15 16 19 20 rings

> <PUBCHEM_HEAVY_ATOM_COUNT>
31

> <PUBCHEM_ATOM_DEF_STEREO_COUNT>
6

> <PUBCHEM_ATOM_UDEF_STEREO_COUNT>
0

> <PUBCHEM_BOND_DEF_STEREO_COUNT>
0

> <PUBCHEM_BOND_UDEF_STEREO_COUNT>
0

> <PUBCHEM_ISOTOPIC_ATOM_COUNT>
0

> <PUBCHEM_COMPONENT_COUNT>
1

> <PUBCHEM_CACTVS_TAUTO_COUNT>
4

> <PUBCHEM_CONFORMER_ID>
00B5108800000001

> <PUBCHEM_MMFF94_ENERGY>
67.0076

> <PUBCHEM_FEATURE_SELFOVERLAP>
50.931

> <PUBCHEM_SHAPE_FINGERPRINT>
10 15 17312823788020074985
10299344 5 18272650147721521597
10411042 1 17904480702524095002
10906281 52 18411427228055870598
11456790 92 18334287648546411376
11646440 116 17240483602308697797
11796584 16 14907885094446079559
12236239 1 18272930501685634415
12539765 74 18201728331715147983
12788726 201 17560806489713756209
14170010 4 18041000635017774933
14251764 18 18342737416906663709
14394314 77 18339648846054245777
14849402 71 18410576219157652025
14933364 13 18411702071908790953
15183329 4 16630810993808995811
15188451 53 11530482233768179375
15198563 99 14117531908738081723
15276724 80 18411134693638911709
1577012 14 18273492365275833799
15840311 113 18409735036357415037
16120349 18 18409726270614318397
16126227 98 18409450323587442035
16989713 51 16701443707230918303
18608769 82 18261393390721274851
19302320 297 18113620127402338132
20157964 124 18410292506544749234
20715895 44 18336266838485696688
21033648 144 18187074058320886535
21033648 29 18263074586934038760
21298829 104 18412263964746791728
21315759 40 11097854073282096359
21521721 280 18335139791258389171
22224240 67 17894632552766362523
23516275 137 17987820522270357991
23559900 14 18408319974606677482
23576562 1 15051144876257356185
24771293 8 18260548965163506269
2747138 104 17386018243549754849
3178227 256 17822014202965205121
335352 9 18408045105315651998
34797466 226 18271810085908937647
3711267 37 18060146397355875897
4073 2 18260833734902671027
4093350 32 17917712383838117822
4098825 35 18411980269561762795
4112364 45 16298678295302632126
4340502 62 18113616785648295094
445580 126 18408597063761720488
504579 68 17060625499085502986
5104073 3 17967812768965622386
5265222 85 17130978931720893575
5385378 56 18186799154127122090
5758199 1 18334577936832643699
5911458 16 18201445753253595361
59682541 35 17749398066359186849
6328613 192 18342738512023162361
9953998 17 17748834017115670921
9962374 69 9511456694005116752

> <PUBCHEM_SHAPE_MULTIPOLES>
612.23
24.33
2.82
1.07
30.97
0.34
0.3
14.68
-2.97
-4.09
-0.34
0.91
-0.33
-1.04

> <PUBCHEM_SHAPE_SELFOVERLAP>
1303.768

> <PUBCHEM_SHAPE_VOLUME>
344.6

> <PUBCHEM_COORDINATE_TYPE>
2
5
10

$$$$
