71693878
  -OEChem-12032416403D

 48 50  0     1  0  0  0  0  0999 V2000
   -3.5572   -2.6392   -1.3252 F   0  0  0  0  0  0  0  0  0  0  0  0
   -3.0627   -2.8512    0.7758 F   0  0  0  0  0  0  0  0  0  0  0  0
   -1.5428   -2.1987   -0.6354 F   0  0  0  0  0  0  0  0  0  0  0  0
    0.9175    4.2576   -1.1115 O   0  0  0  0  0  0  0  0  0  0  0  0
    3.4776    3.2753   -0.9682 O   0  0  0  0  0  0  0  0  0  0  0  0
   -0.5720   -0.1075   -1.2238 O   0  0  0  0  0  0  0  0  0  0  0  0
   -4.5333   -0.3957    0.2495 O   0  0  0  0  0  0  0  0  0  0  0  0
    3.5586   -3.8326   -0.4797 O   0  0  0  0  0  0  0  0  0  0  0  0
   -0.4282    1.7590    0.1456 N   0  0  0  0  0  0  0  0  0  0  0  0
    1.8761    1.3784    0.9706 C   0  0  2  0  0  0  0  0  0  0  0  0
    0.9660    2.0366   -0.0909 C   0  0  2  0  0  0  0  0  0  0  0  0
    1.2819    3.5255    0.0434 C   0  0  1  0  0  0  0  0  0  0  0  0
    3.0349    2.3798    1.2130 C   0  0  0  0  0  0  0  0  0  0  0  0
    2.7916    3.5413    0.2514 C   0  0  1  0  0  0  0  0  0  0  0  0
    2.3260   -0.0145    0.5835 C   0  0  0  0  0  0  0  0  0  0  0  0
    3.0600   -0.2100   -0.5864 C   0  0  0  0  0  0  0  0  0  0  0  0
    2.0063   -1.1022    1.3961 C   0  0  0  0  0  0  0  0  0  0  0  0
   -1.0899    0.6937   -0.4502 C   0  0  0  0  0  0  0  0  0  0  0  0
    3.4745   -1.4929   -0.9436 C   0  0  0  0  0  0  0  0  0  0  0  0
    2.4208   -2.3852    1.0390 C   0  0  0  0  0  0  0  0  0  0  0  0
   -2.5331    0.5590   -0.1245 C   0  0  0  0  0  0  0  0  0  0  0  0
    3.1550   -2.5806   -0.1309 C   0  0  0  0  0  0  0  0  0  0  0  0
   -3.2344   -0.6234   -0.0786 C   0  0  0  0  0  0  0  0  0  0  0  0
   -3.4606    1.5788    0.1962 C   0  0  0  0  0  0  0  0  0  0  0  0
   -4.6627    0.9467    0.4150 C   0  0  0  0  0  0  0  0  0  0  0  0
   -2.8648   -2.0290   -0.3072 C   0  0  0  0  0  0  0  0  0  0  0  0
   -6.0016    1.4300    0.7804 C   0  0  0  0  0  0  0  0  0  0  0  0
    3.1965   -4.8991    0.3964 C   0  0  0  0  0  0  0  0  0  0  0  0
    1.3200    1.3061    1.9171 H   0  0  0  0  0  0  0  0  0  0  0  0
    1.2005    1.7059   -1.1101 H   0  0  0  0  0  0  0  0  0  0  0  0
    0.7686    3.9587    0.9112 H   0  0  0  0  0  0  0  0  0  0  0  0
    2.9639    2.7463    2.2449 H   0  0  0  0  0  0  0  0  0  0  0  0
    4.0258    1.9303    1.0889 H   0  0  0  0  0  0  0  0  0  0  0  0
    3.1483    4.5011    0.6366 H   0  0  0  0  0  0  0  0  0  0  0  0
   -0.9254    2.3428    0.8118 H   0  0  0  0  0  0  0  0  0  0  0  0
    1.2329    5.1694   -0.9907 H   0  0  0  0  0  0  0  0  0  0  0  0
    4.4295    3.2581   -0.7701 H   0  0  0  0  0  0  0  0  0  0  0  0
    3.3239    0.6205   -1.2336 H   0  0  0  0  0  0  0  0  0  0  0  0
    1.4338   -0.9657    2.3097 H   0  0  0  0  0  0  0  0  0  0  0  0
    4.0465   -1.6390   -1.8558 H   0  0  0  0  0  0  0  0  0  0  0  0
    2.1376   -3.1847    1.7151 H   0  0  0  0  0  0  0  0  0  0  0  0
   -3.2822    2.6432    0.2588 H   0  0  0  0  0  0  0  0  0  0  0  0
   -6.0121    2.5188    0.8912 H   0  0  0  0  0  0  0  0  0  0  0  0
   -6.3237    0.9896    1.7291 H   0  0  0  0  0  0  0  0  0  0  0  0
   -6.7310    1.1606    0.0104 H   0  0  0  0  0  0  0  0  0  0  0  0
    3.5985   -5.8219   -0.0345 H   0  0  0  0  0  0  0  0  0  0  0  0
    2.1095   -5.0206    0.4546 H   0  0  0  0  0  0  0  0  0  0  0  0
    3.6547   -4.7815    1.3843 H   0  0  0  0  0  0  0  0  0  0  0  0
  1 26  1  0  0  0  0
  2 26  1  0  0  0  0
  3 26  1  0  0  0  0
  4 12  1  0  0  0  0
  4 36  1  0  0  0  0
  5 14  1  0  0  0  0
  5 37  1  0  0  0  0
  6 18  2  0  0  0  0
  7 23  1  0  0  0  0
  7 25  1  0  0  0  0
  8 22  1  0  0  0  0
  8 28  1  0  0  0  0
  9 11  1  0  0  0  0
  9 18  1  0  0  0  0
  9 35  1  0  0  0  0
 10 11  1  0  0  0  0
 10 13  1  0  0  0  0
 10 15  1  0  0  0  0
 10 29  1  0  0  0  0
 11 12  1  0  0  0  0
 11 30  1  0  0  0  0
 12 14  1  0  0  0  0
 12 31  1  0  0  0  0
 13 14  1  0  0  0  0
 13 32  1  0  0  0  0
 13 33  1  0  0  0  0
 14 34  1  0  0  0  0
 15 16  2  0  0  0  0
 15 17  1  0  0  0  0
 16 19  1  0  0  0  0
 16 38  1  0  0  0  0
 17 20  2  0  0  0  0
 17 39  1  0  0  0  0
 18 21  1  0  0  0  0
 19 22  2  0  0  0  0
 19 40  1  0  0  0  0
 20 22  1  0  0  0  0
 20 41  1  0  0  0  0
 21 23  2  0  0  0  0
 21 24  1  0  0  0  0
 23 26  1  0  0  0  0
 24 25  2  0  0  0  0
 24 42  1  0  0  0  0
 25 27  1  0  0  0  0
 27 43  1  0  0  0  0
 27 44  1  0  0  0  0
 27 45  1  0  0  0  0
 28 46  1  0  0  0  0
 28 47  1  0  0  0  0
 28 48  1  0  0  0  0
M  END
> <PUBCHEM_COMPOUND_CID>
71693878

> <PUBCHEM_CONFORMER_RMSD>
0.8

> <PUBCHEM_CONFORMER_DIVERSEORDER>
1
39
25
11
7
26
41
2
8
15
23
38
43
24
12
22
36
3
29
9
42
27
13
44
14
16
28
19
18
40
31
30
10
6
17
37
34
5
20
32
35
21
4
33

> <PUBCHEM_MMFF94_PARTIAL_CHARGES>
35
1 -0.34
10 0.14
11 0.3
12 0.28
14 0.28
15 -0.14
16 -0.15
17 -0.15
18 0.72
19 -0.15
2 -0.34
20 -0.15
21 -0.09
22 0.08
23 -0.04
24 -0.15
25 -0.04
26 1.2
27 0.18
28 0.28
3 -0.34
35 0.37
36 0.4
37 0.4
38 0.15
39 0.15
4 -0.68
40 0.15
41 0.15
42 0.15
5 -0.68
6 -0.57
7 -0.28
8 -0.36
9 -0.73

> <PUBCHEM_EFFECTIVE_ROTOR_COUNT>
7

> <PUBCHEM_PHARMACOPHORE_FEATURES>
11
1 4 acceptor
1 4 donor
1 5 acceptor
1 5 donor
1 6 acceptor
1 7 acceptor
1 8 acceptor
1 9 donor
5 10 11 12 13 14 rings
5 7 21 23 24 25 rings
6 15 16 17 19 20 22 rings

> <PUBCHEM_HEAVY_ATOM_COUNT>
28

> <PUBCHEM_ATOM_DEF_STEREO_COUNT>
4

> <PUBCHEM_ATOM_UDEF_STEREO_COUNT>
0

> <PUBCHEM_BOND_DEF_STEREO_COUNT>
0

> <PUBCHEM_BOND_UDEF_STEREO_COUNT>
0

> <PUBCHEM_ISOTOPIC_ATOM_COUNT>
0

> <PUBCHEM_COMPONENT_COUNT>
1

> <PUBCHEM_CACTVS_TAUTO_COUNT>
2

> <PUBCHEM_CONFORMER_ID>
0445F63600000001

> <PUBCHEM_MMFF94_ENERGY>
67.3718

> <PUBCHEM_FEATURE_SELFOVERLAP>
55.834

> <PUBCHEM_SHAPE_FINGERPRINT>
10616163 171 18050566541120170801
11513181 2 18059015119580305431
12107183 9 18126854794325787073
12422481 6 18125972002489528720
12553582 1 18266167340800883382
12633257 1 18337098004166022835
12788726 201 17903928747153792194
13140716 1 18411975896889455657
13533116 47 18271238426542145711
13583140 156 17631443652378936905
138480 1 18410854318073244378
14178342 30 18196918088270356968
14251757 5 17764036770465961974
14725015 67 17619342109101703315
14790565 3 18050006894166132692
14844126 61 17471557842582099554
14866123 147 17476079025610238249
14955137 171 18192445069511481155
15042514 8 17547010728394126144
17492 89 18340485668612240343
17818456 19 17988649532699358801
1813 80 18127138463466003708
20691752 17 17677039248014152649
21421861 104 18334288756252620400
23558518 356 18191868048881155587
23559900 14 18273213088636647735
314173 41 18339647728744719030
3421961 26 18340485565226622216
4280585 95 18339077082726815946
4409770 3 17326612501362019604
44880168 125 16984892065772578574
463206 1 18263085422551665642
6287921 2 18191873541827796566
7097593 13 18412257363624644457
9709674 26 18337389473732175691

> <PUBCHEM_SHAPE_MULTIPOLES>
520.08
9.52
5.84
1.1
11.66
0.03
0.04
4.11
1.07
-6.89
-0.54
-0.4
-0.02
-0.57

> <PUBCHEM_SHAPE_SELFOVERLAP>
1120.461

> <PUBCHEM_SHAPE_VOLUME>
289.8

> <PUBCHEM_COORDINATE_TYPE>
2
5
10

$$$$
