51137865
  -OEChem-12032416273D

 44 47  0     1  0  0  0  0  0999 V2000
   -6.4881    2.0876    0.9424 F   0  0  0  0  0  0  0  0  0  0  0  0
   -7.9341   -0.1631    0.3770 F   0  0  0  0  0  0  0  0  0  0  0  0
    5.5844    3.0587   -0.3388 O   0  0  0  0  0  0  0  0  0  0  0  0
   -1.6573   -0.6276   -0.2272 N   0  0  1  0  0  0  0  0  0  0  0  0
    2.8929   -2.0468    0.2663 N   0  0  0  0  0  0  0  0  0  0  0  0
    2.4871    0.1338    0.1263 N   0  0  0  0  0  0  0  0  0  0  0  0
    3.3325    2.6794   -0.1308 N   0  0  0  0  0  0  0  0  0  0  0  0
    0.4775   -1.3754    0.3916 C   0  0  1  0  0  0  0  0  0  0  0  0
   -0.2150   -0.7333    1.6062 C   0  0  0  0  0  0  0  0  0  0  0  0
   -0.3467   -0.9101   -0.8164 C   0  0  0  0  0  0  0  0  0  0  0  0
   -1.3654    0.0760    1.0216 C   0  0  0  0  0  0  0  0  0  0  0  0
    1.9490   -1.0579    0.2584 C   0  0  0  0  0  0  0  0  0  0  0  0
   -2.5094    0.1495   -1.1151 C   0  0  0  0  0  0  0  0  0  0  0  0
   -3.9588    0.0657   -0.7165 C   0  0  0  0  0  0  0  0  0  0  0  0
    4.1218   -1.4539    0.1301 C   0  0  0  0  0  0  0  0  0  0  0  0
    3.8418   -0.0930    0.0448 C   0  0  0  0  0  0  0  0  0  0  0  0
    4.9025    0.8166   -0.1034 C   0  0  0  0  0  0  0  0  0  0  0  0
    5.4149   -1.9752    0.0761 C   0  0  0  0  0  0  0  0  0  0  0  0
   -4.5639    1.1365   -0.0585 C   0  0  0  0  0  0  0  0  0  0  0  0
   -4.6966   -1.0823   -1.0053 C   0  0  0  0  0  0  0  0  0  0  0  0
    6.2092    0.3158   -0.1601 C   0  0  0  0  0  0  0  0  0  0  0  0
    6.4586   -1.0558   -0.0719 C   0  0  0  0  0  0  0  0  0  0  0  0
   -5.9070    1.0593    0.3106 C   0  0  0  0  0  0  0  0  0  0  0  0
   -6.0395   -1.1596   -0.6359 C   0  0  0  0  0  0  0  0  0  0  0  0
    4.6543    2.2438   -0.1934 C   0  0  0  0  0  0  0  0  0  0  0  0
   -6.6448   -0.0887    0.0219 C   0  0  0  0  0  0  0  0  0  0  0  0
    0.3639   -2.4650    0.4882 H   0  0  0  0  0  0  0  0  0  0  0  0
   -0.6043   -1.5220    2.2622 H   0  0  0  0  0  0  0  0  0  0  0  0
    0.4519   -0.1031    2.2042 H   0  0  0  0  0  0  0  0  0  0  0  0
    0.0879   -0.0119   -1.2752 H   0  0  0  0  0  0  0  0  0  0  0  0
   -0.4054   -1.6916   -1.5819 H   0  0  0  0  0  0  0  0  0  0  0  0
   -2.2196    0.0936    1.7056 H   0  0  0  0  0  0  0  0  0  0  0  0
   -1.0360    1.1080    0.8440 H   0  0  0  0  0  0  0  0  0  0  0  0
   -2.4400   -0.2468   -2.1381 H   0  0  0  0  0  0  0  0  0  0  0  0
   -2.1824    1.1955   -1.1915 H   0  0  0  0  0  0  0  0  0  0  0  0
    2.7199   -3.0393    0.3564 H   0  0  0  0  0  0  0  0  0  0  0  0
    5.6060   -3.0401    0.1450 H   0  0  0  0  0  0  0  0  0  0  0  0
   -4.0005    2.0361    0.1739 H   0  0  0  0  0  0  0  0  0  0  0  0
   -4.2366   -1.9233   -1.5174 H   0  0  0  0  0  0  0  0  0  0  0  0
    7.0575    0.9870   -0.2738 H   0  0  0  0  0  0  0  0  0  0  0  0
    7.4831   -1.4168   -0.1187 H   0  0  0  0  0  0  0  0  0  0  0  0
   -6.6142   -2.0533   -0.8603 H   0  0  0  0  0  0  0  0  0  0  0  0
    3.1186    3.6693   -0.1967 H   0  0  0  0  0  0  0  0  0  0  0  0
    2.5370    2.0609   -0.0199 H   0  0  0  0  0  0  0  0  0  0  0  0
  1 23  1  0  0  0  0
  2 26  1  0  0  0  0
  3 25  2  0  0  0  0
  4 10  1  0  0  0  0
  4 11  1  0  0  0  0
  4 13  1  0  0  0  0
  5 12  1  0  0  0  0
  5 15  1  0  0  0  0
  5 36  1  0  0  0  0
  6 12  2  0  0  0  0
  6 16  1  0  0  0  0
  7 25  1  0  0  0  0
  7 43  1  0  0  0  0
  7 44  1  0  0  0  0
  8  9  1  0  0  0  0
  8 10  1  0  0  0  0
  8 12  1  0  0  0  0
  8 27  1  0  0  0  0
  9 11  1  0  0  0  0
  9 28  1  0  0  0  0
  9 29  1  0  0  0  0
 10 30  1  0  0  0  0
 10 31  1  0  0  0  0
 11 32  1  0  0  0  0
 11 33  1  0  0  0  0
 13 14  1  0  0  0  0
 13 34  1  0  0  0  0
 13 35  1  0  0  0  0
 14 19  2  0  0  0  0
 14 20  1  0  0  0  0
 15 16  1  0  0  0  0
 15 18  2  0  0  0  0
 16 17  2  0  0  0  0
 17 21  1  0  0  0  0
 17 25  1  0  0  0  0
 18 22  1  0  0  0  0
 18 37  1  0  0  0  0
 19 23  1  0  0  0  0
 19 38  1  0  0  0  0
 20 24  2  0  0  0  0
 20 39  1  0  0  0  0
 21 22  2  0  0  0  0
 21 40  1  0  0  0  0
 22 41  1  0  0  0  0
 23 26  2  0  0  0  0
 24 26  1  0  0  0  0
 24 42  1  0  0  0  0
M  END
> <PUBCHEM_COMPOUND_CID>
51137865

> <PUBCHEM_CONFORMER_RMSD>
0.8

> <PUBCHEM_CONFORMER_DIVERSEORDER>
1
195
72
213
197
173
155
89
134
214
107
48
157
44
142
123
232
186
158
185
95
168
53
145
192
103
165
152
47
198
179
110
189
101
181
84
175
177
226
187
183
43
150
104
162
194
106
135
46
200
56
146
13
52
167
231
127
105
58
120
21
178
17
211
14
12
141
15
63
220
55
111
190
156
29
91
81
132
174
215
109
164
49
87
176
28
73
159
212
71
78
76
41
18
206
57
35
225
130
218
88
182
191
131
202
113
2
193
166
54
153
117
93
39
184
172
36
96
227
137
33
126
138
121
61
59
64
151
170
19
219
209
147
180
34
60
169
112
102
118
100
196
69
139
25
8
224
207
203
144
26
77
163
98
45
161
50
94
10
70
148
92
9
4
40
201
143
38
223
124
3
65
205
6
115
149
24
125
20
208
229
66
23
83
27
11
22
217
37
154
188
5
116
42
210
133
129
160
216
228
204
230
90
140
79
97
122
80
171
32
86
99
85
16
68
62
7
75
119
128
136
67
82
108
30
199
31
51
74
114
221
222

> <PUBCHEM_MMFF94_PARTIAL_CHARGES>
34
1 -0.19
10 0.27
11 0.27
12 0.01
13 0.41
14 -0.14
15 -0.15
16 0.23
17 0.09
18 -0.15
19 -0.15
2 -0.19
20 -0.15
21 -0.15
22 -0.15
23 0.19
24 -0.15
25 0.54
26 0.19
3 -0.57
36 0.27
37 0.15
38 0.15
39 0.15
4 -0.81
40 0.15
41 0.15
42 0.15
43 0.37
44 0.37
5 0.03
6 -0.57
7 -0.8
8 0.18

> <PUBCHEM_EFFECTIVE_ROTOR_COUNT>
5

> <PUBCHEM_PHARMACOPHORE_FEATURES>
9
1 3 acceptor
1 4 cation
1 5 donor
1 7 donor
3 5 6 12 cation
5 4 8 9 10 11 rings
5 5 6 12 15 16 rings
6 14 19 20 23 24 26 rings
6 15 16 17 18 21 22 rings

> <PUBCHEM_HEAVY_ATOM_COUNT>
26

> <PUBCHEM_ATOM_DEF_STEREO_COUNT>
1

> <PUBCHEM_ATOM_UDEF_STEREO_COUNT>
0

> <PUBCHEM_BOND_DEF_STEREO_COUNT>
0

> <PUBCHEM_BOND_UDEF_STEREO_COUNT>
0

> <PUBCHEM_ISOTOPIC_ATOM_COUNT>
0

> <PUBCHEM_COMPONENT_COUNT>
1

> <PUBCHEM_CACTVS_TAUTO_COUNT>
12

> <PUBCHEM_CONFORMER_ID>
030C4D4900000001

> <PUBCHEM_MMFF94_ENERGY>
55.622

> <PUBCHEM_FEATURE_SELFOVERLAP>
45.779

> <PUBCHEM_SHAPE_FINGERPRINT>
10 15 14851892473248914158
10299344 5 18201718462307380671
10411042 1 18048876296330030826
10595046 47 18413103987662317679
10638233 991 18342454863666685045
10673678 19 18200598106770508100
11315181 36 18410011023542216663
11456790 92 18187642462808641816
11646440 116 17095245804154974805
11796584 16 13758063117386331886
12166972 35 18333733511586461900
12236239 1 18201998819838070879
12403259 415 17676478428401342965
12616971 3 18201991136109897879
12730499 353 18040152899085160842
12788726 201 17346606248413075457
13167372 99 18342458110282107264
13533116 47 18410011040136731412
13782708 43 16879342308228373842
13955234 65 17895746297483702610
14170010 4 18408882941422703034
14251752 14 17703789197897886803
14464042 87 18131355193680496816
14681490 219 18409727352888528920
14849402 71 18335707190492513149
14856354 85 17632577171984588975
14933364 13 18410575080747952335
15003188 100 18260268568682138932
15183329 4 18343300357711104541
15840311 113 18408043996744656565
17844677 252 18410858720298554933
18335252 114 18340759369122872877
19489759 90 11097859575763053959
20157964 124 18410292523782491314
20567600 75 11383839251148504323
21033648 29 16878212108752539989
21298829 104 18341049718219805328
21315763 28 18411698768815436583
21521721 280 18334860536985544467
21641784 216 16702034053694050081
22122407 14 18341907276526673017
221357 26 18335416847030165796
22956985 138 13697803171582688264
23081809 10 18059847377120820559
23198884 109 18410573985890234995
23424782 7 18114748243417087155
23522609 53 17916604119162139729
23536379 177 18343018865697183307
23569914 152 11955556542965904073
23569943 247 17316189242673649658
255183 451 17984991384784614990
2747138 104 17313112955942855529
2838139 119 18333726914247312524
29717793 49 17846502517797477726
3004659 81 18131631162915062054
335352 9 18408326593272151702
34797466 226 18272939323184451071
397830 11 17532103859066800385
4073 2 18114185292967845810
4093350 32 17704354390657875204
4325135 7 18412543206804413991
44555599 121 18342746186908785185
5104073 3 18040711511052814482
513532 50 18342751736581103380
53794403 172 17678184986908277404
54446538 1 18411698764193421677
6328613 192 18342738495175979345

> <PUBCHEM_SHAPE_MULTIPOLES>
494.73
20.77
2.28
0.95
16.96
1.51
-0.11
4.05
0.67
-3.52
0.03
0.77
-0.09
-1.23

> <PUBCHEM_SHAPE_SELFOVERLAP>
1092.191

> <PUBCHEM_SHAPE_VOLUME>
269.5

> <PUBCHEM_COORDINATE_TYPE>
2
5
10

$$$$
