51137061
  -OEChem-12032416143D

 47 50  0     1  0  0  0  0  0999 V2000
    3.9327   -1.3201    0.4046 O   0  0  0  0  0  0  0  0  0  0  0  0
   -0.6125   -0.2099   -0.2458 N   0  0  1  0  0  0  0  0  0  0  0  0
    3.5045    0.8625   -0.0315 N   0  0  0  0  0  0  0  0  0  0  0  0
   -6.9731   -0.1145    0.3762 N   0  0  0  0  0  0  0  0  0  0  0  0
    1.5697   -0.7228    0.4427 C   0  0  1  0  0  0  0  0  0  0  0  0
    0.8348    0.0196    1.5723 C   0  0  0  0  0  0  0  0  0  0  0  0
    0.7143   -0.4738   -0.8068 C   0  0  0  0  0  0  0  0  0  0  0  0
   -0.3698    0.6660    0.9004 C   0  0  0  0  0  0  0  0  0  0  0  0
   -1.5174    0.3866   -1.2172 C   0  0  0  0  0  0  0  0  0  0  0  0
    3.0154   -0.3237    0.2561 C   0  0  0  0  0  0  0  0  0  0  0  0
   -2.9573    0.2541   -0.7973 C   0  0  0  0  0  0  0  0  0  0  0  0
    5.1257   -0.6925    0.1870 C   0  0  0  0  0  0  0  0  0  0  0  0
    4.8597    0.6427   -0.0795 C   0  0  0  0  0  0  0  0  0  0  0  0
   -3.6132   -0.9697   -0.9305 C   0  0  0  0  0  0  0  0  0  0  0  0
   -3.6350    1.3554   -0.2744 C   0  0  0  0  0  0  0  0  0  0  0  0
   -4.9469   -1.0923   -0.5409 C   0  0  0  0  0  0  0  0  0  0  0  0
   -4.9688    1.2330    0.1150 C   0  0  0  0  0  0  0  0  0  0  0  0
   -5.6247    0.0092   -0.0183 C   0  0  0  0  0  0  0  0  0  0  0  0
    6.3954   -1.2558    0.2182 C   0  0  0  0  0  0  0  0  0  0  0  0
    5.9317    1.5083   -0.3397 C   0  0  0  0  0  0  0  0  0  0  0  0
    7.4535   -0.3788   -0.0437 C   0  0  0  0  0  0  0  0  0  0  0  0
    7.2290    0.9761   -0.3171 C   0  0  0  0  0  0  0  0  0  0  0  0
   -7.6637   -1.3817    0.2425 C   0  0  0  0  0  0  0  0  0  0  0  0
   -7.6838    1.0221    0.9275 C   0  0  0  0  0  0  0  0  0  0  0  0
    1.5400   -1.7963    0.6781 H   0  0  0  0  0  0  0  0  0  0  0  0
    0.5019   -0.7041    2.3268 H   0  0  0  0  0  0  0  0  0  0  0  0
    1.4566    0.7654    2.0787 H   0  0  0  0  0  0  0  0  0  0  0  0
    0.7098   -1.3489   -1.4658 H   0  0  0  0  0  0  0  0  0  0  0  0
    1.0852    0.3864   -1.3800 H   0  0  0  0  0  0  0  0  0  0  0  0
   -0.1137    1.6872    0.5898 H   0  0  0  0  0  0  0  0  0  0  0  0
   -1.2227    0.7114    1.5848 H   0  0  0  0  0  0  0  0  0  0  0  0
   -1.2646    1.4343   -1.4294 H   0  0  0  0  0  0  0  0  0  0  0  0
   -1.4213   -0.1315   -2.1821 H   0  0  0  0  0  0  0  0  0  0  0  0
   -3.0952   -1.8348   -1.3363 H   0  0  0  0  0  0  0  0  0  0  0  0
   -3.1345    2.3137   -0.1641 H   0  0  0  0  0  0  0  0  0  0  0  0
   -5.4124   -2.0651   -0.6642 H   0  0  0  0  0  0  0  0  0  0  0  0
   -5.4516    2.1186    0.5161 H   0  0  0  0  0  0  0  0  0  0  0  0
    6.5584   -2.3049    0.4308 H   0  0  0  0  0  0  0  0  0  0  0  0
    5.7693    2.5597   -0.5528 H   0  0  0  0  0  0  0  0  0  0  0  0
    8.4727   -0.7579   -0.0344 H   0  0  0  0  0  0  0  0  0  0  0  0
    8.0758    1.6284   -0.5159 H   0  0  0  0  0  0  0  0  0  0  0  0
   -7.7048   -1.7018   -0.8046 H   0  0  0  0  0  0  0  0  0  0  0  0
   -7.1834   -2.1598    0.8462 H   0  0  0  0  0  0  0  0  0  0  0  0
   -8.7014   -1.3158    0.5882 H   0  0  0  0  0  0  0  0  0  0  0  0
   -7.2104    1.3754    1.8504 H   0  0  0  0  0  0  0  0  0  0  0  0
   -7.7383    1.8437    0.2046 H   0  0  0  0  0  0  0  0  0  0  0  0
   -8.7175    0.7667    1.1862 H   0  0  0  0  0  0  0  0  0  0  0  0
  1 10  1  0  0  0  0
  1 12  1  0  0  0  0
  2  7  1  0  0  0  0
  2  8  1  0  0  0  0
  2  9  1  0  0  0  0
  3 10  2  0  0  0  0
  3 13  1  0  0  0  0
  4 18  1  0  0  0  0
  4 23  1  0  0  0  0
  4 24  1  0  0  0  0
  5  6  1  0  0  0  0
  5  7  1  0  0  0  0
  5 10  1  0  0  0  0
  5 25  1  0  0  0  0
  6  8  1  0  0  0  0
  6 26  1  0  0  0  0
  6 27  1  0  0  0  0
  7 28  1  0  0  0  0
  7 29  1  0  0  0  0
  8 30  1  0  0  0  0
  8 31  1  0  0  0  0
  9 11  1  0  0  0  0
  9 32  1  0  0  0  0
  9 33  1  0  0  0  0
 11 14  2  0  0  0  0
 11 15  1  0  0  0  0
 12 13  1  0  0  0  0
 12 19  2  0  0  0  0
 13 20  2  0  0  0  0
 14 16  1  0  0  0  0
 14 34  1  0  0  0  0
 15 17  2  0  0  0  0
 15 35  1  0  0  0  0
 16 18  2  0  0  0  0
 16 36  1  0  0  0  0
 17 18  1  0  0  0  0
 17 37  1  0  0  0  0
 19 21  1  0  0  0  0
 19 38  1  0  0  0  0
 20 22  1  0  0  0  0
 20 39  1  0  0  0  0
 21 22  2  0  0  0  0
 21 40  1  0  0  0  0
 22 41  1  0  0  0  0
 23 42  1  0  0  0  0
 23 43  1  0  0  0  0
 23 44  1  0  0  0  0
 24 45  1  0  0  0  0
 24 46  1  0  0  0  0
 24 47  1  0  0  0  0
M  END
> <PUBCHEM_COMPOUND_CID>
51137061

> <PUBCHEM_CONFORMER_RMSD>
0.8

> <PUBCHEM_CONFORMER_DIVERSEORDER>
1
25
2
44
31
33
36
20
43
23
24
18
27
12
29
37
5
34
22
40
46
14
41
3
7
21
6
38
11
4
16
15
39
26
28
10
30
17
9
8
32
13
45
35
42
19

> <PUBCHEM_MMFF94_PARTIAL_CHARGES>
31
1 -0.28
10 0.3
11 -0.14
12 0.14
13 0.23
14 -0.15
15 -0.15
16 -0.15
17 -0.15
18 0.1
19 -0.15
2 -0.81
20 -0.15
21 -0.15
22 -0.15
23 0.37
24 0.37
3 -0.57
34 0.15
35 0.15
36 0.15
37 0.15
38 0.15
39 0.15
4 -0.84
40 0.15
41 0.15
5 0.18
7 0.27
8 0.27
9 0.41

> <PUBCHEM_EFFECTIVE_ROTOR_COUNT>
5

> <PUBCHEM_PHARMACOPHORE_FEATURES>
6
1 2 cation
1 4 cation
5 1 3 10 12 13 rings
5 2 5 6 7 8 rings
6 11 14 15 16 17 18 rings
6 12 13 19 20 21 22 rings

> <PUBCHEM_HEAVY_ATOM_COUNT>
24

> <PUBCHEM_ATOM_DEF_STEREO_COUNT>
1

> <PUBCHEM_ATOM_UDEF_STEREO_COUNT>
0

> <PUBCHEM_BOND_DEF_STEREO_COUNT>
0

> <PUBCHEM_BOND_UDEF_STEREO_COUNT>
0

> <PUBCHEM_ISOTOPIC_ATOM_COUNT>
0

> <PUBCHEM_COMPONENT_COUNT>
1

> <PUBCHEM_CACTVS_TAUTO_COUNT>
1

> <PUBCHEM_CONFORMER_ID>
030C4A2500000001

> <PUBCHEM_MMFF94_ENERGY>
66.8575

> <PUBCHEM_FEATURE_SELFOVERLAP>
30.567

> <PUBCHEM_SHAPE_FINGERPRINT>
10 15 18272373070918000447
10299344 5 18341894099730200679
10595046 47 18335699412569684944
106641 1 18259990392651735873
10670039 82 11095891437275767307
10968037 39 18113335319730692543
11315181 36 18408041815307217625
11524674 6 16271924943752376807
11646440 116 16732706043137346788
12166972 35 18259424126736415484
12236239 1 18343580733798543228
12516196 113 16515402962737555589
12730499 353 17748825194773134682
13533116 47 16516236346150749672
14123256 10 16225765211902685193
14170010 4 17894912953864229156
1420 363 17240202122920896647
14251752 14 17847059969812821872
14251764 18 18202281416217899327
14251764 46 16732702748617530547
14849402 71 18261680388515024500
14856354 85 17988926699812698287
14933364 13 18411418405923999804
15142383 8 16773795883541224760
15183329 4 11095889258703448957
15461852 350 11819000673334210297
15537594 2 16558745707126139974
15716309 27 18408321081884774151
17093844 174 14405177379226869719
18006028 8 11743841361067994066
18335252 98 18409452491950041850
19489759 90 7853575720982300671
20157964 124 18260267456712851130
20281389 69 18272084994033600784
21095086 128 18334856121395218843
21150785 3 12468361253676610478
21267235 1 18410294709245631340
21315763 28 18334856095878284772
21521721 280 18259705622606960410
21792961 116 17631732664569168332
220451 1 17775278365762188206
22224240 67 16950281818898477851
22956985 138 13553125038228368384
23035841 295 18413669110710850651
23198884 109 18334857212168816401
23516275 137 18198643063175271323
23536379 177 18411979144343550132
23569943 247 17098043928679036578
2747138 104 16877670062574201053
28498 318 12247688158076067468
29717793 49 17917715687290109764
314173 85 14692569931623214466
34797466 226 18341618122675411908
3545911 37 17894629254020287414
4073 2 18113903801038106322
4325135 7 18334295374643638173
5283156 175 17560804304218947534
5385378 56 15697731328532726183
5758199 1 18113620088124425722
59682541 35 16515408498998255612
5969126 39 15719384041415716407
59755656 215 14045749205054077021
59755656 520 18187641427078444635

> <PUBCHEM_SHAPE_MULTIPOLES>
473.1
24.1
1.37
1
3.39
0.05
-0.08
-0.02
-1.69
0.14
0.01
0.48
0.03
-0.83

> <PUBCHEM_SHAPE_SELFOVERLAP>
1027.927

> <PUBCHEM_SHAPE_VOLUME>
261.8

> <PUBCHEM_COORDINATE_TYPE>
2
5
10

$$$$
