75536988
  -OEChem-12032416333D

 43 46  0     1  0  0  0  0  0999 V2000
    5.9014    1.9568   -1.6882 F   0  0  0  0  0  0  0  0  0  0  0  0
   -5.1870   -0.1239   -1.4638 O   0  0  0  0  0  0  0  0  0  0  0  0
    1.0443   -2.9006   -0.0413 O   0  0  0  0  0  0  0  0  0  0  0  0
   -2.9578    0.0507   -0.8188 N   0  0  0  0  0  0  0  0  0  0  0  0
   -0.8069   -1.4597    0.0900 N   0  0  0  0  0  0  0  0  0  0  0  0
    1.0635   -0.8959    1.2003 N   0  0  0  0  0  0  0  0  0  0  0  0
   -4.6729    1.6281   -0.0040 C   0  0  0  0  0  0  0  0  0  0  0  0
   -1.1673   -0.2638    0.8317 C   0  0  2  0  0  0  0  0  0  0  0  0
   -4.9787    1.4220    1.4413 C   0  0  0  0  0  0  0  0  0  0  0  0
   -6.0803    1.7443    0.4765 C   0  0  0  0  0  0  0  0  0  0  0  0
   -1.8813    0.7328   -0.0776 C   0  0  0  0  0  0  0  0  0  0  0  0
    0.1626    0.2260    1.3988 C   0  0  0  0  0  0  0  0  0  0  0  0
   -4.2992    0.4397   -0.8294 C   0  0  0  0  0  0  0  0  0  0  0  0
   -2.5238   -1.1116   -1.6074 C   0  0  0  0  0  0  0  0  0  0  0  0
   -1.8027   -2.1297   -0.7272 C   0  0  0  0  0  0  0  0  0  0  0  0
    0.5005   -1.8830    0.3672 C   0  0  0  0  0  0  0  0  0  0  0  0
    2.4199   -0.8869    1.7021 C   0  0  0  0  0  0  0  0  0  0  0  0
    3.3483   -0.1285    0.7983 C   0  0  0  0  0  0  0  0  0  0  0  0
    4.0125   -0.7914   -0.2338 C   0  0  0  0  0  0  0  0  0  0  0  0
    3.5466    1.2388    0.9902 C   0  0  0  0  0  0  0  0  0  0  0  0
    4.8752   -0.0872   -1.0736 C   0  0  0  0  0  0  0  0  0  0  0  0
    4.4094    1.9430    0.1504 C   0  0  0  0  0  0  0  0  0  0  0  0
    5.0737    1.2801   -0.8815 C   0  0  0  0  0  0  0  0  0  0  0  0
   -4.1973    2.5597   -0.2949 H   0  0  0  0  0  0  0  0  0  0  0  0
   -1.8344   -0.5854    1.6418 H   0  0  0  0  0  0  0  0  0  0  0  0
   -4.6738    2.1942    2.1369 H   0  0  0  0  0  0  0  0  0  0  0  0
   -4.9397    0.4173    1.8445 H   0  0  0  0  0  0  0  0  0  0  0  0
   -6.7937    0.9595    0.2581 H   0  0  0  0  0  0  0  0  0  0  0  0
   -6.5172    2.7348    0.5258 H   0  0  0  0  0  0  0  0  0  0  0  0
   -2.2547    1.5749    0.5085 H   0  0  0  0  0  0  0  0  0  0  0  0
   -1.1955    1.1371   -0.8325 H   0  0  0  0  0  0  0  0  0  0  0  0
    0.5533    1.0916    0.8551 H   0  0  0  0  0  0  0  0  0  0  0  0
    0.0903    0.4651    2.4640 H   0  0  0  0  0  0  0  0  0  0  0  0
   -3.3722   -1.5844   -2.1115 H   0  0  0  0  0  0  0  0  0  0  0  0
   -1.8460   -0.7325   -2.3817 H   0  0  0  0  0  0  0  0  0  0  0  0
   -2.5095   -2.6078   -0.0396 H   0  0  0  0  0  0  0  0  0  0  0  0
   -1.3271   -2.9113   -1.3273 H   0  0  0  0  0  0  0  0  0  0  0  0
    2.7641   -1.9246    1.7904 H   0  0  0  0  0  0  0  0  0  0  0  0
    2.4199   -0.4670    2.7146 H   0  0  0  0  0  0  0  0  0  0  0  0
    3.8666   -1.8561   -0.3950 H   0  0  0  0  0  0  0  0  0  0  0  0
    3.0356    1.7668    1.7908 H   0  0  0  0  0  0  0  0  0  0  0  0
    5.3922   -0.6029   -1.8774 H   0  0  0  0  0  0  0  0  0  0  0  0
    4.5641    3.0075    0.2996 H   0  0  0  0  0  0  0  0  0  0  0  0
  1 23  1  0  0  0  0
  2 13  2  0  0  0  0
  3 16  2  0  0  0  0
  4 11  1  0  0  0  0
  4 13  1  0  0  0  0
  4 14  1  0  0  0  0
  5  8  1  0  0  0  0
  5 15  1  0  0  0  0
  5 16  1  0  0  0  0
  6 12  1  0  0  0  0
  6 16  1  0  0  0  0
  6 17  1  0  0  0  0
  7  9  1  0  0  0  0
  7 10  1  0  0  0  0
  7 13  1  0  0  0  0
  7 24  1  0  0  0  0
  8 11  1  0  0  0  0
  8 12  1  0  0  0  0
  8 25  1  0  0  0  0
  9 10  1  0  0  0  0
  9 26  1  0  0  0  0
  9 27  1  0  0  0  0
 10 28  1  0  0  0  0
 10 29  1  0  0  0  0
 11 30  1  0  0  0  0
 11 31  1  0  0  0  0
 12 32  1  0  0  0  0
 12 33  1  0  0  0  0
 14 15  1  0  0  0  0
 14 34  1  0  0  0  0
 14 35  1  0  0  0  0
 15 36  1  0  0  0  0
 15 37  1  0  0  0  0
 17 18  1  0  0  0  0
 17 38  1  0  0  0  0
 17 39  1  0  0  0  0
 18 19  2  0  0  0  0
 18 20  1  0  0  0  0
 19 21  1  0  0  0  0
 19 40  1  0  0  0  0
 20 22  2  0  0  0  0
 20 41  1  0  0  0  0
 21 23  2  0  0  0  0
 21 42  1  0  0  0  0
 22 23  1  0  0  0  0
 22 43  1  0  0  0  0
M  END
> <PUBCHEM_COMPOUND_CID>
75536988

> <PUBCHEM_CONFORMER_RMSD>
0.8

> <PUBCHEM_CONFORMER_DIVERSEORDER>
1
13
26
31
37
28
35
41
4
33
12
47
32
36
40
22
42
45
34
5
27
9
43
3
44
19
38
8
23
30
2
6
29
39
17
21
11
25
46
14
24
10
15
20
18
16
7

> <PUBCHEM_MMFF94_PARTIAL_CHARGES>
32
1 -0.19
10 -0.2
11 0.3
12 0.3
13 0.63
14 0.3
15 0.3
16 0.69
17 0.44
18 -0.14
19 -0.15
2 -0.57
20 -0.15
21 -0.15
22 -0.15
23 0.19
24 0.1
26 0.1
27 0.1
28 0.1
29 0.1
3 -0.57
4 -0.66
40 0.15
41 0.15
42 0.15
43 0.15
5 -0.66
6 -0.66
7 -0.1
8 0.3
9 -0.2

> <PUBCHEM_EFFECTIVE_ROTOR_COUNT>
5.8

> <PUBCHEM_PHARMACOPHORE_FEATURES>
5
1 2 acceptor
1 3 acceptor
5 5 6 8 12 16 rings
6 18 19 20 21 22 23 rings
6 4 5 8 11 14 15 rings

> <PUBCHEM_HEAVY_ATOM_COUNT>
23

> <PUBCHEM_ATOM_DEF_STEREO_COUNT>
1

> <PUBCHEM_ATOM_UDEF_STEREO_COUNT>
0

> <PUBCHEM_BOND_DEF_STEREO_COUNT>
0

> <PUBCHEM_BOND_UDEF_STEREO_COUNT>
0

> <PUBCHEM_ISOTOPIC_ATOM_COUNT>
0

> <PUBCHEM_COMPONENT_COUNT>
1

> <PUBCHEM_CACTVS_TAUTO_COUNT>
1

> <PUBCHEM_CONFORMER_ID>
04809A5C00000001

> <PUBCHEM_MMFF94_ENERGY>
51.694

> <PUBCHEM_FEATURE_SELFOVERLAP>
25.47

> <PUBCHEM_SHAPE_FINGERPRINT>
10447042 23 9295279522070578136
10498660 4 18336543923689287144
10670039 82 18202280260618956889
11135609 201 17241616202860744512
11796584 16 13973674014677445493
12390115 104 18412832408343082531
12596602 18 12901547940368677716
12616971 3 18188475905085339194
12760667 363 11600014236216572172
12839892 36 12612752402408128337
12892183 10 13479399566354196904
12895836 83 18411421751930357152
12954195 1 15984554299588309937
13782708 43 12750652107688413965
13885169 86 17677342752379960716
13955234 65 17241320262397096258
1420 369 9871752407625171792
14251740 57 11169905053387348208
14251764 75 18115315591316877300
14528608 73 18412537713208971825
14790565 3 18342739585681123225
14840074 17 18334017172928464093
14848178 5 11672059752843387196
15163728 17 18335991938629500662
15183329 4 16917072131186345993
15188451 53 9007063435064361956
15210252 30 18261393395022257140
15342168 16 18259984864095279151
15475509 8 16128385835308049009
17857418 61 8718820994708056081
18222031 100 8214140797924434954
193927 3 12247406734628362956
19784866 240 12823302299157914192
20567600 234 15357992173882562325
20621476 91 14129349524238224593
21304303 282 8500729522213709987
21315764 119 16988573359392648124
21401589 2 16661207091406435112
21857420 4 14684340224085874925
22061861 79 14189569741520741921
22079108 93 16950286208560769737
23366157 5 18052531076494971319
23559900 14 16702293577266749936
2838139 119 18040147427428454220
3004659 81 17774721966256320262
3027735 51 13398371039549208373
312425 54 13262946365525659049
32948 21 17060334102386075265
3298306 158 15984819316092054469
339767 52 10809348862511094105
3459 110 16661221363529759025
3472631 163 18408606993531118564
3729539 64 15266793126003220725
38570 142 18340499884373020451
4058900 60 17985275080274117891
4325135 7 17167866378828162851
44062 13 15913034465562894829
474 4 17967246507644649266
4990 188 16845561020186586147
543368 44 18338510941206700261
57724786 102 17240766233581144148
59682541 52 15410326638448337853
6034566 193 18117292538581764044
633830 44 18271515464089814878
76465 3 9439400237859176779
8988823 20 9078819775980535938
960060 61 16056879156640762840

> <PUBCHEM_SHAPE_MULTIPOLES>
439.37
13.81
2.33
1.54
2.42
0.64
-0.03
-10.18
-4.24
-0.16
-0.12
-0.43
-0.08
-1.82

> <PUBCHEM_SHAPE_SELFOVERLAP>
938.984

> <PUBCHEM_SHAPE_VOLUME>
245.1

> <PUBCHEM_COORDINATE_TYPE>
2
5
10

$$$$
