26743820
  -OEChem-12032416183D

 52 56  0     1  0  0  0  0  0999 V2000
   -3.8322   -1.6116    2.4493 F   0  0  0  0  0  0  0  0  0  0  0  0
    5.6186   -2.8439    0.9826 O   0  0  0  0  0  0  0  0  0  0  0  0
    1.2372   -1.1302   -2.2353 O   0  0  0  0  0  0  0  0  0  0  0  0
    3.1922   -0.2311    0.7443 N   0  0  1  0  0  0  0  0  0  0  0  0
    1.3679    2.5274   -0.5062 N   0  0  0  0  0  0  0  0  0  0  0  0
    0.4952   -1.1754   -0.1225 N   0  0  0  0  0  0  0  0  0  0  0  0
    0.8337    1.6017    1.4426 N   0  0  0  0  0  0  0  0  0  0  0  0
   -0.1527   -1.2849   -2.3139 N   0  0  0  0  0  0  0  0  0  0  0  0
    2.9975   -0.9063   -0.5548 C   0  0  1  0  0  0  0  0  0  0  0  0
    3.7348   -2.2511   -0.4140 C   0  0  0  0  0  0  0  0  0  0  0  0
    4.3494   -2.2199    0.9798 C   0  0  2  0  0  0  0  0  0  0  0  0
    4.4495   -0.7385    1.2903 C   0  0  0  0  0  0  0  0  0  0  0  0
    3.1855    1.2225    0.6428 C   0  0  0  0  0  0  0  0  0  0  0  0
    1.5354   -1.0746   -0.9108 C   0  0  0  0  0  0  0  0  0  0  0  0
    1.7864    1.7717    0.5534 C   0  0  0  0  0  0  0  0  0  0  0  0
    0.0578    2.8676   -0.2863 C   0  0  0  0  0  0  0  0  0  0  0  0
   -0.2523    2.2781    0.9361 C   0  0  0  0  0  0  0  0  0  0  0  0
   -0.5173   -1.3027   -1.0283 C   0  0  0  0  0  0  0  0  0  0  0  0
    2.1612    2.9030   -1.6550 C   0  0  0  0  0  0  0  0  0  0  0  0
   -0.8547    3.6177   -1.0291 C   0  0  0  0  0  0  0  0  0  0  0  0
   -1.5448    2.4359    1.4642 C   0  0  0  0  0  0  0  0  0  0  0  0
   -1.8835   -1.4475   -0.6158 C   0  0  0  0  0  0  0  0  0  0  0  0
   -2.1364    3.7644   -0.4886 C   0  0  0  0  0  0  0  0  0  0  0  0
   -2.4775    3.1848    0.7357 C   0  0  0  0  0  0  0  0  0  0  0  0
   -2.2046   -1.4603    0.7415 C   0  0  0  0  0  0  0  0  0  0  0  0
   -2.8909   -1.5750   -1.5721 C   0  0  0  0  0  0  0  0  0  0  0  0
   -3.5332   -1.6004    1.1427 C   0  0  0  0  0  0  0  0  0  0  0  0
   -4.2195   -1.7154   -1.1709 C   0  0  0  0  0  0  0  0  0  0  0  0
   -4.5407   -1.7280    0.1864 C   0  0  0  0  0  0  0  0  0  0  0  0
   -5.9622   -1.8783    0.6118 C   0  0  0  0  0  0  0  0  0  0  0  0
    3.4889   -0.3440   -1.3610 H   0  0  0  0  0  0  0  0  0  0  0  0
    3.0758   -3.1206   -0.5188 H   0  0  0  0  0  0  0  0  0  0  0  0
    4.5129   -2.3394   -1.1825 H   0  0  0  0  0  0  0  0  0  0  0  0
    3.6978   -2.7260    1.7027 H   0  0  0  0  0  0  0  0  0  0  0  0
    4.5349   -0.5636    2.3679 H   0  0  0  0  0  0  0  0  0  0  0  0
    5.3290   -0.2960    0.8040 H   0  0  0  0  0  0  0  0  0  0  0  0
    3.8395    1.5744   -0.1622 H   0  0  0  0  0  0  0  0  0  0  0  0
    3.6020    1.6471    1.5671 H   0  0  0  0  0  0  0  0  0  0  0  0
    5.4910   -3.7665    0.7030 H   0  0  0  0  0  0  0  0  0  0  0  0
    3.0038    3.5076   -1.3097 H   0  0  0  0  0  0  0  0  0  0  0  0
    2.5109    1.9925   -2.1479 H   0  0  0  0  0  0  0  0  0  0  0  0
    1.5646    3.4844   -2.3595 H   0  0  0  0  0  0  0  0  0  0  0  0
   -0.5995    4.0711   -1.9798 H   0  0  0  0  0  0  0  0  0  0  0  0
   -1.8199    1.9881    2.4137 H   0  0  0  0  0  0  0  0  0  0  0  0
   -2.8811    4.3403   -1.0326 H   0  0  0  0  0  0  0  0  0  0  0  0
   -3.4821    3.3154    1.1296 H   0  0  0  0  0  0  0  0  0  0  0  0
   -1.4427   -1.3616    1.5106 H   0  0  0  0  0  0  0  0  0  0  0  0
   -2.6789   -1.5692   -2.6383 H   0  0  0  0  0  0  0  0  0  0  0  0
   -4.9935   -1.8146   -1.9272 H   0  0  0  0  0  0  0  0  0  0  0  0
   -6.1077   -2.8443    1.1060 H   0  0  0  0  0  0  0  0  0  0  0  0
   -6.2398   -1.0772    1.3050 H   0  0  0  0  0  0  0  0  0  0  0  0
   -6.6502   -1.8273   -0.2387 H   0  0  0  0  0  0  0  0  0  0  0  0
  1 27  1  0  0  0  0
  2 11  1  0  0  0  0
  2 39  1  0  0  0  0
  3  8  1  0  0  0  0
  3 14  1  0  0  0  0
  4  9  1  0  0  0  0
  4 12  1  0  0  0  0
  4 13  1  0  0  0  0
  5 15  1  0  0  0  0
  5 16  1  0  0  0  0
  5 19  1  0  0  0  0
  6 14  2  0  0  0  0
  6 18  1  0  0  0  0
  7 15  2  0  0  0  0
  7 17  1  0  0  0  0
  8 18  2  0  0  0  0
  9 10  1  0  0  0  0
  9 14  1  0  0  0  0
  9 31  1  0  0  0  0
 10 11  1  0  0  0  0
 10 32  1  0  0  0  0
 10 33  1  0  0  0  0
 11 12  1  0  0  0  0
 11 34  1  0  0  0  0
 12 35  1  0  0  0  0
 12 36  1  0  0  0  0
 13 15  1  0  0  0  0
 13 37  1  0  0  0  0
 13 38  1  0  0  0  0
 16 17  1  0  0  0  0
 16 20  2  0  0  0  0
 17 21  2  0  0  0  0
 18 22  1  0  0  0  0
 19 40  1  0  0  0  0
 19 41  1  0  0  0  0
 19 42  1  0  0  0  0
 20 23  1  0  0  0  0
 20 43  1  0  0  0  0
 21 24  1  0  0  0  0
 21 44  1  0  0  0  0
 22 25  2  0  0  0  0
 22 26  1  0  0  0  0
 23 24  2  0  0  0  0
 23 45  1  0  0  0  0
 24 46  1  0  0  0  0
 25 27  1  0  0  0  0
 25 47  1  0  0  0  0
 26 28  2  0  0  0  0
 26 48  1  0  0  0  0
 27 29  2  0  0  0  0
 28 29  1  0  0  0  0
 28 49  1  0  0  0  0
 29 30  1  0  0  0  0
 30 50  1  0  0  0  0
 30 51  1  0  0  0  0
 30 52  1  0  0  0  0
M  END
> <PUBCHEM_COMPOUND_CID>
26743820

> <PUBCHEM_CONFORMER_RMSD>
0.8

> <PUBCHEM_CONFORMER_DIVERSEORDER>
4
164
99
189
85
20
187
166
192
136
127
172
123
131
102
132
215
40
68
27
161
196
184
171
179
193
124
90
141
59
148
208
47
95
185
103
17
128
211
212
144
190
201
16
168
199
73
129
214
62
100
97
209
23
175
186
173
155
145
163
78
150
213
157
206
36
77
83
158
111
112
160
147
119
65
72
115
25
87
105
61
64
60
204
1
15
37
139
140
106
198
159
170
21
63
13
18
70
169
216
180
152
181
116
66
19
5
146
178
94
174
91
3
117
137
138
162
32
2
86
135
109
35
153
205
125
98
154
126
39
24
143
7
130
114
71
45
142
151
56
14
203
8
26
30
183
188
69
29
80
93
44
177
84
48
113
121
82
108
202
50
88
134
96
122
81
51
101
120
46
176
11
89
22
75
6
34
33
194
167
149
74
165
191
92
182
38
28
52
43
133
195
54
49
31
76
41
9
156
67
197
12
79
110
200
10
42
55
207
58
107
53
210
104
57
118

> <PUBCHEM_MMFF94_PARTIAL_CHARGES>
37
1 -0.19
11 0.28
12 0.27
13 0.45
14 0.3
15 0.01
16 -0.15
17 0.23
18 0.46
19 0.26
2 -0.68
20 -0.15
21 -0.15
22 0.05
23 -0.15
24 -0.15
25 -0.15
26 -0.15
27 0.19
28 -0.15
29 -0.14
3 -0.02
30 0.14
39 0.4
4 -0.81
43 0.15
44 0.15
45 0.15
46 0.15
47 0.15
48 0.15
49 0.15
5 0.05
6 -0.57
7 -0.57
8 -0.41
9 0.45

> <PUBCHEM_EFFECTIVE_ROTOR_COUNT>
5

> <PUBCHEM_PHARMACOPHORE_FEATURES>
10
1 2 acceptor
1 2 donor
1 4 cation
3 5 7 15 cation
3 6 8 18 cation
5 3 6 8 14 18 rings
5 4 9 10 11 12 rings
5 5 7 15 16 17 rings
6 16 17 20 21 23 24 rings
6 22 25 26 27 28 29 rings

> <PUBCHEM_HEAVY_ATOM_COUNT>
30

> <PUBCHEM_ATOM_DEF_STEREO_COUNT>
2

> <PUBCHEM_ATOM_UDEF_STEREO_COUNT>
0

> <PUBCHEM_BOND_DEF_STEREO_COUNT>
0

> <PUBCHEM_BOND_UDEF_STEREO_COUNT>
0

> <PUBCHEM_ISOTOPIC_ATOM_COUNT>
0

> <PUBCHEM_COMPONENT_COUNT>
1

> <PUBCHEM_CACTVS_TAUTO_COUNT>
1

> <PUBCHEM_CONFORMER_ID>
0198140C00000004

> <PUBCHEM_MMFF94_ENERGY>
56.7936

> <PUBCHEM_FEATURE_SELFOVERLAP>
50.857

> <PUBCHEM_SHAPE_FINGERPRINT>
10119406 146 16976746776840320454
10190108 129 18338239375178263336
10382601 240 18055361489880601744
104564 63 18271813453189749204
10688039 33 18335697260764812805
11387372 6 17183611106371978058
12156800 1 18054260685325356093
12293681 25 16840801041388062086
12422481 6 18130801010076424041
12788726 201 18409456864654068982
13140716 1 18270393868262546328
13692114 37 17771360677927974241
13965767 371 17631451327274101874
14790565 3 17546439441762510048
14840074 17 18053935432158615920
14866123 147 17614550450581769978
15420108 30 17128442435799515932
17357779 13 18200576051934134373
20764821 26 18412273822350799213
21304304 249 18049721819589629029
22182313 1 17488183682570229334
23559900 14 16805883004474179663
3052486 1 18335989649052910476
484985 159 17607789613822724930
513202 73 18268994176970633362
5283268 108 18413111679484352127
57527293 21 18194419813785225696
5951187 136 13179407581266676235
7064713 232 16988577796447234323

> <PUBCHEM_SHAPE_MULTIPOLES>
573.47
9.29
4.9
1.82
1.36
4.81
0.25
-10.4
-3.47
0.68
0.28
0.38
-0.33
-0.65

> <PUBCHEM_SHAPE_SELFOVERLAP>
1268.728

> <PUBCHEM_SHAPE_VOLUME>
313.1

> <PUBCHEM_COORDINATE_TYPE>
2
5
10

$$$$
