7673825
  -OEChem-12032416113D

 48 51  0     1  0  0  0  0  0999 V2000
   -0.9187    2.6504    0.6009 S   0  0  0  0  0  0  0  0  0  0  0  0
    0.7028   -1.5600   -1.7212 O   0  0  0  0  0  0  0  0  0  0  0  0
   -3.0093    2.2810   -1.9775 O   0  0  0  0  0  0  0  0  0  0  0  0
   -3.5610    0.7126   -0.3544 N   0  0  0  0  0  0  0  0  0  0  0  0
   -1.1271   -1.3536   -0.2899 N   0  0  0  0  0  0  0  0  0  0  0  0
    5.5927    2.7671   -0.9696 N   0  0  0  0  0  0  0  0  0  0  0  0
   -3.5398   -1.6760   -1.0841 C   0  0  1  0  0  0  0  0  0  0  0  0
   -3.0925   -1.1148    1.2676 C   0  0  2  0  0  0  0  0  0  0  0  0
   -3.8084   -2.1062    0.3528 C   0  0  0  0  0  0  0  0  0  0  0  0
   -4.0711   -0.2530   -1.3298 C   0  0  0  0  0  0  0  0  0  0  0  0
   -2.0357   -1.7853   -1.3610 C   0  0  0  0  0  0  0  0  0  0  0  0
   -3.6711    0.2974    1.0521 C   0  0  0  0  0  0  0  0  0  0  0  0
   -1.5990   -1.1044    1.0009 C   0  0  0  0  0  0  0  0  0  0  0  0
   -0.7362   -0.8291    1.9918 C   0  0  0  0  0  0  0  0  0  0  0  0
    0.2457   -1.3126   -0.6038 C   0  0  0  0  0  0  0  0  0  0  0  0
   -3.0939    1.9522   -0.7915 C   0  0  0  0  0  0  0  0  0  0  0  0
    1.1851   -0.9647    0.5194 C   0  0  0  0  0  0  0  0  0  0  0  0
    0.6752   -0.7539    1.7420 C   0  0  0  0  0  0  0  0  0  0  0  0
   -2.6659    2.9274    0.2759 C   0  0  0  0  0  0  0  0  0  0  0  0
    2.6361   -0.8479    0.2925 C   0  0  0  0  0  0  0  0  0  0  0  0
    3.1903    0.3794   -0.0734 C   0  0  0  0  0  0  0  0  0  0  0  0
    3.4580   -1.9654    0.4434 C   0  0  0  0  0  0  0  0  0  0  0  0
    4.5642    0.4889   -0.2881 C   0  0  0  0  0  0  0  0  0  0  0  0
    4.8319   -1.8558    0.2288 C   0  0  0  0  0  0  0  0  0  0  0  0
   -0.6689    3.9094    1.8771 C   0  0  0  0  0  0  0  0  0  0  0  0
    5.3850   -0.6287   -0.1370 C   0  0  0  0  0  0  0  0  0  0  0  0
    5.1314    1.7455   -0.6640 C   0  0  0  0  0  0  0  0  0  0  0  0
   -4.0654   -2.3486   -1.7733 H   0  0  0  0  0  0  0  0  0  0  0  0
   -3.2812   -1.4119    2.3075 H   0  0  0  0  0  0  0  0  0  0  0  0
   -3.4460   -3.1274    0.5252 H   0  0  0  0  0  0  0  0  0  0  0  0
   -4.8859   -2.1084    0.5573 H   0  0  0  0  0  0  0  0  0  0  0  0
   -3.8368    0.0667   -2.3507 H   0  0  0  0  0  0  0  0  0  0  0  0
   -5.1641   -0.2446   -1.2359 H   0  0  0  0  0  0  0  0  0  0  0  0
   -1.7896   -2.8393   -1.5496 H   0  0  0  0  0  0  0  0  0  0  0  0
   -1.7740   -1.2460   -2.2802 H   0  0  0  0  0  0  0  0  0  0  0  0
   -4.7394    0.3087    1.3013 H   0  0  0  0  0  0  0  0  0  0  0  0
   -3.1798    0.9872    1.7382 H   0  0  0  0  0  0  0  0  0  0  0  0
   -1.0770   -0.6217    3.0008 H   0  0  0  0  0  0  0  0  0  0  0  0
    1.3085   -0.4985    2.5866 H   0  0  0  0  0  0  0  0  0  0  0  0
   -3.2860    2.8822    1.1724 H   0  0  0  0  0  0  0  0  0  0  0  0
   -2.7910    3.9368   -0.1328 H   0  0  0  0  0  0  0  0  0  0  0  0
    2.5495    1.2515   -0.1925 H   0  0  0  0  0  0  0  0  0  0  0  0
    3.0418   -2.9290    0.7272 H   0  0  0  0  0  0  0  0  0  0  0  0
    5.4708   -2.7261    0.3461 H   0  0  0  0  0  0  0  0  0  0  0  0
   -0.8891    4.9033    1.4793 H   0  0  0  0  0  0  0  0  0  0  0  0
    0.3741    3.8879    2.2038 H   0  0  0  0  0  0  0  0  0  0  0  0
   -1.3082    3.7067    2.7401 H   0  0  0  0  0  0  0  0  0  0  0  0
    6.4578   -0.5594   -0.3011 H   0  0  0  0  0  0  0  0  0  0  0  0
  1 19  1  0  0  0  0
  1 25  1  0  0  0  0
  2 15  2  0  0  0  0
  3 16  2  0  0  0  0
  4 10  1  0  0  0  0
  4 12  1  0  0  0  0
  4 16  1  0  0  0  0
  5 11  1  0  0  0  0
  5 13  1  0  0  0  0
  5 15  1  0  0  0  0
  6 27  3  0  0  0  0
  7  9  1  0  0  0  0
  7 10  1  0  0  0  0
  7 11  1  0  0  0  0
  7 28  1  0  0  0  0
  8  9  1  0  0  0  0
  8 12  1  0  0  0  0
  8 13  1  0  0  0  0
  8 29  1  0  0  0  0
  9 30  1  0  0  0  0
  9 31  1  0  0  0  0
 10 32  1  0  0  0  0
 10 33  1  0  0  0  0
 11 34  1  0  0  0  0
 11 35  1  0  0  0  0
 12 36  1  0  0  0  0
 12 37  1  0  0  0  0
 13 14  2  0  0  0  0
 14 18  1  0  0  0  0
 14 38  1  0  0  0  0
 15 17  1  0  0  0  0
 16 19  1  0  0  0  0
 17 18  2  0  0  0  0
 17 20  1  0  0  0  0
 18 39  1  0  0  0  0
 19 40  1  0  0  0  0
 19 41  1  0  0  0  0
 20 21  1  0  0  0  0
 20 22  2  0  0  0  0
 21 23  2  0  0  0  0
 21 42  1  0  0  0  0
 22 24  1  0  0  0  0
 22 43  1  0  0  0  0
 23 26  1  0  0  0  0
 23 27  1  0  0  0  0
 24 26  2  0  0  0  0
 24 44  1  0  0  0  0
 25 45  1  0  0  0  0
 25 46  1  0  0  0  0
 25 47  1  0  0  0  0
 26 48  1  0  0  0  0
M  END
> <PUBCHEM_COMPOUND_CID>
7673825

> <PUBCHEM_CONFORMER_RMSD>
0.8

> <PUBCHEM_CONFORMER_DIVERSEORDER>
1
20
22
23
16
8
13
11
28
24
6
18
25
21
3
19
15
14
10
17
26
5
2
27
9
7
4
12

> <PUBCHEM_MMFF94_PARTIAL_CHARGES>
31
1 -0.46
10 0.3
11 0.3
12 0.3
13 -0.03
14 -0.15
15 0.62
16 0.57
17 -0.01
18 -0.15
19 0.29
2 -0.57
20 0.03
21 -0.15
22 -0.15
23 0.07
24 -0.15
25 0.23
26 -0.15
27 0.48
3 -0.57
38 0.15
39 0.15
4 -0.66
42 0.15
43 0.15
44 0.15
48 0.15
5 -0.47
6 -0.56
8 0.14

> <PUBCHEM_EFFECTIVE_ROTOR_COUNT>
5

> <PUBCHEM_PHARMACOPHORE_FEATURES>
8
1 2 acceptor
1 25 hydrophobe
1 3 acceptor
1 6 acceptor
6 20 21 22 23 24 26 rings
6 4 7 8 9 10 12 rings
6 5 13 14 15 17 18 rings
6 5 7 8 9 11 13 rings

> <PUBCHEM_HEAVY_ATOM_COUNT>
27

> <PUBCHEM_ATOM_DEF_STEREO_COUNT>
2

> <PUBCHEM_ATOM_UDEF_STEREO_COUNT>
0

> <PUBCHEM_BOND_DEF_STEREO_COUNT>
0

> <PUBCHEM_BOND_UDEF_STEREO_COUNT>
0

> <PUBCHEM_ISOTOPIC_ATOM_COUNT>
0

> <PUBCHEM_COMPONENT_COUNT>
1

> <PUBCHEM_CACTVS_TAUTO_COUNT>
1

> <PUBCHEM_CONFORMER_ID>
007517E100000001

> <PUBCHEM_MMFF94_ENERGY>
70.1534

> <PUBCHEM_FEATURE_SELFOVERLAP>
42.162

> <PUBCHEM_SHAPE_FINGERPRINT>
10670039 82 18262815068067782180
11961588 58 17823116966373893525
12107183 9 17758952619850592210
12236239 1 18059861679868681946
12403814 3 18272375269683170091
13583140 156 17679597648558422618
14251764 38 18338239258876698436
14363568 33 17981330302372199953
14713325 29 18200316507382378731
15209294 21 17167861915819286307
16994733 274 14925044005133960183
17492 54 18119505684539137669
17818456 19 17909815545209060346
17844677 252 18334862705954695054
20775438 99 17119401177639553375
21033648 29 16226040072466340710
21623110 236 18335428971100882653
21709351 56 18338237068712552166
22907989 373 18059859419861043488
23352939 185 18201439246314286155
23559900 14 18193834847877495730
2838139 119 18044083571639525165
3380486 145 17608958686281885115
3493558 16 18041569155971501956
469060 322 15357997671635770163
5104073 3 17458340840937292738
633830 44 18113893841103885554

> <PUBCHEM_SHAPE_MULTIPOLES>
532.82
10.79
3.61
1.66
13.69
3.9
0.13
1.05
-3.06
-0.87
0.34
-1.17
0.23
-0.85

> <PUBCHEM_SHAPE_SELFOVERLAP>
1141.658

> <PUBCHEM_SHAPE_VOLUME>
295.7

> <PUBCHEM_COORDINATE_TYPE>
2
5
10

$$$$
