11882023
  -OEChem-12032416403D

 70 73  0     1  0  0  0  0  0999 V2000
   -3.2467   -1.5079    2.4638 F   0  0  0  0  0  0  0  0  0  0  0  0
   -7.1421   -2.9122    0.1759 F   0  0  0  0  0  0  0  0  0  0  0  0
    1.6607    0.4279    0.8774 O   0  0  0  0  0  0  0  0  0  0  0  0
    5.2079    0.3089    0.6189 O   0  0  0  0  0  0  0  0  0  0  0  0
   -0.9877   -2.8649   -1.8651 O   0  0  0  0  0  0  0  0  0  0  0  0
    3.2535    4.4904   -0.5519 O   0  0  0  0  0  0  0  0  0  0  0  0
    3.5920   -1.1352   -0.2025 N   0  0  0  0  0  0  0  0  0  0  0  0
    0.5601   -2.0709   -0.3423 N   0  0  0  0  0  0  0  0  0  0  0  0
    2.0232    2.0413   -0.7611 N   0  0  0  0  0  0  0  0  0  0  0  0
   -1.6538   -2.1382    0.2653 N   0  0  0  0  0  0  0  0  0  0  0  0
   -2.5319    1.1948   -1.5220 N   0  0  0  0  0  0  0  0  0  0  0  0
    1.9698    4.9373    1.2998 N   0  0  0  0  0  0  0  0  0  0  0  0
    1.7209   -2.2353   -1.1811 C   0  0  1  0  0  0  0  0  0  0  0  0
    2.9363   -0.1532   -1.0554 C   0  0  1  0  0  0  0  0  0  0  0  0
    2.0314   -0.9663   -1.9775 C   0  0  0  0  0  0  0  0  0  0  0  0
    2.9875   -2.4606   -0.3602 C   0  0  0  0  0  0  0  0  0  0  0  0
    2.1447    0.7844   -0.1937 C   0  0  0  0  0  0  0  0  0  0  0  0
    4.7353   -0.8228    0.5139 C   0  0  0  0  0  0  0  0  0  0  0  0
    1.2885    3.1206   -0.1417 C   0  0  2  0  0  0  0  0  0  0  0  0
   -0.7355   -2.4048   -0.7542 C   0  0  0  0  0  0  0  0  0  0  0  0
    0.1629    3.6481   -1.0405 C   0  0  0  0  0  0  0  0  0  0  0  0
    5.4194   -1.9406    1.1941 C   0  0  0  0  0  0  0  0  0  0  0  0
   -1.0639    2.7816   -1.0181 C   0  0  0  0  0  0  0  0  0  0  0  0
    2.2890    4.2262    0.1622 C   0  0  0  0  0  0  0  0  0  0  0  0
    6.6862   -2.3222    0.9586 C   0  0  0  0  0  0  0  0  0  0  0  0
   -2.1700    2.9011   -0.1310 C   0  0  0  0  0  0  0  0  0  0  0  0
   -1.3156    1.7239   -1.8612 C   0  0  0  0  0  0  0  0  0  0  0  0
   -3.0766    1.8938   -0.4684 C   0  0  0  0  0  0  0  0  0  0  0  0
   -3.0542   -2.3356    0.2457 C   0  0  0  0  0  0  0  0  0  0  0  0
    7.5099   -1.5858   -0.0665 C   0  0  0  0  0  0  0  0  0  0  0  0
    7.4158   -3.4526    1.6296 C   0  0  0  0  0  0  0  0  0  0  0  0
   -2.4880    3.7720    0.9300 C   0  0  0  0  0  0  0  0  0  0  0  0
   -4.2902    1.7134    0.2048 C   0  0  0  0  0  0  0  0  0  0  0  0
   -3.6983    3.6035    1.6124 C   0  0  0  0  0  0  0  0  0  0  0  0
   -4.5840    2.5893    1.2536 C   0  0  0  0  0  0  0  0  0  0  0  0
   -3.8237   -2.0094    1.3625 C   0  0  0  0  0  0  0  0  0  0  0  0
   -3.6656   -2.8570   -0.8944 C   0  0  0  0  0  0  0  0  0  0  0  0
   -5.2046   -2.2046    1.3391 C   0  0  0  0  0  0  0  0  0  0  0  0
   -5.0465   -3.0523   -0.9177 C   0  0  0  0  0  0  0  0  0  0  0  0
   -5.8160   -2.7261    0.1990 C   0  0  0  0  0  0  0  0  0  0  0  0
    1.5360   -3.0829   -1.8499 H   0  0  0  0  0  0  0  0  0  0  0  0
    3.6964    0.4013   -1.6177 H   0  0  0  0  0  0  0  0  0  0  0  0
    1.1360   -0.4266   -2.3009 H   0  0  0  0  0  0  0  0  0  0  0  0
    2.6001   -1.2441   -2.8742 H   0  0  0  0  0  0  0  0  0  0  0  0
    2.8085   -2.9177    0.6178 H   0  0  0  0  0  0  0  0  0  0  0  0
    3.7063   -3.0767   -0.9126 H   0  0  0  0  0  0  0  0  0  0  0  0
    0.6784   -1.6372    0.5682 H   0  0  0  0  0  0  0  0  0  0  0  0
    2.4854    2.2332   -1.6454 H   0  0  0  0  0  0  0  0  0  0  0  0
    0.8715    2.7637    0.8085 H   0  0  0  0  0  0  0  0  0  0  0  0
   -0.1233    4.6612   -0.7287 H   0  0  0  0  0  0  0  0  0  0  0  0
    0.5188    3.7471   -2.0750 H   0  0  0  0  0  0  0  0  0  0  0  0
    4.8211   -2.4905    1.9153 H   0  0  0  0  0  0  0  0  0  0  0  0
   -1.2806   -1.7542    1.1299 H   0  0  0  0  0  0  0  0  0  0  0  0
   -0.7408    1.2998   -2.6725 H   0  0  0  0  0  0  0  0  0  0  0  0
   -2.9667    0.4037   -1.9768 H   0  0  0  0  0  0  0  0  0  0  0  0
   -1.8080    4.5666    1.2237 H   0  0  0  0  0  0  0  0  0  0  0  0
    8.2609   -0.9647    0.4328 H   0  0  0  0  0  0  0  0  0  0  0  0
    6.9320   -0.9497   -0.7418 H   0  0  0  0  0  0  0  0  0  0  0  0
    8.0356   -2.3038   -0.7065 H   0  0  0  0  0  0  0  0  0  0  0  0
    7.7143   -4.2068    0.8947 H   0  0  0  0  0  0  0  0  0  0  0  0
    6.7853   -3.9444    2.3777 H   0  0  0  0  0  0  0  0  0  0  0  0
    8.3114   -3.0812    2.1374 H   0  0  0  0  0  0  0  0  0  0  0  0
    1.1553    4.7237    1.8666 H   0  0  0  0  0  0  0  0  0  0  0  0
    2.5479    5.7118    1.6086 H   0  0  0  0  0  0  0  0  0  0  0  0
   -4.9810    0.9252   -0.0751 H   0  0  0  0  0  0  0  0  0  0  0  0
   -3.9486    4.2720    2.4319 H   0  0  0  0  0  0  0  0  0  0  0  0
   -5.5186    2.4762    1.7973 H   0  0  0  0  0  0  0  0  0  0  0  0
   -3.1398   -3.1326   -1.7973 H   0  0  0  0  0  0  0  0  0  0  0  0
   -5.8038   -1.9496    2.2080 H   0  0  0  0  0  0  0  0  0  0  0  0
   -5.5244   -3.4575   -1.8049 H   0  0  0  0  0  0  0  0  0  0  0  0
  1 36  1  0  0  0  0
  2 40  1  0  0  0  0
  3 17  2  0  0  0  0
  4 18  2  0  0  0  0
  5 20  2  0  0  0  0
  6 24  2  0  0  0  0
  7 14  1  0  0  0  0
  7 16  1  0  0  0  0
  7 18  1  0  0  0  0
  8 13  1  0  0  0  0
  8 20  1  0  0  0  0
  8 47  1  0  0  0  0
  9 17  1  0  0  0  0
  9 19  1  0  0  0  0
  9 48  1  0  0  0  0
 10 20  1  0  0  0  0
 10 29  1  0  0  0  0
 10 53  1  0  0  0  0
 11 27  1  0  0  0  0
 11 28  1  0  0  0  0
 11 55  1  0  0  0  0
 12 24  1  0  0  0  0
 12 63  1  0  0  0  0
 12 64  1  0  0  0  0
 13 15  1  0  0  0  0
 13 16  1  0  0  0  0
 13 41  1  0  0  0  0
 14 15  1  0  0  0  0
 14 17  1  0  0  0  0
 14 42  1  0  0  0  0
 15 43  1  0  0  0  0
 15 44  1  0  0  0  0
 16 45  1  0  0  0  0
 16 46  1  0  0  0  0
 18 22  1  0  0  0  0
 19 21  1  0  0  0  0
 19 24  1  0  0  0  0
 19 49  1  0  0  0  0
 21 23  1  0  0  0  0
 21 50  1  0  0  0  0
 21 51  1  0  0  0  0
 22 25  2  0  0  0  0
 22 52  1  0  0  0  0
 23 26  1  0  0  0  0
 23 27  2  0  0  0  0
 25 30  1  0  0  0  0
 25 31  1  0  0  0  0
 26 28  1  0  0  0  0
 26 32  2  0  0  0  0
 27 54  1  0  0  0  0
 28 33  2  0  0  0  0
 29 36  2  0  0  0  0
 29 37  1  0  0  0  0
 30 57  1  0  0  0  0
 30 58  1  0  0  0  0
 30 59  1  0  0  0  0
 31 60  1  0  0  0  0
 31 61  1  0  0  0  0
 31 62  1  0  0  0  0
 32 34  1  0  0  0  0
 32 56  1  0  0  0  0
 33 35  1  0  0  0  0
 33 65  1  0  0  0  0
 34 35  2  0  0  0  0
 34 66  1  0  0  0  0
 35 67  1  0  0  0  0
 36 38  1  0  0  0  0
 37 39  2  0  0  0  0
 37 68  1  0  0  0  0
 38 40  2  0  0  0  0
 38 69  1  0  0  0  0
 39 40  1  0  0  0  0
 39 70  1  0  0  0  0
M  END
> <PUBCHEM_COMPOUND_CID>
11882023

> <PUBCHEM_CONFORMER_RMSD>
1.4

> <PUBCHEM_CONFORMER_DIVERSEORDER>
1
82
110
107
161
142
99
150
119
104
176
152
55
80
72
135
13
16
156
24
73
131
51
33
155
52
28
166
103
196
198
19
130
63
115
159
42
20
78
76
23
100
151
109
123
38
87
47
145
164
56
86
126
189
171
54
105
93
84
199
10
134
175
116
70
183
21
7
81
91
32
192
96
167
106
98
48
193
60
102
186
168
174
88
22
12
27
148
121
108
75
124
34
147
6
172
64
74
31
83
37
128
59
158
101
181
66
188
160
118
49
79
180
177
182
170
125
9
154
140
195
65
44
68
185
46
149
133
43
35
137
144
15
61
8
132
58
3
143
187
163
191
117
178
57
11
127
77
184
111
179
25
53
120
129
190
62
141
41
197
50
71
112
2
89
94
97
114
67
136
40
162
194
92
29
146
113
39
90
122
157
45
4
17
138
165
85
139
30
26
153
95
69
5
18
36
14
173
169

> <PUBCHEM_MMFF94_PARTIAL_CHARGES>
53
1 -0.19
10 -0.55
11 0.03
12 -0.8
13 0.3
14 0.36
16 0.3
17 0.57
18 0.62
19 0.36
2 -0.19
20 0.69
21 0.18
22 -0.14
23 -0.18
24 0.57
25 -0.28
27 -0.3
28 -0.15
29 0.12
3 -0.57
30 0.14
31 0.14
32 -0.15
33 -0.15
34 -0.15
35 -0.15
36 0.19
37 -0.15
38 -0.15
39 -0.15
4 -0.57
40 0.19
47 0.37
48 0.37
5 -0.57
52 0.15
53 0.37
54 0.15
55 0.27
56 0.15
6 -0.57
63 0.37
64 0.37
65 0.15
66 0.15
67 0.15
68 0.15
69 0.15
7 -0.66
70 0.15
8 -0.73
9 -0.73

> <PUBCHEM_EFFECTIVE_ROTOR_COUNT>
13

> <PUBCHEM_PHARMACOPHORE_FEATURES>
15
1 10 donor
1 11 cation
1 11 donor
1 12 donor
1 3 acceptor
1 4 acceptor
1 5 acceptor
1 6 acceptor
1 8 donor
1 9 donor
3 25 30 31 hydrophobe
5 11 23 26 27 28 rings
5 7 13 14 15 16 rings
6 26 28 32 33 34 35 rings
6 29 36 37 38 39 40 rings

> <PUBCHEM_HEAVY_ATOM_COUNT>
40

> <PUBCHEM_ATOM_DEF_STEREO_COUNT>
3

> <PUBCHEM_ATOM_UDEF_STEREO_COUNT>
0

> <PUBCHEM_BOND_DEF_STEREO_COUNT>
0

> <PUBCHEM_BOND_UDEF_STEREO_COUNT>
0

> <PUBCHEM_ISOTOPIC_ATOM_COUNT>
0

> <PUBCHEM_COMPONENT_COUNT>
1

> <PUBCHEM_CACTVS_TAUTO_COUNT>
12

> <PUBCHEM_CONFORMER_ID>
00B54E2700000001

> <PUBCHEM_MMFF94_ENERGY>
91.0327

> <PUBCHEM_FEATURE_SELFOVERLAP>
76.267

> <PUBCHEM_SHAPE_FINGERPRINT>
10006869 2 18199188580208605853
10439779 11 18270118985485615793
11136131 41 18047464819171980672
11513181 2 18057907899007926767
12107698 1 18410011073979849539
12677640 9 18270965644580145385
13560911 43 18339932609541123787
14068700 675 18341051908341207775
14395042 24 18337964407477757577
14725015 67 18334852831977582859
14856354 85 18268422431139468054
15444296 121 18270123396913212260
20764821 26 18338531789051535381
21133410 90 17417801855937837465
513532 50 17555199178064906101

> <PUBCHEM_SHAPE_MULTIPOLES>
755.27
15.25
7.11
1.67
16.51
5.93
0.08
-16.43
7.17
-3.93
0.79
-0.41
-0.25
-1.65

> <PUBCHEM_SHAPE_SELFOVERLAP>
1622.855

> <PUBCHEM_SHAPE_VOLUME>
417.7

> <PUBCHEM_COORDINATE_TYPE>
2
5
10

$$$$
