45783319
  -OEChem-12032416273D

 59 62  0     1  0  0  0  0  0999 V2000
   -3.6110   -1.8711   -0.4894 O   0  0  0  0  0  0  0  0  0  0  0  0
    5.8173    1.7958    1.7276 O   0  0  0  0  0  0  0  0  0  0  0  0
   -4.2939    1.5608   -0.1663 N   0  0  1  0  0  0  0  0  0  0  0  0
    3.1386   -0.3056   -0.2382 N   0  0  0  0  0  0  0  0  0  0  0  0
   -1.9110   -0.4241   -0.6705 N   0  0  0  0  0  0  0  0  0  0  0  0
   -2.4477   -2.6006   -0.2134 N   0  0  0  0  0  0  0  0  0  0  0  0
    2.6084   -2.5630    0.2401 N   0  0  0  0  0  0  0  0  0  0  0  0
    7.4378    1.4279    0.1360 N   0  0  0  0  0  0  0  0  0  0  0  0
   -4.2929    0.4005   -1.0795 C   0  0  1  0  0  0  0  0  0  0  0  0
   -4.1325    1.0089   -2.4849 C   0  0  0  0  0  0  0  0  0  0  0  0
   -4.8151    2.6913   -0.9348 C   0  0  0  0  0  0  0  0  0  0  0  0
   -4.1138    2.5151   -2.2665 C   0  0  0  0  0  0  0  0  0  0  0  0
   -5.0551    1.3303    1.0547 C   0  0  0  0  0  0  0  0  0  0  0  0
   -4.2438    0.5703    2.1182 C   0  0  0  0  0  0  0  0  0  0  0  0
   -3.2058   -0.6003   -0.7482 C   0  0  0  0  0  0  0  0  0  0  0  0
    5.1574    1.7544   -0.5711 C   0  0  0  0  0  0  0  0  0  0  0  0
    5.1636    0.4731   -1.4025 C   0  0  0  0  0  0  0  0  0  0  0  0
    3.7561    2.0738   -0.0548 C   0  0  0  0  0  0  0  0  0  0  0  0
    4.4775   -0.6960   -0.6964 C   0  0  0  0  0  0  0  0  0  0  0  0
    3.0676    0.8832    0.6160 C   0  0  0  0  0  0  0  0  0  0  0  0
   -2.9957    1.3759    2.4889 C   0  0  0  0  0  0  0  0  0  0  0  0
   -5.0596    0.2758    3.3797 C   0  0  0  0  0  0  0  0  0  0  0  0
    2.1868   -1.3209   -0.0877 C   0  0  0  0  0  0  0  0  0  0  0  0
    6.1480    1.6592    0.5522 C   0  0  0  0  0  0  0  0  0  0  0  0
   -1.4884   -1.6788   -0.3399 C   0  0  0  0  0  0  0  0  0  0  0  0
   -0.0981   -1.9791   -0.1443 C   0  0  0  0  0  0  0  0  0  0  0  0
    0.8588   -0.9805   -0.2887 C   0  0  0  0  0  0  0  0  0  0  0  0
    0.2967   -3.2691    0.1921 C   0  0  0  0  0  0  0  0  0  0  0  0
    1.6498   -3.5072    0.3717 C   0  0  0  0  0  0  0  0  0  0  0  0
   -5.2635   -0.1147   -1.0566 H   0  0  0  0  0  0  0  0  0  0  0  0
   -4.9979    0.7402   -3.1032 H   0  0  0  0  0  0  0  0  0  0  0  0
   -3.2304    0.6808   -3.0124 H   0  0  0  0  0  0  0  0  0  0  0  0
   -5.9028    2.6272   -1.0663 H   0  0  0  0  0  0  0  0  0  0  0  0
   -4.5674    3.6527   -0.4744 H   0  0  0  0  0  0  0  0  0  0  0  0
   -3.0775    2.8695   -2.2030 H   0  0  0  0  0  0  0  0  0  0  0  0
   -4.6098    3.0571   -3.0771 H   0  0  0  0  0  0  0  0  0  0  0  0
   -5.9990    0.8090    0.8486 H   0  0  0  0  0  0  0  0  0  0  0  0
   -5.3402    2.2969    1.4936 H   0  0  0  0  0  0  0  0  0  0  0  0
   -3.9267   -0.4018    1.7322 H   0  0  0  0  0  0  0  0  0  0  0  0
    5.4877    2.5880   -1.2054 H   0  0  0  0  0  0  0  0  0  0  0  0
    6.1706    0.1680   -1.7050 H   0  0  0  0  0  0  0  0  0  0  0  0
    4.6186    0.6745   -2.3351 H   0  0  0  0  0  0  0  0  0  0  0  0
    3.7732    2.9245    0.6371 H   0  0  0  0  0  0  0  0  0  0  0  0
    3.1411    2.3850   -0.9102 H   0  0  0  0  0  0  0  0  0  0  0  0
    4.4167   -1.5281   -1.4096 H   0  0  0  0  0  0  0  0  0  0  0  0
    5.0777   -1.0358    0.1566 H   0  0  0  0  0  0  0  0  0  0  0  0
    3.5301    0.6576    1.5838 H   0  0  0  0  0  0  0  0  0  0  0  0
    2.0312    1.1705    0.8281 H   0  0  0  0  0  0  0  0  0  0  0  0
   -2.3276    1.5109    1.6326 H   0  0  0  0  0  0  0  0  0  0  0  0
   -2.4211    0.8585    3.2652 H   0  0  0  0  0  0  0  0  0  0  0  0
   -3.2602    2.3665    2.8748 H   0  0  0  0  0  0  0  0  0  0  0  0
   -5.9422   -0.3245    3.1355 H   0  0  0  0  0  0  0  0  0  0  0  0
   -4.4643   -0.2832    4.1094 H   0  0  0  0  0  0  0  0  0  0  0  0
   -5.4007    1.2012    3.8559 H   0  0  0  0  0  0  0  0  0  0  0  0
    0.5805    0.0316   -0.5678 H   0  0  0  0  0  0  0  0  0  0  0  0
   -0.4041   -4.0877    0.3185 H   0  0  0  0  0  0  0  0  0  0  0  0
    8.1915    1.3429    0.8100 H   0  0  0  0  0  0  0  0  0  0  0  0
    7.7025    1.3798   -0.8423 H   0  0  0  0  0  0  0  0  0  0  0  0
    2.0100   -4.4963    0.6349 H   0  0  0  0  0  0  0  0  0  0  0  0
  1  6  1  0  0  0  0
  1 15  1  0  0  0  0
  2 24  2  0  0  0  0
  3  9  1  0  0  0  0
  3 11  1  0  0  0  0
  3 13  1  0  0  0  0
  4 19  1  0  0  0  0
  4 20  1  0  0  0  0
  4 23  1  0  0  0  0
  5 15  2  0  0  0  0
  5 25  1  0  0  0  0
  6 25  2  0  0  0  0
  7 23  2  0  0  0  0
  7 29  1  0  0  0  0
  8 24  1  0  0  0  0
  8 57  1  0  0  0  0
  8 58  1  0  0  0  0
  9 10  1  0  0  0  0
  9 15  1  0  0  0  0
  9 30  1  0  0  0  0
 10 12  1  0  0  0  0
 10 31  1  0  0  0  0
 10 32  1  0  0  0  0
 11 12  1  0  0  0  0
 11 33  1  0  0  0  0
 11 34  1  0  0  0  0
 12 35  1  0  0  0  0
 12 36  1  0  0  0  0
 13 14  1  0  0  0  0
 13 37  1  0  0  0  0
 13 38  1  0  0  0  0
 14 21  1  0  0  0  0
 14 22  1  0  0  0  0
 14 39  1  0  0  0  0
 16 17  1  0  0  0  0
 16 18  1  0  0  0  0
 16 24  1  0  0  0  0
 16 40  1  0  0  0  0
 17 19  1  0  0  0  0
 17 41  1  0  0  0  0
 17 42  1  0  0  0  0
 18 20  1  0  0  0  0
 18 43  1  0  0  0  0
 18 44  1  0  0  0  0
 19 45  1  0  0  0  0
 19 46  1  0  0  0  0
 20 47  1  0  0  0  0
 20 48  1  0  0  0  0
 21 49  1  0  0  0  0
 21 50  1  0  0  0  0
 21 51  1  0  0  0  0
 22 52  1  0  0  0  0
 22 53  1  0  0  0  0
 22 54  1  0  0  0  0
 23 27  1  0  0  0  0
 25 26  1  0  0  0  0
 26 27  2  0  0  0  0
 26 28  1  0  0  0  0
 27 55  1  0  0  0  0
 28 29  2  0  0  0  0
 28 56  1  0  0  0  0
 29 59  1  0  0  0  0
M  END
> <PUBCHEM_COMPOUND_CID>
45783319

> <PUBCHEM_CONFORMER_RMSD>
1

> <PUBCHEM_CONFORMER_DIVERSEORDER>
1
74
10
30
39
133
149
151
32
9
76
80
118
115
25
42
128
94
143
82
12
141
54
122
110
46
117
7
91
125
23
112
49
90
59
123
130
19
2
103
60
71
20
131
105
104
147
121
21
98
136
35
62
153
79
73
11
96
72
47
108
34
89
15
45
109
70
87
124
138
135
16
6
114
8
107
144
132
48
66
95
44
154
14
88
85
113
41
65
129
83
99
29
140
93
13
53
127
22
155
50
120
67
97
17
78
24
106
126
63
111
40
36
100
55
102
86
61
31
3
92
119
77
134
146
26
152
64
84
37
137
68
18
75
101
148
56
58
52
33
116
43
69
28
38
142
81
5
4
27
145
57
139
51
150

> <PUBCHEM_MMFF94_PARTIAL_CHARGES>
27
1 -0.02
11 0.27
13 0.27
15 0.3
16 0.06
19 0.37
2 -0.57
20 0.37
23 0.41
24 0.57
25 0.46
26 0.05
27 -0.15
28 -0.15
29 0.16
3 -0.81
4 -0.84
5 -0.57
55 0.15
56 0.15
57 0.37
58 0.37
59 0.15
6 -0.41
7 -0.62
8 -0.8
9 0.45

> <PUBCHEM_EFFECTIVE_ROTOR_COUNT>
8.2

> <PUBCHEM_PHARMACOPHORE_FEATURES>
10
1 2 acceptor
1 3 cation
1 8 donor
3 14 21 22 hydrophobe
3 4 7 23 cation
3 5 6 25 cation
5 1 5 6 15 25 rings
5 3 9 10 11 12 rings
6 4 16 17 18 19 20 rings
6 7 23 26 27 28 29 rings

> <PUBCHEM_HEAVY_ATOM_COUNT>
29

> <PUBCHEM_ATOM_DEF_STEREO_COUNT>
1

> <PUBCHEM_ATOM_UDEF_STEREO_COUNT>
0

> <PUBCHEM_BOND_DEF_STEREO_COUNT>
0

> <PUBCHEM_BOND_UDEF_STEREO_COUNT>
0

> <PUBCHEM_ISOTOPIC_ATOM_COUNT>
0

> <PUBCHEM_COMPONENT_COUNT>
1

> <PUBCHEM_CACTVS_TAUTO_COUNT>
2

> <PUBCHEM_CONFORMER_ID>
02BA991700000001

> <PUBCHEM_MMFF94_ENERGY>
65.9858

> <PUBCHEM_FEATURE_SELFOVERLAP>
50.747

> <PUBCHEM_SHAPE_FINGERPRINT>
10319926 262 16588309332570958482
11049842 53 16054914157542513823
11135609 201 18271812362347145347
11479125 193 17905602199773253281
12107183 9 18115847725559996786
12390115 104 18340497749864425854
12422481 6 17385992941527805508
13103583 49 14706925120690597916
13590594 115 17762906459432553418
13761468 95 16125590786387384265
14466204 15 18335128839318637484
14790565 3 18261955258211153524
14848178 96 18410847746540984774
14950920 106 15430036590845022412
15021287 119 17625831465483704543
15119646 57 17203620293581866857
15183329 4 18131074818626240204
15274700 147 15880129690512578868
16067690 210 17060069111552616456
17913733 40 18335994089996620274
18927931 339 9439407960247545165
20691028 202 18340771429860856333
21033648 144 18413105048097175559
21033648 29 17895476921360649301
21033650 10 15482673451151711691
21223535 225 17632308839339272328
21279426 13 18413672401236107030
21401589 2 18335144214805789283
21756936 100 17632307774012783515
21774942 28 17203616956840826800
22122407 14 18052542067548124033
23559900 14 18197204854900438430
283562 15 18265891548457126927
2838139 119 17489588991595436488
328310 18 17418380207274722873
3459 39 18267847519586238280
3459 83 17845666828619913798
3552219 110 18129389349459632635
3610482 184 16845027744231064241
38570 142 17915484759825583803
469060 322 18115600378039998315
497634 4 18130791179218290039
5104073 3 18040994016463226651
57724786 102 18055361245178215971
5937810 71 18124612018613625348
6371009 1 18117542149338147868
9981440 41 18260260884479952738

> <PUBCHEM_SHAPE_MULTIPOLES>
555.18
16.11
3.62
2.21
14.92
2.17
-1.33
-14.22
-2.26
0.74
0.48
-4.66
-1.38
1.35

> <PUBCHEM_SHAPE_SELFOVERLAP>
1177.478

> <PUBCHEM_SHAPE_VOLUME>
310.4

> <PUBCHEM_COORDINATE_TYPE>
2
5
10

$$$$
