51136810
  -OEChem-12032416223D

 63 67  0     1  0  0  0  0  0999 V2000
   -3.3533    2.4828    0.2034 O   0  0  0  0  0  0  0  0  0  0  0  0
    6.2313   -2.9409    1.7541 O   0  0  0  0  0  0  0  0  0  0  0  0
   -3.7005   -1.1059    0.9149 N   0  0  1  0  0  0  0  0  0  0  0  0
   -1.6665    1.0401    0.5031 N   0  0  0  0  0  0  0  0  0  0  0  0
   -2.1927    3.1496   -0.2087 N   0  0  0  0  0  0  0  0  0  0  0  0
    3.3545    0.7801   -0.1064 N   0  0  0  0  0  0  0  0  0  0  0  0
    5.2532   -1.3527    0.3681 N   0  0  0  0  0  0  0  0  0  0  0  0
    2.8398    2.9620   -0.8486 N   0  0  0  0  0  0  0  0  0  0  0  0
   -4.0552   -1.6098   -0.4104 C   0  0  0  0  0  0  0  0  0  0  0  0
   -4.0406    0.3182    1.1064 C   0  0  1  0  0  0  0  0  0  0  0  0
   -3.7200   -3.1022   -0.5072 C   0  0  0  0  0  0  0  0  0  0  0  0
   -3.3179   -0.8067   -1.4876 C   0  0  0  0  0  0  0  0  0  0  0  0
   -4.3790   -1.8402    1.9829 C   0  0  0  0  0  0  0  0  0  0  0  0
   -4.2959    0.4594    2.6183 C   0  0  0  0  0  0  0  0  0  0  0  0
   -4.1364   -0.9456    3.1816 C   0  0  0  0  0  0  0  0  0  0  0  0
   -4.0070   -3.6473   -1.9052 C   0  0  0  0  0  0  0  0  0  0  0  0
   -3.6048   -1.3547   -2.8845 C   0  0  0  0  0  0  0  0  0  0  0  0
   -3.2836   -2.8434   -2.9821 C   0  0  0  0  0  0  0  0  0  0  0  0
   -2.9548    1.2483    0.6075 C   0  0  0  0  0  0  0  0  0  0  0  0
   -1.2413    2.2342   -0.0020 C   0  0  0  0  0  0  0  0  0  0  0  0
    4.5721    0.6744   -0.9142 C   0  0  0  0  0  0  0  0  0  0  0  0
    3.1670   -0.1729    0.9912 C   0  0  0  0  0  0  0  0  0  0  0  0
    0.1437    2.4815   -0.2882 C   0  0  0  0  0  0  0  0  0  0  0  0
    5.0671   -0.7712   -0.9631 C   0  0  0  0  0  0  0  0  0  0  0  0
    4.5105   -0.7277    1.4595 C   0  0  0  0  0  0  0  0  0  0  0  0
    2.4156    1.7800   -0.3479 C   0  0  0  0  0  0  0  0  0  0  0  0
    1.0925    1.4924   -0.0537 C   0  0  0  0  0  0  0  0  0  0  0  0
    0.5414    3.7107   -0.8025 C   0  0  0  0  0  0  0  0  0  0  0  0
    6.0733   -2.4499    0.6340 C   0  0  0  0  0  0  0  0  0  0  0  0
    1.8891    3.8991   -1.0634 C   0  0  0  0  0  0  0  0  0  0  0  0
    6.7988   -3.0419   -0.5493 C   0  0  0  0  0  0  0  0  0  0  0  0
   -5.1363   -1.4939   -0.5765 H   0  0  0  0  0  0  0  0  0  0  0  0
   -4.9786    0.5655    0.5889 H   0  0  0  0  0  0  0  0  0  0  0  0
   -2.6624   -3.2719   -0.2655 H   0  0  0  0  0  0  0  0  0  0  0  0
   -4.3128   -3.6972    0.1961 H   0  0  0  0  0  0  0  0  0  0  0  0
   -2.2342   -0.8325   -1.3195 H   0  0  0  0  0  0  0  0  0  0  0  0
   -3.6447    0.2358   -1.5170 H   0  0  0  0  0  0  0  0  0  0  0  0
   -3.9479   -2.8285    2.1683 H   0  0  0  0  0  0  0  0  0  0  0  0
   -5.4559   -1.9410    1.7972 H   0  0  0  0  0  0  0  0  0  0  0  0
   -3.6169    1.1584    3.1184 H   0  0  0  0  0  0  0  0  0  0  0  0
   -5.3220    0.8080    2.7879 H   0  0  0  0  0  0  0  0  0  0  0  0
   -4.8331   -1.1438    4.0014 H   0  0  0  0  0  0  0  0  0  0  0  0
   -3.1158   -1.0808    3.5610 H   0  0  0  0  0  0  0  0  0  0  0  0
   -3.6997   -4.6977   -1.9618 H   0  0  0  0  0  0  0  0  0  0  0  0
   -5.0875   -3.6199   -2.0935 H   0  0  0  0  0  0  0  0  0  0  0  0
   -4.6617   -1.1937   -3.1309 H   0  0  0  0  0  0  0  0  0  0  0  0
   -3.0166   -0.8021   -3.6261 H   0  0  0  0  0  0  0  0  0  0  0  0
   -3.5649   -3.2173   -3.9729 H   0  0  0  0  0  0  0  0  0  0  0  0
   -2.2012   -2.9898   -2.8804 H   0  0  0  0  0  0  0  0  0  0  0  0
    4.3868    1.0116   -1.9413 H   0  0  0  0  0  0  0  0  0  0  0  0
    5.3438    1.3240   -0.4837 H   0  0  0  0  0  0  0  0  0  0  0  0
    2.6843    0.3078    1.8511 H   0  0  0  0  0  0  0  0  0  0  0  0
    2.5285   -0.9983    0.6529 H   0  0  0  0  0  0  0  0  0  0  0  0
    6.0033   -0.8162   -1.5269 H   0  0  0  0  0  0  0  0  0  0  0  0
    4.3364   -1.4034   -1.4823 H   0  0  0  0  0  0  0  0  0  0  0  0
    4.3575   -1.4467    2.2714 H   0  0  0  0  0  0  0  0  0  0  0  0
    5.1422    0.0787    1.8521 H   0  0  0  0  0  0  0  0  0  0  0  0
    0.7896    0.5227    0.3278 H   0  0  0  0  0  0  0  0  0  0  0  0
   -0.1532    4.5190   -1.0058 H   0  0  0  0  0  0  0  0  0  0  0  0
    2.2512    4.8396   -1.4653 H   0  0  0  0  0  0  0  0  0  0  0  0
    7.2741   -3.9812   -0.2504 H   0  0  0  0  0  0  0  0  0  0  0  0
    6.1007   -3.2604   -1.3615 H   0  0  0  0  0  0  0  0  0  0  0  0
    7.5765   -2.3543   -0.8915 H   0  0  0  0  0  0  0  0  0  0  0  0
  1  5  1  0  0  0  0
  1 19  1  0  0  0  0
  2 29  2  0  0  0  0
  3  9  1  0  0  0  0
  3 10  1  0  0  0  0
  3 13  1  0  0  0  0
  4 19  2  0  0  0  0
  4 20  1  0  0  0  0
  5 20  2  0  0  0  0
  6 21  1  0  0  0  0
  6 22  1  0  0  0  0
  6 26  1  0  0  0  0
  7 24  1  0  0  0  0
  7 25  1  0  0  0  0
  7 29  1  0  0  0  0
  8 26  2  0  0  0  0
  8 30  1  0  0  0  0
  9 11  1  0  0  0  0
  9 12  1  0  0  0  0
  9 32  1  0  0  0  0
 10 14  1  0  0  0  0
 10 19  1  0  0  0  0
 10 33  1  0  0  0  0
 11 16  1  0  0  0  0
 11 34  1  0  0  0  0
 11 35  1  0  0  0  0
 12 17  1  0  0  0  0
 12 36  1  0  0  0  0
 12 37  1  0  0  0  0
 13 15  1  0  0  0  0
 13 38  1  0  0  0  0
 13 39  1  0  0  0  0
 14 15  1  0  0  0  0
 14 40  1  0  0  0  0
 14 41  1  0  0  0  0
 15 42  1  0  0  0  0
 15 43  1  0  0  0  0
 16 18  1  0  0  0  0
 16 44  1  0  0  0  0
 16 45  1  0  0  0  0
 17 18  1  0  0  0  0
 17 46  1  0  0  0  0
 17 47  1  0  0  0  0
 18 48  1  0  0  0  0
 18 49  1  0  0  0  0
 20 23  1  0  0  0  0
 21 24  1  0  0  0  0
 21 50  1  0  0  0  0
 21 51  1  0  0  0  0
 22 25  1  0  0  0  0
 22 52  1  0  0  0  0
 22 53  1  0  0  0  0
 23 27  2  0  0  0  0
 23 28  1  0  0  0  0
 24 54  1  0  0  0  0
 24 55  1  0  0  0  0
 25 56  1  0  0  0  0
 25 57  1  0  0  0  0
 26 27  1  0  0  0  0
 27 58  1  0  0  0  0
 28 30  2  0  0  0  0
 28 59  1  0  0  0  0
 29 31  1  0  0  0  0
 30 60  1  0  0  0  0
 31 61  1  0  0  0  0
 31 62  1  0  0  0  0
 31 63  1  0  0  0  0
M  END
> <PUBCHEM_COMPOUND_CID>
51136810

> <PUBCHEM_CONFORMER_RMSD>
1

> <PUBCHEM_CONFORMER_DIVERSEORDER>
1
217
216
58
107
104
108
40
176
202
6
152
222
20
185
88
74
170
28
109
66
223
220
173
153
193
191
146
124
79
112
192
87
10
188
63
211
61
207
97
155
99
199
195
119
31
149
204
238
178
69
197
113
120
143
123
34
86
132
231
122
198
235
180
3
42
171
154
130
128
135
95
212
129
45
183
21
90
147
224
163
190
92
81
50
80
96
214
57
201
219
101
83
236
227
167
228
142
18
51
126
82
16
118
89
134
25
177
64
29
179
93
206
175
117
226
161
237
98
156
189
172
203
230
111
67
43
125
78
23
137
165
148
62
196
232
159
49
174
77
116
233
169
59
121
181
150
68
56
187
102
213
85
221
48
145
76
2
54
215
186
144
65
52
110
168
210
5
157
127
166
164
100
60
47
41
103
55
205
46
160
15
4
114
53
11
136
162
131
151
133
26
194
208
17
141
115
22
225
13
200
106
91
37
84
218
33
209
71
140
184
36
105
12
139
138
234
32
38
75
70
39
182
229
73
14
8
30
27
94
24
44
7
9
72
35
158
19

> <PUBCHEM_MMFF94_PARTIAL_CHARGES>
27
1 -0.02
10 0.45
13 0.27
19 0.3
2 -0.57
20 0.46
21 0.37
22 0.37
23 0.05
24 0.3
25 0.3
26 0.41
27 -0.15
28 -0.15
29 0.57
3 -0.81
30 0.16
31 0.06
4 -0.57
5 -0.41
58 0.15
59 0.15
6 -0.84
60 0.15
7 -0.66
8 -0.62
9 0.27

> <PUBCHEM_EFFECTIVE_ROTOR_COUNT>
8.4

> <PUBCHEM_PHARMACOPHORE_FEATURES>
9
1 2 acceptor
1 3 cation
3 4 5 20 cation
3 6 8 26 cation
5 1 4 5 19 20 rings
5 3 10 13 14 15 rings
6 6 7 21 22 24 25 rings
6 8 23 26 27 28 30 rings
6 9 11 12 16 17 18 rings

> <PUBCHEM_HEAVY_ATOM_COUNT>
31

> <PUBCHEM_ATOM_DEF_STEREO_COUNT>
1

> <PUBCHEM_ATOM_UDEF_STEREO_COUNT>
0

> <PUBCHEM_BOND_DEF_STEREO_COUNT>
0

> <PUBCHEM_BOND_UDEF_STEREO_COUNT>
0

> <PUBCHEM_ISOTOPIC_ATOM_COUNT>
0

> <PUBCHEM_COMPONENT_COUNT>
1

> <PUBCHEM_CACTVS_TAUTO_COUNT>
1

> <PUBCHEM_CONFORMER_ID>
030C492A00000001

> <PUBCHEM_MMFF94_ENERGY>
68.3137

> <PUBCHEM_FEATURE_SELFOVERLAP>
45.674

> <PUBCHEM_SHAPE_FINGERPRINT>
10305334 12 18189638063728561883
10462674 125 15978862338482108350
10622 236 17984976248939574951
10928967 22 18411427232229642326
11069576 57 18048587419979399020
11135926 11 17971480851910484868
11409948 35 17906440376048313623
11524674 6 18058167216185247829
11621639 183 15195296278864320138
12107183 9 18265076672970369353
12174731 88 18411979122500137286
12422481 6 17845945030652261934
12559416 138 18268148837080631478
12559416 39 18116407376288588690
12633257 1 17274277139776216761
12977781 61 17555126515946030033
13383661 66 16387621355280628619
13690498 29 17604161311133988964
14114206 34 17386278784170205496
14117953 113 18339637816202605165
14178184 131 18125714587931003374
14279260 333 17751361682157396770
14480069 147 18040442121844860322
14844126 61 18340200774493065137
15264996 74 17701509871702222823
15320291 9 17981595280659861502
15320294 125 18129681720066279555
15537594 2 18052279554524932197
15684393 108 17459775682242679126
16728300 4 18268167516594450363
16992828 155 14509554756312151187
17492 89 18261684773660127337
19303781 99 18041560231578346698
19315092 285 17415550184450749409
19319366 153 17332233707272050460
20554085 129 16557094207066198043
20580484 66 17681827416193434042
20775530 9 18410017658486526056
208703 8 18334579057286871410
21133410 221 16974207995500904598
21133665 82 17758390773634920900
21585480 29 18200856471045365402
21599406 157 16298395634804904538
22907989 373 11458419176769741025
235170 7 16226885734595239613
23559900 14 18259987088994756161
3383291 50 18271519781249488925
345986 75 17127333054732805631
3552219 110 8358255944121411817
4017518 198 17841144459731992693
437795 83 11603409524625366286
44062 13 18114747023103114288
44880168 125 17986680277182692174
46194498 28 15937547042006013012
484985 159 18341600509025353623
6058803 2 18198078060696480321
613672 6 18114445830347967864
6201460 15 18056470892708213926
6431902 208 18260267426237013530
6636798 310 16916203594188949959
7970288 3 18187654557309920586

> <PUBCHEM_SHAPE_MULTIPOLES>
596.34
15.12
5.18
2.57
19.59
0.99
0.37
-16.88
3.69
1.62
-2.47
-4.37
-2.01
-4.02

> <PUBCHEM_SHAPE_SELFOVERLAP>
1273.104

> <PUBCHEM_SHAPE_VOLUME>
329.5

> <PUBCHEM_COORDINATE_TYPE>
2
5
10

$$$$
