28961566
  -OEChem-12032416133D

 53 55  0     1  0  0  0  0  0999 V2000
    1.0000   -1.8328    0.9356 O   0  0  0  0  0  0  0  0  0  0  0  0
    2.0473   -0.9189   -1.7170 O   0  0  0  0  0  0  0  0  0  0  0  0
    1.2161   -4.5368    0.1959 O   0  0  0  0  0  0  0  0  0  0  0  0
    2.6405    1.3141   -0.0161 N   0  0  0  0  0  0  0  0  0  0  0  0
   -1.3120   -0.1714    1.1006 N   0  0  0  0  0  0  0  0  0  0  0  0
   -5.2417    0.2833   -0.4532 N   0  0  0  0  0  0  0  0  0  0  0  0
    2.5029   -0.0379    0.5046 C   0  0  1  0  0  0  0  0  0  0  0  0
    1.1331   -0.4025    1.0913 C   0  0  1  0  0  0  0  0  0  0  0  0
    2.7509   -1.1496   -0.5034 C   0  0  1  0  0  0  0  0  0  0  0  0
    2.1543   -2.3399    0.2384 C   0  0  2  0  0  0  0  0  0  0  0  0
    2.8689    2.2990    1.0408 C   0  0  0  0  0  0  0  0  0  0  0  0
    3.7844    1.4517   -0.9170 C   0  0  0  0  0  0  0  0  0  0  0  0
   -0.0844    0.2387    0.4348 C   0  0  0  0  0  0  0  0  0  0  0  0
    3.3617    3.5163    0.2723 C   0  0  0  0  0  0  0  0  0  0  0  0
    3.9602    2.9598   -1.0159 C   0  0  0  0  0  0  0  0  0  0  0  0
   -2.4768    0.4634    0.4881 C   0  0  0  0  0  0  0  0  0  0  0  0
    1.7385   -3.5109   -0.6329 C   0  0  0  0  0  0  0  0  0  0  0  0
   -3.6666    0.4285    1.4506 C   0  0  0  0  0  0  0  0  0  0  0  0
   -2.8487   -0.2267   -0.8275 C   0  0  0  0  0  0  0  0  0  0  0  0
   -4.9239    0.9999    0.7897 C   0  0  0  0  0  0  0  0  0  0  0  0
   -4.1327    0.3658   -1.4139 C   0  0  0  0  0  0  0  0  0  0  0  0
   -6.4721    0.8071   -1.0458 C   0  0  0  0  0  0  0  0  0  0  0  0
    3.2475   -0.1995    1.3004 H   0  0  0  0  0  0  0  0  0  0  0  0
    1.1269   -0.1771    2.1654 H   0  0  0  0  0  0  0  0  0  0  0  0
    3.8099   -1.3024   -0.7369 H   0  0  0  0  0  0  0  0  0  0  0  0
    2.8450   -2.6852    1.0186 H   0  0  0  0  0  0  0  0  0  0  0  0
   -0.1163   -0.0585   -0.6172 H   0  0  0  0  0  0  0  0  0  0  0  0
    0.0075    1.3297    0.4781 H   0  0  0  0  0  0  0  0  0  0  0  0
    3.6458    1.9753    1.7455 H   0  0  0  0  0  0  0  0  0  0  0  0
    1.9596    2.5236    1.6067 H   0  0  0  0  0  0  0  0  0  0  0  0
    3.6153    1.0301   -1.9119 H   0  0  0  0  0  0  0  0  0  0  0  0
    4.6944    1.0076   -0.4927 H   0  0  0  0  0  0  0  0  0  0  0  0
    4.0985    4.0842    0.8493 H   0  0  0  0  0  0  0  0  0  0  0  0
    2.5297    4.1893    0.0340 H   0  0  0  0  0  0  0  0  0  0  0  0
    3.4161    3.3603   -1.8795 H   0  0  0  0  0  0  0  0  0  0  0  0
    5.0139    3.2355   -1.1253 H   0  0  0  0  0  0  0  0  0  0  0  0
   -2.2611    1.5226    0.2881 H   0  0  0  0  0  0  0  0  0  0  0  0
   -1.2565    0.0911    2.0848 H   0  0  0  0  0  0  0  0  0  0  0  0
    2.5913   -3.9073   -1.1922 H   0  0  0  0  0  0  0  0  0  0  0  0
    0.9433   -3.2272   -1.3297 H   0  0  0  0  0  0  0  0  0  0  0  0
   -3.4410    1.0062    2.3555 H   0  0  0  0  0  0  0  0  0  0  0  0
   -3.8647   -0.6030    1.7728 H   0  0  0  0  0  0  0  0  0  0  0  0
   -2.9886   -1.3040   -0.6638 H   0  0  0  0  0  0  0  0  0  0  0  0
   -2.0531   -0.1196   -1.5728 H   0  0  0  0  0  0  0  0  0  0  0  0
    2.3273   -1.5985   -2.3533 H   0  0  0  0  0  0  0  0  0  0  0  0
   -5.7557    0.9006    1.4977 H   0  0  0  0  0  0  0  0  0  0  0  0
   -4.7850    2.0722    0.5988 H   0  0  0  0  0  0  0  0  0  0  0  0
   -3.9537    1.4060   -1.7168 H   0  0  0  0  0  0  0  0  0  0  0  0
   -4.3854   -0.1981   -2.3201 H   0  0  0  0  0  0  0  0  0  0  0  0
    0.9620   -5.2734   -0.3857 H   0  0  0  0  0  0  0  0  0  0  0  0
   -6.7377    0.2404   -1.9452 H   0  0  0  0  0  0  0  0  0  0  0  0
   -6.3829    1.8650   -1.3183 H   0  0  0  0  0  0  0  0  0  0  0  0
   -7.3108    0.6998   -0.3491 H   0  0  0  0  0  0  0  0  0  0  0  0
  1  8  1  0  0  0  0
  1 10  1  0  0  0  0
  2  9  1  0  0  0  0
  2 45  1  0  0  0  0
  3 17  1  0  0  0  0
  3 50  1  0  0  0  0
  4  7  1  0  0  0  0
  4 11  1  0  0  0  0
  4 12  1  0  0  0  0
  5 13  1  0  0  0  0
  5 16  1  0  0  0  0
  5 38  1  0  0  0  0
  6 20  1  0  0  0  0
  6 21  1  0  0  0  0
  6 22  1  0  0  0  0
  7  8  1  0  0  0  0
  7  9  1  0  0  0  0
  7 23  1  0  0  0  0
  8 13  1  0  0  0  0
  8 24  1  0  0  0  0
  9 10  1  0  0  0  0
  9 25  1  0  0  0  0
 10 17  1  0  0  0  0
 10 26  1  0  0  0  0
 11 14  1  0  0  0  0
 11 29  1  0  0  0  0
 11 30  1  0  0  0  0
 12 15  1  0  0  0  0
 12 31  1  0  0  0  0
 12 32  1  0  0  0  0
 13 27  1  0  0  0  0
 13 28  1  0  0  0  0
 14 15  1  0  0  0  0
 14 33  1  0  0  0  0
 14 34  1  0  0  0  0
 15 35  1  0  0  0  0
 15 36  1  0  0  0  0
 16 18  1  0  0  0  0
 16 19  1  0  0  0  0
 16 37  1  0  0  0  0
 17 39  1  0  0  0  0
 17 40  1  0  0  0  0
 18 20  1  0  0  0  0
 18 41  1  0  0  0  0
 18 42  1  0  0  0  0
 19 21  1  0  0  0  0
 19 43  1  0  0  0  0
 19 44  1  0  0  0  0
 20 46  1  0  0  0  0
 20 47  1  0  0  0  0
 21 48  1  0  0  0  0
 21 49  1  0  0  0  0
 22 51  1  0  0  0  0
 22 52  1  0  0  0  0
 22 53  1  0  0  0  0
M  END
> <PUBCHEM_COMPOUND_CID>
28961566

> <PUBCHEM_CONFORMER_RMSD>
0.8

> <PUBCHEM_CONFORMER_DIVERSEORDER>
1
36
26
40
28
12
3
20
24
37
5
44
43
18
39
17
33
45
9
25
34
46
15
16
42
8
41
6
10
4
19
30
38
2
13
35
29
21
11
23
7
31
22
27
32
14

> <PUBCHEM_MMFF94_PARTIAL_CHARGES>
21
1 -0.56
10 0.28
11 0.27
12 0.27
13 0.27
16 0.27
17 0.28
2 -0.68
20 0.27
21 0.27
22 0.27
3 -0.68
38 0.36
4 -0.81
45 0.4
5 -0.9
50 0.4
6 -0.81
7 0.27
8 0.28
9 0.28

> <PUBCHEM_EFFECTIVE_ROTOR_COUNT>
8.2

> <PUBCHEM_PHARMACOPHORE_FEATURES>
12
1 1 acceptor
1 2 acceptor
1 2 donor
1 3 acceptor
1 3 donor
1 4 cation
1 5 cation
1 5 donor
1 6 cation
5 1 7 8 9 10 rings
5 4 11 12 14 15 rings
6 6 16 18 19 20 21 rings

> <PUBCHEM_HEAVY_ATOM_COUNT>
22

> <PUBCHEM_ATOM_DEF_STEREO_COUNT>
4

> <PUBCHEM_ATOM_UDEF_STEREO_COUNT>
0

> <PUBCHEM_BOND_DEF_STEREO_COUNT>
0

> <PUBCHEM_BOND_UDEF_STEREO_COUNT>
0

> <PUBCHEM_ISOTOPIC_ATOM_COUNT>
0

> <PUBCHEM_COMPONENT_COUNT>
1

> <PUBCHEM_CACTVS_TAUTO_COUNT>
1

> <PUBCHEM_CONFORMER_ID>
01B9EB1E00000001

> <PUBCHEM_MMFF94_ENERGY>
35.8911

> <PUBCHEM_FEATURE_SELFOVERLAP>
60.901

> <PUBCHEM_SHAPE_FINGERPRINT>
105312 117 18049453827116777420
10693767 8 17987808389198165846
10930396 42 18267285575494584330
12730499 353 18336836372017263043
12769317 202 18410854407956893152
12788726 201 17346606244819916505
13134695 92 18118119169831809626
13533116 47 18343300332774640107
13836976 161 18343860004993158278
13955234 65 18409449146355173995
14528608 73 18340484564726290229
14848178 96 18337957903710990968
15842332 3 17774174379147391481
17134986 127 18265902530777303184
17539 30 16969425115682613706
17818456 19 17056126121532538529
17844677 252 18338801109724693137
1813 80 17770225955372295686
19784866 34 18341048635159708857
20645477 70 18336263449213356611
21054139 6 18058433447779706295
21304303 282 17624389258921094462
2255824 54 18342459197093605394
22907989 373 17258504864487278324
23557571 272 17241060872147112395
23559900 14 18410852123107833139
23598291 2 17845667940562756177
238 59 18342750632209985666
23929065 36 17264668701187630184
3004659 81 17702942527011069391
3057174 1 18340781445671454030
3060560 45 18411705387576051422
312423 11 18059020471446522625
341906 21 15791730798073667365
34797466 226 18260543399893153429
46194498 28 18335135337340152815
474 4 18411136978134024208
495365 180 18409162229554405928
5281201 14 18263641754291941981
6025842 7 18411415098989066559
6327066 14 18118403093014115628
633830 44 18129958873921294280
7471813 234 18129101117686631656
960060 61 17988920059730227529

> <PUBCHEM_SHAPE_MULTIPOLES>
420.2
11.14
3.97
1.37
19.18
3.12
-0.12
-7.92
-3.1
-7.1
-0.22
0.54
-0.19
-0.12

> <PUBCHEM_SHAPE_SELFOVERLAP>
855.275

> <PUBCHEM_SHAPE_VOLUME>
246

> <PUBCHEM_COORDINATE_TYPE>
2
5
10

$$$$
