11886077
  -OEChem-12032416373D

 59 64  0     1  0  0  0  0  0999 V2000
    1.4956    0.4586   -1.1313 O   0  0  0  0  0  0  0  0  0  0  0  0
   -0.5951   -1.5422   -0.0446 O   0  0  0  0  0  0  0  0  0  0  0  0
    2.9859   -1.5644    0.0333 O   0  0  0  0  0  0  0  0  0  0  0  0
    3.7761    0.0780    1.4147 O   0  0  0  0  0  0  0  0  0  0  0  0
   -1.3164    2.0260   -0.4510 N   0  0  0  0  0  0  0  0  0  0  0  0
   -0.4542    3.0454   -0.3783 N   0  0  0  0  0  0  0  0  0  0  0  0
   -2.4891    3.7005    0.2543 N   0  0  0  0  0  0  0  0  0  0  0  0
   -1.1784    4.0703    0.0544 N   0  0  0  0  0  0  0  0  0  0  0  0
    5.1987   -1.1283    0.0000 N   0  0  0  0  0  0  0  0  0  0  0  0
   10.9211   -1.4186   -1.4045 N   0  0  0  0  0  0  0  0  0  0  0  0
   -0.3467   -0.1480    0.2412 C   0  0  1  0  0  0  0  0  0  0  0  0
    1.1562    0.0459    0.2017 C   0  0  1  0  0  0  0  0  0  0  0  0
   -0.8703    0.7045   -0.8983 C   0  0  2  0  0  0  0  0  0  0  0  0
    1.6782   -1.3377    0.5078 C   0  0  1  0  0  0  0  0  0  0  0  0
    0.2970    0.7067   -1.8802 C   0  0  0  0  0  0  0  0  0  0  0  0
    0.6620   -2.2193   -0.1799 C   0  0  0  0  0  0  0  0  0  0  0  0
   -2.5511    2.4286   -0.0660 C   0  0  0  0  0  0  0  0  0  0  0  0
    3.9880   -0.7807    0.5671 C   0  0  0  0  0  0  0  0  0  0  0  0
   -3.7147    1.5805   -0.0252 C   0  0  0  0  0  0  0  0  0  0  0  0
   -4.5386    1.4685   -1.1466 C   0  0  0  0  0  0  0  0  0  0  0  0
   -4.0213    0.8687    1.1358 C   0  0  0  0  0  0  0  0  0  0  0  0
   -5.6653    0.6471   -1.1071 C   0  0  0  0  0  0  0  0  0  0  0  0
   -5.1480    0.0473    1.1752 C   0  0  0  0  0  0  0  0  0  0  0  0
   -5.9700   -0.0635    0.0538 C   0  0  0  0  0  0  0  0  0  0  0  0
    6.4733   -0.5764    0.2624 C   0  0  0  0  0  0  0  0  0  0  0  0
   -7.1384   -0.9160    0.0949 C   0  0  0  0  0  0  0  0  0  0  0  0
    7.5787   -1.0665   -0.4146 C   0  0  0  0  0  0  0  0  0  0  0  0
    6.5927    0.4431    1.1934 C   0  0  0  0  0  0  0  0  0  0  0  0
   -8.3659   -0.3977    0.5071 C   0  0  0  0  0  0  0  0  0  0  0  0
   -7.0372   -2.2556   -0.2797 C   0  0  0  0  0  0  0  0  0  0  0  0
    8.8365   -0.5228   -0.1537 C   0  0  0  0  0  0  0  0  0  0  0  0
    7.8504    0.9868    1.4543 C   0  0  0  0  0  0  0  0  0  0  0  0
    8.9723    0.5039    0.7808 C   0  0  0  0  0  0  0  0  0  0  0  0
   -9.4926   -1.2193    0.5446 C   0  0  0  0  0  0  0  0  0  0  0  0
   -8.1638   -3.0772   -0.2422 C   0  0  0  0  0  0  0  0  0  0  0  0
   -9.3916   -2.5591    0.1698 C   0  0  0  0  0  0  0  0  0  0  0  0
    9.9860   -1.0168   -0.8434 C   0  0  0  0  0  0  0  0  0  0  0  0
   -0.7843    0.0691    1.2206 H   0  0  0  0  0  0  0  0  0  0  0  0
    1.4952    0.8270    0.8873 H   0  0  0  0  0  0  0  0  0  0  0  0
   -1.7363    0.2499   -1.3930 H   0  0  0  0  0  0  0  0  0  0  0  0
    1.6311   -1.5275    1.5886 H   0  0  0  0  0  0  0  0  0  0  0  0
    0.1951   -0.1182   -2.5945 H   0  0  0  0  0  0  0  0  0  0  0  0
    0.4074    1.6317   -2.4537 H   0  0  0  0  0  0  0  0  0  0  0  0
    0.5959   -3.2122    0.2751 H   0  0  0  0  0  0  0  0  0  0  0  0
    0.8802   -2.3547   -1.2452 H   0  0  0  0  0  0  0  0  0  0  0  0
   -4.3144    2.0156   -2.0593 H   0  0  0  0  0  0  0  0  0  0  0  0
   -3.3902    0.9439    2.0183 H   0  0  0  0  0  0  0  0  0  0  0  0
    5.1722   -1.8732   -0.6922 H   0  0  0  0  0  0  0  0  0  0  0  0
   -6.2953    0.5719   -1.9903 H   0  0  0  0  0  0  0  0  0  0  0  0
   -5.3708   -0.5000    2.0882 H   0  0  0  0  0  0  0  0  0  0  0  0
    7.4681   -1.8675   -1.1423 H   0  0  0  0  0  0  0  0  0  0  0  0
    5.7725    0.8685    1.7532 H   0  0  0  0  0  0  0  0  0  0  0  0
   -8.4623    0.6445    0.8022 H   0  0  0  0  0  0  0  0  0  0  0  0
   -6.0879   -2.6756   -0.6039 H   0  0  0  0  0  0  0  0  0  0  0  0
    7.9574    1.7863    2.1817 H   0  0  0  0  0  0  0  0  0  0  0  0
    9.9460    0.9381    0.9951 H   0  0  0  0  0  0  0  0  0  0  0  0
  -10.4485   -0.8159    0.8654 H   0  0  0  0  0  0  0  0  0  0  0  0
   -8.0853   -4.1204   -0.5340 H   0  0  0  0  0  0  0  0  0  0  0  0
  -10.2688   -3.1988    0.1989 H   0  0  0  0  0  0  0  0  0  0  0  0
  1 12  1  0  0  0  0
  1 15  1  0  0  0  0
  2 11  1  0  0  0  0
  2 16  1  0  0  0  0
  3 14  1  0  0  0  0
  3 18  1  0  0  0  0
  4 18  2  0  0  0  0
  5  6  1  0  0  0  0
  5 13  1  0  0  0  0
  5 17  1  0  0  0  0
  6  8  2  0  0  0  0
  7  8  1  0  0  0  0
  7 17  2  0  0  0  0
  9 18  1  0  0  0  0
  9 25  1  0  0  0  0
  9 48  1  0  0  0  0
 10 37  3  0  0  0  0
 11 12  1  0  0  0  0
 11 13  1  0  0  0  0
 11 38  1  0  0  0  0
 12 14  1  0  0  0  0
 12 39  1  0  0  0  0
 13 15  1  0  0  0  0
 13 40  1  0  0  0  0
 14 16  1  0  0  0  0
 14 41  1  0  0  0  0
 15 42  1  0  0  0  0
 15 43  1  0  0  0  0
 16 44  1  0  0  0  0
 16 45  1  0  0  0  0
 17 19  1  0  0  0  0
 19 20  2  0  0  0  0
 19 21  1  0  0  0  0
 20 22  1  0  0  0  0
 20 46  1  0  0  0  0
 21 23  2  0  0  0  0
 21 47  1  0  0  0  0
 22 24  2  0  0  0  0
 22 49  1  0  0  0  0
 23 24  1  0  0  0  0
 23 50  1  0  0  0  0
 24 26  1  0  0  0  0
 25 27  1  0  0  0  0
 25 28  2  0  0  0  0
 26 29  2  0  0  0  0
 26 30  1  0  0  0  0
 27 31  2  0  0  0  0
 27 51  1  0  0  0  0
 28 32  1  0  0  0  0
 28 52  1  0  0  0  0
 29 34  1  0  0  0  0
 29 53  1  0  0  0  0
 30 35  2  0  0  0  0
 30 54  1  0  0  0  0
 31 33  1  0  0  0  0
 31 37  1  0  0  0  0
 32 33  2  0  0  0  0
 32 55  1  0  0  0  0
 33 56  1  0  0  0  0
 34 36  2  0  0  0  0
 34 57  1  0  0  0  0
 35 36  1  0  0  0  0
 35 58  1  0  0  0  0
 36 59  1  0  0  0  0
M  END
> <PUBCHEM_COMPOUND_CID>
11886077

> <PUBCHEM_CONFORMER_RMSD>
1

> <PUBCHEM_CONFORMER_DIVERSEORDER>
1
5
131
120
74
145
181
29
140
21
134
86
158
197
41
81
165
127
195
166
71
68
49
80
148
196
102
155
67
15
85
2
168
122
112
20
162
72
23
14
54
12
50
10
87
28
73
146
47
193
144
101
52
129
31
33
184
142
78
99
173
183
19
152
151
119
132
63
6
159
42
110
39
45
186
114
70
163
84
178
60
65
26
37
4
143
150
34
109
201
58
191
103
149
133
77
153
18
69
27
79
138
107
108
61
126
200
130
161
8
82
44
11
113
154
117
66
104
75
17
175
36
164
135
123
203
170
9
100
38
46
53
199
35
16
7
98
40
204
121
194
111
118
106
124
55
22
179
105
95
116
169
187
198
137
171
56
92
57
24
51
30
157
32
188
167
115
177
64
160
3
48
174
97
13
202
62
139
190
182
91
90
141
125
43
172
94
136
59
83
189
128
176
185
25
93
76
88
96
147
180
192
89
156

> <PUBCHEM_MMFF94_PARTIAL_CHARGES>
48
1 -0.56
10 -0.56
11 0.28
12 0.28
13 0.26
14 0.28
15 0.28
16 0.28
17 0.13
18 0.78
19 0.05
2 -0.56
20 -0.15
21 -0.15
22 -0.15
23 -0.15
25 0.12
27 -0.15
28 -0.15
29 -0.15
3 -0.43
30 -0.15
31 0.07
32 -0.15
33 -0.15
34 -0.15
35 -0.15
36 -0.15
37 0.48
4 -0.57
46 0.15
47 0.15
48 0.37
49 0.15
5 0.31
50 0.15
51 0.15
52 0.15
53 0.15
54 0.15
55 0.15
56 0.15
57 0.15
58 0.15
59 0.15
6 -0.42
7 -0.34
9 -0.55

> <PUBCHEM_EFFECTIVE_ROTOR_COUNT>
8.2

> <PUBCHEM_PHARMACOPHORE_FEATURES>
12
1 1 acceptor
1 10 acceptor
1 2 acceptor
1 4 acceptor
1 9 donor
3 5 7 17 cation
5 1 11 12 13 15 rings
5 2 11 12 14 16 rings
5 5 6 7 8 17 rings
6 19 20 21 22 23 24 rings
6 25 27 28 31 32 33 rings
6 26 29 30 34 35 36 rings

> <PUBCHEM_HEAVY_ATOM_COUNT>
37

> <PUBCHEM_ATOM_DEF_STEREO_COUNT>
4

> <PUBCHEM_ATOM_UDEF_STEREO_COUNT>
0

> <PUBCHEM_BOND_DEF_STEREO_COUNT>
0

> <PUBCHEM_BOND_UDEF_STEREO_COUNT>
0

> <PUBCHEM_ISOTOPIC_ATOM_COUNT>
0

> <PUBCHEM_COMPONENT_COUNT>
1

> <PUBCHEM_CACTVS_TAUTO_COUNT>
2

> <PUBCHEM_CONFORMER_ID>
00B55DFD00000001

> <PUBCHEM_MMFF94_ENERGY>
110.0469

> <PUBCHEM_FEATURE_SELFOVERLAP>
61.6

> <PUBCHEM_SHAPE_FINGERPRINT>
10076449 9 18408323293676705299
10162869 55 16805042930814896998
10165383 225 10015867575043550593
10258705 36 17987809514142552670
10674148 151 9439402419370487726
10842051 180 17313097540788026240
11135609 99 18335423530057618935
11146851 88 17749112209872470339
11211813 128 18413672409087907230
11409948 8 18339917242348202984
11410812 94 16298655106927305143
11497681 19 18188486870248031086
11621639 148 18267296706868056632
11621639 179 10735612253992915235
12098696 120 9943534033382893923
12107183 9 18341344293695640585
12144600 37 18199752445275410798
12522641 126 17969509384137677092
13947947 19 18114184160024479084
14394314 77 18337110069557663761
15183329 4 9583516521157182160
15347591 1 18120652431520740122
15461852 350 18333450936881501254
15728490 51 18411416224402646183
16067689 302 18341612667872351412
16992752 21 18409733937379037037
17686467 74 18341607118595146641
18335252 98 18343584023569879894
18608769 82 18342733027302614906
19611394 137 18409731793736253936
20105231 36 18343584028139212366
20771845 171 17678742464963022357
21365058 27 16988839475508208702
21792965 184 18199767902868010089
23729398 52 18118973726796249021
23729417 116 18261106371148228613
249057 3 9943801196821985074
25019877 29 18131631167193939974
2747138 104 18413383241798318137
4461854 278 18059859506489059103
45377200 153 18343300400899174386
4874694 18 11963391843604088192
5381727 24 18333724699263084594
54039377 194 18335139817555746063
57303763 176 11242785090475390463
58260988 521 17632860823533720828
6009941 240 8286191764833443928
6057620 51 18186803552653447058
6126387 218 8502366725260187062
636775 8 18410295804504464038
6673363 416 18413111637532490948
6691757 9 16443355256300081361
9663363 56 18410572882558081597

> <PUBCHEM_SHAPE_MULTIPOLES>
708.08
35.09
3.12
1.18
37.1
2.13
-0.11
-24.31
1.2
-5.44
-0.26
1.02
0.19
1.57

> <PUBCHEM_SHAPE_SELFOVERLAP>
1573.115

> <PUBCHEM_SHAPE_VOLUME>
377.4

> <PUBCHEM_COORDINATE_TYPE>
2
5
10

$$$$
