45361325
  -OEChem-12032416123D

 66 69  0     1  0  0  0  0  0999 V2000
    3.7871    1.8028    1.0522 S   0  0  0  0  0  0  0  0  0  0  0  0
   -1.7690   -1.7392   -0.6036 O   0  0  0  0  0  0  0  0  0  0  0  0
   -5.7262    1.7201   -0.5576 O   0  0  0  0  0  0  0  0  0  0  0  0
    6.1306   -1.6896   -1.0257 O   0  0  0  0  0  0  0  0  0  0  0  0
    3.4977   -0.3525   -0.3468 N   0  0  0  0  0  0  0  0  0  0  0  0
   -6.0304   -0.1694    0.7429 N   0  0  0  0  0  0  0  0  0  0  0  0
    5.7534    0.2822    0.2175 N   0  0  0  0  0  0  0  0  0  0  0  0
   -0.2058    1.6915    0.0719 C   0  0  1  0  0  0  0  0  0  0  0  0
   -0.3082    0.1177   -0.0160 C   0  0  1  0  0  0  0  0  0  0  0  0
   -1.6169   -0.3259   -0.7291 C   0  0  2  0  0  0  0  0  0  0  0  0
   -2.8786    0.3257   -0.1223 C   0  0  1  0  0  0  0  0  0  0  0  0
   -1.4944    2.2625    0.7089 C   0  0  0  0  0  0  0  0  0  0  0  0
    0.9981   -0.5268   -0.6371 C   0  0  1  0  0  0  0  0  0  0  0  0
   -2.7611    1.8468   -0.0265 C   0  0  0  0  0  0  0  0  0  0  0  0
    0.9881    2.0923    0.9938 C   0  0  0  0  0  0  0  0  0  0  0  0
   -0.0032    2.3402   -1.3223 C   0  0  0  0  0  0  0  0  0  0  0  0
   -4.1438   -0.0426   -0.9067 C   0  0  2  0  0  0  0  0  0  0  0  0
    2.2335    0.1499   -0.0934 C   0  0  0  0  0  0  0  0  0  0  0  0
    2.2093    1.3264    0.6266 C   0  0  0  0  0  0  0  0  0  0  0  0
    1.0910   -2.0434   -0.4136 C   0  0  0  0  0  0  0  0  0  0  0  0
   -4.0052    0.4379   -2.3523 C   0  0  0  0  0  0  0  0  0  0  0  0
   -5.3698    0.5813   -0.2353 C   0  0  0  0  0  0  0  0  0  0  0  0
    4.3918    0.4294    0.2182 C   0  0  0  0  0  0  0  0  0  0  0  0
    8.0113   -0.5808   -0.1827 C   0  0  0  0  0  0  0  0  0  0  0  0
    8.7864   -1.7143    0.4224 C   0  0  0  0  0  0  0  0  0  0  0  0
    8.5521   -0.4598    1.2117 C   0  0  0  0  0  0  0  0  0  0  0  0
    6.5352   -0.7318   -0.3812 C   0  0  0  0  0  0  0  0  0  0  0  0
   -5.6965   -1.5311    1.1561 C   0  0  0  0  0  0  0  0  0  0  0  0
   -7.1895    0.4048    1.4177 C   0  0  0  0  0  0  0  0  0  0  0  0
   -6.4580   -2.4975    0.3113 C   0  0  0  0  0  0  0  0  0  0  0  0
   -7.3087   -3.4067    0.8011 C   0  0  0  0  0  0  0  0  0  0  0  0
   -0.3689   -0.2554    1.0192 H   0  0  0  0  0  0  0  0  0  0  0  0
   -1.5066   -0.1062   -1.7927 H   0  0  0  0  0  0  0  0  0  0  0  0
   -2.9951   -0.0583    0.9011 H   0  0  0  0  0  0  0  0  0  0  0  0
   -1.5716    1.9225    1.7506 H   0  0  0  0  0  0  0  0  0  0  0  0
   -1.4439    3.3583    0.7489 H   0  0  0  0  0  0  0  0  0  0  0  0
    0.9904   -0.3516   -1.7212 H   0  0  0  0  0  0  0  0  0  0  0  0
   -2.7649    2.3403   -1.0001 H   0  0  0  0  0  0  0  0  0  0  0  0
   -3.5978    2.2681    0.5409 H   0  0  0  0  0  0  0  0  0  0  0  0
    0.7469    1.8656    2.0407 H   0  0  0  0  0  0  0  0  0  0  0  0
    1.1690    3.1726    0.9311 H   0  0  0  0  0  0  0  0  0  0  0  0
   -0.7850    2.0552   -2.0320 H   0  0  0  0  0  0  0  0  0  0  0  0
    0.9533    2.0665   -1.7776 H   0  0  0  0  0  0  0  0  0  0  0  0
   -0.0166    3.4338   -1.2448 H   0  0  0  0  0  0  0  0  0  0  0  0
   -4.2627   -1.1276   -0.9581 H   0  0  0  0  0  0  0  0  0  0  0  0
    0.9362   -2.3003    0.6400 H   0  0  0  0  0  0  0  0  0  0  0  0
    2.0721   -2.4353   -0.7056 H   0  0  0  0  0  0  0  0  0  0  0  0
    0.3627   -2.5878   -1.0188 H   0  0  0  0  0  0  0  0  0  0  0  0
   -1.8281   -1.9528    0.3432 H   0  0  0  0  0  0  0  0  0  0  0  0
   -3.8618    1.5143   -2.4662 H   0  0  0  0  0  0  0  0  0  0  0  0
   -4.9380    0.2144   -2.8870 H   0  0  0  0  0  0  0  0  0  0  0  0
   -3.2209   -0.0864   -2.9033 H   0  0  0  0  0  0  0  0  0  0  0  0
    8.5130   -0.0153   -0.9615 H   0  0  0  0  0  0  0  0  0  0  0  0
    6.2518    1.0149    0.7167 H   0  0  0  0  0  0  0  0  0  0  0  0
    9.7874   -1.8964    0.0507 H   0  0  0  0  0  0  0  0  0  0  0  0
    8.2542   -2.6065    0.7290 H   0  0  0  0  0  0  0  0  0  0  0  0
    7.8702   -0.5202    2.0511 H   0  0  0  0  0  0  0  0  0  0  0  0
    9.3950    0.2021    1.3692 H   0  0  0  0  0  0  0  0  0  0  0  0
   -5.9216   -1.6438    2.2231 H   0  0  0  0  0  0  0  0  0  0  0  0
   -4.6261   -1.7165    1.0421 H   0  0  0  0  0  0  0  0  0  0  0  0
   -6.9940    0.4328    2.4940 H   0  0  0  0  0  0  0  0  0  0  0  0
   -7.4002    1.4214    1.0765 H   0  0  0  0  0  0  0  0  0  0  0  0
   -8.0666   -0.2181    1.2202 H   0  0  0  0  0  0  0  0  0  0  0  0
   -6.2998   -2.4696   -0.7638 H   0  0  0  0  0  0  0  0  0  0  0  0
   -7.8279   -4.0877    0.1357 H   0  0  0  0  0  0  0  0  0  0  0  0
   -7.5021   -3.4873    1.8650 H   0  0  0  0  0  0  0  0  0  0  0  0
  1 19  1  0  0  0  0
  1 23  1  0  0  0  0
  2 10  1  0  0  0  0
  2 49  1  0  0  0  0
  3 22  2  0  0  0  0
  4 27  2  0  0  0  0
  5 18  1  0  0  0  0
  5 23  2  0  0  0  0
  6 22  1  0  0  0  0
  6 28  1  0  0  0  0
  6 29  1  0  0  0  0
  7 23  1  0  0  0  0
  7 27  1  0  0  0  0
  7 54  1  0  0  0  0
  8  9  1  0  0  0  0
  8 12  1  0  0  0  0
  8 15  1  0  0  0  0
  8 16  1  0  0  0  0
  9 10  1  0  0  0  0
  9 13  1  0  0  0  0
  9 32  1  0  0  0  0
 10 11  1  0  0  0  0
 10 33  1  0  0  0  0
 11 14  1  0  0  0  0
 11 17  1  0  0  0  0
 11 34  1  0  0  0  0
 12 14  1  0  0  0  0
 12 35  1  0  0  0  0
 12 36  1  0  0  0  0
 13 18  1  0  0  0  0
 13 20  1  0  0  0  0
 13 37  1  0  0  0  0
 14 38  1  0  0  0  0
 14 39  1  0  0  0  0
 15 19  1  0  0  0  0
 15 40  1  0  0  0  0
 15 41  1  0  0  0  0
 16 42  1  0  0  0  0
 16 43  1  0  0  0  0
 16 44  1  0  0  0  0
 17 21  1  0  0  0  0
 17 22  1  0  0  0  0
 17 45  1  0  0  0  0
 18 19  2  0  0  0  0
 20 46  1  0  0  0  0
 20 47  1  0  0  0  0
 20 48  1  0  0  0  0
 21 50  1  0  0  0  0
 21 51  1  0  0  0  0
 21 52  1  0  0  0  0
 24 25  1  0  0  0  0
 24 26  1  0  0  0  0
 24 27  1  0  0  0  0
 24 53  1  0  0  0  0
 25 26  1  0  0  0  0
 25 55  1  0  0  0  0
 25 56  1  0  0  0  0
 26 57  1  0  0  0  0
 26 58  1  0  0  0  0
 28 30  1  0  0  0  0
 28 59  1  0  0  0  0
 28 60  1  0  0  0  0
 29 61  1  0  0  0  0
 29 62  1  0  0  0  0
 29 63  1  0  0  0  0
 30 31  2  0  0  0  0
 30 64  1  0  0  0  0
 31 65  1  0  0  0  0
 31 66  1  0  0  0  0
M  END
> <PUBCHEM_COMPOUND_CID>
45361325

> <PUBCHEM_CONFORMER_RMSD>
1

> <PUBCHEM_CONFORMER_DIVERSEORDER>
1
76
30
31
67
68
16
49
52
75
48
24
57
66
77
39
38
29
51
10
26
62
74
70
60
61
58
47
23
21
11
42
25
72
63
53
56
43
73
3
64
32
22
28
65
40
33
37
20
69
50
15
17
71
59
55
19
41
13
44
18
14
35
36
5
45
27
2
46
9
7
34
6
8
12
54
4

> <PUBCHEM_MMFF94_PARTIAL_CHARGES>
33
1 -0.08
10 0.28
13 0.18
15 0.18
17 0.06
18 0.05
19 -0.14
2 -0.68
22 0.57
23 0.44
24 -0.1
25 -0.2
26 -0.2
27 0.63
28 0.44
29 0.3
3 -0.57
30 -0.29
31 -0.3
4 -0.57
49 0.4
5 -0.57
53 0.1
54 0.37
55 0.1
56 0.1
57 0.1
58 0.1
6 -0.66
64 0.15
65 0.15
66 0.15
7 -0.49

> <PUBCHEM_EFFECTIVE_ROTOR_COUNT>
9.8

> <PUBCHEM_PHARMACOPHORE_FEATURES>
10
1 2 acceptor
1 2 donor
1 21 hydrophobe
1 3 acceptor
1 31 hydrophobe
1 4 acceptor
1 7 donor
5 1 5 18 19 23 rings
6 8 9 10 11 12 14 rings
6 8 9 13 15 18 19 rings

> <PUBCHEM_HEAVY_ATOM_COUNT>
31

> <PUBCHEM_ATOM_DEF_STEREO_COUNT>
5

> <PUBCHEM_ATOM_UDEF_STEREO_COUNT>
1

> <PUBCHEM_BOND_DEF_STEREO_COUNT>
0

> <PUBCHEM_BOND_UDEF_STEREO_COUNT>
0

> <PUBCHEM_ISOTOPIC_ATOM_COUNT>
0

> <PUBCHEM_COMPONENT_COUNT>
1

> <PUBCHEM_CACTVS_TAUTO_COUNT>
3

> <PUBCHEM_CONFORMER_ID>
02B428AD00000001

> <PUBCHEM_MMFF94_ENERGY>
85.7984

> <PUBCHEM_FEATURE_SELFOVERLAP>
50.826

> <PUBCHEM_SHAPE_FINGERPRINT>
11135926 11 18339354180525431431
11456790 92 17346598578271684002
11578080 2 16341993603144840298
11578821 258 10663807599512752034
11963148 33 18334287665305007986
12166972 35 17895197731111809892
13383668 362 18126555946375175792
13685833 64 18342739607482552320
13782708 43 18040710394287431419
14251764 18 17775565330445444704
14344974 204 18195250138191252431
14856354 85 16443068309371498099
14955137 171 18338239366208871021
15064986 96 17560816403173852839
15183329 4 18272079475438209022
15461852 350 11602830102854420297
18608769 82 18410294722115027211
21150785 3 16660648445089034216
21267235 1 18342178864926134152
21781051 124 18339654424999790246
21792934 111 18131345302196844920
21792961 116 18188202109536527589
23559900 14 18200580523454519096
23576562 1 9150588185601935171
3178227 256 18201723955306509346
335352 9 18272927228688544220
3383291 50 18412260657917854034
350125 39 18343016654195259772
4169191 19 10881396513108699686
4339292 15 18114736131646384871
444769 64 18131910468495393199
504579 68 15068619409334094063
5104073 3 18272644701602868001
58083652 198 16702009903140527825
5937810 71 11602805892783857199
59755656 215 18271242725651616958
636775 8 18409738357090191454
6691757 9 15195283149560349567
999808 66 18411421708753804891

> <PUBCHEM_SHAPE_MULTIPOLES>
609.26
23.68
2.73
1.29
24.2
0.82
0.27
16.86
-6.2
-3.15
-0.42
-1.08
-0.19
1.68

> <PUBCHEM_SHAPE_SELFOVERLAP>
1261.706

> <PUBCHEM_SHAPE_VOLUME>
353.2

> <PUBCHEM_COORDINATE_TYPE>
2
5
10

$$$$
