45783654
  -OEChem-12032416263D

 51 55  0     1  0  0  0  0  0999 V2000
   -2.2204   -1.6191    2.0274 O   0  0  0  0  0  0  0  0  0  0  0  0
    1.2867    3.5863   -0.7669 O   0  0  0  0  0  0  0  0  0  0  0  0
    0.7401    4.2508    1.3371 O   0  0  0  0  0  0  0  0  0  0  0  0
   -4.2114   -0.6334   -0.8999 N   0  0  1  0  0  0  0  0  0  0  0  0
   -1.4198   -1.2319   -0.0283 N   0  0  0  0  0  0  0  0  0  0  0  0
   -0.8276   -1.5507    2.1584 N   0  0  0  0  0  0  0  0  0  0  0  0
    3.2707   -1.1351    1.2419 N   0  0  0  0  0  0  0  0  0  0  0  0
    4.9482   -0.7674   -0.3549 N   0  0  0  0  0  0  0  0  0  0  0  0
    7.1484   -0.6698   -0.0693 N   0  0  0  0  0  0  0  0  0  0  0  0
   -3.9428   -1.4481    0.3020 C   0  0  1  0  0  0  0  0  0  0  0  0
   -4.4314   -2.8612   -0.0662 C   0  0  0  0  0  0  0  0  0  0  0  0
   -5.0125   -2.7288   -1.4667 C   0  0  0  0  0  0  0  0  0  0  0  0
   -5.3506   -1.2556   -1.5749 C   0  0  0  0  0  0  0  0  0  0  0  0
   -4.4532    0.7718   -0.5991 C   0  0  0  0  0  0  0  0  0  0  0  0
   -2.4846   -1.4214    0.7093 C   0  0  0  0  0  0  0  0  0  0  0  0
   -3.1701    1.5235   -0.3631 C   0  0  0  0  0  0  0  0  0  0  0  0
   -2.9568    2.1741    0.8522 C   0  0  0  0  0  0  0  0  0  0  0  0
   -2.1949    1.5695   -1.3595 C   0  0  0  0  0  0  0  0  0  0  0  0
   -0.4276   -1.3200    0.9043 C   0  0  0  0  0  0  0  0  0  0  0  0
   -1.7683    2.8704    1.0711 C   0  0  0  0  0  0  0  0  0  0  0  0
   -1.0065    2.2660   -1.1405 C   0  0  0  0  0  0  0  0  0  0  0  0
    0.9546   -1.1742    0.5497 C   0  0  0  0  0  0  0  0  0  0  0  0
   -0.7930    2.9163    0.0748 C   0  0  0  0  0  0  0  0  0  0  0  0
    1.3362   -0.9362   -0.7660 C   0  0  0  0  0  0  0  0  0  0  0  0
    1.9514   -1.2643    1.5078 C   0  0  0  0  0  0  0  0  0  0  0  0
    0.4466    3.6417    0.3030 C   0  0  0  0  0  0  0  0  0  0  0  0
    2.6839   -0.7977   -1.0789 C   0  0  0  0  0  0  0  0  0  0  0  0
    3.6034   -0.9046   -0.0480 C   0  0  0  0  0  0  0  0  0  0  0  0
    5.4764   -0.5326   -1.5931 C   0  0  0  0  0  0  0  0  0  0  0  0
    5.9899   -0.8420    0.5275 C   0  0  0  0  0  0  0  0  0  0  0  0
    6.8352   -0.4764   -1.3915 C   0  0  0  0  0  0  0  0  0  0  0  0
   -4.5465   -1.0991    1.1516 H   0  0  0  0  0  0  0  0  0  0  0  0
   -3.6437   -3.6221   -0.0422 H   0  0  0  0  0  0  0  0  0  0  0  0
   -5.2201   -3.1714    0.6301 H   0  0  0  0  0  0  0  0  0  0  0  0
   -5.8850   -3.3718   -1.6151 H   0  0  0  0  0  0  0  0  0  0  0  0
   -4.2555   -3.0035   -2.2118 H   0  0  0  0  0  0  0  0  0  0  0  0
   -6.2955   -1.0432   -1.0588 H   0  0  0  0  0  0  0  0  0  0  0  0
   -5.4353   -0.9382   -2.6188 H   0  0  0  0  0  0  0  0  0  0  0  0
   -4.9362    1.2592   -1.4578 H   0  0  0  0  0  0  0  0  0  0  0  0
   -5.1520    0.8939    0.2389 H   0  0  0  0  0  0  0  0  0  0  0  0
   -3.7069    2.1448    1.6380 H   0  0  0  0  0  0  0  0  0  0  0  0
   -2.3489    1.0711   -2.3130 H   0  0  0  0  0  0  0  0  0  0  0  0
   -1.6207    3.3696    2.0252 H   0  0  0  0  0  0  0  0  0  0  0  0
   -0.2742    2.2754   -1.9428 H   0  0  0  0  0  0  0  0  0  0  0  0
    0.6049   -0.8536   -1.5661 H   0  0  0  0  0  0  0  0  0  0  0  0
    1.7379   -1.4475    2.5567 H   0  0  0  0  0  0  0  0  0  0  0  0
    2.9313   -0.6130   -2.1163 H   0  0  0  0  0  0  0  0  0  0  0  0
    4.9123   -0.4215   -2.5074 H   0  0  0  0  0  0  0  0  0  0  0  0
    5.8629   -1.0217    1.5872 H   0  0  0  0  0  0  0  0  0  0  0  0
    2.1200    4.0771   -0.6024 H   0  0  0  0  0  0  0  0  0  0  0  0
    7.6041   -0.3065   -2.1310 H   0  0  0  0  0  0  0  0  0  0  0  0
  1  6  1  0  0  0  0
  1 15  1  0  0  0  0
  2 26  1  0  0  0  0
  2 50  1  0  0  0  0
  3 26  2  0  0  0  0
  4 10  1  0  0  0  0
  4 13  1  0  0  0  0
  4 14  1  0  0  0  0
  5 15  2  0  0  0  0
  5 19  1  0  0  0  0
  6 19  2  0  0  0  0
  7 25  1  0  0  0  0
  7 28  2  0  0  0  0
  8 28  1  0  0  0  0
  8 29  1  0  0  0  0
  8 30  1  0  0  0  0
  9 30  2  0  0  0  0
  9 31  1  0  0  0  0
 10 11  1  0  0  0  0
 10 15  1  0  0  0  0
 10 32  1  0  0  0  0
 11 12  1  0  0  0  0
 11 33  1  0  0  0  0
 11 34  1  0  0  0  0
 12 13  1  0  0  0  0
 12 35  1  0  0  0  0
 12 36  1  0  0  0  0
 13 37  1  0  0  0  0
 13 38  1  0  0  0  0
 14 16  1  0  0  0  0
 14 39  1  0  0  0  0
 14 40  1  0  0  0  0
 16 17  2  0  0  0  0
 16 18  1  0  0  0  0
 17 20  1  0  0  0  0
 17 41  1  0  0  0  0
 18 21  2  0  0  0  0
 18 42  1  0  0  0  0
 19 22  1  0  0  0  0
 20 23  2  0  0  0  0
 20 43  1  0  0  0  0
 21 23  1  0  0  0  0
 21 44  1  0  0  0  0
 22 24  1  0  0  0  0
 22 25  2  0  0  0  0
 23 26  1  0  0  0  0
 24 27  2  0  0  0  0
 24 45  1  0  0  0  0
 25 46  1  0  0  0  0
 27 28  1  0  0  0  0
 27 47  1  0  0  0  0
 29 31  2  0  0  0  0
 29 48  1  0  0  0  0
 30 49  1  0  0  0  0
 31 51  1  0  0  0  0
M  END
> <PUBCHEM_COMPOUND_CID>
45783654

> <PUBCHEM_CONFORMER_RMSD>
1

> <PUBCHEM_CONFORMER_DIVERSEORDER>
1
31
39
47
32
14
23
27
54
40
50
36
35
55
10
43
6
53
2
17
9
44
18
4
38
5
37
24
51
3
22
21
28
11
34
52
41
19
42
8
45
20
49
25
33
7
29
30
16
15
48
26
46
13
12

> <PUBCHEM_MMFF94_PARTIAL_CHARGES>
40
1 -0.02
10 0.45
13 0.27
14 0.41
15 0.3
16 -0.14
17 -0.15
18 -0.15
19 0.46
2 -0.65
20 -0.15
21 -0.15
22 0.05
23 0.09
24 -0.15
25 0.16
26 0.63
27 -0.15
28 0.29
29 -0.3
3 -0.57
30 0.04
31 0.08
4 -0.81
41 0.15
42 0.15
43 0.15
44 0.15
45 0.15
46 0.15
47 0.15
48 0.15
49 0.15
5 -0.57
50 0.5
51 0.15
6 -0.41
7 -0.62
8 0.33
9 -0.57

> <PUBCHEM_EFFECTIVE_ROTOR_COUNT>
7

> <PUBCHEM_PHARMACOPHORE_FEATURES>
12
1 2 acceptor
1 3 acceptor
1 4 cation
3 2 3 26 anion
3 5 6 19 cation
3 7 8 28 cation
3 8 9 30 cation
5 1 5 6 15 19 rings
5 4 10 11 12 13 rings
5 8 9 29 30 31 rings
6 16 17 18 20 21 23 rings
6 7 22 24 25 27 28 rings

> <PUBCHEM_HEAVY_ATOM_COUNT>
31

> <PUBCHEM_ATOM_DEF_STEREO_COUNT>
1

> <PUBCHEM_ATOM_UDEF_STEREO_COUNT>
0

> <PUBCHEM_BOND_DEF_STEREO_COUNT>
0

> <PUBCHEM_BOND_UDEF_STEREO_COUNT>
0

> <PUBCHEM_ISOTOPIC_ATOM_COUNT>
0

> <PUBCHEM_COMPONENT_COUNT>
1

> <PUBCHEM_CACTVS_TAUTO_COUNT>
1

> <PUBCHEM_CONFORMER_ID>
02BA9A6600000001

> <PUBCHEM_MMFF94_ENERGY>
67.5824

> <PUBCHEM_FEATURE_SELFOVERLAP>
61.074

> <PUBCHEM_SHAPE_FINGERPRINT>
10032420 55 17895457168674374485
1100329 8 18411135806483827569
12107698 1 18411980286620234910
12156800 1 15506542744462289733
12166972 35 17822296837350893166
12788726 201 18262233309586907890
13761468 95 17828489067900638860
13782708 43 17703516493920200118
14068700 675 18271804661633819589
14931854 50 18113610158371339527
15183329 4 17968098565513135106
15876981 60 18409455777626124909
15968369 153 18059284462123788464
17492 54 18042113289862908269
18336668 15 18040723558082827101
19319366 153 17607240962257770875
20642791 239 18187632575973481437
20642791 35 18335966628951467461
20691752 17 17386829751860897877
20721686 56 18337672040063433960
20775438 99 17404559556705042335
21236236 1 18334299734420675758
21344244 246 17908695482204801767
23559900 14 17969218026561783813
255183 451 18053096513572119471
392239 28 18410017598483590992
4017518 198 16975035390511116040
4280585 95 18409719673365034781
484989 97 17678181701643592835
5171179 24 18269831068116359953
531348 171 18199755730566903878
57527585 103 17460913693614392467

> <PUBCHEM_SHAPE_MULTIPOLES>
590.47
13.45
4.21
1.66
20.3
5.12
0.21
-9.36
-5.86
-3.68
0.64
-0.14
-0.41
-0.58

> <PUBCHEM_SHAPE_SELFOVERLAP>
1308.607

> <PUBCHEM_SHAPE_VOLUME>
318.2

> <PUBCHEM_COORDINATE_TYPE>
2
5
10

$$$$
