75537016
  -OEChem-12032416323D

 48 50  0     1  0  0  0  0  0999 V2000
    2.7870   -2.6250    0.3446 O   0  0  0  0  0  0  0  0  0  0  0  0
   -4.1196   -1.8821   -0.0947 O   0  0  0  0  0  0  0  0  0  0  0  0
   -7.1610    1.9452    0.3768 O   0  0  0  0  0  0  0  0  0  0  0  0
   -5.1281    2.8919    0.0087 O   0  0  0  0  0  0  0  0  0  0  0  0
    2.5230   -0.2883    0.1695 N   0  0  0  0  0  0  0  0  0  0  0  0
    0.6858   -1.5746    0.3076 N   0  0  0  0  0  0  0  0  0  0  0  0
   -1.9515   -1.1369   -0.4650 N   0  0  0  0  0  0  0  0  0  0  0  0
    0.1814   -0.2128    0.3310 C   0  0  1  0  0  0  0  0  0  0  0  0
    3.8956    0.1439    0.0635 C   0  0  0  0  0  0  0  0  0  0  0  0
    1.4123    0.6360    0.0227 C   0  0  0  0  0  0  0  0  0  0  0  0
   -0.9690   -0.0540   -0.6598 C   0  0  0  0  0  0  0  0  0  0  0  0
    4.2720    1.0313    1.2524 C   0  0  0  0  0  0  0  0  0  0  0  0
    4.1362    0.8629   -1.2666 C   0  0  0  0  0  0  0  0  0  0  0  0
    2.0866   -1.6230    0.2853 C   0  0  0  0  0  0  0  0  0  0  0  0
   -0.2399   -2.6881    0.4113 C   0  0  0  0  0  0  0  0  0  0  0  0
    5.7045    1.5463    1.1389 C   0  0  0  0  0  0  0  0  0  0  0  0
    5.5695    1.3767   -1.3764 C   0  0  0  0  0  0  0  0  0  0  0  0
   -1.3963   -2.4952   -0.5668 C   0  0  0  0  0  0  0  0  0  0  0  0
    5.9430    2.2594   -0.1890 C   0  0  0  0  0  0  0  0  0  0  0  0
   -3.3133   -0.9582   -0.2295 C   0  0  0  0  0  0  0  0  0  0  0  0
   -3.8000    0.4658   -0.1362 C   0  0  0  0  0  0  0  0  0  0  0  0
   -5.2933    0.4837    0.1209 C   0  0  0  0  0  0  0  0  0  0  0  0
   -5.8247    1.8953    0.1507 C   0  0  0  0  0  0  0  0  0  0  0  0
   -0.1682   -0.0245    1.3542 H   0  0  0  0  0  0  0  0  0  0  0  0
    4.5307   -0.7510    0.0913 H   0  0  0  0  0  0  0  0  0  0  0  0
    1.3920    1.0117   -1.0047 H   0  0  0  0  0  0  0  0  0  0  0  0
    1.5008    1.4749    0.7176 H   0  0  0  0  0  0  0  0  0  0  0  0
   -1.4126    0.9378   -0.5585 H   0  0  0  0  0  0  0  0  0  0  0  0
   -0.6119   -0.1466   -1.6931 H   0  0  0  0  0  0  0  0  0  0  0  0
    4.1561    0.4724    2.1892 H   0  0  0  0  0  0  0  0  0  0  0  0
    3.6000    1.8950    1.3222 H   0  0  0  0  0  0  0  0  0  0  0  0
    3.4625    1.7217   -1.3743 H   0  0  0  0  0  0  0  0  0  0  0  0
    3.9210    0.1885   -2.1043 H   0  0  0  0  0  0  0  0  0  0  0  0
   -0.6104   -2.6996    1.4426 H   0  0  0  0  0  0  0  0  0  0  0  0
    0.2873   -3.6289    0.2262 H   0  0  0  0  0  0  0  0  0  0  0  0
    6.4024    0.7050    1.2317 H   0  0  0  0  0  0  0  0  0  0  0  0
    5.9176    2.2301    1.9683 H   0  0  0  0  0  0  0  0  0  0  0  0
    5.6887    1.9417   -2.3078 H   0  0  0  0  0  0  0  0  0  0  0  0
    6.2588    0.5249   -1.4293 H   0  0  0  0  0  0  0  0  0  0  0  0
   -1.0441   -2.6155   -1.5984 H   0  0  0  0  0  0  0  0  0  0  0  0
   -2.1672   -3.2514   -0.3899 H   0  0  0  0  0  0  0  0  0  0  0  0
    6.9957    2.5541   -0.2654 H   0  0  0  0  0  0  0  0  0  0  0  0
    5.3497    3.1815   -0.2193 H   0  0  0  0  0  0  0  0  0  0  0  0
   -3.5768    0.9798   -1.0782 H   0  0  0  0  0  0  0  0  0  0  0  0
   -3.2738    0.9741    0.6797 H   0  0  0  0  0  0  0  0  0  0  0  0
   -5.8275   -0.0545   -0.6709 H   0  0  0  0  0  0  0  0  0  0  0  0
   -5.5221    0.0142    1.0846 H   0  0  0  0  0  0  0  0  0  0  0  0
   -7.4935    2.8677    0.4048 H   0  0  0  0  0  0  0  0  0  0  0  0
  1 14  2  0  0  0  0
  2 20  2  0  0  0  0
  3 23  1  0  0  0  0
  3 48  1  0  0  0  0
  4 23  2  0  0  0  0
  5  9  1  0  0  0  0
  5 10  1  0  0  0  0
  5 14  1  0  0  0  0
  6  8  1  0  0  0  0
  6 14  1  0  0  0  0
  6 15  1  0  0  0  0
  7 11  1  0  0  0  0
  7 18  1  0  0  0  0
  7 20  1  0  0  0  0
  8 10  1  0  0  0  0
  8 11  1  0  0  0  0
  8 24  1  0  0  0  0
  9 12  1  0  0  0  0
  9 13  1  0  0  0  0
  9 25  1  0  0  0  0
 10 26  1  0  0  0  0
 10 27  1  0  0  0  0
 11 28  1  0  0  0  0
 11 29  1  0  0  0  0
 12 16  1  0  0  0  0
 12 30  1  0  0  0  0
 12 31  1  0  0  0  0
 13 17  1  0  0  0  0
 13 32  1  0  0  0  0
 13 33  1  0  0  0  0
 15 18  1  0  0  0  0
 15 34  1  0  0  0  0
 15 35  1  0  0  0  0
 16 19  1  0  0  0  0
 16 36  1  0  0  0  0
 16 37  1  0  0  0  0
 17 19  1  0  0  0  0
 17 38  1  0  0  0  0
 17 39  1  0  0  0  0
 18 40  1  0  0  0  0
 18 41  1  0  0  0  0
 19 42  1  0  0  0  0
 19 43  1  0  0  0  0
 20 21  1  0  0  0  0
 21 22  1  0  0  0  0
 21 44  1  0  0  0  0
 21 45  1  0  0  0  0
 22 23  1  0  0  0  0
 22 46  1  0  0  0  0
 22 47  1  0  0  0  0
M  END
> <PUBCHEM_COMPOUND_CID>
75537016

> <PUBCHEM_CONFORMER_RMSD>
0.8

> <PUBCHEM_CONFORMER_DIVERSEORDER>
1
171
92
144
151
118
133
89
146
99
143
135
66
114
60
141
78
113
84
157
5
156
159
111
41
70
40
136
164
131
42
94
120
51
97
138
85
34
102
44
124
100
90
142
161
155
132
126
147
33
88
16
82
110
69
153
127
93
50
31
81
63
166
35
54
177
80
64
112
109
73
37
47
9
20
162
48
11
10
128
158
59
15
23
61
119
2
105
121
49
134
14
86
8
76
103
46
174
129
176
65
116
160
173
152
58
74
130
123
96
149
13
150
38
122
67
43
68
140
56
7
107
167
115
106
168
83
19
62
175
22
104
101
172
169
79
30
4
25
26
95
163
139
165
29
75
77
21
125
39
53
57
137
72
3
17
18
117
55
170
154
27
91
87
52
98
6
36
178
45
24
148
28
71
12
32
145
108

> <PUBCHEM_MMFF94_PARTIAL_CHARGES>
19
1 -0.57
10 0.3
11 0.3
14 0.69
15 0.3
18 0.3
2 -0.57
20 0.57
21 0.06
22 0.06
23 0.66
3 -0.65
4 -0.57
48 0.5
5 -0.66
6 -0.66
7 -0.66
8 0.3
9 0.3

> <PUBCHEM_EFFECTIVE_ROTOR_COUNT>
7.4

> <PUBCHEM_PHARMACOPHORE_FEATURES>
8
1 1 acceptor
1 2 acceptor
1 3 acceptor
1 4 acceptor
3 3 4 23 anion
5 5 6 8 10 14 rings
6 6 7 8 11 15 18 rings
6 9 12 13 16 17 19 rings

> <PUBCHEM_HEAVY_ATOM_COUNT>
23

> <PUBCHEM_ATOM_DEF_STEREO_COUNT>
1

> <PUBCHEM_ATOM_UDEF_STEREO_COUNT>
0

> <PUBCHEM_BOND_DEF_STEREO_COUNT>
0

> <PUBCHEM_BOND_UDEF_STEREO_COUNT>
0

> <PUBCHEM_ISOTOPIC_ATOM_COUNT>
0

> <PUBCHEM_COMPONENT_COUNT>
1

> <PUBCHEM_CACTVS_TAUTO_COUNT>
1

> <PUBCHEM_CONFORMER_ID>
04809A7800000001

> <PUBCHEM_MMFF94_ENERGY>
38.1604

> <PUBCHEM_FEATURE_SELFOVERLAP>
40.753

> <PUBCHEM_SHAPE_FINGERPRINT>
10 15 18186806881326896169
10378564 45 17988370295542397462
10411042 1 17618782900692739095
10493431 412 18408039624124849503
10906281 52 17895485816343368660
12236239 1 17532362262101597688
12293681 160 17917715699009370011
12390115 104 18342465850266621491
12422481 6 17313374604849167412
12596602 18 17530966865518259041
12633257 1 16225772934343580219
12788726 201 17632302224451073624
13540713 5 18339058454726497463
13885169 86 18335431204700245461
14251764 75 18269563754174215185
14347332 77 10087646996243736243
14790565 3 18409731750792069605
15183329 4 16559039267782183149
15188451 53 11025794323197082941
15196674 1 18411134719361216315
15238133 3 18410568518407423288
15475509 35 15937529235224838682
15778101 99 18411140251167895063
1601671 61 18407757053863075532
200 152 14117255995912783854
20281389 69 18410009931724134073
20621476 66 18335423517093472244
21033648 29 18058719329477122656
21279426 13 18201445765911143366
21304253 335 18334580152597873428
21421861 104 17896022279407848354
23402655 69 18342735230140919862
23559900 14 18342452600678427594
23569914 152 17054729728737793612
25122255 55 8502372256577112649
270888 7 18411698773115665649
2748736 6 18336817620338378253
2838139 119 18272359867539880933
2916195 48 18200869698906158080
293599 30 18413109463513297005
3411729 13 18335701594302743331
3472631 163 18341897428293042716
34934 24 18341888606224325486
350125 39 18335980849345500406
3680242 22 18113612405077058784
5104073 3 18187361017554109595
59682541 35 18335995225281451529
59682541 52 16917076521022614292
636775 72 18052533567961320064
7062679 6 18409450293121997613
76465 3 10015866474493095295
7808743 9 18410569608938485795

> <PUBCHEM_SHAPE_MULTIPOLES>
434.91
16.06
3.03
0.97
8.16
0.64
-0.07
-16.37
0.46
2.06
0.19
-1.4
-0.24
-0.69

> <PUBCHEM_SHAPE_SELFOVERLAP>
898.508

> <PUBCHEM_SHAPE_VOLUME>
246.2

> <PUBCHEM_COORDINATE_TYPE>
2
5
10

$$$$
