75536331
  -OEChem-12032416303D

 63 66  0     1  0  0  0  0  0999 V2000
    3.9220   -0.2549    0.8753 O   0  0  0  0  0  0  0  0  0  0  0  0
    6.4559    0.4999    2.1784 O   0  0  0  0  0  0  0  0  0  0  0  0
    0.6224   -2.2522   -2.1519 O   0  0  0  0  0  0  0  0  0  0  0  0
    1.3098    1.5651   -1.3454 O   0  0  0  0  0  0  0  0  0  0  0  0
   -1.6296   -1.7464    0.6235 O   0  0  0  0  0  0  0  0  0  0  0  0
   -5.1962    1.7430   -1.4462 O   0  0  0  0  0  0  0  0  0  0  0  0
    2.3039    2.2812    0.6168 N   0  0  0  0  0  0  0  0  0  0  0  0
    2.0117   -2.2755   -2.1384 N   0  0  0  0  0  0  0  0  0  0  0  0
    0.0023    2.2983    0.4611 N   0  0  0  0  0  0  0  0  0  0  0  0
    4.3674   -0.8234   -0.3585 C   0  0  1  0  0  0  0  0  0  0  0  0
    4.3674    1.0846    1.1255 C   0  0  1  0  0  0  0  0  0  0  0  0
    5.8966    1.1868    1.0556 C   0  0  2  0  0  0  0  0  0  0  0  0
    5.8938   -0.8496   -0.4200 C   0  0  0  0  0  0  0  0  0  0  0  0
    6.4646    0.5500   -0.2098 C   0  0  0  0  0  0  0  0  0  0  0  0
    3.7967   -2.2337   -0.4457 C   0  0  0  0  0  0  0  0  0  0  0  0
    3.6607    2.0799    0.2077 C   0  0  0  0  0  0  0  0  0  0  0  0
    2.3457   -2.2243   -0.8458 C   0  0  0  0  0  0  0  0  0  0  0  0
    1.2203   -2.1679   -0.0056 C   0  0  0  0  0  0  0  0  0  0  0  0
    1.1962    2.0047   -0.2037 C   0  0  0  0  0  0  0  0  0  0  0  0
    0.1628   -2.1880   -0.8761 C   0  0  0  0  0  0  0  0  0  0  0  0
   -1.2947   -2.1556   -0.7054 C   0  0  0  0  0  0  0  0  0  0  0  0
   -1.3188    2.1570   -0.0239 C   0  0  0  0  0  0  0  0  0  0  0  0
   -1.5408    1.6714   -1.3126 C   0  0  0  0  0  0  0  0  0  0  0  0
   -2.3998    2.5035    0.7866 C   0  0  0  0  0  0  0  0  0  0  0  0
   -2.9590   -1.7356    0.9406 C   0  0  0  0  0  0  0  0  0  0  0  0
   -2.8438    1.5320   -1.7905 C   0  0  0  0  0  0  0  0  0  0  0  0
   -3.7028    2.3643    0.3088 C   0  0  0  0  0  0  0  0  0  0  0  0
   -3.9248    1.8785   -0.9798 C   0  0  0  0  0  0  0  0  0  0  0  0
   -3.9063   -2.1113   -0.0119 C   0  0  0  0  0  0  0  0  0  0  0  0
   -3.3685   -1.3485    2.2165 C   0  0  0  0  0  0  0  0  0  0  0  0
   -5.2631   -2.0998    0.3116 C   0  0  0  0  0  0  0  0  0  0  0  0
   -4.7252   -1.3371    2.5401 C   0  0  0  0  0  0  0  0  0  0  0  0
   -5.6725   -1.7127    1.5875 C   0  0  0  0  0  0  0  0  0  0  0  0
   -6.2542    2.1164   -0.5645 C   0  0  0  0  0  0  0  0  0  0  0  0
    3.9852   -0.2331   -1.1987 H   0  0  0  0  0  0  0  0  0  0  0  0
    4.0704    1.2936    2.1616 H   0  0  0  0  0  0  0  0  0  0  0  0
    6.2150    2.2322    1.1333 H   0  0  0  0  0  0  0  0  0  0  0  0
    6.2345   -1.2482   -1.3823 H   0  0  0  0  0  0  0  0  0  0  0  0
    6.2845   -1.5111    0.3637 H   0  0  0  0  0  0  0  0  0  0  0  0
    7.5573    0.4849   -0.1530 H   0  0  0  0  0  0  0  0  0  0  0  0
    6.2183    1.1740   -1.0772 H   0  0  0  0  0  0  0  0  0  0  0  0
    3.8939   -2.7497    0.5180 H   0  0  0  0  0  0  0  0  0  0  0  0
    4.3511   -2.8251   -1.1859 H   0  0  0  0  0  0  0  0  0  0  0  0
    3.6985    1.7972   -0.8462 H   0  0  0  0  0  0  0  0  0  0  0  0
    4.1380    3.0626    0.2947 H   0  0  0  0  0  0  0  0  0  0  0  0
    7.4209    0.6144    2.1421 H   0  0  0  0  0  0  0  0  0  0  0  0
    2.1340    2.6893    1.5310 H   0  0  0  0  0  0  0  0  0  0  0  0
    1.1848   -2.1194    1.0728 H   0  0  0  0  0  0  0  0  0  0  0  0
   -1.7162   -1.4534   -1.4343 H   0  0  0  0  0  0  0  0  0  0  0  0
   -1.6605   -3.1730   -0.8940 H   0  0  0  0  0  0  0  0  0  0  0  0
    0.0846    2.6567    1.4092 H   0  0  0  0  0  0  0  0  0  0  0  0
   -0.7571    1.3798   -1.9973 H   0  0  0  0  0  0  0  0  0  0  0  0
   -2.2395    2.8820    1.7930 H   0  0  0  0  0  0  0  0  0  0  0  0
   -3.0119    1.1511   -2.7942 H   0  0  0  0  0  0  0  0  0  0  0  0
   -4.4956    2.6505    0.9914 H   0  0  0  0  0  0  0  0  0  0  0  0
   -3.6649   -2.4165   -1.0240 H   0  0  0  0  0  0  0  0  0  0  0  0
   -2.6350   -1.0533    2.9618 H   0  0  0  0  0  0  0  0  0  0  0  0
   -6.0020   -2.3893   -0.4300 H   0  0  0  0  0  0  0  0  0  0  0  0
   -5.0442   -1.0346    3.5332 H   0  0  0  0  0  0  0  0  0  0  0  0
   -6.7290   -1.7022    1.8389 H   0  0  0  0  0  0  0  0  0  0  0  0
   -7.1950    1.9429   -1.0970 H   0  0  0  0  0  0  0  0  0  0  0  0
   -6.2168    3.1834   -0.3202 H   0  0  0  0  0  0  0  0  0  0  0  0
   -6.2731    1.4859    0.3309 H   0  0  0  0  0  0  0  0  0  0  0  0
  1 10  1  0  0  0  0
  1 11  1  0  0  0  0
  2 12  1  0  0  0  0
  2 46  1  0  0  0  0
  3  8  1  0  0  0  0
  3 20  1  0  0  0  0
  4 19  2  0  0  0  0
  5 21  1  0  0  0  0
  5 25  1  0  0  0  0
  6 28  1  0  0  0  0
  6 34  1  0  0  0  0
  7 16  1  0  0  0  0
  7 19  1  0  0  0  0
  7 47  1  0  0  0  0
  8 17  2  0  0  0  0
  9 19  1  0  0  0  0
  9 22  1  0  0  0  0
  9 51  1  0  0  0  0
 10 13  1  0  0  0  0
 10 15  1  0  0  0  0
 10 35  1  0  0  0  0
 11 12  1  0  0  0  0
 11 16  1  0  0  0  0
 11 36  1  0  0  0  0
 12 14  1  0  0  0  0
 12 37  1  0  0  0  0
 13 14  1  0  0  0  0
 13 38  1  0  0  0  0
 13 39  1  0  0  0  0
 14 40  1  0  0  0  0
 14 41  1  0  0  0  0
 15 17  1  0  0  0  0
 15 42  1  0  0  0  0
 15 43  1  0  0  0  0
 16 44  1  0  0  0  0
 16 45  1  0  0  0  0
 17 18  1  0  0  0  0
 18 20  2  0  0  0  0
 18 48  1  0  0  0  0
 20 21  1  0  0  0  0
 21 49  1  0  0  0  0
 21 50  1  0  0  0  0
 22 23  2  0  0  0  0
 22 24  1  0  0  0  0
 23 26  1  0  0  0  0
 23 52  1  0  0  0  0
 24 27  2  0  0  0  0
 24 53  1  0  0  0  0
 25 29  2  0  0  0  0
 25 30  1  0  0  0  0
 26 28  2  0  0  0  0
 26 54  1  0  0  0  0
 27 28  1  0  0  0  0
 27 55  1  0  0  0  0
 29 31  1  0  0  0  0
 29 56  1  0  0  0  0
 30 32  2  0  0  0  0
 30 57  1  0  0  0  0
 31 33  2  0  0  0  0
 31 58  1  0  0  0  0
 32 33  1  0  0  0  0
 32 59  1  0  0  0  0
 33 60  1  0  0  0  0
 34 61  1  0  0  0  0
 34 62  1  0  0  0  0
 34 63  1  0  0  0  0
M  END
> <PUBCHEM_COMPOUND_CID>
75536331

> <PUBCHEM_CONFORMER_RMSD>
1.4

> <PUBCHEM_CONFORMER_DIVERSEORDER>
1
64
124
47
122
41
111
14
42
60
59
34
27
66
121
49
96
13
119
9
98
2
106
11
24
75
10
115
74
97
22
95
88
101
73
83
26
35
90
58
55
89
117
79
92
29
69
99
123
116
68
39
67
76
44
28
23
3
7
93
51
72
84
110
43
30
36
103
105
25
120
78
113
77
20
53
46
71
82
70
31
48
15
118
4
40
100
85
81
57
32
109
94
33
21
86
104
50
52
37
80
112
5
87
38
91
18
54
61
16
8
114
19
62
45
108
56
6
102
63
65
107
17
12

> <PUBCHEM_MMFF94_PARTIAL_CHARGES>
45
1 -0.56
10 0.28
11 0.28
12 0.28
15 0.18
16 0.3
17 0.11
18 -0.15
19 0.69
2 -0.68
20 -0.04
21 0.46
22 0.12
23 -0.15
24 -0.15
25 0.08
26 -0.15
27 -0.15
28 0.08
29 -0.15
3 -0.02
30 -0.15
31 -0.15
32 -0.15
33 -0.15
34 0.28
4 -0.57
46 0.4
47 0.37
48 0.15
5 -0.36
51 0.37
52 0.15
53 0.15
54 0.15
55 0.15
56 0.15
57 0.15
58 0.15
59 0.15
6 -0.36
60 0.15
7 -0.73
8 -0.41
9 -0.55

> <PUBCHEM_EFFECTIVE_ROTOR_COUNT>
12.2

> <PUBCHEM_PHARMACOPHORE_FEATURES>
13
1 1 acceptor
1 2 acceptor
1 2 donor
1 4 acceptor
1 5 acceptor
1 6 acceptor
1 7 donor
1 8 acceptor
1 9 donor
5 3 8 17 18 20 rings
6 1 10 11 12 13 14 rings
6 22 23 24 26 27 28 rings
6 25 29 30 31 32 33 rings

> <PUBCHEM_HEAVY_ATOM_COUNT>
34

> <PUBCHEM_ATOM_DEF_STEREO_COUNT>
3

> <PUBCHEM_ATOM_UDEF_STEREO_COUNT>
0

> <PUBCHEM_BOND_DEF_STEREO_COUNT>
0

> <PUBCHEM_BOND_UDEF_STEREO_COUNT>
0

> <PUBCHEM_ISOTOPIC_ATOM_COUNT>
0

> <PUBCHEM_COMPONENT_COUNT>
1

> <PUBCHEM_CACTVS_TAUTO_COUNT>
3

> <PUBCHEM_CONFORMER_ID>
048097CB00000001

> <PUBCHEM_MMFF94_ENERGY>
86.6863

> <PUBCHEM_FEATURE_SELFOVERLAP>
66.027

> <PUBCHEM_SHAPE_FINGERPRINT>
10864689 126 18123758547400017703
11135609 12 18187939386608791585
11488393 25 17630618821237556254
12107698 1 18188205519708736826
12422481 6 18339376239614152499
13402501 40 18410853244041211661
14040221 97 18262243321604704772
14840074 17 18269282433441410082
15968369 153 18273493485402961909
20721686 56 18269833134295926342
20764821 26 18412825772280837775
21033648 29 18341039783717258986
21360443 126 18186798046220634653
22182313 1 18341062830036989790
23378982 100 17385733522131624801
23559900 14 18411691106330705705
3052486 1 18041006120023548334
338550 245 18336549416905311132
3459 110 18410863148499579291
354706 132 17903094247808244284
4112364 45 17056154786861495929
469060 322 16950003616855970143
5081480 168 16771857380370213078
508706 21 18113621179505080507
56638632 10 17559950090267278832
57828716 16 16443356386124171817

> <PUBCHEM_SHAPE_MULTIPOLES>
649.55
15.22
3.97
1.89
8.36
0.18
0.31
1.14
5.05
-2.89
-0.62
-0.89
-0.57
3.64

> <PUBCHEM_SHAPE_SELFOVERLAP>
1380.69

> <PUBCHEM_SHAPE_VOLUME>
361.4

> <PUBCHEM_COORDINATE_TYPE>
2
5
10

$$$$
