71693122
  -OEChem-12032416333D

 76 79  0     1  0  0  0  0  0999 V2000
   -3.4022    0.6959    1.4849 O   0  0  0  0  0  0  0  0  0  0  0  0
   -0.8055   -1.7841    0.6502 O   0  0  0  0  0  0  0  0  0  0  0  0
   -1.6955   -3.1766   -0.9149 O   0  0  0  0  0  0  0  0  0  0  0  0
   -2.5491    2.0045   -0.2385 N   0  0  0  0  0  0  0  0  0  0  0  0
    3.7843   -0.3296   -1.2551 N   0  0  0  0  0  0  0  0  0  0  0  0
    2.2151   -1.0937    0.1211 N   0  0  0  0  0  0  0  0  0  0  0  0
   -4.1144   -1.4339   -0.1987 C   0  0  0  0  0  0  0  0  0  0  0  0
    0.1743    2.1873    1.0239 C   0  0  1  0  0  0  0  0  0  0  0  0
   -0.6318    3.3625    0.4161 C   0  0  2  0  0  0  0  0  0  0  0  0
   -4.5192   -2.4046   -1.3313 C   0  0  0  0  0  0  0  0  0  0  0  0
   -5.4341   -1.0933    0.5345 C   0  0  0  0  0  0  0  0  0  0  0  0
    1.6261    2.2169    0.5223 C   0  0  0  0  0  0  0  0  0  0  0  0
    1.7142    2.1267   -1.0128 C   0  0  2  0  0  0  0  0  0  0  0  0
   -6.0277   -2.2534   -1.4655 C   0  0  0  0  0  0  0  0  0  0  0  0
   -6.4774   -2.0488   -0.0311 C   0  0  0  0  0  0  0  0  0  0  0  0
   -3.4807   -0.1605   -0.7758 C   0  0  0  0  0  0  0  0  0  0  0  0
    0.1538    2.2156    2.5554 C   0  0  0  0  0  0  0  0  0  0  0  0
   -3.1151   -2.1044    0.7519 C   0  0  0  0  0  0  0  0  0  0  0  0
   -2.1404    3.1255    0.5485 C   0  0  0  0  0  0  0  0  0  0  0  0
    0.7451    3.0753   -1.6891 C   0  0  0  0  0  0  0  0  0  0  0  0
   -0.2892    3.6282   -1.0311 C   0  0  0  0  0  0  0  0  0  0  0  0
    1.4997    0.6876   -1.4948 C   0  0  0  0  0  0  0  0  0  0  0  0
   -3.1541    0.8651    0.2942 C   0  0  0  0  0  0  0  0  0  0  0  0
    0.3979    0.8184    3.1167 C   0  0  0  0  0  0  0  0  0  0  0  0
    1.1929    3.1997    3.0831 C   0  0  0  0  0  0  0  0  0  0  0  0
    1.0191    3.4102   -3.1289 C   0  0  0  0  0  0  0  0  0  0  0  0
   -1.8323   -2.4382    0.0487 C   0  0  0  0  0  0  0  0  0  0  0  0
    2.4786   -0.2562   -0.8569 C   0  0  0  0  0  0  0  0  0  0  0  0
    4.4050   -1.2774   -0.4826 C   0  0  0  0  0  0  0  0  0  0  0  0
    3.4048   -1.7395    0.3683 C   0  0  0  0  0  0  0  0  0  0  0  0
    4.4041    0.4504   -2.3027 C   0  0  0  0  0  0  0  0  0  0  0  0
    5.7155   -1.7556   -0.4561 C   0  0  0  0  0  0  0  0  0  0  0  0
    3.7123   -2.7379    1.3079 C   0  0  0  0  0  0  0  0  0  0  0  0
    6.0039   -2.7492    0.4854 C   0  0  0  0  0  0  0  0  0  0  0  0
    5.0217   -3.2330    1.3527 C   0  0  0  0  0  0  0  0  0  0  0  0
   -0.2739    1.2425    0.6936 H   0  0  0  0  0  0  0  0  0  0  0  0
   -0.3988    4.2867    0.9597 H   0  0  0  0  0  0  0  0  0  0  0  0
   -4.0133   -2.1999   -2.2807 H   0  0  0  0  0  0  0  0  0  0  0  0
   -4.3064   -3.4468   -1.0621 H   0  0  0  0  0  0  0  0  0  0  0  0
   -5.3657   -1.1961    1.6229 H   0  0  0  0  0  0  0  0  0  0  0  0
   -5.7602   -0.0674    0.3227 H   0  0  0  0  0  0  0  0  0  0  0  0
    2.2407    1.4539    1.0071 H   0  0  0  0  0  0  0  0  0  0  0  0
    2.0920    3.1781    0.7798 H   0  0  0  0  0  0  0  0  0  0  0  0
    2.7286    2.4491   -1.2808 H   0  0  0  0  0  0  0  0  0  0  0  0
   -6.4931   -3.1287   -1.9273 H   0  0  0  0  0  0  0  0  0  0  0  0
   -6.2704   -1.3733   -2.0725 H   0  0  0  0  0  0  0  0  0  0  0  0
   -7.4908   -1.6427    0.0347 H   0  0  0  0  0  0  0  0  0  0  0  0
   -6.4534   -2.9997    0.5145 H   0  0  0  0  0  0  0  0  0  0  0  0
   -4.1756    0.3144   -1.4815 H   0  0  0  0  0  0  0  0  0  0  0  0
   -2.5672   -0.3780   -1.3421 H   0  0  0  0  0  0  0  0  0  0  0  0
   -0.8287    2.5337    2.9188 H   0  0  0  0  0  0  0  0  0  0  0  0
   -2.9059   -1.5243    1.6546 H   0  0  0  0  0  0  0  0  0  0  0  0
   -3.5217   -3.0526    1.1290 H   0  0  0  0  0  0  0  0  0  0  0  0
   -2.6939    3.9931    0.1693 H   0  0  0  0  0  0  0  0  0  0  0  0
   -2.4442    2.9928    1.5904 H   0  0  0  0  0  0  0  0  0  0  0  0
   -0.9252    4.3394   -1.5547 H   0  0  0  0  0  0  0  0  0  0  0  0
    1.5723    0.6141   -2.5854 H   0  0  0  0  0  0  0  0  0  0  0  0
    0.4846    0.3473   -1.2527 H   0  0  0  0  0  0  0  0  0  0  0  0
   -2.4429    2.0653   -1.2472 H   0  0  0  0  0  0  0  0  0  0  0  0
    1.3729    0.4160    2.8255 H   0  0  0  0  0  0  0  0  0  0  0  0
   -0.3736    0.1205    2.7748 H   0  0  0  0  0  0  0  0  0  0  0  0
    0.3623    0.8345    4.2115 H   0  0  0  0  0  0  0  0  0  0  0  0
    2.2213    2.8388    2.9769 H   0  0  0  0  0  0  0  0  0  0  0  0
    1.0379    3.3430    4.1598 H   0  0  0  0  0  0  0  0  0  0  0  0
    1.1084    4.1897    2.6253 H   0  0  0  0  0  0  0  0  0  0  0  0
    0.9198    2.5220   -3.7597 H   0  0  0  0  0  0  0  0  0  0  0  0
    2.0340    3.8056   -3.2405 H   0  0  0  0  0  0  0  0  0  0  0  0
    0.3274    4.1666   -3.5149 H   0  0  0  0  0  0  0  0  0  0  0  0
    0.0537   -1.9748    0.2172 H   0  0  0  0  0  0  0  0  0  0  0  0
    3.6846    0.6650   -3.0940 H   0  0  0  0  0  0  0  0  0  0  0  0
    4.7829    1.3749   -1.8606 H   0  0  0  0  0  0  0  0  0  0  0  0
    5.2290   -0.1193   -2.7378 H   0  0  0  0  0  0  0  0  0  0  0  0
    6.4822   -1.3817   -1.1249 H   0  0  0  0  0  0  0  0  0  0  0  0
    2.9559   -3.1200    1.9860 H   0  0  0  0  0  0  0  0  0  0  0  0
    7.0124   -3.1515    0.5429 H   0  0  0  0  0  0  0  0  0  0  0  0
    5.2763   -4.0054    2.0739 H   0  0  0  0  0  0  0  0  0  0  0  0
  1 23  2  0  0  0  0
  2 27  1  0  0  0  0
  2 69  1  0  0  0  0
  3 27  2  0  0  0  0
  4 19  1  0  0  0  0
  4 23  1  0  0  0  0
  4 59  1  0  0  0  0
  5 28  1  0  0  0  0
  5 29  1  0  0  0  0
  5 31  1  0  0  0  0
  6 28  2  0  0  0  0
  6 30  1  0  0  0  0
  7 10  1  0  0  0  0
  7 11  1  0  0  0  0
  7 16  1  0  0  0  0
  7 18  1  0  0  0  0
  8  9  1  0  0  0  0
  8 12  1  0  0  0  0
  8 17  1  0  0  0  0
  8 36  1  0  0  0  0
  9 19  1  0  0  0  0
  9 21  1  0  0  0  0
  9 37  1  0  0  0  0
 10 14  1  0  0  0  0
 10 38  1  0  0  0  0
 10 39  1  0  0  0  0
 11 15  1  0  0  0  0
 11 40  1  0  0  0  0
 11 41  1  0  0  0  0
 12 13  1  0  0  0  0
 12 42  1  0  0  0  0
 12 43  1  0  0  0  0
 13 20  1  0  0  0  0
 13 22  1  0  0  0  0
 13 44  1  0  0  0  0
 14 15  1  0  0  0  0
 14 45  1  0  0  0  0
 14 46  1  0  0  0  0
 15 47  1  0  0  0  0
 15 48  1  0  0  0  0
 16 23  1  0  0  0  0
 16 49  1  0  0  0  0
 16 50  1  0  0  0  0
 17 24  1  0  0  0  0
 17 25  1  0  0  0  0
 17 51  1  0  0  0  0
 18 27  1  0  0  0  0
 18 52  1  0  0  0  0
 18 53  1  0  0  0  0
 19 54  1  0  0  0  0
 19 55  1  0  0  0  0
 20 21  2  0  0  0  0
 20 26  1  0  0  0  0
 21 56  1  0  0  0  0
 22 28  1  0  0  0  0
 22 57  1  0  0  0  0
 22 58  1  0  0  0  0
 24 60  1  0  0  0  0
 24 61  1  0  0  0  0
 24 62  1  0  0  0  0
 25 63  1  0  0  0  0
 25 64  1  0  0  0  0
 25 65  1  0  0  0  0
 26 66  1  0  0  0  0
 26 67  1  0  0  0  0
 26 68  1  0  0  0  0
 29 30  1  0  0  0  0
 29 32  2  0  0  0  0
 30 33  2  0  0  0  0
 31 70  1  0  0  0  0
 31 71  1  0  0  0  0
 31 72  1  0  0  0  0
 32 34  1  0  0  0  0
 32 73  1  0  0  0  0
 33 35  1  0  0  0  0
 33 74  1  0  0  0  0
 34 35  2  0  0  0  0
 34 75  1  0  0  0  0
 35 76  1  0  0  0  0
M  END
> <PUBCHEM_COMPOUND_CID>
71693122

> <PUBCHEM_CONFORMER_RMSD>
1.2

> <PUBCHEM_CONFORMER_DIVERSEORDER>
5
100
77
97
46
133
38
86
41
24
88
52
45
56
43
80
20
37
129
81
31
61
67
40
79
119
122
103
95
71
57
106
64
15
118
14
29
132
105
63
72
66
78
54
76
120
85
91
125
53
30
101
58
74
25
75
59
84
107
96
23
130
2
70
36
126
123
127
6
49
62
35
108
17
16
124
116
98
48
117
68
110
4
121
42
27
21
60
89
69
47
92
94
11
18
104
44
9
55
1
82
115
7
33
32
102
39
111
93
90
128
12
87
51
73
19
83
28
109
99
50
65
3
8
112
113
22
34
26
114
10
13
131

> <PUBCHEM_MMFF94_PARTIAL_CHARGES>
32
1 -0.57
13 0.14
16 0.06
18 0.06
19 0.3
2 -0.65
20 -0.28
21 -0.29
22 0.18
23 0.57
26 0.14
27 0.66
28 0.01
29 -0.15
3 -0.57
30 0.23
31 0.26
32 -0.15
33 -0.15
34 -0.15
35 -0.15
4 -0.73
5 0.05
56 0.15
59 0.37
6 -0.57
69 0.5
73 0.15
74 0.15
75 0.15
76 0.15
9 0.14

> <PUBCHEM_EFFECTIVE_ROTOR_COUNT>
11.8

> <PUBCHEM_PHARMACOPHORE_FEATURES>
11
1 1 acceptor
1 2 acceptor
1 3 acceptor
1 4 donor
3 17 24 25 hydrophobe
3 2 3 27 anion
3 5 6 28 cation
5 5 6 28 29 30 rings
5 7 10 11 14 15 rings
6 29 30 32 33 34 35 rings
6 8 9 12 13 20 21 rings

> <PUBCHEM_HEAVY_ATOM_COUNT>
35

> <PUBCHEM_ATOM_DEF_STEREO_COUNT>
3

> <PUBCHEM_ATOM_UDEF_STEREO_COUNT>
0

> <PUBCHEM_BOND_DEF_STEREO_COUNT>
0

> <PUBCHEM_BOND_UDEF_STEREO_COUNT>
0

> <PUBCHEM_ISOTOPIC_ATOM_COUNT>
0

> <PUBCHEM_COMPONENT_COUNT>
1

> <PUBCHEM_CACTVS_TAUTO_COUNT>
4

> <PUBCHEM_CONFORMER_ID>
0445F34200000005

> <PUBCHEM_MMFF94_ENERGY>
76.212

> <PUBCHEM_FEATURE_SELFOVERLAP>
55.985

> <PUBCHEM_SHAPE_FINGERPRINT>
10622 236 18261675882866639454
11456790 92 18411430501485894515
11720765 8 18334573602778658237
12156800 1 17390748281598905816
12166972 35 18410292527513397963
12788726 201 18341626884039709518
13631057 29 18411421670769025278
14068700 675 18341896281346506348
14114206 34 16660926556563488269
14725015 67 18413383233862328935
15484559 13 14889014558473147751
15968369 26 17757536831152427531
19315092 285 18413111650185037352
19319366 153 17903930189798086972
20775530 9 18341620351441769149
21033648 29 15984825900124372727
21987440 362 12325616139305396462
23559900 14 18264484173694165471
46194498 28 17387410357918770581
469060 322 18191315883442668354
66674814 147 17676491597082867578

> <PUBCHEM_SHAPE_MULTIPOLES>
687.73
12.3
5.47
2.52
4.27
2.24
-0.74
-17.38
2.31
-1.03
-0.05
-1.43
2.5
-2.33

> <PUBCHEM_SHAPE_SELFOVERLAP>
1456.238

> <PUBCHEM_SHAPE_VOLUME>
384.6

> <PUBCHEM_COORDINATE_TYPE>
2
5
10

$$$$
