11883387
  -OEChem-12032416373D

 53 56  0     1  0  0  0  0  0999 V2000
   -8.4917   -2.7900   -1.3876 F   0  0  0  0  0  0  0  0  0  0  0  0
   -8.6479   -3.1543    0.7446 F   0  0  0  0  0  0  0  0  0  0  0  0
   -7.0411   -4.0723   -0.3974 F   0  0  0  0  0  0  0  0  0  0  0  0
    9.2097   -2.6038    0.7740 F   0  0  0  0  0  0  0  0  0  0  0  0
    9.1079   -0.4943    1.2677 F   0  0  0  0  0  0  0  0  0  0  0  0
    7.9456   -1.9330    2.4113 F   0  0  0  0  0  0  0  0  0  0  0  0
   -0.0771    1.6317    0.9833 O   0  0  0  0  0  0  0  0  0  0  0  0
   -0.5451    4.0246   -0.8765 O   0  0  0  0  0  0  0  0  0  0  0  0
    2.3474    1.9853   -0.3217 O   0  0  0  0  0  0  0  0  0  0  0  0
   -4.7484    2.5295    1.5088 O   0  0  0  0  0  0  0  0  0  0  0  0
    2.6729    0.4167   -1.9537 O   0  0  0  0  0  0  0  0  0  0  0  0
   -3.0965    1.6068    0.1676 N   0  0  0  0  0  0  0  0  0  0  0  0
    4.1648    0.6587   -0.1660 N   0  0  0  0  0  0  0  0  0  0  0  0
   -1.1662    2.7235   -0.8181 C   0  0  1  0  0  0  0  0  0  0  0  0
   -0.0789    1.7338   -0.4504 C   0  0  1  0  0  0  0  0  0  0  0  0
   -2.1251    2.6580    0.3476 C   0  0  2  0  0  0  0  0  0  0  0  0
    1.1678    2.4128   -0.9645 C   0  0  1  0  0  0  0  0  0  0  0  0
   -1.1967    2.3591    1.5121 C   0  0  0  0  0  0  0  0  0  0  0  0
    0.8705    3.8710   -0.6971 C   0  0  0  0  0  0  0  0  0  0  0  0
   -4.3451    1.6326    0.7730 C   0  0  0  0  0  0  0  0  0  0  0  0
    3.0428    0.9528   -0.9163 C   0  0  0  0  0  0  0  0  0  0  0  0
   -5.2205    0.4617    0.5090 C   0  0  0  0  0  0  0  0  0  0  0  0
   -6.1916    0.0934    1.4400 C   0  0  0  0  0  0  0  0  0  0  0  0
   -5.0715   -0.2692   -0.6697 C   0  0  0  0  0  0  0  0  0  0  0  0
    5.1462   -0.3269   -0.4176 C   0  0  0  0  0  0  0  0  0  0  0  0
   -7.0136   -1.0061    1.1925 C   0  0  0  0  0  0  0  0  0  0  0  0
   -5.8934   -1.3687   -0.9172 C   0  0  0  0  0  0  0  0  0  0  0  0
   -6.8644   -1.7371    0.0139 C   0  0  0  0  0  0  0  0  0  0  0  0
    6.2210   -0.4812    0.4580 C   0  0  0  0  0  0  0  0  0  0  0  0
    5.0401   -1.1448   -1.5425 C   0  0  0  0  0  0  0  0  0  0  0  0
    7.1898   -1.4533    0.2085 C   0  0  0  0  0  0  0  0  0  0  0  0
   -7.7443   -2.9115   -0.2507 C   0  0  0  0  0  0  0  0  0  0  0  0
    6.0088   -2.1170   -1.7919 C   0  0  0  0  0  0  0  0  0  0  0  0
    7.0837   -2.2712   -0.9165 C   0  0  0  0  0  0  0  0  0  0  0  0
    8.3402   -1.6172    1.1434 C   0  0  0  0  0  0  0  0  0  0  0  0
   -1.6203    2.5276   -1.7947 H   0  0  0  0  0  0  0  0  0  0  0  0
   -0.2312    0.7292   -0.8552 H   0  0  0  0  0  0  0  0  0  0  0  0
   -2.6545    3.6019    0.5170 H   0  0  0  0  0  0  0  0  0  0  0  0
    1.2281    2.2877   -2.0545 H   0  0  0  0  0  0  0  0  0  0  0  0
   -1.6614    1.7752    2.3123 H   0  0  0  0  0  0  0  0  0  0  0  0
   -0.8033    3.2851    1.9458 H   0  0  0  0  0  0  0  0  0  0  0  0
    1.4020    4.5370   -1.3835 H   0  0  0  0  0  0  0  0  0  0  0  0
    1.1321    4.1687    0.3245 H   0  0  0  0  0  0  0  0  0  0  0  0
   -2.7943    0.7816   -0.3397 H   0  0  0  0  0  0  0  0  0  0  0  0
    4.3050    1.2186    0.6714 H   0  0  0  0  0  0  0  0  0  0  0  0
   -6.3202    0.6475    2.3661 H   0  0  0  0  0  0  0  0  0  0  0  0
   -4.3492    0.0021   -1.4338 H   0  0  0  0  0  0  0  0  0  0  0  0
   -7.7636   -1.2781    1.9300 H   0  0  0  0  0  0  0  0  0  0  0  0
   -5.7747   -1.9283   -1.8413 H   0  0  0  0  0  0  0  0  0  0  0  0
    6.3074    0.1551    1.3359 H   0  0  0  0  0  0  0  0  0  0  0  0
    4.2373   -1.0840   -2.2641 H   0  0  0  0  0  0  0  0  0  0  0  0
    5.9271   -2.7544   -2.6676 H   0  0  0  0  0  0  0  0  0  0  0  0
    7.8282   -3.0337   -1.1280 H   0  0  0  0  0  0  0  0  0  0  0  0
  1 32  1  0  0  0  0
  2 32  1  0  0  0  0
  3 32  1  0  0  0  0
  4 35  1  0  0  0  0
  5 35  1  0  0  0  0
  6 35  1  0  0  0  0
  7 15  1  0  0  0  0
  7 18  1  0  0  0  0
  8 14  1  0  0  0  0
  8 19  1  0  0  0  0
  9 17  1  0  0  0  0
  9 21  1  0  0  0  0
 10 20  2  0  0  0  0
 11 21  2  0  0  0  0
 12 16  1  0  0  0  0
 12 20  1  0  0  0  0
 12 44  1  0  0  0  0
 13 21  1  0  0  0  0
 13 25  1  0  0  0  0
 13 45  1  0  0  0  0
 14 15  1  0  0  0  0
 14 16  1  0  0  0  0
 14 36  1  0  0  0  0
 15 17  1  0  0  0  0
 15 37  1  0  0  0  0
 16 18  1  0  0  0  0
 16 38  1  0  0  0  0
 17 19  1  0  0  0  0
 17 39  1  0  0  0  0
 18 40  1  0  0  0  0
 18 41  1  0  0  0  0
 19 42  1  0  0  0  0
 19 43  1  0  0  0  0
 20 22  1  0  0  0  0
 22 23  2  0  0  0  0
 22 24  1  0  0  0  0
 23 26  1  0  0  0  0
 23 46  1  0  0  0  0
 24 27  2  0  0  0  0
 24 47  1  0  0  0  0
 25 29  1  0  0  0  0
 25 30  2  0  0  0  0
 26 28  2  0  0  0  0
 26 48  1  0  0  0  0
 27 28  1  0  0  0  0
 27 49  1  0  0  0  0
 28 32  1  0  0  0  0
 29 31  2  0  0  0  0
 29 50  1  0  0  0  0
 30 33  1  0  0  0  0
 30 51  1  0  0  0  0
 31 34  1  0  0  0  0
 31 35  1  0  0  0  0
 33 34  2  0  0  0  0
 33 52  1  0  0  0  0
 34 53  1  0  0  0  0
M  END
> <PUBCHEM_COMPOUND_CID>
11883387

> <PUBCHEM_CONFORMER_RMSD>
1

> <PUBCHEM_CONFORMER_DIVERSEORDER>
1
86
19
30
40
57
49
65
64
71
87
72
66
75
12
79
9
31
55
80
2
32
22
34
59
60
3
81
7
63
89
48
52
68
27
41
62
42
78
36
44
67
20
76
18
14
85
28
43
61
69
6
23
51
39
13
17
37
74
33
82
35
88
56
24
46
73
54
26
8
45
58
21
38
25
70
4
47
84
29
5
50
83
16
15
77
11
10
53

> <PUBCHEM_MMFF94_PARTIAL_CHARGES>
45
1 -0.34
10 -0.57
11 -0.57
12 -0.73
13 -0.55
14 0.28
15 0.28
16 0.3
17 0.28
18 0.28
19 0.28
2 -0.34
20 0.54
21 0.78
22 0.09
23 -0.15
24 -0.15
25 0.12
26 -0.15
27 -0.15
28 -0.14
29 -0.15
3 -0.34
30 -0.15
31 -0.14
32 1.16
33 -0.15
34 -0.15
35 1.16
4 -0.34
44 0.37
45 0.37
46 0.15
47 0.15
48 0.15
49 0.15
5 -0.34
50 0.15
51 0.15
52 0.15
53 0.15
6 -0.34
7 -0.56
8 -0.56
9 -0.43

> <PUBCHEM_EFFECTIVE_ROTOR_COUNT>
10.2

> <PUBCHEM_PHARMACOPHORE_FEATURES>
10
1 10 acceptor
1 11 acceptor
1 12 donor
1 13 donor
1 7 acceptor
1 8 acceptor
5 7 14 15 16 18 rings
5 8 14 15 17 19 rings
6 22 23 24 26 27 28 rings
6 25 29 30 31 33 34 rings

> <PUBCHEM_HEAVY_ATOM_COUNT>
35

> <PUBCHEM_ATOM_DEF_STEREO_COUNT>
4

> <PUBCHEM_ATOM_UDEF_STEREO_COUNT>
0

> <PUBCHEM_BOND_DEF_STEREO_COUNT>
0

> <PUBCHEM_BOND_UDEF_STEREO_COUNT>
0

> <PUBCHEM_ISOTOPIC_ATOM_COUNT>
0

> <PUBCHEM_COMPONENT_COUNT>
1

> <PUBCHEM_CACTVS_TAUTO_COUNT>
4

> <PUBCHEM_CONFORMER_ID>
00B5537B00000001

> <PUBCHEM_MMFF94_ENERGY>
86.6202

> <PUBCHEM_FEATURE_SELFOVERLAP>
51.464

> <PUBCHEM_SHAPE_FINGERPRINT>
10 15 15625934293033907376
10049733 244 8214136396522031445
10100884 174 18407758153596879930
10190206 1 12757145749418739127
10254770 206 18411416241377202855
10258705 36 17984993588192671270
10391435 84 18271240513136895325
10669705 251 18201445752995223734
10920273 25 10231755625688591091
11103572 95 17915751877196154727
11963148 33 18263085409977850382
1200032 147 8755676062363109825
12120059 9 18341316860679276029
12522641 68 7925909275138794561
12838863 1 18410008862362037031
12895837 130 8502374417599387497
13512321 179 12031495623846033914
1361 4 18267029542959154989
13782708 43 18413111632530440512
13974486 7 18335692884025366362
14068700 675 18410296904032494112
14344974 204 18411985728080555014
14359421 15 17968088747091452715
14664723 55 10665227034178629799
14747281 78 9078847320234163600
15064981 113 14418125214616647273
15145343 39 18337393871658043074
15183329 4 13695874701434237420
15347591 1 18412830209399935553
15519825 34 18343300345279818666
15803439 3 14201403797765754505
16990366 60 18409730698398234601
16992779 147 16486107648954757032
16993427 108 18259980449185598744
16994733 274 10159694668569633348
19303781 99 18340480166774491495
19841028 212 18336829792201231281
20028762 73 18341902878374523662
2026 5 18260266348163662883
20691028 202 9727629488386422718
208703 8 18410853291792280175
21033648 29 13469591906267332953
21130935 74 18127694834384290666
21424621 283 9439400220310575276
21585483 132 18187077364696748330
21792938 703 18042409195423065969
21987483 16 18336825398871843544
22002106 203 18201431537017613415
23389318 12 17895203208133712796
23528940 14 18262792966461781306
23569914 152 12253002046745594792
23569943 247 18339086012470707979
24204213 310 16484980700675383679
24983565 74 18118399549650610250
25025965 108 17896311412406466706
25242607 90 18411980273408285432
2747138 104 17774162289316021580
2835820 40 9078303006180957399
3383291 50 18409733962674490219
393628 194 10519694592831096883
397830 11 17917990534673957224
3986486 107 11314313832895714042
406291 66 18408041827295574131
4169191 19 10519711055883678651
42767 23 17676198061495019854
44389302 135 18118396239111429746
4516262 110 10087653555329042025
474113 269 18059571447859389183
4760202 70 18187374255555821908
50009960 94 18341612650776261583
50742298 180 18340490066047186102
5718773 13 18410577301230402101
57303763 39 18411984634415191166
5874358 3 18260543424761150066
6201320 221 16371551598109230378
636775 72 8790013230214154894
636783 164 17488765402279918723
6712543 237 16271934796480836583
96874 4 18407760334980530791
9962374 69 18260554424837156708
9980921 52 16445016507106761338
9980921 7 11240003327059158387

> <PUBCHEM_SHAPE_MULTIPOLES>
637.33
30.94
4.79
1.6
15.92
0.63
0.24
-43.32
8.11
-5.97
-0.81
1.69
-0.31
-2.53

> <PUBCHEM_SHAPE_SELFOVERLAP>
1390.078

> <PUBCHEM_SHAPE_VOLUME>
347.1

> <PUBCHEM_COORDINATE_TYPE>
2
5
10

$$$$
