45784017
  -OEChem-12032416243D

 36 38  0     1  0  0  0  0  0999 V2000
    6.1903    0.9182    0.2950 F   0  0  0  0  0  0  0  0  0  0  0  0
   -3.8233    0.2629   -1.6876 O   0  0  0  0  0  0  0  0  0  0  0  0
   -5.2554    1.5469   -0.0127 O   0  0  0  0  0  0  0  0  0  0  0  0
   -2.4882   -0.7673   -0.1079 N   0  0  0  0  0  0  0  0  0  0  0  0
    2.0165   -1.5888    0.0288 N   0  0  0  0  0  0  0  0  0  0  0  0
    0.7793    0.2242   -0.3206 N   0  0  0  0  0  0  0  0  0  0  0  0
   -0.4533   -1.9888   -0.2438 C   0  0  1  0  0  0  0  0  0  0  0  0
   -1.0793   -2.1866    1.1456 C   0  0  0  0  0  0  0  0  0  0  0  0
   -1.6476   -1.4808   -1.0613 C   0  0  0  0  0  0  0  0  0  0  0  0
   -2.0813   -1.0444    1.2650 C   0  0  0  0  0  0  0  0  0  0  0  0
    0.7645   -1.0827   -0.1844 C   0  0  0  0  0  0  0  0  0  0  0  0
   -3.5193    0.0622   -0.5106 C   0  0  0  0  0  0  0  0  0  0  0  0
    2.8979   -0.5384    0.0297 C   0  0  0  0  0  0  0  0  0  0  0  0
    2.1015    0.5819   -0.1900 C   0  0  0  0  0  0  0  0  0  0  0  0
   -4.2880    0.7303    0.6010 C   0  0  0  0  0  0  0  0  0  0  0  0
    4.2814   -0.4740    0.1991 C   0  0  0  0  0  0  0  0  0  0  0  0
    2.7041    1.8501   -0.2473 C   0  0  0  0  0  0  0  0  0  0  0  0
    4.8644    0.7960    0.1391 C   0  0  0  0  0  0  0  0  0  0  0  0
    4.0917    1.9387   -0.0799 C   0  0  0  0  0  0  0  0  0  0  0  0
   -6.0559    2.2404    0.9429 C   0  0  0  0  0  0  0  0  0  0  0  0
   -0.1215   -2.9521   -0.6520 H   0  0  0  0  0  0  0  0  0  0  0  0
   -0.3587   -2.1927    1.9693 H   0  0  0  0  0  0  0  0  0  0  0  0
   -1.6195   -3.1419    1.1636 H   0  0  0  0  0  0  0  0  0  0  0  0
   -1.3721   -0.8291   -1.8965 H   0  0  0  0  0  0  0  0  0  0  0  0
   -2.2426   -2.3156   -1.4496 H   0  0  0  0  0  0  0  0  0  0  0  0
   -2.9422   -1.3075    1.8854 H   0  0  0  0  0  0  0  0  0  0  0  0
   -1.6144   -0.1391    1.6674 H   0  0  0  0  0  0  0  0  0  0  0  0
    2.2530   -2.5629    0.1632 H   0  0  0  0  0  0  0  0  0  0  0  0
   -3.6062    1.3373    1.2056 H   0  0  0  0  0  0  0  0  0  0  0  0
   -4.7758   -0.0322    1.2166 H   0  0  0  0  0  0  0  0  0  0  0  0
    4.8793   -1.3621    0.3690 H   0  0  0  0  0  0  0  0  0  0  0  0
    2.1122    2.7438   -0.4170 H   0  0  0  0  0  0  0  0  0  0  0  0
    4.5738    2.9120   -0.1214 H   0  0  0  0  0  0  0  0  0  0  0  0
   -6.7823    2.8527    0.4022 H   0  0  0  0  0  0  0  0  0  0  0  0
   -5.4319    2.8955    1.5583 H   0  0  0  0  0  0  0  0  0  0  0  0
   -6.5961    1.5290    1.5749 H   0  0  0  0  0  0  0  0  0  0  0  0
  1 18  1  0  0  0  0
  2 12  2  0  0  0  0
  3 15  1  0  0  0  0
  3 20  1  0  0  0  0
  4  9  1  0  0  0  0
  4 10  1  0  0  0  0
  4 12  1  0  0  0  0
  5 11  1  0  0  0  0
  5 13  1  0  0  0  0
  5 28  1  0  0  0  0
  6 11  2  0  0  0  0
  6 14  1  0  0  0  0
  7  8  1  0  0  0  0
  7  9  1  0  0  0  0
  7 11  1  0  0  0  0
  7 21  1  0  0  0  0
  8 10  1  0  0  0  0
  8 22  1  0  0  0  0
  8 23  1  0  0  0  0
  9 24  1  0  0  0  0
  9 25  1  0  0  0  0
 10 26  1  0  0  0  0
 10 27  1  0  0  0  0
 12 15  1  0  0  0  0
 13 14  2  0  0  0  0
 13 16  1  0  0  0  0
 14 17  1  0  0  0  0
 15 29  1  0  0  0  0
 15 30  1  0  0  0  0
 16 18  2  0  0  0  0
 16 31  1  0  0  0  0
 17 19  2  0  0  0  0
 17 32  1  0  0  0  0
 18 19  1  0  0  0  0
 19 33  1  0  0  0  0
 20 34  1  0  0  0  0
 20 35  1  0  0  0  0
 20 36  1  0  0  0  0
M  END
> <PUBCHEM_COMPOUND_CID>
45784017

> <PUBCHEM_CONFORMER_RMSD>
0.8

> <PUBCHEM_CONFORMER_DIVERSEORDER>
1
5
23
40
24
6
22
29
14
32
11
16
4
43
39
31
44
13
26
10
18
25
28
19
2
36
15
17
8
34
3
7
41
33
20
21
35
30
42
9
27
37
12
38

> <PUBCHEM_MMFF94_PARTIAL_CHARGES>
23
1 -0.19
10 0.3
11 0.01
12 0.57
13 -0.15
14 0.23
15 0.34
16 -0.15
17 -0.15
18 0.19
19 -0.15
2 -0.57
20 0.28
28 0.27
3 -0.56
31 0.15
32 0.15
33 0.15
4 -0.66
5 0.03
6 -0.57
7 0.18
9 0.3

> <PUBCHEM_EFFECTIVE_ROTOR_COUNT>
5

> <PUBCHEM_PHARMACOPHORE_FEATURES>
7
1 2 acceptor
1 3 acceptor
1 5 donor
3 5 6 11 cation
5 4 7 8 9 10 rings
5 5 6 11 13 14 rings
6 13 14 16 17 18 19 rings

> <PUBCHEM_HEAVY_ATOM_COUNT>
20

> <PUBCHEM_ATOM_DEF_STEREO_COUNT>
1

> <PUBCHEM_ATOM_UDEF_STEREO_COUNT>
0

> <PUBCHEM_BOND_DEF_STEREO_COUNT>
0

> <PUBCHEM_BOND_UDEF_STEREO_COUNT>
0

> <PUBCHEM_ISOTOPIC_ATOM_COUNT>
0

> <PUBCHEM_COMPONENT_COUNT>
1

> <PUBCHEM_CACTVS_TAUTO_COUNT>
2

> <PUBCHEM_CONFORMER_ID>
02BA9BD100000001

> <PUBCHEM_MMFF94_ENERGY>
37.7141

> <PUBCHEM_FEATURE_SELFOVERLAP>
35.643

> <PUBCHEM_SHAPE_FINGERPRINT>
10411042 1 17474109795689983911
11089746 13 18060129981963982704
12107183 9 18264481798324277650
122479 349 18408608088716188419
12633257 1 16371018429142241281
12892183 10 15864343593806552691
13103583 49 12757150126549400653
13583140 156 15430301560420358013
14576447 43 9799696991446879740
15188451 53 14779561118892383897
15238133 3 18187656807709357068
15295992 7 18260834812532611227
15415430 10 8286197254096637813
17357779 13 12535626072550619795
17834072 32 18411139164193055052
1813 80 8718541765904595123
20621476 66 18410860983931442820
20645477 56 17821723948801086983
21033648 29 18271519900949190328
21315759 148 14562524047076181928
21421861 104 17749937879176241274
21637258 2 11530770335884682993
23402539 116 18060415828536938188
23402655 69 18201716258245080086
23559900 14 18412544306596025794
270888 7 18270964544830750889
2838139 119 18272646844633701641
3268164 11 14764361434793237866
335352 9 18410293589003024358
3472631 163 18131071511517636485
351380 3 10953747711591133945
4259306 186 10375869671445239729
4325135 7 18341893026758620591
46194498 28 13181866192666578433
465052 167 11026096654909542665
474 4 18411420566756591555
5104073 3 18041834147085036576
5385378 56 18262801761604860698
57724786 102 18187370960493011860
59124914 9 18410856551250620768
59682541 35 18334870433360035841
59682541 52 16486420854195002677
6328613 192 18263368139554393156
633830 44 18340768144215831759
7970288 3 8214149542362499960

> <PUBCHEM_SHAPE_MULTIPOLES>
377.64
12.5
2.34
1.02
2.64
0.18
0.06
10.36
-1.58
1.07
-0.36
1.11
-0.19
-0.52

> <PUBCHEM_SHAPE_SELFOVERLAP>
813.237

> <PUBCHEM_SHAPE_VOLUME>
211.8

> <PUBCHEM_COORDINATE_TYPE>
2
5
10

$$$$
