11886657
  -OEChem-12032416373D

 49 52  0     1  0  0  0  0  0999 V2000
    8.1275    1.8380   -0.4657 F   0  0  0  0  0  0  0  0  0  0  0  0
    7.9385   -0.3178   -0.6102 F   0  0  0  0  0  0  0  0  0  0  0  0
    7.0946    0.9512   -2.1614 F   0  0  0  0  0  0  0  0  0  0  0  0
   -1.2731   -0.7270   -0.9752 O   0  0  0  0  0  0  0  0  0  0  0  0
   -2.5262   -3.3307    0.1230 O   0  0  0  0  0  0  0  0  0  0  0  0
    0.8394   -2.1056    0.1679 O   0  0  0  0  0  0  0  0  0  0  0  0
    1.0225   -0.2914    1.5483 O   0  0  0  0  0  0  0  0  0  0  0  0
   -7.7441    2.5555   -0.7207 O   0  0  0  0  0  0  0  0  0  0  0  0
   -4.4479   -0.2363   -0.2632 N   0  0  0  0  0  0  0  0  0  0  0  0
   -3.9358    0.8264    0.3723 N   0  0  0  0  0  0  0  0  0  0  0  0
   -4.9512    1.6309    0.6664 N   0  0  0  0  0  0  0  0  0  0  0  0
    2.7618   -0.9269    0.1161 N   0  0  0  0  0  0  0  0  0  0  0  0
   -2.7756   -1.9373    0.4118 C   0  0  1  0  0  0  0  0  0  0  0  0
   -1.4345   -1.2325    0.3593 C   0  0  1  0  0  0  0  0  0  0  0  0
   -3.5743   -1.3198   -0.7196 C   0  0  2  0  0  0  0  0  0  0  0  0
   -0.4607   -2.3483    0.6552 C   0  0  1  0  0  0  0  0  0  0  0  0
   -2.4905   -0.9112   -1.7121 C   0  0  0  0  0  0  0  0  0  0  0  0
   -1.1135   -3.5281   -0.0264 C   0  0  0  0  0  0  0  0  0  0  0  0
   -5.7958   -0.1497   -0.3965 C   0  0  0  0  0  0  0  0  0  0  0  0
   -6.0975    1.0475    0.2025 C   0  0  0  0  0  0  0  0  0  0  0  0
    1.5114   -1.0224    0.6956 C   0  0  0  0  0  0  0  0  0  0  0  0
   -7.4052    1.6934    0.3730 C   0  0  0  0  0  0  0  0  0  0  0  0
    3.7673    0.0339    0.3689 C   0  0  0  0  0  0  0  0  0  0  0  0
    4.9660   -0.0388   -0.3226 C   0  0  0  0  0  0  0  0  0  0  0  0
    3.5340    1.0310    1.3026 C   0  0  0  0  0  0  0  0  0  0  0  0
    5.9574    0.9103   -0.0736 C   0  0  0  0  0  0  0  0  0  0  0  0
   -9.0102    3.1593   -0.5205 C   0  0  0  0  0  0  0  0  0  0  0  0
    4.5253    1.9801    1.5515 C   0  0  0  0  0  0  0  0  0  0  0  0
    5.7371    1.9197    0.8633 C   0  0  0  0  0  0  0  0  0  0  0  0
    7.2531    0.8466   -0.8098 C   0  0  0  0  0  0  0  0  0  0  0  0
   -3.2543   -1.8887    1.3951 H   0  0  0  0  0  0  0  0  0  0  0  0
   -1.3770   -0.3841    1.0459 H   0  0  0  0  0  0  0  0  0  0  0  0
   -4.2399   -2.0514   -1.1943 H   0  0  0  0  0  0  0  0  0  0  0  0
   -0.4281   -2.5431    1.7357 H   0  0  0  0  0  0  0  0  0  0  0  0
   -2.7227    0.0059   -2.2619 H   0  0  0  0  0  0  0  0  0  0  0  0
   -2.3086   -1.7111   -2.4383 H   0  0  0  0  0  0  0  0  0  0  0  0
   -0.8724   -3.5786   -1.0942 H   0  0  0  0  0  0  0  0  0  0  0  0
   -0.8255   -4.4821    0.4253 H   0  0  0  0  0  0  0  0  0  0  0  0
   -6.3977   -0.9060   -0.8802 H   0  0  0  0  0  0  0  0  0  0  0  0
   -7.3991    2.2826    1.2985 H   0  0  0  0  0  0  0  0  0  0  0  0
   -8.1829    0.9261    0.4737 H   0  0  0  0  0  0  0  0  0  0  0  0
    2.9891   -1.6338   -0.5790 H   0  0  0  0  0  0  0  0  0  0  0  0
    5.1389   -0.8249   -1.0534 H   0  0  0  0  0  0  0  0  0  0  0  0
    2.6237    1.1429    1.8733 H   0  0  0  0  0  0  0  0  0  0  0  0
   -9.2236    3.8051   -1.3765 H   0  0  0  0  0  0  0  0  0  0  0  0
   -9.0061    3.7740    0.3849 H   0  0  0  0  0  0  0  0  0  0  0  0
   -9.7948    2.3991   -0.4559 H   0  0  0  0  0  0  0  0  0  0  0  0
    4.3548    2.7667    2.2809 H   0  0  0  0  0  0  0  0  0  0  0  0
    6.4969    2.6681    1.0709 H   0  0  0  0  0  0  0  0  0  0  0  0
  1 30  1  0  0  0  0
  2 30  1  0  0  0  0
  3 30  1  0  0  0  0
  4 14  1  0  0  0  0
  4 17  1  0  0  0  0
  5 13  1  0  0  0  0
  5 18  1  0  0  0  0
  6 16  1  0  0  0  0
  6 21  1  0  0  0  0
  7 21  2  0  0  0  0
  8 22  1  0  0  0  0
  8 27  1  0  0  0  0
  9 10  1  0  0  0  0
  9 15  1  0  0  0  0
  9 19  1  0  0  0  0
 10 11  2  0  0  0  0
 11 20  1  0  0  0  0
 12 21  1  0  0  0  0
 12 23  1  0  0  0  0
 12 42  1  0  0  0  0
 13 14  1  0  0  0  0
 13 15  1  0  0  0  0
 13 31  1  0  0  0  0
 14 16  1  0  0  0  0
 14 32  1  0  0  0  0
 15 17  1  0  0  0  0
 15 33  1  0  0  0  0
 16 18  1  0  0  0  0
 16 34  1  0  0  0  0
 17 35  1  0  0  0  0
 17 36  1  0  0  0  0
 18 37  1  0  0  0  0
 18 38  1  0  0  0  0
 19 20  2  0  0  0  0
 19 39  1  0  0  0  0
 20 22  1  0  0  0  0
 22 40  1  0  0  0  0
 22 41  1  0  0  0  0
 23 24  1  0  0  0  0
 23 25  2  0  0  0  0
 24 26  2  0  0  0  0
 24 43  1  0  0  0  0
 25 28  1  0  0  0  0
 25 44  1  0  0  0  0
 26 29  1  0  0  0  0
 26 30  1  0  0  0  0
 27 45  1  0  0  0  0
 27 46  1  0  0  0  0
 27 47  1  0  0  0  0
 28 29  2  0  0  0  0
 28 48  1  0  0  0  0
 29 49  1  0  0  0  0
M  END
> <PUBCHEM_COMPOUND_CID>
11886657

> <PUBCHEM_CONFORMER_RMSD>
1

> <PUBCHEM_CONFORMER_DIVERSEORDER>
1
96
179
63
66
109
97
102
133
104
137
144
24
14
167
168
141
72
3
191
127
176
185
155
49
27
142
107
38
87
159
90
35
180
99
10
19
44
157
75
154
11
52
186
86
46
190
166
56
32
125
149
135
54
158
34
12
93
28
68
100
138
128
77
151
18
126
36
130
83
91
13
170
29
31
181
145
21
120
70
8
88
48
57
183
106
74
98
84
124
121
116
187
156
184
164
148
143
39
188
108
175
69
161
122
189
114
152
15
153
80
111
71
112
7
169
43
76
53
140
172
26
118
174
55
67
4
192
101
59
182
60
162
50
45
33
89
16
81
25
129
40
119
5
62
123
23
103
64
117
136
30
78
177
61
37
171
73
113
2
95
79
65
110
147
41
131
6
51
17
22
115
139
9
42
94
146
150
20
132
58
160
85
82
134
105
178
193
92
165
47
163
173

> <PUBCHEM_MMFF94_PARTIAL_CHARGES>
36
1 -0.34
10 -0.42
11 -0.23
12 -0.55
13 0.28
14 0.28
15 0.26
16 0.28
17 0.28
18 0.28
19 -0.3
2 -0.34
20 0.05
21 0.78
22 0.46
23 0.12
24 -0.15
25 -0.15
26 -0.14
27 0.28
28 -0.15
29 -0.15
3 -0.34
30 1.16
39 0.15
4 -0.56
42 0.37
43 0.15
44 0.15
48 0.15
49 0.15
5 -0.56
6 -0.43
7 -0.57
8 -0.56
9 0.31

> <PUBCHEM_EFFECTIVE_ROTOR_COUNT>
9.2

> <PUBCHEM_PHARMACOPHORE_FEATURES>
9
1 12 donor
1 4 acceptor
1 5 acceptor
1 7 acceptor
1 8 acceptor
5 4 13 14 15 17 rings
5 5 13 14 16 18 rings
5 9 10 11 19 20 rings
6 23 24 25 26 28 29 rings

> <PUBCHEM_HEAVY_ATOM_COUNT>
30

> <PUBCHEM_ATOM_DEF_STEREO_COUNT>
4

> <PUBCHEM_ATOM_UDEF_STEREO_COUNT>
0

> <PUBCHEM_BOND_DEF_STEREO_COUNT>
0

> <PUBCHEM_BOND_UDEF_STEREO_COUNT>
0

> <PUBCHEM_ISOTOPIC_ATOM_COUNT>
0

> <PUBCHEM_COMPONENT_COUNT>
1

> <PUBCHEM_CACTVS_TAUTO_COUNT>
2

> <PUBCHEM_CONFORMER_ID>
00B5604100000001

> <PUBCHEM_MMFF94_ENERGY>
70.9516

> <PUBCHEM_FEATURE_SELFOVERLAP>
46.374

> <PUBCHEM_SHAPE_FINGERPRINT>
10 15 16515681143727583335
106641 1 17458068184019174179
10753850 27 9367340449372392449
11211813 128 10737281347599729424
11421887 45 18339345440378825137
1200032 147 18260830367030717082
12218070 45 14274317950548701537
12390115 104 18409166649250327091
12522641 68 18272366461048631663
13248334 5 17977664204705508587
13974486 7 9727334802603350933
14040221 97 17968938566489998053
14359421 15 12679178285399877269
14394314 77 18410013213623123101
14428016 204 18113335289613447237
14565420 104 18114739323002122371
14664723 55 18411709767995196689
14840074 17 17822006523373918909
14931854 50 17775563114036858537
15064981 194 18199199541091842937
15183329 4 17346602962852835770
15198563 99 17912629505256676967
15350500 55 17968089765066967853
15510800 12 9799405672057480541
15575132 122 18187638060330324501
1577012 14 18410004425808019715
15778101 99 18408886264936697131
15890870 6 18410009906360680929
16992779 147 14997431593982243686
17899979 19 18408606934088183801
190975 80 8142086455683106358
2026 5 10087633798459082613
20505436 4 18187079546825224723
20691028 202 18336263530454011101
21033648 29 18128245878461287282
21095123 293 17749395862276846436
21585482 111 18264204708952774661
21623969 137 12613019605651242472
22149856 69 12035719861081908854
23198884 109 18343020029527877454
23389318 12 11599998878257307146
23559900 14 18058167409785635922
23569914 152 17056417496572123836
23729398 52 17980489953662300991
24771293 8 18259984856502396757
270888 7 18411131425337117131
2835820 33 18187088387101698531
3627633 1 17906449188919920243
38570 142 18272371953820516723
392239 28 15285361730228855667
406291 66 9799401227230494109
4098825 35 18131634499450815966
444735 79 10665224856714236504
4461854 278 12324250446890248336
474113 269 17488754364235099062
5104073 3 18041266751482313722
5385378 56 18113613461639286842
54583773 228 18339912759631564397
5718773 13 9727629514657425233
59682541 35 11458430158821340236
59682541 52 16415476030232523501
59755656 520 18335415789978035538
6126387 218 18341606041729168738
6327066 14 18410291394190313711
9689198 14 18261397732584811073
9962374 69 10809928309644733561

> <PUBCHEM_SHAPE_MULTIPOLES>
546.29
25.02
3.34
1.24
0.86
1.06
0.23
-28.14
6.86
-5.08
-0.26
1.39
-0.26
0.52

> <PUBCHEM_SHAPE_SELFOVERLAP>
1180.383

> <PUBCHEM_SHAPE_VOLUME>
301.9

> <PUBCHEM_COORDINATE_TYPE>
2
5
10

$$$$
