11886009
  -OEChem-12032416373D

 35 38  0     1  0  0  0  0  0999 V2000
   -1.6509   -0.0174   -0.2023 S   0  0  0  0  0  0  0  0  0  0  0  0
    3.9286    0.5275   -0.6677 O   0  0  0  0  0  0  0  0  0  0  0  0
    2.3194   -2.0583   -0.1385 O   0  0  0  0  0  0  0  0  0  0  0  0
    5.7597   -1.2377    0.4282 O   0  0  0  0  0  0  0  0  0  0  0  0
   -5.3578    0.0946   -0.6054 O   0  0  0  0  0  0  0  0  0  0  0  0
    0.7549    1.2534   -0.1899 N   0  0  0  0  0  0  0  0  0  0  0  0
    1.3240    2.4219    0.1256 N   0  0  0  0  0  0  0  0  0  0  0  0
   -0.8631    2.4811    0.5543 N   0  0  0  0  0  0  0  0  0  0  0  0
    0.3276    3.1714    0.5812 N   0  0  0  0  0  0  0  0  0  0  0  0
    2.1725   -0.7071    0.3513 C   0  0  1  0  0  0  0  0  0  0  0  0
    3.5717   -0.1566    0.5436 C   0  0  1  0  0  0  0  0  0  0  0  0
    1.5674    0.1627   -0.7336 C   0  0  2  0  0  0  0  0  0  0  0  0
    4.3962   -1.4061    0.7428 C   0  0  1  0  0  0  0  0  0  0  0  0
    2.7892    0.5960   -1.5373 C   0  0  0  0  0  0  0  0  0  0  0  0
    3.7148   -2.3865   -0.1832 C   0  0  0  0  0  0  0  0  0  0  0  0
   -0.5736    1.2944    0.0721 C   0  0  0  0  0  0  0  0  0  0  0  0
   -3.2331    0.6898    0.3460 C   0  0  0  0  0  0  0  0  0  0  0  0
   -4.3523   -0.2999    0.1956 C   0  0  0  0  0  0  0  0  0  0  0  0
   -4.5506   -1.5328    0.7178 C   0  0  0  0  0  0  0  0  0  0  0  0
   -5.7971   -1.9576    0.1994 C   0  0  0  0  0  0  0  0  0  0  0  0
   -6.2475   -0.9327   -0.5999 C   0  0  0  0  0  0  0  0  0  0  0  0
    1.5955   -0.7553    1.2802 H   0  0  0  0  0  0  0  0  0  0  0  0
    3.6596    0.5598    1.3655 H   0  0  0  0  0  0  0  0  0  0  0  0
    0.9069   -0.4014   -1.4016 H   0  0  0  0  0  0  0  0  0  0  0  0
    4.3021   -1.7453    1.7814 H   0  0  0  0  0  0  0  0  0  0  0  0
    2.9754   -0.1080   -2.3564 H   0  0  0  0  0  0  0  0  0  0  0  0
    2.7176    1.5981   -1.9704 H   0  0  0  0  0  0  0  0  0  0  0  0
    4.0678   -2.2993   -1.2170 H   0  0  0  0  0  0  0  0  0  0  0  0
    3.8584   -3.4245    0.1314 H   0  0  0  0  0  0  0  0  0  0  0  0
    6.1861   -2.1089    0.4965 H   0  0  0  0  0  0  0  0  0  0  0  0
   -3.4461    1.5906   -0.2403 H   0  0  0  0  0  0  0  0  0  0  0  0
   -3.1557    0.9809    1.3993 H   0  0  0  0  0  0  0  0  0  0  0  0
   -3.8998   -2.0754    1.3882 H   0  0  0  0  0  0  0  0  0  0  0  0
   -6.3042   -2.8934    0.3852 H   0  0  0  0  0  0  0  0  0  0  0  0
   -7.1333   -0.7870   -1.2006 H   0  0  0  0  0  0  0  0  0  0  0  0
  1 16  1  0  0  0  0
  1 17  1  0  0  0  0
  2 11  1  0  0  0  0
  2 14  1  0  0  0  0
  3 10  1  0  0  0  0
  3 15  1  0  0  0  0
  4 13  1  0  0  0  0
  4 30  1  0  0  0  0
  5 18  1  0  0  0  0
  5 21  1  0  0  0  0
  6  7  1  0  0  0  0
  6 12  1  0  0  0  0
  6 16  1  0  0  0  0
  7  9  2  0  0  0  0
  8  9  1  0  0  0  0
  8 16  2  0  0  0  0
 10 11  1  0  0  0  0
 10 12  1  0  0  0  0
 10 22  1  0  0  0  0
 11 13  1  0  0  0  0
 11 23  1  0  0  0  0
 12 14  1  0  0  0  0
 12 24  1  0  0  0  0
 13 15  1  0  0  0  0
 13 25  1  0  0  0  0
 14 26  1  0  0  0  0
 14 27  1  0  0  0  0
 15 28  1  0  0  0  0
 15 29  1  0  0  0  0
 17 18  1  0  0  0  0
 17 31  1  0  0  0  0
 17 32  1  0  0  0  0
 18 19  2  0  0  0  0
 19 20  1  0  0  0  0
 19 33  1  0  0  0  0
 20 21  2  0  0  0  0
 20 34  1  0  0  0  0
 21 35  1  0  0  0  0
M  END
> <PUBCHEM_COMPOUND_CID>
11886009

> <PUBCHEM_CONFORMER_RMSD>
0.8

> <PUBCHEM_CONFORMER_DIVERSEORDER>
1
91
120
75
114
36
59
101
11
107
111
123
95
39
96
130
61
12
98
92
55
73
110
108
33
57
126
54
20
18
84
13
115
6
117
9
88
109
79
116
119
63
43
3
21
41
49
104
121
32
90
25
78
2
102
132
22
56
47
82
23
89
38
45
50
8
46
44
128
29
42
127
58
40
66
4
64
48
131
81
122
52
71
15
67
105
69
86
72
118
28
125
87
10
35
80
113
112
83
37
76
106
14
65
27
74
129
70
34
51
16
77
97
99
62
5
17
94
31
19
26
24
85
124
100
7
53
68
30
93
60
103

> <PUBCHEM_MMFF94_PARTIAL_CHARGES>
24
1 -0.29
10 0.28
11 0.28
12 0.26
13 0.28
14 0.28
15 0.28
16 0.24
17 0.41
18 -0.04
19 -0.15
2 -0.56
20 -0.15
21 -0.01
3 -0.56
30 0.4
33 0.15
34 0.15
35 0.15
4 -0.68
5 -0.28
6 0.31
7 -0.42
8 -0.34

> <PUBCHEM_EFFECTIVE_ROTOR_COUNT>
5.2

> <PUBCHEM_PHARMACOPHORE_FEATURES>
10
1 2 acceptor
1 3 acceptor
1 4 acceptor
1 4 donor
1 5 acceptor
3 6 8 16 cation
5 2 10 11 12 14 rings
5 3 10 11 13 15 rings
5 5 18 19 20 21 rings
5 6 7 8 9 16 rings

> <PUBCHEM_HEAVY_ATOM_COUNT>
21

> <PUBCHEM_ATOM_DEF_STEREO_COUNT>
4

> <PUBCHEM_ATOM_UDEF_STEREO_COUNT>
0

> <PUBCHEM_BOND_DEF_STEREO_COUNT>
0

> <PUBCHEM_BOND_UDEF_STEREO_COUNT>
0

> <PUBCHEM_ISOTOPIC_ATOM_COUNT>
0

> <PUBCHEM_COMPONENT_COUNT>
1

> <PUBCHEM_CACTVS_TAUTO_COUNT>
1

> <PUBCHEM_CONFORMER_ID>
00B55DB900000001

> <PUBCHEM_MMFF94_ENERGY>
38.756

> <PUBCHEM_FEATURE_SELFOVERLAP>
51.452

> <PUBCHEM_SHAPE_FINGERPRINT>
10447042 23 18408880746008820718
11405975 8 18342182198311431577
11724838 91 11383822793303096545
11796584 16 17821726135377342627
12107183 9 18270692957285383601
12516196 113 18413668015436083563
12553582 1 18272929435900580494
12596602 18 17203610389013184195
12623949 98 17559966428766380966
12892183 10 15841282445526153809
12895836 83 8862644812023294166
13533116 47 18268994357775120963
13544653 18 18335990800330973185
13955234 65 18054229010258403153
14123256 34 18409457976765898419
1420 369 18341052934511493279
14251740 57 18059864926078046238
14251751 18 18113614577955814967
14252887 29 17632024090937598932
14863182 85 18341621395340862382
15183329 4 17386276615828535903
15342816 4 18341344322241088004
15352361 1 18410575072226751963
15927050 60 17694500751711405404
17492 89 18195244408841386522
17857418 61 18411418436542613287
18222031 100 18060707199339812605
18335252 114 8718559280707277475
193927 3 18261685782803335627
20028762 73 18337950100251676170
20261772 1 17988921175867999431
20281475 54 18409174290060241961
20369508 70 18341051925357754501
20567600 70 18408882970633347970
20645477 70 18262235629233237721
20832881 197 18408604773454902609
21033648 29 15410620225168922177
21033650 10 16081358619413699781
21250096 35 18411982455663186587
21267235 1 18411705361595614718
23559900 14 18263357161607006113
2838139 119 9655567496386802050
3004659 81 18040434386608864130
314194 84 18411985792937496459
339767 52 18342170068759427827
3411729 13 17559667541781236096
3421961 26 18340766039433871809
439807 62 18115311206693494123
46194498 28 17386287713691771981
465052 167 18342182201968114903
5104073 3 18130516335744892425
54040823 5 18342182201841267180
59682541 35 18341601647608197642
633830 44 7925625583815481905
7164475 11 18263369092398582532
7495541 125 18336547222129140597
76465 3 18410575085085338521
7970288 3 18411135792776427911
8863177 126 18045230581622188723
960060 61 17894635880854080135
9841814 1 18129952281099061153

> <PUBCHEM_SHAPE_MULTIPOLES>
392.62
13.6
2.68
0.91
13.85
1.12
0.17
-10.17
0.13
-1
-0.52
-0.32
0.06
-0.34

> <PUBCHEM_SHAPE_SELFOVERLAP>
839.214

> <PUBCHEM_SHAPE_VOLUME>
222

> <PUBCHEM_COORDINATE_TYPE>
2
5
10

$$$$
