45784259
  -OEChem-12032416243D

 43 46  0     1  0  0  0  0  0999 V2000
   -7.6300   -3.1045    0.4721 Cl  0  0  0  0  0  0  0  0  0  0  0  0
    7.2568   -0.9796   -0.8776 F   0  0  0  0  0  0  0  0  0  0  0  0
    7.0129   -0.6127    1.2517 F   0  0  0  0  0  0  0  0  0  0  0  0
    6.3048   -2.4710    0.3863 F   0  0  0  0  0  0  0  0  0  0  0  0
   -2.8102    1.5320    0.1623 N   0  0  1  0  0  0  0  0  0  0  0  0
    1.6581    0.1706    1.2301 N   0  0  0  0  0  0  0  0  0  0  0  0
    1.3147    1.2032   -0.7078 N   0  0  0  0  0  0  0  0  0  0  0  0
   -0.6187    1.1806    0.9194 C   0  0  1  0  0  0  0  0  0  0  0  0
   -0.9559    2.6798    0.9972 C   0  0  0  0  0  0  0  0  0  0  0  0
   -1.7034    0.5850    0.0117 C   0  0  0  0  0  0  0  0  0  0  0  0
   -2.1849    2.8536    0.1143 C   0  0  0  0  0  0  0  0  0  0  0  0
    0.7822    0.8686    0.4461 C   0  0  0  0  0  0  0  0  0  0  0  0
   -3.8288    1.3633   -0.8635 C   0  0  0  0  0  0  0  0  0  0  0  0
   -4.7809    0.2457   -0.5297 C   0  0  0  0  0  0  0  0  0  0  0  0
    2.8340    0.0462    0.5357 C   0  0  0  0  0  0  0  0  0  0  0  0
    2.5944    0.6988   -0.6704 C   0  0  0  0  0  0  0  0  0  0  0  0
    4.0496   -0.5625    0.8494 C   0  0  0  0  0  0  0  0  0  0  0  0
    3.6170    0.7576   -1.6323 C   0  0  0  0  0  0  0  0  0  0  0  0
   -4.5069   -1.0540   -0.9558 C   0  0  0  0  0  0  0  0  0  0  0  0
   -5.9364    0.5096    0.2056 C   0  0  0  0  0  0  0  0  0  0  0  0
    5.0562   -0.4945   -0.1194 C   0  0  0  0  0  0  0  0  0  0  0  0
    4.8458    0.1534   -1.3389 C   0  0  0  0  0  0  0  0  0  0  0  0
   -5.3886   -2.0897   -0.6468 C   0  0  0  0  0  0  0  0  0  0  0  0
   -6.8182   -0.5262    0.5147 C   0  0  0  0  0  0  0  0  0  0  0  0
    6.3806   -1.1275    0.1571 C   0  0  0  0  0  0  0  0  0  0  0  0
   -6.5443   -1.8257    0.0885 C   0  0  0  0  0  0  0  0  0  0  0  0
   -0.7457    0.7640    1.9293 H   0  0  0  0  0  0  0  0  0  0  0  0
   -1.1967    2.9453    2.0342 H   0  0  0  0  0  0  0  0  0  0  0  0
   -0.1358    3.3279    0.6704 H   0  0  0  0  0  0  0  0  0  0  0  0
   -1.3585    0.5230   -1.0290 H   0  0  0  0  0  0  0  0  0  0  0  0
   -1.9699   -0.4231    0.3461 H   0  0  0  0  0  0  0  0  0  0  0  0
   -2.8449    3.6387    0.4964 H   0  0  0  0  0  0  0  0  0  0  0  0
   -1.8767    3.1182   -0.9055 H   0  0  0  0  0  0  0  0  0  0  0  0
   -4.4250    2.2830   -0.9479 H   0  0  0  0  0  0  0  0  0  0  0  0
   -3.3969    1.2154   -1.8628 H   0  0  0  0  0  0  0  0  0  0  0  0
    1.4753   -0.1913    2.1567 H   0  0  0  0  0  0  0  0  0  0  0  0
    4.2026   -1.0630    1.7995 H   0  0  0  0  0  0  0  0  0  0  0  0
    3.4630    1.2586   -2.5827 H   0  0  0  0  0  0  0  0  0  0  0  0
   -3.6130   -1.2730   -1.5336 H   0  0  0  0  0  0  0  0  0  0  0  0
   -6.1606    1.5171    0.5459 H   0  0  0  0  0  0  0  0  0  0  0  0
    5.6334    0.2020   -2.0871 H   0  0  0  0  0  0  0  0  0  0  0  0
   -5.1626   -3.0974   -0.9859 H   0  0  0  0  0  0  0  0  0  0  0  0
   -7.7143   -0.3060    1.0892 H   0  0  0  0  0  0  0  0  0  0  0  0
  1 26  1  0  0  0  0
  2 25  1  0  0  0  0
  3 25  1  0  0  0  0
  4 25  1  0  0  0  0
  5 10  1  0  0  0  0
  5 11  1  0  0  0  0
  5 13  1  0  0  0  0
  6 12  1  0  0  0  0
  6 15  1  0  0  0  0
  6 36  1  0  0  0  0
  7 12  2  0  0  0  0
  7 16  1  0  0  0  0
  8  9  1  0  0  0  0
  8 10  1  0  0  0  0
  8 12  1  0  0  0  0
  8 27  1  0  0  0  0
  9 11  1  0  0  0  0
  9 28  1  0  0  0  0
  9 29  1  0  0  0  0
 10 30  1  0  0  0  0
 10 31  1  0  0  0  0
 11 32  1  0  0  0  0
 11 33  1  0  0  0  0
 13 14  1  0  0  0  0
 13 34  1  0  0  0  0
 13 35  1  0  0  0  0
 14 19  2  0  0  0  0
 14 20  1  0  0  0  0
 15 16  2  0  0  0  0
 15 17  1  0  0  0  0
 16 18  1  0  0  0  0
 17 21  2  0  0  0  0
 17 37  1  0  0  0  0
 18 22  2  0  0  0  0
 18 38  1  0  0  0  0
 19 23  1  0  0  0  0
 19 39  1  0  0  0  0
 20 24  2  0  0  0  0
 20 40  1  0  0  0  0
 21 22  1  0  0  0  0
 21 25  1  0  0  0  0
 22 41  1  0  0  0  0
 23 26  2  0  0  0  0
 23 42  1  0  0  0  0
 24 26  1  0  0  0  0
 24 43  1  0  0  0  0
M  END
> <PUBCHEM_COMPOUND_CID>
45784259

> <PUBCHEM_CONFORMER_RMSD>
0.8

> <PUBCHEM_CONFORMER_DIVERSEORDER>
2
32
40
53
52
16
42
10
31
17
38
34
23
50
24
13
49
30
37
36
56
3
15
43
5
28
25
54
41
9
55
22
33
27
8
35
14
4
51
21
48
7
45
46
11
44
12
1
6
29
39
20
18
19
26
47

> <PUBCHEM_MMFF94_PARTIAL_CHARGES>
33
1 -0.18
10 0.27
11 0.27
12 0.01
13 0.41
14 -0.14
15 -0.15
16 0.23
17 -0.15
18 -0.15
19 -0.15
2 -0.34
20 -0.15
21 -0.14
22 -0.15
23 -0.15
24 -0.15
25 1.16
26 0.18
3 -0.34
36 0.27
37 0.15
38 0.15
39 0.15
4 -0.34
40 0.15
41 0.15
42 0.15
43 0.15
5 -0.81
6 0.03
7 -0.57
8 0.18

> <PUBCHEM_EFFECTIVE_ROTOR_COUNT>
5

> <PUBCHEM_PHARMACOPHORE_FEATURES>
7
1 5 cation
1 6 donor
3 6 7 12 cation
5 5 8 9 10 11 rings
5 6 7 12 15 16 rings
6 14 19 20 23 24 26 rings
6 15 16 17 18 21 22 rings

> <PUBCHEM_HEAVY_ATOM_COUNT>
26

> <PUBCHEM_ATOM_DEF_STEREO_COUNT>
1

> <PUBCHEM_ATOM_UDEF_STEREO_COUNT>
0

> <PUBCHEM_BOND_DEF_STEREO_COUNT>
0

> <PUBCHEM_BOND_UDEF_STEREO_COUNT>
0

> <PUBCHEM_ISOTOPIC_ATOM_COUNT>
0

> <PUBCHEM_COMPONENT_COUNT>
1

> <PUBCHEM_CACTVS_TAUTO_COUNT>
2

> <PUBCHEM_CONFORMER_ID>
02BA9CC300000002

> <PUBCHEM_MMFF94_ENERGY>
48.4836

> <PUBCHEM_FEATURE_SELFOVERLAP>
35.63

> <PUBCHEM_SHAPE_FINGERPRINT>
10299344 5 18260552234292747467
10554248 39 15213585534180396442
10622 236 17751901550238917203
10670039 82 13334726904055113438
10674148 151 18260827095236419177
10693767 8 17604984824554244210
11135609 99 18409447016568385558
11524674 6 16917347044033316959
117089 54 17972043797896448083
11991303 11 14779560014363018523
12035758 1 16917347047679138318
12166972 35 18041000652372354364
12236239 1 18260269620527620604
12643181 29 18411975841999139245
12760667 363 18410295822206592171
12895837 130 7997697481123517107
1361 4 18262804080702765735
13668630 136 18334013865623875686
13673619 4 18201719583193605297
13685833 64 18202282510991350696
13690498 29 18113892780884845053
13782708 43 18060131008165617930
14068700 675 18409169917520070045
14123256 34 18341614841162258667
14178184 131 18130223891238130575
14211702 104 18270967834554225214
14251764 30 18338517547309214311
14347332 77 18334857182194047397
14420673 8 18412546548822038419
14765038 42 14405181781236214516
14931854 50 17749378305041162659
15003188 100 15502383360719990612
15183329 4 16877657967761400059
15348495 7 16343415219812898771
15461852 350 18408889504312209412
16120349 189 9583249318883882115
16994733 274 9582931573046260374
17686467 74 18343575240878991016
17780758 139 17632296770707556281
18335252 98 18340768247310624080
18681886 176 18333726931896751664
190975 80 17346026874430893044
20028762 73 18333731282862496938
20567600 254 11530474549997911769
21054139 6 18186517679234573490
21150785 3 18113623383129193764
21267235 1 18409731781489544633
21298829 104 8862401829361778303
21315763 191 18412549812585577413
21344244 246 18115593801986938132
21521239 73 17603303765188946570
21585483 132 17751067013046817546
21623969 137 16630527319387095092
22950370 63 18410858802525698421
23035841 295 18411702084725160009
23522609 53 18121815861195524909
23559900 14 18340476854796036857
23569917 315 18261394391597348834
23569943 247 17758677742598243938
2748736 6 8934730976653381299
2838139 119 8718819886743682819
3004659 81 18186516622413876259
3178227 256 16056874724851568218
3418910 222 18131635599912523480
34797466 226 17632863036592468788
351380 3 18409165532901000167
393628 194 9223240650497830659
4107672 100 17822002083427456517
439807 62 18334296492063349663
465052 167 18201161030700970293
5104073 3 15697138790349050799
5283156 175 18334014960787801397
54039377 194 18410015454936136255
5470011 282 17531532095988414647
5718773 13 18410009944529804147
59682541 52 14996550781546015928
6009941 240 17203055071807309985
6327066 14 8862951567762811891
636775 8 18342184354000035382
6700243 42 18055663653467469228
7495541 125 17846212272186669584
7970288 3 18411697716749240471
8863177 126 18195247948210592547
999808 66 17989204832777481223

> <PUBCHEM_SHAPE_MULTIPOLES>
500.17
21.87
2.65
1.17
0.93
0.14
0.14
19.82
-0.06
-3.57
-0.43
0.97
-0.11
-0.42

> <PUBCHEM_SHAPE_SELFOVERLAP>
1089.555

> <PUBCHEM_SHAPE_VOLUME>
276.5

> <PUBCHEM_COORDINATE_TYPE>
2
5
10

$$$$
