11912995
  -OEChem-12032416123D

 59 64  0     1  0  0  0  0  0999 V2000
    2.1312    0.8216    1.7718 O   0  0  0  0  0  0  0  0  0  0  0  0
    4.4424   -1.2656    1.9675 O   0  0  0  0  0  0  0  0  0  0  0  0
    6.8723    1.7158   -0.1183 O   0  0  0  0  0  0  0  0  0  0  0  0
    4.5804    1.9481    0.2251 N   0  0  0  0  0  0  0  0  0  0  0  0
    2.0499   -2.6146    0.5413 N   0  0  0  0  0  0  0  0  0  0  0  0
   -0.1460   -2.0294   -0.0434 N   0  0  0  0  0  0  0  0  0  0  0  0
    0.9961   -3.8289   -1.1680 N   0  0  0  0  0  0  0  0  0  0  0  0
    4.0553   -0.3170    0.9595 C   0  0  1  0  0  0  0  0  0  0  0  0
    2.5398   -0.2753    0.9374 C   0  0  1  0  0  0  0  0  0  0  0  0
    4.4558    1.0811    1.3717 C   0  0  2  0  0  0  0  0  0  0  0  0
    2.1249   -1.5884    1.5580 C   0  0  2  0  0  0  0  0  0  0  0  0
    5.6765    3.1158   -1.5824 C   0  0  0  0  0  0  0  0  0  0  0  0
    3.2972    1.5031    2.2574 C   0  0  0  0  0  0  0  0  0  0  0  0
    3.2664   -1.8798    2.5149 C   0  0  0  0  0  0  0  0  0  0  0  0
    4.7064    2.7872   -2.6649 C   0  0  0  0  0  0  0  0  0  0  0  0
    6.1815    2.6534   -2.9061 C   0  0  0  0  0  0  0  0  0  0  0  0
    5.7819    2.1875   -0.4182 C   0  0  0  0  0  0  0  0  0  0  0  0
    0.9334   -2.8307   -0.2470 C   0  0  0  0  0  0  0  0  0  0  0  0
   -1.2168   -2.2679   -0.8289 C   0  0  0  0  0  0  0  0  0  0  0  0
   -0.1097   -4.0122   -1.9189 C   0  0  0  0  0  0  0  0  0  0  0  0
   -1.2562   -3.2547   -1.7927 C   0  0  0  0  0  0  0  0  0  0  0  0
   -2.3509   -1.4057   -0.5973 C   0  0  0  0  0  0  0  0  0  0  0  0
   -3.6465   -1.8736   -0.8282 C   0  0  0  0  0  0  0  0  0  0  0  0
   -2.1566   -0.0999   -0.1415 C   0  0  0  0  0  0  0  0  0  0  0  0
   -4.7422   -1.0398   -0.6047 C   0  0  0  0  0  0  0  0  0  0  0  0
   -3.2525    0.7339    0.0821 C   0  0  0  0  0  0  0  0  0  0  0  0
   -4.5451    0.2638   -0.1496 C   0  0  0  0  0  0  0  0  0  0  0  0
   -5.6819    1.1285    0.0815 C   0  0  0  0  0  0  0  0  0  0  0  0
   -6.1663    1.9340   -0.9492 C   0  0  0  0  0  0  0  0  0  0  0  0
   -6.2939    1.1566    1.3347 C   0  0  0  0  0  0  0  0  0  0  0  0
   -7.2624    2.7676   -0.7268 C   0  0  0  0  0  0  0  0  0  0  0  0
   -7.3901    1.9901    1.5571 C   0  0  0  0  0  0  0  0  0  0  0  0
   -7.8743    2.7955    0.5263 C   0  0  0  0  0  0  0  0  0  0  0  0
    4.4885   -0.6507    0.0110 H   0  0  0  0  0  0  0  0  0  0  0  0
    2.1354   -0.0896   -0.0628 H   0  0  0  0  0  0  0  0  0  0  0  0
    5.3974    1.1043    1.9311 H   0  0  0  0  0  0  0  0  0  0  0  0
    1.1875   -1.5330    2.1234 H   0  0  0  0  0  0  0  0  0  0  0  0
    5.8269    4.1635   -1.3440 H   0  0  0  0  0  0  0  0  0  0  0  0
    3.4562    1.1775    3.2913 H   0  0  0  0  0  0  0  0  0  0  0  0
    3.1123    2.5817    2.2608 H   0  0  0  0  0  0  0  0  0  0  0  0
    3.0851   -1.4171    3.4914 H   0  0  0  0  0  0  0  0  0  0  0  0
    3.4547   -2.9465    2.6715 H   0  0  0  0  0  0  0  0  0  0  0  0
    4.1894    3.6085   -3.1463 H   0  0  0  0  0  0  0  0  0  0  0  0
    4.1286    1.8727   -2.6064 H   0  0  0  0  0  0  0  0  0  0  0  0
    6.5860    1.6525   -2.9949 H   0  0  0  0  0  0  0  0  0  0  0  0
    6.6544    3.3839   -3.5512 H   0  0  0  0  0  0  0  0  0  0  0  0
    3.7348    2.3761   -0.1414 H   0  0  0  0  0  0  0  0  0  0  0  0
    2.8663   -3.1826    0.3455 H   0  0  0  0  0  0  0  0  0  0  0  0
   -0.0440   -4.8076   -2.6536 H   0  0  0  0  0  0  0  0  0  0  0  0
   -2.0997   -3.4406   -2.4450 H   0  0  0  0  0  0  0  0  0  0  0  0
   -3.8472   -2.8893   -1.1585 H   0  0  0  0  0  0  0  0  0  0  0  0
   -1.1620    0.3014    0.0390 H   0  0  0  0  0  0  0  0  0  0  0  0
   -5.7437   -1.4233   -0.7850 H   0  0  0  0  0  0  0  0  0  0  0  0
   -3.0814    1.7483    0.4348 H   0  0  0  0  0  0  0  0  0  0  0  0
   -5.7011    1.9244   -1.9322 H   0  0  0  0  0  0  0  0  0  0  0  0
   -5.9292    0.5351    2.1493 H   0  0  0  0  0  0  0  0  0  0  0  0
   -7.6396    3.3948   -1.5293 H   0  0  0  0  0  0  0  0  0  0  0  0
   -7.8666    2.0120    2.5327 H   0  0  0  0  0  0  0  0  0  0  0  0
   -8.7278    3.4445    0.6995 H   0  0  0  0  0  0  0  0  0  0  0  0
  1  9  1  0  0  0  0
  1 13  1  0  0  0  0
  2  8  1  0  0  0  0
  2 14  1  0  0  0  0
  3 17  2  0  0  0  0
  4 10  1  0  0  0  0
  4 17  1  0  0  0  0
  4 47  1  0  0  0  0
  5 11  1  0  0  0  0
  5 18  1  0  0  0  0
  5 48  1  0  0  0  0
  6 18  1  0  0  0  0
  6 19  2  0  0  0  0
  7 18  2  0  0  0  0
  7 20  1  0  0  0  0
  8  9  1  0  0  0  0
  8 10  1  0  0  0  0
  8 34  1  0  0  0  0
  9 11  1  0  0  0  0
  9 35  1  0  0  0  0
 10 13  1  0  0  0  0
 10 36  1  0  0  0  0
 11 14  1  0  0  0  0
 11 37  1  0  0  0  0
 12 15  1  0  0  0  0
 12 16  1  0  0  0  0
 12 17  1  0  0  0  0
 12 38  1  0  0  0  0
 13 39  1  0  0  0  0
 13 40  1  0  0  0  0
 14 41  1  0  0  0  0
 14 42  1  0  0  0  0
 15 16  1  0  0  0  0
 15 43  1  0  0  0  0
 15 44  1  0  0  0  0
 16 45  1  0  0  0  0
 16 46  1  0  0  0  0
 19 21  1  0  0  0  0
 19 22  1  0  0  0  0
 20 21  2  0  0  0  0
 20 49  1  0  0  0  0
 21 50  1  0  0  0  0
 22 23  2  0  0  0  0
 22 24  1  0  0  0  0
 23 25  1  0  0  0  0
 23 51  1  0  0  0  0
 24 26  2  0  0  0  0
 24 52  1  0  0  0  0
 25 27  2  0  0  0  0
 25 53  1  0  0  0  0
 26 27  1  0  0  0  0
 26 54  1  0  0  0  0
 27 28  1  0  0  0  0
 28 29  2  0  0  0  0
 28 30  1  0  0  0  0
 29 31  1  0  0  0  0
 29 55  1  0  0  0  0
 30 32  2  0  0  0  0
 30 56  1  0  0  0  0
 31 33  2  0  0  0  0
 31 57  1  0  0  0  0
 32 33  1  0  0  0  0
 32 58  1  0  0  0  0
 33 59  1  0  0  0  0
M  END
> <PUBCHEM_COMPOUND_CID>
11912995

> <PUBCHEM_CONFORMER_RMSD>
1

> <PUBCHEM_CONFORMER_DIVERSEORDER>
1
115
61
12
82
89
34
28
90
80
93
111
29
41
76
32
20
67
7
57
109
2
72
14
108
118
78
107
9
19
96
15
99
64
94
60
51
33
24
43
95
25
123
6
92
11
46
113
69
119
98
68
49
101
88
79
3
106
112
45
65
31
63
117
52
27
100
70
120
83
40
86
17
71
58
5
121
102
8
110
22
16
105
47
38
13
26
39
116
66
55
56
37
103
91
87
81
35
50
30
53
114
42
62
23
10
122
54
75
104
18
97
59
74
44
85
36
77
48
4
84
73
21

> <PUBCHEM_MMFF94_PARTIAL_CHARGES>
48
1 -0.56
10 0.3
11 0.37
12 -0.1
13 0.28
14 0.28
15 -0.2
16 -0.2
17 0.63
18 0.72
19 0.31
2 -0.56
20 0.16
21 -0.15
23 -0.15
24 -0.15
25 -0.15
26 -0.15
29 -0.15
3 -0.57
30 -0.15
31 -0.15
32 -0.15
33 -0.15
38 0.1
4 -0.73
43 0.1
44 0.1
45 0.1
46 0.1
47 0.37
48 0.4
49 0.15
5 -0.87
50 0.15
51 0.15
52 0.15
53 0.15
54 0.15
55 0.15
56 0.15
57 0.15
58 0.15
59 0.15
6 -0.62
7 -0.62
8 0.28
9 0.28

> <PUBCHEM_EFFECTIVE_ROTOR_COUNT>
8.8

> <PUBCHEM_PHARMACOPHORE_FEATURES>
12
1 1 acceptor
1 2 acceptor
1 3 acceptor
1 4 donor
1 5 donor
1 6 acceptor
4 5 6 7 18 cation
5 1 8 9 10 13 rings
5 2 8 9 11 14 rings
6 22 23 24 25 26 27 rings
6 28 29 30 31 32 33 rings
6 6 7 18 19 20 21 rings

> <PUBCHEM_HEAVY_ATOM_COUNT>
33

> <PUBCHEM_ATOM_DEF_STEREO_COUNT>
4

> <PUBCHEM_ATOM_UDEF_STEREO_COUNT>
0

> <PUBCHEM_BOND_DEF_STEREO_COUNT>
0

> <PUBCHEM_BOND_UDEF_STEREO_COUNT>
0

> <PUBCHEM_ISOTOPIC_ATOM_COUNT>
0

> <PUBCHEM_COMPONENT_COUNT>
1

> <PUBCHEM_CACTVS_TAUTO_COUNT>
6

> <PUBCHEM_CONFORMER_ID>
00B5C72300000001

> <PUBCHEM_MMFF94_ENERGY>
103.5593

> <PUBCHEM_FEATURE_SELFOVERLAP>
61.604

> <PUBCHEM_SHAPE_FINGERPRINT>
10258705 36 11820922573044028552
10816530 90 18341897334194236446
11374522 72 18260265214582466765
11399939 17 17693669112504203848
11505856 67 18047474709949212287
1200032 147 18410022030562292810
12061779 8 17823989033577075036
12104220 4 18041853921146363156
12342043 65 14491855076236856258
12422481 6 18114733833906966541
12741549 16 17686909310995860022
12758862 65 11386373647036608812
12975358 362 18265624178527647337
13383665 225 18342747355857262727
13944108 23 18127976295405259961
14040221 8 13110134011537855401
14114211 68 18059587857969506155
14294032 229 18059573659372589319
14340393 91 14404362555000819633
14747282 540 18341044113034536140
14840074 17 17677327346141891724
15145343 54 18267858570690643125
15160629 57 18113626698749969077
15198563 99 17555154107048328687
15357212 105 18260557752946336934
16992727 255 18340769347086327416
1768 23 18113901619458184444
19304671 126 16773791523849298409
19309040 13 18041005097968901578
21344244 78 13840274675848353055
24771750 20 18059863818198244639
3552219 110 17608927921927424887
38570 142 17896043299288849014
397830 11 17458351832133298841
3986486 107 17203342099676047756
4058900 60 18342178839040702075
4258327 124 18410852167048775933
42767 23 12391522953227968112
437795 139 10879724155980692486
437795 70 16128390250175960617
45266715 3 11743542294316676502
5223283 242 13110966444439560883
57724786 102 18187075161895223098
6058803 2 18121752132428667034
6609424 69 17752198397119254286

> <PUBCHEM_SHAPE_MULTIPOLES>
641.59
20.65
5.02
2.43
18.55
2.37
-0.19
-29.09
-0.38
-1.86
-3.25
-4.22
-0.48
-5.07

> <PUBCHEM_SHAPE_SELFOVERLAP>
1416.028

> <PUBCHEM_SHAPE_VOLUME>
344.4

> <PUBCHEM_COORDINATE_TYPE>
2
5
10

$$$$
