23757127
  -OEChem-12032416133D

 78 81  0     1  0  0  0  0  0999 V2000
    2.5018    1.9557    0.2574 O   0  0  0  0  0  0  0  0  0  0  0  0
   -2.6425    1.1288   -2.8788 O   0  0  0  0  0  0  0  0  0  0  0  0
    2.0586    4.8046   -0.0066 O   0  0  0  0  0  0  0  0  0  0  0  0
   -3.9503   -1.8180   -2.3331 O   0  0  0  0  0  0  0  0  0  0  0  0
    3.8602    1.1290    1.9010 O   0  0  0  0  0  0  0  0  0  0  0  0
    8.0595   -3.3842   -0.1790 O   0  0  0  0  0  0  0  0  0  0  0  0
   -3.5490   -2.5612   -0.1679 N   0  0  0  0  0  0  0  0  0  0  0  0
    3.9992    0.3910   -0.3164 N   0  0  0  0  0  0  0  0  0  0  0  0
   -0.6174    0.9528   -0.4433 C   0  0  2  0  0  0  0  0  0  0  0  0
   -0.9016    2.3924    0.1178 C   0  0  1  0  0  0  0  0  0  0  0  0
    0.3699    3.2168    0.5748 C   0  0  1  0  0  0  0  0  0  0  0  0
   -2.0076    0.2260   -0.6699 C   0  0  1  0  0  0  0  0  0  0  0  0
    0.2058    0.1429    0.6119 C   0  0  0  0  0  0  0  0  0  0  0  0
   -1.8631    3.1866   -0.7919 C   0  0  0  0  0  0  0  0  0  0  0  0
    1.4684    2.2851    1.1820 C   0  0  1  0  0  0  0  0  0  0  0  0
   -3.0188    1.0429   -1.5086 C   0  0  1  0  0  0  0  0  0  0  0  0
    0.8816    0.9792    1.7031 C   0  0  0  0  0  0  0  0  0  0  0  0
   -3.1934    2.4584   -0.9698 C   0  0  0  0  0  0  0  0  0  0  0  0
    0.1888    0.9887   -1.7643 C   0  0  0  0  0  0  0  0  0  0  0  0
    0.9452    4.1201   -0.5370 C   0  0  0  0  0  0  0  0  0  0  0  0
   -0.0843    4.1749    1.7152 C   0  0  0  0  0  0  0  0  0  0  0  0
   -1.8903   -1.2057   -1.2213 C   0  0  0  0  0  0  0  0  0  0  0  0
   -3.2376   -1.8789   -1.3349 C   0  0  0  0  0  0  0  0  0  0  0  0
    3.5026    1.1446    0.7295 C   0  0  0  0  0  0  0  0  0  0  0  0
   -4.7792   -3.2977    0.0118 C   0  0  0  0  0  0  0  0  0  0  0  0
    5.0337   -0.5716   -0.2812 C   0  0  0  0  0  0  0  0  0  0  0  0
   -5.8686   -2.4398    0.5877 C   0  0  0  0  0  0  0  0  0  0  0  0
    5.6707   -0.8405    0.9199 C   0  0  0  0  0  0  0  0  0  0  0  0
    5.3908   -1.2274   -1.4484 C   0  0  0  0  0  0  0  0  0  0  0  0
   -6.0206   -2.3550    1.9667 C   0  0  0  0  0  0  0  0  0  0  0  0
   -6.7146   -1.7391   -0.2638 C   0  0  0  0  0  0  0  0  0  0  0  0
    6.6917   -1.7902    0.9544 C   0  0  0  0  0  0  0  0  0  0  0  0
    6.4119   -2.1772   -1.4138 C   0  0  0  0  0  0  0  0  0  0  0  0
   -7.0329   -1.5583    2.5019 C   0  0  0  0  0  0  0  0  0  0  0  0
   -7.7269   -0.9422    0.2712 C   0  0  0  0  0  0  0  0  0  0  0  0
    7.0623   -2.4586   -0.2124 C   0  0  0  0  0  0  0  0  0  0  0  0
   -7.8860   -0.8520    1.6540 C   0  0  0  0  0  0  0  0  0  0  0  0
    8.6820   -3.6229    1.0825 C   0  0  0  0  0  0  0  0  0  0  0  0
   -1.4789    2.2159    1.0405 H   0  0  0  0  0  0  0  0  0  0  0  0
   -2.4700    0.1377    0.3262 H   0  0  0  0  0  0  0  0  0  0  0  0
   -0.4390   -0.5746    1.1351 H   0  0  0  0  0  0  0  0  0  0  0  0
    0.9640   -0.4692    0.1069 H   0  0  0  0  0  0  0  0  0  0  0  0
   -2.0768    4.1687   -0.3562 H   0  0  0  0  0  0  0  0  0  0  0  0
   -1.4138    3.3725   -1.7731 H   0  0  0  0  0  0  0  0  0  0  0  0
    1.9510    2.8100    2.0174 H   0  0  0  0  0  0  0  0  0  0  0  0
   -4.0057    0.5689   -1.4779 H   0  0  0  0  0  0  0  0  0  0  0  0
    0.1349    1.2144    2.4732 H   0  0  0  0  0  0  0  0  0  0  0  0
    1.6135    0.3460    2.2140 H   0  0  0  0  0  0  0  0  0  0  0  0
   -3.8260    3.0467   -1.6454 H   0  0  0  0  0  0  0  0  0  0  0  0
   -3.7087    2.4162   -0.0020 H   0  0  0  0  0  0  0  0  0  0  0  0
    0.3351   -0.0141   -2.1775 H   0  0  0  0  0  0  0  0  0  0  0  0
   -0.2863    1.5967   -2.5362 H   0  0  0  0  0  0  0  0  0  0  0  0
    1.1919    1.3903   -1.6286 H   0  0  0  0  0  0  0  0  0  0  0  0
    0.2204    4.8713   -0.8668 H   0  0  0  0  0  0  0  0  0  0  0  0
    1.2685    3.5545   -1.4130 H   0  0  0  0  0  0  0  0  0  0  0  0
    0.7514    4.7519    2.1277 H   0  0  0  0  0  0  0  0  0  0  0  0
   -0.8315    4.8954    1.3669 H   0  0  0  0  0  0  0  0  0  0  0  0
   -0.5270    3.6182    2.5491 H   0  0  0  0  0  0  0  0  0  0  0  0
   -1.4624   -1.2095   -2.2301 H   0  0  0  0  0  0  0  0  0  0  0  0
   -1.2255   -1.8208   -0.6057 H   0  0  0  0  0  0  0  0  0  0  0  0
   -3.3435    1.6101   -3.3503 H   0  0  0  0  0  0  0  0  0  0  0  0
    2.4115    5.3731   -0.7120 H   0  0  0  0  0  0  0  0  0  0  0  0
   -2.9056   -2.5271    0.6176 H   0  0  0  0  0  0  0  0  0  0  0  0
    3.5684    0.5454   -1.2247 H   0  0  0  0  0  0  0  0  0  0  0  0
   -4.5629   -4.1432    0.6747 H   0  0  0  0  0  0  0  0  0  0  0  0
   -5.0940   -3.7209   -0.9495 H   0  0  0  0  0  0  0  0  0  0  0  0
    5.4386   -0.3643    1.8615 H   0  0  0  0  0  0  0  0  0  0  0  0
    4.8906   -1.0158   -2.3895 H   0  0  0  0  0  0  0  0  0  0  0  0
   -5.3604   -2.8993    2.6364 H   0  0  0  0  0  0  0  0  0  0  0  0
   -6.6034   -1.8027   -1.3425 H   0  0  0  0  0  0  0  0  0  0  0  0
    7.1557   -1.9607    1.9201 H   0  0  0  0  0  0  0  0  0  0  0  0
    6.6964   -2.6945   -2.3260 H   0  0  0  0  0  0  0  0  0  0  0  0
   -7.1564   -1.4874    3.5785 H   0  0  0  0  0  0  0  0  0  0  0  0
   -8.3915   -0.3924   -0.3889 H   0  0  0  0  0  0  0  0  0  0  0  0
   -8.6741   -0.2316    2.0705 H   0  0  0  0  0  0  0  0  0  0  0  0
    7.9721   -4.0292    1.8111 H   0  0  0  0  0  0  0  0  0  0  0  0
    9.4501   -4.3870    0.9244 H   0  0  0  0  0  0  0  0  0  0  0  0
    9.1929   -2.7284    1.4548 H   0  0  0  0  0  0  0  0  0  0  0  0
  1 15  1  0  0  0  0
  1 24  1  0  0  0  0
  2 16  1  0  0  0  0
  2 61  1  0  0  0  0
  3 20  1  0  0  0  0
  3 62  1  0  0  0  0
  4 23  2  0  0  0  0
  5 24  2  0  0  0  0
  6 36  1  0  0  0  0
  6 38  1  0  0  0  0
  7 23  1  0  0  0  0
  7 25  1  0  0  0  0
  7 63  1  0  0  0  0
  8 24  1  0  0  0  0
  8 26  1  0  0  0  0
  8 64  1  0  0  0  0
  9 10  1  0  0  0  0
  9 12  1  0  0  0  0
  9 13  1  0  0  0  0
  9 19  1  0  0  0  0
 10 11  1  0  0  0  0
 10 14  1  0  0  0  0
 10 39  1  0  0  0  0
 11 15  1  0  0  0  0
 11 20  1  0  0  0  0
 11 21  1  0  0  0  0
 12 16  1  0  0  0  0
 12 22  1  0  0  0  0
 12 40  1  0  0  0  0
 13 17  1  0  0  0  0
 13 41  1  0  0  0  0
 13 42  1  0  0  0  0
 14 18  1  0  0  0  0
 14 43  1  0  0  0  0
 14 44  1  0  0  0  0
 15 17  1  0  0  0  0
 15 45  1  0  0  0  0
 16 18  1  0  0  0  0
 16 46  1  0  0  0  0
 17 47  1  0  0  0  0
 17 48  1  0  0  0  0
 18 49  1  0  0  0  0
 18 50  1  0  0  0  0
 19 51  1  0  0  0  0
 19 52  1  0  0  0  0
 19 53  1  0  0  0  0
 20 54  1  0  0  0  0
 20 55  1  0  0  0  0
 21 56  1  0  0  0  0
 21 57  1  0  0  0  0
 21 58  1  0  0  0  0
 22 23  1  0  0  0  0
 22 59  1  0  0  0  0
 22 60  1  0  0  0  0
 25 27  1  0  0  0  0
 25 65  1  0  0  0  0
 25 66  1  0  0  0  0
 26 28  2  0  0  0  0
 26 29  1  0  0  0  0
 27 30  2  0  0  0  0
 27 31  1  0  0  0  0
 28 32  1  0  0  0  0
 28 67  1  0  0  0  0
 29 33  2  0  0  0  0
 29 68  1  0  0  0  0
 30 34  1  0  0  0  0
 30 69  1  0  0  0  0
 31 35  2  0  0  0  0
 31 70  1  0  0  0  0
 32 36  2  0  0  0  0
 32 71  1  0  0  0  0
 33 36  1  0  0  0  0
 33 72  1  0  0  0  0
 34 37  2  0  0  0  0
 34 73  1  0  0  0  0
 35 37  1  0  0  0  0
 35 74  1  0  0  0  0
 37 75  1  0  0  0  0
 38 76  1  0  0  0  0
 38 77  1  0  0  0  0
 38 78  1  0  0  0  0
M  END
> <PUBCHEM_COMPOUND_CID>
23757127

> <PUBCHEM_CONFORMER_RMSD>
1.2

> <PUBCHEM_CONFORMER_DIVERSEORDER>
1
89
90
93
16
63
80
62
29
81
30
56
85
25
87
27
8
7
22
70
59
24
32
54
71
68
13
23
83
88
58
11
82
79
57
28
46
91
31
76
9
61
55
72
19
96
26
15
60
67
78
14
74
92
86
18
12
65
5
64
73
37
35
20
69
17
21
45
51
77
41
36
75
95
84
6
3
10
42
66
48
2
53
39
94
52
33
4
50
34
49
47
38
44
40
43

> <PUBCHEM_MMFF94_PARTIAL_CHARGES>
41
1 -0.43
15 0.28
16 0.28
2 -0.68
20 0.28
22 0.06
23 0.57
24 0.78
25 0.44
26 0.12
27 -0.14
28 -0.15
29 -0.15
3 -0.68
30 -0.15
31 -0.15
32 -0.15
33 -0.15
34 -0.15
35 -0.15
36 0.08
37 -0.15
38 0.28
4 -0.57
5 -0.57
6 -0.36
61 0.4
62 0.4
63 0.37
64 0.37
67 0.15
68 0.15
69 0.15
7 -0.73
70 0.15
71 0.15
72 0.15
73 0.15
74 0.15
75 0.15
8 -0.55

> <PUBCHEM_EFFECTIVE_ROTOR_COUNT>
12.6

> <PUBCHEM_PHARMACOPHORE_FEATURES>
13
1 2 acceptor
1 2 donor
1 3 acceptor
1 3 donor
1 4 acceptor
1 5 acceptor
1 6 acceptor
1 7 donor
1 8 donor
6 26 28 29 32 33 36 rings
6 27 30 31 34 35 37 rings
6 9 10 11 13 15 17 rings
6 9 10 12 14 16 18 rings

> <PUBCHEM_HEAVY_ATOM_COUNT>
38

> <PUBCHEM_ATOM_DEF_STEREO_COUNT>
5

> <PUBCHEM_ATOM_UDEF_STEREO_COUNT>
1

> <PUBCHEM_BOND_DEF_STEREO_COUNT>
0

> <PUBCHEM_BOND_UDEF_STEREO_COUNT>
0

> <PUBCHEM_ISOTOPIC_ATOM_COUNT>
0

> <PUBCHEM_COMPONENT_COUNT>
1

> <PUBCHEM_CACTVS_TAUTO_COUNT>
4

> <PUBCHEM_CONFORMER_ID>
016A814700000001

> <PUBCHEM_MMFF94_ENERGY>
144.4367

> <PUBCHEM_FEATURE_SELFOVERLAP>
65.99

> <PUBCHEM_SHAPE_FINGERPRINT>
10190108 129 17967821548527173419
10533779 47 18119258496677319723
10677351 27 17988657246729225710
10764073 3 18272098223302856853
11135609 12 18340199795024334608
11387372 6 18335423474291466339
117089 54 18409452466523350378
12107183 9 18059020604812301411
12422481 6 18270966873008525677
13165053 103 17825104810314579498
13673619 4 18260547844435127527
13690498 29 18187078442822586479
13782708 43 18260544571770385147
14347424 109 17703509986484960258
14675019 173 18186803608620241741
14955137 171 18412828014523103321
15082195 135 11098113592302080785
15320295 40 15698283292476756075
15510800 12 18130788902854371118
15669420 48 17749677402273587084
15684393 108 18186809084772233110
15728490 83 18339643330798889458
17686467 74 18340756071932667968
19246450 95 17845942832035045099
19303781 99 18337939118425949726
21033648 29 10375866403355020496
2260408 40 17986384705748542640
23569943 247 18059274527495175159
24180151 248 17823417269775885989
3117164 225 18056201504364532867
32027 91 18339075025110602663
4144715 1 17973730474423651683
439807 62 18334014982484625806
44880168 125 18340198696103797263
4756326 101 13614243616935784755
513202 73 18409168822845961843
563151 40 17749949934912070225
57527585 21 14563080365325753300
9896288 288 18126288532704887929

> <PUBCHEM_SHAPE_MULTIPOLES>
736.84
22.05
5.57
2.07
11.56
3.93
-0.13
-34.94
7.25
3.04
0.86
-1.96
-0.13
1.8

> <PUBCHEM_SHAPE_SELFOVERLAP>
1559.97

> <PUBCHEM_SHAPE_VOLUME>
405.8

> <PUBCHEM_COORDINATE_TYPE>
2
5
10

$$$$
