45783362
  -OEChem-12032416263D

 55 58  0     1  0  0  0  0  0999 V2000
    1.5480    3.0389    0.2516 F   0  0  0  0  0  0  0  0  0  0  0  0
    0.1214    4.6414    0.6045 F   0  0  0  0  0  0  0  0  0  0  0  0
    0.9709    4.3512   -1.3758 F   0  0  0  0  0  0  0  0  0  0  0  0
   -2.6804   -0.9633    2.2690 O   0  0  0  0  0  0  0  0  0  0  0  0
    3.7356   -0.8936   -0.3536 O   0  0  0  0  0  0  0  0  0  0  0  0
    5.5897   -2.3110   -1.8989 O   0  0  0  0  0  0  0  0  0  0  0  0
   -3.5984   -1.2554   -1.2774 N   0  0  1  0  0  0  0  0  0  0  0  0
   -1.2493   -1.2120    0.5641 N   0  0  0  0  0  0  0  0  0  0  0  0
   -1.4062   -0.7020    2.7888 N   0  0  0  0  0  0  0  0  0  0  0  0
    3.5801   -0.3744    1.9025 N   0  0  0  0  0  0  0  0  0  0  0  0
   -3.7433   -1.5788    0.1561 C   0  0  1  0  0  0  0  0  0  0  0  0
   -4.0957   -3.0774    0.1853 C   0  0  0  0  0  0  0  0  0  0  0  0
   -4.1865   -3.4933   -1.2761 C   0  0  0  0  0  0  0  0  0  0  0  0
   -4.4593   -2.1910   -2.0012 C   0  0  0  0  0  0  0  0  0  0  0  0
   -3.9143    0.1329   -1.5879 C   0  0  0  0  0  0  0  0  0  0  0  0
   -2.4980   -1.2553    0.9546 C   0  0  0  0  0  0  0  0  0  0  0  0
   -2.7730    1.0560   -1.2532 C   0  0  0  0  0  0  0  0  0  0  0  0
   -2.9632    2.0999   -0.3477 C   0  0  0  0  0  0  0  0  0  0  0  0
   -1.5253    0.8670   -1.8475 C   0  0  0  0  0  0  0  0  0  0  0  0
   -0.6169   -0.8686    1.7234 C   0  0  0  0  0  0  0  0  0  0  0  0
   -1.9060    2.9550   -0.0370 C   0  0  0  0  0  0  0  0  0  0  0  0
   -0.4680    1.7221   -1.5368 C   0  0  0  0  0  0  0  0  0  0  0  0
   -0.6584    2.7660   -0.6315 C   0  0  0  0  0  0  0  0  0  0  0  0
    0.8065   -0.7011    1.7840 C   0  0  0  0  0  0  0  0  0  0  0  0
    0.4727    3.6784   -0.2965 C   0  0  0  0  0  0  0  0  0  0  0  0
    1.5808   -0.8884    0.6443 C   0  0  0  0  0  0  0  0  0  0  0  0
    1.4174   -0.3506    2.9829 C   0  0  0  0  0  0  0  0  0  0  0  0
    2.9510   -0.7148    0.7554 C   0  0  0  0  0  0  0  0  0  0  0  0
    2.7949   -0.2007    2.9893 C   0  0  0  0  0  0  0  0  0  0  0  0
    5.1354   -0.7030   -0.1846 C   0  0  0  0  0  0  0  0  0  0  0  0
    5.8337   -0.9662   -1.5049 C   0  0  0  0  0  0  0  0  0  0  0  0
    6.2042   -2.6079   -3.1450 C   0  0  0  0  0  0  0  0  0  0  0  0
   -4.5887   -1.0304    0.5952 H   0  0  0  0  0  0  0  0  0  0  0  0
   -3.3650   -3.6936    0.7204 H   0  0  0  0  0  0  0  0  0  0  0  0
   -5.0709   -3.2174    0.6674 H   0  0  0  0  0  0  0  0  0  0  0  0
   -4.9676   -4.2401   -1.4460 H   0  0  0  0  0  0  0  0  0  0  0  0
   -3.2297   -3.9198   -1.6023 H   0  0  0  0  0  0  0  0  0  0  0  0
   -5.5193   -1.9210   -1.9126 H   0  0  0  0  0  0  0  0  0  0  0  0
   -4.1960   -2.2583   -3.0613 H   0  0  0  0  0  0  0  0  0  0  0  0
   -4.0866    0.2434   -2.6679 H   0  0  0  0  0  0  0  0  0  0  0  0
   -4.8476    0.4548   -1.1074 H   0  0  0  0  0  0  0  0  0  0  0  0
   -3.9291    2.2573    0.1246 H   0  0  0  0  0  0  0  0  0  0  0  0
   -1.3624    0.0607   -2.5578 H   0  0  0  0  0  0  0  0  0  0  0  0
   -2.0746    3.7609    0.6718 H   0  0  0  0  0  0  0  0  0  0  0  0
    0.5008    1.5663   -2.0039 H   0  0  0  0  0  0  0  0  0  0  0  0
    1.1478   -1.1621   -0.3129 H   0  0  0  0  0  0  0  0  0  0  0  0
    0.8653   -0.1911    3.9032 H   0  0  0  0  0  0  0  0  0  0  0  0
    3.3200    0.0721    3.8988 H   0  0  0  0  0  0  0  0  0  0  0  0
    5.3424    0.3251    0.1351 H   0  0  0  0  0  0  0  0  0  0  0  0
    5.5111   -1.4106    0.5649 H   0  0  0  0  0  0  0  0  0  0  0  0
    5.4366   -0.2934   -2.2740 H   0  0  0  0  0  0  0  0  0  0  0  0
    6.9113   -0.8000   -1.3982 H   0  0  0  0  0  0  0  0  0  0  0  0
    5.9888   -3.6501   -3.3954 H   0  0  0  0  0  0  0  0  0  0  0  0
    7.2892   -2.4822   -3.0776 H   0  0  0  0  0  0  0  0  0  0  0  0
    5.7987   -1.9685   -3.9351 H   0  0  0  0  0  0  0  0  0  0  0  0
  1 25  1  0  0  0  0
  2 25  1  0  0  0  0
  3 25  1  0  0  0  0
  4  9  1  0  0  0  0
  4 16  1  0  0  0  0
  5 28  1  0  0  0  0
  5 30  1  0  0  0  0
  6 31  1  0  0  0  0
  6 32  1  0  0  0  0
  7 11  1  0  0  0  0
  7 14  1  0  0  0  0
  7 15  1  0  0  0  0
  8 16  2  0  0  0  0
  8 20  1  0  0  0  0
  9 20  2  0  0  0  0
 10 28  2  0  0  0  0
 10 29  1  0  0  0  0
 11 12  1  0  0  0  0
 11 16  1  0  0  0  0
 11 33  1  0  0  0  0
 12 13  1  0  0  0  0
 12 34  1  0  0  0  0
 12 35  1  0  0  0  0
 13 14  1  0  0  0  0
 13 36  1  0  0  0  0
 13 37  1  0  0  0  0
 14 38  1  0  0  0  0
 14 39  1  0  0  0  0
 15 17  1  0  0  0  0
 15 40  1  0  0  0  0
 15 41  1  0  0  0  0
 17 18  2  0  0  0  0
 17 19  1  0  0  0  0
 18 21  1  0  0  0  0
 18 42  1  0  0  0  0
 19 22  2  0  0  0  0
 19 43  1  0  0  0  0
 20 24  1  0  0  0  0
 21 23  2  0  0  0  0
 21 44  1  0  0  0  0
 22 23  1  0  0  0  0
 22 45  1  0  0  0  0
 23 25  1  0  0  0  0
 24 26  2  0  0  0  0
 24 27  1  0  0  0  0
 26 28  1  0  0  0  0
 26 46  1  0  0  0  0
 27 29  2  0  0  0  0
 27 47  1  0  0  0  0
 29 48  1  0  0  0  0
 30 31  1  0  0  0  0
 30 49  1  0  0  0  0
 30 50  1  0  0  0  0
 31 51  1  0  0  0  0
 31 52  1  0  0  0  0
 32 53  1  0  0  0  0
 32 54  1  0  0  0  0
 32 55  1  0  0  0  0
M  END
> <PUBCHEM_COMPOUND_CID>
45783362

> <PUBCHEM_CONFORMER_RMSD>
1

> <PUBCHEM_CONFORMER_DIVERSEORDER>
1
42
114
99
100
21
75
66
53
110
41
81
26
13
55
101
46
79
89
61
70
76
37
58
60
88
115
77
90
11
106
96
12
71
105
108
50
8
102
91
59
95
28
35
5
30
64
38
84
103
68
29
109
54
24
23
67
39
97
69
48
57
74
65
43
92
15
16
49
17
83
27
31
10
33
2
3
107
73
98
22
25
34
44
80
32
20
116
87
93
94
113
78
14
18
47
82
72
117
63
40
45
51
85
6
4
62
56
36
112
104
52
86
111
9
19
7

> <PUBCHEM_MMFF94_PARTIAL_CHARGES>
37
1 -0.34
10 -0.62
11 0.45
14 0.27
15 0.41
16 0.3
17 -0.14
18 -0.15
19 -0.15
2 -0.34
20 0.46
21 -0.15
22 -0.15
23 -0.14
24 0.05
25 1.16
26 -0.15
27 -0.15
28 0.39
29 0.16
3 -0.34
30 0.28
31 0.28
32 0.28
4 -0.02
42 0.15
43 0.15
44 0.15
45 0.15
46 0.15
47 0.15
48 0.15
5 -0.36
6 -0.56
7 -0.81
8 -0.57
9 -0.41

> <PUBCHEM_EFFECTIVE_ROTOR_COUNT>
10

> <PUBCHEM_PHARMACOPHORE_FEATURES>
7
1 6 acceptor
1 7 cation
3 8 9 20 cation
5 4 8 9 16 20 rings
5 7 11 12 13 14 rings
6 10 24 26 27 28 29 rings
6 17 18 19 21 22 23 rings

> <PUBCHEM_HEAVY_ATOM_COUNT>
32

> <PUBCHEM_ATOM_DEF_STEREO_COUNT>
1

> <PUBCHEM_ATOM_UDEF_STEREO_COUNT>
0

> <PUBCHEM_BOND_DEF_STEREO_COUNT>
0

> <PUBCHEM_BOND_UDEF_STEREO_COUNT>
0

> <PUBCHEM_ISOTOPIC_ATOM_COUNT>
0

> <PUBCHEM_COMPONENT_COUNT>
1

> <PUBCHEM_CACTVS_TAUTO_COUNT>
1

> <PUBCHEM_CONFORMER_ID>
02BA994200000001

> <PUBCHEM_MMFF94_ENERGY>
64.8375

> <PUBCHEM_FEATURE_SELFOVERLAP>
35.523

> <PUBCHEM_SHAPE_FINGERPRINT>
10577160 103 18335996324761540940
1100329 8 18044907187875224037
11477941 20 18191330242235822660
11513181 2 18124585633541751391
11607047 141 18052839215235291363
11607047 403 16905556723009128313
11828042 74 17184788718080372822
12596599 1 18268126743773576801
12788726 201 18042957675537214133
13383661 66 16392140347796071358
13761468 95 17463696385898102190
14114206 34 17749393628766686372
14114211 68 17241326842102246547
14910302 57 18130214982895144142
17492 54 17458899336920197013
17818456 19 17539085547081003211
19319366 153 17098314421719133097
20775438 99 17397523781651327123
20905425 154 17681529748666373585
22182313 1 16808400972522956187
3610482 184 17680738950861748878
484985 159 15768924620114975748
6034566 193 14202554978472423742
6700243 42 18342734122266607054
70251023 43 18265900344306581775

> <PUBCHEM_SHAPE_MULTIPOLES>
599.19
10.74
4.72
3.06
14.27
5.11
1.01
-12.32
-8.5
-2.18
-2.39
2.85
-1.66
1.92

> <PUBCHEM_SHAPE_SELFOVERLAP>
1289.473

> <PUBCHEM_SHAPE_VOLUME>
333.5

> <PUBCHEM_COORDINATE_TYPE>
2
5
10

$$$$
