51136770
  -OEChem-12032416403D

 55 58  0     1  0  0  0  0  0999 V2000
   -4.9161   -2.2408    2.0411 F   0  0  0  0  0  0  0  0  0  0  0  0
   -4.6467    1.7498   -1.2287 F   0  0  0  0  0  0  0  0  0  0  0  0
    0.5919    3.4818    1.6800 O   0  0  0  0  0  0  0  0  0  0  0  0
    6.3041   -2.3875    0.4524 O   0  0  0  0  0  0  0  0  0  0  0  0
    6.3801   -0.2020   -0.1788 O   0  0  0  0  0  0  0  0  0  0  0  0
    1.5799    2.0821    0.0867 N   0  0  0  0  0  0  0  0  0  0  0  0
    0.1885   -1.8461   -1.7698 N   0  0  0  0  0  0  0  0  0  0  0  0
    2.1057   -0.2032   -0.7359 C   0  0  2  0  0  0  0  0  0  0  0  0
    3.5576   -0.0093   -0.2290 C   0  0  1  0  0  0  0  0  0  0  0  0
    3.6211    0.9941    0.9351 C   0  0  0  0  0  0  0  0  0  0  0  0
    1.4750    1.1645   -1.0565 C   0  0  0  0  0  0  0  0  0  0  0  0
    2.9410    2.3102    0.5681 C   0  0  0  0  0  0  0  0  0  0  0  0
    1.2092   -0.9900    0.2285 C   0  0  0  0  0  0  0  0  0  0  0  0
    4.2407   -1.3220    0.1535 C   0  0  0  0  0  0  0  0  0  0  0  0
    0.0289   -1.5615   -0.5195 C   0  0  0  0  0  0  0  0  0  0  0  0
    0.5092    2.7178    0.7197 C   0  0  0  0  0  0  0  0  0  0  0  0
   -1.2504   -1.7611    0.2081 C   0  0  0  0  0  0  0  0  0  0  0  0
    5.7390   -1.2006    0.1120 C   0  0  0  0  0  0  0  0  0  0  0  0
   -2.4030   -1.9150   -0.5728 C   0  0  0  0  0  0  0  0  0  0  0  0
   -2.2751   -1.8547   -2.0659 C   0  0  0  0  0  0  0  0  0  0  0  0
   -0.9394   -2.4575   -2.4809 C   0  0  0  0  0  0  0  0  0  0  0  0
   -0.8428    2.4645    0.2091 C   0  0  0  0  0  0  0  0  0  0  0  0
   -1.3309   -1.7836    1.6017 C   0  0  0  0  0  0  0  0  0  0  0  0
   -3.6442   -2.0662    0.0516 C   0  0  0  0  0  0  0  0  0  0  0  0
   -2.5728   -1.9507    2.2160 C   0  0  0  0  0  0  0  0  0  0  0  0
   -1.1620    2.7884   -1.1096 C   0  0  0  0  0  0  0  0  0  0  0  0
   -1.8086    1.8994    1.0418 C   0  0  0  0  0  0  0  0  0  0  0  0
   -3.7266   -2.0888    1.4439 C   0  0  0  0  0  0  0  0  0  0  0  0
   -2.4470    2.5473   -1.5954 C   0  0  0  0  0  0  0  0  0  0  0  0
   -3.0937    1.6583    0.5561 C   0  0  0  0  0  0  0  0  0  0  0  0
   -3.4128    1.9824   -0.7625 C   0  0  0  0  0  0  0  0  0  0  0  0
    2.2086   -0.7428   -1.6858 H   0  0  0  0  0  0  0  0  0  0  0  0
    4.1128    0.4377   -1.0673 H   0  0  0  0  0  0  0  0  0  0  0  0
    3.1264    0.5688    1.8175 H   0  0  0  0  0  0  0  0  0  0  0  0
    4.6581    1.1992    1.2218 H   0  0  0  0  0  0  0  0  0  0  0  0
    0.4519    1.0065   -1.3899 H   0  0  0  0  0  0  0  0  0  0  0  0
    2.0111    1.6368   -1.8891 H   0  0  0  0  0  0  0  0  0  0  0  0
    3.4919    2.8152   -0.2342 H   0  0  0  0  0  0  0  0  0  0  0  0
    2.9400    2.9794    1.4344 H   0  0  0  0  0  0  0  0  0  0  0  0
    0.8863   -0.3550    1.0577 H   0  0  0  0  0  0  0  0  0  0  0  0
    1.7361   -1.8502    0.6536 H   0  0  0  0  0  0  0  0  0  0  0  0
    3.9645   -2.1051   -0.5627 H   0  0  0  0  0  0  0  0  0  0  0  0
    3.9495   -1.6402    1.1605 H   0  0  0  0  0  0  0  0  0  0  0  0
   -3.0887   -2.4058   -2.5505 H   0  0  0  0  0  0  0  0  0  0  0  0
   -2.3374   -0.8071   -2.3834 H   0  0  0  0  0  0  0  0  0  0  0  0
   -0.9262   -3.5405   -2.3053 H   0  0  0  0  0  0  0  0  0  0  0  0
   -0.7968   -2.3068   -3.5566 H   0  0  0  0  0  0  0  0  0  0  0  0
   -0.4514   -1.6884    2.2303 H   0  0  0  0  0  0  0  0  0  0  0  0
   -4.5505   -2.1672   -0.5391 H   0  0  0  0  0  0  0  0  0  0  0  0
    7.2840   -2.3440    0.4360 H   0  0  0  0  0  0  0  0  0  0  0  0
   -2.6422   -1.9713    3.2998 H   0  0  0  0  0  0  0  0  0  0  0  0
   -0.4289    3.2490   -1.7671 H   0  0  0  0  0  0  0  0  0  0  0  0
   -1.5715    1.6404    2.0705 H   0  0  0  0  0  0  0  0  0  0  0  0
   -2.6972    2.8026   -2.6209 H   0  0  0  0  0  0  0  0  0  0  0  0
   -3.8467    1.2209    1.2047 H   0  0  0  0  0  0  0  0  0  0  0  0
  1 28  1  0  0  0  0
  2 31  1  0  0  0  0
  3 16  2  0  0  0  0
  4 18  1  0  0  0  0
  4 50  1  0  0  0  0
  5 18  2  0  0  0  0
  6 11  1  0  0  0  0
  6 12  1  0  0  0  0
  6 16  1  0  0  0  0
  7 15  2  0  0  0  0
  7 21  1  0  0  0  0
  8  9  1  0  0  0  0
  8 11  1  0  0  0  0
  8 13  1  0  0  0  0
  8 32  1  0  0  0  0
  9 10  1  0  0  0  0
  9 14  1  0  0  0  0
  9 33  1  0  0  0  0
 10 12  1  0  0  0  0
 10 34  1  0  0  0  0
 10 35  1  0  0  0  0
 11 36  1  0  0  0  0
 11 37  1  0  0  0  0
 12 38  1  0  0  0  0
 12 39  1  0  0  0  0
 13 15  1  0  0  0  0
 13 40  1  0  0  0  0
 13 41  1  0  0  0  0
 14 18  1  0  0  0  0
 14 42  1  0  0  0  0
 14 43  1  0  0  0  0
 15 17  1  0  0  0  0
 16 22  1  0  0  0  0
 17 19  2  0  0  0  0
 17 23  1  0  0  0  0
 19 20  1  0  0  0  0
 19 24  1  0  0  0  0
 20 21  1  0  0  0  0
 20 44  1  0  0  0  0
 20 45  1  0  0  0  0
 21 46  1  0  0  0  0
 21 47  1  0  0  0  0
 22 26  2  0  0  0  0
 22 27  1  0  0  0  0
 23 25  2  0  0  0  0
 23 48  1  0  0  0  0
 24 28  2  0  0  0  0
 24 49  1  0  0  0  0
 25 28  1  0  0  0  0
 25 51  1  0  0  0  0
 26 29  1  0  0  0  0
 26 52  1  0  0  0  0
 27 30  2  0  0  0  0
 27 53  1  0  0  0  0
 29 31  2  0  0  0  0
 29 54  1  0  0  0  0
 30 31  1  0  0  0  0
 30 55  1  0  0  0  0
M  END
> <PUBCHEM_COMPOUND_CID>
51136770

> <PUBCHEM_CONFORMER_RMSD>
1

> <PUBCHEM_CONFORMER_DIVERSEORDER>
1
25
55
68
44
36
50
57
67
49
45
83
64
52
20
60
24
75
58
40
46
51
73
12
34
5
33
11
84
76
4
22
19
28
80
59
42
41
82
43
26
72
13
31
30
47
15
77
16
6
56
8
32
61
54
78
74
14
53
48
81
21
3
35
66
18
70
38
71
79
69
7
37
17
23
62
9
65
27
29
10
39
63
2

> <PUBCHEM_MMFF94_PARTIAL_CHARGES>
36
1 -0.19
11 0.3
12 0.3
13 0.06
14 0.06
15 0.3
16 0.54
17 0.09
18 0.66
19 -0.14
2 -0.19
20 0.14
21 0.25
22 0.09
23 -0.15
24 -0.15
25 -0.15
26 -0.15
27 -0.15
28 0.19
29 -0.15
3 -0.57
30 -0.15
31 0.19
4 -0.65
48 0.15
49 0.15
5 -0.57
50 0.5
51 0.15
52 0.15
53 0.15
54 0.15
55 0.15
6 -0.66
7 -0.7

> <PUBCHEM_EFFECTIVE_ROTOR_COUNT>
7.6

> <PUBCHEM_PHARMACOPHORE_FEATURES>
9
1 3 acceptor
1 4 acceptor
1 5 acceptor
1 7 acceptor
3 4 5 18 anion
6 17 19 23 24 25 28 rings
6 22 26 27 29 30 31 rings
6 6 8 9 10 11 12 rings
6 7 15 17 19 20 21 rings

> <PUBCHEM_HEAVY_ATOM_COUNT>
31

> <PUBCHEM_ATOM_DEF_STEREO_COUNT>
2

> <PUBCHEM_ATOM_UDEF_STEREO_COUNT>
0

> <PUBCHEM_BOND_DEF_STEREO_COUNT>
0

> <PUBCHEM_BOND_UDEF_STEREO_COUNT>
0

> <PUBCHEM_ISOTOPIC_ATOM_COUNT>
0

> <PUBCHEM_COMPONENT_COUNT>
1

> <PUBCHEM_CACTVS_TAUTO_COUNT>
1

> <PUBCHEM_CONFORMER_ID>
030C490200000001

> <PUBCHEM_MMFF94_ENERGY>
80.4525

> <PUBCHEM_FEATURE_SELFOVERLAP>
45.755

> <PUBCHEM_SHAPE_FINGERPRINT>
10119406 146 17764876797639999638
1100329 8 18343010065541451868
11135609 12 18261113023424380280
12107698 1 18410013264439466187
12156800 1 17905089990314371829
12422481 6 18340785809605717971
13140716 1 18413114952429195784
13402501 40 18411134719482334405
13965767 371 17772208645166381299
14790565 3 17186160306447257328
14840074 17 17690288526406851541
16728300 4 18261670372508878346
17357779 13 18194113243082566781
17492 54 18122882288779066333
20764821 26 18202845474220304820
20775438 99 16116206768108208135
22182313 1 17987255338737991262
23419403 2 16125806509588030835
23559900 14 18340195337491995984
24893992 56 17749952280787601715
3380486 145 18129654339291428456
35225 105 18192412109235833247
513202 73 18270409270221621710
5171179 24 18057585750485447360
70251023 43 18124577919749527743
7237137 82 18337966657655745628

> <PUBCHEM_SHAPE_MULTIPOLES>
595.85
9.73
4.33
1.91
13.8
1.97
-0.19
-5.1
1.86
-2.38
0.16
-2.09
-0.9
1.58

> <PUBCHEM_SHAPE_SELFOVERLAP>
1290.351

> <PUBCHEM_SHAPE_VOLUME>
325

> <PUBCHEM_COORDINATE_TYPE>
2
5
10

$$$$
