51136947
  -OEChem-12032416203D

 48 52  0     1  0  0  0  0  0999 V2000
   -0.5566   -0.9261    1.9789 O   0  0  0  0  0  0  0  0  0  0  0  0
   -2.8127   -1.3561   -0.6808 N   0  0  1  0  0  0  0  0  0  0  0  0
   -2.0741    1.8504    0.6141 N   0  0  0  0  0  0  0  0  0  0  0  0
    0.2272   -1.7081    0.0318 N   0  0  0  0  0  0  0  0  0  0  0  0
   -1.4046    1.2657   -1.4230 N   0  0  0  0  0  0  0  0  0  0  0  0
    0.8179   -0.6566    1.9759 N   0  0  0  0  0  0  0  0  0  0  0  0
    4.2249   -0.9637   -1.3935 N   0  0  0  0  0  0  0  0  0  0  0  0
    1.9294   -0.9818   -1.9662 N   0  0  0  0  0  0  0  0  0  0  0  0
    4.9118   -1.0741    0.9137 N   0  0  0  0  0  0  0  0  0  0  0  0
   -2.2609   -1.9466    0.5550 C   0  0  1  0  0  0  0  0  0  0  0  0
   -2.4328   -3.4660    0.3731 C   0  0  0  0  0  0  0  0  0  0  0  0
   -3.8259   -2.2916   -1.1693 C   0  0  0  0  0  0  0  0  0  0  0  0
   -3.1434   -3.6288   -0.9630 C   0  0  0  0  0  0  0  0  0  0  0  0
   -3.3519   -0.0163   -0.4863 C   0  0  0  0  0  0  0  0  0  0  0  0
   -0.8210   -1.5462    0.7990 C   0  0  0  0  0  0  0  0  0  0  0  0
   -2.2662    1.0265   -0.4598 C   0  0  0  0  0  0  0  0  0  0  0  0
   -1.0184    2.6762    0.3248 C   0  0  0  0  0  0  0  0  0  0  0  0
   -0.6180    2.2917   -0.9519 C   0  0  0  0  0  0  0  0  0  0  0  0
   -2.8440    1.8540    1.8376 C   0  0  0  0  0  0  0  0  0  0  0  0
    1.2087   -1.1469    0.7957 C   0  0  0  0  0  0  0  0  0  0  0  0
   -0.3983    3.6956    1.0481 C   0  0  0  0  0  0  0  0  0  0  0  0
    0.4636    2.9525   -1.5585 C   0  0  0  0  0  0  0  0  0  0  0  0
    2.5714   -1.0934    0.3511 C   0  0  0  0  0  0  0  0  0  0  0  0
    0.6765    4.3424    0.4293 C   0  0  0  0  0  0  0  0  0  0  0  0
    1.1014    3.9790   -0.8509 C   0  0  0  0  0  0  0  0  0  0  0  0
    2.9428   -1.0136   -0.9755 C   0  0  0  0  0  0  0  0  0  0  0  0
    3.6088   -1.1206    1.2608 C   0  0  0  0  0  0  0  0  0  0  0  0
    5.1447   -0.9974   -0.4104 C   0  0  0  0  0  0  0  0  0  0  0  0
   -2.8613   -1.6531    1.4277 H   0  0  0  0  0  0  0  0  0  0  0  0
   -1.4912   -4.0255    0.3840 H   0  0  0  0  0  0  0  0  0  0  0  0
   -3.0671   -3.8631    1.1752 H   0  0  0  0  0  0  0  0  0  0  0  0
   -4.7480   -2.2398   -0.5763 H   0  0  0  0  0  0  0  0  0  0  0  0
   -4.0697   -2.1232   -2.2228 H   0  0  0  0  0  0  0  0  0  0  0  0
   -3.8497   -4.4641   -0.9570 H   0  0  0  0  0  0  0  0  0  0  0  0
   -2.4078   -3.8094   -1.7566 H   0  0  0  0  0  0  0  0  0  0  0  0
   -3.9795    0.2448   -1.3500 H   0  0  0  0  0  0  0  0  0  0  0  0
   -4.0162    0.0303    0.3833 H   0  0  0  0  0  0  0  0  0  0  0  0
   -2.4296    2.5700    2.5490 H   0  0  0  0  0  0  0  0  0  0  0  0
   -2.8085    0.8544    2.2773 H   0  0  0  0  0  0  0  0  0  0  0  0
   -3.8721    2.1355    1.5957 H   0  0  0  0  0  0  0  0  0  0  0  0
   -0.7209    3.9848    2.0414 H   0  0  0  0  0  0  0  0  0  0  0  0
    0.8019    2.6766   -2.5521 H   0  0  0  0  0  0  0  0  0  0  0  0
    1.1906    5.1431    0.9553 H   0  0  0  0  0  0  0  0  0  0  0  0
    1.9402    4.4999   -1.3055 H   0  0  0  0  0  0  0  0  0  0  0  0
    3.4413   -1.1890    2.3317 H   0  0  0  0  0  0  0  0  0  0  0  0
    2.2440   -0.9112   -2.9266 H   0  0  0  0  0  0  0  0  0  0  0  0
    1.0662   -1.4824   -1.7975 H   0  0  0  0  0  0  0  0  0  0  0  0
    6.1825   -0.9587   -0.7176 H   0  0  0  0  0  0  0  0  0  0  0  0
  1  6  1  0  0  0  0
  1 15  1  0  0  0  0
  2 10  1  0  0  0  0
  2 12  1  0  0  0  0
  2 14  1  0  0  0  0
  3 16  1  0  0  0  0
  3 17  1  0  0  0  0
  3 19  1  0  0  0  0
  4 15  2  0  0  0  0
  4 20  1  0  0  0  0
  5 16  2  0  0  0  0
  5 18  1  0  0  0  0
  6 20  2  0  0  0  0
  7 26  2  0  0  0  0
  7 28  1  0  0  0  0
  8 26  1  0  0  0  0
  8 46  1  0  0  0  0
  8 47  1  0  0  0  0
  9 27  1  0  0  0  0
  9 28  2  0  0  0  0
 10 11  1  0  0  0  0
 10 15  1  0  0  0  0
 10 29  1  0  0  0  0
 11 13  1  0  0  0  0
 11 30  1  0  0  0  0
 11 31  1  0  0  0  0
 12 13  1  0  0  0  0
 12 32  1  0  0  0  0
 12 33  1  0  0  0  0
 13 34  1  0  0  0  0
 13 35  1  0  0  0  0
 14 16  1  0  0  0  0
 14 36  1  0  0  0  0
 14 37  1  0  0  0  0
 17 18  1  0  0  0  0
 17 21  2  0  0  0  0
 18 22  2  0  0  0  0
 19 38  1  0  0  0  0
 19 39  1  0  0  0  0
 19 40  1  0  0  0  0
 20 23  1  0  0  0  0
 21 24  1  0  0  0  0
 21 41  1  0  0  0  0
 22 25  1  0  0  0  0
 22 42  1  0  0  0  0
 23 26  1  0  0  0  0
 23 27  2  0  0  0  0
 24 25  2  0  0  0  0
 24 43  1  0  0  0  0
 25 44  1  0  0  0  0
 27 45  1  0  0  0  0
 28 48  1  0  0  0  0
M  END
> <PUBCHEM_COMPOUND_CID>
51136947

> <PUBCHEM_CONFORMER_RMSD>
0.8

> <PUBCHEM_CONFORMER_DIVERSEORDER>
4
106
70
177
88
162
228
116
25
193
221
141
136
206
100
215
61
180
144
51
127
95
134
150
122
139
212
11
213
218
27
168
126
147
209
39
55
24
166
190
219
157
197
113
181
169
1
14
48
104
140
222
200
79
93
16
143
233
156
81
84
94
188
82
119
26
163
63
198
184
50
170
153
58
131
164
47
130
3
175
235
216
152
137
56
133
138
148
98
17
223
187
111
2
23
92
224
118
171
199
108
87
13
109
128
62
178
115
35
194
120
6
85
19
234
102
205
165
37
183
38
32
149
75
182
145
172
117
69
226
83
73
9
45
53
132
195
86
124
129
230
28
41
229
21
64
80
114
176
34
135
103
12
123
22
15
125
155
214
174
97
96
78
112
191
29
161
179
192
142
31
231
110
107
7
186
154
121
33
65
89
74
44
30
202
66
18
167
189
208
71
43
225
20
232
40
76
185
42
105
68
173
101
151
57
10
54
36
67
146
211
72
158
91
227
59
60
220
159
46
217
196
77
49
201
52
207
5
160
8
204
210
203
90
99

> <PUBCHEM_MMFF94_PARTIAL_CHARGES>
34
1 -0.02
10 0.45
12 0.27
14 0.45
15 0.3
16 0.01
17 -0.15
18 0.23
19 0.26
2 -0.81
20 0.46
21 -0.15
22 -0.15
23 0.05
24 -0.15
25 -0.15
26 0.41
27 0.16
28 0.47
3 0.05
4 -0.57
41 0.15
42 0.15
43 0.15
44 0.15
45 0.15
46 0.4
47 0.4
48 0.15
5 -0.57
6 -0.41
7 -0.62
8 -0.9
9 -0.62

> <PUBCHEM_EFFECTIVE_ROTOR_COUNT>
5

> <PUBCHEM_PHARMACOPHORE_FEATURES>
11
1 2 cation
1 8 donor
3 3 5 16 cation
3 4 6 20 cation
3 7 8 26 cation
3 7 9 28 cation
5 1 4 6 15 20 rings
5 2 10 11 12 13 rings
5 3 5 16 17 18 rings
6 17 18 21 22 24 25 rings
6 7 9 23 26 27 28 rings

> <PUBCHEM_HEAVY_ATOM_COUNT>
28

> <PUBCHEM_ATOM_DEF_STEREO_COUNT>
1

> <PUBCHEM_ATOM_UDEF_STEREO_COUNT>
0

> <PUBCHEM_BOND_DEF_STEREO_COUNT>
0

> <PUBCHEM_BOND_UDEF_STEREO_COUNT>
0

> <PUBCHEM_ISOTOPIC_ATOM_COUNT>
0

> <PUBCHEM_COMPONENT_COUNT>
1

> <PUBCHEM_CACTVS_TAUTO_COUNT>
14

> <PUBCHEM_CONFORMER_ID>
030C49B300000004

> <PUBCHEM_MMFF94_ENERGY>
60.1184

> <PUBCHEM_FEATURE_SELFOVERLAP>
56.071

> <PUBCHEM_SHAPE_FINGERPRINT>
10006869 2 17830457185673042769
10165383 225 17481158799110374425
1100329 8 18410577297299412057
11488393 25 17327740007587001643
12156800 1 15362982840076270516
12173636 292 17836924499528883325
12539773 59 17897467002704450173
12788726 201 18262519191379723794
128993 33 17185603416528478128
13149001 5 18119499203095325885
133893 2 17902808675147551649
13761468 95 17536330132872166158
14081887 123 18266167349749338704
14910302 57 18058168319891850222
14955137 171 18266198183588537003
151778 21 16612238837487540320
15876981 60 18334586745873930470
15961568 22 18266729359511611224
17492 54 17897987081006355989
17818456 19 17902210244870894154
18365409 1 18059856105333272041
20567600 347 17110993297704076655
20600515 1 17835474437460916441
20691752 17 16808109567370749919
20905425 154 17904477755473773111
23419403 2 17980161444091549605
23557571 272 18343015584389758822
3178227 256 18336274440889345833
392239 28 18335135385170699480
4280585 95 18264749091086458562
469060 322 18262813864695782393
6287921 2 18201440341109193736
7471813 234 18264486363916561686
81228 2 18410573963961977819
9981440 41 17254812210177368456

> <PUBCHEM_SHAPE_MULTIPOLES>
530.51
7.06
5.5
1.72
5.67
5.28
0.15
-7.52
-1.13
-1.3
-0.23
0.18
0.11
-1.05

> <PUBCHEM_SHAPE_SELFOVERLAP>
1176.133

> <PUBCHEM_SHAPE_VOLUME>
283.7

> <PUBCHEM_COORDINATE_TYPE>
2
5
10

$$$$
