38029925
  -OEChem-12032416363D

 58 59  0     1  0  0  0  0  0999 V2000
    0.2299    2.5143    1.0125 O   0  0  0  0  0  0  0  0  0  0  0  0
    7.3479   -2.2361   -0.1561 O   0  0  0  0  0  0  0  0  0  0  0  0
    1.9116    1.3430   -0.0806 N   0  0  0  0  0  0  0  0  0  0  0  0
    4.4943    0.1090    0.0417 N   0  0  0  0  0  0  0  0  0  0  0  0
   -2.0750   -2.8965   -1.9644 N   0  0  0  0  0  0  0  0  0  0  0  0
   -2.8014   -0.5344    0.8147 C   0  0  2  0  0  0  0  0  0  0  0  0
   -2.3152    0.9113    0.9993 C   0  0  0  0  0  0  0  0  0  0  0  0
   -1.8518    1.5439   -0.3266 C   0  0  2  0  0  0  0  0  0  0  0  0
   -3.9787   -0.5846   -0.1911 C   0  0  1  0  0  0  0  0  0  0  0  0
   -3.1877   -1.1289    2.1726 C   0  0  0  0  0  0  0  0  0  0  0  0
   -2.8464    1.3019   -1.4438 C   0  0  0  0  0  0  0  0  0  0  0  0
   -3.7982    0.3554   -1.3599 C   0  0  0  0  0  0  0  0  0  0  0  0
   -0.4556    1.0467   -0.7176 C   0  0  0  0  0  0  0  0  0  0  0  0
   -4.2014   -2.0092   -0.7112 C   0  0  0  0  0  0  0  0  0  0  0  0
   -1.9464   -1.6191    2.9114 C   0  0  0  0  0  0  0  0  0  0  0  0
   -3.9436   -0.1008    3.0079 C   0  0  0  0  0  0  0  0  0  0  0  0
    0.5856    1.7055    0.1516 C   0  0  0  0  0  0  0  0  0  0  0  0
   -2.7510    2.2043   -2.6425 C   0  0  0  0  0  0  0  0  0  0  0  0
    2.9800    1.9340    0.7237 C   0  0  0  0  0  0  0  0  0  0  0  0
    2.3775    0.4901   -1.1781 C   0  0  0  0  0  0  0  0  0  0  0  0
    3.9776    0.8729    1.1866 C   0  0  0  0  0  0  0  0  0  0  0  0
    3.3920   -0.5417   -0.6817 C   0  0  0  0  0  0  0  0  0  0  0  0
   -3.0126   -2.4979   -1.4091 C   0  0  0  0  0  0  0  0  0  0  0  0
    5.4733   -0.8825    0.4857 C   0  0  0  0  0  0  0  0  0  0  0  0
    6.3954   -1.3007   -0.6450 C   0  0  0  0  0  0  0  0  0  0  0  0
   -1.9620   -1.1170    0.4200 H   0  0  0  0  0  0  0  0  0  0  0  0
   -1.5228    0.9619    1.7516 H   0  0  0  0  0  0  0  0  0  0  0  0
   -3.1314    1.5501    1.3613 H   0  0  0  0  0  0  0  0  0  0  0  0
   -1.8267    2.6313   -0.1669 H   0  0  0  0  0  0  0  0  0  0  0  0
   -4.9041   -0.2714    0.3089 H   0  0  0  0  0  0  0  0  0  0  0  0
   -3.8375   -1.9996    2.0374 H   0  0  0  0  0  0  0  0  0  0  0  0
   -4.5155    0.2587   -2.1727 H   0  0  0  0  0  0  0  0  0  0  0  0
   -0.2278    1.3200   -1.7537 H   0  0  0  0  0  0  0  0  0  0  0  0
   -0.3751   -0.0405   -0.6251 H   0  0  0  0  0  0  0  0  0  0  0  0
   -5.0582   -2.0282   -1.3970 H   0  0  0  0  0  0  0  0  0  0  0  0
   -4.4581   -2.6923    0.1044 H   0  0  0  0  0  0  0  0  0  0  0  0
   -1.2435   -0.8089    3.1285 H   0  0  0  0  0  0  0  0  0  0  0  0
   -1.4174   -2.3797    2.3271 H   0  0  0  0  0  0  0  0  0  0  0  0
   -2.2262   -2.0759    3.8671 H   0  0  0  0  0  0  0  0  0  0  0  0
   -3.2997    0.6942    3.3985 H   0  0  0  0  0  0  0  0  0  0  0  0
   -4.3705   -0.5970    3.8884 H   0  0  0  0  0  0  0  0  0  0  0  0
   -4.7838    0.3467    2.4688 H   0  0  0  0  0  0  0  0  0  0  0  0
   -1.8119    2.0458   -3.1801 H   0  0  0  0  0  0  0  0  0  0  0  0
   -2.8034    3.2534   -2.3338 H   0  0  0  0  0  0  0  0  0  0  0  0
   -3.5671    2.0317   -3.3524 H   0  0  0  0  0  0  0  0  0  0  0  0
    2.5659    2.4557    1.5927 H   0  0  0  0  0  0  0  0  0  0  0  0
    3.4784    2.6850    0.0983 H   0  0  0  0  0  0  0  0  0  0  0  0
    2.8381    1.1515   -1.9223 H   0  0  0  0  0  0  0  0  0  0  0  0
    1.5542   -0.0268   -1.6742 H   0  0  0  0  0  0  0  0  0  0  0  0
    4.7999    1.3809    1.7046 H   0  0  0  0  0  0  0  0  0  0  0  0
    3.4939    0.2026    1.9096 H   0  0  0  0  0  0  0  0  0  0  0  0
    2.8813   -1.2677   -0.0347 H   0  0  0  0  0  0  0  0  0  0  0  0
    3.7641   -1.0863   -1.5559 H   0  0  0  0  0  0  0  0  0  0  0  0
    4.9979   -1.7589    0.9462 H   0  0  0  0  0  0  0  0  0  0  0  0
    6.1129   -0.4586    1.2724 H   0  0  0  0  0  0  0  0  0  0  0  0
    6.9375   -0.4378   -1.0470 H   0  0  0  0  0  0  0  0  0  0  0  0
    5.8509   -1.7828   -1.4617 H   0  0  0  0  0  0  0  0  0  0  0  0
    7.9242   -2.4736   -0.9025 H   0  0  0  0  0  0  0  0  0  0  0  0
  1 17  2  0  0  0  0
  2 25  1  0  0  0  0
  2 58  1  0  0  0  0
  3 17  1  0  0  0  0
  3 19  1  0  0  0  0
  3 20  1  0  0  0  0
  4 21  1  0  0  0  0
  4 22  1  0  0  0  0
  4 24  1  0  0  0  0
  5 23  3  0  0  0  0
  6  7  1  0  0  0  0
  6  9  1  0  0  0  0
  6 10  1  0  0  0  0
  6 26  1  0  0  0  0
  7  8  1  0  0  0  0
  7 27  1  0  0  0  0
  7 28  1  0  0  0  0
  8 11  1  0  0  0  0
  8 13  1  0  0  0  0
  8 29  1  0  0  0  0
  9 12  1  0  0  0  0
  9 14  1  0  0  0  0
  9 30  1  0  0  0  0
 10 15  1  0  0  0  0
 10 16  1  0  0  0  0
 10 31  1  0  0  0  0
 11 12  2  0  0  0  0
 11 18  1  0  0  0  0
 12 32  1  0  0  0  0
 13 17  1  0  0  0  0
 13 33  1  0  0  0  0
 13 34  1  0  0  0  0
 14 23  1  0  0  0  0
 14 35  1  0  0  0  0
 14 36  1  0  0  0  0
 15 37  1  0  0  0  0
 15 38  1  0  0  0  0
 15 39  1  0  0  0  0
 16 40  1  0  0  0  0
 16 41  1  0  0  0  0
 16 42  1  0  0  0  0
 18 43  1  0  0  0  0
 18 44  1  0  0  0  0
 18 45  1  0  0  0  0
 19 21  1  0  0  0  0
 19 46  1  0  0  0  0
 19 47  1  0  0  0  0
 20 22  1  0  0  0  0
 20 48  1  0  0  0  0
 20 49  1  0  0  0  0
 21 50  1  0  0  0  0
 21 51  1  0  0  0  0
 22 52  1  0  0  0  0
 22 53  1  0  0  0  0
 24 25  1  0  0  0  0
 24 54  1  0  0  0  0
 24 55  1  0  0  0  0
 25 56  1  0  0  0  0
 25 57  1  0  0  0  0
M  END
> <PUBCHEM_COMPOUND_CID>
38029925

> <PUBCHEM_CONFORMER_RMSD>
1

> <PUBCHEM_CONFORMER_DIVERSEORDER>
1
61
14
79
49
134
83
50
57
54
38
64
94
30
142
59
29
39
106
91
98
144
48
112
132
160
105
31
19
63
37
65
96
118
146
140
162
110
42
76
73
85
139
157
111
81
5
84
71
24
18
41
156
97
74
15
44
152
27
47
133
99
109
60
40
117
159
136
100
20
35
92
52
22
45
107
68
43
93
36
86
126
148
46
143
12
88
155
121
56
131
75
153
11
147
28
80
9
17
66
158
13
69
21
135
124
163
33
119
58
113
53
25
120
32
104
87
70
125
26
72
123
149
78
145
128
150
77
129
108
10
7
95
103
127
90
137
8
102
67
151
130
16
116
6
115
122
34
4
138
89
23
114
55
141
62
51
82
2
3
161
101
154

> <PUBCHEM_MMFF94_PARTIAL_CHARGES>
22
1 -0.57
11 -0.28
12 -0.29
13 0.06
14 0.2
17 0.57
18 0.14
19 0.3
2 -0.68
20 0.3
21 0.27
22 0.27
23 0.36
24 0.27
25 0.28
3 -0.66
32 0.15
4 -0.81
5 -0.56
58 0.4
8 0.14
9 0.14

> <PUBCHEM_EFFECTIVE_ROTOR_COUNT>
9

> <PUBCHEM_PHARMACOPHORE_FEATURES>
8
1 1 acceptor
1 2 acceptor
1 2 donor
1 4 cation
1 5 acceptor
3 10 15 16 hydrophobe
6 3 4 19 20 21 22 rings
6 6 7 8 9 11 12 rings

> <PUBCHEM_HEAVY_ATOM_COUNT>
25

> <PUBCHEM_ATOM_DEF_STEREO_COUNT>
3

> <PUBCHEM_ATOM_UDEF_STEREO_COUNT>
0

> <PUBCHEM_BOND_DEF_STEREO_COUNT>
0

> <PUBCHEM_BOND_UDEF_STEREO_COUNT>
0

> <PUBCHEM_ISOTOPIC_ATOM_COUNT>
0

> <PUBCHEM_COMPONENT_COUNT>
1

> <PUBCHEM_CACTVS_TAUTO_COUNT>
1

> <PUBCHEM_CONFORMER_ID>
02444A6500000001

> <PUBCHEM_MMFF94_ENERGY>
48.4273

> <PUBCHEM_FEATURE_SELFOVERLAP>
40.596

> <PUBCHEM_SHAPE_FINGERPRINT>
10319926 262 13470694741714667924
107951 10 17532364267482040637
10928967 22 18411425037691582790
11036077 4 17775574126063843139
11552529 35 17130419318619360014
12596599 1 17774175615718378391
12596602 18 16774072986510565458
12633257 1 17988378042851067678
13103583 49 17703802409391220024
13761468 95 14563358516151004470
14251757 5 17095238086125325525
14251764 30 15938409050980674481
14341114 328 14045452406077133296
14863182 85 13998220973183114219
14950920 106 17346881169570561106
15163728 17 14926153407702302535
15183329 4 15647332997255531778
15361156 5 18187651318482793964
15799311 1 17988098750524878454
15880784 105 18131066077988043282
17627616 140 18190451658925480442
17780758 139 17489588961066454666
17870717 6 17676205758118313489
18927931 339 18341903935405547940
22956985 138 11953463334492537277
23419403 2 17544236725741502753
23559900 14 18338784693732278268
25122255 55 18339083684054685494
484985 159 18272368646848484591
4921388 177 17095243626975826809
508706 21 17821730494463381218
5104073 3 17346597491544549056
9709674 26 18041554870472503033

> <PUBCHEM_SHAPE_MULTIPOLES>
487.81
12.9
2.82
2.51
26.28
0.14
0.4
-7.95
-2.72
-1.62
-0.53
-3.05
-1.23
2

> <PUBCHEM_SHAPE_SELFOVERLAP>
981.306

> <PUBCHEM_SHAPE_VOLUME>
283.4

> <PUBCHEM_COORDINATE_TYPE>
2
5
10

$$$$
