11885331
  -OEChem-12032416213D

 56 60  0     1  0  0  0  0  0999 V2000
   -7.4724   -1.6927   -0.1435 S   0  0  0  0  0  0  0  0  0  0  0  0
   -1.9156    1.7431   -1.4291 O   0  0  0  0  0  0  0  0  0  0  0  0
    6.1477   -1.6254   -0.2429 O   0  0  0  0  0  0  0  0  0  0  0  0
    2.9738    0.8715   -0.7352 N   0  0  2  0  0  0  0  0  0  0  0  0
    0.0189    1.9131   -0.1380 N   0  0  0  0  0  0  0  0  0  0  0  0
    2.0894    3.2110   -0.9110 C   0  0  1  0  0  0  0  0  0  0  0  0
    2.1016    2.0884    1.2650 C   0  0  2  0  0  0  0  0  0  0  0  0
    2.3238    3.4327    0.5774 C   0  0  0  0  0  0  0  0  0  0  0  0
    3.0730    2.1505   -1.4494 C   0  0  0  0  0  0  0  0  0  0  0  0
    3.1122    1.0550    0.7173 C   0  0  0  0  0  0  0  0  0  0  0  0
    0.6219    2.8178   -1.1274 C   0  0  0  0  0  0  0  0  0  0  0  0
    0.6795    1.6034    1.0531 C   0  0  0  0  0  0  0  0  0  0  0  0
    3.9556   -0.0867   -1.2374 C   0  0  0  0  0  0  0  0  0  0  0  0
    0.0650    0.8668    1.9923 C   0  0  0  0  0  0  0  0  0  0  0  0
   -1.2890    1.4631   -0.4056 C   0  0  0  0  0  0  0  0  0  0  0  0
   -1.9390    0.6106    0.6510 C   0  0  0  0  0  0  0  0  0  0  0  0
   -1.2614    0.3602    1.7815 C   0  0  0  0  0  0  0  0  0  0  0  0
    3.7834   -1.4308   -0.5841 C   0  0  0  0  0  0  0  0  0  0  0  0
   -3.2875    0.0495    0.4566 C   0  0  0  0  0  0  0  0  0  0  0  0
    4.8889   -2.1320   -0.1199 C   0  0  0  0  0  0  0  0  0  0  0  0
    2.5029   -1.9544   -0.4548 C   0  0  0  0  0  0  0  0  0  0  0  0
   -4.4092    0.7679    0.8719 C   0  0  0  0  0  0  0  0  0  0  0  0
   -3.4441   -1.2010   -0.1424 C   0  0  0  0  0  0  0  0  0  0  0  0
    4.7115   -3.3770    0.4835 C   0  0  0  0  0  0  0  0  0  0  0  0
    2.3255   -3.1995    0.1486 C   0  0  0  0  0  0  0  0  0  0  0  0
    3.4298   -3.9108    0.6177 C   0  0  0  0  0  0  0  0  0  0  0  0
   -5.6859    0.2367    0.6884 C   0  0  0  0  0  0  0  0  0  0  0  0
   -4.7207   -1.7322   -0.3260 C   0  0  0  0  0  0  0  0  0  0  0  0
   -5.8416   -1.0134    0.0895 C   0  0  0  0  0  0  0  0  0  0  0  0
   -7.5381   -1.8852   -1.9473 C   0  0  0  0  0  0  0  0  0  0  0  0
    2.2798    4.1445   -1.4551 H   0  0  0  0  0  0  0  0  0  0  0  0
    2.2907    2.2210    2.3386 H   0  0  0  0  0  0  0  0  0  0  0  0
    1.6398    4.1948    0.9713 H   0  0  0  0  0  0  0  0  0  0  0  0
    3.3445    3.7921    0.7563 H   0  0  0  0  0  0  0  0  0  0  0  0
    2.8684    1.9911   -2.5155 H   0  0  0  0  0  0  0  0  0  0  0  0
    4.0939    2.5495   -1.3760 H   0  0  0  0  0  0  0  0  0  0  0  0
    4.1291    1.3932    0.9616 H   0  0  0  0  0  0  0  0  0  0  0  0
    2.9538    0.1215    1.2687 H   0  0  0  0  0  0  0  0  0  0  0  0
    0.0095    3.7297   -1.1049 H   0  0  0  0  0  0  0  0  0  0  0  0
    0.4816    2.3858   -2.1263 H   0  0  0  0  0  0  0  0  0  0  0  0
    4.9695    0.3059   -1.0926 H   0  0  0  0  0  0  0  0  0  0  0  0
    3.8225   -0.2311   -2.3176 H   0  0  0  0  0  0  0  0  0  0  0  0
    0.5580    0.6065    2.9231 H   0  0  0  0  0  0  0  0  0  0  0  0
   -1.6836   -0.2502    2.5745 H   0  0  0  0  0  0  0  0  0  0  0  0
    1.6286   -1.4269   -0.8262 H   0  0  0  0  0  0  0  0  0  0  0  0
   -4.3040    1.7440    1.3395 H   0  0  0  0  0  0  0  0  0  0  0  0
   -2.5799   -1.7735   -0.4706 H   0  0  0  0  0  0  0  0  0  0  0  0
    5.5627   -3.9423    0.8535 H   0  0  0  0  0  0  0  0  0  0  0  0
    1.3278   -3.6164    0.2502 H   0  0  0  0  0  0  0  0  0  0  0  0
    3.2915   -4.8806    1.0869 H   0  0  0  0  0  0  0  0  0  0  0  0
    6.7824   -2.2560    0.1383 H   0  0  0  0  0  0  0  0  0  0  0  0
   -6.5476    0.8116    1.0183 H   0  0  0  0  0  0  0  0  0  0  0  0
   -4.8174   -2.7112   -0.7884 H   0  0  0  0  0  0  0  0  0  0  0  0
   -7.3282   -0.9316   -2.4394 H   0  0  0  0  0  0  0  0  0  0  0  0
   -8.5400   -2.2141   -2.2355 H   0  0  0  0  0  0  0  0  0  0  0  0
   -6.8174   -2.6348   -2.2836 H   0  0  0  0  0  0  0  0  0  0  0  0
  1 29  1  0  0  0  0
  1 30  1  0  0  0  0
  2 15  2  0  0  0  0
  3 20  1  0  0  0  0
  3 51  1  0  0  0  0
  4  9  1  0  0  0  0
  4 10  1  0  0  0  0
  4 13  1  0  0  0  0
  5 11  1  0  0  0  0
  5 12  1  0  0  0  0
  5 15  1  0  0  0  0
  6  8  1  0  0  0  0
  6  9  1  0  0  0  0
  6 11  1  0  0  0  0
  6 31  1  0  0  0  0
  7  8  1  0  0  0  0
  7 10  1  0  0  0  0
  7 12  1  0  0  0  0
  7 32  1  0  0  0  0
  8 33  1  0  0  0  0
  8 34  1  0  0  0  0
  9 35  1  0  0  0  0
  9 36  1  0  0  0  0
 10 37  1  0  0  0  0
 10 38  1  0  0  0  0
 11 39  1  0  0  0  0
 11 40  1  0  0  0  0
 12 14  2  0  0  0  0
 13 18  1  0  0  0  0
 13 41  1  0  0  0  0
 13 42  1  0  0  0  0
 14 17  1  0  0  0  0
 14 43  1  0  0  0  0
 15 16  1  0  0  0  0
 16 17  2  0  0  0  0
 16 19  1  0  0  0  0
 17 44  1  0  0  0  0
 18 20  1  0  0  0  0
 18 21  2  0  0  0  0
 19 22  2  0  0  0  0
 19 23  1  0  0  0  0
 20 24  2  0  0  0  0
 21 25  1  0  0  0  0
 21 45  1  0  0  0  0
 22 27  1  0  0  0  0
 22 46  1  0  0  0  0
 23 28  2  0  0  0  0
 23 47  1  0  0  0  0
 24 26  1  0  0  0  0
 24 48  1  0  0  0  0
 25 26  2  0  0  0  0
 25 49  1  0  0  0  0
 26 50  1  0  0  0  0
 27 29  2  0  0  0  0
 27 52  1  0  0  0  0
 28 29  1  0  0  0  0
 28 53  1  0  0  0  0
 30 54  1  0  0  0  0
 30 55  1  0  0  0  0
 30 56  1  0  0  0  0
M  END
> <PUBCHEM_COMPOUND_CID>
11885331

> <PUBCHEM_CONFORMER_RMSD>
0.8

> <PUBCHEM_CONFORMER_DIVERSEORDER>
1
18
14
4
15
9
6
12
17
11
3
16
10
13
5
8
7
2

> <PUBCHEM_MMFF94_PARTIAL_CHARGES>
39
1 -0.33
10 0.27
11 0.3
12 -0.03
13 0.41
14 -0.15
15 0.62
16 -0.01
17 -0.15
18 -0.14
19 0.03
2 -0.57
20 0.08
21 -0.15
22 -0.15
23 -0.15
24 -0.15
25 -0.15
26 -0.15
27 -0.15
28 -0.15
29 0.1
3 -0.53
30 0.23
4 -0.81
43 0.15
44 0.15
45 0.15
46 0.15
47 0.15
48 0.15
49 0.15
5 -0.47
50 0.15
51 0.45
52 0.15
53 0.15
7 0.14
9 0.27

> <PUBCHEM_EFFECTIVE_ROTOR_COUNT>
5

> <PUBCHEM_PHARMACOPHORE_FEATURES>
9
1 2 acceptor
1 3 donor
1 30 hydrophobe
1 4 cation
6 18 20 21 24 25 26 rings
6 19 22 23 27 28 29 rings
6 4 6 7 8 9 10 rings
6 5 12 14 15 16 17 rings
6 5 6 7 8 11 12 rings

> <PUBCHEM_HEAVY_ATOM_COUNT>
30

> <PUBCHEM_ATOM_DEF_STEREO_COUNT>
2

> <PUBCHEM_ATOM_UDEF_STEREO_COUNT>
0

> <PUBCHEM_BOND_DEF_STEREO_COUNT>
0

> <PUBCHEM_BOND_UDEF_STEREO_COUNT>
0

> <PUBCHEM_ISOTOPIC_ATOM_COUNT>
0

> <PUBCHEM_COMPONENT_COUNT>
1

> <PUBCHEM_CACTVS_TAUTO_COUNT>
3

> <PUBCHEM_CONFORMER_ID>
00B55B1300000001

> <PUBCHEM_MMFF94_ENERGY>
87.8631

> <PUBCHEM_FEATURE_SELFOVERLAP>
47.225

> <PUBCHEM_SHAPE_FINGERPRINT>
10622 236 18341328882134683067
10693767 8 18335976532713905875
11135609 149 18263903519473912141
11796584 16 17703524284721323045
11963148 33 17909824681053645135
12107183 9 18198074573388479001
12147406 95 17750489846212607531
12166972 35 17968950669507091550
12522641 33 18266739276469888584
12717326 68 17755563964075363114
13533116 47 18272090556437975841
1361 2 18335706108117698827
13631057 29 18193002513712487134
13782708 43 17059777853747407783
13911987 19 17827394187097668108
14068700 675 18272090457463863362
14117953 113 18054514599581434479
14251751 18 18339643338997673819
14347332 77 18343301458093183449
1454969 45 18335431149835516998
15001296 14 17987511696967513967
15250474 111 18272932769476158095
15475509 35 17988638623049481451
17134984 74 18338240491036511591
19026451 147 18411140204066238538
19315092 285 18060420226725894129
19958102 18 18337663218432541511
20567600 247 18412826884914796019
20775438 99 18191294073641924843
20775530 9 18265612079044812694
21033650 10 16588019062208101053
21133410 171 17027651003440337658
21703447 108 18130784589884487664
23559900 14 18261398896220345905
23569914 152 17684897273952652943
23569943 247 18262802861639131283
3004659 81 17988373632188719069
345986 75 17917997144111245881
439807 62 18411422817594254891
46194498 28 17749672986134733164
463206 1 18335994094660989106
5309563 4 18339081484656584438
5951187 136 14996289162203459310
59682541 52 18335134332871673735
70251023 43 18334577927805099777
9555976 147 17632307718668845481

> <PUBCHEM_SHAPE_MULTIPOLES>
599.53
15.39
4.51
1.48
27.01
1.36
0.01
14.63
-3.95
-6.96
-0.26
0.46
-0.56
-1.62

> <PUBCHEM_SHAPE_SELFOVERLAP>
1302.384

> <PUBCHEM_SHAPE_VOLUME>
328.7

> <PUBCHEM_COORDINATE_TYPE>
2
5
10

$$$$
