11885339
  -OEChem-12032416413D

 62 66  0     1  0  0  0  0  0999 V2000
   -1.7152   -2.1340    1.5662 O   0  0  0  0  0  0  0  0  0  0  0  0
    3.0641   -0.9257    0.6464 N   0  0  2  0  0  0  0  0  0  0  0  0
    0.1617   -2.1645    0.1827 N   0  0  0  0  0  0  0  0  0  0  0  0
   -2.6549    2.9924    0.4260 N   0  0  0  0  0  0  0  0  0  0  0  0
    2.3510   -3.3212    0.8449 C   0  0  1  0  0  0  0  0  0  0  0  0
    2.1814   -2.1896   -1.3198 C   0  0  2  0  0  0  0  0  0  0  0  0
    2.5278   -3.5189   -0.6547 C   0  0  0  0  0  0  0  0  0  0  0  0
    3.2847   -2.1984    1.3444 C   0  0  0  0  0  0  0  0  0  0  0  0
    3.1444   -1.0920   -0.8126 C   0  0  0  0  0  0  0  0  0  0  0  0
    0.8722   -3.0306    1.1345 C   0  0  0  0  0  0  0  0  0  0  0  0
    0.7414   -1.8043   -1.0361 C   0  0  0  0  0  0  0  0  0  0  0  0
    4.0013    0.0951    1.1089 C   0  0  0  0  0  0  0  0  0  0  0  0
    0.0334   -1.1070   -1.9387 C   0  0  0  0  0  0  0  0  0  0  0  0
   -1.1593   -1.8066    0.5162 C   0  0  0  0  0  0  0  0  0  0  0  0
   -1.9163   -0.9954   -0.5010 C   0  0  0  0  0  0  0  0  0  0  0  0
   -1.3127   -0.6935   -1.6605 C   0  0  0  0  0  0  0  0  0  0  0  0
    3.7218    1.4369    0.4857 C   0  0  0  0  0  0  0  0  0  0  0  0
   -3.2890   -0.5291   -0.2377 C   0  0  0  0  0  0  0  0  0  0  0  0
    4.3391    1.7769   -0.7100 C   0  0  0  0  0  0  0  0  0  0  0  0
    2.8512    2.3150    1.1157 C   0  0  0  0  0  0  0  0  0  0  0  0
   -3.5352    0.7003    0.3777 C   0  0  0  0  0  0  0  0  0  0  0  0
   -4.3601   -1.3417   -0.6156 C   0  0  0  0  0  0  0  0  0  0  0  0
    4.0806    3.0201   -1.2873 C   0  0  0  0  0  0  0  0  0  0  0  0
    2.5924    3.5582    0.5384 C   0  0  0  0  0  0  0  0  0  0  0  0
   -2.4157    1.5980    0.7972 C   0  0  0  0  0  0  0  0  0  0  0  0
   -4.8459    1.1147    0.6140 C   0  0  0  0  0  0  0  0  0  0  0  0
    3.2072    3.9107   -0.6630 C   0  0  0  0  0  0  0  0  0  0  0  0
   -5.6708   -0.9272   -0.3792 C   0  0  0  0  0  0  0  0  0  0  0  0
   -5.9137    0.3010    0.2356 C   0  0  0  0  0  0  0  0  0  0  0  0
   -2.8004    3.1174   -1.0238 C   0  0  0  0  0  0  0  0  0  0  0  0
   -1.5665    3.8429    0.9059 C   0  0  0  0  0  0  0  0  0  0  0  0
    2.6307   -4.2421    1.3716 H   0  0  0  0  0  0  0  0  0  0  0  0
    2.3265   -2.3031   -2.4024 H   0  0  0  0  0  0  0  0  0  0  0  0
    1.8793   -4.3242   -1.0218 H   0  0  0  0  0  0  0  0  0  0  0  0
    3.5608   -3.8063   -0.8853 H   0  0  0  0  0  0  0  0  0  0  0  0
    3.1214   -2.0593    2.4204 H   0  0  0  0  0  0  0  0  0  0  0  0
    4.3260   -2.5253    1.2187 H   0  0  0  0  0  0  0  0  0  0  0  0
    4.1680   -1.3451   -1.1205 H   0  0  0  0  0  0  0  0  0  0  0  0
    2.8532   -0.1770   -1.3372 H   0  0  0  0  0  0  0  0  0  0  0  0
    0.3231   -3.9822    1.1338 H   0  0  0  0  0  0  0  0  0  0  0  0
    0.7512   -2.6143    2.1425 H   0  0  0  0  0  0  0  0  0  0  0  0
    3.9310    0.1994    2.2001 H   0  0  0  0  0  0  0  0  0  0  0  0
    5.0418   -0.1954    0.9069 H   0  0  0  0  0  0  0  0  0  0  0  0
    0.4619   -0.8088   -2.8899 H   0  0  0  0  0  0  0  0  0  0  0  0
   -1.8133   -0.1087   -2.4267 H   0  0  0  0  0  0  0  0  0  0  0  0
    5.0331    1.1004   -1.2009 H   0  0  0  0  0  0  0  0  0  0  0  0
    2.3648    2.0499    2.0502 H   0  0  0  0  0  0  0  0  0  0  0  0
   -4.1894   -2.3030   -1.0947 H   0  0  0  0  0  0  0  0  0  0  0  0
    4.5617    3.2961   -2.2211 H   0  0  0  0  0  0  0  0  0  0  0  0
    1.9133    4.2522    1.0248 H   0  0  0  0  0  0  0  0  0  0  0  0
   -1.4450    1.2825    0.4007 H   0  0  0  0  0  0  0  0  0  0  0  0
   -2.3368    1.5186    1.8901 H   0  0  0  0  0  0  0  0  0  0  0  0
   -5.0632    2.0591    1.1062 H   0  0  0  0  0  0  0  0  0  0  0  0
    3.0063    4.8790   -1.1120 H   0  0  0  0  0  0  0  0  0  0  0  0
   -6.5023   -1.5613   -0.6727 H   0  0  0  0  0  0  0  0  0  0  0  0
   -6.9343    0.6218    0.4230 H   0  0  0  0  0  0  0  0  0  0  0  0
   -3.6875    2.6073   -1.4111 H   0  0  0  0  0  0  0  0  0  0  0  0
   -1.9218    2.7402   -1.5609 H   0  0  0  0  0  0  0  0  0  0  0  0
   -2.9298    4.1712   -1.2987 H   0  0  0  0  0  0  0  0  0  0  0  0
   -1.4711    3.7710    1.9950 H   0  0  0  0  0  0  0  0  0  0  0  0
   -0.6041    3.5752    0.4562 H   0  0  0  0  0  0  0  0  0  0  0  0
   -1.7716    4.8950    0.6787 H   0  0  0  0  0  0  0  0  0  0  0  0
  1 14  2  0  0  0  0
  2  8  1  0  0  0  0
  2  9  1  0  0  0  0
  2 12  1  0  0  0  0
  3 10  1  0  0  0  0
  3 11  1  0  0  0  0
  3 14  1  0  0  0  0
  4 25  1  0  0  0  0
  4 30  1  0  0  0  0
  4 31  1  0  0  0  0
  5  7  1  0  0  0  0
  5  8  1  0  0  0  0
  5 10  1  0  0  0  0
  5 32  1  0  0  0  0
  6  7  1  0  0  0  0
  6  9  1  0  0  0  0
  6 11  1  0  0  0  0
  6 33  1  0  0  0  0
  7 34  1  0  0  0  0
  7 35  1  0  0  0  0
  8 36  1  0  0  0  0
  8 37  1  0  0  0  0
  9 38  1  0  0  0  0
  9 39  1  0  0  0  0
 10 40  1  0  0  0  0
 10 41  1  0  0  0  0
 11 13  2  0  0  0  0
 12 17  1  0  0  0  0
 12 42  1  0  0  0  0
 12 43  1  0  0  0  0
 13 16  1  0  0  0  0
 13 44  1  0  0  0  0
 14 15  1  0  0  0  0
 15 16  2  0  0  0  0
 15 18  1  0  0  0  0
 16 45  1  0  0  0  0
 17 19  2  0  0  0  0
 17 20  1  0  0  0  0
 18 21  1  0  0  0  0
 18 22  2  0  0  0  0
 19 23  1  0  0  0  0
 19 46  1  0  0  0  0
 20 24  2  0  0  0  0
 20 47  1  0  0  0  0
 21 25  1  0  0  0  0
 21 26  2  0  0  0  0
 22 28  1  0  0  0  0
 22 48  1  0  0  0  0
 23 27  2  0  0  0  0
 23 49  1  0  0  0  0
 24 27  1  0  0  0  0
 24 50  1  0  0  0  0
 25 51  1  0  0  0  0
 25 52  1  0  0  0  0
 26 29  1  0  0  0  0
 26 53  1  0  0  0  0
 27 54  1  0  0  0  0
 28 29  2  0  0  0  0
 28 55  1  0  0  0  0
 29 56  1  0  0  0  0
 30 57  1  0  0  0  0
 30 58  1  0  0  0  0
 30 59  1  0  0  0  0
 31 60  1  0  0  0  0
 31 61  1  0  0  0  0
 31 62  1  0  0  0  0
M  END
> <PUBCHEM_COMPOUND_CID>
11885339

> <PUBCHEM_CONFORMER_RMSD>
0.8

> <PUBCHEM_CONFORMER_DIVERSEORDER>
1
8
11
13
4
9
6
7
2
12
3
5
10

> <PUBCHEM_MMFF94_PARTIAL_CHARGES>
40
1 -0.57
10 0.3
11 -0.03
12 0.41
13 -0.15
14 0.62
15 -0.01
16 -0.15
17 -0.14
18 0.03
19 -0.15
2 -0.81
20 -0.15
21 -0.14
22 -0.15
23 -0.15
24 -0.15
25 0.41
26 -0.15
27 -0.15
28 -0.15
29 -0.15
3 -0.47
30 0.27
31 0.27
4 -0.81
44 0.15
45 0.15
46 0.15
47 0.15
48 0.15
49 0.15
50 0.15
53 0.15
54 0.15
55 0.15
56 0.15
6 0.14
8 0.27
9 0.27

> <PUBCHEM_EFFECTIVE_ROTOR_COUNT>
6

> <PUBCHEM_PHARMACOPHORE_FEATURES>
8
1 1 acceptor
1 2 cation
1 4 cation
6 17 19 20 23 24 27 rings
6 18 21 22 26 28 29 rings
6 2 5 6 7 8 9 rings
6 3 11 13 14 15 16 rings
6 3 5 6 7 10 11 rings

> <PUBCHEM_HEAVY_ATOM_COUNT>
31

> <PUBCHEM_ATOM_DEF_STEREO_COUNT>
2

> <PUBCHEM_ATOM_UDEF_STEREO_COUNT>
0

> <PUBCHEM_BOND_DEF_STEREO_COUNT>
0

> <PUBCHEM_BOND_UDEF_STEREO_COUNT>
0

> <PUBCHEM_ISOTOPIC_ATOM_COUNT>
0

> <PUBCHEM_COMPONENT_COUNT>
1

> <PUBCHEM_CACTVS_TAUTO_COUNT>
1

> <PUBCHEM_CONFORMER_ID>
00B55B1B00000001

> <PUBCHEM_MMFF94_ENERGY>
95.7824

> <PUBCHEM_FEATURE_SELFOVERLAP>
42.151

> <PUBCHEM_SHAPE_FINGERPRINT>
10165383 225 17967820483407153390
10483366 6 18339098034062290966
11578080 2 18192171454214484171
11796584 16 12324247118327048675
12107698 1 18342456985232946830
12156800 1 15957878223490382264
12633257 1 17896020166178417450
12978246 48 18412820274691466112
13122387 1 17907861708640940200
13560911 43 18261390005769957944
13583140 156 18045206155741872863
1361 2 18194118753526244385
14114211 80 17983033419971350569
14251764 38 18337955571807317729
14787075 74 18337385054406156279
14849402 71 18334859407604350010
15001296 14 18118121596509684308
151778 21 18334852878969132428
15264996 154 18410017615616221190
15475509 84 16531439030633571970
15961568 22 18413109463344888501
16067690 210 15285916897206139901
161222 619 17973748035964241243
17349148 13 17024044674558258499
19315092 285 17097462432972162035
19930381 70 18410288142525654441
20465049 17 18341345465340562292
20764821 26 18195520626292518688
21623110 236 18342745105114791265
21860390 5 18341892931731399934
23559900 14 17774447049315298175
245318 6 17752216229702634716
3298306 158 18342171219684277089
338550 245 18410854348069930984
392239 28 18335707165191759907
474 4 18410007775460575846
5081480 168 17413631330934581062
5312544 6 18409727399889906945
5776283 40 18126303058859562508
6086070 43 17900238833069342927
6371009 1 18337936978898681200
7288768 16 17754446073996514528

> <PUBCHEM_SHAPE_MULTIPOLES>
617.15
10.59
5.48
1.48
9.09
3
0.23
4.14
-0.29
-4.8
-0.4
-0.64
-0.33
-1

> <PUBCHEM_SHAPE_SELFOVERLAP>
1346.819

> <PUBCHEM_SHAPE_VOLUME>
330

> <PUBCHEM_COORDINATE_TYPE>
2
5
10

$$$$
