75536777
  -OEChem-12032416313D

 47 49  0     1  0  0  0  0  0999 V2000
   -0.1624   -1.2557    0.0224 O   0  0  0  0  0  0  0  0  0  0  0  0
   -1.1543    2.1144    0.7733 O   0  0  0  0  0  0  0  0  0  0  0  0
    3.4172    1.3528    0.5983 O   0  0  0  0  0  0  0  0  0  0  0  0
   -3.5197    0.1371    0.1635 N   0  0  0  0  0  0  0  0  0  0  0  0
    2.3548   -0.5964    1.2476 N   0  0  0  0  0  0  0  0  0  0  0  0
    4.5110   -0.7186    0.4453 N   0  0  0  0  0  0  0  0  0  0  0  0
   -7.9407    1.0524   -0.7018 N   0  0  0  0  0  0  0  0  0  0  0  0
   -2.1107    0.0859   -0.1914 C   0  0  1  0  0  0  0  0  0  0  0  0
   -1.1972    0.7028    0.8514 C   0  0  1  0  0  0  0  0  0  0  0  0
    0.1387    0.0729    0.4805 C   0  0  1  0  0  0  0  0  0  0  0  0
   -1.5700   -1.3327   -0.2636 C   0  0  0  0  0  0  0  0  0  0  0  0
    1.1143    0.0067    1.6419 C   0  0  0  0  0  0  0  0  0  0  0  0
   -4.3629   -0.1503   -0.9907 C   0  0  0  0  0  0  0  0  0  0  0  0
   -5.8261   -0.1180   -0.6379 C   0  0  0  0  0  0  0  0  0  0  0  0
    3.4433    0.1328    0.7426 C   0  0  0  0  0  0  0  0  0  0  0  0
   -6.4206   -1.1695    0.0509 C   0  0  0  0  0  0  0  0  0  0  0  0
   -6.6227    0.9603   -0.9884 C   0  0  0  0  0  0  0  0  0  0  0  0
   -7.7741   -1.1113    0.3637 C   0  0  0  0  0  0  0  0  0  0  0  0
    5.7781   -0.3715   -0.0791 C   0  0  0  0  0  0  0  0  0  0  0  0
   -8.4835    0.0114   -0.0314 C   0  0  0  0  0  0  0  0  0  0  0  0
    6.7300   -1.3631   -0.3162 C   0  0  0  0  0  0  0  0  0  0  0  0
    6.0756    0.9620   -0.3590 C   0  0  0  0  0  0  0  0  0  0  0  0
    7.9796   -1.0210   -0.8330 C   0  0  0  0  0  0  0  0  0  0  0  0
    7.3251    1.3043   -0.8759 C   0  0  0  0  0  0  0  0  0  0  0  0
    8.2771    0.3127   -1.1129 C   0  0  0  0  0  0  0  0  0  0  0  0
   -1.9400    0.6078   -1.1437 H   0  0  0  0  0  0  0  0  0  0  0  0
   -1.5030    0.4138    1.8647 H   0  0  0  0  0  0  0  0  0  0  0  0
    0.6020    0.6102   -0.3576 H   0  0  0  0  0  0  0  0  0  0  0  0
   -2.0174   -1.9883    0.4924 H   0  0  0  0  0  0  0  0  0  0  0  0
   -1.7152   -1.7909   -1.2466 H   0  0  0  0  0  0  0  0  0  0  0  0
    0.7123   -0.6176    2.4475 H   0  0  0  0  0  0  0  0  0  0  0  0
    1.3086    1.0076    2.0416 H   0  0  0  0  0  0  0  0  0  0  0  0
   -3.7419    1.0707    0.5103 H   0  0  0  0  0  0  0  0  0  0  0  0
   -4.1373   -1.1423   -1.4021 H   0  0  0  0  0  0  0  0  0  0  0  0
   -4.1696    0.5708   -1.7956 H   0  0  0  0  0  0  0  0  0  0  0  0
   -0.8841    2.3628   -0.1269 H   0  0  0  0  0  0  0  0  0  0  0  0
    2.4437   -1.6048    1.3266 H   0  0  0  0  0  0  0  0  0  0  0  0
   -5.8392   -2.0380    0.3480 H   0  0  0  0  0  0  0  0  0  0  0  0
   -6.2174    1.8126   -1.5250 H   0  0  0  0  0  0  0  0  0  0  0  0
    4.3679   -1.7094    0.6243 H   0  0  0  0  0  0  0  0  0  0  0  0
   -8.2586   -1.9193    0.8999 H   0  0  0  0  0  0  0  0  0  0  0  0
   -9.5419    0.1053    0.1884 H   0  0  0  0  0  0  0  0  0  0  0  0
    6.5110   -2.4062   -0.1025 H   0  0  0  0  0  0  0  0  0  0  0  0
    5.3924    1.7848   -0.2027 H   0  0  0  0  0  0  0  0  0  0  0  0
    8.7210   -1.7929   -1.0176 H   0  0  0  0  0  0  0  0  0  0  0  0
    7.5581    2.3425   -1.0943 H   0  0  0  0  0  0  0  0  0  0  0  0
    9.2501    0.5792   -1.5153 H   0  0  0  0  0  0  0  0  0  0  0  0
  1 10  1  0  0  0  0
  1 11  1  0  0  0  0
  2  9  1  0  0  0  0
  2 36  1  0  0  0  0
  3 15  2  0  0  0  0
  4  8  1  0  0  0  0
  4 13  1  0  0  0  0
  4 33  1  0  0  0  0
  5 12  1  0  0  0  0
  5 15  1  0  0  0  0
  5 37  1  0  0  0  0
  6 15  1  0  0  0  0
  6 19  1  0  0  0  0
  6 40  1  0  0  0  0
  7 17  1  0  0  0  0
  7 20  2  0  0  0  0
  8  9  1  0  0  0  0
  8 11  1  0  0  0  0
  8 26  1  0  0  0  0
  9 10  1  0  0  0  0
  9 27  1  0  0  0  0
 10 12  1  0  0  0  0
 10 28  1  0  0  0  0
 11 29  1  0  0  0  0
 11 30  1  0  0  0  0
 12 31  1  0  0  0  0
 12 32  1  0  0  0  0
 13 14  1  0  0  0  0
 13 34  1  0  0  0  0
 13 35  1  0  0  0  0
 14 16  1  0  0  0  0
 14 17  2  0  0  0  0
 16 18  2  0  0  0  0
 16 38  1  0  0  0  0
 17 39  1  0  0  0  0
 18 20  1  0  0  0  0
 18 41  1  0  0  0  0
 19 21  2  0  0  0  0
 19 22  1  0  0  0  0
 20 42  1  0  0  0  0
 21 23  1  0  0  0  0
 21 43  1  0  0  0  0
 22 24  2  0  0  0  0
 22 44  1  0  0  0  0
 23 25  2  0  0  0  0
 23 45  1  0  0  0  0
 24 25  1  0  0  0  0
 24 46  1  0  0  0  0
 25 47  1  0  0  0  0
M  END
> <PUBCHEM_COMPOUND_CID>
75536777

> <PUBCHEM_CONFORMER_RMSD>
1

> <PUBCHEM_CONFORMER_DIVERSEORDER>
1
127
145
96
98
135
182
120
124
24
202
30
133
45
64
72
140
156
159
146
162
5
69
79
57
111
43
168
99
207
77
121
180
179
4
131
12
175
181
6
200
23
100
44
123
106
71
151
142
9
165
73
130
198
58
178
199
189
167
118
90
33
92
47
36
78
172
125
19
27
171
2
186
205
152
206
188
109
169
154
148
17
185
105
48
91
28
21
166
51
89
7
93
49
197
176
74
147
174
201
68
163
184
85
76
31
139
61
97
103
150
22
193
204
40
157
65
62
144
196
82
59
183
153
16
143
66
110
160
84
104
18
141
3
134
52
112
164
136
195
102
116
117
53
14
56
11
149
194
10
114
63
95
158
13
35
187
107
108
55
88
170
32
122
173
15
8
132
113
67
94
137
83
119
87
26
80
39
161
155
86
128
190
29
191
177
129
34
37
70
126
81
203
138
60
192
75
54
38
101
20
46
42
25
41
115
50

> <PUBCHEM_MMFF94_PARTIAL_CHARGES>
38
1 -0.56
10 0.28
11 0.28
12 0.3
13 0.41
14 -0.14
15 0.69
16 -0.15
17 0.16
18 -0.15
19 0.12
2 -0.68
20 0.16
21 -0.15
22 -0.15
23 -0.15
24 -0.15
25 -0.15
3 -0.57
33 0.36
36 0.4
37 0.37
38 0.15
39 0.15
4 -0.9
40 0.37
41 0.15
42 0.15
43 0.15
44 0.15
45 0.15
46 0.15
47 0.15
5 -0.73
6 -0.55
7 -0.62
8 0.27
9 0.28

> <PUBCHEM_EFFECTIVE_ROTOR_COUNT>
9

> <PUBCHEM_PHARMACOPHORE_FEATURES>
12
1 1 acceptor
1 2 acceptor
1 2 donor
1 3 acceptor
1 4 cation
1 4 donor
1 5 donor
1 6 donor
1 7 acceptor
5 1 8 9 10 11 rings
6 19 21 22 23 24 25 rings
6 7 14 16 17 18 20 rings

> <PUBCHEM_HEAVY_ATOM_COUNT>
25

> <PUBCHEM_ATOM_DEF_STEREO_COUNT>
3

> <PUBCHEM_ATOM_UDEF_STEREO_COUNT>
0

> <PUBCHEM_BOND_DEF_STEREO_COUNT>
0

> <PUBCHEM_BOND_UDEF_STEREO_COUNT>
0

> <PUBCHEM_ISOTOPIC_ATOM_COUNT>
0

> <PUBCHEM_COMPONENT_COUNT>
1

> <PUBCHEM_CACTVS_TAUTO_COUNT>
3

> <PUBCHEM_CONFORMER_ID>
0480998900000001

> <PUBCHEM_MMFF94_ENERGY>
60.7159

> <PUBCHEM_FEATURE_SELFOVERLAP>
60.948

> <PUBCHEM_SHAPE_FINGERPRINT>
10 15 8070024472003907570
10066227 49 18200596895928062310
10162869 55 13118288109390307083
10299344 5 17918277549440658563
106641 1 11963395141537253269
10670039 82 18131070394773619481
10883706 142 16515398582820316706
11315181 36 17313100848994024397
11524674 6 14620791617570179885
11638347 137 9511467727770949028
12592606 108 16773790424848833847
13673619 4 16845570907259473920
13685833 64 15195565702420941450
13885169 127 13039193593674050571
14216079 64 14907904860317825748
14251764 46 18342457041689643446
14347424 109 12823005444283521442
14856354 85 18411979192205622535
14933364 13 18260826008123999661
15183329 4 18060700580715983986
15690457 1 12463566279167780533
15849732 13 18186802495421501575
16994733 274 16009020645225565381
1754911 235 17821444660347683255
18335252 98 17967535670797923739
19301679 30 11383573157071938452
20105231 36 18342177782758380187
20554085 129 14273731889397748008
20735858 18 8430316848360683080
21095086 128 17846776343558935479
21150785 3 18040716969655235278
21267235 1 18273496784364768777
21403212 168 11312060937200911653
21792934 111 10447928351862642994
221357 26 18411981356674305032
22224240 67 14129058118742945456
23559900 14 17845079839628938008
23576562 1 18192139607290044485
246663 6 17346882251506615179
24771293 8 13406791095532280663
249057 25 12391237170467716563
28498 318 15841835538149777213
335352 9 18272083916713844623
4107672 100 18410007728801160557
4339292 15 11098154279819837401
439807 62 17703793596619897862
444769 64 16630805534995610551
5219985 9 16271928211837230520
5283156 175 18131352999289155620
5470011 282 18410577288709263478
5758199 1 16153706514174194051
59682541 35 13406799925995278733
6394761 36 16271927121131690991
67123 10 17967253109273315767
9689198 14 18040434386598191487

> <PUBCHEM_SHAPE_MULTIPOLES>
476.96
29.91
1.4
1.11
2
0.16
-0.14
-0.56
10.93
-0.36
0.02
-0.51
0.11
0.33

> <PUBCHEM_SHAPE_SELFOVERLAP>
1005.702

> <PUBCHEM_SHAPE_VOLUME>
266.4

> <PUBCHEM_COORDINATE_TYPE>
2
5
10

$$$$
