56775545
  -OEChem-12032416323D

 42 44  0     0  0  0  0  0  0999 V2000
   -0.5225   -3.4489    1.2940 O   0  0  0  0  0  0  0  0  0  0  0  0
   -3.5319    0.2653    0.0085 O   0  0  0  0  0  0  0  0  0  0  0  0
    4.2442   -0.6168   -0.1243 O   0  0  0  0  0  0  0  0  0  0  0  0
    4.6857    2.1207    1.0395 O   0  0  0  0  0  0  0  0  0  0  0  0
   -6.5279    0.3244   -0.2123 O   0  0  0  0  0  0  0  0  0  0  0  0
   -0.5738   -0.5856    0.3180 N   0  0  0  0  0  0  0  0  0  0  0  0
    3.2997   -1.6145   -0.3324 N   0  0  0  0  0  0  0  0  0  0  0  0
    0.0606   -1.8568   -0.0026 C   0  0  0  0  0  0  0  0  0  0  0  0
   -0.9982   -2.9535    0.0218 C   0  0  0  0  0  0  0  0  0  0  0  0
    0.5633   -2.4942    1.2876 C   0  0  0  0  0  0  0  0  0  0  0  0
    0.9853   -1.7675   -1.1778 C   0  0  0  0  0  0  0  0  0  0  0  0
   -1.2820   -0.0770   -0.8542 C   0  0  0  0  0  0  0  0  0  0  0  0
    2.2308   -0.9815   -0.8241 C   0  0  0  0  0  0  0  0  0  0  0  0
   -2.4042    0.8513   -0.4721 C   0  0  0  0  0  0  0  0  0  0  0  0
    2.4402    0.4029   -0.9471 C   0  0  0  0  0  0  0  0  0  0  0  0
    3.7207    0.5800   -0.4940 C   0  0  0  0  0  0  0  0  0  0  0  0
   -2.5460    2.2193   -0.5037 C   0  0  0  0  0  0  0  0  0  0  0  0
   -4.4036    1.2702    0.2870 C   0  0  0  0  0  0  0  0  0  0  0  0
   -3.8445    2.4913   -0.0105 C   0  0  0  0  0  0  0  0  0  0  0  0
    4.5910    1.7518   -0.3391 C   0  0  0  0  0  0  0  0  0  0  0  0
   -5.7098    0.8670    0.8269 C   0  0  0  0  0  0  0  0  0  0  0  0
    5.5230    3.2521    1.2112 C   0  0  0  0  0  0  0  0  0  0  0  0
   -2.0512   -2.6600    0.0866 H   0  0  0  0  0  0  0  0  0  0  0  0
   -0.8989   -3.7229   -0.7517 H   0  0  0  0  0  0  0  0  0  0  0  0
    1.5198   -3.0231    1.2309 H   0  0  0  0  0  0  0  0  0  0  0  0
    0.5592   -1.8767    2.1922 H   0  0  0  0  0  0  0  0  0  0  0  0
    1.3080   -2.7771   -1.4707 H   0  0  0  0  0  0  0  0  0  0  0  0
    0.5271   -1.3559   -2.0835 H   0  0  0  0  0  0  0  0  0  0  0  0
    0.0508    0.1325    0.6827 H   0  0  0  0  0  0  0  0  0  0  0  0
   -1.7313   -0.8754   -1.4588 H   0  0  0  0  0  0  0  0  0  0  0  0
   -0.5979    0.4753   -1.5085 H   0  0  0  0  0  0  0  0  0  0  0  0
    1.7664    1.1634   -1.3123 H   0  0  0  0  0  0  0  0  0  0  0  0
   -1.8072    2.9328   -0.8393 H   0  0  0  0  0  0  0  0  0  0  0  0
   -4.3119    3.4579    0.1117 H   0  0  0  0  0  0  0  0  0  0  0  0
    5.5922    1.5243   -0.7242 H   0  0  0  0  0  0  0  0  0  0  0  0
    4.1877    2.5959   -0.9112 H   0  0  0  0  0  0  0  0  0  0  0  0
   -5.5887    0.1049    1.6034 H   0  0  0  0  0  0  0  0  0  0  0  0
   -6.2339    1.7239    1.2617 H   0  0  0  0  0  0  0  0  0  0  0  0
    5.5632    3.4928    2.2770 H   0  0  0  0  0  0  0  0  0  0  0  0
    5.1183    4.1160    0.6750 H   0  0  0  0  0  0  0  0  0  0  0  0
    6.5385    3.0360    0.8652 H   0  0  0  0  0  0  0  0  0  0  0  0
   -7.3743    0.0736    0.1957 H   0  0  0  0  0  0  0  0  0  0  0  0
  1  9  1  0  0  0  0
  1 10  1  0  0  0  0
  2 14  1  0  0  0  0
  2 18  1  0  0  0  0
  3  7  1  0  0  0  0
  3 16  1  0  0  0  0
  4 20  1  0  0  0  0
  4 22  1  0  0  0  0
  5 21  1  0  0  0  0
  5 42  1  0  0  0  0
  6  8  1  0  0  0  0
  6 12  1  0  0  0  0
  6 29  1  0  0  0  0
  7 13  2  0  0  0  0
  8  9  1  0  0  0  0
  8 10  1  0  0  0  0
  8 11  1  0  0  0  0
  9 23  1  0  0  0  0
  9 24  1  0  0  0  0
 10 25  1  0  0  0  0
 10 26  1  0  0  0  0
 11 13  1  0  0  0  0
 11 27  1  0  0  0  0
 11 28  1  0  0  0  0
 12 14  1  0  0  0  0
 12 30  1  0  0  0  0
 12 31  1  0  0  0  0
 13 15  1  0  0  0  0
 14 17  2  0  0  0  0
 15 16  2  0  0  0  0
 15 32  1  0  0  0  0
 16 20  1  0  0  0  0
 17 19  1  0  0  0  0
 17 33  1  0  0  0  0
 18 19  2  0  0  0  0
 18 21  1  0  0  0  0
 19 34  1  0  0  0  0
 20 35  1  0  0  0  0
 20 36  1  0  0  0  0
 21 37  1  0  0  0  0
 21 38  1  0  0  0  0
 22 39  1  0  0  0  0
 22 40  1  0  0  0  0
 22 41  1  0  0  0  0
M  END
> <PUBCHEM_COMPOUND_CID>
56775545

> <PUBCHEM_CONFORMER_RMSD>
0.8

> <PUBCHEM_CONFORMER_DIVERSEORDER>
1
164
151
77
60
27
114
131
135
95
122
39
22
144
115
177
120
124
166
127
86
15
161
136
91
138
28
101
57
11
172
171
150
76
155
146
75
142
87
20
90
175
116
74
106
93
29
126
168
79
94
69
102
179
110
67
68
149
47
167
62
89
23
66
178
43
103
13
173
71
148
30
17
98
139
59
37
92
31
113
78
48
174
50
157
118
80
24
128
141
104
156
109
38
45
132
10
63
97
88
112
25
163
82
44
170
140
147
100
41
5
61
65
119
162
3
32
81
134
8
154
53
4
56
137
21
143
152
58
83
105
42
96
176
72
2
145
64
133
46
26
70
117
111
36
129
33
40
130
84
12
51
52
123
125
159
108
121
107
55
165
85
73
7
158
18
34
169
160
9
6
14
49
54
153
35
99
16
19

> <PUBCHEM_MMFF94_PARTIAL_CHARGES>
27
1 -0.52
10 0.26
11 0.18
12 0.45
13 0.11
14 -0.04
15 -0.15
16 -0.04
17 -0.15
18 -0.04
19 -0.15
2 -0.28
20 0.46
21 0.46
22 0.28
29 0.36
3 -0.02
32 0.15
33 0.15
34 0.15
4 -0.56
42 0.4
5 -0.68
6 -0.84
7 -0.41
8 0.21
9 0.26

> <PUBCHEM_EFFECTIVE_ROTOR_COUNT>
8.8

> <PUBCHEM_PHARMACOPHORE_FEATURES>
11
1 1 acceptor
1 2 acceptor
1 4 acceptor
1 5 acceptor
1 5 donor
1 6 cation
1 6 donor
1 7 acceptor
4 1 8 9 10 rings
5 2 14 17 18 19 rings
5 3 7 13 15 16 rings

> <PUBCHEM_HEAVY_ATOM_COUNT>
22

> <PUBCHEM_ATOM_DEF_STEREO_COUNT>
0

> <PUBCHEM_ATOM_UDEF_STEREO_COUNT>
0

> <PUBCHEM_BOND_DEF_STEREO_COUNT>
0

> <PUBCHEM_BOND_UDEF_STEREO_COUNT>
0

> <PUBCHEM_ISOTOPIC_ATOM_COUNT>
0

> <PUBCHEM_COMPONENT_COUNT>
1

> <PUBCHEM_CACTVS_TAUTO_COUNT>
1

> <PUBCHEM_CONFORMER_ID>
0362537900000001

> <PUBCHEM_MMFF94_ENERGY>
34.4257

> <PUBCHEM_FEATURE_SELFOVERLAP>
55.824

> <PUBCHEM_SHAPE_FINGERPRINT>
10074138 170 17897444114823931627
10090160 65 18186806855493600351
10692045 39 18338784617013295554
11578080 2 17130688643708733010
12617007 42 11887657460232133450
12633257 1 17749941297780642292
12760667 363 7853586702929216412
12788726 201 17464275085344071002
13955234 65 18119253857289265131
14178342 30 18042402611924288166
14466204 15 17903631879229706402
146900 427 18339370647867569345
14787075 74 18342177761193255749
14849402 71 18335705980070507178
14955137 171 17756980113170614434
15295992 7 18335990779114898450
20567600 254 18334289859969109125
21033648 29 17967521351324211772
21049683 118 18261656156108158482
21285901 2 9727637185115542840
21401589 2 18339919423996475000
21521721 280 18271815631412888643
21524375 3 18336552607580786734
22079108 93 18409730664344412607
23559900 14 17606409744093610799
2838139 119 18272925029823628532
3246875 12 18339923830965028497
34797466 226 17561091285016859949
4340502 62 18261684688267072715
4463277 69 8070023376549818352
474 4 18337114457979940388
484985 159 11532688902134493068
5104073 3 18408325479593708259
56616090 13 18201998832838991484
6333272 397 18261399901332467823
633830 44 18269553849383031581
6442390 28 18335147470617878443
67856867 119 18044650902528003819
6913067 236 17458063747101419967
7364860 26 17757837727807902103
7808743 9 18336827623491212296
960060 61 10807922778380331344
9981440 41 18198893885628720842

> <PUBCHEM_SHAPE_MULTIPOLES>
413.44
12.33
3.83
1.11
4.49
0.85
0.17
-12.83
2.31
-2.24
1.45
-0.6
0.17
1.46

> <PUBCHEM_SHAPE_SELFOVERLAP>
869.85

> <PUBCHEM_SHAPE_VOLUME>
236.4

> <PUBCHEM_COORDINATE_TYPE>
2
5
10

$$$$
