51137771
  -OEChem-12032416223D

 40 42  0     1  0  0  0  0  0999 V2000
   -1.8204   -0.2044   -0.4791 O   0  0  0  0  0  0  0  0  0  0  0  0
    1.8787    0.1529    2.5185 O   0  0  0  0  0  0  0  0  0  0  0  0
    0.7629    1.2171    0.7817 N   0  0  0  0  0  0  0  0  0  0  0  0
   -3.2282    1.2587   -1.4182 N   0  0  0  0  0  0  0  0  0  0  0  0
   -3.8621    0.0314   -1.3625 N   0  0  0  0  0  0  0  0  0  0  0  0
   -0.9079    2.0652   -0.6854 C   0  0  1  0  0  0  0  0  0  0  0  0
   -1.0116    2.7685    0.6768 C   0  0  0  0  0  0  0  0  0  0  0  0
    0.5124    1.4842   -0.6356 C   0  0  0  0  0  0  0  0  0  0  0  0
   -0.2403    1.8550    1.6198 C   0  0  0  0  0  0  0  0  0  0  0  0
   -2.0400    1.0738   -0.8919 C   0  0  0  0  0  0  0  0  0  0  0  0
    1.7500    0.4080    1.3228 C   0  0  0  0  0  0  0  0  0  0  0  0
    2.7106   -0.2062    0.3931 C   0  0  0  0  0  0  0  0  0  0  0  0
   -3.0035   -0.7918   -0.8075 C   0  0  0  0  0  0  0  0  0  0  0  0
   -3.1430   -2.2203   -0.4984 C   0  0  0  0  0  0  0  0  0  0  0  0
   -3.9934   -2.4854    0.7628 C   0  0  0  0  0  0  0  0  0  0  0  0
    3.5140    0.5998   -0.4135 C   0  0  0  0  0  0  0  0  0  0  0  0
    2.8189   -1.5948    0.3195 C   0  0  0  0  0  0  0  0  0  0  0  0
   -3.3874   -1.8795    2.0188 C   0  0  0  0  0  0  0  0  0  0  0  0
    4.4257    0.0170   -1.2938 C   0  0  0  0  0  0  0  0  0  0  0  0
    3.7306   -2.1776   -0.5607 C   0  0  0  0  0  0  0  0  0  0  0  0
    4.5340   -1.3716   -1.3674 C   0  0  0  0  0  0  0  0  0  0  0  0
   -0.9820    2.7954   -1.5005 H   0  0  0  0  0  0  0  0  0  0  0  0
   -2.0376    2.9424    1.0156 H   0  0  0  0  0  0  0  0  0  0  0  0
   -0.5043    3.7401    0.6205 H   0  0  0  0  0  0  0  0  0  0  0  0
    0.6398    0.5814   -1.2400 H   0  0  0  0  0  0  0  0  0  0  0  0
    1.2354    2.2413   -0.9578 H   0  0  0  0  0  0  0  0  0  0  0  0
    0.2349    2.3940    2.4449 H   0  0  0  0  0  0  0  0  0  0  0  0
   -0.8802    1.0696    2.0373 H   0  0  0  0  0  0  0  0  0  0  0  0
   -3.6153   -2.7241   -1.3499 H   0  0  0  0  0  0  0  0  0  0  0  0
   -2.1553   -2.6803   -0.3732 H   0  0  0  0  0  0  0  0  0  0  0  0
   -4.0907   -3.5689    0.8984 H   0  0  0  0  0  0  0  0  0  0  0  0
   -5.0046   -2.0852    0.6218 H   0  0  0  0  0  0  0  0  0  0  0  0
    3.4604    1.6835   -0.3539 H   0  0  0  0  0  0  0  0  0  0  0  0
    2.1967   -2.2336    0.9411 H   0  0  0  0  0  0  0  0  0  0  0  0
   -3.9798   -2.1625    2.8949 H   0  0  0  0  0  0  0  0  0  0  0  0
   -3.3682   -0.7863    1.9718 H   0  0  0  0  0  0  0  0  0  0  0  0
   -2.3642   -2.2367    2.1731 H   0  0  0  0  0  0  0  0  0  0  0  0
    5.0550    0.6445   -1.9182 H   0  0  0  0  0  0  0  0  0  0  0  0
    3.8148   -3.2589   -0.6183 H   0  0  0  0  0  0  0  0  0  0  0  0
    5.2446   -1.8254   -2.0520 H   0  0  0  0  0  0  0  0  0  0  0  0
  1 10  1  0  0  0  0
  1 13  1  0  0  0  0
  2 11  2  0  0  0  0
  3  8  1  0  0  0  0
  3  9  1  0  0  0  0
  3 11  1  0  0  0  0
  4  5  1  0  0  0  0
  4 10  2  0  0  0  0
  5 13  2  0  0  0  0
  6  7  1  0  0  0  0
  6  8  1  0  0  0  0
  6 10  1  0  0  0  0
  6 22  1  0  0  0  0
  7  9  1  0  0  0  0
  7 23  1  0  0  0  0
  7 24  1  0  0  0  0
  8 25  1  0  0  0  0
  8 26  1  0  0  0  0
  9 27  1  0  0  0  0
  9 28  1  0  0  0  0
 11 12  1  0  0  0  0
 12 16  2  0  0  0  0
 12 17  1  0  0  0  0
 13 14  1  0  0  0  0
 14 15  1  0  0  0  0
 14 29  1  0  0  0  0
 14 30  1  0  0  0  0
 15 18  1  0  0  0  0
 15 31  1  0  0  0  0
 15 32  1  0  0  0  0
 16 19  1  0  0  0  0
 16 33  1  0  0  0  0
 17 20  2  0  0  0  0
 17 34  1  0  0  0  0
 18 35  1  0  0  0  0
 18 36  1  0  0  0  0
 18 37  1  0  0  0  0
 19 21  2  0  0  0  0
 19 38  1  0  0  0  0
 20 21  1  0  0  0  0
 20 39  1  0  0  0  0
 21 40  1  0  0  0  0
M  END
> <PUBCHEM_COMPOUND_CID>
51137771

> <PUBCHEM_CONFORMER_RMSD>
0.8

> <PUBCHEM_CONFORMER_DIVERSEORDER>
1
44
15
62
80
99
52
103
47
50
19
64
100
98
40
48
41
86
77
31
69
81
59
20
65
88
74
11
32
104
45
79
22
26
85
43
27
28
97
53
105
96
71
101
33
82
56
60
89
83
63
14
36
93
2
18
75
76
106
72
42
29
102
37
51
30
66
87
7
73
55
70
12
25
24
54
67
38
78
35
49
23
92
61
90
94
8
21
17
57
39
58
46
13
91
68
84
4
10
95
34
9
16
5
6
3

> <PUBCHEM_MMFF94_PARTIAL_CHARGES>
23
1 -0.28
10 0.3
11 0.54
12 0.09
13 0.3
14 0.18
16 -0.15
17 -0.15
19 -0.15
2 -0.57
20 -0.15
21 -0.15
3 -0.66
33 0.15
34 0.15
38 0.15
39 0.15
4 -0.34
40 0.15
5 -0.34
6 0.18
8 0.3
9 0.3

> <PUBCHEM_EFFECTIVE_ROTOR_COUNT>
6

> <PUBCHEM_PHARMACOPHORE_FEATURES>
5
1 18 hydrophobe
1 2 acceptor
5 1 4 5 10 13 rings
5 3 6 7 8 9 rings
6 12 16 17 19 20 21 rings

> <PUBCHEM_HEAVY_ATOM_COUNT>
21

> <PUBCHEM_ATOM_DEF_STEREO_COUNT>
1

> <PUBCHEM_ATOM_UDEF_STEREO_COUNT>
0

> <PUBCHEM_BOND_DEF_STEREO_COUNT>
0

> <PUBCHEM_BOND_UDEF_STEREO_COUNT>
0

> <PUBCHEM_ISOTOPIC_ATOM_COUNT>
0

> <PUBCHEM_COMPONENT_COUNT>
1

> <PUBCHEM_CACTVS_TAUTO_COUNT>
1

> <PUBCHEM_CONFORMER_ID>
030C4CEB00000001

> <PUBCHEM_MMFF94_ENERGY>
39.3761

> <PUBCHEM_FEATURE_SELFOVERLAP>
25.373

> <PUBCHEM_SHAPE_FINGERPRINT>
10646746 165 9943530742789085710
10764073 3 12172298962059317756
10928967 22 18131071566814765278
11552529 35 15552738875737307854
11595378 159 10951180381756757816
121448 382 17240493506898823680
12363563 72 17346020183130601284
12506688 2 18341891951961436733
12633257 1 15985110720859202815
12714826 92 18334574668125121911
12892183 10 11743824872836108108
13103583 49 17059515022332744171
13533116 47 17769377459504302107
13544653 18 18272368697865904716
14022347 108 18265877121487263601
14251740 57 17687194497072123507
14251757 5 18334857161041159445
14251764 30 17773898491754990406
16752209 62 18122322606979447045
17357779 13 18261682587379374827
17980427 26 14011848968052724544
18186145 218 11963940408751757181
20429585 67 18118984704378203080
20871999 31 18040999552876050095
21095088 737 13480570644737755070
21591331 117 18127437680768238023
221490 88 18412829071364217270
23557571 272 18267281180819763608
23559900 14 18270948073536179540
3737641 26 18129400262148898174
4921388 177 18262244313177146812
5283178 26 17917722339156026887
7097593 13 9943516389599505724
9862522 239 9727633882359525475

> <PUBCHEM_SHAPE_MULTIPOLES>
405.49
8.82
2.93
1.83
2.57
0.1
-0.82
6.69
2.76
-1.89
-0.4
-0.39
-0.07
1.44

> <PUBCHEM_SHAPE_SELFOVERLAP>
861.651

> <PUBCHEM_SHAPE_VOLUME>
227.8

> <PUBCHEM_COORDINATE_TYPE>
2
5
10

$$$$
