45361515
  -OEChem-12032416313D

 78 81  0     1  0  0  0  0  0999 V2000
   -0.9633    0.2687    2.1172 O   0  0  0  0  0  0  0  0  0  0  0  0
   -5.9816   -1.4303    1.4089 O   0  0  0  0  0  0  0  0  0  0  0  0
    4.5620    0.4875   -1.9635 O   0  0  0  0  0  0  0  0  0  0  0  0
    3.6264   -1.0120   -0.4588 N   0  0  0  0  0  0  0  0  0  0  0  0
   -5.2647    0.6932    0.8117 N   0  0  0  0  0  0  0  0  0  0  0  0
   -0.5684   -1.7305   -1.1112 C   0  0  1  0  0  0  0  0  0  0  0  0
   -0.1883   -0.7343    0.0343 C   0  0  2  0  0  0  0  0  0  0  0  0
    1.3156   -0.9106    0.4525 C   0  0  1  0  0  0  0  0  0  0  0  0
   -1.2176   -0.7958    1.1993 C   0  0  2  0  0  0  0  0  0  0  0  0
   -2.0178   -1.4542   -1.5757 C   0  0  0  0  0  0  0  0  0  0  0  0
   -2.6758   -0.6225    0.7144 C   0  0  1  0  0  0  0  0  0  0  0  0
    0.3668   -1.4905   -2.3190 C   0  0  0  0  0  0  0  0  0  0  0  0
    2.2418   -0.7414   -0.7847 C   0  0  2  0  0  0  0  0  0  0  0  0
   -3.0332   -1.5525   -0.4450 C   0  0  0  0  0  0  0  0  0  0  0  0
    1.8419   -1.6220   -1.9681 C   0  0  0  0  0  0  0  0  0  0  0  0
   -0.4610   -3.2122   -0.6697 C   0  0  0  0  0  0  0  0  0  0  0  0
   -3.6819   -0.8163    1.8556 C   0  0  2  0  0  0  0  0  0  0  0  0
    1.7654    0.0600    1.5575 C   0  0  0  0  0  0  0  0  0  0  0  0
   -3.5347   -2.2111    2.4537 C   0  0  0  0  0  0  0  0  0  0  0  0
   -5.0994   -0.5768    1.3453 C   0  0  0  0  0  0  0  0  0  0  0  0
    4.6786   -0.3643   -1.0862 C   0  0  0  0  0  0  0  0  0  0  0  0
   -6.5209    1.1536    0.2628 C   0  0  0  0  0  0  0  0  0  0  0  0
    6.0167   -0.8344   -0.5488 C   0  0  0  0  0  0  0  0  0  0  0  0
   -6.6401    0.7899   -1.2211 C   0  0  0  0  0  0  0  0  0  0  0  0
   -6.6984    2.6598    0.4816 C   0  0  0  0  0  0  0  0  0  0  0  0
   -5.7139    1.6258   -2.1044 C   0  0  0  0  0  0  0  0  0  0  0  0
   -5.7722    3.4927   -0.4046 C   0  0  0  0  0  0  0  0  0  0  0  0
   -5.9170    3.1206   -1.8770 C   0  0  0  0  0  0  0  0  0  0  0  0
    6.8329    0.2702    0.0688 C   0  0  0  0  0  0  0  0  0  0  0  0
    7.7200    1.0049   -0.7179 C   0  0  0  0  0  0  0  0  0  0  0  0
    6.7021    0.5585    1.4271 C   0  0  0  0  0  0  0  0  0  0  0  0
    8.4763    2.0281   -0.1463 C   0  0  0  0  0  0  0  0  0  0  0  0
    7.4582    1.5817    1.9988 C   0  0  0  0  0  0  0  0  0  0  0  0
    8.3454    2.3165    1.2122 C   0  0  0  0  0  0  0  0  0  0  0  0
   -0.2587    0.2848   -0.3790 H   0  0  0  0  0  0  0  0  0  0  0  0
    1.4546   -1.9206    0.8583 H   0  0  0  0  0  0  0  0  0  0  0  0
   -1.0583   -1.7328    1.7356 H   0  0  0  0  0  0  0  0  0  0  0  0
   -2.0804   -0.4487   -2.0137 H   0  0  0  0  0  0  0  0  0  0  0  0
   -2.3009   -2.1526   -2.3737 H   0  0  0  0  0  0  0  0  0  0  0  0
   -2.7545    0.4065    0.3391 H   0  0  0  0  0  0  0  0  0  0  0  0
    0.1281   -2.1907   -3.1297 H   0  0  0  0  0  0  0  0  0  0  0  0
    0.1957   -0.4837   -2.7234 H   0  0  0  0  0  0  0  0  0  0  0  0
    2.1771    0.3054   -1.1127 H   0  0  0  0  0  0  0  0  0  0  0  0
   -4.0123   -1.2941   -0.8643 H   0  0  0  0  0  0  0  0  0  0  0  0
   -3.1044   -2.5987   -0.1404 H   0  0  0  0  0  0  0  0  0  0  0  0
    2.4394   -1.3540   -2.8492 H   0  0  0  0  0  0  0  0  0  0  0  0
    2.0876   -2.6704   -1.7595 H   0  0  0  0  0  0  0  0  0  0  0  0
   -1.0856   -3.4367    0.1994 H   0  0  0  0  0  0  0  0  0  0  0  0
   -0.7789   -3.8792   -1.4797 H   0  0  0  0  0  0  0  0  0  0  0  0
    0.5579   -3.5023   -0.4010 H   0  0  0  0  0  0  0  0  0  0  0  0
   -3.5011   -0.0781    2.6475 H   0  0  0  0  0  0  0  0  0  0  0  0
    2.8468    0.0184    1.7236 H   0  0  0  0  0  0  0  0  0  0  0  0
    1.5087    1.0944    1.3068 H   0  0  0  0  0  0  0  0  0  0  0  0
    1.3133   -0.1993    2.5189 H   0  0  0  0  0  0  0  0  0  0  0  0
    3.8168   -1.7507    0.2116 H   0  0  0  0  0  0  0  0  0  0  0  0
   -1.0470    1.1095    1.6361 H   0  0  0  0  0  0  0  0  0  0  0  0
   -2.5671   -2.3732    2.9337 H   0  0  0  0  0  0  0  0  0  0  0  0
   -4.2781   -2.3385    3.2518 H   0  0  0  0  0  0  0  0  0  0  0  0
   -3.7245   -3.0240    1.7491 H   0  0  0  0  0  0  0  0  0  0  0  0
   -4.4852    1.3420    0.8175 H   0  0  0  0  0  0  0  0  0  0  0  0
   -7.3215    0.6351    0.8050 H   0  0  0  0  0  0  0  0  0  0  0  0
    6.5650   -1.2818   -1.3880 H   0  0  0  0  0  0  0  0  0  0  0  0
    5.8959   -1.6453    0.1799 H   0  0  0  0  0  0  0  0  0  0  0  0
   -6.4260   -0.2743   -1.3760 H   0  0  0  0  0  0  0  0  0  0  0  0
   -7.6759    0.9539   -1.5448 H   0  0  0  0  0  0  0  0  0  0  0  0
   -7.7379    2.9322    0.2586 H   0  0  0  0  0  0  0  0  0  0  0  0
   -6.5215    2.9153    1.5333 H   0  0  0  0  0  0  0  0  0  0  0  0
   -5.8978    1.3864   -3.1579 H   0  0  0  0  0  0  0  0  0  0  0  0
   -4.6692    1.3625   -1.8977 H   0  0  0  0  0  0  0  0  0  0  0  0
   -4.7299    3.3576   -0.0929 H   0  0  0  0  0  0  0  0  0  0  0  0
   -6.0023    4.5563   -0.2729 H   0  0  0  0  0  0  0  0  0  0  0  0
   -6.9149    3.4099   -2.2291 H   0  0  0  0  0  0  0  0  0  0  0  0
   -5.1924    3.6864   -2.4735 H   0  0  0  0  0  0  0  0  0  0  0  0
    7.8297    0.7910   -1.7778 H   0  0  0  0  0  0  0  0  0  0  0  0
    6.0123   -0.0056    2.0494 H   0  0  0  0  0  0  0  0  0  0  0  0
    9.1667    2.6005   -0.7588 H   0  0  0  0  0  0  0  0  0  0  0  0
    7.3558    1.8068    3.0564 H   0  0  0  0  0  0  0  0  0  0  0  0
    8.9340    3.1133    1.6574 H   0  0  0  0  0  0  0  0  0  0  0  0
  1  9  1  0  0  0  0
  1 56  1  0  0  0  0
  2 20  2  0  0  0  0
  3 21  2  0  0  0  0
  4 13  1  0  0  0  0
  4 21  1  0  0  0  0
  4 55  1  0  0  0  0
  5 20  1  0  0  0  0
  5 22  1  0  0  0  0
  5 60  1  0  0  0  0
  6  7  1  0  0  0  0
  6 10  1  0  0  0  0
  6 12  1  0  0  0  0
  6 16  1  0  0  0  0
  7  8  1  0  0  0  0
  7  9  1  0  0  0  0
  7 35  1  0  0  0  0
  8 13  1  0  0  0  0
  8 18  1  0  0  0  0
  8 36  1  0  0  0  0
  9 11  1  0  0  0  0
  9 37  1  0  0  0  0
 10 14  1  0  0  0  0
 10 38  1  0  0  0  0
 10 39  1  0  0  0  0
 11 14  1  0  0  0  0
 11 17  1  0  0  0  0
 11 40  1  0  0  0  0
 12 15  1  0  0  0  0
 12 41  1  0  0  0  0
 12 42  1  0  0  0  0
 13 15  1  0  0  0  0
 13 43  1  0  0  0  0
 14 44  1  0  0  0  0
 14 45  1  0  0  0  0
 15 46  1  0  0  0  0
 15 47  1  0  0  0  0
 16 48  1  0  0  0  0
 16 49  1  0  0  0  0
 16 50  1  0  0  0  0
 17 19  1  0  0  0  0
 17 20  1  0  0  0  0
 17 51  1  0  0  0  0
 18 52  1  0  0  0  0
 18 53  1  0  0  0  0
 18 54  1  0  0  0  0
 19 57  1  0  0  0  0
 19 58  1  0  0  0  0
 19 59  1  0  0  0  0
 21 23  1  0  0  0  0
 22 24  1  0  0  0  0
 22 25  1  0  0  0  0
 22 61  1  0  0  0  0
 23 29  1  0  0  0  0
 23 62  1  0  0  0  0
 23 63  1  0  0  0  0
 24 26  1  0  0  0  0
 24 64  1  0  0  0  0
 24 65  1  0  0  0  0
 25 27  1  0  0  0  0
 25 66  1  0  0  0  0
 25 67  1  0  0  0  0
 26 28  1  0  0  0  0
 26 68  1  0  0  0  0
 26 69  1  0  0  0  0
 27 28  1  0  0  0  0
 27 70  1  0  0  0  0
 27 71  1  0  0  0  0
 28 72  1  0  0  0  0
 28 73  1  0  0  0  0
 29 30  2  0  0  0  0
 29 31  1  0  0  0  0
 30 32  1  0  0  0  0
 30 74  1  0  0  0  0
 31 33  2  0  0  0  0
 31 75  1  0  0  0  0
 32 34  2  0  0  0  0
 32 76  1  0  0  0  0
 33 34  1  0  0  0  0
 33 77  1  0  0  0  0
 34 78  1  0  0  0  0
M  END
> <PUBCHEM_COMPOUND_CID>
45361515

> <PUBCHEM_CONFORMER_RMSD>
1.2

> <PUBCHEM_CONFORMER_DIVERSEORDER>
1
109
80
6
54
106
136
134
177
159
61
145
151
89
56
29
137
189
93
144
28
167
99
45
40
153
140
138
193
83
11
85
113
78
114
103
58
72
39
55
185
132
152
76
197
92
110
195
188
182
37
171
131
105
48
63
84
8
192
124
163
165
86
41
191
126
149
143
104
161
71
7
19
169
125
117
68
160
128
187
180
129
100
118
175
166
69
121
141
178
186
176
130
97
75
31
64
120
50
147
127
23
91
158
119
87
26
44
194
135
18
52
42
21
107
81
183
150
79
33
179
77
173
13
122
156
181
14
65
35
95
36
184
74
27
102
168
88
2
53
90
133
73
98
38
9
47
60
123
174
108
17
67
111
66
164
30
4
155
96
146
12
46
57
139
51
5
16
172
154
25
59
15
101
34
112
49
162
115
116
32
148
157
20
94
142
190
170
3
10
196
70
24
82
62
22
43

> <PUBCHEM_MMFF94_PARTIAL_CHARGES>
26
1 -0.68
13 0.3
17 0.06
2 -0.57
20 0.57
21 0.57
22 0.3
23 0.2
29 -0.14
3 -0.57
30 -0.15
31 -0.15
32 -0.15
33 -0.15
34 -0.15
4 -0.73
5 -0.73
55 0.37
56 0.4
60 0.37
74 0.15
75 0.15
76 0.15
77 0.15
78 0.15
9 0.28

> <PUBCHEM_EFFECTIVE_ROTOR_COUNT>
10.8

> <PUBCHEM_PHARMACOPHORE_FEATURES>
11
1 1 acceptor
1 1 donor
1 19 hydrophobe
1 2 acceptor
1 3 acceptor
1 4 donor
1 5 donor
6 22 24 25 26 27 28 rings
6 29 30 31 32 33 34 rings
6 6 7 8 12 13 15 rings
6 6 7 9 10 11 14 rings

> <PUBCHEM_HEAVY_ATOM_COUNT>
34

> <PUBCHEM_ATOM_DEF_STEREO_COUNT>
6

> <PUBCHEM_ATOM_UDEF_STEREO_COUNT>
1

> <PUBCHEM_BOND_DEF_STEREO_COUNT>
0

> <PUBCHEM_BOND_UDEF_STEREO_COUNT>
0

> <PUBCHEM_ISOTOPIC_ATOM_COUNT>
0

> <PUBCHEM_COMPONENT_COUNT>
1

> <PUBCHEM_CACTVS_TAUTO_COUNT>
4

> <PUBCHEM_CONFORMER_ID>
02B4296B00000001

> <PUBCHEM_MMFF94_ENERGY>
83.4013

> <PUBCHEM_FEATURE_SELFOVERLAP>
55.836

> <PUBCHEM_SHAPE_FINGERPRINT>
10 15 18130797797409881026
10280341 67 18115861898531028901
10554248 39 17060062498025043670
10625338 86 18407477760582311633
10677351 27 13262683591727397978
11456790 92 16081089290530869732
11578821 258 18341898532438144320
11720765 8 17039226516719951935
11828042 291 15984278310082143060
12655364 131 14996278085883807489
13668630 136 9439407913234714562
13911987 19 17489306339797614959
14598715 104 18411696582408343744
14767858 380 16128655232377526906
15183329 4 16702586030348647802
15326921 28 16662033748141247685
15352257 5 9655577413593135780
16994733 274 18409442592472106256
17686467 74 18338234977337441259
19246450 95 15357966821017597359
20511986 3 18060134362941621894
20982279 24 11314582057846264312
21033648 29 18335141981691729750
21814621 53 18260557688616838634
21859007 373 18410570665527502848
21867018 265 12103557624103473984
22288116 15 14764343860098253565
23522609 53 15214172719911921142
23569943 247 9509815153695591308
23576562 1 17702937174917835956
2838139 119 18334858303576183461
392239 28 16226052188685029951
393628 179 18336819819472663621
4093350 32 18040710326153803602
4169191 19 17775571939761641080
437795 83 17775289313782045209
4403749 210 18341333383218425631
44802255 64 18272370884542835663
4567818 161 17274251902480236344
4625314 4 11455890252200837883
4938544 92 18261110807210673587
504579 68 15770053952196747668
5104073 3 16009608982682557126
54039377 194 14620505766981799069
9555976 147 17023481831429939451
9896288 288 12396840174406137855
999808 66 11169913883333218765

> <PUBCHEM_SHAPE_MULTIPOLES>
672.13
25.07
3.12
2.36
32.17
1.55
0.12
25.11
2.62
-3.83
-0.69
-1.19
-0.35
4.15

> <PUBCHEM_SHAPE_SELFOVERLAP>
1399.702

> <PUBCHEM_SHAPE_VOLUME>
376.5

> <PUBCHEM_COORDINATE_TYPE>
2
5
10

$$$$
