7050335
  -OEChem-12032416363D

 61 64  0     1  0  0  0  0  0999 V2000
    7.9553   -1.8833    2.3653 S   0  0  0  0  0  0  0  0  0  0  0  0
   -1.8904    1.3200    1.3327 O   0  0  0  0  0  0  0  0  0  0  0  0
   -2.8713   -1.7845   -1.9779 O   0  0  0  0  0  0  0  0  0  0  0  0
    3.6334    2.2273   -0.8011 O   0  0  0  0  0  0  0  0  0  0  0  0
   -6.6148    2.3669    1.3265 O   0  0  0  0  0  0  0  0  0  0  0  0
   -7.2320   -2.2021    0.0909 O   0  0  0  0  0  0  0  0  0  0  0  0
    6.2648    1.8982   -0.6662 O   0  0  0  0  0  0  0  0  0  0  0  0
   -0.9069   -0.8673   -1.1506 N   0  0  0  0  0  0  0  0  0  0  0  0
   -2.8289   -0.2263   -0.1948 N   0  0  0  0  0  0  0  0  0  0  0  0
    2.4957    0.2202   -1.0329 N   0  0  0  0  0  0  0  0  0  0  0  0
   -0.4805    0.0895   -0.1665 C   0  0  1  0  0  0  0  0  0  0  0  0
    1.3709    0.7490   -1.7699 C   0  0  2  0  0  0  0  0  0  0  0  0
    0.2671    1.2472   -0.8205 C   0  0  0  0  0  0  0  0  0  0  0  0
    0.8291   -0.2915   -2.7657 C   0  0  0  0  0  0  0  0  0  0  0  0
    0.0696   -1.4229   -2.0704 C   0  0  0  0  0  0  0  0  0  0  0  0
   -1.8171    0.4994    0.4262 C   0  0  0  0  0  0  0  0  0  0  0  0
   -2.2896   -1.0585   -1.1809 C   0  0  0  0  0  0  0  0  0  0  0  0
   -4.2229   -0.1209    0.1120 C   0  0  0  0  0  0  0  0  0  0  0  0
    3.5456    1.0179   -0.6059 C   0  0  0  0  0  0  0  0  0  0  0  0
   -5.0583   -1.2260   -0.0509 C   0  0  0  0  0  0  0  0  0  0  0  0
   -4.7458    1.0865    0.5748 C   0  0  0  0  0  0  0  0  0  0  0  0
    4.6388    0.3181    0.1166 C   0  0  0  0  0  0  0  0  0  0  0  0
   -6.1042    1.1887    0.8748 C   0  0  0  0  0  0  0  0  0  0  0  0
   -6.4167   -1.1238    0.2490 C   0  0  0  0  0  0  0  0  0  0  0  0
   -6.9396    0.0837    0.7119 C   0  0  0  0  0  0  0  0  0  0  0  0
    5.9514    0.7866    0.0570 C   0  0  0  0  0  0  0  0  0  0  0  0
    4.3382   -0.8217    0.8625 C   0  0  0  0  0  0  0  0  0  0  0  0
    6.9632    0.1154    0.7434 C   0  0  0  0  0  0  0  0  0  0  0  0
    5.3503   -1.4929    1.5488 C   0  0  0  0  0  0  0  0  0  0  0  0
    6.6626   -1.0244    1.4892 C   0  0  0  0  0  0  0  0  0  0  0  0
   -8.0119    2.4013    1.6139 C   0  0  0  0  0  0  0  0  0  0  0  0
   -8.6101   -2.0272    0.4162 C   0  0  0  0  0  0  0  0  0  0  0  0
    7.6317    2.3042   -0.6701 C   0  0  0  0  0  0  0  0  0  0  0  0
    9.0733   -2.3466    1.0125 C   0  0  0  0  0  0  0  0  0  0  0  0
    0.1200   -0.4266    0.5900 H   0  0  0  0  0  0  0  0  0  0  0  0
    1.7349    1.6092   -2.3458 H   0  0  0  0  0  0  0  0  0  0  0  0
   -0.4390    1.8571   -1.4007 H   0  0  0  0  0  0  0  0  0  0  0  0
    0.6803    1.9071   -0.0480 H   0  0  0  0  0  0  0  0  0  0  0  0
    0.1426    0.2164   -3.4557 H   0  0  0  0  0  0  0  0  0  0  0  0
    1.6422   -0.7101   -3.3700 H   0  0  0  0  0  0  0  0  0  0  0  0
    0.7488   -2.0561   -1.4899 H   0  0  0  0  0  0  0  0  0  0  0  0
   -0.4339   -2.0553   -2.8083 H   0  0  0  0  0  0  0  0  0  0  0  0
    2.5046   -0.7778   -0.8535 H   0  0  0  0  0  0  0  0  0  0  0  0
   -4.6745   -2.1874   -0.3796 H   0  0  0  0  0  0  0  0  0  0  0  0
   -4.1285    1.9734    0.6817 H   0  0  0  0  0  0  0  0  0  0  0  0
   -7.9910    0.1629    0.9442 H   0  0  0  0  0  0  0  0  0  0  0  0
    3.3254   -1.2007    0.9639 H   0  0  0  0  0  0  0  0  0  0  0  0
    7.9968    0.4443    0.7378 H   0  0  0  0  0  0  0  0  0  0  0  0
    5.0962   -2.3755    2.1308 H   0  0  0  0  0  0  0  0  0  0  0  0
   -8.2431    3.4139    1.9609 H   0  0  0  0  0  0  0  0  0  0  0  0
   -8.2737    1.7202    2.4310 H   0  0  0  0  0  0  0  0  0  0  0  0
   -8.6142    2.2305    0.7150 H   0  0  0  0  0  0  0  0  0  0  0  0
   -9.1076   -2.9849    0.2302 H   0  0  0  0  0  0  0  0  0  0  0  0
   -9.0897   -1.2904   -0.2373 H   0  0  0  0  0  0  0  0  0  0  0  0
   -8.7494   -1.8003    1.4788 H   0  0  0  0  0  0  0  0  0  0  0  0
    7.9712    2.5924    0.3308 H   0  0  0  0  0  0  0  0  0  0  0  0
    8.2774    1.5491   -1.1314 H   0  0  0  0  0  0  0  0  0  0  0  0
    7.6982    3.2006   -1.2957 H   0  0  0  0  0  0  0  0  0  0  0  0
    8.5322   -2.9111    0.2483 H   0  0  0  0  0  0  0  0  0  0  0  0
    9.5235   -1.4598    0.5595 H   0  0  0  0  0  0  0  0  0  0  0  0
    9.8739   -2.9760    1.4103 H   0  0  0  0  0  0  0  0  0  0  0  0
  1 30  1  0  0  0  0
  1 34  1  0  0  0  0
  2 16  2  0  0  0  0
  3 17  2  0  0  0  0
  4 19  2  0  0  0  0
  5 23  1  0  0  0  0
  5 31  1  0  0  0  0
  6 24  1  0  0  0  0
  6 32  1  0  0  0  0
  7 26  1  0  0  0  0
  7 33  1  0  0  0  0
  8 11  1  0  0  0  0
  8 15  1  0  0  0  0
  8 17  1  0  0  0  0
  9 16  1  0  0  0  0
  9 17  1  0  0  0  0
  9 18  1  0  0  0  0
 10 12  1  0  0  0  0
 10 19  1  0  0  0  0
 10 43  1  0  0  0  0
 11 13  1  0  0  0  0
 11 16  1  0  0  0  0
 11 35  1  0  0  0  0
 12 13  1  0  0  0  0
 12 14  1  0  0  0  0
 12 36  1  0  0  0  0
 13 37  1  0  0  0  0
 13 38  1  0  0  0  0
 14 15  1  0  0  0  0
 14 39  1  0  0  0  0
 14 40  1  0  0  0  0
 15 41  1  0  0  0  0
 15 42  1  0  0  0  0
 18 20  2  0  0  0  0
 18 21  1  0  0  0  0
 19 22  1  0  0  0  0
 20 24  1  0  0  0  0
 20 44  1  0  0  0  0
 21 23  2  0  0  0  0
 21 45  1  0  0  0  0
 22 26  2  0  0  0  0
 22 27  1  0  0  0  0
 23 25  1  0  0  0  0
 24 25  2  0  0  0  0
 25 46  1  0  0  0  0
 26 28  1  0  0  0  0
 27 29  2  0  0  0  0
 27 47  1  0  0  0  0
 28 30  2  0  0  0  0
 28 48  1  0  0  0  0
 29 30  1  0  0  0  0
 29 49  1  0  0  0  0
 31 50  1  0  0  0  0
 31 51  1  0  0  0  0
 31 52  1  0  0  0  0
 32 53  1  0  0  0  0
 32 54  1  0  0  0  0
 32 55  1  0  0  0  0
 33 56  1  0  0  0  0
 33 57  1  0  0  0  0
 33 58  1  0  0  0  0
 34 59  1  0  0  0  0
 34 60  1  0  0  0  0
 34 61  1  0  0  0  0
M  END
> <PUBCHEM_COMPOUND_CID>
7050335

> <PUBCHEM_CONFORMER_RMSD>
1

> <PUBCHEM_CONFORMER_DIVERSEORDER>
5
62
23
57
59
42
19
22
17
12
45
2
60
51
41
27
50
54
63
6
25
4
61
46
9
30
48
55
1
47
11
40
56
26
20
15
43
16
10
18
29
21
58
32
35
49
28
52
33
31
3
13
39
36
7
14
37
24
53
8
38
34
44

> <PUBCHEM_MMFF94_PARTIAL_CHARGES>
39
1 -0.33
10 -0.73
11 0.36
12 0.3
15 0.3
16 0.57
17 0.69
18 0.12
19 0.54
2 -0.57
20 -0.15
21 -0.15
22 0.09
23 0.08
24 0.08
25 -0.15
26 0.08
27 -0.15
28 -0.15
29 -0.15
3 -0.57
30 0.1
31 0.28
32 0.28
33 0.28
34 0.23
4 -0.57
43 0.37
44 0.15
45 0.15
46 0.15
47 0.15
48 0.15
49 0.15
5 -0.36
6 -0.36
7 -0.36
8 -0.66
9 -0.24

> <PUBCHEM_EFFECTIVE_ROTOR_COUNT>
9

> <PUBCHEM_PHARMACOPHORE_FEATURES>
12
1 10 donor
1 2 acceptor
1 3 acceptor
1 34 hydrophobe
1 4 acceptor
1 5 acceptor
1 6 acceptor
1 7 acceptor
5 8 9 11 16 17 rings
6 18 20 21 23 24 25 rings
6 22 26 27 28 29 30 rings
6 8 11 12 13 14 15 rings

> <PUBCHEM_HEAVY_ATOM_COUNT>
34

> <PUBCHEM_ATOM_DEF_STEREO_COUNT>
2

> <PUBCHEM_ATOM_UDEF_STEREO_COUNT>
0

> <PUBCHEM_BOND_DEF_STEREO_COUNT>
0

> <PUBCHEM_BOND_UDEF_STEREO_COUNT>
0

> <PUBCHEM_ISOTOPIC_ATOM_COUNT>
0

> <PUBCHEM_COMPONENT_COUNT>
1

> <PUBCHEM_CACTVS_TAUTO_COUNT>
2

> <PUBCHEM_CONFORMER_ID>
006B945F00000005

> <PUBCHEM_MMFF94_ENERGY>
123.0914

> <PUBCHEM_FEATURE_SELFOVERLAP>
61.021

> <PUBCHEM_SHAPE_FINGERPRINT>
10 15 18131355253872764055
10076449 9 12180139648370577501
10299344 5 18335138700135982602
10625338 86 17131835390969878432
10939801 23 18271246131593071376
12035758 1 16988563541556000771
12236239 1 18410293627209271728
12838862 33 17418372485820167495
13533116 47 17894631474423745828
13560911 43 18201165459477326345
13673619 4 16877938313952684462
13685833 64 17167859764472869318
13782708 43 15719393957946290033
14251764 18 18409449223469152845
14347424 109 18408321099539708800
14849402 71 18261679297392715124
15064986 96 17416684645103892414
15183329 4 11097851865848474886
15198563 99 14851872630505919215
15392192 104 18272655684066833006
1577012 14 18410859866796639288
16994733 274 12319740254144867643
19301679 30 18336826391077665540
19841028 212 17967245417229709858
20105231 36 18187643558680052978
20157964 124 12535631579395031996
20554085 129 16988840549508234774
20567600 254 16559033778987935556
21033648 29 15697710511226856692
21267235 1 11891341972022671325
21307412 95 15140684669898935803
23522609 53 18264783210602571020
23559900 14 16916244229322450284
23569943 247 17168410559336840227
249057 25 18114757031347222189
335352 9 11602811442340045339
3663271 9 18335422386994548305
437815 12 15791449335659813365
4616759 239 17418384606107835235
6058803 2 18052532468090015756
86090 222 16733270041442649010

> <PUBCHEM_SHAPE_MULTIPOLES>
653.39
28.73
2.47
1.97
2.44
0.05
-0.7
-7.82
16.93
1.52
0.56
-0.08
-0.18
-5.19

> <PUBCHEM_SHAPE_SELFOVERLAP>
1392.295

> <PUBCHEM_SHAPE_VOLUME>
367.8

> <PUBCHEM_COORDINATE_TYPE>
2
5
10

$$$$
