28961449
  -OEChem-12032416293D

 57 58  0     1  0  0  0  0  0999 V2000
    7.2425    0.6092    1.1356 F   0  0  0  0  0  0  0  0  0  0  0  0
    7.1711    1.0400   -0.9945 F   0  0  0  0  0  0  0  0  0  0  0  0
    7.0385   -1.0127   -0.2897 F   0  0  0  0  0  0  0  0  0  0  0  0
   -1.3890   -2.2601   -0.6436 O   0  0  0  0  0  0  0  0  0  0  0  0
   -3.5846   -2.5390    1.3738 O   0  0  0  0  0  0  0  0  0  0  0  0
   -1.0448   -5.0464   -0.7945 O   0  0  0  0  0  0  0  0  0  0  0  0
    0.3487    1.8117   -0.1798 O   0  0  0  0  0  0  0  0  0  0  0  0
   -4.1302    0.0265    0.2151 N   0  0  1  0  0  0  0  0  0  0  0  0
    0.1763   -0.3266    0.7045 N   0  0  0  0  0  0  0  0  0  0  0  0
   -4.4674    3.7015   -0.3699 N   0  0  0  0  0  0  0  0  0  0  0  0
   -3.4076   -1.0060   -0.5069 C   0  0  1  0  0  0  0  0  0  0  0  0
   -1.8768   -0.9104   -0.4754 C   0  0  1  0  0  0  0  0  0  0  0  0
   -3.6718   -2.4295   -0.0410 C   0  0  1  0  0  0  0  0  0  0  0  0
   -2.5108   -3.1620   -0.7030 C   0  0  2  0  0  0  0  0  0  0  0  0
   -1.2523   -0.3601    0.8020 C   0  0  0  0  0  0  0  0  0  0  0  0
   -2.1244   -4.4843   -0.0659 C   0  0  0  0  0  0  0  0  0  0  0  0
   -4.1434    1.2817   -0.5429 C   0  0  0  0  0  0  0  0  0  0  0  0
   -5.5031   -0.4010    0.5025 C   0  0  0  0  0  0  0  0  0  0  0  0
   -4.4719    2.4507    0.3808 C   0  0  0  0  0  0  0  0  0  0  0  0
    0.8748    0.7740    0.2136 C   0  0  0  0  0  0  0  0  0  0  0  0
   -3.0963    4.1611   -0.5962 C   0  0  0  0  0  0  0  0  0  0  0  0
   -5.2376    4.7276    0.3346 C   0  0  0  0  0  0  0  0  0  0  0  0
    2.3530    0.6411    0.1523 C   0  0  0  0  0  0  0  0  0  0  0  0
    3.0806    1.3726   -0.7864 C   0  0  0  0  0  0  0  0  0  0  0  0
    3.0136   -0.2155    1.0330 C   0  0  0  0  0  0  0  0  0  0  0  0
    4.4686    1.2476   -0.8443 C   0  0  0  0  0  0  0  0  0  0  0  0
    4.4016   -0.3407    0.9749 C   0  0  0  0  0  0  0  0  0  0  0  0
    5.1291    0.3909    0.0362 C   0  0  0  0  0  0  0  0  0  0  0  0
    6.6136    0.2579   -0.0248 C   0  0  0  0  0  0  0  0  0  0  0  0
   -3.7111   -0.9851   -1.5664 H   0  0  0  0  0  0  0  0  0  0  0  0
   -1.5220   -0.3256   -1.3330 H   0  0  0  0  0  0  0  0  0  0  0  0
   -4.6388   -2.8280   -0.3662 H   0  0  0  0  0  0  0  0  0  0  0  0
   -2.7162   -3.3110   -1.7709 H   0  0  0  0  0  0  0  0  0  0  0  0
   -1.4823   -0.9978    1.6611 H   0  0  0  0  0  0  0  0  0  0  0  0
   -1.6127    0.6511    1.0154 H   0  0  0  0  0  0  0  0  0  0  0  0
   -2.9634   -5.1866   -0.0778 H   0  0  0  0  0  0  0  0  0  0  0  0
   -1.7775   -4.3453    0.9629 H   0  0  0  0  0  0  0  0  0  0  0  0
   -3.1521    1.4449   -0.9787 H   0  0  0  0  0  0  0  0  0  0  0  0
   -4.8488    1.2332   -1.3837 H   0  0  0  0  0  0  0  0  0  0  0  0
   -6.0859    0.3816    0.9962 H   0  0  0  0  0  0  0  0  0  0  0  0
   -5.5501   -1.2345    1.2082 H   0  0  0  0  0  0  0  0  0  0  0  0
   -6.0438   -0.6841   -0.4089 H   0  0  0  0  0  0  0  0  0  0  0  0
   -3.8650   -3.4375    1.6171 H   0  0  0  0  0  0  0  0  0  0  0  0
   -5.4730    2.3081    0.8007 H   0  0  0  0  0  0  0  0  0  0  0  0
   -3.7812    2.4885    1.2341 H   0  0  0  0  0  0  0  0  0  0  0  0
    0.6684   -1.1796    0.9475 H   0  0  0  0  0  0  0  0  0  0  0  0
   -0.8210   -5.8914   -0.3686 H   0  0  0  0  0  0  0  0  0  0  0  0
   -2.5261    3.4633   -1.2163 H   0  0  0  0  0  0  0  0  0  0  0  0
   -2.5504    4.3181    0.3415 H   0  0  0  0  0  0  0  0  0  0  0  0
   -3.1008    5.1101   -1.1453 H   0  0  0  0  0  0  0  0  0  0  0  0
   -6.2832    4.4196    0.4465 H   0  0  0  0  0  0  0  0  0  0  0  0
   -5.2500    5.6615   -0.2387 H   0  0  0  0  0  0  0  0  0  0  0  0
   -4.8296    4.9392    1.3297 H   0  0  0  0  0  0  0  0  0  0  0  0
    2.5837    2.0416   -1.4842 H   0  0  0  0  0  0  0  0  0  0  0  0
    2.4885   -0.7793    1.7982 H   0  0  0  0  0  0  0  0  0  0  0  0
    5.0167    1.8256   -1.5833 H   0  0  0  0  0  0  0  0  0  0  0  0
    4.9087   -1.0053    1.6694 H   0  0  0  0  0  0  0  0  0  0  0  0
  1 29  1  0  0  0  0
  2 29  1  0  0  0  0
  3 29  1  0  0  0  0
  4 12  1  0  0  0  0
  4 14  1  0  0  0  0
  5 13  1  0  0  0  0
  5 43  1  0  0  0  0
  6 16  1  0  0  0  0
  6 47  1  0  0  0  0
  7 20  2  0  0  0  0
  8 11  1  0  0  0  0
  8 17  1  0  0  0  0
  8 18  1  0  0  0  0
  9 15  1  0  0  0  0
  9 20  1  0  0  0  0
  9 46  1  0  0  0  0
 10 19  1  0  0  0  0
 10 21  1  0  0  0  0
 10 22  1  0  0  0  0
 11 12  1  0  0  0  0
 11 13  1  0  0  0  0
 11 30  1  0  0  0  0
 12 15  1  0  0  0  0
 12 31  1  0  0  0  0
 13 14  1  0  0  0  0
 13 32  1  0  0  0  0
 14 16  1  0  0  0  0
 14 33  1  0  0  0  0
 15 34  1  0  0  0  0
 15 35  1  0  0  0  0
 16 36  1  0  0  0  0
 16 37  1  0  0  0  0
 17 19  1  0  0  0  0
 17 38  1  0  0  0  0
 17 39  1  0  0  0  0
 18 40  1  0  0  0  0
 18 41  1  0  0  0  0
 18 42  1  0  0  0  0
 19 44  1  0  0  0  0
 19 45  1  0  0  0  0
 20 23  1  0  0  0  0
 21 48  1  0  0  0  0
 21 49  1  0  0  0  0
 21 50  1  0  0  0  0
 22 51  1  0  0  0  0
 22 52  1  0  0  0  0
 22 53  1  0  0  0  0
 23 24  2  0  0  0  0
 23 25  1  0  0  0  0
 24 26  1  0  0  0  0
 24 54  1  0  0  0  0
 25 27  2  0  0  0  0
 25 55  1  0  0  0  0
 26 28  2  0  0  0  0
 26 56  1  0  0  0  0
 27 28  1  0  0  0  0
 27 57  1  0  0  0  0
 28 29  1  0  0  0  0
M  END
> <PUBCHEM_COMPOUND_CID>
28961449

> <PUBCHEM_CONFORMER_RMSD>
1

> <PUBCHEM_CONFORMER_DIVERSEORDER>
1
47
37
57
36
49
34
18
55
17
46
64
40
9
60
52
35
66
13
58
59
54
7
15
25
44
19
32
51
73
27
8
5
4
42
2
63
71
33
30
38
43
50
29
72
41
39
20
48
45
67
6
22
70
26
23
3
65
21
24
62
11
56
69
28
16
68
31
14
12
53
61
10

> <PUBCHEM_MMFF94_PARTIAL_CHARGES>
36
1 -0.34
10 -0.81
11 0.27
12 0.28
13 0.28
14 0.28
15 0.3
16 0.28
17 0.27
18 0.27
19 0.27
2 -0.34
20 0.54
21 0.27
22 0.27
23 0.09
24 -0.15
25 -0.15
26 -0.15
27 -0.15
28 -0.14
29 1.16
3 -0.34
4 -0.56
43 0.4
46 0.37
47 0.4
5 -0.68
54 0.15
55 0.15
56 0.15
57 0.15
6 -0.68
7 -0.57
8 -0.81
9 -0.73

> <PUBCHEM_EFFECTIVE_ROTOR_COUNT>
11

> <PUBCHEM_PHARMACOPHORE_FEATURES>
11
1 10 cation
1 4 acceptor
1 5 acceptor
1 5 donor
1 6 acceptor
1 6 donor
1 7 acceptor
1 8 cation
1 9 donor
5 4 11 12 13 14 rings
6 23 24 25 26 27 28 rings

> <PUBCHEM_HEAVY_ATOM_COUNT>
29

> <PUBCHEM_ATOM_DEF_STEREO_COUNT>
4

> <PUBCHEM_ATOM_UDEF_STEREO_COUNT>
0

> <PUBCHEM_BOND_DEF_STEREO_COUNT>
0

> <PUBCHEM_BOND_UDEF_STEREO_COUNT>
0

> <PUBCHEM_ISOTOPIC_ATOM_COUNT>
0

> <PUBCHEM_COMPONENT_COUNT>
1

> <PUBCHEM_CACTVS_TAUTO_COUNT>
2

> <PUBCHEM_CONFORMER_ID>
01B9EAA900000001

> <PUBCHEM_MMFF94_ENERGY>
70.5303

> <PUBCHEM_FEATURE_SELFOVERLAP>
55.826

> <PUBCHEM_SHAPE_FINGERPRINT>
10165383 225 18202007586984888393
10411042 1 18050286166283354979
105312 117 18341050722888166301
10670039 82 18410004417123509797
10675989 125 17837497344991833649
10940486 97 18335984280454885692
11014199 57 18049438450732404527
11763715 3 17614015400861900095
11796584 16 18343585162168768894
12107183 9 17973714784137466450
12236239 1 18260547862079187768
12788726 201 18262227932873740763
13761468 95 17896307039733970685
14251757 5 18411981390332040201
14294032 229 18272649018683582617
14713325 29 18408045126326115507
14790565 3 18338233739516285569
15021287 119 17603590737671613924
15183329 4 17821721754790028398
15230672 131 18265896865916543094
15297060 5 18199469874776260145
15326921 28 18193822765554548737
15419008 42 17987242131929301580
15439362 3 17834959677067449133
15484559 13 14864210010442267110
16719943 64 18339358570213856121
16990350 14 17548983251965323601
17844677 252 18338802346142349120
19958102 18 18339078181779261612
20101258 96 18120380019341476331
23522609 53 17749972006907767260
23559900 14 18058724844563251336
23569943 247 16372104682448517042
4015057 19 16128079144040072073
4107672 100 18410582781893443636
44062 13 18269838794825900374
4409770 3 18411134749805347361
5265222 85 18341613737018105432
5283173 99 18341610443042349576
531348 171 18409451375432481986
5385378 56 18054235324166036289
559249 180 18410291445339953370
6327066 14 18190736424274226141
6700243 42 17767444444103256055
7226269 152 17917429791779780105
9981440 41 18337956676235794881

> <PUBCHEM_SHAPE_MULTIPOLES>
536.56
16.61
5.61
0.98
29.82
1.3
-0.09
-9.09
-0.52
-12.86
1.07
0.36
0.13
-0.42

> <PUBCHEM_SHAPE_SELFOVERLAP>
1107.428

> <PUBCHEM_SHAPE_VOLUME>
310.5

> <PUBCHEM_COORDINATE_TYPE>
2
5
10

$$$$
