45783996
  -OEChem-12032416273D

 67 69  0     1  0  0  0  0  0999 V2000
   -3.3148    1.6607    0.8843 O   0  0  0  0  0  0  0  0  0  0  0  0
    6.4120    2.3836    0.3377 O   0  0  0  0  0  0  0  0  0  0  0  0
    2.0478   -0.1671   -0.5811 N   0  0  0  0  0  0  0  0  0  0  0  0
   -3.1802    0.8339   -1.1900 N   0  0  0  0  0  0  0  0  0  0  0  0
   -2.9900    2.2013   -1.2620 N   0  0  0  0  0  0  0  0  0  0  0  0
    0.0782   -1.9281    0.6893 C   0  0  1  0  0  0  0  0  0  0  0  0
    0.2245   -1.8032   -0.8451 C   0  0  2  0  0  0  0  0  0  0  0  0
   -1.1988   -1.2227    1.1671 C   0  0  0  0  0  0  0  0  0  0  0  0
   -2.4798   -1.7484    0.4845 C   0  0  2  0  0  0  0  0  0  0  0  0
    0.7748   -0.4322   -1.2513 C   0  0  0  0  0  0  0  0  0  0  0  0
    0.1011   -3.3964    1.1358 C   0  0  0  0  0  0  0  0  0  0  0  0
   -1.0720   -2.0522   -1.5726 C   0  0  0  0  0  0  0  0  0  0  0  0
   -2.2876   -2.0441   -0.9953 C   0  0  0  0  0  0  0  0  0  0  0  0
    3.1301   -0.9353   -1.2107 C   0  0  0  0  0  0  0  0  0  0  0  0
    2.3437    1.2717   -0.5904 C   0  0  0  0  0  0  0  0  0  0  0  0
    4.8189    0.7779   -0.4313 C   0  0  0  0  0  0  0  0  0  0  0  0
    4.4594   -0.7106   -0.4871 C   0  0  0  0  0  0  0  0  0  0  0  0
    3.6464    1.5721    0.1541 C   0  0  0  0  0  0  0  0  0  0  0  0
   -3.6190   -0.7567    0.7514 C   0  0  0  0  0  0  0  0  0  0  0  0
    1.5209   -3.9501    1.0709 C   0  0  0  0  0  0  0  0  0  0  0  0
   -0.4690   -3.5332    2.5438 C   0  0  0  0  0  0  0  0  0  0  0  0
   -3.5106   -2.3917   -1.7989 C   0  0  0  0  0  0  0  0  0  0  0  0
    6.0932    1.0048    0.3772 C   0  0  0  0  0  0  0  0  0  0  0  0
   -3.3658    0.5633    0.0808 C   0  0  0  0  0  0  0  0  0  0  0  0
   -3.0771    2.6418   -0.0287 C   0  0  0  0  0  0  0  0  0  0  0  0
   -2.9532    4.0111    0.4864 C   0  0  0  0  0  0  0  0  0  0  0  0
   -1.4893    4.4954    0.5692 C   0  0  0  0  0  0  0  0  0  0  0  0
   -0.6438    3.6541    1.5120 C   0  0  0  0  0  0  0  0  0  0  0  0
    0.9136   -1.4313    1.1984 H   0  0  0  0  0  0  0  0  0  0  0  0
    0.9076   -2.5749   -1.2118 H   0  0  0  0  0  0  0  0  0  0  0  0
   -1.3124   -1.2358    2.2567 H   0  0  0  0  0  0  0  0  0  0  0  0
   -1.0643   -0.1564    0.9447 H   0  0  0  0  0  0  0  0  0  0  0  0
   -2.7678   -2.6974    0.9524 H   0  0  0  0  0  0  0  0  0  0  0  0
    0.8808   -0.3597   -2.3429 H   0  0  0  0  0  0  0  0  0  0  0  0
    0.0403    0.3362   -0.9745 H   0  0  0  0  0  0  0  0  0  0  0  0
   -0.5220   -4.0105    0.4736 H   0  0  0  0  0  0  0  0  0  0  0  0
   -0.9871   -2.2696   -2.6353 H   0  0  0  0  0  0  0  0  0  0  0  0
    3.2407   -0.6610   -2.2683 H   0  0  0  0  0  0  0  0  0  0  0  0
    2.9296   -2.0100   -1.1762 H   0  0  0  0  0  0  0  0  0  0  0  0
    2.4090    1.6508   -1.6188 H   0  0  0  0  0  0  0  0  0  0  0  0
    1.5375    1.8218   -0.0909 H   0  0  0  0  0  0  0  0  0  0  0  0
    4.9884    1.1412   -1.4544 H   0  0  0  0  0  0  0  0  0  0  0  0
    4.3934   -1.1199    0.5298 H   0  0  0  0  0  0  0  0  0  0  0  0
    5.2520   -1.2663   -1.0025 H   0  0  0  0  0  0  0  0  0  0  0  0
    3.8454    2.6488    0.0970 H   0  0  0  0  0  0  0  0  0  0  0  0
    3.5209    1.3281    1.2174 H   0  0  0  0  0  0  0  0  0  0  0  0
   -4.5781   -1.1524    0.3979 H   0  0  0  0  0  0  0  0  0  0  0  0
   -3.7319   -0.6045    1.8322 H   0  0  0  0  0  0  0  0  0  0  0  0
    1.5472   -4.9833    1.4350 H   0  0  0  0  0  0  0  0  0  0  0  0
    1.9152   -3.9656    0.0517 H   0  0  0  0  0  0  0  0  0  0  0  0
    2.2078   -3.3647    1.6920 H   0  0  0  0  0  0  0  0  0  0  0  0
   -1.5498   -3.3868    2.5973 H   0  0  0  0  0  0  0  0  0  0  0  0
   -0.2958   -4.5496    2.9182 H   0  0  0  0  0  0  0  0  0  0  0  0
    0.0216   -2.8516    3.2479 H   0  0  0  0  0  0  0  0  0  0  0  0
   -4.1721   -1.5310   -1.9258 H   0  0  0  0  0  0  0  0  0  0  0  0
   -3.2534   -2.7524   -2.8010 H   0  0  0  0  0  0  0  0  0  0  0  0
   -4.0711   -3.1914   -1.3033 H   0  0  0  0  0  0  0  0  0  0  0  0
    5.9640    0.7022    1.4218 H   0  0  0  0  0  0  0  0  0  0  0  0
    6.9292    0.4421   -0.0510 H   0  0  0  0  0  0  0  0  0  0  0  0
    7.2260    2.5047    0.8554 H   0  0  0  0  0  0  0  0  0  0  0  0
   -3.4173    4.0884    1.4770 H   0  0  0  0  0  0  0  0  0  0  0  0
   -3.5085    4.6901   -0.1713 H   0  0  0  0  0  0  0  0  0  0  0  0
   -1.4823    5.5363    0.9128 H   0  0  0  0  0  0  0  0  0  0  0  0
   -1.0357    4.4813   -0.4292 H   0  0  0  0  0  0  0  0  0  0  0  0
    0.3647    4.0733    1.5870 H   0  0  0  0  0  0  0  0  0  0  0  0
   -0.5479    2.6229    1.1588 H   0  0  0  0  0  0  0  0  0  0  0  0
   -1.0777    3.6354    2.5169 H   0  0  0  0  0  0  0  0  0  0  0  0
  1 24  1  0  0  0  0
  1 25  1  0  0  0  0
  2 23  1  0  0  0  0
  2 60  1  0  0  0  0
  3 10  1  0  0  0  0
  3 14  1  0  0  0  0
  3 15  1  0  0  0  0
  4  5  1  0  0  0  0
  4 24  2  0  0  0  0
  5 25  2  0  0  0  0
  6  7  1  0  0  0  0
  6  8  1  0  0  0  0
  6 11  1  0  0  0  0
  6 29  1  0  0  0  0
  7 10  1  0  0  0  0
  7 12  1  0  0  0  0
  7 30  1  0  0  0  0
  8  9  1  0  0  0  0
  8 31  1  0  0  0  0
  8 32  1  0  0  0  0
  9 13  1  0  0  0  0
  9 19  1  0  0  0  0
  9 33  1  0  0  0  0
 10 34  1  0  0  0  0
 10 35  1  0  0  0  0
 11 20  1  0  0  0  0
 11 21  1  0  0  0  0
 11 36  1  0  0  0  0
 12 13  2  0  0  0  0
 12 37  1  0  0  0  0
 13 22  1  0  0  0  0
 14 17  1  0  0  0  0
 14 38  1  0  0  0  0
 14 39  1  0  0  0  0
 15 18  1  0  0  0  0
 15 40  1  0  0  0  0
 15 41  1  0  0  0  0
 16 17  1  0  0  0  0
 16 18  1  0  0  0  0
 16 23  1  0  0  0  0
 16 42  1  0  0  0  0
 17 43  1  0  0  0  0
 17 44  1  0  0  0  0
 18 45  1  0  0  0  0
 18 46  1  0  0  0  0
 19 24  1  0  0  0  0
 19 47  1  0  0  0  0
 19 48  1  0  0  0  0
 20 49  1  0  0  0  0
 20 50  1  0  0  0  0
 20 51  1  0  0  0  0
 21 52  1  0  0  0  0
 21 53  1  0  0  0  0
 21 54  1  0  0  0  0
 22 55  1  0  0  0  0
 22 56  1  0  0  0  0
 22 57  1  0  0  0  0
 23 58  1  0  0  0  0
 23 59  1  0  0  0  0
 25 26  1  0  0  0  0
 26 27  1  0  0  0  0
 26 61  1  0  0  0  0
 26 62  1  0  0  0  0
 27 28  1  0  0  0  0
 27 63  1  0  0  0  0
 27 64  1  0  0  0  0
 28 65  1  0  0  0  0
 28 66  1  0  0  0  0
 28 67  1  0  0  0  0
M  END
> <PUBCHEM_COMPOUND_CID>
45783996

> <PUBCHEM_CONFORMER_RMSD>
1

> <PUBCHEM_CONFORMER_DIVERSEORDER>
4
9
66
89
80
92
75
50
74
95
46
98
61
51
49
73
69
70
31
108
111
63
27
39
55
99
109
64
38
105
19
82
72
59
42
44
107
17
104
22
60
94
58
97
78
68
84
77
18
14
29
56
11
88
81
41
62
96
7
28
24
93
53
34
106
16
10
3
67
20
100
57
8
5
21
91
43
23
65
1
40
37
83
102
32
86
33
25
30
87
90
52
6
13
2
26
110
76
12
54
47
79
101
71
15
36
45
35
48
85
103

> <PUBCHEM_MMFF94_PARTIAL_CHARGES>
20
1 -0.28
10 0.27
12 -0.29
13 -0.28
14 0.27
15 0.27
19 0.18
2 -0.68
22 0.14
23 0.28
24 0.3
25 0.3
26 0.18
3 -0.81
37 0.15
4 -0.34
5 -0.34
60 0.4
7 0.14
9 0.14

> <PUBCHEM_EFFECTIVE_ROTOR_COUNT>
10

> <PUBCHEM_PHARMACOPHORE_FEATURES>
8
1 2 acceptor
1 2 donor
1 28 hydrophobe
1 3 cation
3 11 20 21 hydrophobe
5 1 4 5 24 25 rings
6 3 14 15 16 17 18 rings
6 6 7 8 9 12 13 rings

> <PUBCHEM_HEAVY_ATOM_COUNT>
28

> <PUBCHEM_ATOM_DEF_STEREO_COUNT>
3

> <PUBCHEM_ATOM_UDEF_STEREO_COUNT>
0

> <PUBCHEM_BOND_DEF_STEREO_COUNT>
0

> <PUBCHEM_BOND_UDEF_STEREO_COUNT>
0

> <PUBCHEM_ISOTOPIC_ATOM_COUNT>
0

> <PUBCHEM_COMPONENT_COUNT>
1

> <PUBCHEM_CACTVS_TAUTO_COUNT>
1

> <PUBCHEM_CONFORMER_ID>
02BA9BBC00000004

> <PUBCHEM_MMFF94_ENERGY>
37.0065

> <PUBCHEM_FEATURE_SELFOVERLAP>
40.596

> <PUBCHEM_SHAPE_FINGERPRINT>
10006869 2 18266181630974449587
10291535 26 18338517576925462682
12293681 160 18191284144162436695
12293681 4 18192153904882614434
12788726 201 18337943606217763818
14251751 93 18410012126125004270
14251757 17 17915757387517798758
14251757 5 18263649640042171840
14251764 38 18269839705711992080
14466204 15 18409726232354926984
14725015 67 18410853308798628497
14784336 7 18048573096459086898
16067690 210 18048573083943412064
19930381 70 16973353146457141839
20600515 1 18044104664197262692
20739085 24 17532658932235089814
20764821 26 18198062675627682328
21033650 10 18267608908488572342
392239 28 18116452507988790883
437795 96 17838323439751367432
4616759 239 17681539661826167600
469060 322 17969810569161959377
5895379 119 16761974767521661897
5939293 188 17112979561354239925
6609424 69 13304374473476140456
7226269 152 18411133675963491560
79837 15 18041010560814622034
9981440 41 18260554398349623499

> <PUBCHEM_SHAPE_MULTIPOLES>
549.55
9.53
5.85
1.68
15.9
3.01
0.25
6.94
-1.04
-3.75
2.85
-0.85
-1.37
-0.65

> <PUBCHEM_SHAPE_SELFOVERLAP>
1121.091

> <PUBCHEM_SHAPE_VOLUME>
317.8

> <PUBCHEM_COORDINATE_TYPE>
2
5
10

$$$$
