45361414
  -OEChem-12032416313D

 80 82  0     1  0  0  0  0  0999 V2000
   -0.8260   -1.1133    2.1797 O   0  0  0  0  0  0  0  0  0  0  0  0
   -5.2401   -2.2577   -0.6091 O   0  0  0  0  0  0  0  0  0  0  0  0
    4.9759    2.2951    0.6903 O   0  0  0  0  0  0  0  0  0  0  0  0
    4.1944    0.1111    0.5554 N   0  0  0  0  0  0  0  0  0  0  0  0
   -4.9400   -0.2581    0.5273 N   0  0  0  0  0  0  0  0  0  0  0  0
    0.3587   -0.2984   -1.3570 C   0  0  1  0  0  0  0  0  0  0  0  0
    0.3801   -0.3386    0.2073 C   0  0  2  0  0  0  0  0  0  0  0  0
    1.8289   -0.6313    0.7392 C   0  0  1  0  0  0  0  0  0  0  0  0
   -0.7364   -1.2689    0.7626 C   0  0  2  0  0  0  0  0  0  0  0  0
   -1.0539    0.1028   -1.8437 C   0  0  0  0  0  0  0  0  0  0  0  0
   -2.1327   -0.9286    0.1915 C   0  0  1  0  0  0  0  0  0  0  0  0
    1.3499    0.7824   -1.8472 C   0  0  0  0  0  0  0  0  0  0  0  0
    2.8303    0.4179    0.1793 C   0  0  2  0  0  0  0  0  0  0  0  0
   -2.1451   -0.8292   -1.3339 C   0  0  0  0  0  0  0  0  0  0  0  0
    2.7687    0.5660   -1.3406 C   0  0  0  0  0  0  0  0  0  0  0  0
    0.7354   -1.6613   -1.9914 C   0  0  0  0  0  0  0  0  0  0  0  0
   -3.1953   -1.9359    0.6480 C   0  0  2  0  0  0  0  0  0  0  0  0
    1.9281   -0.6563    2.2738 C   0  0  0  0  0  0  0  0  0  0  0  0
   -2.8167   -3.3408    0.1922 C   0  0  0  0  0  0  0  0  0  0  0  0
   -4.5637   -1.5271    0.1117 C   0  0  0  0  0  0  0  0  0  0  0  0
    5.1536    1.0820    0.7792 C   0  0  0  0  0  0  0  0  0  0  0  0
   -6.1957    0.3495    0.1461 C   0  0  0  0  0  0  0  0  0  0  0  0
    6.5079    0.5017    1.1530 C   0  0  0  0  0  0  0  0  0  0  0  0
    7.4195    0.1611   -0.0498 C   0  0  0  0  0  0  0  0  0  0  0  0
   -6.7207    1.2696    1.2533 C   0  0  0  0  0  0  0  0  0  0  0  0
   -6.0636    1.0997   -1.1836 C   0  0  0  0  0  0  0  0  0  0  0  0
   -5.9037    2.5554    1.3816 C   0  0  0  0  0  0  0  0  0  0  0  0
   -5.2476    2.3856   -1.0512 C   0  0  0  0  0  0  0  0  0  0  0  0
   -5.7959    3.2895    0.0486 C   0  0  0  0  0  0  0  0  0  0  0  0
    7.6900    1.3994   -0.9200 C   0  0  0  0  0  0  0  0  0  0  0  0
    6.6972   -0.8921   -0.9128 C   0  0  0  0  0  0  0  0  0  0  0  0
    8.7586   -0.4313    0.4204 C   0  0  0  0  0  0  0  0  0  0  0  0
    0.1368    0.6746    0.5658 H   0  0  0  0  0  0  0  0  0  0  0  0
    2.1377   -1.6272    0.3971 H   0  0  0  0  0  0  0  0  0  0  0  0
   -0.4388   -2.3003    0.5667 H   0  0  0  0  0  0  0  0  0  0  0  0
   -1.0856    0.1260   -2.9406 H   0  0  0  0  0  0  0  0  0  0  0  0
   -1.2838    1.1238   -1.5100 H   0  0  0  0  0  0  0  0  0  0  0  0
   -2.3905    0.0649    0.5819 H   0  0  0  0  0  0  0  0  0  0  0  0
    1.0106    1.7723   -1.5138 H   0  0  0  0  0  0  0  0  0  0  0  0
    1.3631    0.8166   -2.9441 H   0  0  0  0  0  0  0  0  0  0  0  0
    2.5789    1.3933    0.6185 H   0  0  0  0  0  0  0  0  0  0  0  0
   -3.1028   -0.4338   -1.6909 H   0  0  0  0  0  0  0  0  0  0  0  0
   -2.0208   -1.7985   -1.8210 H   0  0  0  0  0  0  0  0  0  0  0  0
    3.3906    1.4135   -1.6567 H   0  0  0  0  0  0  0  0  0  0  0  0
    3.2102   -0.3137   -1.8245 H   0  0  0  0  0  0  0  0  0  0  0  0
    0.0801   -2.4723   -1.6617 H   0  0  0  0  0  0  0  0  0  0  0  0
    0.6646   -1.6099   -3.0843 H   0  0  0  0  0  0  0  0  0  0  0  0
    1.7557   -1.9726   -1.7537 H   0  0  0  0  0  0  0  0  0  0  0  0
   -3.2707   -1.9346    1.7430 H   0  0  0  0  0  0  0  0  0  0  0  0
    1.4824    0.2408    2.7157 H   0  0  0  0  0  0  0  0  0  0  0  0
    2.9664   -0.7130    2.6162 H   0  0  0  0  0  0  0  0  0  0  0  0
    1.4370   -1.5420    2.6867 H   0  0  0  0  0  0  0  0  0  0  0  0
    4.4552   -0.8682    0.6200 H   0  0  0  0  0  0  0  0  0  0  0  0
   -1.0357   -0.1829    2.3692 H   0  0  0  0  0  0  0  0  0  0  0  0
   -2.7436   -3.4567   -0.8915 H   0  0  0  0  0  0  0  0  0  0  0  0
   -3.6001   -4.0426    0.5075 H   0  0  0  0  0  0  0  0  0  0  0  0
   -1.8979   -3.7094    0.6535 H   0  0  0  0  0  0  0  0  0  0  0  0
   -4.3263    0.2688    1.1393 H   0  0  0  0  0  0  0  0  0  0  0  0
   -6.9203   -0.4625    0.0076 H   0  0  0  0  0  0  0  0  0  0  0  0
    6.3510   -0.3896    1.7748 H   0  0  0  0  0  0  0  0  0  0  0  0
    7.0063    1.2348    1.8008 H   0  0  0  0  0  0  0  0  0  0  0  0
   -6.7242    0.7439    2.2157 H   0  0  0  0  0  0  0  0  0  0  0  0
   -7.7624    1.5350    1.0321 H   0  0  0  0  0  0  0  0  0  0  0  0
   -5.6067    0.4570   -1.9456 H   0  0  0  0  0  0  0  0  0  0  0  0
   -7.0667    1.3565   -1.5476 H   0  0  0  0  0  0  0  0  0  0  0  0
   -6.3734    3.2123    2.1228 H   0  0  0  0  0  0  0  0  0  0  0  0
   -4.8992    2.3281    1.7574 H   0  0  0  0  0  0  0  0  0  0  0  0
   -4.2011    2.1384   -0.8345 H   0  0  0  0  0  0  0  0  0  0  0  0
   -5.2543    2.9236   -2.0060 H   0  0  0  0  0  0  0  0  0  0  0  0
   -6.7863    3.6592   -0.2444 H   0  0  0  0  0  0  0  0  0  0  0  0
   -5.1491    4.1668    0.1618 H   0  0  0  0  0  0  0  0  0  0  0  0
    6.7702    1.8018   -1.3575 H   0  0  0  0  0  0  0  0  0  0  0  0
    8.3650    1.1585   -1.7493 H   0  0  0  0  0  0  0  0  0  0  0  0
    8.1582    2.1957   -0.3308 H   0  0  0  0  0  0  0  0  0  0  0  0
    6.3931   -1.7605   -0.3180 H   0  0  0  0  0  0  0  0  0  0  0  0
    5.8165   -0.4859   -1.4193 H   0  0  0  0  0  0  0  0  0  0  0  0
    7.3616   -1.2614   -1.7038 H   0  0  0  0  0  0  0  0  0  0  0  0
    9.4004   -0.6954   -0.4275 H   0  0  0  0  0  0  0  0  0  0  0  0
    8.6011   -1.3374    1.0160 H   0  0  0  0  0  0  0  0  0  0  0  0
    9.3050    0.2859    1.0429 H   0  0  0  0  0  0  0  0  0  0  0  0
  1  9  1  0  0  0  0
  1 54  1  0  0  0  0
  2 20  2  0  0  0  0
  3 21  2  0  0  0  0
  4 13  1  0  0  0  0
  4 21  1  0  0  0  0
  4 53  1  0  0  0  0
  5 20  1  0  0  0  0
  5 22  1  0  0  0  0
  5 58  1  0  0  0  0
  6  7  1  0  0  0  0
  6 10  1  0  0  0  0
  6 12  1  0  0  0  0
  6 16  1  0  0  0  0
  7  8  1  0  0  0  0
  7  9  1  0  0  0  0
  7 33  1  0  0  0  0
  8 13  1  0  0  0  0
  8 18  1  0  0  0  0
  8 34  1  0  0  0  0
  9 11  1  0  0  0  0
  9 35  1  0  0  0  0
 10 14  1  0  0  0  0
 10 36  1  0  0  0  0
 10 37  1  0  0  0  0
 11 14  1  0  0  0  0
 11 17  1  0  0  0  0
 11 38  1  0  0  0  0
 12 15  1  0  0  0  0
 12 39  1  0  0  0  0
 12 40  1  0  0  0  0
 13 15  1  0  0  0  0
 13 41  1  0  0  0  0
 14 42  1  0  0  0  0
 14 43  1  0  0  0  0
 15 44  1  0  0  0  0
 15 45  1  0  0  0  0
 16 46  1  0  0  0  0
 16 47  1  0  0  0  0
 16 48  1  0  0  0  0
 17 19  1  0  0  0  0
 17 20  1  0  0  0  0
 17 49  1  0  0  0  0
 18 50  1  0  0  0  0
 18 51  1  0  0  0  0
 18 52  1  0  0  0  0
 19 55  1  0  0  0  0
 19 56  1  0  0  0  0
 19 57  1  0  0  0  0
 21 23  1  0  0  0  0
 22 25  1  0  0  0  0
 22 26  1  0  0  0  0
 22 59  1  0  0  0  0
 23 24  1  0  0  0  0
 23 60  1  0  0  0  0
 23 61  1  0  0  0  0
 24 30  1  0  0  0  0
 24 31  1  0  0  0  0
 24 32  1  0  0  0  0
 25 27  1  0  0  0  0
 25 62  1  0  0  0  0
 25 63  1  0  0  0  0
 26 28  1  0  0  0  0
 26 64  1  0  0  0  0
 26 65  1  0  0  0  0
 27 29  1  0  0  0  0
 27 66  1  0  0  0  0
 27 67  1  0  0  0  0
 28 29  1  0  0  0  0
 28 68  1  0  0  0  0
 28 69  1  0  0  0  0
 29 70  1  0  0  0  0
 29 71  1  0  0  0  0
 30 72  1  0  0  0  0
 30 73  1  0  0  0  0
 30 74  1  0  0  0  0
 31 75  1  0  0  0  0
 31 76  1  0  0  0  0
 31 77  1  0  0  0  0
 32 78  1  0  0  0  0
 32 79  1  0  0  0  0
 32 80  1  0  0  0  0
M  END
> <PUBCHEM_COMPOUND_CID>
45361414

> <PUBCHEM_CONFORMER_RMSD>
1.2

> <PUBCHEM_CONFORMER_DIVERSEORDER>
1
13
36
59
23
66
92
60
58
40
21
87
76
64
35
96
12
85
80
9
68
37
52
48
45
30
34
73
32
97
94
71
28
72
39
93
18
50
53
95
91
57
26
11
84
47
65
38
75
79
83
31
17
29
43
6
88
63
81
82
19
22
69
14
86
90
74
46
41
49
51
70
27
10
25
15
5
67
78
24
7
62
89
33
44
61
55
3
56
8
54
16
20
42
2
77
4

> <PUBCHEM_MMFF94_PARTIAL_CHARGES>
15
1 -0.68
13 0.3
17 0.06
2 -0.57
20 0.57
21 0.57
22 0.3
23 0.06
3 -0.57
4 -0.73
5 -0.73
53 0.37
54 0.4
58 0.37
9 0.28

> <PUBCHEM_EFFECTIVE_ROTOR_COUNT>
10.8

> <PUBCHEM_PHARMACOPHORE_FEATURES>
11
1 1 acceptor
1 1 donor
1 19 hydrophobe
1 2 acceptor
1 3 acceptor
1 4 donor
1 5 donor
4 24 30 31 32 hydrophobe
6 22 25 26 27 28 29 rings
6 6 7 8 12 13 15 rings
6 6 7 9 10 11 14 rings

> <PUBCHEM_HEAVY_ATOM_COUNT>
32

> <PUBCHEM_ATOM_DEF_STEREO_COUNT>
6

> <PUBCHEM_ATOM_UDEF_STEREO_COUNT>
1

> <PUBCHEM_BOND_DEF_STEREO_COUNT>
0

> <PUBCHEM_BOND_UDEF_STEREO_COUNT>
0

> <PUBCHEM_ISOTOPIC_ATOM_COUNT>
0

> <PUBCHEM_COMPONENT_COUNT>
1

> <PUBCHEM_CACTVS_TAUTO_COUNT>
4

> <PUBCHEM_CONFORMER_ID>
02B4290600000001

> <PUBCHEM_MMFF94_ENERGY>
79.8713

> <PUBCHEM_FEATURE_SELFOVERLAP>
55.835

> <PUBCHEM_SHAPE_FINGERPRINT>
100830 39 18410573968425860409
10554248 39 15554452933547082144
10577160 183 16916777449348776534
10580692 12 18409729552211802298
10670039 82 18411414021553428241
10674148 151 18186236235192812328
10906281 52 17168154442290279202
11135926 11 16226037908204185514
11181472 205 18272382940969592152
11578080 2 18059579044902297791
11720765 8 16979291081179773631
12422481 6 17168700809506527519
13885169 127 18412261748706995926
13914758 101 18343585140224044458
14849402 71 17458917053724084636
14856354 85 16008755727416177059
14950920 106 14851902348286387669
15021287 119 16877947144089284957
15142383 8 17847061087184833288
15183329 4 18334849524214364338
15461852 350 18342731962493688935
15475509 8 17821736005475848454
15484559 13 14681102897566731555
15604295 49 18129373977582426616
18608769 82 11025802010956739616
20105231 36 15502377816565921882
21033648 29 18129646604688194800
21150785 3 9871750196049109324
21521721 280 16009033917164639196
21623969 137 14417851423389163809
21756936 100 18411413991399096925
21796203 349 15792597191598177181
21814621 53 18272367629168310306
21859007 373 18200880586764525740
2260408 40 16733266742132122786
23522609 53 17458927997337262404
23559900 14 18200605687514925783
23569914 2 17481935295018030553
23569943 247 17096904924521083930
24771293 8 17677329567405102028
2747138 104 14056717938059602140
2838139 119 17988920076620375273
4093350 32 18340485561427942578
4098825 35 18413671292527934770
4144715 1 18267025153312629216
4169191 19 18409726223274472903
5028188 123 18114467846883200350
57527295 17 16845005707618907883
6009941 240 18343586252626193146
6086070 43 16056584478491485439
7226269 152 18408603647989218113
9849439 229 18050572834186912641
999808 66 14056999408013604720

> <PUBCHEM_SHAPE_MULTIPOLES>
630.97
22.32
2.69
1.82
23.88
0.26
-0.08
11.74
2.8
-5.43
0.19
0.04
-0.04
-0.2

> <PUBCHEM_SHAPE_SELFOVERLAP>
1283.424

> <PUBCHEM_SHAPE_VOLUME>
362.8

> <PUBCHEM_COORDINATE_TYPE>
2
5
10

$$$$
