75536683
  -OEChem-12032416303D

 47 49  0     1  0  0  0  0  0999 V2000
    4.8773    1.2968    0.0265 S   0  0  0  0  0  0  0  0  0  0  0  0
   -8.5192   -1.9311    0.2316 F   0  0  0  0  0  0  0  0  0  0  0  0
    0.5251    1.3712   -1.3594 O   0  0  0  0  0  0  0  0  0  0  0  0
   -0.3296    1.1625    2.1236 O   0  0  0  0  0  0  0  0  0  0  0  0
    4.9146    1.7670    1.3981 O   0  0  0  0  0  0  0  0  0  0  0  0
    5.7424    1.8937   -0.9730 O   0  0  0  0  0  0  0  0  0  0  0  0
   -2.6525    0.4277    0.1385 N   0  0  0  0  0  0  0  0  0  0  0  0
    3.2728    1.3324   -0.5380 N   0  0  0  0  0  0  0  0  0  0  0  0
   -1.4480    1.2209   -0.0457 C   0  0  1  0  0  0  0  0  0  0  0  0
   -0.2681    0.7363    0.7763 C   0  0  1  0  0  0  0  0  0  0  0  0
    0.8930    1.3792    0.0300 C   0  0  1  0  0  0  0  0  0  0  0  0
   -0.8895    1.1295   -1.4564 C   0  0  0  0  0  0  0  0  0  0  0  0
    2.2079    0.6434    0.2170 C   0  0  0  0  0  0  0  0  0  0  0  0
   -3.8218    1.1171   -0.3939 C   0  0  0  0  0  0  0  0  0  0  0  0
   -5.0770    0.3028   -0.2266 C   0  0  0  0  0  0  0  0  0  0  0  0
    5.2192   -0.4375    0.0355 C   0  0  0  0  0  0  0  0  0  0  0  0
   -5.4695   -0.5867   -1.2270 C   0  0  0  0  0  0  0  0  0  0  0  0
   -5.8475    0.4375    0.9283 C   0  0  0  0  0  0  0  0  0  0  0  0
    5.7556   -1.0486   -1.0977 C   0  0  0  0  0  0  0  0  0  0  0  0
    4.9527   -1.1948    1.1762 C   0  0  0  0  0  0  0  0  0  0  0  0
   -6.6324   -1.3413   -1.0725 C   0  0  0  0  0  0  0  0  0  0  0  0
   -7.0105   -0.3169    1.0829 C   0  0  0  0  0  0  0  0  0  0  0  0
   -7.4029   -1.2063    0.0824 C   0  0  0  0  0  0  0  0  0  0  0  0
    6.0257   -2.4172   -1.0905 C   0  0  0  0  0  0  0  0  0  0  0  0
    5.2230   -2.5633    1.1836 C   0  0  0  0  0  0  0  0  0  0  0  0
    5.7592   -3.1744    0.0502 C   0  0  0  0  0  0  0  0  0  0  0  0
   -1.6400    2.2698    0.2211 H   0  0  0  0  0  0  0  0  0  0  0  0
   -0.1948   -0.3582    0.7548 H   0  0  0  0  0  0  0  0  0  0  0  0
    1.0173    2.4282    0.3297 H   0  0  0  0  0  0  0  0  0  0  0  0
   -1.0172    0.1315   -1.8913 H   0  0  0  0  0  0  0  0  0  0  0  0
   -1.3361    1.8615   -2.1361 H   0  0  0  0  0  0  0  0  0  0  0  0
    2.1306   -0.3775   -0.1734 H   0  0  0  0  0  0  0  0  0  0  0  0
    2.4557    0.6022    1.2819 H   0  0  0  0  0  0  0  0  0  0  0  0
   -2.7920    0.2616    1.1356 H   0  0  0  0  0  0  0  0  0  0  0  0
   -3.6903    1.3377   -1.4608 H   0  0  0  0  0  0  0  0  0  0  0  0
   -3.9595    2.0863    0.1036 H   0  0  0  0  0  0  0  0  0  0  0  0
   -0.3954    2.1324    2.1347 H   0  0  0  0  0  0  0  0  0  0  0  0
    3.1118    1.4300   -1.5483 H   0  0  0  0  0  0  0  0  0  0  0  0
   -4.8769   -0.7022   -2.1307 H   0  0  0  0  0  0  0  0  0  0  0  0
   -5.5515    1.1257    1.7157 H   0  0  0  0  0  0  0  0  0  0  0  0
    5.9640   -0.4798   -1.9994 H   0  0  0  0  0  0  0  0  0  0  0  0
    4.5329   -0.7404    2.0690 H   0  0  0  0  0  0  0  0  0  0  0  0
   -6.9380   -2.0342   -1.8508 H   0  0  0  0  0  0  0  0  0  0  0  0
   -7.6104   -0.2127    1.9821 H   0  0  0  0  0  0  0  0  0  0  0  0
    6.4416   -2.8936   -1.9734 H   0  0  0  0  0  0  0  0  0  0  0  0
    5.0150   -3.1533    2.0714 H   0  0  0  0  0  0  0  0  0  0  0  0
    5.9689   -4.2400    0.0557 H   0  0  0  0  0  0  0  0  0  0  0  0
  1  5  2  0  0  0  0
  1  6  2  0  0  0  0
  1  8  1  0  0  0  0
  1 16  1  0  0  0  0
  2 23  1  0  0  0  0
  3 11  1  0  0  0  0
  3 12  1  0  0  0  0
  4 10  1  0  0  0  0
  4 37  1  0  0  0  0
  7  9  1  0  0  0  0
  7 14  1  0  0  0  0
  7 34  1  0  0  0  0
  8 13  1  0  0  0  0
  8 38  1  0  0  0  0
  9 10  1  0  0  0  0
  9 12  1  0  0  0  0
  9 27  1  0  0  0  0
 10 11  1  0  0  0  0
 10 28  1  0  0  0  0
 11 13  1  0  0  0  0
 11 29  1  0  0  0  0
 12 30  1  0  0  0  0
 12 31  1  0  0  0  0
 13 32  1  0  0  0  0
 13 33  1  0  0  0  0
 14 15  1  0  0  0  0
 14 35  1  0  0  0  0
 14 36  1  0  0  0  0
 15 17  2  0  0  0  0
 15 18  1  0  0  0  0
 16 19  2  0  0  0  0
 16 20  1  0  0  0  0
 17 21  1  0  0  0  0
 17 39  1  0  0  0  0
 18 22  2  0  0  0  0
 18 40  1  0  0  0  0
 19 24  1  0  0  0  0
 19 41  1  0  0  0  0
 20 25  2  0  0  0  0
 20 42  1  0  0  0  0
 21 23  2  0  0  0  0
 21 43  1  0  0  0  0
 22 23  1  0  0  0  0
 22 44  1  0  0  0  0
 24 26  2  0  0  0  0
 24 45  1  0  0  0  0
 25 26  1  0  0  0  0
 25 46  1  0  0  0  0
 26 47  1  0  0  0  0
M  END
> <PUBCHEM_COMPOUND_CID>
75536683

> <PUBCHEM_CONFORMER_RMSD>
1.2

> <PUBCHEM_CONFORMER_DIVERSEORDER>
1
56
35
24
85
105
40
26
64
38
100
82
13
33
2
86
60
91
17
34
63
12
58
97
88
29
52
16
46
83
50
54
68
59
19
99
94
106
5
74
73
57
32
77
7
76
93
75
87
70
30
21
92
18
55
6
3
89
103
22
45
107
36
4
10
39
14
49
65
102
71
72
51
90
84
11
47
42
8
41
25
43
37
69
95
81
104
53
28
78
48
62
23
101
9
67
27
98
96
15
79
61
80
20
44
66
31

> <PUBCHEM_MMFF94_PARTIAL_CHARGES>
38
1 1.45
10 0.28
11 0.28
12 0.28
13 0.36
14 0.41
15 -0.14
16 -0.01
17 -0.15
18 -0.15
19 -0.15
2 -0.19
20 -0.15
21 -0.15
22 -0.15
23 0.19
24 -0.15
25 -0.15
26 -0.15
3 -0.56
34 0.36
37 0.4
38 0.42
39 0.15
4 -0.68
40 0.15
41 0.15
42 0.15
43 0.15
44 0.15
45 0.15
46 0.15
47 0.15
5 -0.65
6 -0.65
7 -0.9
8 -0.91
9 0.27

> <PUBCHEM_EFFECTIVE_ROTOR_COUNT>
8

> <PUBCHEM_PHARMACOPHORE_FEATURES>
11
1 3 acceptor
1 4 acceptor
1 4 donor
1 5 acceptor
1 6 acceptor
1 7 cation
1 7 donor
1 8 donor
5 3 9 10 11 12 rings
6 15 17 18 21 22 23 rings
6 16 19 20 24 25 26 rings

> <PUBCHEM_HEAVY_ATOM_COUNT>
26

> <PUBCHEM_ATOM_DEF_STEREO_COUNT>
3

> <PUBCHEM_ATOM_UDEF_STEREO_COUNT>
0

> <PUBCHEM_BOND_DEF_STEREO_COUNT>
0

> <PUBCHEM_BOND_UDEF_STEREO_COUNT>
0

> <PUBCHEM_ISOTOPIC_ATOM_COUNT>
0

> <PUBCHEM_COMPONENT_COUNT>
1

> <PUBCHEM_CACTVS_TAUTO_COUNT>
1

> <PUBCHEM_CONFORMER_ID>
0480992B00000001

> <PUBCHEM_MMFF94_ENERGY>
45.43

> <PUBCHEM_FEATURE_SELFOVERLAP>
55.84

> <PUBCHEM_SHAPE_FINGERPRINT>
10 15 14908176465037664427
10280341 67 12830934061766883158
10299344 5 18343868831419651893
10316853 100 18408605834201814666
10319926 262 15913039963416380311
11135609 127 10953745534258706838
11408170 132 16661190452903136391
11719270 70 17560802108820857503
12166972 35 18411140229482633704
125118 31 10015868686607143343
13533116 47 18342457037204856728
1361 2 18259985972698150994
1361 4 18410574032597194687
13782708 43 18410288086569532805
14251764 18 18060138773819845655
14347332 77 18262233309603186604
15183329 4 18040716969808411291
15352257 5 18411419522895357439
15475509 35 18202273693946011162
15716309 27 18201721769505772213
17134984 74 18113617885360578186
18335252 98 18410292544956868312
2026 5 18261671485459282891
20281389 69 11167949052260400267
20397935 70 18413387627566016654
21130935 74 18413671309844785347
21344244 181 18113902658244568075
21521239 73 17967250896932518627
21641784 216 14924218279309429260
21792934 111 14261360102651042185
220451 1 18202002161417748444
2303208 19 18260823774324547525
23081809 10 18413113857355063793
23522609 53 18127721333557924441
23569943 247 18044091254977666259
2748736 6 9799682693105229463
328310 630 10809343313539642935
33382 64 18412260619067131232
33532 11 18410855473620056503
3472631 163 12180144063802523922
34797466 226 17676489475368990580
3663271 9 18059858367757560297
397638 26 14549020975077437615
465052 167 18271806779453623494
5104073 3 15697418062107609535
5718773 13 18043242449776964674
6898599 12 11098444532279918552
9831232 110 18338798884398949310

> <PUBCHEM_SHAPE_MULTIPOLES>
498.2
24.25
2.61
1.41
26
1.52
0.15
16.7
-0.01
-4.57
-0.03
-0.28
-0.07
-0.36

> <PUBCHEM_SHAPE_SELFOVERLAP>
1039.744

> <PUBCHEM_SHAPE_VOLUME>
284.9

> <PUBCHEM_COORDINATE_TYPE>
2
5
10

$$$$
