75536508
  -OEChem-12032416393D

 38 39  0     1  0  0  0  0  0999 V2000
    2.0113    1.2829    0.3581 O   0  0  0  0  0  0  0  0  0  0  0  0
    1.1270   -2.1143   -0.4055 O   0  0  0  0  0  0  0  0  0  0  0  0
    5.6921   -1.2972    0.2804 O   0  0  0  0  0  0  0  0  0  0  0  0
   -1.3018   -0.1407   -0.1194 N   0  0  0  0  0  0  0  0  0  0  0  0
    4.6533    0.6114   -0.5590 N   0  0  0  0  0  0  0  0  0  0  0  0
   -5.7873   -1.0685    0.2706 N   0  0  0  0  0  0  0  0  0  0  0  0
    0.0581   -0.0684    0.3895 C   0  0  1  0  0  0  0  0  0  0  0  0
    1.0860   -0.7057   -0.5270 C   0  0  1  0  0  0  0  0  0  0  0  0
    2.3686   -0.0552   -0.0265 C   0  0  1  0  0  0  0  0  0  0  0  0
    0.5801    1.3560    0.4824 C   0  0  0  0  0  0  0  0  0  0  0  0
    3.4680   -0.0123   -1.0728 C   0  0  0  0  0  0  0  0  0  0  0  0
   -2.2706    0.1708    0.9248 C   0  0  0  0  0  0  0  0  0  0  0  0
   -3.6849    0.1170    0.4115 C   0  0  0  0  0  0  0  0  0  0  0  0
    5.6732   -0.0858    0.0786 C   0  0  0  0  0  0  0  0  0  0  0  0
   -4.2037    1.1446   -0.3684 C   0  0  0  0  0  0  0  0  0  0  0  0
   -4.5102   -0.9579    0.7004 C   0  0  0  0  0  0  0  0  0  0  0  0
    6.8109    0.8069    0.4964 C   0  0  0  0  0  0  0  0  0  0  0  0
   -5.5134    1.0670   -0.8291 C   0  0  0  0  0  0  0  0  0  0  0  0
   -6.2568   -0.0504   -0.4849 C   0  0  0  0  0  0  0  0  0  0  0  0
    0.1237   -0.5630    1.3690 H   0  0  0  0  0  0  0  0  0  0  0  0
    0.8943   -0.4467   -1.5758 H   0  0  0  0  0  0  0  0  0  0  0  0
    2.7378   -0.5658    0.8727 H   0  0  0  0  0  0  0  0  0  0  0  0
    0.2170    1.9872   -0.3369 H   0  0  0  0  0  0  0  0  0  0  0  0
    0.3233    1.8394    1.4299 H   0  0  0  0  0  0  0  0  0  0  0  0
    3.1557    0.5850   -1.9364 H   0  0  0  0  0  0  0  0  0  0  0  0
    3.7123   -1.0227   -1.4176 H   0  0  0  0  0  0  0  0  0  0  0  0
   -1.4790   -1.0852   -0.4628 H   0  0  0  0  0  0  0  0  0  0  0  0
   -2.0977    1.1754    1.3312 H   0  0  0  0  0  0  0  0  0  0  0  0
   -2.1651   -0.5268    1.7659 H   0  0  0  0  0  0  0  0  0  0  0  0
    1.2959   -2.3361    0.5258 H   0  0  0  0  0  0  0  0  0  0  0  0
    4.7420    1.6175   -0.6693 H   0  0  0  0  0  0  0  0  0  0  0  0
   -3.5972    2.0096   -0.6226 H   0  0  0  0  0  0  0  0  0  0  0  0
   -4.1633   -1.7921    1.3024 H   0  0  0  0  0  0  0  0  0  0  0  0
    6.4285    1.7034    0.9927 H   0  0  0  0  0  0  0  0  0  0  0  0
    7.4613    0.2721    1.1940 H   0  0  0  0  0  0  0  0  0  0  0  0
    7.3882    1.0968   -0.3857 H   0  0  0  0  0  0  0  0  0  0  0  0
   -5.9387    1.8562   -1.4384 H   0  0  0  0  0  0  0  0  0  0  0  0
   -7.2833   -0.1590   -0.8192 H   0  0  0  0  0  0  0  0  0  0  0  0
  1  9  1  0  0  0  0
  1 10  1  0  0  0  0
  2  8  1  0  0  0  0
  2 30  1  0  0  0  0
  3 14  2  0  0  0  0
  4  7  1  0  0  0  0
  4 12  1  0  0  0  0
  4 27  1  0  0  0  0
  5 11  1  0  0  0  0
  5 14  1  0  0  0  0
  5 31  1  0  0  0  0
  6 16  1  0  0  0  0
  6 19  2  0  0  0  0
  7  8  1  0  0  0  0
  7 10  1  0  0  0  0
  7 20  1  0  0  0  0
  8  9  1  0  0  0  0
  8 21  1  0  0  0  0
  9 11  1  0  0  0  0
  9 22  1  0  0  0  0
 10 23  1  0  0  0  0
 10 24  1  0  0  0  0
 11 25  1  0  0  0  0
 11 26  1  0  0  0  0
 12 13  1  0  0  0  0
 12 28  1  0  0  0  0
 12 29  1  0  0  0  0
 13 15  1  0  0  0  0
 13 16  2  0  0  0  0
 14 17  1  0  0  0  0
 15 18  2  0  0  0  0
 15 32  1  0  0  0  0
 16 33  1  0  0  0  0
 17 34  1  0  0  0  0
 17 35  1  0  0  0  0
 17 36  1  0  0  0  0
 18 19  1  0  0  0  0
 18 37  1  0  0  0  0
 19 38  1  0  0  0  0
M  END
> <PUBCHEM_COMPOUND_CID>
75536508

> <PUBCHEM_CONFORMER_RMSD>
1

> <PUBCHEM_CONFORMER_DIVERSEORDER>
1
109
62
89
49
117
63
40
25
101
2
75
96
105
90
85
26
71
110
42
70
4
115
88
44
18
61
59
46
108
98
84
66
120
91
95
41
69
9
43
39
68
119
31
64
80
116
19
23
45
55
57
106
15
100
28
7
94
76
17
79
78
82
32
12
107
104
93
22
24
113
3
33
53
21
34
56
118
73
65
72
83
74
67
48
86
10
103
27
87
8
92
13
112
77
51
38
29
60
102
54
20
111
50
6
30
14
99
11
114
58
97
37
5
16
47
36
35
81
52

> <PUBCHEM_MMFF94_PARTIAL_CHARGES>
26
1 -0.56
10 0.28
11 0.3
12 0.41
13 -0.14
14 0.57
15 -0.15
16 0.16
17 0.06
18 -0.15
19 0.16
2 -0.68
27 0.36
3 -0.57
30 0.4
31 0.37
32 0.15
33 0.15
37 0.15
38 0.15
4 -0.9
5 -0.73
6 -0.62
7 0.27
8 0.28
9 0.28

> <PUBCHEM_EFFECTIVE_ROTOR_COUNT>
7

> <PUBCHEM_PHARMACOPHORE_FEATURES>
10
1 1 acceptor
1 2 acceptor
1 2 donor
1 3 acceptor
1 4 cation
1 4 donor
1 5 donor
1 6 acceptor
5 1 7 8 9 10 rings
6 6 13 15 16 18 19 rings

> <PUBCHEM_HEAVY_ATOM_COUNT>
19

> <PUBCHEM_ATOM_DEF_STEREO_COUNT>
3

> <PUBCHEM_ATOM_UDEF_STEREO_COUNT>
0

> <PUBCHEM_BOND_DEF_STEREO_COUNT>
0

> <PUBCHEM_BOND_UDEF_STEREO_COUNT>
0

> <PUBCHEM_ISOTOPIC_ATOM_COUNT>
0

> <PUBCHEM_COMPONENT_COUNT>
1

> <PUBCHEM_CACTVS_TAUTO_COUNT>
2

> <PUBCHEM_CONFORMER_ID>
0480987C00000001

> <PUBCHEM_MMFF94_ENERGY>
37.5292

> <PUBCHEM_FEATURE_SELFOVERLAP>
50.747

> <PUBCHEM_SHAPE_FINGERPRINT>
10968037 39 16558749027272963685
11089746 13 16008750229477943997
11315181 36 18413673522122454713
11719270 70 18341326713039139574
11796584 16 17313108566243511402
12091667 2 17748548147638414265
12236239 1 16702026357101760777
12516196 113 15123508111960536754
13533116 47 18335138636566470266
13862211 1 18272934908063545806
1420 363 17561086907885703783
14251718 22 18342459244401120413
14251752 14 18040429971477215005
14251764 18 16805041831334761868
14251764 46 16732702757756026465
15183329 4 16443064980692468856
15716309 27 14692574308026103293
17834076 25 14996283626000780041
19489759 90 17821447963235607593
200 152 17775568624542799521
20281389 69 15864070979104923997
20645477 70 18270402681414391271
21054139 6 18060411452361240823
21150785 3 17274816978093613949
21521721 280 17489306425554471586
21709351 56 18334852853257111109
22224240 67 16702015388483397654
23035841 295 11167943554496851556
23402539 116 17603585235738749599
23536379 177 17676487237548169064
23559900 14 18410005581281018049
3545911 37 18334858316803644721
4072396 5 18410568458230388714
42788 4 18113901567316969108
4325135 7 15195566810153498584
474229 33 18343022189996550254
542803 24 15647053772408965845
59755656 215 18336832992290074902
59755656 520 15430036578476715145

> <PUBCHEM_SHAPE_MULTIPOLES>
358.46
17.46
1.34
0.89
4.41
0.23
0.04
-0.56
0.56
-0.02
0.02
-0.16
-0.04
0.71

> <PUBCHEM_SHAPE_SELFOVERLAP>
736.192

> <PUBCHEM_SHAPE_VOLUME>
206.3

> <PUBCHEM_COORDINATE_TYPE>
2
5
10

$$$$
