28959543
  -OEChem-12032416333D

 54 55  0     1  0  0  0  0  0999 V2000
   -5.4941   -1.8363    1.7643 Cl  0  0  0  0  0  0  0  0  0  0  0  0
   -1.2152   -2.8809   -1.9569 O   0  0  0  0  0  0  0  0  0  0  0  0
    6.1913    0.1074    0.2337 O   0  0  0  0  0  0  0  0  0  0  0  0
    5.3142   -1.9424    0.6916 O   0  0  0  0  0  0  0  0  0  0  0  0
    0.0644   -2.0654   -0.1761 N   0  0  0  0  0  0  0  0  0  0  0  0
   -0.2358    2.9988   -0.3497 N   0  0  0  0  0  0  0  0  0  0  0  0
   -4.5366    0.0271    0.2378 N   0  0  0  0  0  0  0  0  0  0  0  0
    1.3649   -0.2243    0.8704 C   0  0  2  0  0  0  0  0  0  0  0  0
    2.6647   -0.9725    0.4786 C   0  0  1  0  0  0  0  0  0  0  0  0
    2.4518   -1.8701   -0.7521 C   0  0  0  0  0  0  0  0  0  0  0  0
    0.2076   -1.2285    1.0236 C   0  0  0  0  0  0  0  0  0  0  0  0
    0.9733    0.8949   -0.1026 C   0  0  0  0  0  0  0  0  0  0  0  0
    1.2650   -2.8088   -0.5530 C   0  0  0  0  0  0  0  0  0  0  0  0
    3.8547   -0.0375    0.2642 C   0  0  0  0  0  0  0  0  0  0  0  0
    0.1378    1.9563    0.5987 C   0  0  0  0  0  0  0  0  0  0  0  0
   -1.0926   -2.1862   -0.9494 C   0  0  0  0  0  0  0  0  0  0  0  0
    5.1640   -0.7591    0.4269 C   0  0  0  0  0  0  0  0  0  0  0  0
    0.8724    3.9342   -0.5507 C   0  0  0  0  0  0  0  0  0  0  0  0
   -1.4263    3.7144    0.1132 C   0  0  0  0  0  0  0  0  0  0  0  0
   -2.2782   -1.4247   -0.5406 C   0  0  0  0  0  0  0  0  0  0  0  0
    0.5201    4.9882   -1.5867 C   0  0  0  0  0  0  0  0  0  0  0  0
   -1.1618    4.4262    1.4291 C   0  0  0  0  0  0  0  0  0  0  0  0
   -3.2012   -1.9860    0.3349 C   0  0  0  0  0  0  0  0  0  0  0  0
   -2.4830   -0.1385   -1.0274 C   0  0  0  0  0  0  0  0  0  0  0  0
   -4.3038   -1.2255    0.6899 C   0  0  0  0  0  0  0  0  0  0  0  0
   -3.6176    0.5393   -0.6114 C   0  0  0  0  0  0  0  0  0  0  0  0
    1.5458    0.2249    1.8569 H   0  0  0  0  0  0  0  0  0  0  0  0
    2.8959   -1.6369    1.3245 H   0  0  0  0  0  0  0  0  0  0  0  0
    3.3450   -2.4677   -0.9631 H   0  0  0  0  0  0  0  0  0  0  0  0
    2.2706   -1.2466   -1.6371 H   0  0  0  0  0  0  0  0  0  0  0  0
    0.4233   -1.9122    1.8546 H   0  0  0  0  0  0  0  0  0  0  0  0
   -0.7234   -0.7221    1.2815 H   0  0  0  0  0  0  0  0  0  0  0  0
    0.4492    0.4957   -0.9771 H   0  0  0  0  0  0  0  0  0  0  0  0
    1.8776    1.3658   -0.4931 H   0  0  0  0  0  0  0  0  0  0  0  0
    1.0937   -3.3862   -1.4672 H   0  0  0  0  0  0  0  0  0  0  0  0
    1.4735   -3.5244    0.2511 H   0  0  0  0  0  0  0  0  0  0  0  0
    3.8364    0.4055   -0.7376 H   0  0  0  0  0  0  0  0  0  0  0  0
    3.8361    0.7643    1.0119 H   0  0  0  0  0  0  0  0  0  0  0  0
    0.6914    2.3575    1.4574 H   0  0  0  0  0  0  0  0  0  0  0  0
   -0.7608    1.4740    0.9999 H   0  0  0  0  0  0  0  0  0  0  0  0
    1.2333    4.4053    0.3703 H   0  0  0  0  0  0  0  0  0  0  0  0
    1.7341    3.3957   -0.9604 H   0  0  0  0  0  0  0  0  0  0  0  0
   -1.8044    4.4152   -0.6385 H   0  0  0  0  0  0  0  0  0  0  0  0
   -2.2475    3.0034    0.2577 H   0  0  0  0  0  0  0  0  0  0  0  0
    0.0910    4.5409   -2.4900 H   0  0  0  0  0  0  0  0  0  0  0  0
   -0.1728    5.7422   -1.2014 H   0  0  0  0  0  0  0  0  0  0  0  0
    1.4280    5.5224   -1.8891 H   0  0  0  0  0  0  0  0  0  0  0  0
   -0.8284    3.7596    2.2293 H   0  0  0  0  0  0  0  0  0  0  0  0
   -0.4560    5.2565    1.3385 H   0  0  0  0  0  0  0  0  0  0  0  0
   -2.1018    4.8703    1.7788 H   0  0  0  0  0  0  0  0  0  0  0  0
    7.0631   -0.3313    0.3324 H   0  0  0  0  0  0  0  0  0  0  0  0
   -3.0590   -2.9885    0.7265 H   0  0  0  0  0  0  0  0  0  0  0  0
   -1.7925    0.3253   -1.7227 H   0  0  0  0  0  0  0  0  0  0  0  0
   -3.8294    1.5409   -0.9701 H   0  0  0  0  0  0  0  0  0  0  0  0
  1 25  1  0  0  0  0
  2 16  2  0  0  0  0
  3 17  1  0  0  0  0
  3 51  1  0  0  0  0
  4 17  2  0  0  0  0
  5 11  1  0  0  0  0
  5 13  1  0  0  0  0
  5 16  1  0  0  0  0
  6 15  1  0  0  0  0
  6 18  1  0  0  0  0
  6 19  1  0  0  0  0
  7 25  2  0  0  0  0
  7 26  1  0  0  0  0
  8  9  1  0  0  0  0
  8 11  1  0  0  0  0
  8 12  1  0  0  0  0
  8 27  1  0  0  0  0
  9 10  1  0  0  0  0
  9 14  1  0  0  0  0
  9 28  1  0  0  0  0
 10 13  1  0  0  0  0
 10 29  1  0  0  0  0
 10 30  1  0  0  0  0
 11 31  1  0  0  0  0
 11 32  1  0  0  0  0
 12 15  1  0  0  0  0
 12 33  1  0  0  0  0
 12 34  1  0  0  0  0
 13 35  1  0  0  0  0
 13 36  1  0  0  0  0
 14 17  1  0  0  0  0
 14 37  1  0  0  0  0
 14 38  1  0  0  0  0
 15 39  1  0  0  0  0
 15 40  1  0  0  0  0
 16 20  1  0  0  0  0
 18 21  1  0  0  0  0
 18 41  1  0  0  0  0
 18 42  1  0  0  0  0
 19 22  1  0  0  0  0
 19 43  1  0  0  0  0
 19 44  1  0  0  0  0
 20 23  2  0  0  0  0
 20 24  1  0  0  0  0
 21 45  1  0  0  0  0
 21 46  1  0  0  0  0
 21 47  1  0  0  0  0
 22 48  1  0  0  0  0
 22 49  1  0  0  0  0
 22 50  1  0  0  0  0
 23 25  1  0  0  0  0
 23 52  1  0  0  0  0
 24 26  2  0  0  0  0
 24 53  1  0  0  0  0
 26 54  1  0  0  0  0
M  END
> <PUBCHEM_COMPOUND_CID>
28959543

> <PUBCHEM_CONFORMER_RMSD>
1

> <PUBCHEM_CONFORMER_DIVERSEORDER>
1
80
28
83
45
122
141
160
157
66
118
12
147
14
159
108
33
125
135
102
113
138
131
84
88
93
150
123
15
134
13
101
82
27
114
76
39
154
24
32
52
68
127
106
162
111
128
25
37
119
29
100
69
17
115
60
149
126
97
74
153
10
121
129
90
143
146
77
163
26
20
34
50
8
156
158
140
58
107
65
145
110
99
94
95
79
51
117
46
133
103
61
5
35
81
44
40
16
89
4
43
120
2
7
9
62
31
152
55
92
64
54
139
148
151
104
86
136
22
36
21
98
42
19
49
67
142
78
130
73
155
6
116
56
48
63
87
105
144
38
18
124
30
75
23
53
112
72
96
132
57
59
85
3
70
109
71
161
91
47
11
41
137

> <PUBCHEM_MMFF94_PARTIAL_CHARGES>
24
1 -0.18
11 0.3
13 0.3
14 0.06
15 0.27
16 0.54
17 0.66
18 0.27
19 0.27
2 -0.57
20 0.09
23 -0.15
24 -0.15
25 0.49
26 0.16
3 -0.65
4 -0.57
5 -0.66
51 0.5
52 0.15
53 0.15
54 0.15
6 -0.81
7 -0.62

> <PUBCHEM_EFFECTIVE_ROTOR_COUNT>
10.2

> <PUBCHEM_PHARMACOPHORE_FEATURES>
8
1 2 acceptor
1 3 acceptor
1 4 acceptor
1 6 cation
1 7 acceptor
3 3 4 17 anion
6 5 8 9 10 11 13 rings
6 7 20 23 24 25 26 rings

> <PUBCHEM_HEAVY_ATOM_COUNT>
26

> <PUBCHEM_ATOM_DEF_STEREO_COUNT>
2

> <PUBCHEM_ATOM_UDEF_STEREO_COUNT>
0

> <PUBCHEM_BOND_DEF_STEREO_COUNT>
0

> <PUBCHEM_BOND_UDEF_STEREO_COUNT>
0

> <PUBCHEM_ISOTOPIC_ATOM_COUNT>
0

> <PUBCHEM_COMPONENT_COUNT>
1

> <PUBCHEM_CACTVS_TAUTO_COUNT>
1

> <PUBCHEM_CONFORMER_ID>
01B9E33700000001

> <PUBCHEM_MMFF94_ENERGY>
57.0401

> <PUBCHEM_FEATURE_SELFOVERLAP>
40.654

> <PUBCHEM_SHAPE_FINGERPRINT>
104564 63 18198054777345536729
10670039 82 18338250254514787438
10675989 125 16820501767522170277
10688039 33 18335985285355627298
12058002 1 17461188507323946162
12156800 1 17839780025921506485
12160290 23 17907543996740154336
12293681 4 18261403251386204547
12422481 6 18056492659411740618
12788726 201 18340503226538513716
13140716 1 18341043137865177546
14028597 1 17531793685445594682
14363568 33 18193280912606540049
14713325 29 18194401087384884338
14955137 171 18338805622896421547
18785283 64 18120105128164755123
20739085 24 18339648944141193472
21041028 32 18409171025800363185
21285901 2 18059298652051786510
21304303 64 18265334087497270456
21641784 216 18335997376274310516
22182313 1 17772187510260546174
23558518 356 18046638806423592754
23559900 14 18196639917035950979
23566358 27 17903919203530368151
469060 322 18264224550835759409

> <PUBCHEM_SHAPE_MULTIPOLES>
504.39
9.37
5.81
1.34
4.14
10.19
-0.09
-7.53
3.63
-0.09
-1.23
-0.84
0.07
-0.26

> <PUBCHEM_SHAPE_SELFOVERLAP>
1022.515

> <PUBCHEM_SHAPE_VOLUME>
294.1

> <PUBCHEM_COORDINATE_TYPE>
2
5
10

$$$$
