56775056
  -OEChem-12032416273D

 45 48  0     1  0  0  0  0  0999 V2000
   -6.3064   -2.5999   -1.1576 F   0  0  0  0  0  0  0  0  0  0  0  0
    0.5306    2.4512   -0.9330 O   0  0  0  0  0  0  0  0  0  0  0  0
   -2.6987    3.0921    0.3229 O   0  0  0  0  0  0  0  0  0  0  0  0
    1.9661   -0.1416    0.5063 N   0  0  1  0  0  0  0  0  0  0  0  0
   -1.4568    1.1274    0.4403 N   0  0  0  0  0  0  0  0  0  0  0  0
    5.2160    0.4523    0.0408 N   0  0  0  0  0  0  0  0  0  0  0  0
   -0.2400    0.4030    0.0841 C   0  0  1  0  0  0  0  0  0  0  0  0
    0.5785    1.0306   -1.0397 C   0  0  2  0  0  0  0  0  0  0  0  0
    0.7786    0.3294    1.2183 C   0  0  0  0  0  0  0  0  0  0  0  0
    2.0200    0.5897   -0.7662 C   0  0  0  0  0  0  0  0  0  0  0  0
    3.1833   -0.0047    1.2901 C   0  0  0  0  0  0  0  0  0  0  0  0
   -1.7328    2.4104   -0.0230 C   0  0  0  0  0  0  0  0  0  0  0  0
   -0.7873    2.9244   -1.0875 C   0  0  0  0  0  0  0  0  0  0  0  0
   -2.3517    0.4886    1.3965 C   0  0  0  0  0  0  0  0  0  0  0  0
    4.3905   -0.4931    0.5430 C   0  0  0  0  0  0  0  0  0  0  0  0
   -3.4062   -0.3352    0.7155 C   0  0  0  0  0  0  0  0  0  0  0  0
    4.5986   -1.8562    0.4070 C   0  0  0  0  0  0  0  0  0  0  0  0
   -4.6239    0.2458    0.3613 C   0  0  0  0  0  0  0  0  0  0  0  0
   -3.1683   -1.6811    0.4369 C   0  0  0  0  0  0  0  0  0  0  0  0
   -5.6039   -0.5192   -0.2712 C   0  0  0  0  0  0  0  0  0  0  0  0
   -4.1483   -2.4461   -0.1955 C   0  0  0  0  0  0  0  0  0  0  0  0
    5.7265   -2.2760   -0.2892 C   0  0  0  0  0  0  0  0  0  0  0  0
    6.3019    0.0066   -0.6299 C   0  0  0  0  0  0  0  0  0  0  0  0
   -5.3660   -1.8652   -0.5496 C   0  0  0  0  0  0  0  0  0  0  0  0
    6.5996   -1.3331   -0.8207 C   0  0  0  0  0  0  0  0  0  0  0  0
   -0.5233   -0.6136   -0.2184 H   0  0  0  0  0  0  0  0  0  0  0  0
    0.2366    0.7209   -2.0342 H   0  0  0  0  0  0  0  0  0  0  0  0
    0.4789   -0.3773    1.9983 H   0  0  0  0  0  0  0  0  0  0  0  0
    0.9307    1.3147    1.6782 H   0  0  0  0  0  0  0  0  0  0  0  0
    2.3654   -0.0868   -1.5555 H   0  0  0  0  0  0  0  0  0  0  0  0
    2.6850    1.4615   -0.7338 H   0  0  0  0  0  0  0  0  0  0  0  0
    3.0963   -0.5776    2.2225 H   0  0  0  0  0  0  0  0  0  0  0  0
    3.3431    1.0405    1.5884 H   0  0  0  0  0  0  0  0  0  0  0  0
   -1.1785    2.6563   -2.0755 H   0  0  0  0  0  0  0  0  0  0  0  0
   -0.7563    4.0165   -1.0192 H   0  0  0  0  0  0  0  0  0  0  0  0
   -2.8361    1.2612    2.0069 H   0  0  0  0  0  0  0  0  0  0  0  0
   -1.7785   -0.1250    2.1000 H   0  0  0  0  0  0  0  0  0  0  0  0
    3.9121   -2.5842    0.8259 H   0  0  0  0  0  0  0  0  0  0  0  0
   -4.8257    1.2918    0.5745 H   0  0  0  0  0  0  0  0  0  0  0  0
   -2.2265   -2.1482    0.7117 H   0  0  0  0  0  0  0  0  0  0  0  0
   -6.5523   -0.0675   -0.5465 H   0  0  0  0  0  0  0  0  0  0  0  0
   -3.9639   -3.4942   -0.4117 H   0  0  0  0  0  0  0  0  0  0  0  0
    5.9250   -3.3358   -0.4174 H   0  0  0  0  0  0  0  0  0  0  0  0
    6.9507    0.7815   -1.0248 H   0  0  0  0  0  0  0  0  0  0  0  0
    7.4849   -1.6374   -1.3671 H   0  0  0  0  0  0  0  0  0  0  0  0
  1 24  1  0  0  0  0
  2  8  1  0  0  0  0
  2 13  1  0  0  0  0
  3 12  2  0  0  0  0
  4  9  1  0  0  0  0
  4 10  1  0  0  0  0
  4 11  1  0  0  0  0
  5  7  1  0  0  0  0
  5 12  1  0  0  0  0
  5 14  1  0  0  0  0
  6 15  1  0  0  0  0
  6 23  2  0  0  0  0
  7  8  1  0  0  0  0
  7  9  1  0  0  0  0
  7 26  1  0  0  0  0
  8 10  1  0  0  0  0
  8 27  1  0  0  0  0
  9 28  1  0  0  0  0
  9 29  1  0  0  0  0
 10 30  1  0  0  0  0
 10 31  1  0  0  0  0
 11 15  1  0  0  0  0
 11 32  1  0  0  0  0
 11 33  1  0  0  0  0
 12 13  1  0  0  0  0
 13 34  1  0  0  0  0
 13 35  1  0  0  0  0
 14 16  1  0  0  0  0
 14 36  1  0  0  0  0
 14 37  1  0  0  0  0
 15 17  2  0  0  0  0
 16 18  2  0  0  0  0
 16 19  1  0  0  0  0
 17 22  1  0  0  0  0
 17 38  1  0  0  0  0
 18 20  1  0  0  0  0
 18 39  1  0  0  0  0
 19 21  2  0  0  0  0
 19 40  1  0  0  0  0
 20 24  2  0  0  0  0
 20 41  1  0  0  0  0
 21 24  1  0  0  0  0
 21 42  1  0  0  0  0
 22 25  2  0  0  0  0
 22 43  1  0  0  0  0
 23 25  1  0  0  0  0
 23 44  1  0  0  0  0
 25 45  1  0  0  0  0
M  END
> <PUBCHEM_COMPOUND_CID>
56775056

> <PUBCHEM_CONFORMER_RMSD>
0.8

> <PUBCHEM_CONFORMER_DIVERSEORDER>
1
41
97
39
100
122
17
95
44
47
141
94
43
13
46
139
143
85
135
38
102
114
51
84
69
37
26
53
144
70
90
25
18
6
132
81
111
79
11
88
52
106
50
49
134
75
112
109
29
128
32
64
63
116
22
74
9
140
119
30
101
36
58
23
137
7
68
99
124
31
118
40
129
107
138
113
82
87
5
86
4
57
130
66
125
136
123
77
92
96
67
145
19
59
105
15
56
21
127
60
131
121
24
142
61
117
115
48
34
103
104
14
45
35
71
93
62
65
83
20
108
120
126
133
73
54
33
8
10
55
76
110
78
16
89
42
12
2
28
27
91
72
98
80
3

> <PUBCHEM_MMFF94_PARTIAL_CHARGES>
33
1 -0.19
10 0.27
11 0.41
12 0.57
13 0.34
14 0.44
15 0.17
16 -0.14
17 -0.15
18 -0.15
19 -0.15
2 -0.56
20 -0.15
21 -0.15
22 -0.15
23 0.16
24 0.19
25 -0.15
3 -0.57
38 0.15
39 0.15
4 -0.81
40 0.15
41 0.15
42 0.15
43 0.15
44 0.15
45 0.15
5 -0.66
6 -0.62
7 0.3
8 0.28
9 0.27

> <PUBCHEM_EFFECTIVE_ROTOR_COUNT>
5.2

> <PUBCHEM_PHARMACOPHORE_FEATURES>
8
1 2 acceptor
1 3 acceptor
1 4 cation
1 6 acceptor
5 4 7 8 9 10 rings
6 16 18 19 20 21 24 rings
6 2 5 7 8 12 13 rings
6 6 15 17 22 23 25 rings

> <PUBCHEM_HEAVY_ATOM_COUNT>
25

> <PUBCHEM_ATOM_DEF_STEREO_COUNT>
2

> <PUBCHEM_ATOM_UDEF_STEREO_COUNT>
0

> <PUBCHEM_BOND_DEF_STEREO_COUNT>
0

> <PUBCHEM_BOND_UDEF_STEREO_COUNT>
0

> <PUBCHEM_ISOTOPIC_ATOM_COUNT>
0

> <PUBCHEM_COMPONENT_COUNT>
1

> <PUBCHEM_CACTVS_TAUTO_COUNT>
2

> <PUBCHEM_CONFORMER_ID>
0362519000000001

> <PUBCHEM_MMFF94_ENERGY>
67.5569

> <PUBCHEM_FEATURE_SELFOVERLAP>
40.751

> <PUBCHEM_SHAPE_FINGERPRINT>
10042902 136 18342174522202832927
10595046 47 18408326567085349896
10622 236 17770486840650576583
11056379 131 18337111142297323476
11265709 11 18334577962439183361
11393246 34 18270966717994571070
11497681 19 18272089435557058854
11524674 6 16630522917103964143
11552529 35 18268709420416797736
12166972 35 18270399516038805187
12403259 118 14908188542543834243
12516196 113 18408320007979302936
12592606 108 18338516448172691651
12596602 18 17561367271062198890
12633257 1 15841270475426062479
12788726 201 17968089772675415465
12895836 83 12973884831945335531
13009979 54 18341061812789149881
13167372 99 8142089754186698414
13540713 5 18265356026191160301
13757389 114 18046913675445970005
13782708 43 18059857234192291918
13911987 19 14635451363543949058
14068700 675 18412260653453555241
14117953 113 18341892992267065991
14251764 30 18201158759301385418
14347332 77 18262231110970080938
14508225 48 18040154028397913341
14556957 393 17241060820322708148
14840074 17 18412547604255371822
15183329 4 15647050464925504079
15250474 111 18115861898314335434
15880784 105 18202004339029204938
17492 89 17977666738772688011
17844677 252 18341057324659276880
17857418 61 18409733945842156634
17913733 40 10447657945300971589
18222031 100 18333446556304827872
18769570 83 8070027753243345158
19784866 240 18410575128319809019
200 152 17749108889514623169
20715895 44 11097849684163383098
21236236 1 18335987458561768752
21267235 1 18335144224186793595
21424621 283 8574716805742804118
21623969 137 16988847142805475278
22224240 67 10879996874368243847
23402539 116 18334858315954286219
23522609 53 18054823699930594512
23559900 14 18340198682881012697
23622692 118 18409168822250441333
25147074 1 18189075168908822021
255183 313 18054248548434053921
255183 451 18045499970692718903
2838139 119 11602825726251440866
3004659 81 18114175376146418915
3009799 131 17312818299030791220
335352 9 18408038503892740005
3459 39 9799137266613413014
397830 11 18059840776172526098
444735 86 18188486857643126850
465052 167 17346601881085592350
497634 4 18341899545764790272
5718773 13 17774150349191271551
59755656 215 18269554953200578479
59755656 520 18123189000857481441
7237137 82 17604142636457547677
7495541 125 17989487429352501616
7970288 3 18339078310639719431

> <PUBCHEM_SHAPE_MULTIPOLES>
480.53
15.91
3
1.14
10.29
0.87
0.09
-13.36
-3.22
-2.89
-0.92
0
0.11
-0.82

> <PUBCHEM_SHAPE_SELFOVERLAP>
1042.009

> <PUBCHEM_SHAPE_VOLUME>
264.2

> <PUBCHEM_COORDINATE_TYPE>
2
5
10

$$$$
