44716366
  -OEChem-12032416163D

 72 76  0     1  0  0  0  0  0999 V2000
    2.0451    2.5040    0.1787 O   0  0  0  0  0  0  0  0  0  0  0  0
    2.8198    1.0134    1.7303 O   0  0  0  0  0  0  0  0  0  0  0  0
   -5.7591   -4.5691    0.2361 O   0  0  0  0  0  0  0  0  0  0  0  0
   -3.2618   -5.7876    0.2787 O   0  0  0  0  0  0  0  0  0  0  0  0
    8.7206   -2.6829    0.9171 O   0  0  0  0  0  0  0  0  0  0  0  0
   -0.8973    4.4993    1.2722 N   0  0  2  0  0  0  0  0  0  0  0  0
   -4.4619    1.6346   -0.7676 N   0  0  0  0  0  0  0  0  0  0  0  0
   -4.7251    0.3185   -0.8379 N   0  0  0  0  0  0  0  0  0  0  0  0
    3.8641    1.2862   -0.3469 N   0  0  0  0  0  0  0  0  0  0  0  0
   -1.9006    3.9784   -1.0741 C   0  0  2  0  0  0  0  0  0  0  0  0
   -2.7786    3.3516    0.0441 C   0  0  2  0  0  0  0  0  0  0  0  0
    0.1583    3.9562    0.3772 C   0  0  2  0  0  0  0  0  0  0  0  0
   -0.4565    3.4497   -0.9453 C   0  0  0  0  0  0  0  0  0  0  0  0
   -1.8532    5.4976   -0.8039 C   0  0  0  0  0  0  0  0  0  0  0  0
   -2.0147    3.5293    1.3874 C   0  0  0  0  0  0  0  0  0  0  0  0
   -1.4233    5.7398    0.6536 C   0  0  0  0  0  0  0  0  0  0  0  0
   -3.2817    1.9283   -0.1501 C   0  0  0  0  0  0  0  0  0  0  0  0
    1.0055    2.8809    1.0608 C   0  0  0  0  0  0  0  0  0  0  0  0
   -2.7350    0.7205    0.2089 C   0  0  0  0  0  0  0  0  0  0  0  0
   -3.6667   -0.2347   -0.2399 C   0  0  0  0  0  0  0  0  0  0  0  0
   -5.4081    2.5741   -1.3235 C   0  0  0  0  0  0  0  0  0  0  0  0
   -3.5657   -1.6647   -0.1067 C   0  0  0  0  0  0  0  0  0  0  0  0
    2.9172    1.5368    0.6271 C   0  0  0  0  0  0  0  0  0  0  0  0
   -4.7213   -2.4383    0.0016 C   0  0  0  0  0  0  0  0  0  0  0  0
   -2.3123   -2.2764   -0.0851 C   0  0  0  0  0  0  0  0  0  0  0  0
   -4.6235   -3.8238    0.1312 C   0  0  0  0  0  0  0  0  0  0  0  0
   -2.2146   -3.6617    0.0449 C   0  0  0  0  0  0  0  0  0  0  0  0
    4.9398    0.3705   -0.3000 C   0  0  0  0  0  0  0  0  0  0  0  0
   -3.3702   -4.4354    0.1529 C   0  0  0  0  0  0  0  0  0  0  0  0
    5.8035    0.2516   -1.3888 C   0  0  0  0  0  0  0  0  0  0  0  0
    5.1369   -0.4154    0.8355 C   0  0  0  0  0  0  0  0  0  0  0  0
    6.8643   -0.6529   -1.3422 C   0  0  0  0  0  0  0  0  0  0  0  0
    6.1976   -1.3201    0.8820 C   0  0  0  0  0  0  0  0  0  0  0  0
   -7.0002   -3.8667    0.2053 C   0  0  0  0  0  0  0  0  0  0  0  0
    7.0613   -1.4388   -0.2068 C   0  0  0  0  0  0  0  0  0  0  0  0
   -1.9440   -6.3334    0.2922 C   0  0  0  0  0  0  0  0  0  0  0  0
    8.1658   -2.3837   -0.1590 C   0  0  0  0  0  0  0  0  0  0  0  0
    8.6755   -3.0356   -1.4400 C   0  0  0  0  0  0  0  0  0  0  0  0
   -2.3044    3.7684   -2.0699 H   0  0  0  0  0  0  0  0  0  0  0  0
   -3.6782    3.9801    0.1268 H   0  0  0  0  0  0  0  0  0  0  0  0
    0.8529    4.7722    0.1279 H   0  0  0  0  0  0  0  0  0  0  0  0
   -0.4585    2.3550   -1.0009 H   0  0  0  0  0  0  0  0  0  0  0  0
    0.1446    3.8113   -1.7888 H   0  0  0  0  0  0  0  0  0  0  0  0
   -2.8364    5.9486   -0.9821 H   0  0  0  0  0  0  0  0  0  0  0  0
   -1.1465    5.9768   -1.4923 H   0  0  0  0  0  0  0  0  0  0  0  0
   -2.7197    3.8957    2.1465 H   0  0  0  0  0  0  0  0  0  0  0  0
   -1.6432    2.5877    1.8015 H   0  0  0  0  0  0  0  0  0  0  0  0
   -2.2686    6.1195    1.2416 H   0  0  0  0  0  0  0  0  0  0  0  0
   -0.6620    6.5287    0.6909 H   0  0  0  0  0  0  0  0  0  0  0  0
    0.4087    1.9961    1.3074 H   0  0  0  0  0  0  0  0  0  0  0  0
    1.4401    3.2821    1.9846 H   0  0  0  0  0  0  0  0  0  0  0  0
   -1.7961    0.5590    0.7190 H   0  0  0  0  0  0  0  0  0  0  0  0
   -6.1583    2.0325   -1.9061 H   0  0  0  0  0  0  0  0  0  0  0  0
   -4.8749    3.2692   -1.9762 H   0  0  0  0  0  0  0  0  0  0  0  0
   -5.8904    3.1040   -0.4986 H   0  0  0  0  0  0  0  0  0  0  0  0
   -5.6758   -1.9229   -0.0073 H   0  0  0  0  0  0  0  0  0  0  0  0
   -1.3946   -1.7009   -0.1777 H   0  0  0  0  0  0  0  0  0  0  0  0
    3.7800    1.8256   -1.2051 H   0  0  0  0  0  0  0  0  0  0  0  0
   -1.2091   -4.0682    0.0519 H   0  0  0  0  0  0  0  0  0  0  0  0
    5.6623    0.8600   -2.2785 H   0  0  0  0  0  0  0  0  0  0  0  0
    4.5093   -0.3795    1.7152 H   0  0  0  0  0  0  0  0  0  0  0  0
    7.5288   -0.7159   -2.1995 H   0  0  0  0  0  0  0  0  0  0  0  0
    6.3337   -1.9279    1.7729 H   0  0  0  0  0  0  0  0  0  0  0  0
   -7.1030   -3.1900    1.0605 H   0  0  0  0  0  0  0  0  0  0  0  0
   -7.1538   -3.3583   -0.7528 H   0  0  0  0  0  0  0  0  0  0  0  0
   -7.7948   -4.6146    0.2969 H   0  0  0  0  0  0  0  0  0  0  0  0
   -1.4236   -6.1552   -0.6550 H   0  0  0  0  0  0  0  0  0  0  0  0
   -1.3701   -5.9813    1.1562 H   0  0  0  0  0  0  0  0  0  0  0  0
   -2.0459   -7.4184    0.3994 H   0  0  0  0  0  0  0  0  0  0  0  0
    9.4586   -2.4137   -1.8803 H   0  0  0  0  0  0  0  0  0  0  0  0
    7.8594   -3.1818   -2.1527 H   0  0  0  0  0  0  0  0  0  0  0  0
    9.0831   -4.0224   -1.2003 H   0  0  0  0  0  0  0  0  0  0  0  0
  1 18  1  0  0  0  0
  1 23  1  0  0  0  0
  2 23  2  0  0  0  0
  3 26  1  0  0  0  0
  3 34  1  0  0  0  0
  4 29  1  0  0  0  0
  4 36  1  0  0  0  0
  5 37  2  0  0  0  0
  6 12  1  0  0  0  0
  6 15  1  0  0  0  0
  6 16  1  0  0  0  0
  7  8  1  0  0  0  0
  7 17  1  0  0  0  0
  7 21  1  0  0  0  0
  8 20  2  0  0  0  0
  9 23  1  0  0  0  0
  9 28  1  0  0  0  0
  9 58  1  0  0  0  0
 10 11  1  0  0  0  0
 10 13  1  0  0  0  0
 10 14  1  0  0  0  0
 10 39  1  0  0  0  0
 11 15  1  0  0  0  0
 11 17  1  0  0  0  0
 11 40  1  0  0  0  0
 12 13  1  0  0  0  0
 12 18  1  0  0  0  0
 12 41  1  0  0  0  0
 13 42  1  0  0  0  0
 13 43  1  0  0  0  0
 14 16  1  0  0  0  0
 14 44  1  0  0  0  0
 14 45  1  0  0  0  0
 15 46  1  0  0  0  0
 15 47  1  0  0  0  0
 16 48  1  0  0  0  0
 16 49  1  0  0  0  0
 17 19  2  0  0  0  0
 18 50  1  0  0  0  0
 18 51  1  0  0  0  0
 19 20  1  0  0  0  0
 19 52  1  0  0  0  0
 20 22  1  0  0  0  0
 21 53  1  0  0  0  0
 21 54  1  0  0  0  0
 21 55  1  0  0  0  0
 22 24  2  0  0  0  0
 22 25  1  0  0  0  0
 24 26  1  0  0  0  0
 24 56  1  0  0  0  0
 25 27  2  0  0  0  0
 25 57  1  0  0  0  0
 26 29  2  0  0  0  0
 27 29  1  0  0  0  0
 27 59  1  0  0  0  0
 28 30  2  0  0  0  0
 28 31  1  0  0  0  0
 30 32  1  0  0  0  0
 30 60  1  0  0  0  0
 31 33  2  0  0  0  0
 31 61  1  0  0  0  0
 32 35  2  0  0  0  0
 32 62  1  0  0  0  0
 33 35  1  0  0  0  0
 33 63  1  0  0  0  0
 34 64  1  0  0  0  0
 34 65  1  0  0  0  0
 34 66  1  0  0  0  0
 35 37  1  0  0  0  0
 36 67  1  0  0  0  0
 36 68  1  0  0  0  0
 36 69  1  0  0  0  0
 37 38  1  0  0  0  0
 38 70  1  0  0  0  0
 38 71  1  0  0  0  0
 38 72  1  0  0  0  0
M  END
> <PUBCHEM_COMPOUND_CID>
44716366

> <PUBCHEM_CONFORMER_RMSD>
1.2

> <PUBCHEM_CONFORMER_DIVERSEORDER>
3
34
56
57
18
70
15
35
71
40
74
25
75
6
73
76
10
30
64
38
67
21
23
45
14
1
49
60
43
22
55
9
62
37
24
61
46
11
32
50
54
39
29
69
68
52
27
63
41
53
58
13
59
28
20
31
19
4
66
42
47
36
7
44
12
2
16
26
48
65
51
72
8
33
17
5

> <PUBCHEM_MMFF94_PARTIAL_CHARGES>
44
1 -0.43
11 0.18
12 0.27
15 0.27
16 0.27
17 -0.33
18 0.28
19 -0.15
2 -0.57
20 0.23
21 0.26
22 0.05
23 0.78
24 -0.15
25 -0.15
26 0.08
27 -0.15
28 0.12
29 0.08
3 -0.36
30 -0.15
31 -0.15
32 -0.15
33 -0.15
34 0.28
35 0.09
36 0.28
37 0.42
38 0.06
4 -0.36
5 -0.57
52 0.15
56 0.15
57 0.15
58 0.37
59 0.15
6 -0.81
60 0.15
61 0.15
62 0.15
63 0.15
7 0.31
8 -0.71
9 -0.55

> <PUBCHEM_EFFECTIVE_ROTOR_COUNT>
11.2

> <PUBCHEM_PHARMACOPHORE_FEATURES>
11
1 2 acceptor
1 3 acceptor
1 4 acceptor
1 5 acceptor
1 6 cation
1 8 acceptor
1 9 donor
5 7 8 17 19 20 rings
6 22 24 25 26 27 29 rings
6 28 30 31 32 33 35 rings
8 6 10 11 12 13 14 15 16 rings

> <PUBCHEM_HEAVY_ATOM_COUNT>
38

> <PUBCHEM_ATOM_DEF_STEREO_COUNT>
3

> <PUBCHEM_ATOM_UDEF_STEREO_COUNT>
0

> <PUBCHEM_BOND_DEF_STEREO_COUNT>
0

> <PUBCHEM_BOND_UDEF_STEREO_COUNT>
0

> <PUBCHEM_ISOTOPIC_ATOM_COUNT>
0

> <PUBCHEM_COMPONENT_COUNT>
1

> <PUBCHEM_CACTVS_TAUTO_COUNT>
9

> <PUBCHEM_CONFORMER_ID>
02AA514E00000003

> <PUBCHEM_MMFF94_ENERGY>
124.3925

> <PUBCHEM_FEATURE_SELFOVERLAP>
55.828

> <PUBCHEM_SHAPE_FINGERPRINT>
10677394 353 18410583869021277923
10838868 229 17543638986290435787
11409948 41 17119996082582797303
117089 54 18338520858033024554
11756154 67 18410013264834663157
11801155 225 17975413508777501050
12202916 173 18131060490452298501
12633046 712 18264761245744050733
1361 4 18411140256169809300
13785724 45 18194404631128548769
14747282 305 18193570093920398003
14856354 85 18198063582583226556
15320295 44 18261122885249768652
15400415 2 17690278206275945400
15439362 3 16967728564603947965
15448158 6 18121779688927021773
15530120 55 17749967664447469820
15538507 19 18410854318801283608
15803439 3 17463663426277797437
15890870 6 18192707852785498325
17627616 140 17905605501842097443
19246450 95 18126871334588112785
19301676 85 18194392532233180391
19311894 1 18410574023806599011
21307412 95 18410281507239370141
21360442 43 18194968440138914684
21779490 112 18050864217024570806
23516275 137 17328888499184826096
23569914 152 17982981683903281359
32027 91 18051126188802943359
3383291 50 18411696552776011409
4017518 198 17975130937892760773
404807 14 18194406817362368203
4435113 14 17630623223641545806
44426701 194 11242791640848793471
44880168 125 17916860339399119351
4756088 132 17979909742208865518
49967989 163 18340220583631086742
58902169 19 17532666646423777708
6441014 3 18339642355667207386
9980921 52 17341796079033360119

> <PUBCHEM_SHAPE_MULTIPOLES>
732.75
20.89
10.59
1.19
53.2
3.35
0.03
27.66
4.18
-17.66
-1.14
1.05
-0.79
1.81

> <PUBCHEM_SHAPE_SELFOVERLAP>
1583.997

> <PUBCHEM_SHAPE_VOLUME>
400

> <PUBCHEM_COORDINATE_TYPE>
2
5
10

$$$$
