26742334
  -OEChem-12032416183D

 67 71  0     1  0  0  0  0  0999 V2000
   -1.6223   -0.8947    1.8902 O   0  0  0  0  0  0  0  0  0  0  0  0
    0.2378    2.2825    1.7284 O   0  0  0  0  0  0  0  0  0  0  0  0
    2.2154   -3.8319    0.4629 N   0  0  2  0  0  0  0  0  0  0  0  0
    3.8612    0.5662   -0.3086 N   0  0  0  0  0  0  0  0  0  0  0  0
   -1.3745   -3.1350    1.3330 N   0  0  0  0  0  0  0  0  0  0  0  0
    3.5599    1.8643   -0.1345 N   0  0  0  0  0  0  0  0  0  0  0  0
   -3.4656   -2.1544    1.2530 N   0  0  0  0  0  0  0  0  0  0  0  0
    1.8194   -2.4049   -1.6795 C   0  0  2  0  0  0  0  0  0  0  0  0
    2.8754   -1.7278   -0.7626 C   0  0  2  0  0  0  0  0  0  0  0  0
    0.7585   -3.6215    0.2545 C   0  0  2  0  0  0  0  0  0  0  0  0
    0.5118   -2.6106   -0.8859 C   0  0  0  0  0  0  0  0  0  0  0  0
    2.3646   -3.8068   -2.0266 C   0  0  0  0  0  0  0  0  0  0  0  0
    2.9074   -2.5235    0.5736 C   0  0  0  0  0  0  0  0  0  0  0  0
    2.7475   -4.5374   -0.7276 C   0  0  0  0  0  0  0  0  0  0  0  0
    2.7747   -0.2258   -0.5379 C   0  0  0  0  0  0  0  0  0  0  0  0
    0.0382   -3.2157    1.5421 C   0  0  0  0  0  0  0  0  0  0  0  0
    1.6869    0.6123   -0.5116 C   0  0  0  0  0  0  0  0  0  0  0  0
    2.2303    1.8863   -0.2597 C   0  0  0  0  0  0  0  0  0  0  0  0
    5.2418    0.1468   -0.2383 C   0  0  0  0  0  0  0  0  0  0  0  0
   -2.1138   -1.9617    1.5250 C   0  0  0  0  0  0  0  0  0  0  0  0
    1.5037    3.1229   -0.1347 C   0  0  0  0  0  0  0  0  0  0  0  0
    0.5316    3.2855    0.8522 C   0  0  0  0  0  0  0  0  0  0  0  0
    1.7830    4.1663   -1.0172 C   0  0  0  0  0  0  0  0  0  0  0  0
   -4.4530   -1.1065    1.3711 C   0  0  0  0  0  0  0  0  0  0  0  0
   -0.1611    4.4917    0.9567 C   0  0  0  0  0  0  0  0  0  0  0  0
    1.0902    5.3725   -0.9128 C   0  0  0  0  0  0  0  0  0  0  0  0
    0.1180    5.5353    0.0742 C   0  0  0  0  0  0  0  0  0  0  0  0
   -4.6201   -0.3447    0.0882 C   0  0  0  0  0  0  0  0  0  0  0  0
    0.9835    2.2464    2.9429 C   0  0  0  0  0  0  0  0  0  0  0  0
   -3.8361    0.7818   -0.1611 C   0  0  0  0  0  0  0  0  0  0  0  0
   -5.5591   -0.7633   -0.8545 C   0  0  0  0  0  0  0  0  0  0  0  0
   -3.9910    1.4897   -1.3530 C   0  0  0  0  0  0  0  0  0  0  0  0
   -5.7141   -0.0555   -2.0464 C   0  0  0  0  0  0  0  0  0  0  0  0
   -4.9301    1.0711   -2.2955 C   0  0  0  0  0  0  0  0  0  0  0  0
    1.6378   -1.8193   -2.5868 H   0  0  0  0  0  0  0  0  0  0  0  0
    3.8414   -1.8908   -1.2638 H   0  0  0  0  0  0  0  0  0  0  0  0
    0.3213   -4.5852   -0.0477 H   0  0  0  0  0  0  0  0  0  0  0  0
    0.1315   -1.6626   -0.5040 H   0  0  0  0  0  0  0  0  0  0  0  0
   -0.2598   -3.0079   -1.5577 H   0  0  0  0  0  0  0  0  0  0  0  0
    3.2407   -3.7264   -2.6806 H   0  0  0  0  0  0  0  0  0  0  0  0
    1.6038   -4.3780   -2.5723 H   0  0  0  0  0  0  0  0  0  0  0  0
    3.9524   -2.7022    0.8593 H   0  0  0  0  0  0  0  0  0  0  0  0
    2.4908   -1.9383    1.4014 H   0  0  0  0  0  0  0  0  0  0  0  0
    2.3689   -5.5666   -0.7536 H   0  0  0  0  0  0  0  0  0  0  0  0
    3.8384   -4.6279   -0.6494 H   0  0  0  0  0  0  0  0  0  0  0  0
    0.4076   -2.2634    1.9344 H   0  0  0  0  0  0  0  0  0  0  0  0
    0.1999   -3.9741    2.3165 H   0  0  0  0  0  0  0  0  0  0  0  0
    0.6481    0.3634   -0.6628 H   0  0  0  0  0  0  0  0  0  0  0  0
   -1.8734   -3.9813    1.0758 H   0  0  0  0  0  0  0  0  0  0  0  0
    5.5483   -0.2002   -1.2279 H   0  0  0  0  0  0  0  0  0  0  0  0
    5.8641    0.9937    0.0639 H   0  0  0  0  0  0  0  0  0  0  0  0
    5.3307   -0.6509    0.5022 H   0  0  0  0  0  0  0  0  0  0  0  0
   -3.7708   -3.0685    0.9330 H   0  0  0  0  0  0  0  0  0  0  0  0
    2.5345    4.0588   -1.7961 H   0  0  0  0  0  0  0  0  0  0  0  0
   -4.1689   -0.4273    2.1837 H   0  0  0  0  0  0  0  0  0  0  0  0
   -5.3982   -1.5765    1.6654 H   0  0  0  0  0  0  0  0  0  0  0  0
   -0.9207    4.6256    1.7222 H   0  0  0  0  0  0  0  0  0  0  0  0
    1.3069    6.1848   -1.6004 H   0  0  0  0  0  0  0  0  0  0  0  0
   -0.4218    6.4742    0.1552 H   0  0  0  0  0  0  0  0  0  0  0  0
    0.6679    1.3669    3.5109 H   0  0  0  0  0  0  0  0  0  0  0  0
    0.7804    3.1400    3.5416 H   0  0  0  0  0  0  0  0  0  0  0  0
    2.0565    2.1655    2.7433 H   0  0  0  0  0  0  0  0  0  0  0  0
   -3.1021    1.1213    0.5647 H   0  0  0  0  0  0  0  0  0  0  0  0
   -6.1746   -1.6403   -0.6728 H   0  0  0  0  0  0  0  0  0  0  0  0
   -3.3804    2.3668   -1.5467 H   0  0  0  0  0  0  0  0  0  0  0  0
   -6.4448   -0.3816   -2.7807 H   0  0  0  0  0  0  0  0  0  0  0  0
   -5.0507    1.6222   -3.2236 H   0  0  0  0  0  0  0  0  0  0  0  0
  1 20  2  0  0  0  0
  2 22  1  0  0  0  0
  2 29  1  0  0  0  0
  3 10  1  0  0  0  0
  3 13  1  0  0  0  0
  3 14  1  0  0  0  0
  4  6  1  0  0  0  0
  4 15  1  0  0  0  0
  4 19  1  0  0  0  0
  5 16  1  0  0  0  0
  5 20  1  0  0  0  0
  5 49  1  0  0  0  0
  6 18  2  0  0  0  0
  7 20  1  0  0  0  0
  7 24  1  0  0  0  0
  7 53  1  0  0  0  0
  8  9  1  0  0  0  0
  8 11  1  0  0  0  0
  8 12  1  0  0  0  0
  8 35  1  0  0  0  0
  9 13  1  0  0  0  0
  9 15  1  0  0  0  0
  9 36  1  0  0  0  0
 10 11  1  0  0  0  0
 10 16  1  0  0  0  0
 10 37  1  0  0  0  0
 11 38  1  0  0  0  0
 11 39  1  0  0  0  0
 12 14  1  0  0  0  0
 12 40  1  0  0  0  0
 12 41  1  0  0  0  0
 13 42  1  0  0  0  0
 13 43  1  0  0  0  0
 14 44  1  0  0  0  0
 14 45  1  0  0  0  0
 15 17  2  0  0  0  0
 16 46  1  0  0  0  0
 16 47  1  0  0  0  0
 17 18  1  0  0  0  0
 17 48  1  0  0  0  0
 18 21  1  0  0  0  0
 19 50  1  0  0  0  0
 19 51  1  0  0  0  0
 19 52  1  0  0  0  0
 21 22  1  0  0  0  0
 21 23  2  0  0  0  0
 22 25  2  0  0  0  0
 23 26  1  0  0  0  0
 23 54  1  0  0  0  0
 24 28  1  0  0  0  0
 24 55  1  0  0  0  0
 24 56  1  0  0  0  0
 25 27  1  0  0  0  0
 25 57  1  0  0  0  0
 26 27  2  0  0  0  0
 26 58  1  0  0  0  0
 27 59  1  0  0  0  0
 28 30  2  0  0  0  0
 28 31  1  0  0  0  0
 29 60  1  0  0  0  0
 29 61  1  0  0  0  0
 29 62  1  0  0  0  0
 30 32  1  0  0  0  0
 30 63  1  0  0  0  0
 31 33  2  0  0  0  0
 31 64  1  0  0  0  0
 32 34  2  0  0  0  0
 32 65  1  0  0  0  0
 33 34  1  0  0  0  0
 33 66  1  0  0  0  0
 34 67  1  0  0  0  0
M  END
> <PUBCHEM_COMPOUND_CID>
26742334

> <PUBCHEM_CONFORMER_RMSD>
1.2

> <PUBCHEM_CONFORMER_DIVERSEORDER>
1
94
50
67
40
69
31
54
87
92
66
22
105
82
85
88
77
75
33
39
27
34
103
7
9
60
79
4
57
99
76
51
91
83
53
63
29
11
73
43
68
32
38
45
15
2
16
17
95
106
20
59
12
13
104
93
21
6
8
35
84
80
5
14
47
101
44
49
70
52
30
41
65
100
97
62
26
96
48
78
28
98
3
74
81
19
72
90
102
24
89
64
18
36
71
10
46
56
37
25
86
55
61
42
58
23

> <PUBCHEM_MMFF94_PARTIAL_CHARGES>
43
1 -0.57
10 0.27
13 0.27
14 0.27
15 -0.33
16 0.3
17 -0.15
18 0.23
19 0.26
2 -0.36
20 0.69
21 0.05
22 0.08
23 -0.15
24 0.44
25 -0.15
26 -0.15
27 -0.15
28 -0.14
29 0.28
3 -0.81
30 -0.15
31 -0.15
32 -0.15
33 -0.15
34 -0.15
4 0.31
48 0.15
49 0.37
5 -0.73
53 0.37
54 0.15
57 0.15
58 0.15
59 0.15
6 -0.71
63 0.15
64 0.15
65 0.15
66 0.15
67 0.15
7 -0.73
9 0.18

> <PUBCHEM_EFFECTIVE_ROTOR_COUNT>
10.2

> <PUBCHEM_PHARMACOPHORE_FEATURES>
10
1 1 acceptor
1 2 acceptor
1 3 cation
1 5 donor
1 6 acceptor
1 7 donor
5 4 6 15 17 18 rings
6 21 22 23 25 26 27 rings
6 28 30 31 32 33 34 rings
8 3 8 9 10 11 12 13 14 rings

> <PUBCHEM_HEAVY_ATOM_COUNT>
34

> <PUBCHEM_ATOM_DEF_STEREO_COUNT>
3

> <PUBCHEM_ATOM_UDEF_STEREO_COUNT>
0

> <PUBCHEM_BOND_DEF_STEREO_COUNT>
0

> <PUBCHEM_BOND_UDEF_STEREO_COUNT>
0

> <PUBCHEM_ISOTOPIC_ATOM_COUNT>
0

> <PUBCHEM_COMPONENT_COUNT>
1

> <PUBCHEM_CACTVS_TAUTO_COUNT>
3

> <PUBCHEM_CONFORMER_ID>
01980E3E00000001

> <PUBCHEM_MMFF94_ENERGY>
91.4

> <PUBCHEM_FEATURE_SELFOVERLAP>
50.795

> <PUBCHEM_SHAPE_FINGERPRINT>
10190206 1 18048068249640489046
10256941 240 17046519022768486961
10439779 11 18336816576265212475
10675989 125 18046061562655395537
10838868 217 18122609815869724016
11285246 1 17978795601794715821
11513181 2 17630058056820822374
12100795 323 17688312704364730741
12156800 1 15725545497696460978
12769317 202 18410291436586508083
12788726 201 17472976204165483871
13165053 182 17465711885401816686
13402501 40 18261394485663375255
1361 2 17762607796470796085
13773456 30 17907002225729619569
14114206 34 17833309378237302063
14251757 17 18187368679891393819
14466204 15 18338231678243453762
151778 21 17979932818982860993
15264996 163 17543073381661226269
15351339 4 17972303033315727809
161222 10 16754669586364799399
17921350 177 18044642324935332825
20764821 26 18191884330906840177
21857420 4 17324599381918878421
21860390 5 18412829066357782487
23559900 14 18335976588595784301
238 59 18340763849158637207
3298306 158 18336545022916279687
3388396 114 18339645525283811844
354706 35 17832404760000198309
4066623 53 17906145397007465189
463206 1 17690846661696568408
46939830 39 17822304521643719100
5252454 2 17046853273775336080
66674814 147 18413111662452546824

> <PUBCHEM_SHAPE_MULTIPOLES>
663.06
9.49
8.23
2.09
12.93
7.77
-0.49
-4.93
4.76
-5.71
-0.17
1.46
-0.37
1.61

> <PUBCHEM_SHAPE_SELFOVERLAP>
1430.964

> <PUBCHEM_SHAPE_VOLUME>
361.2

> <PUBCHEM_COORDINATE_TYPE>
2
5
10

$$$$
