25338708
  -OEChem-12032416193D

 45 47  0     1  0  0  0  0  0999 V2000
   -5.2117   -0.8293   -0.7400 O   0  0  0  0  0  0  0  0  0  0  0  0
    1.0776    1.9979   -1.3756 O   0  0  0  0  0  0  0  0  0  0  0  0
    5.9502   -1.6661    1.2541 O   0  0  0  0  0  0  0  0  0  0  0  0
   -3.2556    1.3785    1.1876 N   0  0  1  0  0  0  0  0  0  0  0  0
   -0.3643    1.3951    0.3279 N   0  0  0  0  0  0  0  0  0  0  0  0
   -3.2622   -1.5752    0.0720 N   0  0  0  0  0  0  0  0  0  0  0  0
    1.7740    0.5615    0.3455 N   0  0  0  0  0  0  0  0  0  0  0  0
   -5.3064   -2.2266   -0.7221 N   0  0  0  0  0  0  0  0  0  0  0  0
   -1.5020    2.1502   -0.1406 C   0  0  1  0  0  0  0  0  0  0  0  0
   -3.6242    0.9400   -0.1721 C   0  0  1  0  0  0  0  0  0  0  0  0
   -2.4050    1.3071   -1.0407 C   0  0  0  0  0  0  0  0  0  0  0  0
   -2.4065    2.5609    1.0116 C   0  0  0  0  0  0  0  0  0  0  0  0
   -3.9775   -0.5295   -0.2572 C   0  0  0  0  0  0  0  0  0  0  0  0
   -4.4098    1.6585    2.0331 C   0  0  0  0  0  0  0  0  0  0  0  0
    0.8658    1.3747   -0.3381 C   0  0  0  0  0  0  0  0  0  0  0  0
   -4.1190   -2.5933   -0.2308 C   0  0  0  0  0  0  0  0  0  0  0  0
   -3.7624   -4.0019   -0.0297 C   0  0  0  0  0  0  0  0  0  0  0  0
    3.1166    0.2797    0.0012 C   0  0  0  0  0  0  0  0  0  0  0  0
    3.8809   -0.5640    0.8072 C   0  0  0  0  0  0  0  0  0  0  0  0
    3.6761    0.8446   -1.1451 C   0  0  0  0  0  0  0  0  0  0  0  0
    5.2048   -0.8427    0.4674 C   0  0  0  0  0  0  0  0  0  0  0  0
    5.0001    0.5660   -1.4848 C   0  0  0  0  0  0  0  0  0  0  0  0
    5.7643   -0.2778   -0.6787 C   0  0  0  0  0  0  0  0  0  0  0  0
    7.2963   -1.9084    0.8478 C   0  0  0  0  0  0  0  0  0  0  0  0
   -1.1327    3.0297   -0.6798 H   0  0  0  0  0  0  0  0  0  0  0  0
   -4.4787    1.5279   -0.5372 H   0  0  0  0  0  0  0  0  0  0  0  0
   -1.8820    0.4341   -1.4485 H   0  0  0  0  0  0  0  0  0  0  0  0
   -2.7439    1.9139   -1.8899 H   0  0  0  0  0  0  0  0  0  0  0  0
   -1.8490    2.8011    1.9231 H   0  0  0  0  0  0  0  0  0  0  0  0
   -3.0035    3.4354    0.7215 H   0  0  0  0  0  0  0  0  0  0  0  0
   -0.4840    0.7958    1.1390 H   0  0  0  0  0  0  0  0  0  0  0  0
   -5.0154    0.7567    2.1731 H   0  0  0  0  0  0  0  0  0  0  0  0
   -5.0522    2.4424    1.6161 H   0  0  0  0  0  0  0  0  0  0  0  0
   -4.0829    1.9774    3.0288 H   0  0  0  0  0  0  0  0  0  0  0  0
    1.4372    0.1146    1.1946 H   0  0  0  0  0  0  0  0  0  0  0  0
   -4.4516   -4.4794    0.6739 H   0  0  0  0  0  0  0  0  0  0  0  0
   -3.8005   -4.5503   -0.9762 H   0  0  0  0  0  0  0  0  0  0  0  0
   -2.7494   -4.0977    0.3741 H   0  0  0  0  0  0  0  0  0  0  0  0
    3.4513   -1.0082    1.7022 H   0  0  0  0  0  0  0  0  0  0  0  0
    3.1493    1.5060   -1.8181 H   0  0  0  0  0  0  0  0  0  0  0  0
    5.4361    1.0059   -2.3773 H   0  0  0  0  0  0  0  0  0  0  0  0
    6.7851   -0.4515   -1.0012 H   0  0  0  0  0  0  0  0  0  0  0  0
    7.7405   -2.5832    1.5869 H   0  0  0  0  0  0  0  0  0  0  0  0
    7.8911   -0.9887    0.8566 H   0  0  0  0  0  0  0  0  0  0  0  0
    7.3387   -2.4211   -0.1192 H   0  0  0  0  0  0  0  0  0  0  0  0
  1  8  1  0  0  0  0
  1 13  1  0  0  0  0
  2 15  2  0  0  0  0
  3 21  1  0  0  0  0
  3 24  1  0  0  0  0
  4 10  1  0  0  0  0
  4 12  1  0  0  0  0
  4 14  1  0  0  0  0
  5  9  1  0  0  0  0
  5 15  1  0  0  0  0
  5 31  1  0  0  0  0
  6 13  2  0  0  0  0
  6 16  1  0  0  0  0
  7 15  1  0  0  0  0
  7 18  1  0  0  0  0
  7 35  1  0  0  0  0
  8 16  2  0  0  0  0
  9 11  1  0  0  0  0
  9 12  1  0  0  0  0
  9 25  1  0  0  0  0
 10 11  1  0  0  0  0
 10 13  1  0  0  0  0
 10 26  1  0  0  0  0
 11 27  1  0  0  0  0
 11 28  1  0  0  0  0
 12 29  1  0  0  0  0
 12 30  1  0  0  0  0
 14 32  1  0  0  0  0
 14 33  1  0  0  0  0
 14 34  1  0  0  0  0
 16 17  1  0  0  0  0
 17 36  1  0  0  0  0
 17 37  1  0  0  0  0
 17 38  1  0  0  0  0
 18 19  2  0  0  0  0
 18 20  1  0  0  0  0
 19 21  1  0  0  0  0
 19 39  1  0  0  0  0
 20 22  2  0  0  0  0
 20 40  1  0  0  0  0
 21 23  2  0  0  0  0
 22 23  1  0  0  0  0
 22 41  1  0  0  0  0
 23 42  1  0  0  0  0
 24 43  1  0  0  0  0
 24 44  1  0  0  0  0
 24 45  1  0  0  0  0
M  END
> <PUBCHEM_COMPOUND_CID>
25338708

> <PUBCHEM_CONFORMER_RMSD>
0.8

> <PUBCHEM_CONFORMER_DIVERSEORDER>
1
167
230
232
215
134
48
179
78
97
187
195
146
168
25
137
104
64
115
147
254
256
150
143
177
39
173
66
218
160
154
125
84
156
196
174
226
192
258
180
164
113
153
209
251
244
239
141
67
184
198
33
162
89
161
131
50
207
55
245
197
38
132
90
40
255
238
73
171
136
191
145
176
35
103
155
169
219
175
68
158
61
181
182
10
121
92
235
166
47
149
243
102
72
202
87
151
107
159
241
163
190
148
248
44
205
101
250
58
242
43
82
11
185
88
252
69
57
223
53
120
220
135
157
46
247
45
228
224
234
165
60
59
144
140
96
199
85
200
249
152
183
71
186
98
34
109
221
111
74
210
112
63
253
142
75
29
201
178
51
17
214
133
225
117
76
124
170
91
212
194
3
105
77
41
42
206
83
139
231
193
65
216
213
28
81
127
16
189
4
95
229
128
122
123
227
126
119
52
49
236
20
257
204
86
18
5
172
130
222
62
106
246
36
22
14
31
211
233
138
6
217
188
110
99
208
37
108
26
80
203
23
2
32
30
237
21
116
79
13
129
8
240
118
9
19
27
15
56
94
100
12
70
54
24
7
114
93

> <PUBCHEM_MMFF94_PARTIAL_CHARGES>
29
1 -0.02
10 0.45
12 0.27
13 0.3
14 0.27
15 0.69
16 0.34
17 0.18
18 0.12
19 -0.15
2 -0.57
20 -0.15
21 0.08
22 -0.15
23 -0.15
24 0.28
3 -0.36
31 0.37
35 0.37
39 0.15
4 -0.81
40 0.15
41 0.15
42 0.15
5 -0.73
6 -0.57
7 -0.55
8 -0.41
9 0.3

> <PUBCHEM_EFFECTIVE_ROTOR_COUNT>
7

> <PUBCHEM_PHARMACOPHORE_FEATURES>
9
1 2 acceptor
1 3 acceptor
1 4 cation
1 5 donor
1 7 donor
3 6 8 16 cation
5 1 6 8 13 16 rings
5 4 9 10 11 12 rings
6 18 19 20 21 22 23 rings

> <PUBCHEM_HEAVY_ATOM_COUNT>
24

> <PUBCHEM_ATOM_DEF_STEREO_COUNT>
2

> <PUBCHEM_ATOM_UDEF_STEREO_COUNT>
0

> <PUBCHEM_BOND_DEF_STEREO_COUNT>
0

> <PUBCHEM_BOND_UDEF_STEREO_COUNT>
0

> <PUBCHEM_ISOTOPIC_ATOM_COUNT>
0

> <PUBCHEM_COMPONENT_COUNT>
1

> <PUBCHEM_CACTVS_TAUTO_COUNT>
3

> <PUBCHEM_CONFORMER_ID>
0182A35400000001

> <PUBCHEM_MMFF94_ENERGY>
58.5391

> <PUBCHEM_FEATURE_SELFOVERLAP>
45.723

> <PUBCHEM_SHAPE_FINGERPRINT>
10571361 74 18334565816351539034
10622 236 18193831768069420623
11036077 4 18272656714800493921
11545043 162 17561082492722789760
12596602 18 18202561770487838000
12616971 3 18041289776912360036
12760667 363 18271525403393269599
14211702 104 18342178822119419054
14251751 18 18341888593935438538
14844126 61 17703784826185506479
14866123 147 18341900719155850171
15183329 4 18186520991124246650
15188451 53 18202274814515548805
15250474 111 18408040693603673058
15348495 7 17989201526111781496
15537594 2 18187375302277296752
15728490 51 18409161131134645034
15728490 83 18260837033147787579
15799311 1 18269010721120717566
17780758 139 18201717323497430289
17857418 61 18334293163115223708
20028762 73 18334288735527045242
20843269 155 18339356491212736838
21033648 29 16487259841717428316
21054139 6 18186798059527587986
21315759 148 17561370560964669660
21315763 191 18411141303445529488
21756936 100 10087632723835732005
220451 1 18335432235913934860
22061861 79 16008754589344405536
2303208 19 16558480712287233468
23466295 7 17896894351169312075
23522609 53 18120406261408110268
23559900 14 18269264833051072777
270888 7 9439138558545229287
2838139 119 8502375503603595366
312425 54 17845377648334568162
314194 84 18041287599527503936
397830 11 18200857544992690736
4015057 19 17241059785505335012
439807 62 18114464578023041843
484985 159 18412267259841230771
5104073 3 18060421339149174400
531348 171 17750507386711377253
5486654 36 18339937008125315457
559249 180 18336262367277139341
57527585 103 17751389307228736867
5924683 9 18341895186388581705
602551 16 18273498970460800684
7495541 125 18343862221803074472
7970288 3 18335977597833964678

> <PUBCHEM_SHAPE_MULTIPOLES>
451.4
16.83
3.39
1.34
19.71
2.79
-0.21
11.47
-1.92
-5.51
-0.26
0.22
-0.51
-3.08

> <PUBCHEM_SHAPE_SELFOVERLAP>
952.637

> <PUBCHEM_SHAPE_VOLUME>
255.7

> <PUBCHEM_COORDINATE_TYPE>
2
5
10

$$$$
