75536076
  -OEChem-12032416293D

 43 46  0     1  0  0  0  0  0999 V2000
   -2.8025   -1.2093   -1.1749 S   0  0  0  0  0  0  0  0  0  0  0  0
    1.8853    3.4553   -1.0795 O   0  0  0  0  0  0  0  0  0  0  0  0
    4.3583    2.2897   -0.8236 O   0  0  0  0  0  0  0  0  0  0  0  0
    0.1048   -0.7881   -1.4099 O   0  0  0  0  0  0  0  0  0  0  0  0
    0.2985    1.0259    0.0225 N   0  0  0  0  0  0  0  0  0  0  0  0
    2.7655   -3.3253    0.9926 N   0  0  0  0  0  0  0  0  0  0  0  0
    2.5190    0.4602    0.9630 C   0  0  2  0  0  0  0  0  0  0  0  0
    1.7199    1.2098   -0.1269 C   0  0  2  0  0  0  0  0  0  0  0  0
    2.1303    2.6683    0.0708 C   0  0  1  0  0  0  0  0  0  0  0  0
    3.7286    1.3696    1.3007 C   0  0  0  0  0  0  0  0  0  0  0  0
    3.6228    2.5709    0.3633 C   0  0  1  0  0  0  0  0  0  0  0  0
    2.8926   -0.9504    0.5587 C   0  0  0  0  0  0  0  0  0  0  0  0
    3.6745   -1.1901   -0.5657 C   0  0  0  0  0  0  0  0  0  0  0  0
    2.4671   -2.0425    1.2976 C   0  0  0  0  0  0  0  0  0  0  0  0
   -0.4001    0.0268   -0.6420 C   0  0  0  0  0  0  0  0  0  0  0  0
   -1.8656   -0.0134   -0.4019 C   0  0  0  0  0  0  0  0  0  0  0  0
    4.0026   -2.4963   -0.9119 C   0  0  0  0  0  0  0  0  0  0  0  0
    3.5276   -3.5192   -0.1072 C   0  0  0  0  0  0  0  0  0  0  0  0
   -2.6303    0.8073    0.3925 C   0  0  0  0  0  0  0  0  0  0  0  0
   -4.0227    0.4594    0.3782 C   0  0  0  0  0  0  0  0  0  0  0  0
   -4.2608   -0.6415   -0.4507 C   0  0  0  0  0  0  0  0  0  0  0  0
   -5.1249    1.0430    1.0488 C   0  0  0  0  0  0  0  0  0  0  0  0
   -5.5565   -1.1664   -0.6240 C   0  0  0  0  0  0  0  0  0  0  0  0
   -6.4114    0.5247    0.8790 C   0  0  0  0  0  0  0  0  0  0  0  0
   -6.6226   -0.5685    0.0509 C   0  0  0  0  0  0  0  0  0  0  0  0
    1.9055    0.3989    1.8741 H   0  0  0  0  0  0  0  0  0  0  0  0
    1.9909    0.8897   -1.1406 H   0  0  0  0  0  0  0  0  0  0  0  0
    1.5992    3.1136    0.9216 H   0  0  0  0  0  0  0  0  0  0  0  0
    3.6238    1.7122    2.3378 H   0  0  0  0  0  0  0  0  0  0  0  0
    4.6911    0.8538    1.2176 H   0  0  0  0  0  0  0  0  0  0  0  0
    4.0225    3.4922    0.7974 H   0  0  0  0  0  0  0  0  0  0  0  0
   -0.1829    1.6346    0.6755 H   0  0  0  0  0  0  0  0  0  0  0  0
    2.2559    4.3387   -0.9130 H   0  0  0  0  0  0  0  0  0  0  0  0
    5.2935    2.1995   -0.5732 H   0  0  0  0  0  0  0  0  0  0  0  0
    4.0411   -0.3762   -1.1832 H   0  0  0  0  0  0  0  0  0  0  0  0
    1.8537   -1.9226    2.1851 H   0  0  0  0  0  0  0  0  0  0  0  0
    4.6114   -2.7069   -1.7837 H   0  0  0  0  0  0  0  0  0  0  0  0
    3.7554   -4.5555   -0.3340 H   0  0  0  0  0  0  0  0  0  0  0  0
   -2.2400    1.6332    0.9737 H   0  0  0  0  0  0  0  0  0  0  0  0
   -4.9752    1.9000    1.7009 H   0  0  0  0  0  0  0  0  0  0  0  0
   -5.7313   -2.0220   -1.2702 H   0  0  0  0  0  0  0  0  0  0  0  0
   -7.2488    0.9815    1.3989 H   0  0  0  0  0  0  0  0  0  0  0  0
   -7.6267   -0.9646   -0.0750 H   0  0  0  0  0  0  0  0  0  0  0  0
  1 16  1  0  0  0  0
  1 21  1  0  0  0  0
  2  9  1  0  0  0  0
  2 33  1  0  0  0  0
  3 11  1  0  0  0  0
  3 34  1  0  0  0  0
  4 15  2  0  0  0  0
  5  8  1  0  0  0  0
  5 15  1  0  0  0  0
  5 32  1  0  0  0  0
  6 14  1  0  0  0  0
  6 18  2  0  0  0  0
  7  8  1  0  0  0  0
  7 10  1  0  0  0  0
  7 12  1  0  0  0  0
  7 26  1  0  0  0  0
  8  9  1  0  0  0  0
  8 27  1  0  0  0  0
  9 11  1  0  0  0  0
  9 28  1  0  0  0  0
 10 11  1  0  0  0  0
 10 29  1  0  0  0  0
 10 30  1  0  0  0  0
 11 31  1  0  0  0  0
 12 13  1  0  0  0  0
 12 14  2  0  0  0  0
 13 17  2  0  0  0  0
 13 35  1  0  0  0  0
 14 36  1  0  0  0  0
 15 16  1  0  0  0  0
 16 19  2  0  0  0  0
 17 18  1  0  0  0  0
 17 37  1  0  0  0  0
 18 38  1  0  0  0  0
 19 20  1  0  0  0  0
 19 39  1  0  0  0  0
 20 21  1  0  0  0  0
 20 22  2  0  0  0  0
 21 23  2  0  0  0  0
 22 24  1  0  0  0  0
 22 40  1  0  0  0  0
 23 25  1  0  0  0  0
 23 41  1  0  0  0  0
 24 25  2  0  0  0  0
 24 42  1  0  0  0  0
 25 43  1  0  0  0  0
M  END
> <PUBCHEM_COMPOUND_CID>
75536076

> <PUBCHEM_CONFORMER_RMSD>
0.8

> <PUBCHEM_CONFORMER_DIVERSEORDER>
1
35
18
41
17
15
12
9
24
23
39
21
42
29
4
22
16
10
40
30
31
13
37
27
7
19
36
2
20
32
11
14
34
28
38
33
26
6
8
25
5
3

> <PUBCHEM_MMFF94_PARTIAL_CHARGES>
35
1 -0.08
11 0.28
12 -0.14
13 -0.15
14 0.16
15 0.71
16 -0.05
17 -0.15
18 0.16
19 -0.15
2 -0.68
21 0.04
22 -0.15
23 -0.15
24 -0.15
25 -0.15
3 -0.68
32 0.37
33 0.4
34 0.4
35 0.15
36 0.15
37 0.15
38 0.15
39 0.15
4 -0.57
40 0.15
41 0.15
42 0.15
43 0.15
5 -0.73
6 -0.62
7 0.14
8 0.3
9 0.28

> <PUBCHEM_EFFECTIVE_ROTOR_COUNT>
5

> <PUBCHEM_PHARMACOPHORE_FEATURES>
11
1 2 acceptor
1 2 donor
1 3 acceptor
1 3 donor
1 4 acceptor
1 5 donor
1 6 acceptor
5 1 16 19 20 21 rings
5 7 8 9 10 11 rings
6 20 21 22 23 24 25 rings
6 6 12 13 14 17 18 rings

> <PUBCHEM_HEAVY_ATOM_COUNT>
25

> <PUBCHEM_ATOM_DEF_STEREO_COUNT>
4

> <PUBCHEM_ATOM_UDEF_STEREO_COUNT>
0

> <PUBCHEM_BOND_DEF_STEREO_COUNT>
0

> <PUBCHEM_BOND_UDEF_STEREO_COUNT>
0

> <PUBCHEM_ISOTOPIC_ATOM_COUNT>
0

> <PUBCHEM_COMPONENT_COUNT>
1

> <PUBCHEM_CACTVS_TAUTO_COUNT>
2

> <PUBCHEM_CONFORMER_ID>
048096CC00000001

> <PUBCHEM_MMFF94_ENERGY>
66.4913

> <PUBCHEM_FEATURE_SELFOVERLAP>
55.893

> <PUBCHEM_SHAPE_FINGERPRINT>
10483366 6 18337408101780662556
10554248 39 18201430347517004845
10595046 47 18272087249439784489
11059845 2 16841366198759014115
114674 6 18113896039931923922
12107183 9 17982175522309008313
12236239 1 18200593713061474017
12403259 327 15051149213478103030
12553582 1 18194671584599811822
12633257 1 17896300562859536242
12788726 201 17274835653102034609
13009979 54 17773601520561967272
13167823 11 18343017796666960571
13533116 47 18413106169632194187
13583140 156 18269282433815794633
13785724 45 17840316522955222959
13911852 28 18122059793477700015
13955234 65 18412260666401520656
14251764 30 18055076450118621550
14341114 176 18342178839119218939
14739800 52 17417518220038909825
14863182 85 18336260232773397228
15142526 21 17766829898787594976
15238133 3 16629970928159938899
15250474 111 18129366250466359727
17349148 13 17560796607289244263
17492 89 18412823564952737355
17818456 19 17845376548817919145
17844677 252 18409731716975656649
1813 80 18268435624836330942
20645477 70 18408599266605247706
21033648 29 17313094242806939335
21065198 48 18272370884774326577
21344244 78 18200578233603688408
21421861 104 18411129226113369128
21859007 373 18045497518398346629
22033318 11 17984172308772206465
22950370 63 18194406593406824830
23081809 10 17846778512701704553
23559900 14 18411417328098237747
239999 70 18410856564325582274
25147074 1 17988350564236065847
3004659 81 18131635556212736995
3117164 225 18197219148951889745
3411729 13 18272369810800510940
3421961 26 18339076000009870690
345986 75 18127401268198864891
34797466 226 16443358584825732735
3633792 109 18335965529550629575
3680242 22 18131081415896720689
4073 2 18263086668550441707
4144715 1 18186809080651137233
4409770 3 17182214721902597940
465052 167 18271811163940629423
474 4 18263078984279013841
5104073 3 18130796659623037627
7097593 13 18342165678875226231
7970288 3 18122622747594590154
8272917 22 18409448124152658252
8509985 295 17131826543463615131
86090 222 17168439177184176291
9841814 1 18261101925365836298

> <PUBCHEM_SHAPE_MULTIPOLES>
490.77
13.82
3.55
1.2
22.06
0.39
0.05
1.77
1.84
-7.16
-0.2
-0.31
0.11
-1.16

> <PUBCHEM_SHAPE_SELFOVERLAP>
1063.353

> <PUBCHEM_SHAPE_VOLUME>
269.6

> <PUBCHEM_COORDINATE_TYPE>
2
5
10

$$$$
