40777764
  -OEChem-12032416173D

 57 60  0     1  0  0  0  0  0999 V2000
   -9.2037   -0.1678    1.3330 F   0  0  0  0  0  0  0  0  0  0  0  0
   -8.4232   -2.1970    1.3142 F   0  0  0  0  0  0  0  0  0  0  0  0
   -8.9953   -1.2289   -0.5468 F   0  0  0  0  0  0  0  0  0  0  0  0
    4.1610   -2.2597   -0.2555 O   0  0  0  0  0  0  0  0  0  0  0  0
    6.6662   -1.2781   -0.1657 O   0  0  0  0  0  0  0  0  0  0  0  0
    3.3590   -0.3951   -1.3925 N   0  0  0  0  0  0  0  0  0  0  0  0
   -3.0777    0.9715    0.1185 N   0  0  0  0  0  0  0  0  0  0  0  0
   -2.7561    2.1646    0.6468 N   0  0  0  0  0  0  0  0  0  0  0  0
    0.4379    0.9892   -0.9111 C   0  0  2  0  0  0  0  0  0  0  0  0
    1.1072   -0.2909   -0.3695 C   0  0  0  0  0  0  0  0  0  0  0  0
    1.9886   -0.8173   -1.5089 C   0  0  1  0  0  0  0  0  0  0  0  0
   -0.9652    1.1966   -0.3889 C   0  0  0  0  0  0  0  0  0  0  0  0
    0.5329    0.7984   -2.3972 C   0  0  0  0  0  0  0  0  0  0  0  0
    1.3815   -0.1841   -2.7175 C   0  0  0  0  0  0  0  0  0  0  0  0
   -2.0400    0.3506   -0.5127 C   0  0  0  0  0  0  0  0  0  0  0  0
   -1.4645    2.2967    0.3337 C   0  0  0  0  0  0  0  0  0  0  0  0
   -2.1607   -0.9693   -1.1647 C   0  0  0  0  0  0  0  0  0  0  0  0
   -0.7376    3.5081    0.7529 C   0  0  0  0  0  0  0  0  0  0  0  0
   -4.3789    0.4849    0.2489 C   0  0  0  0  0  0  0  0  0  0  0  0
    4.3393   -1.1589   -0.7698 C   0  0  0  0  0  0  0  0  0  0  0  0
    5.6893   -0.4743   -0.7924 C   0  0  0  0  0  0  0  0  0  0  0  0
   -4.6095   -0.7243    0.9051 C   0  0  0  0  0  0  0  0  0  0  0  0
   -5.4492    1.2080   -0.2775 C   0  0  0  0  0  0  0  0  0  0  0  0
   -5.9105   -1.2102    1.0351 C   0  0  0  0  0  0  0  0  0  0  0  0
   -6.7503    0.7220   -0.1478 C   0  0  0  0  0  0  0  0  0  0  0  0
   -6.9810   -0.4872    0.5085 C   0  0  0  0  0  0  0  0  0  0  0  0
   -8.3717   -1.0069    0.6479 C   0  0  0  0  0  0  0  0  0  0  0  0
    7.7093   -0.6302    0.4528 C   0  0  0  0  0  0  0  0  0  0  0  0
    8.1477    0.6034   -0.0289 C   0  0  0  0  0  0  0  0  0  0  0  0
    8.3304   -1.2071    1.5606 C   0  0  0  0  0  0  0  0  0  0  0  0
    9.2071    1.2602    0.5975 C   0  0  0  0  0  0  0  0  0  0  0  0
    9.3899   -0.5503    2.1868 C   0  0  0  0  0  0  0  0  0  0  0  0
    9.8280    0.6834    1.7054 C   0  0  0  0  0  0  0  0  0  0  0  0
    1.0544    1.8583   -0.6470 H   0  0  0  0  0  0  0  0  0  0  0  0
    1.6777   -0.0795    0.5431 H   0  0  0  0  0  0  0  0  0  0  0  0
    0.3719   -1.0582   -0.1001 H   0  0  0  0  0  0  0  0  0  0  0  0
    1.9396   -1.9101   -1.5583 H   0  0  0  0  0  0  0  0  0  0  0  0
    0.0081    1.4042   -3.1225 H   0  0  0  0  0  0  0  0  0  0  0  0
    1.6154   -0.4745   -3.7320 H   0  0  0  0  0  0  0  0  0  0  0  0
    3.6145    0.5215   -1.7511 H   0  0  0  0  0  0  0  0  0  0  0  0
   -2.0785   -1.7736   -0.4267 H   0  0  0  0  0  0  0  0  0  0  0  0
   -3.1154   -1.0767   -1.6902 H   0  0  0  0  0  0  0  0  0  0  0  0
   -1.3831   -1.1329   -1.9142 H   0  0  0  0  0  0  0  0  0  0  0  0
    0.1066    3.2454    1.3986 H   0  0  0  0  0  0  0  0  0  0  0  0
   -1.3806    4.1982    1.3094 H   0  0  0  0  0  0  0  0  0  0  0  0
   -0.3495    4.0442   -0.1193 H   0  0  0  0  0  0  0  0  0  0  0  0
    5.9736   -0.3002   -1.8364 H   0  0  0  0  0  0  0  0  0  0  0  0
    5.5529    0.4853   -0.2760 H   0  0  0  0  0  0  0  0  0  0  0  0
   -3.7914   -1.2962    1.3360 H   0  0  0  0  0  0  0  0  0  0  0  0
   -5.2874    2.1501   -0.7959 H   0  0  0  0  0  0  0  0  0  0  0  0
   -6.0690   -2.1522    1.5528 H   0  0  0  0  0  0  0  0  0  0  0  0
   -7.5779    1.2918   -0.5620 H   0  0  0  0  0  0  0  0  0  0  0  0
    7.7086    1.0728   -0.9043 H   0  0  0  0  0  0  0  0  0  0  0  0
    7.9933   -2.1679    1.9398 H   0  0  0  0  0  0  0  0  0  0  0  0
    9.5528    2.2179    0.2192 H   0  0  0  0  0  0  0  0  0  0  0  0
    9.8737   -0.9995    3.0492 H   0  0  0  0  0  0  0  0  0  0  0  0
   10.6537    1.1941    2.1922 H   0  0  0  0  0  0  0  0  0  0  0  0
  1 27  1  0  0  0  0
  2 27  1  0  0  0  0
  3 27  1  0  0  0  0
  4 20  2  0  0  0  0
  5 21  1  0  0  0  0
  5 28  1  0  0  0  0
  6 11  1  0  0  0  0
  6 20  1  0  0  0  0
  6 40  1  0  0  0  0
  7  8  1  0  0  0  0
  7 15  1  0  0  0  0
  7 19  1  0  0  0  0
  8 16  2  0  0  0  0
  9 10  1  0  0  0  0
  9 12  1  0  0  0  0
  9 13  1  0  0  0  0
  9 34  1  0  0  0  0
 10 11  1  0  0  0  0
 10 35  1  0  0  0  0
 10 36  1  0  0  0  0
 11 14  1  0  0  0  0
 11 37  1  0  0  0  0
 12 15  2  0  0  0  0
 12 16  1  0  0  0  0
 13 14  2  0  0  0  0
 13 38  1  0  0  0  0
 14 39  1  0  0  0  0
 15 17  1  0  0  0  0
 16 18  1  0  0  0  0
 17 41  1  0  0  0  0
 17 42  1  0  0  0  0
 17 43  1  0  0  0  0
 18 44  1  0  0  0  0
 18 45  1  0  0  0  0
 18 46  1  0  0  0  0
 19 22  2  0  0  0  0
 19 23  1  0  0  0  0
 20 21  1  0  0  0  0
 21 47  1  0  0  0  0
 21 48  1  0  0  0  0
 22 24  1  0  0  0  0
 22 49  1  0  0  0  0
 23 25  2  0  0  0  0
 23 50  1  0  0  0  0
 24 26  2  0  0  0  0
 24 51  1  0  0  0  0
 25 26  1  0  0  0  0
 25 52  1  0  0  0  0
 26 27  1  0  0  0  0
 28 29  2  0  0  0  0
 28 30  1  0  0  0  0
 29 31  1  0  0  0  0
 29 53  1  0  0  0  0
 30 32  2  0  0  0  0
 30 54  1  0  0  0  0
 31 33  2  0  0  0  0
 31 55  1  0  0  0  0
 32 33  1  0  0  0  0
 32 56  1  0  0  0  0
 33 57  1  0  0  0  0
M  END
> <PUBCHEM_COMPOUND_CID>
40777764

> <PUBCHEM_CONFORMER_RMSD>
1

> <PUBCHEM_CONFORMER_DIVERSEORDER>
1
34
47
19
68
71
7
83
63
29
11
52
54
46
22
53
72
17
86
20
27
31
61
25
76
66
18
33
13
84
40
58
16
49
35
50
82
74
56
67
60
12
3
39
44
45
4
8
38
88
57
36
91
24
78
73
92
32
2
30
87
59
10
75
6
14
55
69
90
81
51
64
48
62
85
70
41
37
15
23
89
26
79
80
9
28
77
21
42
65
5
43

> <PUBCHEM_MMFF94_PARTIAL_CHARGES>
44
1 -0.34
11 0.44
12 -0.18
13 -0.29
14 -0.29
15 -0.33
16 0.11
17 0.18
18 0.18
19 -0.02
2 -0.34
20 0.57
21 0.34
22 -0.15
23 -0.15
24 -0.15
25 -0.15
26 -0.14
27 1.16
28 0.08
29 -0.15
3 -0.34
30 -0.15
31 -0.15
32 -0.15
33 -0.15
38 0.15
39 0.15
4 -0.57
40 0.37
49 0.15
5 -0.36
50 0.15
51 0.15
52 0.15
53 0.15
54 0.15
55 0.15
56 0.15
57 0.15
6 -0.73
7 0.59
8 -0.71
9 0.32

> <PUBCHEM_EFFECTIVE_ROTOR_COUNT>
8.6

> <PUBCHEM_PHARMACOPHORE_FEATURES>
8
1 4 acceptor
1 5 acceptor
1 6 donor
1 8 acceptor
5 7 8 12 15 16 rings
5 9 10 11 13 14 rings
6 19 22 23 24 25 26 rings
6 28 29 30 31 32 33 rings

> <PUBCHEM_HEAVY_ATOM_COUNT>
33

> <PUBCHEM_ATOM_DEF_STEREO_COUNT>
2

> <PUBCHEM_ATOM_UDEF_STEREO_COUNT>
0

> <PUBCHEM_BOND_DEF_STEREO_COUNT>
0

> <PUBCHEM_BOND_UDEF_STEREO_COUNT>
0

> <PUBCHEM_ISOTOPIC_ATOM_COUNT>
0

> <PUBCHEM_COMPONENT_COUNT>
1

> <PUBCHEM_CACTVS_TAUTO_COUNT>
2

> <PUBCHEM_CONFORMER_ID>
026E382400000001

> <PUBCHEM_MMFF94_ENERGY>
87.6372

> <PUBCHEM_FEATURE_SELFOVERLAP>
40.605

> <PUBCHEM_SHAPE_FINGERPRINT>
10 15 18131911551412421734
10165383 225 15985385586229177454
10369192 42 15267340708796018012
10483366 6 10809340036247299102
106641 1 17632297882624063751
10674148 151 14706922952154074213
10917259 69 15213845014534321631
10930396 42 18342168968762120096
11103572 95 17751070311158823114
11181472 205 11959746953482577982
11408170 108 16443342023526817874
11411753 29 17416702237336857508
11411753 3 17700990837583986548
12741549 16 18187083949778736973
12838862 33 18342735200872662703
13627175 23 15195285356778212450
14150022 121 17417819387884102777
14428016 248 14908183061986358763
14664723 55 9799689311586925355
14747281 78 13830136105504998308
14849402 71 15123502618803178922
14918687 75 16988835125655656543
15183329 4 15285361730302747797
15230672 131 8502368915446458408
15247644 1 16081089281476381275
15320295 40 15719390634005645246
15326923 82 18130785677333535261
15347590 135 18411697661019888410
15350500 16 16877660163001215486
15392192 104 16272208591455128967
15690457 1 17095521795138852130
15706992 2 14907903807534081010
15728490 51 18272649069115570639
16664035 7 18410855456346080101
16728433 281 10015048433848691787
16992610 120 14045742656104806220
1768 4 16917340447105753712
18393751 57 17274822437276629222
18603816 31 17822573914862159771
19302320 297 18059564829478757888
2026 5 15647042730375219826
21095123 293 13973968692362921682
21130935 74 18196375823438608566
212700 22 17967252000898194491
22224240 67 17060339608534422038
23528940 14 16371273439559090914
23559900 14 18042698385290232477
23576562 1 12966257532663061066
24771293 8 17132397207473997733
4149490 64 17531824574555104449
4173938 188 17917711344657160887
4403749 210 17988639641247075781
4440575 13 17312817186782670354
45266715 3 13840260352348855256
474113 269 15357690869680182178
5028188 123 11887660788958316928
5758199 1 15554447388173993798
59682541 35 18202562886883720962
6081469 158 16515682252066509732
6126387 218 18334013870393479505
6204607 403 16558752356004819496
6438161 24 17240204343498265855
9663363 56 18342455938051820973
9689198 14 13470687049158624228
9953998 17 17131830984613065751

> <PUBCHEM_SHAPE_MULTIPOLES>
630.62
33.96
2.14
1.82
27.21
1.3
-0.58
-10.67
22.79
-1.24
0.54
2.13
-0.29
1.08

> <PUBCHEM_SHAPE_SELFOVERLAP>
1369.479

> <PUBCHEM_SHAPE_VOLUME>
346.5

> <PUBCHEM_COORDINATE_TYPE>
2
5
10

$$$$
