38027134
  -OEChem-12032416133D

 68 69  0     1  0  0  0  0  0999 V2000
   -3.6711   -1.7210   -0.6856 S   0  0  0  0  0  0  0  0  0  0  0  0
    2.9006    2.1134   -0.0098 O   0  0  0  0  0  0  0  0  0  0  0  0
   -3.1684   -2.4747    0.4464 O   0  0  0  0  0  0  0  0  0  0  0  0
   -3.4480   -2.1827   -2.0423 O   0  0  0  0  0  0  0  0  0  0  0  0
   -3.1560   -0.0959   -0.5721 N   0  0  0  0  0  0  0  0  0  0  0  0
    3.0576    0.4857   -1.6545 N   0  0  0  0  0  0  0  0  0  0  0  0
   -1.1349    1.0694    1.3085 C   0  0  1  0  0  0  0  0  0  0  0  0
   -2.4614    1.7462    0.8815 C   0  0  1  0  0  0  0  0  0  0  0  0
    0.0365    2.0544    1.1762 C   0  0  0  0  0  0  0  0  0  0  0  0
    0.1973    2.5785   -0.2633 C   0  0  2  0  0  0  0  0  0  0  0  0
   -1.2045    0.5359    2.7429 C   0  0  0  0  0  0  0  0  0  0  0  0
   -1.1270    3.0188   -0.8534 C   0  0  0  0  0  0  0  0  0  0  0  0
   -2.3047    2.6480   -0.3203 C   0  0  0  0  0  0  0  0  0  0  0  0
   -3.5487    0.7031    0.5991 C   0  0  0  0  0  0  0  0  0  0  0  0
    0.8772    1.5361   -1.1579 C   0  0  0  0  0  0  0  0  0  0  0  0
   -0.2025   -0.5974    2.9383 C   0  0  0  0  0  0  0  0  0  0  0  0
   -0.9509    1.6606    3.7416 C   0  0  0  0  0  0  0  0  0  0  0  0
   -1.0666    3.9337   -2.0449 C   0  0  0  0  0  0  0  0  0  0  0  0
    2.3636    1.4183   -0.8762 C   0  0  0  0  0  0  0  0  0  0  0  0
   -5.4254   -1.5215   -0.4745 C   0  0  0  0  0  0  0  0  0  0  0  0
    4.4923    0.2537   -1.5053 C   0  0  0  0  0  0  0  0  0  0  0  0
   -6.1458   -2.8581   -0.5356 C   0  0  0  0  0  0  0  0  0  0  0  0
    2.4014   -0.3250   -2.6731 C   0  0  0  0  0  0  0  0  0  0  0  0
    4.7845   -0.8532   -0.5339 C   0  0  0  0  0  0  0  0  0  0  0  0
   -7.6473   -2.6884   -0.3752 C   0  0  0  0  0  0  0  0  0  0  0  0
    4.9562   -0.5661    0.8203 C   0  0  0  0  0  0  0  0  0  0  0  0
    4.8846   -2.1689   -0.9860 C   0  0  0  0  0  0  0  0  0  0  0  0
    5.2277   -1.5949    1.7225 C   0  0  0  0  0  0  0  0  0  0  0  0
    5.1559   -3.1976   -0.0838 C   0  0  0  0  0  0  0  0  0  0  0  0
    5.3276   -2.9105    1.2703 C   0  0  0  0  0  0  0  0  0  0  0  0
   -0.9442    0.2205    0.6410 H   0  0  0  0  0  0  0  0  0  0  0  0
   -2.8260    2.3839    1.6966 H   0  0  0  0  0  0  0  0  0  0  0  0
    0.9702    1.6025    1.5245 H   0  0  0  0  0  0  0  0  0  0  0  0
   -0.1330    2.9436    1.7972 H   0  0  0  0  0  0  0  0  0  0  0  0
    0.8353    3.4715   -0.2033 H   0  0  0  0  0  0  0  0  0  0  0  0
   -2.1952    0.1186    2.9493 H   0  0  0  0  0  0  0  0  0  0  0  0
   -3.2241    3.0326   -0.7578 H   0  0  0  0  0  0  0  0  0  0  0  0
   -4.5005    1.2009    0.3778 H   0  0  0  0  0  0  0  0  0  0  0  0
   -3.7088    0.0618    1.4693 H   0  0  0  0  0  0  0  0  0  0  0  0
    0.7842    1.8489   -2.2038 H   0  0  0  0  0  0  0  0  0  0  0  0
    0.4063    0.5543   -1.0479 H   0  0  0  0  0  0  0  0  0  0  0  0
    0.8311   -0.2702    2.7894 H   0  0  0  0  0  0  0  0  0  0  0  0
   -0.4014   -1.4199    2.2428 H   0  0  0  0  0  0  0  0  0  0  0  0
   -0.2761   -1.0017    3.9540 H   0  0  0  0  0  0  0  0  0  0  0  0
    0.0969    1.9769    3.7767 H   0  0  0  0  0  0  0  0  0  0  0  0
   -1.1878    1.3043    4.7519 H   0  0  0  0  0  0  0  0  0  0  0  0
   -1.5863    2.5337    3.5659 H   0  0  0  0  0  0  0  0  0  0  0  0
   -0.4532    4.8121   -1.8193 H   0  0  0  0  0  0  0  0  0  0  0  0
   -2.0591    4.2951   -2.3353 H   0  0  0  0  0  0  0  0  0  0  0  0
   -0.6389    3.4232   -2.9123 H   0  0  0  0  0  0  0  0  0  0  0  0
   -3.1593    0.4323   -1.4547 H   0  0  0  0  0  0  0  0  0  0  0  0
   -5.7780   -0.8535   -1.2669 H   0  0  0  0  0  0  0  0  0  0  0  0
   -5.6030   -1.0556    0.4987 H   0  0  0  0  0  0  0  0  0  0  0  0
    4.9619    1.1792   -1.1488 H   0  0  0  0  0  0  0  0  0  0  0  0
    4.9393    0.0488   -2.4856 H   0  0  0  0  0  0  0  0  0  0  0  0
   -5.9408   -3.3539   -1.4917 H   0  0  0  0  0  0  0  0  0  0  0  0
   -5.7723   -3.5245    0.2507 H   0  0  0  0  0  0  0  0  0  0  0  0
    3.0010   -0.3035   -3.5887 H   0  0  0  0  0  0  0  0  0  0  0  0
    1.3969    0.0018   -2.9367 H   0  0  0  0  0  0  0  0  0  0  0  0
    2.3381   -1.3548   -2.3101 H   0  0  0  0  0  0  0  0  0  0  0  0
   -7.8895   -2.2293    0.5885 H   0  0  0  0  0  0  0  0  0  0  0  0
   -8.0579   -2.0572   -1.1698 H   0  0  0  0  0  0  0  0  0  0  0  0
   -8.1462   -3.6614   -0.4227 H   0  0  0  0  0  0  0  0  0  0  0  0
    4.8830    0.4540    1.1872 H   0  0  0  0  0  0  0  0  0  0  0  0
    4.7556   -2.4061   -2.0387 H   0  0  0  0  0  0  0  0  0  0  0  0
    5.3616   -1.3714    2.7769 H   0  0  0  0  0  0  0  0  0  0  0  0
    5.2342   -4.2221   -0.4358 H   0  0  0  0  0  0  0  0  0  0  0  0
    5.5392   -3.7115    1.9727 H   0  0  0  0  0  0  0  0  0  0  0  0
  1  3  2  0  0  0  0
  1  4  2  0  0  0  0
  1  5  1  0  0  0  0
  1 20  1  0  0  0  0
  2 19  2  0  0  0  0
  5 14  1  0  0  0  0
  5 51  1  0  0  0  0
  6 19  1  0  0  0  0
  6 21  1  0  0  0  0
  6 23  1  0  0  0  0
  7  8  1  0  0  0  0
  7  9  1  0  0  0  0
  7 11  1  0  0  0  0
  7 31  1  0  0  0  0
  8 13  1  0  0  0  0
  8 14  1  0  0  0  0
  8 32  1  0  0  0  0
  9 10  1  0  0  0  0
  9 33  1  0  0  0  0
  9 34  1  0  0  0  0
 10 12  1  0  0  0  0
 10 15  1  0  0  0  0
 10 35  1  0  0  0  0
 11 16  1  0  0  0  0
 11 17  1  0  0  0  0
 11 36  1  0  0  0  0
 12 13  2  0  0  0  0
 12 18  1  0  0  0  0
 13 37  1  0  0  0  0
 14 38  1  0  0  0  0
 14 39  1  0  0  0  0
 15 19  1  0  0  0  0
 15 40  1  0  0  0  0
 15 41  1  0  0  0  0
 16 42  1  0  0  0  0
 16 43  1  0  0  0  0
 16 44  1  0  0  0  0
 17 45  1  0  0  0  0
 17 46  1  0  0  0  0
 17 47  1  0  0  0  0
 18 48  1  0  0  0  0
 18 49  1  0  0  0  0
 18 50  1  0  0  0  0
 20 22  1  0  0  0  0
 20 52  1  0  0  0  0
 20 53  1  0  0  0  0
 21 24  1  0  0  0  0
 21 54  1  0  0  0  0
 21 55  1  0  0  0  0
 22 25  1  0  0  0  0
 22 56  1  0  0  0  0
 22 57  1  0  0  0  0
 23 58  1  0  0  0  0
 23 59  1  0  0  0  0
 23 60  1  0  0  0  0
 24 26  2  0  0  0  0
 24 27  1  0  0  0  0
 25 61  1  0  0  0  0
 25 62  1  0  0  0  0
 25 63  1  0  0  0  0
 26 28  1  0  0  0  0
 26 64  1  0  0  0  0
 27 29  2  0  0  0  0
 27 65  1  0  0  0  0
 28 30  2  0  0  0  0
 28 66  1  0  0  0  0
 29 30  1  0  0  0  0
 29 67  1  0  0  0  0
 30 68  1  0  0  0  0
M  END
> <PUBCHEM_COMPOUND_CID>
38027134

> <PUBCHEM_CONFORMER_RMSD>
1.2

> <PUBCHEM_CONFORMER_DIVERSEORDER>
1
78
42
121
139
99
83
27
66
131
104
65
146
112
44
76
53
31
51
38
80
64
89
118
23
40
18
3
154
151
136
101
167
176
93
111
11
126
180
5
168
102
148
134
12
9
98
173
172
137
10
120
158
91
49
21
15
127
142
178
157
13
166
87
141
20
181
75
177
61
62
48
169
34
47
132
103
108
60
115
36
110
69
159
149
56
122
135
161
59
175
106
39
58
4
113
147
70
37
138
30
54
153
129
74
105
155
94
82
124
152
55
92
68
160
52
90
100
163
95
107
165
114
6
123
88
125
143
28
24
26
164
50
109
174
171
25
84
140
162
19
170
128
33
117
17
116
45
97
81
130
32
43
7
63
156
145
150
73
179
46
86
67
119
85
77
96
22
29
8
133
71
72
41
2
144
35
14
16
57
79

> <PUBCHEM_MMFF94_PARTIAL_CHARGES>
30
1 1.33
10 0.14
12 -0.28
13 -0.29
14 0.36
15 0.06
18 0.14
19 0.57
2 -0.57
20 0.11
21 0.44
23 0.3
24 -0.14
26 -0.15
27 -0.15
28 -0.15
29 -0.15
3 -0.65
30 -0.15
37 0.15
4 -0.65
5 -0.91
51 0.42
6 -0.66
64 0.15
65 0.15
66 0.15
67 0.15
68 0.15
8 0.14

> <PUBCHEM_EFFECTIVE_ROTOR_COUNT>
11.8

> <PUBCHEM_PHARMACOPHORE_FEATURES>
8
1 2 acceptor
1 25 hydrophobe
1 3 acceptor
1 4 acceptor
1 5 donor
3 11 16 17 hydrophobe
6 24 26 27 28 29 30 rings
6 7 8 9 10 12 13 rings

> <PUBCHEM_HEAVY_ATOM_COUNT>
30

> <PUBCHEM_ATOM_DEF_STEREO_COUNT>
3

> <PUBCHEM_ATOM_UDEF_STEREO_COUNT>
0

> <PUBCHEM_BOND_DEF_STEREO_COUNT>
0

> <PUBCHEM_BOND_UDEF_STEREO_COUNT>
0

> <PUBCHEM_ISOTOPIC_ATOM_COUNT>
0

> <PUBCHEM_COMPONENT_COUNT>
1

> <PUBCHEM_CACTVS_TAUTO_COUNT>
1

> <PUBCHEM_CONFORMER_ID>
02443F7E00000001

> <PUBCHEM_MMFF94_ENERGY>
57.2354

> <PUBCHEM_FEATURE_SELFOVERLAP>
40.613

> <PUBCHEM_SHAPE_FINGERPRINT>
10074138 170 16629140753831322225
10622 236 18042115475790590266
11513181 2 17754737126898852474
11720765 8 18191301783477115973
12422481 6 18058184855315180723
12523318 42 17987511520630819408
14950920 106 17344627033653466602
15163728 17 13118271543527191017
17349148 13 17605853429875263016
17980427 23 12823295737028342493
18603816 31 17465088355177751010
19315092 285 18273217529865375944
20775438 99 17901658590322583107
20775530 9 18129107886386213901
208703 8 18408600336337733646
21049683 118 15548846265388440169
21458453 9 12175345863615168071
312425 83 13118871907357660514
354706 35 17823432650654521910
392239 28 15553867928566675028
44062 13 18190461554423849492
44344687 77 18041290924175492627
45266715 3 17604142740021890448
463206 1 18334020458161103578
563151 248 18193009131824899089
70251023 43 18333731355222891284

> <PUBCHEM_SHAPE_MULTIPOLES>
593.67
14.27
4.57
2.83
3.36
0.29
-2.13
-20.78
2.87
2.72
1.36
-0.52
0.91
-2.3

> <PUBCHEM_SHAPE_SELFOVERLAP>
1189.428

> <PUBCHEM_SHAPE_VOLUME>
351.9

> <PUBCHEM_COORDINATE_TYPE>
2
5
10

$$$$
