26763581
  -OEChem-12032416183D

 67 69  0     1  0  0  0  0  0999 V2000
   -3.0967   -1.5962    1.2877 S   0  0  0  0  0  0  0  0  0  0  0  0
   -4.0447   -1.3663    2.3576 O   0  0  0  0  0  0  0  0  0  0  0  0
   -2.1477   -2.6877    1.3565 O   0  0  0  0  0  0  0  0  0  0  0  0
    0.0645    0.1232    2.1859 O   0  0  0  0  0  0  0  0  0  0  0  0
    0.8100    3.2375   -1.0652 O   0  0  0  0  0  0  0  0  0  0  0  0
    3.9308   -3.1690    1.7963 O   0  0  0  0  0  0  0  0  0  0  0  0
    2.3691   -3.5874    0.1609 O   0  0  0  0  0  0  0  0  0  0  0  0
   -2.2537   -0.1437    0.9638 N   0  0  1  0  0  0  0  0  0  0  0  0
   -1.0483    2.2330   -0.0957 N   0  0  0  0  0  0  0  0  0  0  0  0
    1.1188   -1.1736    0.5654 N   0  0  0  0  0  0  0  0  0  0  0  0
   -0.4981    4.4802    0.3622 N   0  0  0  0  0  0  0  0  0  0  0  0
    5.4815   -0.9479   -2.0452 N   0  0  0  0  0  0  0  0  0  0  0  0
   -1.0399   -0.2516    0.1066 C   0  0  1  0  0  0  0  0  0  0  0  0
   -0.8290    0.9641   -0.7931 C   0  0  0  0  0  0  0  0  0  0  0  0
   -3.0923    1.0539    0.7009 C   0  0  0  0  0  0  0  0  0  0  0  0
   -2.2211    2.3001    0.7830 C   0  0  0  0  0  0  0  0  0  0  0  0
    0.0869   -0.4059    1.0777 C   0  0  0  0  0  0  0  0  0  0  0  0
   -0.1729    3.3120   -0.3219 C   0  0  0  0  0  0  0  0  0  0  0  0
   -4.0099   -1.7668   -0.2139 C   0  0  0  0  0  0  0  0  0  0  0  0
    2.3335   -1.4544    1.2963 C   0  0  2  0  0  0  0  0  0  0  0  0
    3.3995   -0.3720    1.0708 C   0  0  0  0  0  0  0  0  0  0  0  0
    0.2900    5.6866    0.2512 C   0  0  0  0  0  0  0  0  0  0  0  0
   -3.4618   -2.4687   -1.2875 C   0  0  0  0  0  0  0  0  0  0  0  0
   -5.2777   -1.1965   -0.3280 C   0  0  0  0  0  0  0  0  0  0  0  0
    2.8681   -2.8506    1.0054 C   0  0  0  0  0  0  0  0  0  0  0  0
    3.8972   -0.2620   -0.3527 C   0  0  0  0  0  0  0  0  0  0  0  0
    1.4071    5.6863    1.2867 C   0  0  0  0  0  0  0  0  0  0  0  0
   -0.5950    6.9186    0.3942 C   0  0  0  0  0  0  0  0  0  0  0  0
   -4.1815   -2.6004   -2.4752 C   0  0  0  0  0  0  0  0  0  0  0  0
   -5.9975   -1.3282   -1.5154 C   0  0  0  0  0  0  0  0  0  0  0  0
   -5.4493   -2.0301   -2.5891 C   0  0  0  0  0  0  0  0  0  0  0  0
    3.2781    0.5853   -1.2651 C   0  0  0  0  0  0  0  0  0  0  0  0
    4.9854   -1.0005   -0.7887 C   0  0  0  0  0  0  0  0  0  0  0  0
    3.7594    0.6668   -2.5671 C   0  0  0  0  0  0  0  0  0  0  0  0
    4.4832   -4.4745    1.5987 C   0  0  0  0  0  0  0  0  0  0  0  0
    4.8539   -0.1133   -2.9039 C   0  0  0  0  0  0  0  0  0  0  0  0
   -1.0943   -1.1359   -0.5346 H   0  0  0  0  0  0  0  0  0  0  0  0
    0.1637    0.9431   -1.2502 H   0  0  0  0  0  0  0  0  0  0  0  0
   -1.5506    0.9426   -1.6196 H   0  0  0  0  0  0  0  0  0  0  0  0
   -3.5472    0.9935   -0.2929 H   0  0  0  0  0  0  0  0  0  0  0  0
   -3.8889    1.1333    1.4474 H   0  0  0  0  0  0  0  0  0  0  0  0
   -2.8148    3.1806    0.5137 H   0  0  0  0  0  0  0  0  0  0  0  0
   -1.8510    2.4406    1.8057 H   0  0  0  0  0  0  0  0  0  0  0  0
    1.0420   -1.5427   -0.3782 H   0  0  0  0  0  0  0  0  0  0  0  0
    2.0670   -1.4531    2.3615 H   0  0  0  0  0  0  0  0  0  0  0  0
   -1.2435    4.4757    1.0485 H   0  0  0  0  0  0  0  0  0  0  0  0
    3.0018    0.6049    1.3776 H   0  0  0  0  0  0  0  0  0  0  0  0
    4.2610   -0.5513    1.7276 H   0  0  0  0  0  0  0  0  0  0  0  0
    0.7466    5.7089   -0.7457 H   0  0  0  0  0  0  0  0  0  0  0  0
   -2.4789   -2.9260   -1.2223 H   0  0  0  0  0  0  0  0  0  0  0  0
   -5.7238   -0.6435    0.4938 H   0  0  0  0  0  0  0  0  0  0  0  0
    1.0042    5.6462    2.3049 H   0  0  0  0  0  0  0  0  0  0  0  0
    2.0614    4.8170    1.1583 H   0  0  0  0  0  0  0  0  0  0  0  0
    2.0230    6.5873    1.1986 H   0  0  0  0  0  0  0  0  0  0  0  0
   -0.0105    7.8369    0.2768 H   0  0  0  0  0  0  0  0  0  0  0  0
   -1.0824    6.9471    1.3751 H   0  0  0  0  0  0  0  0  0  0  0  0
   -1.3841    6.9191   -0.3657 H   0  0  0  0  0  0  0  0  0  0  0  0
   -3.7552   -3.1476   -3.3109 H   0  0  0  0  0  0  0  0  0  0  0  0
   -6.9843   -0.8836   -1.6047 H   0  0  0  0  0  0  0  0  0  0  0  0
   -6.0097   -2.1325   -3.5138 H   0  0  0  0  0  0  0  0  0  0  0  0
    2.4322    1.1926   -0.9667 H   0  0  0  0  0  0  0  0  0  0  0  0
    5.5157   -1.6752   -0.1241 H   0  0  0  0  0  0  0  0  0  0  0  0
    3.2942    1.3227   -3.2940 H   0  0  0  0  0  0  0  0  0  0  0  0
    5.3210   -4.5971    2.2901 H   0  0  0  0  0  0  0  0  0  0  0  0
    4.8553   -4.5768    0.5748 H   0  0  0  0  0  0  0  0  0  0  0  0
    3.7328   -5.2404    1.8165 H   0  0  0  0  0  0  0  0  0  0  0  0
    5.2681   -0.0855   -3.9064 H   0  0  0  0  0  0  0  0  0  0  0  0
  1  2  2  0  0  0  0
  1  3  2  0  0  0  0
  1  8  1  0  0  0  0
  1 19  1  0  0  0  0
  4 17  2  0  0  0  0
  5 18  2  0  0  0  0
  6 25  1  0  0  0  0
  6 35  1  0  0  0  0
  7 25  2  0  0  0  0
  8 13  1  0  0  0  0
  8 15  1  0  0  0  0
  9 14  1  0  0  0  0
  9 16  1  0  0  0  0
  9 18  1  0  0  0  0
 10 17  1  0  0  0  0
 10 20  1  0  0  0  0
 10 44  1  0  0  0  0
 11 18  1  0  0  0  0
 11 22  1  0  0  0  0
 11 46  1  0  0  0  0
 12 33  1  0  0  0  0
 12 36  2  0  0  0  0
 13 14  1  0  0  0  0
 13 17  1  0  0  0  0
 13 37  1  0  0  0  0
 14 38  1  0  0  0  0
 14 39  1  0  0  0  0
 15 16  1  0  0  0  0
 15 40  1  0  0  0  0
 15 41  1  0  0  0  0
 16 42  1  0  0  0  0
 16 43  1  0  0  0  0
 19 23  2  0  0  0  0
 19 24  1  0  0  0  0
 20 21  1  0  0  0  0
 20 25  1  0  0  0  0
 20 45  1  0  0  0  0
 21 26  1  0  0  0  0
 21 47  1  0  0  0  0
 21 48  1  0  0  0  0
 22 27  1  0  0  0  0
 22 28  1  0  0  0  0
 22 49  1  0  0  0  0
 23 29  1  0  0  0  0
 23 50  1  0  0  0  0
 24 30  2  0  0  0  0
 24 51  1  0  0  0  0
 26 32  1  0  0  0  0
 26 33  2  0  0  0  0
 27 52  1  0  0  0  0
 27 53  1  0  0  0  0
 27 54  1  0  0  0  0
 28 55  1  0  0  0  0
 28 56  1  0  0  0  0
 28 57  1  0  0  0  0
 29 31  2  0  0  0  0
 29 58  1  0  0  0  0
 30 31  1  0  0  0  0
 30 59  1  0  0  0  0
 31 60  1  0  0  0  0
 32 34  2  0  0  0  0
 32 61  1  0  0  0  0
 33 62  1  0  0  0  0
 34 36  1  0  0  0  0
 34 63  1  0  0  0  0
 35 64  1  0  0  0  0
 35 65  1  0  0  0  0
 35 66  1  0  0  0  0
 36 67  1  0  0  0  0
M  END
> <PUBCHEM_COMPOUND_CID>
26763581

> <PUBCHEM_CONFORMER_RMSD>
1.4

> <PUBCHEM_CONFORMER_DIVERSEORDER>
1
118
100
116
57
106
65
81
40
110
103
37
11
117
45
59
25
104
84
60
101
36
89
52
75
80
90
20
79
99
91
74
28
97
33
29
69
53
107
23
88
71
102
82
66
19
62
119
87
113
39
77
55
92
47
115
72
83
30
114
4
21
35
43
111
105
22
12
63
14
51
78
98
6
32
64
109
16
112
15
50
2
70
58
96
86
61
8
46
93
13
56
31
68
76
17
73
94
24
42
41
18
49
95
48
54
44
26
108
34
3
10
85
27
38
9
7
67
5

> <PUBCHEM_MMFF94_PARTIAL_CHARGES>
45
1 1.45
10 -0.73
11 -0.73
12 -0.62
13 0.42
14 0.3
15 0.36
16 0.3
17 0.57
18 0.69
19 -0.01
2 -0.65
20 0.36
21 0.14
22 0.3
23 -0.15
24 -0.15
25 0.66
26 -0.14
29 -0.15
3 -0.65
30 -0.15
31 -0.15
32 -0.15
33 0.16
34 -0.15
35 0.28
36 0.16
4 -0.57
44 0.37
46 0.37
5 -0.57
50 0.15
51 0.15
58 0.15
59 0.15
6 -0.43
60 0.15
61 0.15
62 0.15
63 0.15
67 0.15
7 -0.57
8 -0.85
9 -0.66

> <PUBCHEM_EFFECTIVE_ROTOR_COUNT>
13.2

> <PUBCHEM_PHARMACOPHORE_FEATURES>
12
1 10 donor
1 11 donor
1 12 acceptor
1 2 acceptor
1 3 acceptor
1 4 acceptor
1 5 acceptor
1 7 acceptor
3 22 27 28 hydrophobe
6 12 26 32 33 34 36 rings
6 19 23 24 29 30 31 rings
6 8 9 13 14 15 16 rings

> <PUBCHEM_HEAVY_ATOM_COUNT>
36

> <PUBCHEM_ATOM_DEF_STEREO_COUNT>
2

> <PUBCHEM_ATOM_UDEF_STEREO_COUNT>
0

> <PUBCHEM_BOND_DEF_STEREO_COUNT>
0

> <PUBCHEM_BOND_UDEF_STEREO_COUNT>
0

> <PUBCHEM_ISOTOPIC_ATOM_COUNT>
0

> <PUBCHEM_COMPONENT_COUNT>
1

> <PUBCHEM_CACTVS_TAUTO_COUNT>
4

> <PUBCHEM_CONFORMER_ID>
0198613D00000001

> <PUBCHEM_MMFF94_ENERGY>
73.6062

> <PUBCHEM_FEATURE_SELFOVERLAP>
60.917

> <PUBCHEM_SHAPE_FINGERPRINT>
10369192 42 16771804788838688408
11377469 6 18057910067887510835
11720765 8 18122874703945890765
11763715 3 18411132503062684940
12553582 1 18336272331016035331
12788726 201 18193281792953509841
14910302 57 17131833144691906919
15361156 5 18121507855973549594
15664445 248 18198615721665223692
1813 80 18129933589743916919
2132832 1 18042109969721605634
23559900 14 18192984031877161299
3388396 114 18336276712552402116
3534868 343 18262234400535721646
4353968 344 18340771430551719646
45266715 3 17763742491827764837
6700243 42 17916601829664548220

> <PUBCHEM_SHAPE_MULTIPOLES>
684.59
11.48
7.82
2.5
4.13
17.49
1.22
-13.91
6.91
-4.02
-3.05
-0.72
-1.82
-2.92

> <PUBCHEM_SHAPE_SELFOVERLAP>
1416.079

> <PUBCHEM_SHAPE_VOLUME>
391.8

> <PUBCHEM_COORDINATE_TYPE>
2
5
10

$$$$
