7142731
  -OEChem-12032416223D

 56 60  0     1  0  0  0  0  0999 V2000
    2.0486    2.0979    1.6439 O   0  0  0  0  0  0  0  0  0  0  0  0
   -3.1049    0.7304    2.1438 O   0  0  0  0  0  0  0  0  0  0  0  0
   -3.3345   -1.4559    0.8957 O   0  0  0  0  0  0  0  0  0  0  0  0
    3.0012   -1.5214   -1.4383 O   0  0  0  0  0  0  0  0  0  0  0  0
   -2.7857    2.0766    0.2770 N   0  0  0  0  0  0  0  0  0  0  0  0
    0.3612    2.6181    0.1134 N   0  0  0  0  0  0  0  0  0  0  0  0
    3.2784    0.3453   -0.0785 N   0  0  0  0  0  0  0  0  0  0  0  0
    5.5465   -0.7102    0.8154 N   0  0  0  0  0  0  0  0  0  0  0  0
    6.4971   -3.1973   -0.0661 N   0  0  0  0  0  0  0  0  0  0  0  0
   -1.5599    4.2191    0.6609 C   0  0  1  0  0  0  0  0  0  0  0  0
   -1.4635    3.1369   -1.5450 C   0  0  2  0  0  0  0  0  0  0  0  0
   -1.5794    4.4862   -0.8392 C   0  0  0  0  0  0  0  0  0  0  0  0
   -2.7355    3.3112    1.0624 C   0  0  0  0  0  0  0  0  0  0  0  0
   -0.2051    3.6085    1.0387 C   0  0  0  0  0  0  0  0  0  0  0  0
   -2.6739    2.2561   -1.1783 C   0  0  0  0  0  0  0  0  0  0  0  0
   -0.1771    2.4289   -1.1634 C   0  0  0  0  0  0  0  0  0  0  0  0
    0.4256    1.6032   -2.0354 C   0  0  0  0  0  0  0  0  0  0  0  0
    1.5281    1.9506    0.5372 C   0  0  0  0  0  0  0  0  0  0  0  0
   -3.0143    0.8600    0.9202 C   0  0  0  0  0  0  0  0  0  0  0  0
    2.1550    1.0207   -0.4550 C   0  0  0  0  0  0  0  0  0  0  0  0
    1.6142    0.8854   -1.6705 C   0  0  0  0  0  0  0  0  0  0  0  0
   -3.1473   -0.3558    0.0386 C   0  0  0  0  0  0  0  0  0  0  0  0
    3.6364   -0.8923   -0.5956 C   0  0  0  0  0  0  0  0  0  0  0  0
   -4.0350   -2.5326    0.3992 C   0  0  0  0  0  0  0  0  0  0  0  0
    4.9084   -1.4623   -0.0802 C   0  0  0  0  0  0  0  0  0  0  0  0
   -3.9846   -2.8108   -0.9586 C   0  0  0  0  0  0  0  0  0  0  0  0
   -4.7788   -3.3194    1.2658 C   0  0  0  0  0  0  0  0  0  0  0  0
    5.3449   -2.6702   -0.5256 C   0  0  0  0  0  0  0  0  0  0  0  0
   -4.6948   -3.9010   -1.4614 C   0  0  0  0  0  0  0  0  0  0  0  0
   -5.4889   -4.4095    0.7629 C   0  0  0  0  0  0  0  0  0  0  0  0
   -5.4468   -4.7004   -0.6007 C   0  0  0  0  0  0  0  0  0  0  0  0
    6.6986   -1.2373    1.2751 C   0  0  0  0  0  0  0  0  0  0  0  0
    7.1656   -2.4588    0.8420 C   0  0  0  0  0  0  0  0  0  0  0  0
   -1.6730    5.1656    1.2040 H   0  0  0  0  0  0  0  0  0  0  0  0
   -1.4807    3.3151   -2.6281 H   0  0  0  0  0  0  0  0  0  0  0  0
   -2.5096    4.9913   -1.1267 H   0  0  0  0  0  0  0  0  0  0  0  0
   -0.7524    5.1481   -1.1251 H   0  0  0  0  0  0  0  0  0  0  0  0
   -2.6913    3.0877    2.1336 H   0  0  0  0  0  0  0  0  0  0  0  0
   -3.6838    3.8335    0.8848 H   0  0  0  0  0  0  0  0  0  0  0  0
   -0.2489    3.1655    2.0416 H   0  0  0  0  0  0  0  0  0  0  0  0
    0.5385    4.4152    1.0980 H   0  0  0  0  0  0  0  0  0  0  0  0
   -2.6144    1.2995   -1.7024 H   0  0  0  0  0  0  0  0  0  0  0  0
   -3.6026    2.7386   -1.5077 H   0  0  0  0  0  0  0  0  0  0  0  0
    0.0232    1.4347   -3.0288 H   0  0  0  0  0  0  0  0  0  0  0  0
    2.0396    0.2818   -2.4630 H   0  0  0  0  0  0  0  0  0  0  0  0
   -4.0086   -0.1918   -0.6205 H   0  0  0  0  0  0  0  0  0  0  0  0
   -2.2219   -0.4952   -0.5295 H   0  0  0  0  0  0  0  0  0  0  0  0
    3.7684    0.6826    0.7465 H   0  0  0  0  0  0  0  0  0  0  0  0
   -3.3913   -2.2266   -1.6551 H   0  0  0  0  0  0  0  0  0  0  0  0
   -4.8135   -3.0951    2.3279 H   0  0  0  0  0  0  0  0  0  0  0  0
    4.8192   -3.2745   -1.2539 H   0  0  0  0  0  0  0  0  0  0  0  0
   -4.6579   -4.1312   -2.5222 H   0  0  0  0  0  0  0  0  0  0  0  0
   -6.0742   -5.0322    1.4331 H   0  0  0  0  0  0  0  0  0  0  0  0
   -5.9986   -5.5501   -0.9920 H   0  0  0  0  0  0  0  0  0  0  0  0
    7.2362   -0.6446    2.0047 H   0  0  0  0  0  0  0  0  0  0  0  0
    8.0915   -2.8816    1.2118 H   0  0  0  0  0  0  0  0  0  0  0  0
  1 18  2  0  0  0  0
  2 19  2  0  0  0  0
  3 22  1  0  0  0  0
  3 24  1  0  0  0  0
  4 23  2  0  0  0  0
  5 13  1  0  0  0  0
  5 15  1  0  0  0  0
  5 19  1  0  0  0  0
  6 14  1  0  0  0  0
  6 16  1  0  0  0  0
  6 18  1  0  0  0  0
  7 20  1  0  0  0  0
  7 23  1  0  0  0  0
  7 48  1  0  0  0  0
  8 25  2  0  0  0  0
  8 32  1  0  0  0  0
  9 28  2  0  0  0  0
  9 33  1  0  0  0  0
 10 12  1  0  0  0  0
 10 13  1  0  0  0  0
 10 14  1  0  0  0  0
 10 34  1  0  0  0  0
 11 12  1  0  0  0  0
 11 15  1  0  0  0  0
 11 16  1  0  0  0  0
 11 35  1  0  0  0  0
 12 36  1  0  0  0  0
 12 37  1  0  0  0  0
 13 38  1  0  0  0  0
 13 39  1  0  0  0  0
 14 40  1  0  0  0  0
 14 41  1  0  0  0  0
 15 42  1  0  0  0  0
 15 43  1  0  0  0  0
 16 17  2  0  0  0  0
 17 21  1  0  0  0  0
 17 44  1  0  0  0  0
 18 20  1  0  0  0  0
 19 22  1  0  0  0  0
 20 21  2  0  0  0  0
 21 45  1  0  0  0  0
 22 46  1  0  0  0  0
 22 47  1  0  0  0  0
 23 25  1  0  0  0  0
 24 26  2  0  0  0  0
 24 27  1  0  0  0  0
 25 28  1  0  0  0  0
 26 29  1  0  0  0  0
 26 49  1  0  0  0  0
 27 30  2  0  0  0  0
 27 50  1  0  0  0  0
 28 51  1  0  0  0  0
 29 31  2  0  0  0  0
 29 52  1  0  0  0  0
 30 31  1  0  0  0  0
 30 53  1  0  0  0  0
 31 54  1  0  0  0  0
 32 33  2  0  0  0  0
 32 55  1  0  0  0  0
 33 56  1  0  0  0  0
M  END
> <PUBCHEM_COMPOUND_CID>
7142731

> <PUBCHEM_CONFORMER_RMSD>
1

> <PUBCHEM_CONFORMER_DIVERSEORDER>
1
42
19
36
33
17
39
22
21
18
29
14
20
24
40
6
15
48
9
47
37
46
54
5
55
16
8
30
10
49
52
27
35
12
26
51
31
41
2
50
3
43
53
32
25
45
38
4
28
7
44
34
13
11
23

> <PUBCHEM_MMFF94_PARTIAL_CHARGES>
42
1 -0.57
11 0.14
13 0.3
14 0.3
15 0.3
16 -0.03
17 -0.15
18 0.62
19 0.57
2 -0.57
20 0.12
21 -0.15
22 0.34
23 0.54
24 0.08
25 0.4
26 -0.15
27 -0.15
28 0.16
29 -0.15
3 -0.36
30 -0.15
31 -0.15
32 0.16
33 0.16
4 -0.57
44 0.15
45 0.15
48 0.37
49 0.15
5 -0.66
50 0.15
51 0.15
52 0.15
53 0.15
54 0.15
55 0.15
56 0.15
6 -0.47
7 -0.54
8 -0.62
9 -0.62

> <PUBCHEM_EFFECTIVE_ROTOR_COUNT>
8

> <PUBCHEM_PHARMACOPHORE_FEATURES>
12
1 1 acceptor
1 2 acceptor
1 3 acceptor
1 4 acceptor
1 7 donor
1 8 acceptor
1 9 acceptor
6 24 26 27 29 30 31 rings
6 5 10 11 12 13 15 rings
6 6 10 11 12 14 16 rings
6 6 16 17 18 20 21 rings
6 8 9 25 28 32 33 rings

> <PUBCHEM_HEAVY_ATOM_COUNT>
33

> <PUBCHEM_ATOM_DEF_STEREO_COUNT>
2

> <PUBCHEM_ATOM_UDEF_STEREO_COUNT>
0

> <PUBCHEM_BOND_DEF_STEREO_COUNT>
0

> <PUBCHEM_BOND_UDEF_STEREO_COUNT>
0

> <PUBCHEM_ISOTOPIC_ATOM_COUNT>
0

> <PUBCHEM_COMPONENT_COUNT>
1

> <PUBCHEM_CACTVS_TAUTO_COUNT>
2

> <PUBCHEM_CONFORMER_ID>
006CFD4B00000001

> <PUBCHEM_MMFF94_ENERGY>
101.4956

> <PUBCHEM_FEATURE_SELFOVERLAP>
62.484

> <PUBCHEM_SHAPE_FINGERPRINT>
10622 236 18259989292349317582
11069576 57 17901392517251187157
11135609 149 17980178006318867479
11497681 19 18335707165798011910
11524674 6 17974573485602771297
11607047 403 18051407676622799832
11801155 225 17901663761891644962
12107183 9 18127435521581149003
12202916 173 17987224539864953069
12977781 61 18194937829664773493
13947947 140 18343308062904454931
14114206 34 16660361463521430901
14344974 204 18410854327197130694
14429380 30 18336266842074457842
14659021 117 18267854004517713909
14674994 50 18260822645222948253
14844126 61 18263651671187026833
14856354 85 18197781003788936268
14863182 85 17475237280951182377
15803439 3 17174587508625301917
16993438 75 18268420244268475831
17324776 126 18338788043807639694
19315092 285 17773323545836137371
19611394 137 18200588095956070066
20721686 124 17041471190839618101
20775530 9 18194984026216237063
21133410 58 17906725153453694599
21360442 33 17905323284723333231
22956985 138 18267017439721073320
23523787 8 17320098015626874445
2838139 119 9223223036603814502
3044373 233 17539150736411483779
3383291 50 18195252114096975561
397830 11 18340475691966935232
4017518 198 17758676650947673317
4073 2 18124874556994111730
437795 96 17983584004746329350
4616759 239 17842822349352825266
484985 159 18262511473391772661
5223283 242 18191298489927952423
6058803 2 18190206587775021188
6441014 3 18410292535988041634

> <PUBCHEM_SHAPE_MULTIPOLES>
630.74
15.05
7.6
1.68
19.56
0.51
0.13
28.87
-3.48
-9.83
0.17
-0.54
-0.49
-0.66

> <PUBCHEM_SHAPE_SELFOVERLAP>
1386.101

> <PUBCHEM_SHAPE_VOLUME>
330.6

> <PUBCHEM_COORDINATE_TYPE>
2
5
10

$$$$
