71693482
  -OEChem-12032416233D

 52 53  0     1  0  0  0  0  0999 V2000
    0.9932    2.3905   -0.2290 O   0  0  0  0  0  0  0  0  0  0  0  0
    1.8914   -1.5726   -1.0395 O   0  0  0  0  0  0  0  0  0  0  0  0
    4.5550    2.4702   -0.2218 O   0  0  0  0  0  0  0  0  0  0  0  0
    4.4984   -0.8598   -1.3353 O   0  0  0  0  0  0  0  0  0  0  0  0
   -5.6181   -0.7094   -1.2941 O   0  0  0  0  0  0  0  0  0  0  0  0
   -8.0333   -0.9963   -0.3568 O   0  0  0  0  0  0  0  0  0  0  0  0
    3.1303    0.7104    0.3320 N   0  0  0  0  0  0  0  0  0  0  0  0
    5.9120   -1.7569    0.2704 N   0  0  0  0  0  0  0  0  0  0  0  0
   -4.7421    0.0607    0.7535 N   0  0  0  0  0  0  0  0  0  0  0  0
    1.7384    0.2327    0.5181 C   0  0  1  0  0  0  0  0  0  0  0  0
    0.7612    0.9917   -0.4004 C   0  0  1  0  0  0  0  0  0  0  0  0
    1.6047   -1.2833    0.3135 C   0  0  0  0  0  0  0  0  0  0  0  0
   -0.7010    0.7438   -0.0933 C   0  0  0  0  0  0  0  0  0  0  0  0
    3.4247    1.9808   -0.1670 C   0  0  0  0  0  0  0  0  0  0  0  0
    4.2118   -0.0802    0.9132 C   0  0  0  0  0  0  0  0  0  0  0  0
    2.2534    2.7549   -0.7384 C   0  0  0  0  0  0  0  0  0  0  0  0
   -1.1970    0.9911    1.1867 C   0  0  0  0  0  0  0  0  0  0  0  0
   -1.5520    0.2685   -1.0912 C   0  0  0  0  0  0  0  0  0  0  0  0
    4.8740   -0.9238   -0.1618 C   0  0  0  0  0  0  0  0  0  0  0  0
   -2.5439    0.7634    1.4688 C   0  0  0  0  0  0  0  0  0  0  0  0
   -2.8988    0.0407   -0.8092 C   0  0  0  0  0  0  0  0  0  0  0  0
   -3.3948    0.2883    0.4709 C   0  0  0  0  0  0  0  0  0  0  0  0
    6.6459   -2.6303   -0.6421 C   0  0  0  0  0  0  0  0  0  0  0  0
    6.3378   -1.8149    1.6633 C   0  0  0  0  0  0  0  0  0  0  0  0
   -5.7399   -0.4099   -0.1102 C   0  0  0  0  0  0  0  0  0  0  0  0
   -7.0839   -0.5230    0.5761 C   0  0  0  0  0  0  0  0  0  0  0  0
   -9.3274   -1.1274    0.2237 C   0  0  0  0  0  0  0  0  0  0  0  0
    1.5208    0.4602    1.5692 H   0  0  0  0  0  0  0  0  0  0  0  0
    0.9526    0.7453   -1.4540 H   0  0  0  0  0  0  0  0  0  0  0  0
    0.5857   -1.6196    0.5304 H   0  0  0  0  0  0  0  0  0  0  0  0
    2.2731   -1.8676    0.9503 H   0  0  0  0  0  0  0  0  0  0  0  0
    3.8301   -0.6854    1.7389 H   0  0  0  0  0  0  0  0  0  0  0  0
    4.9638    0.6108    1.3109 H   0  0  0  0  0  0  0  0  0  0  0  0
    2.4053    3.8148   -0.5093 H   0  0  0  0  0  0  0  0  0  0  0  0
    2.2614    2.6448   -1.8290 H   0  0  0  0  0  0  0  0  0  0  0  0
   -0.5544    1.3726    1.9751 H   0  0  0  0  0  0  0  0  0  0  0  0
   -1.1788    0.0707   -2.0926 H   0  0  0  0  0  0  0  0  0  0  0  0
    1.7887   -2.5323   -1.1570 H   0  0  0  0  0  0  0  0  0  0  0  0
   -2.9175    0.9631    2.4700 H   0  0  0  0  0  0  0  0  0  0  0  0
   -3.4948   -0.3279   -1.6323 H   0  0  0  0  0  0  0  0  0  0  0  0
    6.5420   -3.6643   -0.3015 H   0  0  0  0  0  0  0  0  0  0  0  0
    6.2581   -2.5475   -1.6605 H   0  0  0  0  0  0  0  0  0  0  0  0
    7.7008   -2.3418   -0.6362 H   0  0  0  0  0  0  0  0  0  0  0  0
    6.0955   -2.8087    2.0523 H   0  0  0  0  0  0  0  0  0  0  0  0
    7.4229   -1.6744    1.7008 H   0  0  0  0  0  0  0  0  0  0  0  0
    5.8835   -1.0691    2.3130 H   0  0  0  0  0  0  0  0  0  0  0  0
   -5.0260    0.2642    1.7096 H   0  0  0  0  0  0  0  0  0  0  0  0
   -6.9946   -1.2229    1.4144 H   0  0  0  0  0  0  0  0  0  0  0  0
   -7.3764    0.4662    0.9457 H   0  0  0  0  0  0  0  0  0  0  0  0
  -10.0127   -1.4954   -0.5444 H   0  0  0  0  0  0  0  0  0  0  0  0
   -9.6867   -0.1567    0.5787 H   0  0  0  0  0  0  0  0  0  0  0  0
   -9.3050   -1.8468    1.0479 H   0  0  0  0  0  0  0  0  0  0  0  0
  1 11  1  0  0  0  0
  1 16  1  0  0  0  0
  2 12  1  0  0  0  0
  2 38  1  0  0  0  0
  3 14  2  0  0  0  0
  4 19  2  0  0  0  0
  5 25  2  0  0  0  0
  6 26  1  0  0  0  0
  6 27  1  0  0  0  0
  7 10  1  0  0  0  0
  7 14  1  0  0  0  0
  7 15  1  0  0  0  0
  8 19  1  0  0  0  0
  8 23  1  0  0  0  0
  8 24  1  0  0  0  0
  9 22  1  0  0  0  0
  9 25  1  0  0  0  0
  9 47  1  0  0  0  0
 10 11  1  0  0  0  0
 10 12  1  0  0  0  0
 10 28  1  0  0  0  0
 11 13  1  0  0  0  0
 11 29  1  0  0  0  0
 12 30  1  0  0  0  0
 12 31  1  0  0  0  0
 13 17  2  0  0  0  0
 13 18  1  0  0  0  0
 14 16  1  0  0  0  0
 15 19  1  0  0  0  0
 15 32  1  0  0  0  0
 15 33  1  0  0  0  0
 16 34  1  0  0  0  0
 16 35  1  0  0  0  0
 17 20  1  0  0  0  0
 17 36  1  0  0  0  0
 18 21  2  0  0  0  0
 18 37  1  0  0  0  0
 20 22  2  0  0  0  0
 20 39  1  0  0  0  0
 21 22  1  0  0  0  0
 21 40  1  0  0  0  0
 23 41  1  0  0  0  0
 23 42  1  0  0  0  0
 23 43  1  0  0  0  0
 24 44  1  0  0  0  0
 24 45  1  0  0  0  0
 24 46  1  0  0  0  0
 25 26  1  0  0  0  0
 26 48  1  0  0  0  0
 26 49  1  0  0  0  0
 27 50  1  0  0  0  0
 27 51  1  0  0  0  0
 27 52  1  0  0  0  0
M  END
> <PUBCHEM_COMPOUND_CID>
71693482

> <PUBCHEM_CONFORMER_RMSD>
1

> <PUBCHEM_CONFORMER_DIVERSEORDER>
1
4
6
21
24
10
5
20
19
23
14
11
16
15
12
18
8
17
22
3
9
13
7
2

> <PUBCHEM_MMFF94_PARTIAL_CHARGES>
33
1 -0.56
10 0.3
11 0.42
12 0.28
13 -0.14
14 0.57
15 0.36
16 0.34
17 -0.15
18 -0.15
19 0.57
2 -0.68
20 -0.15
21 -0.15
22 0.12
23 0.3
24 0.3
25 0.57
26 0.34
27 0.28
3 -0.57
36 0.15
37 0.15
38 0.4
39 0.15
4 -0.57
40 0.15
47 0.37
5 -0.57
6 -0.56
7 -0.66
8 -0.66
9 -0.55

> <PUBCHEM_EFFECTIVE_ROTOR_COUNT>
10

> <PUBCHEM_PHARMACOPHORE_FEATURES>
10
1 1 acceptor
1 2 acceptor
1 2 donor
1 3 acceptor
1 4 acceptor
1 5 acceptor
1 6 acceptor
1 9 donor
6 1 7 10 11 14 16 rings
6 13 17 18 20 21 22 rings

> <PUBCHEM_HEAVY_ATOM_COUNT>
27

> <PUBCHEM_ATOM_DEF_STEREO_COUNT>
2

> <PUBCHEM_ATOM_UDEF_STEREO_COUNT>
0

> <PUBCHEM_BOND_DEF_STEREO_COUNT>
0

> <PUBCHEM_BOND_UDEF_STEREO_COUNT>
0

> <PUBCHEM_ISOTOPIC_ATOM_COUNT>
0

> <PUBCHEM_COMPONENT_COUNT>
1

> <PUBCHEM_CACTVS_TAUTO_COUNT>
6

> <PUBCHEM_CONFORMER_ID>
0445F4AA00000001

> <PUBCHEM_MMFF94_ENERGY>
81.8147

> <PUBCHEM_FEATURE_SELFOVERLAP>
50.767

> <PUBCHEM_SHAPE_FINGERPRINT>
10 15 14117793630674822194
10366900 7 17240486871021526344
10411042 1 18336827473520563956
106641 1 15769769174469385835
10670039 82 15068614951811948367
11719270 70 17918278658280940207
12166972 35 18342176669628510904
12236239 1 18202568393258914121
125118 31 9655310228521128051
12616971 3 18201993343723068429
12788726 201 13334728008072484175
12838862 33 15554447376428457249
13533116 47 18342737446613128520
13668630 136 18260266369954614003
13685833 64 18408885122517159154
13782708 43 17894911819417823835
13862211 1 18262798463581563226
15183329 4 17603583011610484553
15188451 53 18060137617893420409
17980427 23 13901322885421585296
1813 80 18340497651813258380
18222031 100 18408323255528460376
20028762 73 18272651229837899030
20771845 140 16845855676444555966
21150785 3 12757152385855165675
21267235 1 18413392012084229614
21304304 249 18341897372289954998
21315763 28 18410011044790310321
21344244 78 17989201534717871912
21792934 111 17346594154523875609
22956985 138 17768256717531812750
23522609 53 18045252403676208588
23559900 14 17677055749590117073
23576562 1 13551771694476606571
3004659 81 18409448098704478163
34797466 226 16370730361306257892
3633792 109 18409729548417903985
465052 167 18410013213464120590
5104073 3 18272097101398748361
58260988 393 15769782312399896130
6438161 24 17967807241511224818
70251023 43 18335419020336508048

> <PUBCHEM_SHAPE_MULTIPOLES>
505.49
21.02
2.37
1.2
35.02
0.75
-0.13
-16.04
-0.84
-4.87
0.33
-0.37
-0.2
-0.57

> <PUBCHEM_SHAPE_SELFOVERLAP>
1043.015

> <PUBCHEM_SHAPE_VOLUME>
286.4

> <PUBCHEM_COORDINATE_TYPE>
2
5
10

$$$$
