75536992
  -OEChem-12032416333D

 49 52  0     1  0  0  0  0  0999 V2000
    6.6045    2.9298   -2.1642 F   0  0  0  0  0  0  0  0  0  0  0  0
   -7.1250    1.7406    0.8258 F   0  0  0  0  0  0  0  0  0  0  0  0
   -5.4235    2.9409    1.4322 F   0  0  0  0  0  0  0  0  0  0  0  0
   -6.1279    3.0187   -0.6234 F   0  0  0  0  0  0  0  0  0  0  0  0
    3.6613   -2.6829    0.9506 O   0  0  0  0  0  0  0  0  0  0  0  0
   -2.8787   -3.1520   -1.4619 O   0  0  0  0  0  0  0  0  0  0  0  0
    1.4138   -2.1231    0.5566 N   0  0  0  0  0  0  0  0  0  0  0  0
    2.7636   -0.5575    1.4375 N   0  0  0  0  0  0  0  0  0  0  0  0
   -0.9787   -1.9392   -0.8455 N   0  0  0  0  0  0  0  0  0  0  0  0
    0.5365   -0.9998    0.8394 C   0  0  1  0  0  0  0  0  0  0  0  0
    1.4957    0.1206    1.2322 C   0  0  0  0  0  0  0  0  0  0  0  0
   -0.3385   -0.6964   -0.3726 C   0  0  0  0  0  0  0  0  0  0  0  0
    0.8650   -3.3458   -0.0040 C   0  0  0  0  0  0  0  0  0  0  0  0
   -0.0414   -3.0176   -1.1892 C   0  0  0  0  0  0  0  0  0  0  0  0
    2.7293   -1.8900    0.9809 C   0  0  0  0  0  0  0  0  0  0  0  0
    3.9323    0.1372    1.9301 C   0  0  0  0  0  0  0  0  0  0  0  0
   -2.3495   -2.1306   -1.0261 C   0  0  0  0  0  0  0  0  0  0  0  0
    4.6448    0.8821    0.8385 C   0  0  0  0  0  0  0  0  0  0  0  0
   -3.2551   -1.0343   -0.6590 C   0  0  0  0  0  0  0  0  0  0  0  0
    5.6509    0.2517    0.1062 C   0  0  0  0  0  0  0  0  0  0  0  0
    4.3010    2.2041    0.5563 C   0  0  0  0  0  0  0  0  0  0  0  0
   -3.6002   -0.0680   -1.6039 C   0  0  0  0  0  0  0  0  0  0  0  0
   -3.7698   -0.9593    0.6353 C   0  0  0  0  0  0  0  0  0  0  0  0
    6.3131    0.9433   -0.9079 C   0  0  0  0  0  0  0  0  0  0  0  0
    4.9632    2.8959   -0.4578 C   0  0  0  0  0  0  0  0  0  0  0  0
   -4.4596    0.9735   -1.2544 C   0  0  0  0  0  0  0  0  0  0  0  0
   -4.6292    0.0821    0.9848 C   0  0  0  0  0  0  0  0  0  0  0  0
   -4.9741    1.0486    0.0400 C   0  0  0  0  0  0  0  0  0  0  0  0
    5.9693    2.2654   -1.1899 C   0  0  0  0  0  0  0  0  0  0  0  0
   -5.8933    2.1624    0.4132 C   0  0  0  0  0  0  0  0  0  0  0  0
   -0.0845   -1.2919    1.6959 H   0  0  0  0  0  0  0  0  0  0  0  0
    1.6175    0.8625    0.4371 H   0  0  0  0  0  0  0  0  0  0  0  0
    1.1848    0.6207    2.1544 H   0  0  0  0  0  0  0  0  0  0  0  0
   -1.0689    0.0758   -0.1228 H   0  0  0  0  0  0  0  0  0  0  0  0
    0.2629   -0.3198   -1.2093 H   0  0  0  0  0  0  0  0  0  0  0  0
    0.2891   -3.8299    0.7929 H   0  0  0  0  0  0  0  0  0  0  0  0
    1.6771   -4.0185   -0.2962 H   0  0  0  0  0  0  0  0  0  0  0  0
    0.5559   -2.6608   -2.0368 H   0  0  0  0  0  0  0  0  0  0  0  0
   -0.5759   -3.9157   -1.5139 H   0  0  0  0  0  0  0  0  0  0  0  0
    4.6132   -0.6000    2.3727 H   0  0  0  0  0  0  0  0  0  0  0  0
    3.6287    0.8119    2.7389 H   0  0  0  0  0  0  0  0  0  0  0  0
    5.9284   -0.7780    0.3151 H   0  0  0  0  0  0  0  0  0  0  0  0
    3.5194    2.7067    1.1198 H   0  0  0  0  0  0  0  0  0  0  0  0
   -3.2042   -0.1171   -2.6149 H   0  0  0  0  0  0  0  0  0  0  0  0
   -3.5063   -1.7066    1.3793 H   0  0  0  0  0  0  0  0  0  0  0  0
    7.0963    0.4528   -1.4784 H   0  0  0  0  0  0  0  0  0  0  0  0
    4.6958    3.9251   -0.6778 H   0  0  0  0  0  0  0  0  0  0  0  0
   -4.7155    1.7160   -2.0051 H   0  0  0  0  0  0  0  0  0  0  0  0
   -5.0248    0.1325    1.9958 H   0  0  0  0  0  0  0  0  0  0  0  0
  1 29  1  0  0  0  0
  2 30  1  0  0  0  0
  3 30  1  0  0  0  0
  4 30  1  0  0  0  0
  5 15  2  0  0  0  0
  6 17  2  0  0  0  0
  7 10  1  0  0  0  0
  7 13  1  0  0  0  0
  7 15  1  0  0  0  0
  8 11  1  0  0  0  0
  8 15  1  0  0  0  0
  8 16  1  0  0  0  0
  9 12  1  0  0  0  0
  9 14  1  0  0  0  0
  9 17  1  0  0  0  0
 10 11  1  0  0  0  0
 10 12  1  0  0  0  0
 10 31  1  0  0  0  0
 11 32  1  0  0  0  0
 11 33  1  0  0  0  0
 12 34  1  0  0  0  0
 12 35  1  0  0  0  0
 13 14  1  0  0  0  0
 13 36  1  0  0  0  0
 13 37  1  0  0  0  0
 14 38  1  0  0  0  0
 14 39  1  0  0  0  0
 16 18  1  0  0  0  0
 16 40  1  0  0  0  0
 16 41  1  0  0  0  0
 17 19  1  0  0  0  0
 18 20  2  0  0  0  0
 18 21  1  0  0  0  0
 19 22  2  0  0  0  0
 19 23  1  0  0  0  0
 20 24  1  0  0  0  0
 20 42  1  0  0  0  0
 21 25  2  0  0  0  0
 21 43  1  0  0  0  0
 22 26  1  0  0  0  0
 22 44  1  0  0  0  0
 23 27  2  0  0  0  0
 23 45  1  0  0  0  0
 24 29  2  0  0  0  0
 24 46  1  0  0  0  0
 25 29  1  0  0  0  0
 25 47  1  0  0  0  0
 26 28  2  0  0  0  0
 26 48  1  0  0  0  0
 27 28  1  0  0  0  0
 27 49  1  0  0  0  0
 28 30  1  0  0  0  0
M  END
> <PUBCHEM_COMPOUND_CID>
75536992

> <PUBCHEM_CONFORMER_RMSD>
0.8

> <PUBCHEM_CONFORMER_DIVERSEORDER>
1
41
17
49
20
25
50
55
23
22
8
53
28
30
4
36
44
40
31
35
3
42
46
52
29
16
48
51
15
43
21
7
38
26
45
9
24
39
33
19
10
32
5
18
12
34
2
11
14
47
54
13
37
6
27

> <PUBCHEM_MMFF94_PARTIAL_CHARGES>
38
1 -0.19
10 0.3
11 0.3
12 0.3
13 0.3
14 0.3
15 0.69
16 0.44
17 0.54
18 -0.14
19 0.09
2 -0.34
20 -0.15
21 -0.15
22 -0.15
23 -0.15
24 -0.15
25 -0.15
26 -0.15
27 -0.15
28 -0.14
29 0.19
3 -0.34
30 1.16
4 -0.34
42 0.15
43 0.15
44 0.15
45 0.15
46 0.15
47 0.15
48 0.15
49 0.15
5 -0.57
6 -0.57
7 -0.66
8 -0.66
9 -0.66

> <PUBCHEM_EFFECTIVE_ROTOR_COUNT>
6.2

> <PUBCHEM_PHARMACOPHORE_FEATURES>
6
1 5 acceptor
1 6 acceptor
5 7 8 10 11 15 rings
6 18 20 21 24 25 29 rings
6 19 22 23 26 27 28 rings
6 7 9 10 12 13 14 rings

> <PUBCHEM_HEAVY_ATOM_COUNT>
30

> <PUBCHEM_ATOM_DEF_STEREO_COUNT>
1

> <PUBCHEM_ATOM_UDEF_STEREO_COUNT>
0

> <PUBCHEM_BOND_DEF_STEREO_COUNT>
0

> <PUBCHEM_BOND_UDEF_STEREO_COUNT>
0

> <PUBCHEM_ISOTOPIC_ATOM_COUNT>
0

> <PUBCHEM_COMPONENT_COUNT>
1

> <PUBCHEM_CACTVS_TAUTO_COUNT>
1

> <PUBCHEM_CONFORMER_ID>
04809A6000000001

> <PUBCHEM_MMFF94_ENERGY>
71.8368

> <PUBCHEM_FEATURE_SELFOVERLAP>
30.546

> <PUBCHEM_SHAPE_FINGERPRINT>
100830 2 18335987553246754572
10816530 90 18269560451307382726
11273773 38 18341891861962757265
11475781 23 17775563178777716416
12342043 65 14419515998716770138
12390115 104 18342738559067803623
12422481 6 17530955869811014252
12788726 201 17274542014741005529
13383665 225 18341621460007965231
13885169 86 18410295796283969649
13944108 23 17840592491878402681
14251764 75 18412543206519642233
14664723 55 18340501009771172396
14790565 3 18337951315541700104
14840074 17 18186519916654500741
14848178 5 11167954575620043462
15163728 17 18341896307158989238
15183329 4 16128660738731309072
15188451 53 9007067841943290380
15338160 23 18188778370031728387
15513586 35 17679860685177643341
16120349 67 18340217374752264080
16991971 28 17409918559594911255
16992727 255 18339928212233058184
1768 23 18260269676594219676
17857418 61 10231761110466900800
18393751 57 18261392201384585787
19304671 126 16415470567187364649
19315092 285 11025800881913156206
20567600 70 8358249345875355776
20691028 202 18341609279148234729
21120745 212 17978224191009695871
21223535 225 18199183074472677244
21315764 119 18131360717688375942
21458453 9 14129912542805640644
21774942 28 18195243541885954628
24771750 20 17988934322995560439
249057 25 18117532206811208138
3552219 110 18117270575068884039
38570 142 18408893936032656614
392239 28 15719391784365784000
397830 11 17821738221615501147
4058900 60 18411706447943039059
4258327 124 18260818324802125727
439807 62 10159688115283255289
50009960 94 10879720811066527932
508180 173 18270970171422733584
57724786 102 18337667508176545803
5911458 16 18261681449466586620
59682541 52 15554169177119311317
6034566 193 18412262848519245679
6058803 2 18193809696254215154
7970288 3 8286198366388133897

> <PUBCHEM_SHAPE_MULTIPOLES>
561.61
17.82
4.11
1.64
0.55
0.37
-0.15
-20.42
-1.93
0.68
-0.9
-0.8
-0.23
-3.53

> <PUBCHEM_SHAPE_SELFOVERLAP>
1220.732

> <PUBCHEM_SHAPE_VOLUME>
307.7

> <PUBCHEM_COORDINATE_TYPE>
2
5
10

$$$$
