45783475
  -OEChem-12032416273D

 56 59  0     1  0  0  0  0  0999 V2000
   -1.9098   -2.1012    1.5829 O   0  0  0  0  0  0  0  0  0  0  0  0
    7.6260    1.4102   -0.0813 O   0  0  0  0  0  0  0  0  0  0  0  0
   -3.9084   -0.1453   -0.8017 N   0  0  1  0  0  0  0  0  0  0  0  0
   -1.1044   -0.9372   -0.1529 N   0  0  0  0  0  0  0  0  0  0  0  0
   -0.5221   -2.0420    1.7640 N   0  0  0  0  0  0  0  0  0  0  0  0
    3.5661   -1.1776    1.1710 N   0  0  0  0  0  0  0  0  0  0  0  0
    5.2677   -0.1616   -0.1509 N   0  0  0  0  0  0  0  0  0  0  0  0
   -4.2091    1.0363    0.0043 C   0  0  0  0  0  0  0  0  0  0  0  0
   -3.6200   -1.3450    0.0093 C   0  0  1  0  0  0  0  0  0  0  0  0
   -3.0188    1.3640    0.9127 C   0  0  0  0  0  0  0  0  0  0  0  0
   -4.5482    2.2184   -0.9103 C   0  0  0  0  0  0  0  0  0  0  0  0
   -5.0152   -0.5024   -1.6893 C   0  0  0  0  0  0  0  0  0  0  0  0
   -4.0489   -2.5287   -0.8774 C   0  0  0  0  0  0  0  0  0  0  0  0
   -4.6206   -1.8951   -2.1376 C   0  0  0  0  0  0  0  0  0  0  0  0
   -3.2663    2.6397    1.7160 C   0  0  0  0  0  0  0  0  0  0  0  0
   -4.7944    3.4928   -0.1045 C   0  0  0  0  0  0  0  0  0  0  0  0
   -3.6161    3.8166    0.8098 C   0  0  0  0  0  0  0  0  0  0  0  0
   -2.1683   -1.4270    0.4318 C   0  0  0  0  0  0  0  0  0  0  0  0
   -0.1190   -1.3399    0.7008 C   0  0  0  0  0  0  0  0  0  0  0  0
    1.2599   -1.0253    0.4616 C   0  0  0  0  0  0  0  0  0  0  0  0
    1.6445   -0.2936   -0.6565 C   0  0  0  0  0  0  0  0  0  0  0  0
    2.2503   -1.4403    1.3371 C   0  0  0  0  0  0  0  0  0  0  0  0
    2.9888   -0.0035   -0.8620 C   0  0  0  0  0  0  0  0  0  0  0  0
    3.9019   -0.4642    0.0728 C   0  0  0  0  0  0  0  0  0  0  0  0
    5.7165    0.5841   -1.2815 C   0  0  0  0  0  0  0  0  0  0  0  0
    7.2302    0.7097   -1.2538 C   0  0  0  0  0  0  0  0  0  0  0  0
    9.0377    1.5582   -0.0144 C   0  0  0  0  0  0  0  0  0  0  0  0
   -5.0831    0.8400    0.6425 H   0  0  0  0  0  0  0  0  0  0  0  0
   -4.2488   -1.3636    0.9109 H   0  0  0  0  0  0  0  0  0  0  0  0
   -2.1034    1.4964    0.3228 H   0  0  0  0  0  0  0  0  0  0  0  0
   -2.8466    0.5848    1.6594 H   0  0  0  0  0  0  0  0  0  0  0  0
   -5.4546    2.0304   -1.4964 H   0  0  0  0  0  0  0  0  0  0  0  0
   -3.7317    2.3958   -1.6228 H   0  0  0  0  0  0  0  0  0  0  0  0
   -5.0990    0.1544   -2.5602 H   0  0  0  0  0  0  0  0  0  0  0  0
   -5.9767   -0.5327   -1.1613 H   0  0  0  0  0  0  0  0  0  0  0  0
   -3.2321   -3.2159   -1.1237 H   0  0  0  0  0  0  0  0  0  0  0  0
   -4.8316   -3.1052   -0.3694 H   0  0  0  0  0  0  0  0  0  0  0  0
   -5.4656   -2.4623   -2.5387 H   0  0  0  0  0  0  0  0  0  0  0  0
   -3.8457   -1.8434   -2.9128 H   0  0  0  0  0  0  0  0  0  0  0  0
   -4.0853    2.4716    2.4264 H   0  0  0  0  0  0  0  0  0  0  0  0
   -2.3759    2.8824    2.3072 H   0  0  0  0  0  0  0  0  0  0  0  0
   -4.9720    4.3319   -0.7867 H   0  0  0  0  0  0  0  0  0  0  0  0
   -5.7026    3.3738    0.4991 H   0  0  0  0  0  0  0  0  0  0  0  0
   -3.8538    4.6947    1.4207 H   0  0  0  0  0  0  0  0  0  0  0  0
   -2.7429    4.0785    0.1996 H   0  0  0  0  0  0  0  0  0  0  0  0
    0.9185    0.0632   -1.3826 H   0  0  0  0  0  0  0  0  0  0  0  0
    2.0341   -2.0151    2.2328 H   0  0  0  0  0  0  0  0  0  0  0  0
    3.2535    0.5699   -1.7424 H   0  0  0  0  0  0  0  0  0  0  0  0
    5.9251   -0.5011    0.5419 H   0  0  0  0  0  0  0  0  0  0  0  0
    5.4330    0.0901   -2.2181 H   0  0  0  0  0  0  0  0  0  0  0  0
    5.2850    1.5923   -1.2622 H   0  0  0  0  0  0  0  0  0  0  0  0
    7.6943   -0.2842   -1.2599 H   0  0  0  0  0  0  0  0  0  0  0  0
    7.5673    1.2603   -2.1397 H   0  0  0  0  0  0  0  0  0  0  0  0
    9.5249    0.5789    0.0195 H   0  0  0  0  0  0  0  0  0  0  0  0
    9.4045    2.1329   -0.8703 H   0  0  0  0  0  0  0  0  0  0  0  0
    9.2836    2.1017    0.9018 H   0  0  0  0  0  0  0  0  0  0  0  0
  1  5  1  0  0  0  0
  1 18  1  0  0  0  0
  2 26  1  0  0  0  0
  2 27  1  0  0  0  0
  3  8  1  0  0  0  0
  3  9  1  0  0  0  0
  3 12  1  0  0  0  0
  4 18  2  0  0  0  0
  4 19  1  0  0  0  0
  5 19  2  0  0  0  0
  6 22  1  0  0  0  0
  6 24  2  0  0  0  0
  7 24  1  0  0  0  0
  7 25  1  0  0  0  0
  7 49  1  0  0  0  0
  8 10  1  0  0  0  0
  8 11  1  0  0  0  0
  8 28  1  0  0  0  0
  9 13  1  0  0  0  0
  9 18  1  0  0  0  0
  9 29  1  0  0  0  0
 10 15  1  0  0  0  0
 10 30  1  0  0  0  0
 10 31  1  0  0  0  0
 11 16  1  0  0  0  0
 11 32  1  0  0  0  0
 11 33  1  0  0  0  0
 12 14  1  0  0  0  0
 12 34  1  0  0  0  0
 12 35  1  0  0  0  0
 13 14  1  0  0  0  0
 13 36  1  0  0  0  0
 13 37  1  0  0  0  0
 14 38  1  0  0  0  0
 14 39  1  0  0  0  0
 15 17  1  0  0  0  0
 15 40  1  0  0  0  0
 15 41  1  0  0  0  0
 16 17  1  0  0  0  0
 16 42  1  0  0  0  0
 16 43  1  0  0  0  0
 17 44  1  0  0  0  0
 17 45  1  0  0  0  0
 19 20  1  0  0  0  0
 20 21  1  0  0  0  0
 20 22  2  0  0  0  0
 21 23  2  0  0  0  0
 21 46  1  0  0  0  0
 22 47  1  0  0  0  0
 23 24  1  0  0  0  0
 23 48  1  0  0  0  0
 25 26  1  0  0  0  0
 25 50  1  0  0  0  0
 25 51  1  0  0  0  0
 26 52  1  0  0  0  0
 26 53  1  0  0  0  0
 27 54  1  0  0  0  0
 27 55  1  0  0  0  0
 27 56  1  0  0  0  0
M  END
> <PUBCHEM_COMPOUND_CID>
45783475

> <PUBCHEM_CONFORMER_RMSD>
1

> <PUBCHEM_CONFORMER_DIVERSEORDER>
1
63
28
38
50
61
47
39
19
15
51
67
31
55
35
65
18
22
25
41
64
58
44
24
30
62
37
46
42
40
33
54
3
34
52
45
2
9
26
59
17
57
43
49
53
56
27
29
7
48
11
60
5
4
12
36
14
8
66
13
23
16
6
20
10
21
32

> <PUBCHEM_MMFF94_PARTIAL_CHARGES>
24
1 -0.02
12 0.27
18 0.3
19 0.46
2 -0.56
20 0.05
21 -0.15
22 0.16
23 -0.15
24 0.41
25 0.37
26 0.28
27 0.28
3 -0.81
4 -0.57
46 0.15
47 0.15
48 0.15
49 0.4
5 -0.41
6 -0.62
7 -0.87
8 0.27
9 0.45

> <PUBCHEM_EFFECTIVE_ROTOR_COUNT>
9.2

> <PUBCHEM_PHARMACOPHORE_FEATURES>
9
1 2 acceptor
1 3 cation
1 7 donor
3 4 5 19 cation
3 6 7 24 cation
5 1 4 5 18 19 rings
5 3 9 12 13 14 rings
6 6 20 21 22 23 24 rings
6 8 10 11 15 16 17 rings

> <PUBCHEM_HEAVY_ATOM_COUNT>
27

> <PUBCHEM_ATOM_DEF_STEREO_COUNT>
1

> <PUBCHEM_ATOM_UDEF_STEREO_COUNT>
0

> <PUBCHEM_BOND_DEF_STEREO_COUNT>
0

> <PUBCHEM_BOND_UDEF_STEREO_COUNT>
0

> <PUBCHEM_ISOTOPIC_ATOM_COUNT>
0

> <PUBCHEM_COMPONENT_COUNT>
1

> <PUBCHEM_CACTVS_TAUTO_COUNT>
8

> <PUBCHEM_CONFORMER_ID>
02BA99B300000001

> <PUBCHEM_MMFF94_ENERGY>
51.635

> <PUBCHEM_FEATURE_SELFOVERLAP>
45.672

> <PUBCHEM_SHAPE_FINGERPRINT>
10 15 15068623816571686526
10087517 78 18408605864028916748
10291535 26 18409175428226238035
10454371 7 18272092682130802548
10670039 82 18411697703484290136
10906281 52 17458643220052796774
10917259 128 18269542863864920000
11049842 53 17625802891641427339
11089746 13 18334293219329568030
11315181 36 18114183098729693454
11477941 20 18059283366142022973
11524674 6 12540690444256172817
11640471 11 18047747106129125027
11963148 33 11095618749834312852
12788726 201 18340467999649495567
12895837 130 18411142403115880653
13583140 156 14273458080609930807
13690498 29 17845928645304723927
14251764 75 17836658422459101769
15064981 113 17986657191200376071
15163728 17 18199194992600300127
15183329 4 17894631457618364718
15289351 153 18336824308647118856
15352257 5 7997700792337768680
1754908 1 8141809323636024132
17818456 19 17695609776475744107
17913733 40 15502375608710352888
21033648 144 17603297146365424519
21033650 10 18273217490778043427
21150785 3 17632297930306560478
21756936 100 18333740108824656931
21774942 28 18411139113766758124
235170 7 17060330821347591591
255183 451 17555433387613041063
2748736 6 18114184159892967052
2838139 119 18409452522689974716
328310 18 18272658921849486809
3610482 184 18339370668920250221
397830 11 11098147720945236590
4169191 19 17822010939417522030
437795 83 18272656774967647464
445580 204 18408604764675154492
44802255 64 17775006816940027062
5104073 3 17240203227392319338
531348 171 18059018280618173550
563151 97 18410011014119462366
6009941 240 12540682722273875806
6328613 192 18333450924682271640
633830 44 18042688291247084299
636775 72 18335984268393383724
6608658 132 18410851049228832965
7970288 3 10374995555465102869

> <PUBCHEM_SHAPE_MULTIPOLES>
519
18.93
3.51
1.63
47.74
3
-0.02
11.91
-7.52
-6.93
0.71
-0.99
-0.53
-2.32

> <PUBCHEM_SHAPE_SELFOVERLAP>
1094.887

> <PUBCHEM_SHAPE_VOLUME>
291.4

> <PUBCHEM_COORDINATE_TYPE>
2
5
10

$$$$
