11913188
  -OEChem-12032416333D

 72 75  0     1  0  0  0  0  0999 V2000
   -4.6732    2.4335    0.9607 O   0  0  0  0  0  0  0  0  0  0  0  0
    2.9736    4.0229   -0.1001 O   0  0  0  0  0  0  0  0  0  0  0  0
    4.5188   -2.8273    0.6658 O   0  0  0  0  0  0  0  0  0  0  0  0
    6.7026   -2.6284   -0.0343 O   0  0  0  0  0  0  0  0  0  0  0  0
    0.9487    3.3180    0.7635 N   0  0  0  0  0  0  0  0  0  0  0  0
   -4.3418    1.1793   -0.9676 N   0  0  0  0  0  0  0  0  0  0  0  0
    2.7900    1.8462    0.6807 N   0  0  0  0  0  0  0  0  0  0  0  0
   -1.8900    3.3901    0.2052 C   0  0  1  0  0  0  0  0  0  0  0  0
   -1.1715    2.0542    0.5322 C   0  0  2  0  0  0  0  0  0  0  0  0
   -0.9201    4.4332   -0.3793 C   0  0  0  0  0  0  0  0  0  0  0  0
    0.0629    2.3351    1.4054 C   0  0  0  0  0  0  0  0  0  0  0  0
    0.3126    4.6107    0.5061 C   0  0  0  0  0  0  0  0  0  0  0  0
   -0.7793    1.2368   -0.7040 C   0  0  0  0  0  0  0  0  0  0  0  0
   -3.1031    3.2113   -0.7072 C   0  0  0  0  0  0  0  0  0  0  0  0
   -0.1699   -0.0923   -0.3102 C   0  0  0  0  0  0  0  0  0  0  0  0
   -4.1234    2.2581   -0.1232 C   0  0  0  0  0  0  0  0  0  0  0  0
    2.3032    3.1261    0.4175 C   0  0  0  0  0  0  0  0  0  0  0  0
   -5.2652    0.1108   -0.6610 C   0  0  0  0  0  0  0  0  0  0  0  0
    3.8087    1.1532   -0.0191 C   0  0  0  0  0  0  0  0  0  0  0  0
   -4.6135   -0.9845    0.1325 C   0  0  0  0  0  0  0  0  0  0  0  0
   -3.9875   -2.0798   -0.4848 C   0  0  0  0  0  0  0  0  0  0  0  0
    4.1786   -0.1316    0.3784 C   0  0  0  0  0  0  0  0  0  0  0  0
    4.4420    1.7566   -1.1056 C   0  0  0  0  0  0  0  0  0  0  0  0
   -4.6512   -0.8767    1.5231 C   0  0  0  0  0  0  0  0  0  0  0  0
   -3.3910   -3.0796    0.3199 C   0  0  0  0  0  0  0  0  0  0  0  0
    5.1819   -0.8130   -0.3106 C   0  0  0  0  0  0  0  0  0  0  0  0
    5.4452    1.0751   -1.7947 C   0  0  0  0  0  0  0  0  0  0  0  0
   -3.9401   -2.2048   -1.8828 C   0  0  0  0  0  0  0  0  0  0  0  0
   -4.0644   -1.8598    2.3143 C   0  0  0  0  0  0  0  0  0  0  0  0
   -3.4380   -2.9548    1.7180 C   0  0  0  0  0  0  0  0  0  0  0  0
    5.8151   -0.2096   -1.3972 C   0  0  0  0  0  0  0  0  0  0  0  0
   -2.7648   -4.1749   -0.2971 C   0  0  0  0  0  0  0  0  0  0  0  0
   -3.3140   -3.2997   -2.4789 C   0  0  0  0  0  0  0  0  0  0  0  0
   -2.7274   -4.2830   -1.6875 C   0  0  0  0  0  0  0  0  0  0  0  0
    5.5677   -2.1527    0.1028 C   0  0  0  0  0  0  0  0  0  0  0  0
    4.7747   -4.1621    1.1157 C   0  0  0  0  0  0  0  0  0  0  0  0
    3.5032   -4.7367    1.7030 C   0  0  0  0  0  0  0  0  0  0  0  0
   -2.2546    3.7933    1.1619 H   0  0  0  0  0  0  0  0  0  0  0  0
   -1.8562    1.4411    1.1342 H   0  0  0  0  0  0  0  0  0  0  0  0
   -0.6034    4.1254   -1.3837 H   0  0  0  0  0  0  0  0  0  0  0  0
   -1.4285    5.3986   -0.4883 H   0  0  0  0  0  0  0  0  0  0  0  0
    0.5655    1.4154    1.6954 H   0  0  0  0  0  0  0  0  0  0  0  0
   -0.2621    2.7892    2.3513 H   0  0  0  0  0  0  0  0  0  0  0  0
    0.0321    5.0410    1.4748 H   0  0  0  0  0  0  0  0  0  0  0  0
    1.0089    5.3076    0.0297 H   0  0  0  0  0  0  0  0  0  0  0  0
   -0.0754    1.7832   -1.3412 H   0  0  0  0  0  0  0  0  0  0  0  0
   -1.6542    1.0220   -1.3211 H   0  0  0  0  0  0  0  0  0  0  0  0
   -2.7970    2.9127   -1.7156 H   0  0  0  0  0  0  0  0  0  0  0  0
   -3.6160    4.1744   -0.8286 H   0  0  0  0  0  0  0  0  0  0  0  0
   -0.0853   -0.7331   -1.1951 H   0  0  0  0  0  0  0  0  0  0  0  0
    0.8368    0.0049    0.0977 H   0  0  0  0  0  0  0  0  0  0  0  0
   -0.7938   -0.6215    0.4175 H   0  0  0  0  0  0  0  0  0  0  0  0
   -3.8432    1.1177   -1.8499 H   0  0  0  0  0  0  0  0  0  0  0  0
    2.3821    1.3227    1.4463 H   0  0  0  0  0  0  0  0  0  0  0  0
   -5.7186   -0.2388   -1.5924 H   0  0  0  0  0  0  0  0  0  0  0  0
   -6.1008    0.5320   -0.0865 H   0  0  0  0  0  0  0  0  0  0  0  0
    3.6831   -0.5834    1.2349 H   0  0  0  0  0  0  0  0  0  0  0  0
    4.1827    2.7379   -1.4817 H   0  0  0  0  0  0  0  0  0  0  0  0
   -5.1386   -0.0359    2.0088 H   0  0  0  0  0  0  0  0  0  0  0  0
    5.9338    1.5413   -2.6454 H   0  0  0  0  0  0  0  0  0  0  0  0
   -4.3637   -1.4637   -2.5532 H   0  0  0  0  0  0  0  0  0  0  0  0
   -4.0947   -1.7759    3.3968 H   0  0  0  0  0  0  0  0  0  0  0  0
   -2.9860   -3.7113    2.3561 H   0  0  0  0  0  0  0  0  0  0  0  0
    6.5956   -0.7283   -1.9479 H   0  0  0  0  0  0  0  0  0  0  0  0
   -2.2992   -4.9549    0.3018 H   0  0  0  0  0  0  0  0  0  0  0  0
   -3.2804   -3.3830   -3.5613 H   0  0  0  0  0  0  0  0  0  0  0  0
   -2.2389   -5.1345   -2.1522 H   0  0  0  0  0  0  0  0  0  0  0  0
    5.5612   -4.1442    1.8780 H   0  0  0  0  0  0  0  0  0  0  0  0
    5.1028   -4.7746    0.2687 H   0  0  0  0  0  0  0  0  0  0  0  0
    2.7022   -4.7425    0.9563 H   0  0  0  0  0  0  0  0  0  0  0  0
    3.1532   -4.1223    2.5392 H   0  0  0  0  0  0  0  0  0  0  0  0
    3.6630   -5.7586    2.0579 H   0  0  0  0  0  0  0  0  0  0  0  0
  1 16  2  0  0  0  0
  2 17  2  0  0  0  0
  3 35  1  0  0  0  0
  3 36  1  0  0  0  0
  4 35  2  0  0  0  0
  5 11  1  0  0  0  0
  5 12  1  0  0  0  0
  5 17  1  0  0  0  0
  6 16  1  0  0  0  0
  6 18  1  0  0  0  0
  6 53  1  0  0  0  0
  7 17  1  0  0  0  0
  7 19  1  0  0  0  0
  7 54  1  0  0  0  0
  8  9  1  0  0  0  0
  8 10  1  0  0  0  0
  8 14  1  0  0  0  0
  8 38  1  0  0  0  0
  9 11  1  0  0  0  0
  9 13  1  0  0  0  0
  9 39  1  0  0  0  0
 10 12  1  0  0  0  0
 10 40  1  0  0  0  0
 10 41  1  0  0  0  0
 11 42  1  0  0  0  0
 11 43  1  0  0  0  0
 12 44  1  0  0  0  0
 12 45  1  0  0  0  0
 13 15  1  0  0  0  0
 13 46  1  0  0  0  0
 13 47  1  0  0  0  0
 14 16  1  0  0  0  0
 14 48  1  0  0  0  0
 14 49  1  0  0  0  0
 15 50  1  0  0  0  0
 15 51  1  0  0  0  0
 15 52  1  0  0  0  0
 18 20  1  0  0  0  0
 18 55  1  0  0  0  0
 18 56  1  0  0  0  0
 19 22  1  0  0  0  0
 19 23  2  0  0  0  0
 20 21  1  0  0  0  0
 20 24  2  0  0  0  0
 21 25  1  0  0  0  0
 21 28  2  0  0  0  0
 22 26  2  0  0  0  0
 22 57  1  0  0  0  0
 23 27  1  0  0  0  0
 23 58  1  0  0  0  0
 24 29  1  0  0  0  0
 24 59  1  0  0  0  0
 25 30  1  0  0  0  0
 25 32  2  0  0  0  0
 26 31  1  0  0  0  0
 26 35  1  0  0  0  0
 27 31  2  0  0  0  0
 27 60  1  0  0  0  0
 28 33  1  0  0  0  0
 28 61  1  0  0  0  0
 29 30  2  0  0  0  0
 29 62  1  0  0  0  0
 30 63  1  0  0  0  0
 31 64  1  0  0  0  0
 32 34  1  0  0  0  0
 32 65  1  0  0  0  0
 33 34  2  0  0  0  0
 33 66  1  0  0  0  0
 34 67  1  0  0  0  0
 36 37  1  0  0  0  0
 36 68  1  0  0  0  0
 36 69  1  0  0  0  0
 37 70  1  0  0  0  0
 37 71  1  0  0  0  0
 37 72  1  0  0  0  0
M  END
> <PUBCHEM_COMPOUND_CID>
11913188

> <PUBCHEM_CONFORMER_RMSD>
1.4

> <PUBCHEM_CONFORMER_DIVERSEORDER>
3
142
204
145
137
35
27
227
24
65
218
157
214
202
153
23
130
171
181
6
220
64
108
81
98
90
164
37
229
209
199
122
13
170
94
80
96
219
144
182
150
31
44
206
14
222
126
15
198
17
178
148
59
190
16
192
91
223
83
102
67
183
134
205
18
186
139
75
86
57
32
216
179
71
88
54
172
47
99
53
10
12
226
175
132
231
215
158
101
195
119
176
131
41
194
207
116
149
4
92
117
50
103
124
167
9
217
104
8
123
159
61
84
26
82
197
201
110
210
87
21
85
200
76
213
114
22
160
58
189
30
45
203
211
155
60
5
151
180
163
62
177
106
118
193
136
154
173
174
69
51
55
109
97
115
89
72
168
1
141
169
228
39
29
152
36
33
156
224
146
68
77
43
2
7
74
187
185
107
20
63
52
147
128
70
48
162
11
73
95
38
184
111
225
133
19
46
127
196
161
120
212
143
166
230
121
188
112
208
113
42
221
34
125
140
191
28
165
56
138
93
105
49
40
100
66
135
129
79
25
78

> <PUBCHEM_MMFF94_PARTIAL_CHARGES>
42
1 -0.57
11 0.3
12 0.3
14 0.06
16 0.57
17 0.69
18 0.44
19 0.12
2 -0.57
20 -0.14
22 -0.15
23 -0.15
24 -0.15
26 0.09
27 -0.15
28 -0.15
29 -0.15
3 -0.43
30 -0.15
31 -0.15
32 -0.15
33 -0.15
34 -0.15
35 0.63
36 0.28
4 -0.57
5 -0.66
53 0.37
54 0.37
57 0.15
58 0.15
59 0.15
6 -0.73
60 0.15
61 0.15
62 0.15
63 0.15
64 0.15
65 0.15
66 0.15
67 0.15
7 -0.55

> <PUBCHEM_EFFECTIVE_ROTOR_COUNT>
13.2

> <PUBCHEM_PHARMACOPHORE_FEATURES>
10
1 1 acceptor
1 15 hydrophobe
1 2 acceptor
1 4 acceptor
1 6 donor
1 7 donor
6 19 22 23 26 27 31 rings
6 20 21 24 25 29 30 rings
6 21 25 28 32 33 34 rings
6 5 8 9 10 11 12 rings

> <PUBCHEM_HEAVY_ATOM_COUNT>
37

> <PUBCHEM_ATOM_DEF_STEREO_COUNT>
2

> <PUBCHEM_ATOM_UDEF_STEREO_COUNT>
0

> <PUBCHEM_BOND_DEF_STEREO_COUNT>
0

> <PUBCHEM_BOND_UDEF_STEREO_COUNT>
0

> <PUBCHEM_ISOTOPIC_ATOM_COUNT>
0

> <PUBCHEM_COMPONENT_COUNT>
1

> <PUBCHEM_CACTVS_TAUTO_COUNT>
4

> <PUBCHEM_CONFORMER_ID>
00B5C7E400000003

> <PUBCHEM_MMFF94_ENERGY>
100.2215

> <PUBCHEM_FEATURE_SELFOVERLAP>
50.773

> <PUBCHEM_SHAPE_FINGERPRINT>
10305334 12 17983577408330143933
10462674 125 15548214475683491118
10622 236 17900816055720996962
10928967 22 18125169478632341583
11135609 99 18338517435930143774
11136131 41 18050552239375532408
11285246 1 17894915105141873160
12120059 20 18131064996184318516
12422481 6 17274279329824455253
13165053 137 17474104298241465627
14040221 299 18127698114805460212
14904385 45 18409732876522082494
15264996 142 17615987512326623290
15274700 232 17187857415999611086
15320291 9 18268987759824854086
15320467 1 17834112331248417058
16628084 112 18263074415187970687
19301676 85 18411409640613290911
3737641 26 18051981603795191509
437795 163 18408889564663453692
463206 1 18339362963897081688
50080093 196 17191775495186759886
9831354 38 18189592995792926235

> <PUBCHEM_SHAPE_MULTIPOLES>
723.02
14.95
7.91
1.77
14.28
0.84
0.17
11.04
1.82
0.49
-1.11
-1.22
1.7
-2.42

> <PUBCHEM_SHAPE_SELFOVERLAP>
1538.815

> <PUBCHEM_SHAPE_VOLUME>
399.7

> <PUBCHEM_COORDINATE_TYPE>
2
5
10

$$$$
