11886639
  -OEChem-12032416123D

 62 65  0     1  0  0  0  0  0999 V2000
   -1.1085   -1.3512   -1.1370 O   0  0  0  0  0  0  0  0  0  0  0  0
   -2.6000   -3.3674    0.6701 O   0  0  0  0  0  0  0  0  0  0  0  0
    0.8719   -2.5294    0.3990 O   0  0  0  0  0  0  0  0  0  0  0  0
    1.2574   -0.4133    1.1762 O   0  0  0  0  0  0  0  0  0  0  0  0
   -4.2067   -0.3537   -0.6541 N   0  0  0  0  0  0  0  0  0  0  0  0
   -3.5808    0.7933   -0.3578 N   0  0  0  0  0  0  0  0  0  0  0  0
   -4.5057    1.7467   -0.3336 N   0  0  0  0  0  0  0  0  0  0  0  0
    2.9020   -1.6194    0.0270 N   0  0  0  0  0  0  0  0  0  0  0  0
   -7.0091    2.8757    0.4788 N   0  0  0  0  0  0  0  0  0  0  0  0
   -2.7037   -1.9338    0.5249 C   0  0  1  0  0  0  0  0  0  0  0  0
   -1.2995   -1.4154    0.2849 C   0  0  1  0  0  0  0  0  0  0  0  0
   -3.4535   -1.6061   -0.7518 C   0  0  2  0  0  0  0  0  0  0  0  0
   -0.4384   -2.4833    0.9162 C   0  0  1  0  0  0  0  0  0  0  0  0
   -2.3493   -1.6242   -1.8040 C   0  0  0  0  0  0  0  0  0  0  0  0
   -1.2167   -3.7413    0.6086 C   0  0  0  0  0  0  0  0  0  0  0  0
   -5.5410   -0.1761   -0.8283 C   0  0  0  0  0  0  0  0  0  0  0  0
   -5.7117    1.1694   -0.6197 C   0  0  0  0  0  0  0  0  0  0  0  0
    1.6573   -1.4112    0.5890 C   0  0  0  0  0  0  0  0  0  0  0  0
   -6.9451    1.9646   -0.6706 C   0  0  0  0  0  0  0  0  0  0  0  0
    7.3225    1.9395   -0.0955 C   0  0  0  0  0  0  0  0  0  0  0  0
    4.0026   -0.7331   -0.0035 C   0  0  0  0  0  0  0  0  0  0  0  0
    6.1611    1.0043   -0.0634 C   0  0  0  0  0  0  0  0  0  0  0  0
    7.7389    2.2741   -1.5614 C   0  0  0  0  0  0  0  0  0  0  0  0
    7.0896    3.3232    0.5972 C   0  0  0  0  0  0  0  0  0  0  0  0
    8.5656    1.3226    0.6175 C   0  0  0  0  0  0  0  0  0  0  0  0
    5.1776   -1.1306   -0.6216 C   0  0  0  0  0  0  0  0  0  0  0  0
    3.8856    0.5159    0.5852 C   0  0  0  0  0  0  0  0  0  0  0  0
    6.2640   -0.2561   -0.6517 C   0  0  0  0  0  0  0  0  0  0  0  0
    4.9718    1.3905    0.5551 C   0  0  0  0  0  0  0  0  0  0  0  0
   -8.2059    3.7086    0.3978 C   0  0  0  0  0  0  0  0  0  0  0  0
   -6.9921    2.1170    1.7266 C   0  0  0  0  0  0  0  0  0  0  0  0
   -3.1602   -1.5453    1.4409 H   0  0  0  0  0  0  0  0  0  0  0  0
   -1.1467   -0.4106    0.6871 H   0  0  0  0  0  0  0  0  0  0  0  0
   -4.1963   -2.3756   -0.9962 H   0  0  0  0  0  0  0  0  0  0  0  0
   -0.4091   -2.3483    2.0059 H   0  0  0  0  0  0  0  0  0  0  0  0
   -2.4965   -0.8950   -2.6065 H   0  0  0  0  0  0  0  0  0  0  0  0
   -2.2598   -2.6186   -2.2547 H   0  0  0  0  0  0  0  0  0  0  0  0
   -1.0191   -4.5402    1.3296 H   0  0  0  0  0  0  0  0  0  0  0  0
   -0.9982   -4.1328   -0.3913 H   0  0  0  0  0  0  0  0  0  0  0  0
   -6.2231   -0.9782   -1.0722 H   0  0  0  0  0  0  0  0  0  0  0  0
   -7.8257    1.3097   -0.7052 H   0  0  0  0  0  0  0  0  0  0  0  0
   -6.9369    2.5456   -1.6015 H   0  0  0  0  0  0  0  0  0  0  0  0
    3.0467   -2.5211   -0.4210 H   0  0  0  0  0  0  0  0  0  0  0  0
    6.9018    2.7197   -2.1117 H   0  0  0  0  0  0  0  0  0  0  0  0
    8.0570    1.3810   -2.1104 H   0  0  0  0  0  0  0  0  0  0  0  0
    8.5741    2.9836   -1.5867 H   0  0  0  0  0  0  0  0  0  0  0  0
    6.8573    3.2054    1.6621 H   0  0  0  0  0  0  0  0  0  0  0  0
    6.2732    3.8787    0.1209 H   0  0  0  0  0  0  0  0  0  0  0  0
    7.9854    3.9528    0.5326 H   0  0  0  0  0  0  0  0  0  0  0  0
    8.3325    1.0727    1.6593 H   0  0  0  0  0  0  0  0  0  0  0  0
    9.4111    2.0203    0.6197 H   0  0  0  0  0  0  0  0  0  0  0  0
    8.9057    0.4046    0.1257 H   0  0  0  0  0  0  0  0  0  0  0  0
    5.2680   -2.1102   -1.0828 H   0  0  0  0  0  0  0  0  0  0  0  0
    2.9991    0.8839    1.0811 H   0  0  0  0  0  0  0  0  0  0  0  0
    7.1778   -0.5825   -1.1400 H   0  0  0  0  0  0  0  0  0  0  0  0
    4.8386    2.3578    1.0270 H   0  0  0  0  0  0  0  0  0  0  0  0
   -8.2019    4.3016   -0.5236 H   0  0  0  0  0  0  0  0  0  0  0  0
   -9.1275    3.1156    0.4220 H   0  0  0  0  0  0  0  0  0  0  0  0
   -8.2351    4.4232    1.2280 H   0  0  0  0  0  0  0  0  0  0  0  0
   -7.1100    2.7945    2.5812 H   0  0  0  0  0  0  0  0  0  0  0  0
   -7.8018    1.3790    1.7757 H   0  0  0  0  0  0  0  0  0  0  0  0
   -6.0405    1.6033    1.8974 H   0  0  0  0  0  0  0  0  0  0  0  0
  1 11  1  0  0  0  0
  1 14  1  0  0  0  0
  2 10  1  0  0  0  0
  2 15  1  0  0  0  0
  3 13  1  0  0  0  0
  3 18  1  0  0  0  0
  4 18  2  0  0  0  0
  5  6  1  0  0  0  0
  5 12  1  0  0  0  0
  5 16  1  0  0  0  0
  6  7  2  0  0  0  0
  7 17  1  0  0  0  0
  8 18  1  0  0  0  0
  8 21  1  0  0  0  0
  8 43  1  0  0  0  0
  9 19  1  0  0  0  0
  9 30  1  0  0  0  0
  9 31  1  0  0  0  0
 10 11  1  0  0  0  0
 10 12  1  0  0  0  0
 10 32  1  0  0  0  0
 11 13  1  0  0  0  0
 11 33  1  0  0  0  0
 12 14  1  0  0  0  0
 12 34  1  0  0  0  0
 13 15  1  0  0  0  0
 13 35  1  0  0  0  0
 14 36  1  0  0  0  0
 14 37  1  0  0  0  0
 15 38  1  0  0  0  0
 15 39  1  0  0  0  0
 16 17  2  0  0  0  0
 16 40  1  0  0  0  0
 17 19  1  0  0  0  0
 19 41  1  0  0  0  0
 19 42  1  0  0  0  0
 20 22  1  0  0  0  0
 20 23  1  0  0  0  0
 20 24  1  0  0  0  0
 20 25  1  0  0  0  0
 21 26  2  0  0  0  0
 21 27  1  0  0  0  0
 22 28  2  0  0  0  0
 22 29  1  0  0  0  0
 23 44  1  0  0  0  0
 23 45  1  0  0  0  0
 23 46  1  0  0  0  0
 24 47  1  0  0  0  0
 24 48  1  0  0  0  0
 24 49  1  0  0  0  0
 25 50  1  0  0  0  0
 25 51  1  0  0  0  0
 25 52  1  0  0  0  0
 26 28  1  0  0  0  0
 26 53  1  0  0  0  0
 27 29  2  0  0  0  0
 27 54  1  0  0  0  0
 28 55  1  0  0  0  0
 29 56  1  0  0  0  0
 30 57  1  0  0  0  0
 30 58  1  0  0  0  0
 30 59  1  0  0  0  0
 31 60  1  0  0  0  0
 31 61  1  0  0  0  0
 31 62  1  0  0  0  0
M  END
> <PUBCHEM_COMPOUND_CID>
11886639

> <PUBCHEM_CONFORMER_RMSD>
1

> <PUBCHEM_CONFORMER_DIVERSEORDER>
1
85
5
42
48
65
89
83
53
47
63
87
86
67
84
7
54
100
71
82
35
97
79
10
41
90
12
39
76
62
37
99
55
81
45
59
38
16
70
101
4
51
36
46
13
94
66
20
43
28
2
77
74
3
68
32
91
95
80
78
31
30
102
27
19
34
49
64
69
58
44
22
26
25
18
14
92
50
17
52
8
9
96
73
15
29
21
57
75
72
98
88
33
56
93
60
24
23
11
61
6
40

> <PUBCHEM_MMFF94_PARTIAL_CHARGES>
34
1 -0.56
10 0.28
11 0.28
12 0.26
13 0.28
14 0.28
15 0.28
16 -0.3
17 0.05
18 0.78
19 0.45
2 -0.56
20 0.14
21 0.12
22 -0.14
26 -0.15
27 -0.15
28 -0.15
29 -0.15
3 -0.43
30 0.27
31 0.27
4 -0.57
40 0.15
43 0.37
5 0.31
53 0.15
54 0.15
55 0.15
56 0.15
6 -0.42
7 -0.23
8 -0.55
9 -0.81

> <PUBCHEM_EFFECTIVE_ROTOR_COUNT>
9.2

> <PUBCHEM_PHARMACOPHORE_FEATURES>
10
1 1 acceptor
1 2 acceptor
1 4 acceptor
1 8 donor
1 9 cation
4 20 23 24 25 hydrophobe
5 1 10 11 12 14 rings
5 2 10 11 13 15 rings
5 5 6 7 16 17 rings
6 21 22 26 27 28 29 rings

> <PUBCHEM_HEAVY_ATOM_COUNT>
31

> <PUBCHEM_ATOM_DEF_STEREO_COUNT>
4

> <PUBCHEM_ATOM_UDEF_STEREO_COUNT>
0

> <PUBCHEM_BOND_DEF_STEREO_COUNT>
0

> <PUBCHEM_BOND_UDEF_STEREO_COUNT>
0

> <PUBCHEM_ISOTOPIC_ATOM_COUNT>
0

> <PUBCHEM_COMPONENT_COUNT>
1

> <PUBCHEM_CACTVS_TAUTO_COUNT>
2

> <PUBCHEM_CONFORMER_ID>
00B5602F00000001

> <PUBCHEM_MMFF94_ENERGY>
93.6179

> <PUBCHEM_FEATURE_SELFOVERLAP>
51.448

> <PUBCHEM_SHAPE_FINGERPRINT>
10049733 35 10447927257030630747
10055352 69 18273214210673210617
10280341 67 18270664438017210032
10411042 1 17614002219850998379
10533779 1 18337377284309898501
10625338 131 18409160044086348992
10675989 125 18337108948265673018
10835480 77 18412543249996751382
10930396 42 16443064990100555253
11273773 42 18341322345642163469
11421887 45 18340470223420104105
11475781 23 18342181077171687694
11476731 99 18058999718081406832
1200032 147 18259703376513229194
12013929 29 18264492957124579476
12522641 68 18273209790635411679
12539765 74 18201443519511853727
12895837 130 18341611568080694519
13165053 182 18199761404166254056
13248334 5 18049438137290794627
13540713 5 18189593022070015651
13690498 29 17416110918486857367
13782708 43 9007070058610554574
13885169 86 18335144180836336605
14150022 121 18042414689441182931
14359421 15 12607401062347481085
14394314 77 18409449168199866485
14556957 393 16056053466510912424
14747281 78 18198358277047086382
14931854 50 17846782897035509592
15152005 77 11169916087380352273
15183329 4 17203611479902851554
15188451 53 9079114457817982390
15198563 99 14476964437654258579
15406563 190 17386555848089683029
15519825 34 15575011610468329273
15685185 35 18412267242324108993
1577012 14 18411412891301906375
15803439 3 16917345943873167935
16126227 98 18409169909435797017
16992752 21 18200865297704553023
16993427 108 11602833406269696597
16994733 274 18335136514134928568
17899979 129 18200317615035795102
19302320 297 18040720273071441188
19304671 126 18201727206628375190
19438510 23 18113616785273684498
20105231 36 12179835080214625088
2026 5 10015589397600507965
20691028 202 18408040731994517628
20771845 65 17107921249896808643
21033648 29 18040161712178756026
21298829 104 18409448089661525468
21307412 95 12966834759499497557
21424621 283 18408040701797825859
21756936 100 18409162242861723135
22002106 203 10015583870826592884
23569914 152 17628372484880273342
24771293 8 18334857212770495933
25025965 108 10879448157578766260
270888 7 18408881819824620895
3014063 24 9439395835280165535
32027 91 9870877192701969799
38570 142 18342177709643397507
3918712 181 18337382751808398009
393628 194 18335983163689808765
397830 11 8502378789950227606
406291 66 9367339336654765549
4073 2 18187365484810765770
4403749 210 18113340796162343315
44802255 64 17561083656569568911
44880568 143 18268717280713137228
4516262 110 18336537211124798605
474113 269 8646480796618393505
4760202 70 10303516356720738026
563151 74 16588022377205228120
57527295 17 18271791462999800842
57634706 229 18334022708914299571
5776283 40 18342736330085643185
5874358 3 13973418877358267900
5937810 71 18131358530701280865
6201320 221 14116691809130647708
6328613 192 18342457040877552497
636775 72 18266454485409082272
636775 8 8646227978059088112
6698420 124 18334862675410038827
6712543 237 14418132881824562377
8863177 126 9151180853066904174
9689198 14 18411987923346399925
9980921 177 18188192223397330890

> <PUBCHEM_SHAPE_MULTIPOLES>
589.58
26.58
4.38
1.22
11.16
0.32
-0.14
35.75
-0.77
-4.91
1.02
-0.5
0.05
-1.05

> <PUBCHEM_SHAPE_SELFOVERLAP>
1256.056

> <PUBCHEM_SHAPE_VOLUME>
331.1

> <PUBCHEM_COORDINATE_TYPE>
2
5
10

$$$$
