25338204
  -OEChem-12032416193D

 50 53  0     1  0  0  0  0  0999 V2000
   -2.4992    0.9428    1.5978 O   0  0  0  0  0  0  0  0  0  0  0  0
   -3.9556    2.0478    0.1699 O   0  0  0  0  0  0  0  0  0  0  0  0
   -2.1574    1.9208   -2.0776 O   0  0  0  0  0  0  0  0  0  0  0  0
    1.7826    1.7598   -1.0249 O   0  0  0  0  0  0  0  0  0  0  0  0
   -2.2885   -1.2304   -0.2659 N   0  0  0  0  0  0  0  0  0  0  0  0
    0.2179    0.9706    0.4822 N   0  0  0  0  0  0  0  0  0  0  0  0
    2.3663    0.1836    0.6138 N   0  0  0  0  0  0  0  0  0  0  0  0
   -2.7839    0.0936   -0.6413 C   0  0  2  0  0  0  0  0  0  0  0  0
   -1.6184    0.9748   -1.1449 C   0  0  2  0  0  0  0  0  0  0  0  0
   -0.8981    1.7453   -0.0166 C   0  0  1  0  0  0  0  0  0  0  0  0
   -3.4767    0.7518    0.5660 C   0  0  1  0  0  0  0  0  0  0  0  0
   -1.8321    2.1271    1.1503 C   0  0  1  0  0  0  0  0  0  0  0  0
   -3.0210    2.9761    0.7414 C   0  0  0  0  0  0  0  0  0  0  0  0
   -2.0896   -2.0627   -1.4608 C   0  0  0  0  0  0  0  0  0  0  0  0
   -3.2087   -1.8738    0.6824 C   0  0  0  0  0  0  0  0  0  0  0  0
   -1.5247   -3.4348   -1.0899 C   0  0  0  0  0  0  0  0  0  0  0  0
   -2.6807   -3.2397    1.1232 C   0  0  0  0  0  0  0  0  0  0  0  0
   -2.4134   -4.1442   -0.0746 C   0  0  0  0  0  0  0  0  0  0  0  0
    1.4987    1.0387   -0.0714 C   0  0  0  0  0  0  0  0  0  0  0  0
    3.7412   -0.0383    0.3665 C   0  0  0  0  0  0  0  0  0  0  0  0
    4.4552   -0.9376    1.1586 C   0  0  0  0  0  0  0  0  0  0  0  0
    4.3832    0.6413   -0.6685 C   0  0  0  0  0  0  0  0  0  0  0  0
    5.8112   -1.1571    0.9156 C   0  0  0  0  0  0  0  0  0  0  0  0
    5.7390    0.4218   -0.9118 C   0  0  0  0  0  0  0  0  0  0  0  0
    6.4529   -0.4774   -0.1195 C   0  0  0  0  0  0  0  0  0  0  0  0
   -3.5413    0.0141   -1.4347 H   0  0  0  0  0  0  0  0  0  0  0  0
   -0.8940    0.3978   -1.7281 H   0  0  0  0  0  0  0  0  0  0  0  0
   -0.4857    2.6770   -0.4251 H   0  0  0  0  0  0  0  0  0  0  0  0
   -4.3561    0.2257    0.9460 H   0  0  0  0  0  0  0  0  0  0  0  0
   -1.2694    2.5773    1.9746 H   0  0  0  0  0  0  0  0  0  0  0  0
   -3.5054    3.4194    1.6180 H   0  0  0  0  0  0  0  0  0  0  0  0
   -2.7802    3.7696    0.0290 H   0  0  0  0  0  0  0  0  0  0  0  0
   -1.3856   -1.5995   -2.1593 H   0  0  0  0  0  0  0  0  0  0  0  0
   -3.0355   -2.1977   -2.0024 H   0  0  0  0  0  0  0  0  0  0  0  0
   -4.2113   -1.9932    0.2505 H   0  0  0  0  0  0  0  0  0  0  0  0
   -3.2941   -1.3391    1.6322 H   0  0  0  0  0  0  0  0  0  0  0  0
   -0.5159   -3.3164   -0.6740 H   0  0  0  0  0  0  0  0  0  0  0  0
   -1.4289   -4.0519   -1.9905 H   0  0  0  0  0  0  0  0  0  0  0  0
   -3.4037   -3.7200    1.7926 H   0  0  0  0  0  0  0  0  0  0  0  0
   -1.7526   -3.1098    1.6951 H   0  0  0  0  0  0  0  0  0  0  0  0
   -3.3651   -4.4159   -0.5476 H   0  0  0  0  0  0  0  0  0  0  0  0
   -1.9395   -5.0752    0.2549 H   0  0  0  0  0  0  0  0  0  0  0  0
    0.0422    0.2917    1.2166 H   0  0  0  0  0  0  0  0  0  0  0  0
   -1.4142    2.4331   -2.4391 H   0  0  0  0  0  0  0  0  0  0  0  0
    1.9696   -0.3470    1.3853 H   0  0  0  0  0  0  0  0  0  0  0  0
    3.9671   -1.4738    1.9684 H   0  0  0  0  0  0  0  0  0  0  0  0
    3.8989    1.3516   -1.3234 H   0  0  0  0  0  0  0  0  0  0  0  0
    6.3672   -1.8571    1.5323 H   0  0  0  0  0  0  0  0  0  0  0  0
    6.2402    0.9504   -1.7176 H   0  0  0  0  0  0  0  0  0  0  0  0
    7.5087   -0.6482   -0.3089 H   0  0  0  0  0  0  0  0  0  0  0  0
  1 11  1  0  0  0  0
  1 12  1  0  0  0  0
  2 11  1  0  0  0  0
  2 13  1  0  0  0  0
  3  9  1  0  0  0  0
  3 44  1  0  0  0  0
  4 19  2  0  0  0  0
  5  8  1  0  0  0  0
  5 14  1  0  0  0  0
  5 15  1  0  0  0  0
  6 10  1  0  0  0  0
  6 19  1  0  0  0  0
  6 43  1  0  0  0  0
  7 19  1  0  0  0  0
  7 20  1  0  0  0  0
  7 45  1  0  0  0  0
  8  9  1  0  0  0  0
  8 11  1  0  0  0  0
  8 26  1  0  0  0  0
  9 10  1  0  0  0  0
  9 27  1  0  0  0  0
 10 12  1  0  0  0  0
 10 28  1  0  0  0  0
 11 29  1  0  0  0  0
 12 13  1  0  0  0  0
 12 30  1  0  0  0  0
 13 31  1  0  0  0  0
 13 32  1  0  0  0  0
 14 16  1  0  0  0  0
 14 33  1  0  0  0  0
 14 34  1  0  0  0  0
 15 17  1  0  0  0  0
 15 35  1  0  0  0  0
 15 36  1  0  0  0  0
 16 18  1  0  0  0  0
 16 37  1  0  0  0  0
 16 38  1  0  0  0  0
 17 18  1  0  0  0  0
 17 39  1  0  0  0  0
 17 40  1  0  0  0  0
 18 41  1  0  0  0  0
 18 42  1  0  0  0  0
 20 21  2  0  0  0  0
 20 22  1  0  0  0  0
 21 23  1  0  0  0  0
 21 46  1  0  0  0  0
 22 24  2  0  0  0  0
 22 47  1  0  0  0  0
 23 25  2  0  0  0  0
 23 48  1  0  0  0  0
 24 25  1  0  0  0  0
 24 49  1  0  0  0  0
 25 50  1  0  0  0  0
M  END
> <PUBCHEM_COMPOUND_CID>
25338204

> <PUBCHEM_CONFORMER_RMSD>
0.8

> <PUBCHEM_CONFORMER_DIVERSEORDER>
1
31
9
21
26
25
12
22
29
11
18
17
3
27
28
24
8
16
13
19
10
20
14
23
6
30
5
7
15
2
4

> <PUBCHEM_MMFF94_PARTIAL_CHARGES>
30
1 -0.56
10 0.3
11 0.56
12 0.28
13 0.28
14 0.27
15 0.27
19 0.69
2 -0.56
20 0.12
21 -0.15
22 -0.15
23 -0.15
24 -0.15
25 -0.15
3 -0.68
4 -0.57
43 0.37
44 0.4
45 0.37
46 0.15
47 0.15
48 0.15
49 0.15
5 -0.81
50 0.15
6 -0.73
7 -0.55
8 0.27
9 0.28

> <PUBCHEM_EFFECTIVE_ROTOR_COUNT>
7.4

> <PUBCHEM_PHARMACOPHORE_FEATURES>
11
1 1 acceptor
1 2 acceptor
1 3 acceptor
1 3 donor
1 4 acceptor
1 5 cation
1 6 donor
1 7 donor
6 20 21 22 23 24 25 rings
6 5 14 15 16 17 18 rings
8 1 2 8 9 10 11 12 13 rings

> <PUBCHEM_HEAVY_ATOM_COUNT>
25

> <PUBCHEM_ATOM_DEF_STEREO_COUNT>
5

> <PUBCHEM_ATOM_UDEF_STEREO_COUNT>
0

> <PUBCHEM_BOND_DEF_STEREO_COUNT>
0

> <PUBCHEM_BOND_UDEF_STEREO_COUNT>
0

> <PUBCHEM_ISOTOPIC_ATOM_COUNT>
0

> <PUBCHEM_COMPONENT_COUNT>
1

> <PUBCHEM_CACTVS_TAUTO_COUNT>
3

> <PUBCHEM_CONFORMER_ID>
0182A15C00000001

> <PUBCHEM_MMFF94_ENERGY>
67.5169

> <PUBCHEM_FEATURE_SELFOVERLAP>
55.923

> <PUBCHEM_SHAPE_FINGERPRINT>
10483366 6 18129642206942773935
10616163 171 18411983576718677294
107951 10 18129104429027159309
11045977 3 17774993584293604008
11315181 36 17060332999117998736
11315621 246 18335995207574029102
11524674 6 18060419080006640071
11552529 35 18340482365581423070
12523318 42 18272078414401789850
12616971 3 17676488320581476216
12633257 1 17416144977508331579
12760667 363 18340767164942292911
12969540 37 17114097227708932591
13167823 11 18407761439478098928
13631057 29 18265050426445587426
13726171 33 17840622432438840612
14251757 5 18413109463566122714
14844126 61 18342452690012599243
14866123 147 18340770438082081315
15042514 8 18340210803652969243
15250474 111 18334285462592946394
15484559 13 14862252871329101116
15537594 2 17968381144090095650
15788980 27 17530964645067502628
17780758 139 18342452639042138704
20511986 3 18114170909665501904
20554085 129 17699833043661557817
20775530 9 18047465909418680835
21133410 38 14736791602310179810
23419403 2 11884805400959924269
23466295 7 18189621716482067907
235170 7 13695866996331110242
23559900 14 18269546298799623569
23598288 3 18270688700212774021
23728640 28 18413670206054261379
3268164 11 11818998491285147240
3383291 50 18271801350457504391
4015057 19 16915918777669667680
4073 2 18344145883202708914
469060 322 13768503023147026667
484985 159 18409441518546321879
4921388 177 18413673508767794372
497634 4 18187367666062750052
508706 21 18202008733050371958
5104073 3 18342736347650049480
531348 171 17605264095963992746
5364581 5 17986371490809536384
5385378 56 17766567846270311641
5486654 36 18336271239988346808
559249 180 18337105679130071320
58260988 587 17394430422362425085
602551 16 18273493473282593442
9981440 41 17131274545555479181

> <PUBCHEM_SHAPE_MULTIPOLES>
476.07
11.78
4.03
1.4
25.1
3.46
0.23
1.91
-1.1
-6.71
-0.08
-0.47
-0.05
-0.98

> <PUBCHEM_SHAPE_SELFOVERLAP>
1016.099

> <PUBCHEM_SHAPE_VOLUME>
259.9

> <PUBCHEM_COORDINATE_TYPE>
2
5
10

$$$$
