51137004
  -OEChem-12032416143D

 41 44  0     1  0  0  0  0  0999 V2000
    3.1827    0.9820    2.2181 O   0  0  0  0  0  0  0  0  0  0  0  0
    1.8015    1.3901    0.3961 N   0  0  0  0  0  0  0  0  0  0  0  0
   -2.5299    1.2045   -1.0824 N   0  0  0  0  0  0  0  0  0  0  0  0
   -1.2763   -0.0847    0.2239 N   0  0  0  0  0  0  0  0  0  0  0  0
    4.9415   -2.3023   -1.0478 N   0  0  0  0  0  0  0  0  0  0  0  0
   -0.0810    1.7806   -1.0065 C   0  0  1  0  0  0  0  0  0  0  0  0
    0.1195    2.9789   -0.0657 C   0  0  0  0  0  0  0  0  0  0  0  0
    1.2910    1.0946   -0.9436 C   0  0  0  0  0  0  0  0  0  0  0  0
    1.0149    2.4320    1.0377 C   0  0  0  0  0  0  0  0  0  0  0  0
   -1.2791    0.9413   -0.5973 C   0  0  0  0  0  0  0  0  0  0  0  0
    2.8345    0.7492    1.0623 C   0  0  0  0  0  0  0  0  0  0  0  0
   -3.3916    0.2872   -0.5380 C   0  0  0  0  0  0  0  0  0  0  0  0
   -2.5853   -0.5059    0.2734 C   0  0  0  0  0  0  0  0  0  0  0  0
    3.5625   -0.3026    0.3356 C   0  0  0  0  0  0  0  0  0  0  0  0
   -4.7653    0.0893   -0.6815 C   0  0  0  0  0  0  0  0  0  0  0  0
   -3.1670   -1.5641    0.9921 C   0  0  0  0  0  0  0  0  0  0  0  0
   -5.3277   -0.9683    0.0409 C   0  0  0  0  0  0  0  0  0  0  0  0
   -4.5445   -1.7815    0.8635 C   0  0  0  0  0  0  0  0  0  0  0  0
    4.2292   -0.0007   -0.8467 C   0  0  0  0  0  0  0  0  0  0  0  0
    3.5844   -1.6033    0.8269 C   0  0  0  0  0  0  0  0  0  0  0  0
   -6.7937   -1.2316   -0.0709 C   0  0  0  0  0  0  0  0  0  0  0  0
    4.8979   -1.0269   -1.4944 C   0  0  0  0  0  0  0  0  0  0  0  0
    4.2819   -2.5578    0.1043 C   0  0  0  0  0  0  0  0  0  0  0  0
   -0.2630    2.1283   -2.0316 H   0  0  0  0  0  0  0  0  0  0  0  0
    0.6540    3.7729   -0.6029 H   0  0  0  0  0  0  0  0  0  0  0  0
   -0.8089    3.4048    0.3272 H   0  0  0  0  0  0  0  0  0  0  0  0
    1.9744    1.5572   -1.6639 H   0  0  0  0  0  0  0  0  0  0  0  0
    1.2481    0.0162   -1.1227 H   0  0  0  0  0  0  0  0  0  0  0  0
    1.6687    3.1923    1.4755 H   0  0  0  0  0  0  0  0  0  0  0  0
    0.4312    1.9675    1.8402 H   0  0  0  0  0  0  0  0  0  0  0  0
   -2.7783    1.9437   -1.7266 H   0  0  0  0  0  0  0  0  0  0  0  0
   -5.3619    0.7294   -1.3223 H   0  0  0  0  0  0  0  0  0  0  0  0
   -2.5670   -2.2011    1.6340 H   0  0  0  0  0  0  0  0  0  0  0  0
   -4.9990   -2.5984    1.4195 H   0  0  0  0  0  0  0  0  0  0  0  0
    4.2541    1.0048   -1.2526 H   0  0  0  0  0  0  0  0  0  0  0  0
    3.0729   -1.8742    1.7444 H   0  0  0  0  0  0  0  0  0  0  0  0
   -7.0049   -2.3050   -0.0170 H   0  0  0  0  0  0  0  0  0  0  0  0
   -7.1904   -0.8752   -1.0277 H   0  0  0  0  0  0  0  0  0  0  0  0
   -7.3285   -0.7254    0.7389 H   0  0  0  0  0  0  0  0  0  0  0  0
    5.4378   -0.8424   -2.4173 H   0  0  0  0  0  0  0  0  0  0  0  0
    4.3289   -3.5870    0.4445 H   0  0  0  0  0  0  0  0  0  0  0  0
  1 11  2  0  0  0  0
  2  8  1  0  0  0  0
  2  9  1  0  0  0  0
  2 11  1  0  0  0  0
  3 10  1  0  0  0  0
  3 12  1  0  0  0  0
  3 31  1  0  0  0  0
  4 10  2  0  0  0  0
  4 13  1  0  0  0  0
  5 22  2  0  0  0  0
  5 23  1  0  0  0  0
  6  7  1  0  0  0  0
  6  8  1  0  0  0  0
  6 10  1  0  0  0  0
  6 24  1  0  0  0  0
  7  9  1  0  0  0  0
  7 25  1  0  0  0  0
  7 26  1  0  0  0  0
  8 27  1  0  0  0  0
  8 28  1  0  0  0  0
  9 29  1  0  0  0  0
  9 30  1  0  0  0  0
 11 14  1  0  0  0  0
 12 13  2  0  0  0  0
 12 15  1  0  0  0  0
 13 16  1  0  0  0  0
 14 19  2  0  0  0  0
 14 20  1  0  0  0  0
 15 17  2  0  0  0  0
 15 32  1  0  0  0  0
 16 18  2  0  0  0  0
 16 33  1  0  0  0  0
 17 18  1  0  0  0  0
 17 21  1  0  0  0  0
 18 34  1  0  0  0  0
 19 22  1  0  0  0  0
 19 35  1  0  0  0  0
 20 23  2  0  0  0  0
 20 36  1  0  0  0  0
 21 37  1  0  0  0  0
 21 38  1  0  0  0  0
 21 39  1  0  0  0  0
 22 40  1  0  0  0  0
 23 41  1  0  0  0  0
M  END
> <PUBCHEM_COMPOUND_CID>
51137004

> <PUBCHEM_CONFORMER_RMSD>
0.6

> <PUBCHEM_CONFORMER_DIVERSEORDER>
1
64
32
62
60
42
44
43
30
69
59
47
49
40
65
67
55
39
66
16
50
20
27
68
58
54
31
56
63
13
61
25
57
41
14
26
21
37
36
70
22
34
28
35
48
45
38
10
6
52
23
19
46
7
9
18
3
53
51
33
24
17
8
12
15
29
2
11
4
5

> <PUBCHEM_MMFF94_PARTIAL_CHARGES>
30
1 -0.57
10 0.01
11 0.54
12 -0.15
13 0.23
14 0.09
15 -0.15
16 -0.15
17 -0.14
18 -0.15
19 -0.15
2 -0.66
20 -0.15
21 0.14
22 0.16
23 0.16
3 0.03
31 0.27
32 0.15
33 0.15
34 0.15
35 0.15
36 0.15
4 -0.57
40 0.15
41 0.15
5 -0.62
6 0.18
8 0.3
9 0.3

> <PUBCHEM_EFFECTIVE_ROTOR_COUNT>
4

> <PUBCHEM_PHARMACOPHORE_FEATURES>
8
1 1 acceptor
1 3 donor
1 5 acceptor
3 3 4 10 cation
5 2 6 7 8 9 rings
5 3 4 10 12 13 rings
6 12 13 15 16 17 18 rings
6 5 14 19 20 22 23 rings

> <PUBCHEM_HEAVY_ATOM_COUNT>
23

> <PUBCHEM_ATOM_DEF_STEREO_COUNT>
1

> <PUBCHEM_ATOM_UDEF_STEREO_COUNT>
0

> <PUBCHEM_BOND_DEF_STEREO_COUNT>
0

> <PUBCHEM_BOND_UDEF_STEREO_COUNT>
0

> <PUBCHEM_ISOTOPIC_ATOM_COUNT>
0

> <PUBCHEM_COMPONENT_COUNT>
1

> <PUBCHEM_CACTVS_TAUTO_COUNT>
2

> <PUBCHEM_CONFORMER_ID>
030C49EC00000001

> <PUBCHEM_MMFF94_ENERGY>
56.7795

> <PUBCHEM_FEATURE_SELFOVERLAP>
40.704

> <PUBCHEM_SHAPE_FINGERPRINT>
10319926 262 12751521790550697060
10928967 22 18412824655605944526
11211813 74 9510921245382212379
114674 6 18335975458760871362
11796584 16 17749666389560584899
11991303 11 17827925023143020333
12403259 118 11023524896763508636
12516196 113 18413389847499885684
12596602 18 16343413024609908978
12633257 1 16487251075884213398
12760667 363 18340208466721391654
12892183 10 17917422159491136745
13103583 49 17845952744149411139
13402501 40 18409451371074711110
13533116 47 18272369836617781257
13631057 29 18337115541272132566
13673619 4 17988370278351985036
13685833 64 18411139142760436035
13757389 114 16242949822747697765
13911852 28 18342456993680508711
13914758 101 17561082463597034721
13955234 65 18198344163573645640
14211702 104 18124875914099198543
14251740 57 18341331209837977107
14251764 30 17774454771977512014
14386348 63 18409162221101432874
14528608 73 8790890687890351113
14617045 38 18186525405886279947
14790565 3 17397539806400843821
14866123 147 18051411760793599025
15142526 21 16051781988232954712
15342816 4 17385992975719147408
15352361 1 18335702723720659110
15537594 2 18272934955398006934
15664445 248 17386009537255693580
17349148 13 17060059280793708629
173720 79 14261350263197601477
17804303 29 18259981604748117837
17909252 39 18266173942662049050
1813 80 18059588974640131556
18222031 100 18412825802266467959
193927 3 18333736827221625217
20388580 30 18187373142304626316
20397935 70 18130507534845426519
20403669 9 18410294687739458215
20645477 70 18188205528230333077
21150785 3 12540695968707552867
21279426 13 18261944173153737461
21682296 61 18342462521878470463
221357 26 18334858311817892883
2215653 11 18334851728144640319
22950370 63 18337680728043516068
23016692 55 18334020488268059559
23559900 14 18114464582301581077
239999 70 18114741650684368664
2838139 119 8790593772369314386
3004659 81 17821446837991248658
314173 41 18186799222603732489
329604 57 18336271150569753294
3421961 26 18340766035096712888
345986 75 17632576007252061978
3472631 163 9007050253783110003
3737641 26 18056493763640633838
38570 142 14619650411238488970
437815 12 18342460322316598897
46194498 28 17386291007462222077
463206 1 18409166653355591339
465052 167 18202286892180012798
5104073 3 18130783413179096864
5309563 4 18342458093097223318
59755656 215 18040985225672213895
6823239 73 18334855047785056330
960060 61 16732982028797413626

> <PUBCHEM_SHAPE_MULTIPOLES>
447.54
13.4
2.74
1.34
9.57
0.45
-0.24
-10.94
1.58
-1.83
-0.21
-1.27
0.16
1.6

> <PUBCHEM_SHAPE_SELFOVERLAP>
987.667

> <PUBCHEM_SHAPE_VOLUME>
240.2

> <PUBCHEM_COORDINATE_TYPE>
2
5
10

$$$$
