40780656
  -OEChem-12032416213D

 64 66  0     1  0  0  0  0  0999 V2000
   -3.4443   -0.8639   -0.7333 O   0  0  0  0  0  0  0  0  0  0  0  0
   -6.1034   -0.7309    0.7384 O   0  0  0  0  0  0  0  0  0  0  0  0
   -5.7981    1.8095   -0.2721 O   0  0  0  0  0  0  0  0  0  0  0  0
   -1.6900   -2.9378    0.8289 O   0  0  0  0  0  0  0  0  0  0  0  0
   -0.8388   -0.3052   -2.1059 O   0  0  0  0  0  0  0  0  0  0  0  0
    4.5139   -1.8689   -2.0166 O   0  0  0  0  0  0  0  0  0  0  0  0
   -2.1725    1.5231   -1.5939 N   0  0  0  0  0  0  0  0  0  0  0  0
   -0.3002   -1.5688    2.0918 N   0  0  0  0  0  0  0  0  0  0  0  0
    3.4017    3.1837    1.1344 N   0  0  0  0  0  0  0  0  0  0  0  0
   -4.8685   -0.0637    0.9958 C   0  0  2  0  0  0  0  0  0  0  0  0
   -4.6438    1.0368   -0.0204 C   0  0  1  0  0  0  0  0  0  0  0  0
   -3.7332   -1.0294    0.6739 C   0  0  2  0  0  0  0  0  0  0  0  0
   -4.2128    0.2411   -1.2410 C   0  0  1  0  0  0  0  0  0  0  0  0
   -2.4577   -0.7297    1.4497 C   0  0  0  0  0  0  0  0  0  0  0  0
   -3.3709    1.0439   -2.2165 C   0  0  0  0  0  0  0  0  0  0  0  0
   -1.4656   -1.8771    1.4055 C   0  0  0  0  0  0  0  0  0  0  0  0
   -0.9831    0.7992   -1.5880 C   0  0  0  0  0  0  0  0  0  0  0  0
    0.8118   -2.4839    2.2097 C   0  0  0  0  0  0  0  0  0  0  0  0
    0.1626    1.4228   -0.8772 C   0  0  0  0  0  0  0  0  0  0  0  0
    1.7951   -2.3211    1.0869 C   0  0  0  0  0  0  0  0  0  0  0  0
    1.4692    1.1156   -1.2567 C   0  0  0  0  0  0  0  0  0  0  0  0
   -0.0681    2.3147    0.1702 C   0  0  0  0  0  0  0  0  0  0  0  0
    1.4946   -2.8176   -0.1816 C   0  0  0  0  0  0  0  0  0  0  0  0
    3.0093   -1.6726    1.3123 C   0  0  0  0  0  0  0  0  0  0  0  0
    2.5452    1.7001   -0.5888 C   0  0  0  0  0  0  0  0  0  0  0  0
    1.0079    2.8992    0.8382 C   0  0  0  0  0  0  0  0  0  0  0  0
    2.3145    2.5920    0.4588 C   0  0  0  0  0  0  0  0  0  0  0  0
    2.4084   -2.6659   -1.2245 C   0  0  0  0  0  0  0  0  0  0  0  0
    3.9231   -1.5209    0.2695 C   0  0  0  0  0  0  0  0  0  0  0  0
    3.6227   -2.0176   -0.9988 C   0  0  0  0  0  0  0  0  0  0  0  0
    4.7635    2.8720    0.7484 C   0  0  0  0  0  0  0  0  0  0  0  0
    3.1716    4.1174    2.2192 C   0  0  0  0  0  0  0  0  0  0  0  0
    5.7359   -1.1961   -1.7163 C   0  0  0  0  0  0  0  0  0  0  0  0
   -4.8918    0.2957    2.0284 H   0  0  0  0  0  0  0  0  0  0  0  0
   -3.8509    1.7021    0.3385 H   0  0  0  0  0  0  0  0  0  0  0  0
   -4.0475   -2.0686    0.8226 H   0  0  0  0  0  0  0  0  0  0  0  0
   -5.0821   -0.1643   -1.7737 H   0  0  0  0  0  0  0  0  0  0  0  0
   -2.6983   -0.5646    2.5072 H   0  0  0  0  0  0  0  0  0  0  0  0
   -1.9621    0.1672    1.0700 H   0  0  0  0  0  0  0  0  0  0  0  0
   -3.9253    1.9105   -2.5906 H   0  0  0  0  0  0  0  0  0  0  0  0
   -3.0921    0.4172   -3.0709 H   0  0  0  0  0  0  0  0  0  0  0  0
   -6.1896   -1.4453    1.3926 H   0  0  0  0  0  0  0  0  0  0  0  0
   -6.0877    2.1863    0.5762 H   0  0  0  0  0  0  0  0  0  0  0  0
   -2.2063    2.4547   -1.1938 H   0  0  0  0  0  0  0  0  0  0  0  0
   -0.2041   -0.6516    2.5184 H   0  0  0  0  0  0  0  0  0  0  0  0
    0.4387   -3.5148    2.2300 H   0  0  0  0  0  0  0  0  0  0  0  0
    1.2858   -2.2944    3.1791 H   0  0  0  0  0  0  0  0  0  0  0  0
    1.6672    0.4312   -2.0772 H   0  0  0  0  0  0  0  0  0  0  0  0
   -1.0686    2.5579    0.5151 H   0  0  0  0  0  0  0  0  0  0  0  0
    0.5611   -3.3361   -0.3755 H   0  0  0  0  0  0  0  0  0  0  0  0
    3.2541   -1.2777    2.2948 H   0  0  0  0  0  0  0  0  0  0  0  0
    3.5422    1.4364   -0.9263 H   0  0  0  0  0  0  0  0  0  0  0  0
    0.7764    3.5810    1.6506 H   0  0  0  0  0  0  0  0  0  0  0  0
    2.1696   -3.0561   -2.2100 H   0  0  0  0  0  0  0  0  0  0  0  0
    4.8459   -1.0057    0.5135 H   0  0  0  0  0  0  0  0  0  0  0  0
    5.4926    3.4063    1.3678 H   0  0  0  0  0  0  0  0  0  0  0  0
    4.9588    3.1683   -0.2882 H   0  0  0  0  0  0  0  0  0  0  0  0
    4.9751    1.8040    0.8709 H   0  0  0  0  0  0  0  0  0  0  0  0
    4.1126    4.4914    2.6378 H   0  0  0  0  0  0  0  0  0  0  0  0
    2.6322    3.6397    3.0447 H   0  0  0  0  0  0  0  0  0  0  0  0
    2.6137    4.9952    1.8745 H   0  0  0  0  0  0  0  0  0  0  0  0
    6.3244   -1.1677   -2.6392 H   0  0  0  0  0  0  0  0  0  0  0  0
    6.3272   -1.7469   -0.9770 H   0  0  0  0  0  0  0  0  0  0  0  0
    5.5614   -0.1573   -1.4169 H   0  0  0  0  0  0  0  0  0  0  0  0
  1 12  1  0  0  0  0
  1 13  1  0  0  0  0
  2 10  1  0  0  0  0
  2 42  1  0  0  0  0
  3 11  1  0  0  0  0
  3 43  1  0  0  0  0
  4 16  2  0  0  0  0
  5 17  2  0  0  0  0
  6 30  1  0  0  0  0
  6 33  1  0  0  0  0
  7 15  1  0  0  0  0
  7 17  1  0  0  0  0
  7 44  1  0  0  0  0
  8 16  1  0  0  0  0
  8 18  1  0  0  0  0
  8 45  1  0  0  0  0
  9 27  1  0  0  0  0
  9 31  1  0  0  0  0
  9 32  1  0  0  0  0
 10 11  1  0  0  0  0
 10 12  1  0  0  0  0
 10 34  1  0  0  0  0
 11 13  1  0  0  0  0
 11 35  1  0  0  0  0
 12 14  1  0  0  0  0
 12 36  1  0  0  0  0
 13 15  1  0  0  0  0
 13 37  1  0  0  0  0
 14 16  1  0  0  0  0
 14 38  1  0  0  0  0
 14 39  1  0  0  0  0
 15 40  1  0  0  0  0
 15 41  1  0  0  0  0
 17 19  1  0  0  0  0
 18 20  1  0  0  0  0
 18 46  1  0  0  0  0
 18 47  1  0  0  0  0
 19 21  2  0  0  0  0
 19 22  1  0  0  0  0
 20 23  2  0  0  0  0
 20 24  1  0  0  0  0
 21 25  1  0  0  0  0
 21 48  1  0  0  0  0
 22 26  2  0  0  0  0
 22 49  1  0  0  0  0
 23 28  1  0  0  0  0
 23 50  1  0  0  0  0
 24 29  2  0  0  0  0
 24 51  1  0  0  0  0
 25 27  2  0  0  0  0
 25 52  1  0  0  0  0
 26 27  1  0  0  0  0
 26 53  1  0  0  0  0
 28 30  2  0  0  0  0
 28 54  1  0  0  0  0
 29 30  1  0  0  0  0
 29 55  1  0  0  0  0
 31 56  1  0  0  0  0
 31 57  1  0  0  0  0
 31 58  1  0  0  0  0
 32 59  1  0  0  0  0
 32 60  1  0  0  0  0
 32 61  1  0  0  0  0
 33 62  1  0  0  0  0
 33 63  1  0  0  0  0
 33 64  1  0  0  0  0
M  END
> <PUBCHEM_COMPOUND_CID>
40780656

> <PUBCHEM_CONFORMER_RMSD>
1.2

> <PUBCHEM_CONFORMER_DIVERSEORDER>
2
17
11
89
108
65
59
54
9
55
115
104
84
43
101
18
76
26
105
34
70
36
102
69
45
82
98
5
30
35
95
13
47
92
3
100
107
63
51
56
77
80
78
106
66
27
72
99
71
1
28
58
19
4
12
23
42
49
87
7
97
52
79
86
39
44
111
50
90
32
67
93
83
21
24
109
116
29
41
33
103
37
25
38
85
53
81
64
62
74
57
88
61
40
48
110
22
94
31
60
15
68
113
112
96
14
75
6
16
20
91
8
10
73
46
114

> <PUBCHEM_MMFF94_PARTIAL_CHARGES>
45
1 -0.56
10 0.28
11 0.28
12 0.28
13 0.28
14 0.06
15 0.3
16 0.57
17 0.54
18 0.44
19 0.09
2 -0.68
20 -0.14
21 -0.15
22 -0.15
23 -0.15
24 -0.15
25 -0.15
26 -0.15
27 0.1
28 -0.15
29 -0.15
3 -0.68
30 0.08
31 0.37
32 0.37
33 0.28
4 -0.57
42 0.4
43 0.4
44 0.37
45 0.37
48 0.15
49 0.15
5 -0.57
50 0.15
51 0.15
52 0.15
53 0.15
54 0.15
55 0.15
6 -0.36
7 -0.73
8 -0.73
9 -0.84

> <PUBCHEM_EFFECTIVE_ROTOR_COUNT>
12

> <PUBCHEM_PHARMACOPHORE_FEATURES>
14
1 1 acceptor
1 2 acceptor
1 2 donor
1 3 acceptor
1 3 donor
1 4 acceptor
1 5 acceptor
1 6 acceptor
1 7 donor
1 8 donor
1 9 cation
5 1 10 11 12 13 rings
6 19 21 22 25 26 27 rings
6 20 23 24 28 29 30 rings

> <PUBCHEM_HEAVY_ATOM_COUNT>
33

> <PUBCHEM_ATOM_DEF_STEREO_COUNT>
4

> <PUBCHEM_ATOM_UDEF_STEREO_COUNT>
0

> <PUBCHEM_BOND_DEF_STEREO_COUNT>
0

> <PUBCHEM_BOND_UDEF_STEREO_COUNT>
0

> <PUBCHEM_ISOTOPIC_ATOM_COUNT>
0

> <PUBCHEM_COMPONENT_COUNT>
1

> <PUBCHEM_CACTVS_TAUTO_COUNT>
4

> <PUBCHEM_CONFORMER_ID>
026E437000000002

> <PUBCHEM_MMFF94_ENERGY>
102.3822

> <PUBCHEM_FEATURE_SELFOVERLAP>
71.062

> <PUBCHEM_SHAPE_FINGERPRINT>
10675989 125 15667273447673484724
11112241 14 18127964411347037048
12128747 34 18264486179412589117
12156800 1 14764085406278079576
12422481 6 17825356765669301920
12522641 24 18412553098689038865
12597179 24 18264196088440961504
12788726 201 18050007692649488072
13165053 68 17914332631582736495
13402501 40 18187091654200283758
13617811 41 17023180492820517349
13726171 33 15936700263444307589
14787075 74 18187937114249286862
14790565 3 16670204043017187653
14932702 115 17681311950806378470
15721738 202 17916011559393339767
20642791 35 18337389344767027817
20691752 17 16877937282696829083
20764821 26 17750216127799198426
22182313 1 17749656446880067245
22223350 30 17603588547006276042
23559900 14 18260271845399795141
238918 7 18120649399563596378
35225 105 17118059846039990692
4112364 45 18057065531805454025
437795 51 18411427232577678708
469060 322 15940683802646089714
508706 21 17823422771644308955
56638632 33 15724702189652875369

> <PUBCHEM_SHAPE_MULTIPOLES>
628.97
10.93
4.53
2.25
7.67
2.06
0.13
0.88
1.56
-5.97
-2.16
-0.58
-0.23
3.31

> <PUBCHEM_SHAPE_SELFOVERLAP>
1326.343

> <PUBCHEM_SHAPE_VOLUME>
353.7

> <PUBCHEM_COORDINATE_TYPE>
2
5
10

$$$$
