45783680
  -OEChem-12032416203D

 53 57  0     1  0  0  0  0  0999 V2000
   -2.0582   -1.8274    1.9512 O   0  0  0  0  0  0  0  0  0  0  0  0
   -2.3107    1.3185   -2.2449 O   0  0  0  0  0  0  0  0  0  0  0  0
    0.3830    3.6324    0.9338 O   0  0  0  0  0  0  0  0  0  0  0  0
   -4.1061   -0.5111   -0.8017 N   0  0  1  0  0  0  0  0  0  0  0  0
   -1.2920   -1.1574   -0.0440 N   0  0  0  0  0  0  0  0  0  0  0  0
   -0.6655   -1.7464    2.0760 N   0  0  0  0  0  0  0  0  0  0  0  0
    3.4115   -1.1252    1.1808 N   0  0  0  0  0  0  0  0  0  0  0  0
    5.0606   -0.5153   -0.3708 N   0  0  0  0  0  0  0  0  0  0  0  0
    7.2618   -0.4079   -0.0969 N   0  0  0  0  0  0  0  0  0  0  0  0
   -3.8056   -1.4699    0.2803 C   0  0  1  0  0  0  0  0  0  0  0  0
   -4.2700   -2.8331   -0.2649 C   0  0  0  0  0  0  0  0  0  0  0  0
   -4.8717   -2.5314   -1.6301 C   0  0  0  0  0  0  0  0  0  0  0  0
   -5.2409   -1.0644   -1.5409 C   0  0  0  0  0  0  0  0  0  0  0  0
   -4.3725    0.8371   -0.3170 C   0  0  0  0  0  0  0  0  0  0  0  0
   -2.3431   -1.4649    0.6731 C   0  0  0  0  0  0  0  0  0  0  0  0
   -3.1021    1.5793    0.0026 C   0  0  0  0  0  0  0  0  0  0  0  0
   -2.1309    1.7852   -0.9775 C   0  0  0  0  0  0  0  0  0  0  0  0
   -2.9019    2.0634    1.2954 C   0  0  0  0  0  0  0  0  0  0  0  0
   -0.2864   -1.3450    0.8590 C   0  0  0  0  0  0  0  0  0  0  0  0
   -0.9595    2.4751   -0.6645 C   0  0  0  0  0  0  0  0  0  0  0  0
   -1.7305    2.7530    1.6084 C   0  0  0  0  0  0  0  0  0  0  0  0
    1.0880   -1.1240    0.5127 C   0  0  0  0  0  0  0  0  0  0  0  0
   -0.7593    2.9589    0.6283 C   0  0  0  0  0  0  0  0  0  0  0  0
    1.4478   -0.7077   -0.7642 C   0  0  0  0  0  0  0  0  0  0  0  0
    2.0985   -1.3169    1.4407 C   0  0  0  0  0  0  0  0  0  0  0  0
    2.7882   -0.5001   -1.0698 C   0  0  0  0  0  0  0  0  0  0  0  0
    3.7229   -0.7209   -0.0710 C   0  0  0  0  0  0  0  0  0  0  0  0
    1.3340    3.8075   -0.1157 C   0  0  0  0  0  0  0  0  0  0  0  0
    5.5680   -0.1091   -1.5729 C   0  0  0  0  0  0  0  0  0  0  0  0
    6.1148   -0.6820    0.4837 C   0  0  0  0  0  0  0  0  0  0  0  0
    6.9279   -0.0502   -1.3792 C   0  0  0  0  0  0  0  0  0  0  0  0
   -4.4053   -1.2483    1.1744 H   0  0  0  0  0  0  0  0  0  0  0  0
   -5.0433   -3.2488    0.3926 H   0  0  0  0  0  0  0  0  0  0  0  0
   -3.4668   -3.5732   -0.3486 H   0  0  0  0  0  0  0  0  0  0  0  0
   -5.7327   -3.1683   -1.8528 H   0  0  0  0  0  0  0  0  0  0  0  0
   -4.1188   -2.6896   -2.4123 H   0  0  0  0  0  0  0  0  0  0  0  0
   -5.3452   -0.6150   -2.5333 H   0  0  0  0  0  0  0  0  0  0  0  0
   -6.1833   -0.9420   -0.9920 H   0  0  0  0  0  0  0  0  0  0  0  0
   -5.0629    0.8311    0.5368 H   0  0  0  0  0  0  0  0  0  0  0  0
   -4.8800    1.4222   -1.0971 H   0  0  0  0  0  0  0  0  0  0  0  0
   -3.6481    1.9094    2.0702 H   0  0  0  0  0  0  0  0  0  0  0  0
   -0.2365    2.6061   -1.4627 H   0  0  0  0  0  0  0  0  0  0  0  0
   -1.5796    3.1268    2.6174 H   0  0  0  0  0  0  0  0  0  0  0  0
   -1.5341    1.5463   -2.7839 H   0  0  0  0  0  0  0  0  0  0  0  0
    0.7047   -0.5366   -1.5391 H   0  0  0  0  0  0  0  0  0  0  0  0
    1.9023   -1.6403    2.4587 H   0  0  0  0  0  0  0  0  0  0  0  0
    3.0185   -0.1756   -2.0764 H   0  0  0  0  0  0  0  0  0  0  0  0
    1.7269    2.8473   -0.4670 H   0  0  0  0  0  0  0  0  0  0  0  0
    0.9266    4.4142   -0.9316 H   0  0  0  0  0  0  0  0  0  0  0  0
    2.1790    4.3631    0.3039 H   0  0  0  0  0  0  0  0  0  0  0  0
    4.9901    0.1082   -2.4589 H   0  0  0  0  0  0  0  0  0  0  0  0
    6.0050   -1.0014    1.5120 H   0  0  0  0  0  0  0  0  0  0  0  0
    7.6837    0.2317   -2.0977 H   0  0  0  0  0  0  0  0  0  0  0  0
  1  6  1  0  0  0  0
  1 15  1  0  0  0  0
  2 17  1  0  0  0  0
  2 44  1  0  0  0  0
  3 23  1  0  0  0  0
  3 28  1  0  0  0  0
  4 10  1  0  0  0  0
  4 13  1  0  0  0  0
  4 14  1  0  0  0  0
  5 15  2  0  0  0  0
  5 19  1  0  0  0  0
  6 19  2  0  0  0  0
  7 25  1  0  0  0  0
  7 27  2  0  0  0  0
  8 27  1  0  0  0  0
  8 29  1  0  0  0  0
  8 30  1  0  0  0  0
  9 30  2  0  0  0  0
  9 31  1  0  0  0  0
 10 11  1  0  0  0  0
 10 15  1  0  0  0  0
 10 32  1  0  0  0  0
 11 12  1  0  0  0  0
 11 33  1  0  0  0  0
 11 34  1  0  0  0  0
 12 13  1  0  0  0  0
 12 35  1  0  0  0  0
 12 36  1  0  0  0  0
 13 37  1  0  0  0  0
 13 38  1  0  0  0  0
 14 16  1  0  0  0  0
 14 39  1  0  0  0  0
 14 40  1  0  0  0  0
 16 17  2  0  0  0  0
 16 18  1  0  0  0  0
 17 20  1  0  0  0  0
 18 21  2  0  0  0  0
 18 41  1  0  0  0  0
 19 22  1  0  0  0  0
 20 23  2  0  0  0  0
 20 42  1  0  0  0  0
 21 23  1  0  0  0  0
 21 43  1  0  0  0  0
 22 24  1  0  0  0  0
 22 25  2  0  0  0  0
 24 26  2  0  0  0  0
 24 45  1  0  0  0  0
 25 46  1  0  0  0  0
 26 27  1  0  0  0  0
 26 47  1  0  0  0  0
 28 48  1  0  0  0  0
 28 49  1  0  0  0  0
 28 50  1  0  0  0  0
 29 31  2  0  0  0  0
 29 51  1  0  0  0  0
 30 52  1  0  0  0  0
 31 53  1  0  0  0  0
M  END
> <PUBCHEM_COMPOUND_CID>
45783680

> <PUBCHEM_CONFORMER_RMSD>
1

> <PUBCHEM_CONFORMER_DIVERSEORDER>
1
62
40
82
22
53
17
101
50
33
80
15
73
110
119
23
125
59
76
123
14
55
111
12
122
98
34
108
65
75
5
8
102
16
89
87
104
105
94
85
61
126
71
68
70
117
11
127
24
32
116
48
35
109
20
4
66
46
91
74
44
2
83
84
49
107
51
79
77
81
124
115
54
37
90
97
103
41
3
118
57
21
52
88
60
114
121
93
112
67
106
92
9
28
64
72
113
18
95
63
99
29
96
69
7
10
78
58
100
43
45
56
19
42
47
27
86
120
39
25
6
38
13
30
31
26
36

> <PUBCHEM_MMFF94_PARTIAL_CHARGES>
39
1 -0.02
10 0.45
13 0.27
14 0.41
15 0.3
16 -0.14
17 0.08
18 -0.15
19 0.46
2 -0.53
20 -0.15
21 -0.15
22 0.05
23 0.08
24 -0.15
25 0.16
26 -0.15
27 0.29
28 0.28
29 -0.3
3 -0.36
30 0.04
31 0.08
4 -0.81
41 0.15
42 0.15
43 0.15
44 0.45
45 0.15
46 0.15
47 0.15
5 -0.57
51 0.15
52 0.15
53 0.15
6 -0.41
7 -0.62
8 0.33
9 -0.57

> <PUBCHEM_EFFECTIVE_ROTOR_COUNT>
7

> <PUBCHEM_PHARMACOPHORE_FEATURES>
11
1 2 donor
1 3 acceptor
1 4 cation
3 5 6 19 cation
3 7 8 27 cation
3 8 9 30 cation
5 1 5 6 15 19 rings
5 4 10 11 12 13 rings
5 8 9 29 30 31 rings
6 16 17 18 20 21 23 rings
6 7 22 24 25 26 27 rings

> <PUBCHEM_HEAVY_ATOM_COUNT>
31

> <PUBCHEM_ATOM_DEF_STEREO_COUNT>
1

> <PUBCHEM_ATOM_UDEF_STEREO_COUNT>
0

> <PUBCHEM_BOND_DEF_STEREO_COUNT>
0

> <PUBCHEM_BOND_UDEF_STEREO_COUNT>
0

> <PUBCHEM_ISOTOPIC_ATOM_COUNT>
0

> <PUBCHEM_COMPONENT_COUNT>
1

> <PUBCHEM_CACTVS_TAUTO_COUNT>
3

> <PUBCHEM_CONFORMER_ID>
02BA9A8000000001

> <PUBCHEM_MMFF94_ENERGY>
73.55

> <PUBCHEM_FEATURE_SELFOVERLAP>
55.942

> <PUBCHEM_SHAPE_FINGERPRINT>
10032420 55 17968923241312857789
1100329 8 18412263913966911241
11477941 20 18271518771489219028
12107698 1 18342174496749098628
12166972 35 17895479240363349494
12788726 201 18334288739019704746
13761468 95 17973730173195153244
13782708 43 17489035864538579598
14068700 675 18341609356035399669
14931854 50 18187357705828031223
15183329 4 18040719122431480266
15876981 60 18411143545291754277
17492 54 18113887231449338629
18336668 15 18113626685210549468
20642791 239 18261097553469053617
20642791 35 18337093628280319025
20691752 17 17532351219603601057
20721686 56 18339360894250378776
20775438 99 17189509397559458119
21236236 1 18335425647259841022
21304303 64 17095522856196163501
21344244 246 17837482317360266095
23559900 14 17896880056826800845
255183 451 17982726678451663351
392239 28 18410862032030070376
4280585 95 18411128147681237441
484989 97 17751364104629766427
5171179 24 18271238447236890881
531348 171 18129669569557118726
57527585 103 17533814625950510179
7237137 82 18410292497627604626

> <PUBCHEM_SHAPE_MULTIPOLES>
590.47
13.58
3.8
1.74
22.97
3.71
0.03
-7.18
-5.91
-3.85
0.7
-0.52
-0.28
-1.03

> <PUBCHEM_SHAPE_SELFOVERLAP>
1304.123

> <PUBCHEM_SHAPE_VOLUME>
320.3

> <PUBCHEM_COORDINATE_TYPE>
2
5
10

$$$$
