71694324
  -OEChem-12032416273D

 45 47  0     1  0  0  0  0  0999 V2000
   -7.1601    0.5753   -0.1466 F   0  0  0  0  0  0  0  0  0  0  0  0
   -7.3445   -1.4530    0.6458 F   0  0  0  0  0  0  0  0  0  0  0  0
   -5.8806   -0.0910    1.5278 F   0  0  0  0  0  0  0  0  0  0  0  0
    4.7223    2.7086    0.2039 O   0  0  0  0  0  0  0  0  0  0  0  0
    2.9470   -1.8079    1.3170 O   0  0  0  0  0  0  0  0  0  0  0  0
    4.1054   -3.6216   -0.0071 O   0  0  0  0  0  0  0  0  0  0  0  0
   -5.5041   -0.9475   -0.5593 O   0  0  0  0  0  0  0  0  0  0  0  0
    3.8974   -0.0022    0.1992 N   0  0  0  0  0  0  0  0  0  0  0  0
    0.6788    0.5742    0.4323 N   0  0  0  0  0  0  0  0  0  0  0  0
    1.5875    2.3224   -0.5923 N   0  0  0  0  0  0  0  0  0  0  0  0
    3.1112    0.9981    0.9503 C   0  0  1  0  0  0  0  0  0  0  0  0
    3.9735    2.2185    1.3168 C   0  0  0  0  0  0  0  0  0  0  0  0
    4.7803    0.5320   -0.8459 C   0  0  0  0  0  0  0  0  0  0  0  0
    1.8022    1.3301    0.2426 C   0  0  0  0  0  0  0  0  0  0  0  0
    5.5908    1.7047   -0.3173 C   0  0  0  0  0  0  0  0  0  0  0  0
    3.6898   -1.3640    0.4377 C   0  0  0  0  0  0  0  0  0  0  0  0
   -0.3154    1.1192   -0.3303 C   0  0  0  0  0  0  0  0  0  0  0  0
    4.4376   -2.3278   -0.4489 C   0  0  0  0  0  0  0  0  0  0  0  0
    0.2693    2.1966   -0.9532 C   0  0  0  0  0  0  0  0  0  0  0  0
   -1.6514    0.5874   -0.3880 C   0  0  0  0  0  0  0  0  0  0  0  0
   -2.7310    1.4377   -0.6272 C   0  0  0  0  0  0  0  0  0  0  0  0
   -1.8668   -0.7787   -0.2058 C   0  0  0  0  0  0  0  0  0  0  0  0
   -4.0258    0.9222   -0.6837 C   0  0  0  0  0  0  0  0  0  0  0  0
   -3.1615   -1.2943   -0.2623 C   0  0  0  0  0  0  0  0  0  0  0  0
   -4.2410   -0.4439   -0.5012 C   0  0  0  0  0  0  0  0  0  0  0  0
    4.7560   -4.6335   -0.7738 C   0  0  0  0  0  0  0  0  0  0  0  0
   -6.4668   -0.4617    0.3695 C   0  0  0  0  0  0  0  0  0  0  0  0
    2.8176    0.5422    1.9064 H   0  0  0  0  0  0  0  0  0  0  0  0
    3.3518    3.0382    1.6930 H   0  0  0  0  0  0  0  0  0  0  0  0
    4.6809    1.9554    2.1134 H   0  0  0  0  0  0  0  0  0  0  0  0
    4.1256    0.8641   -1.6601 H   0  0  0  0  0  0  0  0  0  0  0  0
    5.4520   -0.2271   -1.2487 H   0  0  0  0  0  0  0  0  0  0  0  0
    6.2927    1.3876    0.4632 H   0  0  0  0  0  0  0  0  0  0  0  0
    6.1730    2.1531   -1.1283 H   0  0  0  0  0  0  0  0  0  0  0  0
    0.6047   -0.2338    1.0366 H   0  0  0  0  0  0  0  0  0  0  0  0
   -0.1822    2.8916   -1.6471 H   0  0  0  0  0  0  0  0  0  0  0  0
    5.5147   -2.1710   -0.3342 H   0  0  0  0  0  0  0  0  0  0  0  0
    4.1256   -2.1868   -1.4888 H   0  0  0  0  0  0  0  0  0  0  0  0
   -2.5909    2.5066   -0.7687 H   0  0  0  0  0  0  0  0  0  0  0  0
   -1.0458   -1.4692   -0.0292 H   0  0  0  0  0  0  0  0  0  0  0  0
   -4.8570    1.5948   -0.8767 H   0  0  0  0  0  0  0  0  0  0  0  0
   -3.3232   -2.3596   -0.1221 H   0  0  0  0  0  0  0  0  0  0  0  0
    4.4548   -5.6082   -0.3810 H   0  0  0  0  0  0  0  0  0  0  0  0
    5.8425   -4.5389   -0.6854 H   0  0  0  0  0  0  0  0  0  0  0  0
    4.4545   -4.5685   -1.8236 H   0  0  0  0  0  0  0  0  0  0  0  0
  1 27  1  0  0  0  0
  2 27  1  0  0  0  0
  3 27  1  0  0  0  0
  4 12  1  0  0  0  0
  4 15  1  0  0  0  0
  5 16  2  0  0  0  0
  6 18  1  0  0  0  0
  6 26  1  0  0  0  0
  7 25  1  0  0  0  0
  7 27  1  0  0  0  0
  8 11  1  0  0  0  0
  8 13  1  0  0  0  0
  8 16  1  0  0  0  0
  9 14  1  0  0  0  0
  9 17  1  0  0  0  0
  9 35  1  0  0  0  0
 10 14  2  0  0  0  0
 10 19  1  0  0  0  0
 11 12  1  0  0  0  0
 11 14  1  0  0  0  0
 11 28  1  0  0  0  0
 12 29  1  0  0  0  0
 12 30  1  0  0  0  0
 13 15  1  0  0  0  0
 13 31  1  0  0  0  0
 13 32  1  0  0  0  0
 15 33  1  0  0  0  0
 15 34  1  0  0  0  0
 16 18  1  0  0  0  0
 17 19  2  0  0  0  0
 17 20  1  0  0  0  0
 18 37  1  0  0  0  0
 18 38  1  0  0  0  0
 19 36  1  0  0  0  0
 20 21  2  0  0  0  0
 20 22  1  0  0  0  0
 21 23  1  0  0  0  0
 21 39  1  0  0  0  0
 22 24  2  0  0  0  0
 22 40  1  0  0  0  0
 23 25  2  0  0  0  0
 23 41  1  0  0  0  0
 24 25  1  0  0  0  0
 24 42  1  0  0  0  0
 26 43  1  0  0  0  0
 26 44  1  0  0  0  0
 26 45  1  0  0  0  0
M  END
> <PUBCHEM_COMPOUND_CID>
71694324

> <PUBCHEM_CONFORMER_RMSD>
1

> <PUBCHEM_CONFORMER_DIVERSEORDER>
1
5
28
17
8
19
4
30
12
37
6
35
21
22
24
9
38
26
33
29
25
18
31
15
39
27
36
34
3
10
32
14
7
2
16
13
11
23
20

> <PUBCHEM_MMFF94_PARTIAL_CHARGES>
33
1 -0.34
10 -0.57
11 0.48
12 0.28
13 0.3
14 0.01
15 0.28
16 0.57
17 -0.2
18 0.34
19 0.08
2 -0.34
20 0.05
21 -0.15
22 -0.15
23 -0.15
24 -0.15
25 0.08
26 0.28
27 1.3
3 -0.34
35 0.27
36 0.15
39 0.15
4 -0.56
40 0.15
41 0.15
42 0.15
5 -0.57
6 -0.56
7 -0.36
8 -0.66
9 0.03

> <PUBCHEM_EFFECTIVE_ROTOR_COUNT>
8.2

> <PUBCHEM_PHARMACOPHORE_FEATURES>
9
1 4 acceptor
1 5 acceptor
1 6 acceptor
1 7 acceptor
1 9 donor
3 9 10 14 cation
5 9 10 14 17 19 rings
6 20 21 22 23 24 25 rings
6 4 8 11 12 13 15 rings

> <PUBCHEM_HEAVY_ATOM_COUNT>
27

> <PUBCHEM_ATOM_DEF_STEREO_COUNT>
1

> <PUBCHEM_ATOM_UDEF_STEREO_COUNT>
0

> <PUBCHEM_BOND_DEF_STEREO_COUNT>
0

> <PUBCHEM_BOND_UDEF_STEREO_COUNT>
0

> <PUBCHEM_ISOTOPIC_ATOM_COUNT>
0

> <PUBCHEM_COMPONENT_COUNT>
1

> <PUBCHEM_CACTVS_TAUTO_COUNT>
2

> <PUBCHEM_CONFORMER_ID>
0445F7F400000001

> <PUBCHEM_MMFF94_ENERGY>
64.8721

> <PUBCHEM_FEATURE_SELFOVERLAP>
45.689

> <PUBCHEM_SHAPE_FINGERPRINT>
10319688 140 18412546471254404790
11089746 13 10159708988217717153
11135609 99 16226310583209515272
11135926 11 18338782520968683844
117089 54 17839468787017275934
11796584 16 17560805493028083791
12107183 9 17840596898419968337
12596602 18 17488464250865501233
12623949 98 18341900649687190094
12730499 353 18410293644779531248
13073987 5 18341895164766344417
13150687 139 17823718524294988284
13533116 47 18272368667848606483
13551218 46 18411698781974651743
13955234 65 18272642468473191904
14251740 57 18337390448642467382
14341114 176 18408604773312477353
14347424 109 18201436943932435497
14617045 38 18409732893458877918
14863182 85 18334575793833893172
14866123 147 17550386237438967408
15081414 286 18334855034678887284
15183329 4 17561085813312680121
15250474 111 18058431248709316230
15537594 2 18340766030643236943
15664445 248 18261683657628422980
16120349 189 8717098047398607954
17492 89 18267582416797915468
17859628 70 18341609292386330550
1813 80 16950279602896099365
1979834 28 18340475747342664968
20567600 75 18260543412387665501
20645477 70 18408598141909203178
21033650 10 16371850626079241388
21049683 118 12823004292535805149
21130935 74 18413672422769277347
21133410 32 16665482972337946274
21267235 1 18408604751774369860
21279426 13 18188762835097699405
21285901 2 17822002108400694596
21344244 246 18337400328122439438
21682296 61 18338239263467090631
220451 1 18059573641738305381
23516275 137 17702131185961740534
23559900 14 18195233435199315228
239999 70 18040430014896562016
24771750 20 17317904785755632165
3004659 81 18186799141706073110
3421961 26 18341605985129494386
345986 75 17560799884101332784
34797466 226 16877950450802386221
4073 2 18267585899620974563
46194498 28 17458345264548100412
465052 167 18343584006178800126
5104073 3 18338507547913648113
59755656 215 18410858797391785932
70251023 43 18265336106227202706

> <PUBCHEM_SHAPE_MULTIPOLES>
495.41
17.11
3.7
1.02
24.37
4.14
0.19
6.22
1.69
-8.68
-0.54
-0.14
-0.12
1.22

> <PUBCHEM_SHAPE_SELFOVERLAP>
1057.001

> <PUBCHEM_SHAPE_VOLUME>
276.5

> <PUBCHEM_COORDINATE_TYPE>
2
5
10

$$$$
