45360757
  -OEChem-12032416293D

 59 61  0     1  0  0  0  0  0999 V2000
    7.8637    2.2160    1.1457 F   0  0  0  0  0  0  0  0  0  0  0  0
    0.5739   -4.7868   -0.6701 O   0  0  0  0  0  0  0  0  0  0  0  0
   -4.6879    1.1083    1.8602 O   0  0  0  0  0  0  0  0  0  0  0  0
   -1.1878   -1.6080   -0.3316 N   0  0  1  0  0  0  0  0  0  0  0  0
   -1.0736   -4.1832    0.7769 N   0  0  0  0  0  0  0  0  0  0  0  0
    2.1006   -0.1200   -0.0028 N   0  0  0  0  0  0  0  0  0  0  0  0
   -4.7736    2.2088   -0.1796 N   0  0  0  0  0  0  0  0  0  0  0  0
   -0.3932   -2.6209   -1.0380 C   0  0  1  0  0  0  0  0  0  0  0  0
    0.8518   -0.5861   -0.5838 C   0  0  1  0  0  0  0  0  0  0  0  0
   -2.3598   -2.1370    0.3570 C   0  0  1  0  0  0  0  0  0  0  0  0
    0.9754   -1.9555   -1.2525 C   0  0  0  0  0  0  0  0  0  0  0  0
   -0.2557   -0.7900    0.4408 C   0  0  0  0  0  0  0  0  0  0  0  0
   -1.9599   -3.2046    1.3632 C   0  0  0  0  0  0  0  0  0  0  0  0
   -0.2385   -3.9400   -0.2867 C   0  0  0  0  0  0  0  0  0  0  0  0
   -3.2014   -1.0457    1.0198 C   0  0  0  0  0  0  0  0  0  0  0  0
   -3.5688    0.0493    0.0235 C   0  0  0  0  0  0  0  0  0  0  0  0
    2.9786    0.4349   -1.0252 C   0  0  0  0  0  0  0  0  0  0  0  0
   -4.3914    1.1600    0.6636 C   0  0  0  0  0  0  0  0  0  0  0  0
    4.2840    0.9107   -0.4452 C   0  0  0  0  0  0  0  0  0  0  0  0
    4.4089    2.2248    0.0053 C   0  0  0  0  0  0  0  0  0  0  0  0
    5.3684    0.0375   -0.3582 C   0  0  0  0  0  0  0  0  0  0  0  0
   -4.4470    2.3135   -1.5997 C   0  0  0  0  0  0  0  0  0  0  0  0
   -5.5716    3.3053    0.3551 C   0  0  0  0  0  0  0  0  0  0  0  0
    5.6181    2.6661    0.5425 C   0  0  0  0  0  0  0  0  0  0  0  0
    6.5776    0.4788    0.1790 C   0  0  0  0  0  0  0  0  0  0  0  0
   -3.1384    3.0450   -1.8153 C   0  0  0  0  0  0  0  0  0  0  0  0
   -7.0547    3.0258    0.2267 C   0  0  0  0  0  0  0  0  0  0  0  0
    6.7025    1.7930    0.6293 C   0  0  0  0  0  0  0  0  0  0  0  0
   -0.8650   -2.8512   -2.0005 H   0  0  0  0  0  0  0  0  0  0  0  0
    0.4837    0.1433   -1.3215 H   0  0  0  0  0  0  0  0  0  0  0  0
   -2.9925   -2.6123   -0.4065 H   0  0  0  0  0  0  0  0  0  0  0  0
    1.1996   -1.8393   -2.3191 H   0  0  0  0  0  0  0  0  0  0  0  0
    1.7888   -2.5391   -0.8040 H   0  0  0  0  0  0  0  0  0  0  0  0
   -0.6767    0.1698    0.7552 H   0  0  0  0  0  0  0  0  0  0  0  0
    0.1194   -1.3148    1.3279 H   0  0  0  0  0  0  0  0  0  0  0  0
   -2.8401   -3.7433    1.7306 H   0  0  0  0  0  0  0  0  0  0  0  0
   -1.4445   -2.7826    2.2330 H   0  0  0  0  0  0  0  0  0  0  0  0
   -4.1175   -1.4916    1.4290 H   0  0  0  0  0  0  0  0  0  0  0  0
   -2.6681   -0.6098    1.8745 H   0  0  0  0  0  0  0  0  0  0  0  0
   -0.9754   -5.0733    1.2555 H   0  0  0  0  0  0  0  0  0  0  0  0
    1.8978    0.6047    0.6863 H   0  0  0  0  0  0  0  0  0  0  0  0
   -4.1632   -0.3984   -0.7808 H   0  0  0  0  0  0  0  0  0  0  0  0
   -2.6770    0.5042   -0.4124 H   0  0  0  0  0  0  0  0  0  0  0  0
    2.4930    1.2752   -1.5388 H   0  0  0  0  0  0  0  0  0  0  0  0
    3.1937   -0.3127   -1.7994 H   0  0  0  0  0  0  0  0  0  0  0  0
    3.5709    2.9142   -0.0553 H   0  0  0  0  0  0  0  0  0  0  0  0
    5.2832   -0.9893   -0.7040 H   0  0  0  0  0  0  0  0  0  0  0  0
   -4.3788    1.3170   -2.0431 H   0  0  0  0  0  0  0  0  0  0  0  0
   -5.2612    2.8302   -2.1203 H   0  0  0  0  0  0  0  0  0  0  0  0
   -5.3272    3.4432    1.4145 H   0  0  0  0  0  0  0  0  0  0  0  0
   -5.3066    4.2358   -0.1587 H   0  0  0  0  0  0  0  0  0  0  0  0
    5.7156    3.6891    0.8938 H   0  0  0  0  0  0  0  0  0  0  0  0
    7.4220   -0.2008    0.2473 H   0  0  0  0  0  0  0  0  0  0  0  0
   -3.1914    4.0695   -1.4327 H   0  0  0  0  0  0  0  0  0  0  0  0
   -2.3049    2.5496   -1.3089 H   0  0  0  0  0  0  0  0  0  0  0  0
   -2.9041    3.0962   -2.8833 H   0  0  0  0  0  0  0  0  0  0  0  0
   -7.3474    2.9011   -0.8208 H   0  0  0  0  0  0  0  0  0  0  0  0
   -7.3323    2.1105    0.7600 H   0  0  0  0  0  0  0  0  0  0  0  0
   -7.6358    3.8533    0.6454 H   0  0  0  0  0  0  0  0  0  0  0  0
  1 28  1  0  0  0  0
  2 14  2  0  0  0  0
  3 18  2  0  0  0  0
  4  8  1  0  0  0  0
  4 10  1  0  0  0  0
  4 12  1  0  0  0  0
  5 13  1  0  0  0  0
  5 14  1  0  0  0  0
  5 40  1  0  0  0  0
  6  9  1  0  0  0  0
  6 17  1  0  0  0  0
  6 41  1  0  0  0  0
  7 18  1  0  0  0  0
  7 22  1  0  0  0  0
  7 23  1  0  0  0  0
  8 11  1  0  0  0  0
  8 14  1  0  0  0  0
  8 29  1  0  0  0  0
  9 11  1  0  0  0  0
  9 12  1  0  0  0  0
  9 30  1  0  0  0  0
 10 13  1  0  0  0  0
 10 15  1  0  0  0  0
 10 31  1  0  0  0  0
 11 32  1  0  0  0  0
 11 33  1  0  0  0  0
 12 34  1  0  0  0  0
 12 35  1  0  0  0  0
 13 36  1  0  0  0  0
 13 37  1  0  0  0  0
 15 16  1  0  0  0  0
 15 38  1  0  0  0  0
 15 39  1  0  0  0  0
 16 18  1  0  0  0  0
 16 42  1  0  0  0  0
 16 43  1  0  0  0  0
 17 19  1  0  0  0  0
 17 44  1  0  0  0  0
 17 45  1  0  0  0  0
 19 20  2  0  0  0  0
 19 21  1  0  0  0  0
 20 24  1  0  0  0  0
 20 46  1  0  0  0  0
 21 25  2  0  0  0  0
 21 47  1  0  0  0  0
 22 26  1  0  0  0  0
 22 48  1  0  0  0  0
 22 49  1  0  0  0  0
 23 27  1  0  0  0  0
 23 50  1  0  0  0  0
 23 51  1  0  0  0  0
 24 28  2  0  0  0  0
 24 52  1  0  0  0  0
 25 28  1  0  0  0  0
 25 53  1  0  0  0  0
 26 54  1  0  0  0  0
 26 55  1  0  0  0  0
 26 56  1  0  0  0  0
 27 57  1  0  0  0  0
 27 58  1  0  0  0  0
 27 59  1  0  0  0  0
M  END
> <PUBCHEM_COMPOUND_CID>
45360757

> <PUBCHEM_CONFORMER_RMSD>
1.2

> <PUBCHEM_CONFORMER_DIVERSEORDER>
1
54
43
140
68
70
97
103
39
8
112
137
125
76
83
133
132
85
142
98
104
11
92
34
101
50
25
6
15
87
117
86
116
131
41
31
65
89
61
67
138
127
109
113
58
19
139
94
72
24
119
102
84
100
60
73
71
14
45
74
124
114
110
90
141
93
63
95
77
33
47
66
10
129
120
106
32
13
108
62
55
2
26
111
37
134
105
118
30
78
27
128
53
44
42
57
115
91
46
82
36
12
136
96
5
9
7
56
64
18
126
17
80
81
121
69
130
123
16
75
99
107
23
52
4
51
21
122
135
48
88
28
40
20
49
29
79
22
35
59
38
3

> <PUBCHEM_MMFF94_PARTIAL_CHARGES>
30
1 -0.19
10 0.27
12 0.27
13 0.3
14 0.57
16 0.06
17 0.41
18 0.57
19 -0.14
2 -0.57
20 -0.15
21 -0.15
22 0.3
23 0.3
24 -0.15
25 -0.15
28 0.19
3 -0.57
4 -0.81
40 0.37
41 0.36
46 0.15
47 0.15
5 -0.73
52 0.15
53 0.15
6 -0.9
7 -0.66
8 0.33
9 0.27

> <PUBCHEM_EFFECTIVE_ROTOR_COUNT>
10.2

> <PUBCHEM_PHARMACOPHORE_FEATURES>
9
1 2 acceptor
1 3 acceptor
1 4 cation
1 5 donor
1 6 cation
1 6 donor
5 4 8 9 11 12 rings
6 19 20 21 24 25 28 rings
6 4 5 8 10 13 14 rings

> <PUBCHEM_HEAVY_ATOM_COUNT>
28

> <PUBCHEM_ATOM_DEF_STEREO_COUNT>
3

> <PUBCHEM_ATOM_UDEF_STEREO_COUNT>
0

> <PUBCHEM_BOND_DEF_STEREO_COUNT>
0

> <PUBCHEM_BOND_UDEF_STEREO_COUNT>
0

> <PUBCHEM_ISOTOPIC_ATOM_COUNT>
0

> <PUBCHEM_COMPONENT_COUNT>
1

> <PUBCHEM_CACTVS_TAUTO_COUNT>
3

> <PUBCHEM_CONFORMER_ID>
02B4267500000001

> <PUBCHEM_MMFF94_ENERGY>
53.5073

> <PUBCHEM_FEATURE_SELFOVERLAP>
45.859

> <PUBCHEM_SHAPE_FINGERPRINT>
10074138 170 17968383458624041147
105312 117 18411701006050032837
10675989 125 18125167026105892688
11135609 201 18411133620139453297
12107183 9 18335695019435612394
12422481 6 17748828488495924012
12925494 130 18409169896329992330
12988421 55 18412553097771244649
13540713 4 18270139953516656374
13631057 29 10015589406601249364
14251764 30 8646479717737693321
14950920 106 16226621817117858777
15326921 28 18263342755733320480
16992779 147 17766022522788664753
19053607 189 17606415258853582837
19246450 95 18044630050709572192
20554085 129 18058715923425476379
20715895 44 18342461422213790280
21033648 29 18335431152943762636
21133410 32 15194707073374664021
21401589 2 18341061773918068971
21859007 373 18335702694362731388
22288116 15 9871483058164239896
22889206 1 17606393251082546354
229767 44 18261112993027429876
23522609 53 17532666822591413380
25019877 29 18058463152396343175
2838139 119 18341892995691497157
3459 39 18340755005747018296
376196 1 18340209596298277775
397638 26 18409442575466830104
437795 96 17913758690301726464
437815 12 9583508820571003437
5219985 13 18410577275212483861
6327066 14 18411134715155809461
6371380 46 18339373959578063670
9896288 288 18188778391201194962
9981440 41 18409177618760286155

> <PUBCHEM_SHAPE_MULTIPOLES>
537.29
17.36
5.76
1.32
17.14
4.96
0.13
-26.32
-4.68
-4.66
0.25
-0.95
-0.22
2.26

> <PUBCHEM_SHAPE_SELFOVERLAP>
1111.545

> <PUBCHEM_SHAPE_VOLUME>
308.8

> <PUBCHEM_COORDINATE_TYPE>
2
5
10

$$$$
