75536831
  -OEChem-12032416313D

 46 48  0     1  0  0  0  0  0999 V2000
    4.4903   -1.3822    0.0164 S   0  0  0  0  0  0  0  0  0  0  0  0
    0.1339   -1.2613    1.3860 O   0  0  0  0  0  0  0  0  0  0  0  0
   -0.7019   -1.1194   -2.1050 O   0  0  0  0  0  0  0  0  0  0  0  0
    4.5149   -1.8916   -1.3415 O   0  0  0  0  0  0  0  0  0  0  0  0
    5.3302   -1.9818    1.0356 O   0  0  0  0  0  0  0  0  0  0  0  0
   -3.0029   -0.2464   -0.1506 N   0  0  0  0  0  0  0  0  0  0  0  0
    2.8838   -1.3444    0.5751 N   0  0  0  0  0  0  0  0  0  0  0  0
   -7.6966    1.5605   -0.1608 N   0  0  0  0  0  0  0  0  0  0  0  0
   -1.8284   -1.0769    0.0606 C   0  0  1  0  0  0  0  0  0  0  0  0
   -0.6293   -0.6582   -0.7698 C   0  0  1  0  0  0  0  0  0  0  0  0
    0.5057   -1.3214   -0.0011 C   0  0  1  0  0  0  0  0  0  0  0  0
   -1.2713   -0.9663    1.4704 C   0  0  0  0  0  0  0  0  0  0  0  0
    1.8468   -0.6389   -0.2031 C   0  0  0  0  0  0  0  0  0  0  0  0
   -4.1980   -0.8781    0.3959 C   0  0  0  0  0  0  0  0  0  0  0  0
   -5.4225   -0.0241    0.2010 C   0  0  0  0  0  0  0  0  0  0  0  0
    4.8945    0.3377   -0.0395 C   0  0  0  0  0  0  0  0  0  0  0  0
   -5.6353    1.0865    1.0100 C   0  0  0  0  0  0  0  0  0  0  0  0
   -6.3454   -0.3433   -0.7888 C   0  0  0  0  0  0  0  0  0  0  0  0
    5.4490    0.9602    1.0787 C   0  0  0  0  0  0  0  0  0  0  0  0
    4.6554    1.0730   -1.2003 C   0  0  0  0  0  0  0  0  0  0  0  0
   -6.7775    1.8394    0.7906 C   0  0  0  0  0  0  0  0  0  0  0  0
   -7.4559    0.4736   -0.9279 C   0  0  0  0  0  0  0  0  0  0  0  0
    5.7645    2.3184    1.0361 C   0  0  0  0  0  0  0  0  0  0  0  0
    4.9707    2.4310   -1.2431 C   0  0  0  0  0  0  0  0  0  0  0  0
    5.5253    3.0538   -0.1248 C   0  0  0  0  0  0  0  0  0  0  0  0
   -2.0570   -2.1254   -0.1778 H   0  0  0  0  0  0  0  0  0  0  0  0
   -0.5166    0.4331   -0.7784 H   0  0  0  0  0  0  0  0  0  0  0  0
    0.5930   -2.3821   -0.2711 H   0  0  0  0  0  0  0  0  0  0  0  0
   -1.3643    0.0475    1.8768 H   0  0  0  0  0  0  0  0  0  0  0  0
   -1.7462   -1.6624    2.1683 H   0  0  0  0  0  0  0  0  0  0  0  0
    1.8051    0.3947    0.1583 H   0  0  0  0  0  0  0  0  0  0  0  0
    2.0991   -0.6364   -1.2678 H   0  0  0  0  0  0  0  0  0  0  0  0
   -3.1340   -0.1037   -1.1525 H   0  0  0  0  0  0  0  0  0  0  0  0
   -4.0839   -1.0643    1.4715 H   0  0  0  0  0  0  0  0  0  0  0  0
   -4.3606   -1.8581   -0.0714 H   0  0  0  0  0  0  0  0  0  0  0  0
   -0.8024   -2.0863   -2.0894 H   0  0  0  0  0  0  0  0  0  0  0  0
    2.7163   -1.4078    1.5870 H   0  0  0  0  0  0  0  0  0  0  0  0
   -4.9361    1.3636    1.7917 H   0  0  0  0  0  0  0  0  0  0  0  0
   -6.2114   -1.2006   -1.4396 H   0  0  0  0  0  0  0  0  0  0  0  0
    5.6363    0.4090    1.9957 H   0  0  0  0  0  0  0  0  0  0  0  0
    4.2216    0.6095   -2.0817 H   0  0  0  0  0  0  0  0  0  0  0  0
   -6.9898    2.7154    1.3947 H   0  0  0  0  0  0  0  0  0  0  0  0
   -8.2052    0.2681   -1.6853 H   0  0  0  0  0  0  0  0  0  0  0  0
    6.1945    2.8039    1.9074 H   0  0  0  0  0  0  0  0  0  0  0  0
    4.7837    3.0040   -2.1465 H   0  0  0  0  0  0  0  0  0  0  0  0
    5.7702    4.1114   -0.1579 H   0  0  0  0  0  0  0  0  0  0  0  0
  1  4  2  0  0  0  0
  1  5  2  0  0  0  0
  1  7  1  0  0  0  0
  1 16  1  0  0  0  0
  2 11  1  0  0  0  0
  2 12  1  0  0  0  0
  3 10  1  0  0  0  0
  3 36  1  0  0  0  0
  6  9  1  0  0  0  0
  6 14  1  0  0  0  0
  6 33  1  0  0  0  0
  7 13  1  0  0  0  0
  7 37  1  0  0  0  0
  8 21  2  0  0  0  0
  8 22  1  0  0  0  0
  9 10  1  0  0  0  0
  9 12  1  0  0  0  0
  9 26  1  0  0  0  0
 10 11  1  0  0  0  0
 10 27  1  0  0  0  0
 11 13  1  0  0  0  0
 11 28  1  0  0  0  0
 12 29  1  0  0  0  0
 12 30  1  0  0  0  0
 13 31  1  0  0  0  0
 13 32  1  0  0  0  0
 14 15  1  0  0  0  0
 14 34  1  0  0  0  0
 14 35  1  0  0  0  0
 15 17  2  0  0  0  0
 15 18  1  0  0  0  0
 16 19  2  0  0  0  0
 16 20  1  0  0  0  0
 17 21  1  0  0  0  0
 17 38  1  0  0  0  0
 18 22  2  0  0  0  0
 18 39  1  0  0  0  0
 19 23  1  0  0  0  0
 19 40  1  0  0  0  0
 20 24  2  0  0  0  0
 20 41  1  0  0  0  0
 21 42  1  0  0  0  0
 22 43  1  0  0  0  0
 23 25  2  0  0  0  0
 23 44  1  0  0  0  0
 24 25  1  0  0  0  0
 24 45  1  0  0  0  0
 25 46  1  0  0  0  0
M  END
> <PUBCHEM_COMPOUND_CID>
75536831

> <PUBCHEM_CONFORMER_RMSD>
1.2

> <PUBCHEM_CONFORMER_DIVERSEORDER>
1
41
69
38
11
61
59
57
78
70
2
85
67
17
35
27
66
3
16
87
45
94
79
24
7
42
52
63
55
77
64
68
101
29
103
32
6
58
18
76
99
19
92
75
82
100
71
13
72
36
97
73
21
80
43
10
81
54
83
90
5
12
96
88
39
34
4
84
62
33
28
23
95
53
25
60
22
20
50
98
49
8
47
86
9
46
93
56
44
89
74
65
15
51
30
40
14
102
26
48
91
37
31

> <PUBCHEM_MMFF94_PARTIAL_CHARGES>
37
1 1.45
10 0.28
11 0.28
12 0.28
13 0.36
14 0.41
15 -0.14
16 -0.01
17 -0.15
18 -0.15
19 -0.15
2 -0.56
20 -0.15
21 0.16
22 0.16
23 -0.15
24 -0.15
25 -0.15
3 -0.68
33 0.36
36 0.4
37 0.42
38 0.15
39 0.15
4 -0.65
40 0.15
41 0.15
42 0.15
43 0.15
44 0.15
45 0.15
46 0.15
5 -0.65
6 -0.9
7 -0.91
8 -0.62
9 0.27

> <PUBCHEM_EFFECTIVE_ROTOR_COUNT>
8

> <PUBCHEM_PHARMACOPHORE_FEATURES>
12
1 2 acceptor
1 3 acceptor
1 3 donor
1 4 acceptor
1 5 acceptor
1 6 cation
1 6 donor
1 7 donor
1 8 acceptor
5 2 9 10 11 12 rings
6 16 19 20 23 24 25 rings
6 8 15 17 18 21 22 rings

> <PUBCHEM_HEAVY_ATOM_COUNT>
25

> <PUBCHEM_ATOM_DEF_STEREO_COUNT>
3

> <PUBCHEM_ATOM_UDEF_STEREO_COUNT>
0

> <PUBCHEM_BOND_DEF_STEREO_COUNT>
0

> <PUBCHEM_BOND_UDEF_STEREO_COUNT>
0

> <PUBCHEM_ISOTOPIC_ATOM_COUNT>
0

> <PUBCHEM_COMPONENT_COUNT>
1

> <PUBCHEM_CACTVS_TAUTO_COUNT>
1

> <PUBCHEM_CONFORMER_ID>
048099BF00000001

> <PUBCHEM_MMFF94_ENERGY>
45.6866

> <PUBCHEM_FEATURE_SELFOVERLAP>
60.916

> <PUBCHEM_SHAPE_FINGERPRINT>
10 15 16225768531944105701
10554248 39 17988637441996759471
10638233 991 18410576163227572905
10906281 52 17774457005539528803
11408170 132 14116970015773616009
11991303 11 16558743555611217405
125118 31 18335421244818486621
13167372 99 18411139095526410433
13533116 47 17822851975139130858
13668630 136 12535336905994337701
13782708 43 9511465502777078763
13878862 14 18336537270753485724
14251757 52 18413386536264885809
14347332 77 10807668765256011595
15183329 4 17489591160274424329
15348495 7 16009324200728981273
155225 6 17825960487995859484
15840311 113 18334579014858827213
18335252 114 18202568389275150828
1979834 28 15285351808833427026
20157964 124 18412546509386500522
20281389 69 18260546697926922101
20397935 70 8646772188389337548
21130935 74 18040435490811599083
21150785 3 16415478281064320921
21298829 104 18338799026180602268
21344244 181 11672064159543533357
21521239 73 11959729361132893005
21641784 216 16415208840586072225
21792934 111 16081353130234186751
220451 1 10665238042010555987
2215653 11 13542469790843199126
22224240 67 17312820477402305851
2303208 19 10807939236811190843
23081809 10 16916793950776781099
23559900 14 17167871876740314002
249057 25 17774730744536393226
2748736 6 18335980947686805561
2838139 119 18413387627292210265
328310 630 18272658939672908385
33382 64 9007061253183727582
33532 11 9367341536120859833
3472631 163 17917150615016520564
34797466 226 18343588421463345423
397830 11 17822586009315199747
44555599 121 18270968947050858433
465052 167 7925640998943652520
5104073 3 15575576780698100617
5718773 13 11167401474148679084
59682541 52 17560809801138789926
6328613 192 18413670219150081761
6898599 12 18129099111694616855

> <PUBCHEM_SHAPE_MULTIPOLES>
479.92
22.5
2.56
1.38
25.21
1.35
0.17
14.43
0.21
-4.29
-0.07
-0.48
-0.08
-0.65

> <PUBCHEM_SHAPE_SELFOVERLAP>
998.596

> <PUBCHEM_SHAPE_VOLUME>
273.2

> <PUBCHEM_COORDINATE_TYPE>
2
5
10

$$$$
