45784239
  -OEChem-12032416203D

 43 46  0     1  0  0  0  0  0999 V2000
    7.5596   -0.5599   -0.1819 F   0  0  0  0  0  0  0  0  0  0  0  0
   -1.8498   -0.1523    0.0024 N   0  0  1  0  0  0  0  0  0  0  0  0
    2.7908   -1.1626    0.6378 N   0  0  0  0  0  0  0  0  0  0  0  0
    2.2553    0.8547   -0.1263 N   0  0  0  0  0  0  0  0  0  0  0  0
    0.3485   -0.5868    0.6941 C   0  0  1  0  0  0  0  0  0  0  0  0
   -0.3286    0.3630    1.6975 C   0  0  0  0  0  0  0  0  0  0  0  0
   -0.5508   -0.5443   -0.5487 C   0  0  0  0  0  0  0  0  0  0  0  0
   -1.5470    0.9080    0.9637 C   0  0  0  0  0  0  0  0  0  0  0  0
    1.7925   -0.2626    0.3879 C   0  0  0  0  0  0  0  0  0  0  0  0
   -2.7815    0.2829   -1.0275 C   0  0  0  0  0  0  0  0  0  0  0  0
   -4.2058    0.2625   -0.5400 C   0  0  0  0  0  0  0  0  0  0  0  0
    3.9769   -0.5877    0.2594 C   0  0  0  0  0  0  0  0  0  0  0  0
    3.6161    0.6707   -0.2140 C   0  0  0  0  0  0  0  0  0  0  0  0
   -4.9064   -0.9376   -0.4206 C   0  0  0  0  0  0  0  0  0  0  0  0
   -4.8241    1.4672   -0.2056 C   0  0  0  0  0  0  0  0  0  0  0  0
    5.2943   -1.0466    0.2897 C   0  0  0  0  0  0  0  0  0  0  0  0
    4.6159    1.5362   -0.6891 C   0  0  0  0  0  0  0  0  0  0  0  0
   -6.2253   -0.9331    0.0332 C   0  0  0  0  0  0  0  0  0  0  0  0
   -4.2657   -2.2398   -0.7727 C   0  0  0  0  0  0  0  0  0  0  0  0
   -6.1431    1.4720    0.2483 C   0  0  0  0  0  0  0  0  0  0  0  0
    6.2765   -0.1723   -0.1872 C   0  0  0  0  0  0  0  0  0  0  0  0
    5.9454    1.0966   -0.6682 C   0  0  0  0  0  0  0  0  0  0  0  0
   -6.8437    0.2718    0.3678 C   0  0  0  0  0  0  0  0  0  0  0  0
    0.3017   -1.5998    1.1196 H   0  0  0  0  0  0  0  0  0  0  0  0
   -0.6442   -0.2060    2.5810 H   0  0  0  0  0  0  0  0  0  0  0  0
    0.3252    1.1721    2.0400 H   0  0  0  0  0  0  0  0  0  0  0  0
   -0.1883    0.1902   -1.2802 H   0  0  0  0  0  0  0  0  0  0  0  0
   -0.5970   -1.5226   -1.0394 H   0  0  0  0  0  0  0  0  0  0  0  0
   -2.3715    1.0953    1.6587 H   0  0  0  0  0  0  0  0  0  0  0  0
   -1.2850    1.8511    0.4668 H   0  0  0  0  0  0  0  0  0  0  0  0
   -2.5196    1.2781   -1.4137 H   0  0  0  0  0  0  0  0  0  0  0  0
   -2.7146   -0.3711   -1.9069 H   0  0  0  0  0  0  0  0  0  0  0  0
    2.6788   -2.0877    1.0310 H   0  0  0  0  0  0  0  0  0  0  0  0
   -4.2907    2.4102   -0.2915 H   0  0  0  0  0  0  0  0  0  0  0  0
    5.5489   -2.0317    0.6635 H   0  0  0  0  0  0  0  0  0  0  0  0
    4.3690    2.5239   -1.0650 H   0  0  0  0  0  0  0  0  0  0  0  0
   -6.7860   -1.8588    0.1325 H   0  0  0  0  0  0  0  0  0  0  0  0
   -4.9591   -3.0772   -0.6335 H   0  0  0  0  0  0  0  0  0  0  0  0
   -3.4003   -2.4390   -0.1336 H   0  0  0  0  0  0  0  0  0  0  0  0
   -3.9619   -2.2560   -1.8241 H   0  0  0  0  0  0  0  0  0  0  0  0
   -6.6245    2.4100    0.5093 H   0  0  0  0  0  0  0  0  0  0  0  0
    6.7312    1.7536   -1.0321 H   0  0  0  0  0  0  0  0  0  0  0  0
   -7.8706    0.2755    0.7214 H   0  0  0  0  0  0  0  0  0  0  0  0
  1 21  1  0  0  0  0
  2  7  1  0  0  0  0
  2  8  1  0  0  0  0
  2 10  1  0  0  0  0
  3  9  1  0  0  0  0
  3 12  1  0  0  0  0
  3 33  1  0  0  0  0
  4  9  2  0  0  0  0
  4 13  1  0  0  0  0
  5  6  1  0  0  0  0
  5  7  1  0  0  0  0
  5  9  1  0  0  0  0
  5 24  1  0  0  0  0
  6  8  1  0  0  0  0
  6 25  1  0  0  0  0
  6 26  1  0  0  0  0
  7 27  1  0  0  0  0
  7 28  1  0  0  0  0
  8 29  1  0  0  0  0
  8 30  1  0  0  0  0
 10 11  1  0  0  0  0
 10 31  1  0  0  0  0
 10 32  1  0  0  0  0
 11 14  1  0  0  0  0
 11 15  2  0  0  0  0
 12 13  2  0  0  0  0
 12 16  1  0  0  0  0
 13 17  1  0  0  0  0
 14 18  2  0  0  0  0
 14 19  1  0  0  0  0
 15 20  1  0  0  0  0
 15 34  1  0  0  0  0
 16 21  2  0  0  0  0
 16 35  1  0  0  0  0
 17 22  2  0  0  0  0
 17 36  1  0  0  0  0
 18 23  1  0  0  0  0
 18 37  1  0  0  0  0
 19 38  1  0  0  0  0
 19 39  1  0  0  0  0
 19 40  1  0  0  0  0
 20 23  2  0  0  0  0
 20 41  1  0  0  0  0
 21 22  1  0  0  0  0
 22 42  1  0  0  0  0
 23 43  1  0  0  0  0
M  END
> <PUBCHEM_COMPOUND_CID>
45784239

> <PUBCHEM_CONFORMER_RMSD>
0.8

> <PUBCHEM_CONFORMER_DIVERSEORDER>
1
53
31
43
47
28
14
42
46
39
55
56
27
20
44
40
17
10
36
54
52
22
45
26
35
4
24
50
23
16
13
34
29
48
8
30
5
38
51
2
19
21
32
41
37
18
15
49
12
25
9
3
6
11
7
33

> <PUBCHEM_MMFF94_PARTIAL_CHARGES>
30
1 -0.19
10 0.41
11 -0.14
12 -0.15
13 0.23
14 -0.14
15 -0.15
16 -0.15
17 -0.15
18 -0.15
19 0.14
2 -0.81
20 -0.15
21 0.19
22 -0.15
23 -0.15
3 0.03
33 0.27
34 0.15
35 0.15
36 0.15
37 0.15
4 -0.57
41 0.15
42 0.15
43 0.15
5 0.18
7 0.27
8 0.27
9 0.01

> <PUBCHEM_EFFECTIVE_ROTOR_COUNT>
4

> <PUBCHEM_PHARMACOPHORE_FEATURES>
7
1 2 cation
1 3 donor
3 3 4 9 cation
5 2 5 6 7 8 rings
5 3 4 9 12 13 rings
6 11 14 15 18 20 23 rings
6 12 13 16 17 21 22 rings

> <PUBCHEM_HEAVY_ATOM_COUNT>
23

> <PUBCHEM_ATOM_DEF_STEREO_COUNT>
1

> <PUBCHEM_ATOM_UDEF_STEREO_COUNT>
0

> <PUBCHEM_BOND_DEF_STEREO_COUNT>
0

> <PUBCHEM_BOND_UDEF_STEREO_COUNT>
0

> <PUBCHEM_ISOTOPIC_ATOM_COUNT>
0

> <PUBCHEM_COMPONENT_COUNT>
1

> <PUBCHEM_CACTVS_TAUTO_COUNT>
2

> <PUBCHEM_CONFORMER_ID>
02BA9CAF00000001

> <PUBCHEM_MMFF94_ENERGY>
48.5656

> <PUBCHEM_FEATURE_SELFOVERLAP>
35.63

> <PUBCHEM_SHAPE_FINGERPRINT>
10 15 12685097016536405412
10299344 5 18411138043844991627
10595046 47 18334856112915670753
106641 1 12107798418839442716
11315181 36 16559031601972227579
11524674 6 16558749040295282943
11646440 116 16008753502190412820
11719270 70 17846498102397544222
12107183 9 17615400364479287937
12166972 35 18187367644773250812
12236239 1 18411136930815186412
12730499 353 17312823754024392490
12788726 201 17560804265020969163
12916748 109 16008745793066812540
13167372 99 18334575698680324860
13533116 47 16515673404555271304
14251752 14 18202001018877079241
14251764 18 17821444665064643176
14294032 229 17487075370027567465
14849402 71 18041570259446327164
14856354 85 18272374200605273391
14933364 13 18408605859459285405
15183329 4 18335134284804067991
15461852 350 12973888143750346867
15537594 2 16630524029299851775
17093844 174 16702295763642622639
17844677 252 18272653480426687545
18006028 8 14261350249721758763
19489759 90 9007060171558909351
200 152 18412261739942812818
21150785 3 18411141351312428380
220451 1 18408037403305218531
221357 26 18113897156971521700
22224240 67 14996004358479166776
23035841 295 18344146999203102779
23198884 109 18260268551417945305
23402539 116 18413385440778946613
23522609 53 18265639665446220821
23536379 177 18409166601815152361
23559900 14 17917701444012933737
23569943 247 16879898652500651490
23622692 88 13262402171846854594
2838139 119 17385721409142188172
29717793 49 18202007612495754724
3004659 81 18412824681775765394
314173 85 15195288637763655929
3545911 37 17022903449753858098
4073 2 17894917381622174538
4325135 7 18333449846355193615
5265222 85 18200594833836942079
5283156 175 17917997140254121282
542803 24 18407757036535168863
59682541 35 14634880764375365561
59755656 215 16486980566043327852
59755656 520 17022620896566738187
9996256 80 18187080646040621221
999808 66 18114472253598943067

> <PUBCHEM_SHAPE_MULTIPOLES>
451.11
19.86
1.52
0.99
5.22
0.16
-0.17
-0.65
2.46
-1.06
0.2
-0.15
-0.06
-1.08

> <PUBCHEM_SHAPE_SELFOVERLAP>
990.768

> <PUBCHEM_SHAPE_VOLUME>
248.5

> <PUBCHEM_COORDINATE_TYPE>
2
5
10

$$$$
