26744784
  -OEChem-12032416373D

 52 56  0     1  0  0  0  0  0999 V2000
   -5.0035    4.6878   -1.2351 F   0  0  0  0  0  0  0  0  0  0  0  0
   -2.9488    5.3950   -1.1567 F   0  0  0  0  0  0  0  0  0  0  0  0
   -4.2493    5.6222    0.5710 F   0  0  0  0  0  0  0  0  0  0  0  0
    6.7844    1.7863   -2.1015 F   0  0  0  0  0  0  0  0  0  0  0  0
    7.2644    2.3682   -0.0623 F   0  0  0  0  0  0  0  0  0  0  0  0
    8.0060    0.4903   -0.8542 F   0  0  0  0  0  0  0  0  0  0  0  0
    0.7630   -2.4002    2.1822 O   0  0  0  0  0  0  0  0  0  0  0  0
   -2.1506   -1.4228    0.4347 N   0  0  1  0  0  0  0  0  0  0  0  0
   -4.6602   -3.6336   -1.2627 N   0  0  0  0  0  0  0  0  0  0  0  0
   -2.8942   -4.9090   -1.7657 N   0  0  0  0  0  0  0  0  0  0  0  0
    1.0571   -1.4376    0.1812 N   0  0  0  0  0  0  0  0  0  0  0  0
    2.0661   -1.8863    2.1849 N   0  0  0  0  0  0  0  0  0  0  0  0
   -1.1926   -2.5489    0.7079 C   0  0  1  0  0  0  0  0  0  0  0  0
   -1.1591   -3.6036   -0.4548 C   0  0  0  0  0  0  0  0  0  0  0  0
   -3.5527   -1.9030    0.2621 C   0  0  0  0  0  0  0  0  0  0  0  0
   -3.5906   -3.0834   -0.6246 C   0  0  0  0  0  0  0  0  0  0  0  0
   -2.5248   -3.8843   -0.9416 C   0  0  0  0  0  0  0  0  0  0  0  0
   -2.1424   -0.4112    1.5000 C   0  0  0  0  0  0  0  0  0  0  0  0
    0.2400   -2.0931    0.9664 C   0  0  0  0  0  0  0  0  0  0  0  0
   -2.6012    0.9330    1.0003 C   0  0  0  0  0  0  0  0  0  0  0  0
   -4.1896   -4.7324   -1.9385 C   0  0  0  0  0  0  0  0  0  0  0  0
   -1.7420    1.7229    0.2363 C   0  0  0  0  0  0  0  0  0  0  0  0
   -3.8851    1.3881    1.3006 C   0  0  0  0  0  0  0  0  0  0  0  0
    2.1644   -1.3342    0.9720 C   0  0  0  0  0  0  0  0  0  0  0  0
   -2.1668    2.9680   -0.2272 C   0  0  0  0  0  0  0  0  0  0  0  0
   -4.3098    2.6331    0.8371 C   0  0  0  0  0  0  0  0  0  0  0  0
   -3.4507    3.4231    0.0732 C   0  0  0  0  0  0  0  0  0  0  0  0
    3.3545   -0.6738    0.5190 C   0  0  0  0  0  0  0  0  0  0  0  0
   -3.9056    4.7530   -0.4250 C   0  0  0  0  0  0  0  0  0  0  0  0
    3.3996   -0.1169   -0.7591 C   0  0  0  0  0  0  0  0  0  0  0  0
    4.4663   -0.5876    1.3569 C   0  0  0  0  0  0  0  0  0  0  0  0
    4.5565    0.5257   -1.1994 C   0  0  0  0  0  0  0  0  0  0  0  0
    5.6233    0.0549    0.9166 C   0  0  0  0  0  0  0  0  0  0  0  0
    5.6685    0.6116   -0.3616 C   0  0  0  0  0  0  0  0  0  0  0  0
    6.9054    1.2988   -0.8324 C   0  0  0  0  0  0  0  0  0  0  0  0
   -1.5429   -3.0652    1.6148 H   0  0  0  0  0  0  0  0  0  0  0  0
   -0.6832   -4.5270   -0.1041 H   0  0  0  0  0  0  0  0  0  0  0  0
   -0.5628   -3.2263   -1.2955 H   0  0  0  0  0  0  0  0  0  0  0  0
   -4.1668   -1.1097   -0.1783 H   0  0  0  0  0  0  0  0  0  0  0  0
   -3.9935   -2.1849    1.2272 H   0  0  0  0  0  0  0  0  0  0  0  0
   -1.1344   -0.2428    1.8984 H   0  0  0  0  0  0  0  0  0  0  0  0
   -2.7272   -0.7308    2.3735 H   0  0  0  0  0  0  0  0  0  0  0  0
   -5.6166   -3.3046   -1.2427 H   0  0  0  0  0  0  0  0  0  0  0  0
   -4.8411   -5.3559   -2.5342 H   0  0  0  0  0  0  0  0  0  0  0  0
   -0.7394    1.3790   -0.0044 H   0  0  0  0  0  0  0  0  0  0  0  0
   -4.5646    0.7824    1.8941 H   0  0  0  0  0  0  0  0  0  0  0  0
   -1.4824    3.5675   -0.8210 H   0  0  0  0  0  0  0  0  0  0  0  0
   -5.3121    2.9790    1.0756 H   0  0  0  0  0  0  0  0  0  0  0  0
    2.5495   -0.1672   -1.4351 H   0  0  0  0  0  0  0  0  0  0  0  0
    4.4681   -1.0091    2.3590 H   0  0  0  0  0  0  0  0  0  0  0  0
    4.5714    0.9529   -2.1983 H   0  0  0  0  0  0  0  0  0  0  0  0
    6.4849    0.1173    1.5762 H   0  0  0  0  0  0  0  0  0  0  0  0
  1 29  1  0  0  0  0
  2 29  1  0  0  0  0
  3 29  1  0  0  0  0
  4 35  1  0  0  0  0
  5 35  1  0  0  0  0
  6 35  1  0  0  0  0
  7 12  1  0  0  0  0
  7 19  1  0  0  0  0
  8 13  1  0  0  0  0
  8 15  1  0  0  0  0
  8 18  1  0  0  0  0
  9 16  1  0  0  0  0
  9 21  1  0  0  0  0
  9 43  1  0  0  0  0
 10 17  1  0  0  0  0
 10 21  2  0  0  0  0
 11 19  2  0  0  0  0
 11 24  1  0  0  0  0
 12 24  2  0  0  0  0
 13 14  1  0  0  0  0
 13 19  1  0  0  0  0
 13 36  1  0  0  0  0
 14 17  1  0  0  0  0
 14 37  1  0  0  0  0
 14 38  1  0  0  0  0
 15 16  1  0  0  0  0
 15 39  1  0  0  0  0
 15 40  1  0  0  0  0
 16 17  2  0  0  0  0
 18 20  1  0  0  0  0
 18 41  1  0  0  0  0
 18 42  1  0  0  0  0
 20 22  2  0  0  0  0
 20 23  1  0  0  0  0
 21 44  1  0  0  0  0
 22 25  1  0  0  0  0
 22 45  1  0  0  0  0
 23 26  2  0  0  0  0
 23 46  1  0  0  0  0
 24 28  1  0  0  0  0
 25 27  2  0  0  0  0
 25 47  1  0  0  0  0
 26 27  1  0  0  0  0
 26 48  1  0  0  0  0
 27 29  1  0  0  0  0
 28 30  2  0  0  0  0
 28 31  1  0  0  0  0
 30 32  1  0  0  0  0
 30 49  1  0  0  0  0
 31 33  2  0  0  0  0
 31 50  1  0  0  0  0
 32 34  2  0  0  0  0
 32 51  1  0  0  0  0
 33 34  1  0  0  0  0
 33 52  1  0  0  0  0
 34 35  1  0  0  0  0
M  END
> <PUBCHEM_COMPOUND_CID>
26744784

> <PUBCHEM_CONFORMER_RMSD>
1

> <PUBCHEM_CONFORMER_DIVERSEORDER>
1
19
25
32
31
30
12
18
14
9
28
15
35
20
4
22
24
16
10
8
23
26
13
7
29
27
11
3
33
21
34
5
17
2
6

> <PUBCHEM_MMFF94_PARTIAL_CHARGES>
45
1 -0.34
10 -0.57
11 -0.57
12 -0.41
13 0.45
14 0.18
15 0.45
16 -0.33
17 0.05
18 0.41
19 0.3
2 -0.34
20 -0.14
21 0.04
22 -0.15
23 -0.15
24 0.46
25 -0.15
26 -0.15
27 -0.14
28 0.05
29 1.16
3 -0.34
30 -0.15
31 -0.15
32 -0.15
33 -0.15
34 -0.14
35 1.16
4 -0.34
43 0.27
44 0.15
45 0.15
46 0.15
47 0.15
48 0.15
49 0.15
5 -0.34
50 0.15
51 0.15
52 0.15
6 -0.34
7 -0.02
8 -0.81
9 0.03

> <PUBCHEM_EFFECTIVE_ROTOR_COUNT>
6.8

> <PUBCHEM_PHARMACOPHORE_FEATURES>
9
1 8 cation
1 9 donor
3 11 12 24 cation
3 9 10 21 cation
5 7 11 12 19 24 rings
5 9 10 16 17 21 rings
6 20 22 23 25 26 27 rings
6 28 30 31 32 33 34 rings
6 8 13 14 15 16 17 rings

> <PUBCHEM_HEAVY_ATOM_COUNT>
35

> <PUBCHEM_ATOM_DEF_STEREO_COUNT>
1

> <PUBCHEM_ATOM_UDEF_STEREO_COUNT>
0

> <PUBCHEM_BOND_DEF_STEREO_COUNT>
0

> <PUBCHEM_BOND_UDEF_STEREO_COUNT>
0

> <PUBCHEM_ISOTOPIC_ATOM_COUNT>
0

> <PUBCHEM_COMPONENT_COUNT>
1

> <PUBCHEM_CACTVS_TAUTO_COUNT>
2

> <PUBCHEM_CONFORMER_ID>
019817D000000001

> <PUBCHEM_MMFF94_ENERGY>
66.9434

> <PUBCHEM_FEATURE_SELFOVERLAP>
45.773

> <PUBCHEM_SHAPE_FINGERPRINT>
10290309 65 18198633129115121619
10864689 126 18265057930054946092
10871710 139 18408605885545860403
10937287 8 18124311610728976835
11101153 10 18122629620021441144
11477941 20 18127123306605583222
11505856 67 18408598158915142065
12788726 201 18337093645196970675
13008946 62 18126010356505952461
13540713 5 18188474797358856354
13690498 29 18342180024013273506
13757389 114 18272651269067201711
13782708 43 17346042302771890598
13911987 19 18127689332220390473
14068700 675 18192141818385630006
14114211 80 18055642715733872649
14202776 33 18341335599610623518
14251764 75 18120100485057851344
14294032 229 18341336621839200723
14556957 393 18191029104123507334
15064981 113 18130216074191417046
15198563 99 18270112547931019631
15264996 163 18334293206192023933
15419008 42 17845102770981870070
15448158 71 18190181191785257096
15705408 1 17475486840115153087
15876981 60 18266467687700389135
15968369 153 18120115002173425096
16992828 155 18261112933061632653
17686467 74 17841713221367151906
19309040 13 17696191405574614757
21033650 10 18265074534297694374
21792964 463 17894630349110640319
21927370 108 18122359135898469563
23191077 185 18336541621307651402
23516275 100 17619057774268176024
23929065 36 18197473281781341314
24180151 214 17386552695831237667
24893989 43 15759563499309619221
249057 25 18187629337689466866
255183 451 17409920767028564327
3388396 114 17688320396556674228
3418910 222 17687479270635892728
3610482 184 18188510054924191342
376196 1 17757275877808538657
4353968 344 18341891935779197710
44249763 50 18272644671548893064
46194498 28 17273417399461673314
5171179 24 17985545791525344976
5219985 13 18265617572233936569
563151 97 18334860541502499346
6034566 193 18265328405308668677
6058803 2 18189596285938939514
6371009 1 18043244855090155156
6608658 132 18337389451846161751
6677587 24 17250300953235330573
6898599 12 18410572851496765653
7808743 9 18409731729543930952

> <PUBCHEM_SHAPE_MULTIPOLES>
645.87
15.92
7.99
1.71
36.44
5.38
0.06
10.3
-6.15
-20.19
-4.08
0.35
-0.92
-3.47

> <PUBCHEM_SHAPE_SELFOVERLAP>
1432.339

> <PUBCHEM_SHAPE_VOLUME>
348.7

> <PUBCHEM_COORDINATE_TYPE>
2
5
10

$$$$
