45783550
  -OEChem-12032416263D

 52 55  0     1  0  0  0  0  0999 V2000
   -2.9342   -0.9865    2.4389 F   0  0  0  0  0  0  0  0  0  0  0  0
   -1.9346    0.5354   -2.1147 O   0  0  0  0  0  0  0  0  0  0  0  0
    5.1448    0.0059    0.5545 O   0  0  0  0  0  0  0  0  0  0  0  0
    7.8652    0.6474    0.4070 O   0  0  0  0  0  0  0  0  0  0  0  0
   -4.1327    0.9282    0.5988 N   0  0  1  0  0  0  0  0  0  0  0  0
   -1.0890    1.1747   -0.1416 N   0  0  0  0  0  0  0  0  0  0  0  0
   -0.5746    0.2019   -2.1473 N   0  0  0  0  0  0  0  0  0  0  0  0
    3.4666   -0.2714   -1.0238 N   0  0  0  0  0  0  0  0  0  0  0  0
   -3.5696    1.5572   -0.6126 C   0  0  1  0  0  0  0  0  0  0  0  0
   -3.6664    3.0712   -0.3482 C   0  0  0  0  0  0  0  0  0  0  0  0
   -4.3510    3.1955    1.0055 C   0  0  0  0  0  0  0  0  0  0  0  0
   -5.0937    1.8828    1.1516 C   0  0  0  0  0  0  0  0  0  0  0  0
   -4.7376   -0.3726    0.3424 C   0  0  0  0  0  0  0  0  0  0  0  0
   -2.1538    1.1033   -0.8999 C   0  0  0  0  0  0  0  0  0  0  0  0
   -3.7033   -1.4623    0.2441 C   0  0  0  0  0  0  0  0  0  0  0  0
   -2.8457   -1.7119    1.3154 C   0  0  0  0  0  0  0  0  0  0  0  0
   -3.6038   -2.2229   -0.9209 C   0  0  0  0  0  0  0  0  0  0  0  0
   -0.1454    0.6097   -0.9492 C   0  0  0  0  0  0  0  0  0  0  0  0
   -1.8886   -2.7222    1.2218 C   0  0  0  0  0  0  0  0  0  0  0  0
   -2.6466   -3.2332   -1.0145 C   0  0  0  0  0  0  0  0  0  0  0  0
    1.2188    0.4687   -0.5293 C   0  0  0  0  0  0  0  0  0  0  0  0
   -1.7889   -3.4829    0.0568 C   0  0  0  0  0  0  0  0  0  0  0  0
    1.6308    0.9060    0.7248 C   0  0  0  0  0  0  0  0  0  0  0  0
    2.1670   -0.1081   -1.3588 C   0  0  0  0  0  0  0  0  0  0  0  0
    2.9596    0.7553    1.1054 C   0  0  0  0  0  0  0  0  0  0  0  0
    3.8300    0.1657    0.2029 C   0  0  0  0  0  0  0  0  0  0  0  0
    5.9951   -0.6049   -0.4088 C   0  0  0  0  0  0  0  0  0  0  0  0
    7.4043   -0.6730    0.1475 C   0  0  0  0  0  0  0  0  0  0  0  0
    9.1770    0.6431    0.9524 C   0  0  0  0  0  0  0  0  0  0  0  0
   -4.1941    1.3390   -1.4905 H   0  0  0  0  0  0  0  0  0  0  0  0
   -2.6995    3.5857   -0.3443 H   0  0  0  0  0  0  0  0  0  0  0  0
   -4.2916    3.5398   -1.1182 H   0  0  0  0  0  0  0  0  0  0  0  0
   -5.0166    4.0622    1.0546 H   0  0  0  0  0  0  0  0  0  0  0  0
   -3.5973    3.2988    1.7960 H   0  0  0  0  0  0  0  0  0  0  0  0
   -6.0248    1.9057    0.5713 H   0  0  0  0  0  0  0  0  0  0  0  0
   -5.3311    1.6696    2.1984 H   0  0  0  0  0  0  0  0  0  0  0  0
   -5.3867   -0.3515   -0.5429 H   0  0  0  0  0  0  0  0  0  0  0  0
   -5.3925   -0.6510    1.1801 H   0  0  0  0  0  0  0  0  0  0  0  0
   -4.2637   -2.0383   -1.7643 H   0  0  0  0  0  0  0  0  0  0  0  0
   -1.2203   -2.9155    2.0557 H   0  0  0  0  0  0  0  0  0  0  0  0
   -2.5680   -3.8246   -1.9221 H   0  0  0  0  0  0  0  0  0  0  0  0
   -1.0429   -4.2687   -0.0164 H   0  0  0  0  0  0  0  0  0  0  0  0
    0.9391    1.3667    1.4252 H   0  0  0  0  0  0  0  0  0  0  0  0
    1.9272   -0.4755   -2.3522 H   0  0  0  0  0  0  0  0  0  0  0  0
    3.2972    1.0909    2.0799 H   0  0  0  0  0  0  0  0  0  0  0  0
    6.0018    0.0002   -1.3240 H   0  0  0  0  0  0  0  0  0  0  0  0
    5.6460   -1.6195   -0.6342 H   0  0  0  0  0  0  0  0  0  0  0  0
    7.4047   -1.2399    1.0858 H   0  0  0  0  0  0  0  0  0  0  0  0
    8.0681   -1.1632   -0.5732 H   0  0  0  0  0  0  0  0  0  0  0  0
    9.1942    0.1090    1.9073 H   0  0  0  0  0  0  0  0  0  0  0  0
    9.8826    0.1860    0.2518 H   0  0  0  0  0  0  0  0  0  0  0  0
    9.4806    1.6788    1.1270 H   0  0  0  0  0  0  0  0  0  0  0  0
  1 16  1  0  0  0  0
  2  7  1  0  0  0  0
  2 14  1  0  0  0  0
  3 26  1  0  0  0  0
  3 27  1  0  0  0  0
  4 28  1  0  0  0  0
  4 29  1  0  0  0  0
  5  9  1  0  0  0  0
  5 12  1  0  0  0  0
  5 13  1  0  0  0  0
  6 14  2  0  0  0  0
  6 18  1  0  0  0  0
  7 18  2  0  0  0  0
  8 24  1  0  0  0  0
  8 26  2  0  0  0  0
  9 10  1  0  0  0  0
  9 14  1  0  0  0  0
  9 30  1  0  0  0  0
 10 11  1  0  0  0  0
 10 31  1  0  0  0  0
 10 32  1  0  0  0  0
 11 12  1  0  0  0  0
 11 33  1  0  0  0  0
 11 34  1  0  0  0  0
 12 35  1  0  0  0  0
 12 36  1  0  0  0  0
 13 15  1  0  0  0  0
 13 37  1  0  0  0  0
 13 38  1  0  0  0  0
 15 16  1  0  0  0  0
 15 17  2  0  0  0  0
 16 19  2  0  0  0  0
 17 20  1  0  0  0  0
 17 39  1  0  0  0  0
 18 21  1  0  0  0  0
 19 22  1  0  0  0  0
 19 40  1  0  0  0  0
 20 22  2  0  0  0  0
 20 41  1  0  0  0  0
 21 23  1  0  0  0  0
 21 24  2  0  0  0  0
 22 42  1  0  0  0  0
 23 25  2  0  0  0  0
 23 43  1  0  0  0  0
 24 44  1  0  0  0  0
 25 26  1  0  0  0  0
 25 45  1  0  0  0  0
 27 28  1  0  0  0  0
 27 46  1  0  0  0  0
 27 47  1  0  0  0  0
 28 48  1  0  0  0  0
 28 49  1  0  0  0  0
 29 50  1  0  0  0  0
 29 51  1  0  0  0  0
 29 52  1  0  0  0  0
M  END
> <PUBCHEM_COMPOUND_CID>
45783550

> <PUBCHEM_CONFORMER_RMSD>
1

> <PUBCHEM_CONFORMER_DIVERSEORDER>
1
141
71
78
134
112
100
17
127
93
99
110
136
105
42
44
86
29
124
90
19
80
58
104
73
4
31
68
122
83
52
126
113
49
50
36
82
106
119
114
21
129
111
57
137
41
130
64
22
107
14
24
125
16
46
54
116
43
85
108
27
12
140
120
138
55
66
103
135
60
3
77
96
72
48
121
95
101
11
35
139
37
92
10
87
59
28
109
26
128
13
132
117
56
97
94
81
61
89
131
115
34
53
88
15
133
79
74
45
25
123
38
20
102
2
69
76
65
18
47
118
40
84
91
39
75
63
8
30
32
7
98
62
51
23
67
70
33
5
6
9

> <PUBCHEM_MMFF94_PARTIAL_CHARGES>
34
1 -0.19
12 0.27
13 0.41
14 0.3
15 -0.14
16 0.19
17 -0.15
18 0.46
19 -0.15
2 -0.02
20 -0.15
21 0.05
22 -0.15
23 -0.15
24 0.16
25 -0.15
26 0.39
27 0.28
28 0.28
29 0.28
3 -0.36
39 0.15
4 -0.56
40 0.15
41 0.15
42 0.15
43 0.15
44 0.15
45 0.15
5 -0.81
6 -0.57
7 -0.41
8 -0.62
9 0.45

> <PUBCHEM_EFFECTIVE_ROTOR_COUNT>
9

> <PUBCHEM_PHARMACOPHORE_FEATURES>
7
1 4 acceptor
1 5 cation
3 6 7 18 cation
5 2 6 7 14 18 rings
5 5 9 10 11 12 rings
6 15 16 17 19 20 22 rings
6 8 21 23 24 25 26 rings

> <PUBCHEM_HEAVY_ATOM_COUNT>
29

> <PUBCHEM_ATOM_DEF_STEREO_COUNT>
1

> <PUBCHEM_ATOM_UDEF_STEREO_COUNT>
0

> <PUBCHEM_BOND_DEF_STEREO_COUNT>
0

> <PUBCHEM_BOND_UDEF_STEREO_COUNT>
0

> <PUBCHEM_ISOTOPIC_ATOM_COUNT>
0

> <PUBCHEM_COMPONENT_COUNT>
1

> <PUBCHEM_CACTVS_TAUTO_COUNT>
1

> <PUBCHEM_CONFORMER_ID>
02BA99FE00000001

> <PUBCHEM_MMFF94_ENERGY>
62.0967

> <PUBCHEM_FEATURE_SELFOVERLAP>
35.523

> <PUBCHEM_SHAPE_FINGERPRINT>
11135926 11 16226038978019943762
11315181 36 18408318908351812684
12422481 6 17751073600855878451
12616971 3 16805614659549297564
12633257 1 17986974001400213227
12655364 131 15481278076628655342
13004483 165 17983294022219412071
13583140 156 17561082531293112103
14844126 61 18337676412044729355
14856354 85 18410015459446914092
15021287 119 17167587085637044084
15183329 4 16660081106006337930
15537594 2 17240199907150191624
17093844 174 18341608218296360048
17780758 139 18407758153142321845
17844677 252 18341614858479641620
20554085 129 18124859189427631857
21033648 29 18128554681972445781
21236236 1 18334573564403137206
21756936 100 18342451508891064653
23516275 137 18046083566227223370
23559900 14 18263075690028704268
23728640 28 18335710476943847563
3383291 50 18334303106271353139
397830 11 18200021989159585704
4073 2 18413388727336432190
4169191 19 14692280807995643152
469060 322 16264289024423122793
484985 159 18261663870344902671
4938544 92 18343582945226685188
5265222 85 18337687389991408222
5364581 5 18268988868496356032
58260988 114 16154289311451124185
59755656 520 18338232665584550956
602551 16 18408326596316671236
68570916 9 18260830449790447652
7226269 152 18130506327622149592
9953998 17 18333729126851795584

> <PUBCHEM_SHAPE_MULTIPOLES>
552
17.31
3.32
1.59
51.92
1.35
0.08
-4.4
-5.5
-7.19
-0.4
-0.97
0.15
0.16

> <PUBCHEM_SHAPE_SELFOVERLAP>
1186.339

> <PUBCHEM_SHAPE_VOLUME>
307.4

> <PUBCHEM_COORDINATE_TYPE>
2
5
10

$$$$
