45360656
  -OEChem-12032416373D

 67 71  0     1  0  0  0  0  0999 V2000
   -6.0416   -3.5594   -0.5827 F   0  0  0  0  0  0  0  0  0  0  0  0
   -1.3520   -2.7501    2.3576 O   0  0  0  0  0  0  0  0  0  0  0  0
   -4.6808    3.1370    0.0985 O   0  0  0  0  0  0  0  0  0  0  0  0
   -1.2040    0.6016    0.9196 N   0  0  1  0  0  0  0  0  0  0  0  0
    2.3078   -0.0848    0.3436 N   0  0  0  0  0  0  0  0  0  0  0  0
   -1.9658   -0.7529    3.2560 N   0  0  0  0  0  0  0  0  0  0  0  0
    6.4392   -1.7071   -0.2427 N   0  0  0  0  0  0  0  0  0  0  0  0
   -3.3359    2.0765   -1.4684 N   0  0  0  0  0  0  0  0  0  0  0  0
   -1.2493   -0.8655    0.8745 C   0  0  1  0  0  0  0  0  0  0  0  0
    0.8756    0.0410    0.1264 C   0  0  1  0  0  0  0  0  0  0  0  0
    0.1222   -1.2760    0.3155 C   0  0  0  0  0  0  0  0  0  0  0  0
   -2.1987    1.2064    1.7984 C   0  0  1  0  0  0  0  0  0  0  0  0
    0.1934    0.9844    1.1076 C   0  0  0  0  0  0  0  0  0  0  0  0
   -2.0502    0.6888    3.2205 C   0  0  0  0  0  0  0  0  0  0  0  0
   -1.5019   -1.5320    2.2237 C   0  0  0  0  0  0  0  0  0  0  0  0
   -2.1691    2.7350    1.7647 C   0  0  0  0  0  0  0  0  0  0  0  0
   -2.2745    3.2565    0.3381 C   0  0  0  0  0  0  0  0  0  0  0  0
    2.9664   -0.6539   -0.8254 C   0  0  0  0  0  0  0  0  0  0  0  0
    4.4457   -0.8063   -0.6185 C   0  0  0  0  0  0  0  0  0  0  0  0
   -3.5705    2.8349   -0.3307 C   0  0  0  0  0  0  0  0  0  0  0  0
    5.4157    0.2346   -0.6417 C   0  0  0  0  0  0  0  0  0  0  0  0
    5.1054   -1.9880   -0.3709 C   0  0  0  0  0  0  0  0  0  0  0  0
    6.6578   -0.3574   -0.4032 C   0  0  0  0  0  0  0  0  0  0  0  0
    5.3559    1.6278   -0.8434 C   0  0  0  0  0  0  0  0  0  0  0  0
    7.8480    0.3772   -0.3562 C   0  0  0  0  0  0  0  0  0  0  0  0
   -4.4084    1.5542   -2.2815 C   0  0  0  0  0  0  0  0  0  0  0  0
    7.4589   -2.6982    0.0260 C   0  0  0  0  0  0  0  0  0  0  0  0
    6.5383    2.3754   -0.7991 C   0  0  0  0  0  0  0  0  0  0  0  0
    7.7641    1.7577   -0.5590 C   0  0  0  0  0  0  0  0  0  0  0  0
   -4.8441    0.1907   -1.8284 C   0  0  0  0  0  0  0  0  0  0  0  0
   -4.2378   -0.9474   -2.3602 C   0  0  0  0  0  0  0  0  0  0  0  0
   -5.8549    0.0618   -0.8759 C   0  0  0  0  0  0  0  0  0  0  0  0
   -4.6423   -2.2143   -1.9398 C   0  0  0  0  0  0  0  0  0  0  0  0
   -6.2596   -1.2051   -0.4554 C   0  0  0  0  0  0  0  0  0  0  0  0
   -5.6532   -2.3430   -0.9874 C   0  0  0  0  0  0  0  0  0  0  0  0
   -2.0522   -1.1867    0.2008 H   0  0  0  0  0  0  0  0  0  0  0  0
    0.6800    0.4258   -0.8861 H   0  0  0  0  0  0  0  0  0  0  0  0
    0.6609   -1.9415    1.0011 H   0  0  0  0  0  0  0  0  0  0  0  0
    0.0216   -1.7978   -0.6432 H   0  0  0  0  0  0  0  0  0  0  0  0
   -3.1852    0.8820    1.4386 H   0  0  0  0  0  0  0  0  0  0  0  0
    0.5382    0.8033    2.1330 H   0  0  0  0  0  0  0  0  0  0  0  0
    0.3978    2.0278    0.8502 H   0  0  0  0  0  0  0  0  0  0  0  0
   -2.9112    0.9783    3.8327 H   0  0  0  0  0  0  0  0  0  0  0  0
   -1.1510    1.0770    3.7112 H   0  0  0  0  0  0  0  0  0  0  0  0
   -1.2534    3.1241    2.2262 H   0  0  0  0  0  0  0  0  0  0  0  0
   -3.0057    3.1227    2.3600 H   0  0  0  0  0  0  0  0  0  0  0  0
    2.6992    0.8394    0.5272 H   0  0  0  0  0  0  0  0  0  0  0  0
   -2.1505   -1.2118    4.1427 H   0  0  0  0  0  0  0  0  0  0  0  0
   -2.2793    4.3536    0.3603 H   0  0  0  0  0  0  0  0  0  0  0  0
   -1.4051    2.9788   -0.2653 H   0  0  0  0  0  0  0  0  0  0  0  0
    2.5438   -1.6394   -1.0582 H   0  0  0  0  0  0  0  0  0  0  0  0
    2.8041   -0.0195   -1.7064 H   0  0  0  0  0  0  0  0  0  0  0  0
    4.7338   -2.9999   -0.2759 H   0  0  0  0  0  0  0  0  0  0  0  0
   -2.3842    1.8472   -1.7391 H   0  0  0  0  0  0  0  0  0  0  0  0
    4.4088    2.1252   -1.0323 H   0  0  0  0  0  0  0  0  0  0  0  0
    8.8054   -0.0976   -0.1698 H   0  0  0  0  0  0  0  0  0  0  0  0
   -5.2553    2.2505   -2.2649 H   0  0  0  0  0  0  0  0  0  0  0  0
   -4.0488    1.5180   -3.3161 H   0  0  0  0  0  0  0  0  0  0  0  0
    6.9990   -3.6864    0.1067 H   0  0  0  0  0  0  0  0  0  0  0  0
    7.9502   -2.4408    0.9678 H   0  0  0  0  0  0  0  0  0  0  0  0
    8.1744   -2.6894   -0.8002 H   0  0  0  0  0  0  0  0  0  0  0  0
    6.4983    3.4503   -0.9540 H   0  0  0  0  0  0  0  0  0  0  0  0
    8.6701    2.3576   -0.5289 H   0  0  0  0  0  0  0  0  0  0  0  0
   -3.4470   -0.8601   -3.1006 H   0  0  0  0  0  0  0  0  0  0  0  0
   -6.3386    0.9388   -0.4550 H   0  0  0  0  0  0  0  0  0  0  0  0
   -4.1695   -3.1005   -2.3527 H   0  0  0  0  0  0  0  0  0  0  0  0
   -7.0467   -1.3059    0.2860 H   0  0  0  0  0  0  0  0  0  0  0  0
  1 35  1  0  0  0  0
  2 15  2  0  0  0  0
  3 20  2  0  0  0  0
  4  9  1  0  0  0  0
  4 12  1  0  0  0  0
  4 13  1  0  0  0  0
  5 10  1  0  0  0  0
  5 18  1  0  0  0  0
  5 47  1  0  0  0  0
  6 14  1  0  0  0  0
  6 15  1  0  0  0  0
  6 48  1  0  0  0  0
  7 22  1  0  0  0  0
  7 23  1  0  0  0  0
  7 27  1  0  0  0  0
  8 20  1  0  0  0  0
  8 26  1  0  0  0  0
  8 54  1  0  0  0  0
  9 11  1  0  0  0  0
  9 15  1  0  0  0  0
  9 36  1  0  0  0  0
 10 11  1  0  0  0  0
 10 13  1  0  0  0  0
 10 37  1  0  0  0  0
 11 38  1  0  0  0  0
 11 39  1  0  0  0  0
 12 14  1  0  0  0  0
 12 16  1  0  0  0  0
 12 40  1  0  0  0  0
 13 41  1  0  0  0  0
 13 42  1  0  0  0  0
 14 43  1  0  0  0  0
 14 44  1  0  0  0  0
 16 17  1  0  0  0  0
 16 45  1  0  0  0  0
 16 46  1  0  0  0  0
 17 20  1  0  0  0  0
 17 49  1  0  0  0  0
 17 50  1  0  0  0  0
 18 19  1  0  0  0  0
 18 51  1  0  0  0  0
 18 52  1  0  0  0  0
 19 21  1  0  0  0  0
 19 22  2  0  0  0  0
 21 23  1  0  0  0  0
 21 24  2  0  0  0  0
 22 53  1  0  0  0  0
 23 25  2  0  0  0  0
 24 28  1  0  0  0  0
 24 55  1  0  0  0  0
 25 29  1  0  0  0  0
 25 56  1  0  0  0  0
 26 30  1  0  0  0  0
 26 57  1  0  0  0  0
 26 58  1  0  0  0  0
 27 59  1  0  0  0  0
 27 60  1  0  0  0  0
 27 61  1  0  0  0  0
 28 29  2  0  0  0  0
 28 62  1  0  0  0  0
 29 63  1  0  0  0  0
 30 31  2  0  0  0  0
 30 32  1  0  0  0  0
 31 33  1  0  0  0  0
 31 64  1  0  0  0  0
 32 34  2  0  0  0  0
 32 65  1  0  0  0  0
 33 35  2  0  0  0  0
 33 66  1  0  0  0  0
 34 35  1  0  0  0  0
 34 67  1  0  0  0  0
M  END
> <PUBCHEM_COMPOUND_CID>
45360656

> <PUBCHEM_CONFORMER_RMSD>
1.4

> <PUBCHEM_CONFORMER_DIVERSEORDER>
1
41
99
39
3
68
17
109
38
101
57
112
113
32
29
72
107
85
76
93
9
133
37
124
5
28
30
43
134
132
60
22
14
121
64
34
126
103
80
52
62
127
78
97
74
128
66
10
130
13
59
111
120
84
118
31
87
79
20
82
116
77
110
91
89
47
83
23
26
71
102
58
122
125
108
27
119
40
55
19
25
6
96
123
21
11
36
8
104
92
44
56
63
106
86
51
18
65
7
45
67
98
95
16
50
117
114
46
100
49
131
94
53
4
12
69
70
61
33
105
15
129
115
81
2
73
24
90
54
88
75
42
35
48

> <PUBCHEM_MMFF94_PARTIAL_CHARGES>
44
1 -0.19
10 0.27
12 0.27
13 0.27
14 0.3
15 0.57
17 0.06
18 0.45
19 -0.18
2 -0.57
20 0.57
22 -0.3
23 -0.15
24 -0.15
25 -0.15
26 0.44
27 0.26
28 -0.15
29 -0.15
3 -0.57
30 -0.14
31 -0.15
32 -0.15
33 -0.15
34 -0.15
35 0.19
4 -0.81
47 0.36
48 0.37
5 -0.9
53 0.15
54 0.37
55 0.15
56 0.15
6 -0.73
62 0.15
63 0.15
64 0.15
65 0.15
66 0.15
67 0.15
7 0.05
8 -0.73
9 0.33

> <PUBCHEM_EFFECTIVE_ROTOR_COUNT>
10.2

> <PUBCHEM_PHARMACOPHORE_FEATURES>
13
1 2 acceptor
1 3 acceptor
1 4 cation
1 5 cation
1 5 donor
1 6 donor
1 7 cation
1 8 donor
5 4 9 10 11 13 rings
5 7 19 21 22 23 rings
6 21 23 24 25 28 29 rings
6 30 31 32 33 34 35 rings
6 4 6 9 12 14 15 rings

> <PUBCHEM_HEAVY_ATOM_COUNT>
35

> <PUBCHEM_ATOM_DEF_STEREO_COUNT>
3

> <PUBCHEM_ATOM_UDEF_STEREO_COUNT>
0

> <PUBCHEM_BOND_DEF_STEREO_COUNT>
0

> <PUBCHEM_BOND_UDEF_STEREO_COUNT>
0

> <PUBCHEM_ISOTOPIC_ATOM_COUNT>
0

> <PUBCHEM_COMPONENT_COUNT>
1

> <PUBCHEM_CACTVS_TAUTO_COUNT>
6

> <PUBCHEM_CONFORMER_ID>
02B4261000000001

> <PUBCHEM_MMFF94_ENERGY>
66.965

> <PUBCHEM_FEATURE_SELFOVERLAP>
66.253

> <PUBCHEM_SHAPE_FINGERPRINT>
10554248 39 17894921690128285910
10577160 103 17896883363983650364
10577160 183 16732975389469279242
11007060 377 17095519587045445065
12373685 5 17968084332043679730
12988421 55 13335299694459663133
13692115 27 16269652355875213598
13941219 33 10447931667640309140
14068700 675 17131829914680567803
14114207 22 13613980868284951197
14340393 91 18341893008908773442
14400156 147 17197972290885853351
14932701 244 18412266125558226325
15183329 4 17676200260787372190
15461852 350 18272375257309510204
22440779 20 15913331278100090707
2838139 119 18043253444597745500
3117164 225 8646479734896177878
3383291 50 16370729257441724571
3552219 110 17417262059715193713
4015057 19 18409171013142893152
4098825 35 18410008836201200404
4938544 92 7853561422978201741
504579 68 18341623642135804878
6086070 43 15574715850114036228
70634741 139 18130784577114889134

> <PUBCHEM_SHAPE_MULTIPOLES>
676.37
21.58
3.63
2.48
35.27
0.55
1.69
-4.75
-11.6
-3.1
-0.06
-4.34
-0.13
-1.68

> <PUBCHEM_SHAPE_SELFOVERLAP>
1460.01

> <PUBCHEM_SHAPE_VOLUME>
374

> <PUBCHEM_COORDINATE_TYPE>
2
5
10

$$$$
