45783765
  -OEChem-12032416263D

 47 50  0     1  0  0  0  0  0999 V2000
   -1.2757   -2.1486    1.5601 O   0  0  0  0  0  0  0  0  0  0  0  0
   -3.4705   -0.2496   -0.6942 N   0  0  1  0  0  0  0  0  0  0  0  0
   -0.6199   -1.0232   -0.2620 N   0  0  0  0  0  0  0  0  0  0  0  0
    0.1219   -2.0833    1.6248 N   0  0  0  0  0  0  0  0  0  0  0  0
    4.1445   -1.2266    0.6774 N   0  0  0  0  0  0  0  0  0  0  0  0
    5.7281   -0.2383   -0.8027 N   0  0  0  0  0  0  0  0  0  0  0  0
    1.3584    3.4655   -1.8572 N   0  0  0  0  0  0  0  0  0  0  0  0
   -3.1123   -1.4309    0.1161 C   0  0  1  0  0  0  0  0  0  0  0  0
   -3.6085   -2.6344   -0.7063 C   0  0  0  0  0  0  0  0  0  0  0  0
   -4.2842   -2.0295   -1.9287 C   0  0  0  0  0  0  0  0  0  0  0  0
   -4.6454   -0.6280   -1.4796 C   0  0  0  0  0  0  0  0  0  0  0  0
   -3.7073    0.9453    0.1056 C   0  0  0  0  0  0  0  0  0  0  0  0
   -1.6303   -1.5012    0.4193 C   0  0  0  0  0  0  0  0  0  0  0  0
   -2.4199    1.6066    0.5203 C   0  0  0  0  0  0  0  0  0  0  0  0
   -1.5146    2.0420   -0.4476 C   0  0  0  0  0  0  0  0  0  0  0  0
   -2.1334    1.7853    1.8738 C   0  0  0  0  0  0  0  0  0  0  0  0
    0.4338   -1.4049    0.5164 C   0  0  0  0  0  0  0  0  0  0  0  0
   -0.3228    2.6558   -0.0620 C   0  0  0  0  0  0  0  0  0  0  0  0
   -0.9418    2.3994    2.2593 C   0  0  0  0  0  0  0  0  0  0  0  0
    1.7873   -1.0937    0.1574 C   0  0  0  0  0  0  0  0  0  0  0  0
   -0.0363    2.8345    1.2916 C   0  0  0  0  0  0  0  0  0  0  0  0
    2.0759   -0.3871   -1.0048 C   0  0  0  0  0  0  0  0  0  0  0  0
    2.8478   -1.4873    0.9575 C   0  0  0  0  0  0  0  0  0  0  0  0
    0.6048    3.1026   -1.0526 C   0  0  0  0  0  0  0  0  0  0  0  0
    3.3979   -0.0997   -1.3269 C   0  0  0  0  0  0  0  0  0  0  0  0
    4.3864   -0.5378   -0.4603 C   0  0  0  0  0  0  0  0  0  0  0  0
    6.8359   -0.6331    0.0053 C   0  0  0  0  0  0  0  0  0  0  0  0
   -3.6613   -1.4307    1.0683 H   0  0  0  0  0  0  0  0  0  0  0  0
   -2.8124   -3.3255   -1.0040 H   0  0  0  0  0  0  0  0  0  0  0  0
   -4.3449   -3.2008   -0.1232 H   0  0  0  0  0  0  0  0  0  0  0  0
   -5.1573   -2.6065   -2.2469 H   0  0  0  0  0  0  0  0  0  0  0  0
   -3.5760   -1.9925   -2.7659 H   0  0  0  0  0  0  0  0  0  0  0  0
   -5.5557   -0.6476   -0.8670 H   0  0  0  0  0  0  0  0  0  0  0  0
   -4.8038    0.0392   -2.3325 H   0  0  0  0  0  0  0  0  0  0  0  0
   -4.2527    1.6908   -0.4903 H   0  0  0  0  0  0  0  0  0  0  0  0
   -4.3495    0.7346    0.9709 H   0  0  0  0  0  0  0  0  0  0  0  0
   -1.7403    1.9075   -1.5035 H   0  0  0  0  0  0  0  0  0  0  0  0
   -2.8283    1.4495    2.6388 H   0  0  0  0  0  0  0  0  0  0  0  0
   -0.7183    2.5375    3.3132 H   0  0  0  0  0  0  0  0  0  0  0  0
    0.8889    3.3102    1.6078 H   0  0  0  0  0  0  0  0  0  0  0  0
    1.2923   -0.0517   -1.6790 H   0  0  0  0  0  0  0  0  0  0  0  0
    2.7080   -2.0417    1.8807 H   0  0  0  0  0  0  0  0  0  0  0  0
    3.6295    0.4505   -2.2330 H   0  0  0  0  0  0  0  0  0  0  0  0
    5.8767    0.4636   -1.5197 H   0  0  0  0  0  0  0  0  0  0  0  0
    6.8850   -1.7222    0.1062 H   0  0  0  0  0  0  0  0  0  0  0  0
    7.7711   -0.3005   -0.4557 H   0  0  0  0  0  0  0  0  0  0  0  0
    6.7786   -0.1862    1.0032 H   0  0  0  0  0  0  0  0  0  0  0  0
  1  4  1  0  0  0  0
  1 13  1  0  0  0  0
  2  8  1  0  0  0  0
  2 11  1  0  0  0  0
  2 12  1  0  0  0  0
  3 13  2  0  0  0  0
  3 17  1  0  0  0  0
  4 17  2  0  0  0  0
  5 23  1  0  0  0  0
  5 26  2  0  0  0  0
  6 26  1  0  0  0  0
  6 27  1  0  0  0  0
  6 44  1  0  0  0  0
  7 24  3  0  0  0  0
  8  9  1  0  0  0  0
  8 13  1  0  0  0  0
  8 28  1  0  0  0  0
  9 10  1  0  0  0  0
  9 29  1  0  0  0  0
  9 30  1  0  0  0  0
 10 11  1  0  0  0  0
 10 31  1  0  0  0  0
 10 32  1  0  0  0  0
 11 33  1  0  0  0  0
 11 34  1  0  0  0  0
 12 14  1  0  0  0  0
 12 35  1  0  0  0  0
 12 36  1  0  0  0  0
 14 15  2  0  0  0  0
 14 16  1  0  0  0  0
 15 18  1  0  0  0  0
 15 37  1  0  0  0  0
 16 19  2  0  0  0  0
 16 38  1  0  0  0  0
 17 20  1  0  0  0  0
 18 21  2  0  0  0  0
 18 24  1  0  0  0  0
 19 21  1  0  0  0  0
 19 39  1  0  0  0  0
 20 22  1  0  0  0  0
 20 23  2  0  0  0  0
 21 40  1  0  0  0  0
 22 25  2  0  0  0  0
 22 41  1  0  0  0  0
 23 42  1  0  0  0  0
 25 26  1  0  0  0  0
 25 43  1  0  0  0  0
 27 45  1  0  0  0  0
 27 46  1  0  0  0  0
 27 47  1  0  0  0  0
M  END
> <PUBCHEM_COMPOUND_CID>
45783765

> <PUBCHEM_CONFORMER_RMSD>
0.8

> <PUBCHEM_CONFORMER_DIVERSEORDER>
1
113
61
194
114
72
134
187
64
15
13
41
63
191
128
21
53
155
2
16
142
106
149
202
153
62
198
148
42
139
99
172
131
76
165
190
111
100
129
156
189
108
135
98
184
11
107
7
116
110
36
103
18
177
80
164
159
174
144
117
154
176
141
27
197
120
137
179
168
151
158
145
3
161
65
90
12
166
199
146
46
39
34
88
175
115
71
118
140
195
31
201
47
96
57
193
109
127
77
169
200
69
180
4
170
89
94
79
102
163
82
183
95
26
188
75
101
160
22
147
162
73
173
167
92
119
8
70
126
28
81
130
74
49
125
133
157
14
40
192
56
58
83
29
67
152
30
136
50
104
91
87
55
60
52
35
9
93
123
86
48
150
25
121
66
97
32
19
112
105
143
78
17
84
68
122
182
124
178
185
132
33
85
186
10
54
138
45
196
44
37
59
181
38
24
23
20
43
51
5
171
6

> <PUBCHEM_MMFF94_PARTIAL_CHARGES>
33
1 -0.02
11 0.27
12 0.41
13 0.3
14 -0.14
15 -0.15
16 -0.15
17 0.46
18 0.07
19 -0.15
2 -0.81
20 0.05
21 -0.15
22 -0.15
23 0.16
24 0.48
25 -0.15
26 0.41
27 0.37
3 -0.57
37 0.15
38 0.15
39 0.15
4 -0.41
40 0.15
41 0.15
42 0.15
43 0.15
44 0.4
5 -0.62
6 -0.87
7 -0.56
8 0.45

> <PUBCHEM_EFFECTIVE_ROTOR_COUNT>
6

> <PUBCHEM_PHARMACOPHORE_FEATURES>
9
1 2 cation
1 6 donor
1 7 acceptor
3 3 4 17 cation
3 5 6 26 cation
5 1 3 4 13 17 rings
5 2 8 9 10 11 rings
6 14 15 16 18 19 21 rings
6 5 20 22 23 25 26 rings

> <PUBCHEM_HEAVY_ATOM_COUNT>
27

> <PUBCHEM_ATOM_DEF_STEREO_COUNT>
1

> <PUBCHEM_ATOM_UDEF_STEREO_COUNT>
0

> <PUBCHEM_BOND_DEF_STEREO_COUNT>
0

> <PUBCHEM_BOND_UDEF_STEREO_COUNT>
0

> <PUBCHEM_ISOTOPIC_ATOM_COUNT>
0

> <PUBCHEM_COMPONENT_COUNT>
1

> <PUBCHEM_CACTVS_TAUTO_COUNT>
8

> <PUBCHEM_CONFORMER_ID>
02BA9AD500000001

> <PUBCHEM_MMFF94_ENERGY>
59.8986

> <PUBCHEM_FEATURE_SELFOVERLAP>
45.672

> <PUBCHEM_SHAPE_FINGERPRINT>
10871710 139 18190181187453742453
1100329 8 18410866464399240649
12156800 1 16594159821068385476
12166972 35 17749955573666176950
12788726 201 18341324505309755723
13583140 156 15430331234338811042
14142880 1 18122076312058882593
14790565 3 17768250111950992121
14910302 57 17560241293513888670
15420108 30 16675817023821843042
16090146 7 17489314101447688431
17357779 13 18201147836566549091
17492 54 18262787464059359869
18336668 15 18334298677505611685
20600515 1 18119502544147404400
20642791 239 18187634809155528177
20691752 17 18187351147703224417
20775438 99 17118854767362952863
20905425 154 17982736569428152893
21304303 64 17822014160232193733
21623110 236 18339934800343813720
23402539 116 18412262831060074686
23419403 2 17982129527034944309
23557571 272 17917712379010374246
23559900 14 18191297380507279087
4280585 95 18335127713857857820
469060 322 18260275109458739376
484989 97 17897449621695165179
57527295 17 17698169792106596709
57527585 103 17825704180804439714
7471813 234 18270679908367330782

> <PUBCHEM_SHAPE_MULTIPOLES>
519.89
9.95
3.81
1.78
13.64
2.79
0.18
-6.27
-3.51
-2.25
0.02
-0.64
0.58
-1.88

> <PUBCHEM_SHAPE_SELFOVERLAP>
1129.177

> <PUBCHEM_SHAPE_VOLUME>
283.4

> <PUBCHEM_COORDINATE_TYPE>
2
5
10

$$$$
