26763474
  -OEChem-12032416133D

 58 60  0     1  0  0  0  0  0999 V2000
    4.6062    1.4817    0.0323 S   0  0  0  0  0  0  0  0  0  0  0  0
    4.2464   -0.4702   -2.1251 S   0  0  0  0  0  0  0  0  0  0  0  0
   -0.1119   -0.7215    1.9269 O   0  0  0  0  0  0  0  0  0  0  0  0
   -2.8544    2.6509    1.8466 O   0  0  0  0  0  0  0  0  0  0  0  0
    4.8503    1.5207    1.4616 O   0  0  0  0  0  0  0  0  0  0  0  0
    5.5627    2.0675   -0.8873 O   0  0  0  0  0  0  0  0  0  0  0  0
   -2.8698   -3.1761    0.3595 O   0  0  0  0  0  0  0  0  0  0  0  0
   -0.9920    1.5973    0.8881 N   0  0  0  0  0  0  0  0  0  0  0  0
    3.0688    2.1221   -0.2970 N   0  0  0  0  0  0  0  0  0  0  0  0
   -0.5130   -1.8008   -0.0964 N   0  0  0  0  0  0  0  0  0  0  0  0
   -3.6191    1.9279   -1.1806 N   0  0  0  0  0  0  0  0  0  0  0  0
   -4.4881    1.2031   -1.9055 N   0  0  0  0  0  0  0  0  0  0  0  0
   -1.7817   -4.4553    1.9265 N   0  0  0  0  0  0  0  0  0  0  0  0
    1.8766    1.5723    0.3933 C   0  0  2  0  0  0  0  0  0  0  0  0
    0.9017    1.0117   -0.6436 C   0  0  0  0  0  0  0  0  0  0  0  0
   -0.4408    0.5938   -0.0400 C   0  0  1  0  0  0  0  0  0  0  0  0
    1.2149    2.6766    1.2119 C   0  0  0  0  0  0  0  0  0  0  0  0
   -0.0620    2.1683    1.8686 C   0  0  0  0  0  0  0  0  0  0  0  0
   -0.3411   -0.6964    0.7205 C   0  0  0  0  0  0  0  0  0  0  0  0
   -2.3522    1.9200    0.9940 C   0  0  0  0  0  0  0  0  0  0  0  0
   -3.2779    1.3520    0.0078 C   0  0  0  0  0  0  0  0  0  0  0  0
   -0.4413   -3.1607    0.3872 C   0  0  2  0  0  0  0  0  0  0  0  0
    4.4055   -0.2098   -0.4401 C   0  0  0  0  0  0  0  0  0  0  0  0
   -3.9723    0.1683    0.0644 C   0  0  0  0  0  0  0  0  0  0  0  0
    0.0525   -4.1028   -0.6993 C   0  0  0  0  0  0  0  0  0  0  0  0
   -4.7002    0.1294   -1.1400 C   0  0  0  0  0  0  0  0  0  0  0  0
    4.3483   -1.3874    0.2725 C   0  0  0  0  0  0  0  0  0  0  0  0
   -1.8241   -3.5662    0.8734 C   0  0  0  0  0  0  0  0  0  0  0  0
   -3.1470    3.1906   -1.6998 C   0  0  0  0  0  0  0  0  0  0  0  0
    4.1718   -2.5183   -0.5761 C   0  0  0  0  0  0  0  0  0  0  0  0
    4.1007   -2.1619   -1.9048 C   0  0  0  0  0  0  0  0  0  0  0  0
   -5.6176   -0.9268   -1.5995 C   0  0  0  0  0  0  0  0  0  0  0  0
    2.1786    0.7719    1.0788 H   0  0  0  0  0  0  0  0  0  0  0  0
    1.3559    0.1682   -1.1746 H   0  0  0  0  0  0  0  0  0  0  0  0
    0.7084    1.7830   -1.4021 H   0  0  0  0  0  0  0  0  0  0  0  0
   -1.1392    0.4507   -0.8700 H   0  0  0  0  0  0  0  0  0  0  0  0
    0.9776    3.5302    0.5630 H   0  0  0  0  0  0  0  0  0  0  0  0
    1.9051    3.0478    1.9787 H   0  0  0  0  0  0  0  0  0  0  0  0
    0.1636    1.4301    2.6421 H   0  0  0  0  0  0  0  0  0  0  0  0
   -0.5424    3.0058    2.3871 H   0  0  0  0  0  0  0  0  0  0  0  0
    2.8966    2.5472   -1.2167 H   0  0  0  0  0  0  0  0  0  0  0  0
   -0.7522   -1.6604   -1.0739 H   0  0  0  0  0  0  0  0  0  0  0  0
    0.2583   -3.1834    1.2315 H   0  0  0  0  0  0  0  0  0  0  0  0
   -3.9544   -0.5583    0.8639 H   0  0  0  0  0  0  0  0  0  0  0  0
   -0.6291   -4.1121   -1.5576 H   0  0  0  0  0  0  0  0  0  0  0  0
    1.0398   -3.7977   -1.0616 H   0  0  0  0  0  0  0  0  0  0  0  0
    0.1259   -5.1292   -0.3248 H   0  0  0  0  0  0  0  0  0  0  0  0
    4.4270   -1.4382    1.3508 H   0  0  0  0  0  0  0  0  0  0  0  0
   -2.1012    3.0683   -1.9922 H   0  0  0  0  0  0  0  0  0  0  0  0
   -3.7487    3.4773   -2.5663 H   0  0  0  0  0  0  0  0  0  0  0  0
   -3.2435    3.9492   -0.9193 H   0  0  0  0  0  0  0  0  0  0  0  0
    4.0987   -3.5408   -0.2295 H   0  0  0  0  0  0  0  0  0  0  0  0
    3.9687   -2.8142   -2.7565 H   0  0  0  0  0  0  0  0  0  0  0  0
   -6.6276   -0.5282   -1.7399 H   0  0  0  0  0  0  0  0  0  0  0  0
   -5.2777   -1.3476   -2.5516 H   0  0  0  0  0  0  0  0  0  0  0  0
   -5.6777   -1.7453   -0.8746 H   0  0  0  0  0  0  0  0  0  0  0  0
   -0.9096   -4.7845    2.3279 H   0  0  0  0  0  0  0  0  0  0  0  0
   -2.6362   -4.8151    2.3386 H   0  0  0  0  0  0  0  0  0  0  0  0
  1  5  2  0  0  0  0
  1  6  2  0  0  0  0
  1  9  1  0  0  0  0
  1 23  1  0  0  0  0
  2 23  1  0  0  0  0
  2 31  1  0  0  0  0
  3 19  2  0  0  0  0
  4 20  2  0  0  0  0
  7 28  2  0  0  0  0
  8 16  1  0  0  0  0
  8 18  1  0  0  0  0
  8 20  1  0  0  0  0
  9 14  1  0  0  0  0
  9 41  1  0  0  0  0
 10 19  1  0  0  0  0
 10 22  1  0  0  0  0
 10 42  1  0  0  0  0
 11 12  1  0  0  0  0
 11 21  1  0  0  0  0
 11 29  1  0  0  0  0
 12 26  2  0  0  0  0
 13 28  1  0  0  0  0
 13 57  1  0  0  0  0
 13 58  1  0  0  0  0
 14 15  1  0  0  0  0
 14 17  1  0  0  0  0
 14 33  1  0  0  0  0
 15 16  1  0  0  0  0
 15 34  1  0  0  0  0
 15 35  1  0  0  0  0
 16 19  1  0  0  0  0
 16 36  1  0  0  0  0
 17 18  1  0  0  0  0
 17 37  1  0  0  0  0
 17 38  1  0  0  0  0
 18 39  1  0  0  0  0
 18 40  1  0  0  0  0
 20 21  1  0  0  0  0
 21 24  2  0  0  0  0
 22 25  1  0  0  0  0
 22 28  1  0  0  0  0
 22 43  1  0  0  0  0
 23 27  2  0  0  0  0
 24 26  1  0  0  0  0
 24 44  1  0  0  0  0
 25 45  1  0  0  0  0
 25 46  1  0  0  0  0
 25 47  1  0  0  0  0
 26 32  1  0  0  0  0
 27 30  1  0  0  0  0
 27 48  1  0  0  0  0
 29 49  1  0  0  0  0
 29 50  1  0  0  0  0
 29 51  1  0  0  0  0
 30 31  2  0  0  0  0
 30 52  1  0  0  0  0
 31 53  1  0  0  0  0
 32 54  1  0  0  0  0
 32 55  1  0  0  0  0
 32 56  1  0  0  0  0
M  END
> <PUBCHEM_COMPOUND_CID>
26763474

> <PUBCHEM_CONFORMER_RMSD>
1

> <PUBCHEM_CONFORMER_DIVERSEORDER>
1
146
233
210
48
69
164
242
187
240
204
175
67
209
181
91
169
147
122
253
179
214
104
252
263
243
189
249
130
236
148
217
241
139
152
265
88
200
275
159
4
114
68
25
220
278
182
53
229
90
276
222
143
52
256
34
268
129
218
111
215
105
174
250
131
64
186
269
44
247
161
60
283
82
254
219
110
271
261
108
277
133
262
93
178
109
281
124
58
102
70
259
244
188
106
184
190
173
145
96
193
255
176
272
128
63
16
10
221
212
248
202
282
226
168
264
191
98
155
206
50
167
267
123
232
57
251
71
239
205
203
231
81
274
163
279
84
38
45
211
43
126
166
132
197
237
142
29
280
149
72
47
172
257
266
55
56
59
92
245
14
225
74
180
138
86
6
165
101
54
213
230
216
112
17
160
273
125
144
270
46
127
116
97
238
103
65
99
258
113
194
121
223
115
120
107
153
156
40
135
170
66
228
234
41
198
224
208
154
227
75
192
162
185
62
119
118
196
207
31
183
24
51
246
80
140
18
79
49
89
23
199
151
30
73
9
12
35
137
22
260
61
177
158
141
8
77
19
201
195
7
134
117
20
36
32
150
13
39
15
11
3
78
83
21
157
171
235
100
95
94
76
136
85
2
5
87
26
28
33
42
37
27

> <PUBCHEM_MMFF94_PARTIAL_CHARGES>
37
1 1.5
10 -0.73
11 0.31
12 -0.71
13 -0.8
14 0.36
16 0.36
18 0.3
19 0.57
2 -0.08
20 0.71
21 -0.24
22 0.36
23 -0.02
24 -0.15
26 0.11
27 -0.15
28 0.57
29 0.26
3 -0.57
30 -0.15
31 -0.11
32 0.18
4 -0.57
41 0.42
42 0.37
44 0.15
48 0.15
5 -0.65
52 0.15
53 0.15
57 0.37
58 0.37
6 -0.65
7 -0.57
8 -0.66
9 -0.91

> <PUBCHEM_EFFECTIVE_ROTOR_COUNT>
10.2

> <PUBCHEM_PHARMACOPHORE_FEATURES>
12
1 10 donor
1 12 acceptor
1 13 donor
1 3 acceptor
1 4 acceptor
1 5 acceptor
1 6 acceptor
1 7 acceptor
1 9 donor
5 11 12 21 24 26 rings
5 2 23 27 30 31 rings
6 8 14 15 16 17 18 rings

> <PUBCHEM_HEAVY_ATOM_COUNT>
32

> <PUBCHEM_ATOM_DEF_STEREO_COUNT>
3

> <PUBCHEM_ATOM_UDEF_STEREO_COUNT>
0

> <PUBCHEM_BOND_DEF_STEREO_COUNT>
0

> <PUBCHEM_BOND_UDEF_STEREO_COUNT>
0

> <PUBCHEM_ISOTOPIC_ATOM_COUNT>
0

> <PUBCHEM_COMPONENT_COUNT>
1

> <PUBCHEM_CACTVS_TAUTO_COUNT>
4

> <PUBCHEM_CONFORMER_ID>
019860D200000001

> <PUBCHEM_MMFF94_ENERGY>
61.5925

> <PUBCHEM_FEATURE_SELFOVERLAP>
60.918

> <PUBCHEM_SHAPE_FINGERPRINT>
108634 29 18341615932031347374
11135609 187 18412823573094590896
12422481 6 18047507588324465643
12788726 201 18131351903756068840
13383661 66 17121105455185849023
14251757 17 18410855460297031842
15420108 30 16187221522849297624
15775530 1 17766262550776872793
17349148 13 18131079181991545372
17909252 39 17560790052710584847
1813 80 12966835836644745051
19958102 18 18335416880725032214
20197701 30 18335127674912729047
20775438 99 18129641076670172662
22393880 68 18265320721332569093
23559900 14 18197776811605865144
3298306 158 18264202509243015447
460360 51 18260271858390087962
6669772 16 17700666696465395512

> <PUBCHEM_SHAPE_MULTIPOLES>
607.01
11.13
5.07
1.92
3.6
4.89
0.16
-2.25
6.02
-1.4
-1.47
-0.59
-0.17
1.8

> <PUBCHEM_SHAPE_SELFOVERLAP>
1248.579

> <PUBCHEM_SHAPE_VOLUME>
351.1

> <PUBCHEM_COORDINATE_TYPE>
2
5
10

$$$$
