75537043
  -OEChem-12032416313D

 47 50  0     1  0  0  0  0  0999 V2000
    4.7654    3.8710   -0.0036 F   0  0  0  0  0  0  0  0  0  0  0  0
    3.5204    2.8658    1.4849 F   0  0  0  0  0  0  0  0  0  0  0  0
    3.2067    2.4921   -0.6706 F   0  0  0  0  0  0  0  0  0  0  0  0
   -4.1732   -2.2866    0.1836 O   0  0  0  0  0  0  0  0  0  0  0  0
    5.0872    1.6622    0.3324 O   0  0  0  0  0  0  0  0  0  0  0  0
   -1.8912   -1.8997   -0.0930 N   0  0  0  0  0  0  0  0  0  0  0  0
    0.8833   -2.1646    0.2923 N   0  0  2  0  0  0  0  0  0  0  0  0
   -3.2623   -0.0987   -0.1519 N   0  0  0  0  0  0  0  0  0  0  0  0
   -5.6243    0.1845    0.0379 N   0  0  0  0  0  0  0  0  0  0  0  0
   -1.0262   -0.8037   -0.4520 C   0  0  2  0  0  0  0  0  0  0  0  0
    0.2530   -0.8324    0.3835 C   0  0  0  0  0  0  0  0  0  0  0  0
   -1.9035    0.4246   -0.2418 C   0  0  0  0  0  0  0  0  0  0  0  0
   -1.3385   -3.2363   -0.0042 C   0  0  0  0  0  0  0  0  0  0  0  0
   -0.0303   -3.2126    0.7897 C   0  0  0  0  0  0  0  0  0  0  0  0
   -3.2395   -1.5176   -0.0038 C   0  0  0  0  0  0  0  0  0  0  0  0
    2.1400   -2.1861    1.0405 C   0  0  0  0  0  0  0  0  0  0  0  0
   -4.4079    0.7484   -0.1351 C   0  0  0  0  0  0  0  0  0  0  0  0
    3.2512   -1.5018    0.2898 C   0  0  0  0  0  0  0  0  0  0  0  0
   -4.1993    2.1084   -0.2984 C   0  0  0  0  0  0  0  0  0  0  0  0
    3.6602   -0.2217    0.6636 C   0  0  0  0  0  0  0  0  0  0  0  0
    3.8714   -2.1476   -0.7801 C   0  0  0  0  0  0  0  0  0  0  0  0
   -5.3110    2.9434   -0.2831 C   0  0  0  0  0  0  0  0  0  0  0  0
    4.6893    0.4127   -0.0321 C   0  0  0  0  0  0  0  0  0  0  0  0
    4.9003   -1.5131   -1.4759 C   0  0  0  0  0  0  0  0  0  0  0  0
   -6.6811    1.0276    0.0472 C   0  0  0  0  0  0  0  0  0  0  0  0
    5.3095   -0.2330   -1.1019 C   0  0  0  0  0  0  0  0  0  0  0  0
   -6.5790    2.4007   -0.1075 C   0  0  0  0  0  0  0  0  0  0  0  0
    4.1292    2.7140    0.2896 C   0  0  0  0  0  0  0  0  0  0  0  0
   -0.7895   -0.9193   -1.5182 H   0  0  0  0  0  0  0  0  0  0  0  0
    0.9168   -0.0502   -0.0002 H   0  0  0  0  0  0  0  0  0  0  0  0
    0.0290   -0.5909    1.4315 H   0  0  0  0  0  0  0  0  0  0  0  0
   -1.6690    0.9483    0.6917 H   0  0  0  0  0  0  0  0  0  0  0  0
   -1.7928    1.1040   -1.0930 H   0  0  0  0  0  0  0  0  0  0  0  0
   -1.1614   -3.5831   -1.0289 H   0  0  0  0  0  0  0  0  0  0  0  0
   -2.0701   -3.9067    0.4576 H   0  0  0  0  0  0  0  0  0  0  0  0
   -0.2520   -3.0456    1.8524 H   0  0  0  0  0  0  0  0  0  0  0  0
    0.4401   -4.1993    0.7024 H   0  0  0  0  0  0  0  0  0  0  0  0
    2.4680   -3.2224    1.2045 H   0  0  0  0  0  0  0  0  0  0  0  0
    2.0227   -1.7607    2.0466 H   0  0  0  0  0  0  0  0  0  0  0  0
   -3.2263    2.5658   -0.4287 H   0  0  0  0  0  0  0  0  0  0  0  0
    3.1814    0.2786    1.5016 H   0  0  0  0  0  0  0  0  0  0  0  0
    3.5615   -3.1449   -1.0812 H   0  0  0  0  0  0  0  0  0  0  0  0
   -5.1900    4.0156   -0.4057 H   0  0  0  0  0  0  0  0  0  0  0  0
    5.3830   -2.0155   -2.3090 H   0  0  0  0  0  0  0  0  0  0  0  0
   -7.6475    0.5548    0.1874 H   0  0  0  0  0  0  0  0  0  0  0  0
    6.1113    0.2564   -1.6480 H   0  0  0  0  0  0  0  0  0  0  0  0
   -7.4596    3.0326   -0.0917 H   0  0  0  0  0  0  0  0  0  0  0  0
  1 28  1  0  0  0  0
  2 28  1  0  0  0  0
  3 28  1  0  0  0  0
  4 15  2  0  0  0  0
  5 23  1  0  0  0  0
  5 28  1  0  0  0  0
  6 10  1  0  0  0  0
  6 13  1  0  0  0  0
  6 15  1  0  0  0  0
  7 11  1  0  0  0  0
  7 14  1  0  0  0  0
  7 16  1  0  0  0  0
  8 12  1  0  0  0  0
  8 15  1  0  0  0  0
  8 17  1  0  0  0  0
  9 17  1  0  0  0  0
  9 25  2  0  0  0  0
 10 11  1  0  0  0  0
 10 12  1  0  0  0  0
 10 29  1  0  0  0  0
 11 30  1  0  0  0  0
 11 31  1  0  0  0  0
 12 32  1  0  0  0  0
 12 33  1  0  0  0  0
 13 14  1  0  0  0  0
 13 34  1  0  0  0  0
 13 35  1  0  0  0  0
 14 36  1  0  0  0  0
 14 37  1  0  0  0  0
 16 18  1  0  0  0  0
 16 38  1  0  0  0  0
 16 39  1  0  0  0  0
 17 19  2  0  0  0  0
 18 20  2  0  0  0  0
 18 21  1  0  0  0  0
 19 22  1  0  0  0  0
 19 40  1  0  0  0  0
 20 23  1  0  0  0  0
 20 41  1  0  0  0  0
 21 24  2  0  0  0  0
 21 42  1  0  0  0  0
 22 27  2  0  0  0  0
 22 43  1  0  0  0  0
 23 26  2  0  0  0  0
 24 26  1  0  0  0  0
 24 44  1  0  0  0  0
 25 27  1  0  0  0  0
 25 45  1  0  0  0  0
 26 46  1  0  0  0  0
 27 47  1  0  0  0  0
M  END
> <PUBCHEM_COMPOUND_CID>
75537043

> <PUBCHEM_CONFORMER_RMSD>
0.8

> <PUBCHEM_CONFORMER_DIVERSEORDER>
1
132
165
79
15
63
198
151
166
190
140
164
44
204
189
35
167
187
112
92
57
155
158
128
137
206
67
208
143
66
108
179
61
24
200
31
214
124
162
188
120
102
32
142
178
115
147
149
186
123
7
91
47
109
173
8
26
192
169
88
111
205
127
73
172
71
185
22
175
89
103
170
217
114
94
156
2
119
154
53
157
131
176
125
203
168
110
30
152
49
50
41
56
193
211
60
135
54
138
29
181
58
148
33
55
105
144
104
159
212
180
195
81
134
80
40
21
62
10
78
118
25
133
171
38
136
210
201
153
82
12
98
87
163
196
160
182
28
199
90
85
76
197
106
209
6
95
59
161
129
36
116
17
37
107
139
207
70
65
39
64
177
183
96
74
51
43
202
101
69
174
97
150
23
18
130
46
75
126
77
68
72
117
99
191
5
122
48
216
52
113
213
4
184
13
45
34
194
42
146
141
145
215
83
121
11
27
84
14
20
3
100
16
9
93
86
19

> <PUBCHEM_MMFF94_PARTIAL_CHARGES>
36
1 -0.34
10 0.3
11 0.27
12 0.3
13 0.3
14 0.27
15 0.69
16 0.41
17 0.43
18 -0.14
19 -0.15
2 -0.34
20 -0.15
21 -0.15
22 -0.15
23 0.08
24 -0.15
25 0.16
26 -0.15
27 -0.15
28 1.3
3 -0.34
4 -0.57
40 0.15
41 0.15
42 0.15
43 0.15
44 0.15
45 0.15
46 0.15
47 0.15
5 -0.36
6 -0.66
7 -0.81
8 -0.48
9 -0.62

> <PUBCHEM_EFFECTIVE_ROTOR_COUNT>
6.2

> <PUBCHEM_PHARMACOPHORE_FEATURES>
8
1 4 acceptor
1 5 acceptor
1 7 cation
1 9 acceptor
5 6 8 10 12 15 rings
6 18 20 21 23 24 26 rings
6 6 7 10 11 13 14 rings
6 9 17 19 22 25 27 rings

> <PUBCHEM_HEAVY_ATOM_COUNT>
28

> <PUBCHEM_ATOM_DEF_STEREO_COUNT>
1

> <PUBCHEM_ATOM_UDEF_STEREO_COUNT>
0

> <PUBCHEM_BOND_DEF_STEREO_COUNT>
0

> <PUBCHEM_BOND_UDEF_STEREO_COUNT>
0

> <PUBCHEM_ISOTOPIC_ATOM_COUNT>
0

> <PUBCHEM_COMPONENT_COUNT>
1

> <PUBCHEM_CACTVS_TAUTO_COUNT>
1

> <PUBCHEM_CONFORMER_ID>
04809A9300000001

> <PUBCHEM_MMFF94_ENERGY>
83.3656

> <PUBCHEM_FEATURE_SELFOVERLAP>
40.693

> <PUBCHEM_SHAPE_FINGERPRINT>
11070050 100 16588304951846586210
11720765 8 17988363655771137146
1200032 147 16733850695488472276
12390115 104 18339653252420990339
12422481 6 17023181583499292365
12925494 130 18409444817376318465
13944108 23 17907016171245713149
14020679 6 17240778276178812449
14251764 38 18192150623606792892
14429114 114 18267298918486258137
14528608 73 18338233769781705143
14790565 3 18410292480648208547
14840074 17 17531257123333597623
14931854 50 18270979964042736748
15001296 14 18335136496781537977
15142526 21 18186800262455564011
15320467 1 18409728469443239621
15322687 12 18412260619041004776
15351339 4 18343295929621649841
16067689 134 17550680915425734329
16760501 71 18408042892885267937
17844677 252 18411987974321979307
18335252 114 18266170626424621446
19053607 189 18196363943712614264
20715895 44 18412258437603462408
21033648 29 18408321116249657746
21049683 118 17749380473171317019
21315764 268 18189892028980746245
23559900 14 18343866589547612942
245318 6 17968674803235287605
249057 3 18270965644395243326
2747138 104 17970083334040413787
2838139 119 18410286978700364879
338550 245 18260834842503053908
3472631 163 18413388726497811903
34797466 226 18131074814210239615
3552219 110 17916313900349614579
5104073 3 18040711467760471091
5223283 242 17699312978486965102
5312510 48 18412265008328866744
53794403 172 18334863861195701812
57527585 21 17763733687466126454
5951187 136 18343028761554827228
633830 44 18412535509659069550

> <PUBCHEM_SHAPE_MULTIPOLES>
522.74
16.4
4.38
0.93
12.54
1.76
0.04
12.57
2.22
-2.13
-0.69
-1.16
-0.07
1.15

> <PUBCHEM_SHAPE_SELFOVERLAP>
1131.003

> <PUBCHEM_SHAPE_VOLUME>
287.1

> <PUBCHEM_COORDINATE_TYPE>
2
5
10

$$$$
