75536597
  -OEChem-12032416303D

 42 44  0     1  0  0  0  0  0999 V2000
    6.7025   -0.7123    0.8762 S   0  0  0  0  0  0  0  0  0  0  0  0
    0.6758    0.9958   -0.0322 O   0  0  0  0  0  0  0  0  0  0  0  0
   -0.4926   -2.3952   -0.2352 O   0  0  0  0  0  0  0  0  0  0  0  0
    4.1081   -1.8700    0.0824 O   0  0  0  0  0  0  0  0  0  0  0  0
   -2.7530   -0.2146   -0.1283 N   0  0  0  0  0  0  0  0  0  0  0  0
    3.2032   -0.0093   -0.9673 N   0  0  0  0  0  0  0  0  0  0  0  0
   -5.8556   -0.6618    1.0061 N   0  0  0  0  0  0  0  0  0  0  0  0
   -1.3632   -0.1772    0.2967 C   0  0  1  0  0  0  0  0  0  0  0  0
   -0.4404   -1.0205   -0.5637 C   0  0  1  0  0  0  0  0  0  0  0  0
    0.9131   -0.4080   -0.2296 C   0  0  1  0  0  0  0  0  0  0  0  0
   -0.7364    1.1996    0.1500 C   0  0  0  0  0  0  0  0  0  0  0  0
    1.9476   -0.6049   -1.3233 C   0  0  0  0  0  0  0  0  0  0  0  0
   -3.6324    0.3212    0.9040 C   0  0  0  0  0  0  0  0  0  0  0  0
   -5.0753    0.3058    0.4745 C   0  0  0  0  0  0  0  0  0  0  0  0
    4.1979   -0.7007   -0.2824 C   0  0  0  0  0  0  0  0  0  0  0  0
   -5.5265    1.2606   -0.4225 C   0  0  0  0  0  0  0  0  0  0  0  0
    5.4303    0.0659    0.0348 C   0  0  0  0  0  0  0  0  0  0  0  0
   -6.8646    1.2199   -0.7980 C   0  0  0  0  0  0  0  0  0  0  0  0
   -7.1506   -0.6699    0.6176 C   0  0  0  0  0  0  0  0  0  0  0  0
    5.7301    1.3785   -0.2567 C   0  0  0  0  0  0  0  0  0  0  0  0
   -7.6989    0.2394   -0.2724 C   0  0  0  0  0  0  0  0  0  0  0  0
    7.0215    1.7501    0.2168 C   0  0  0  0  0  0  0  0  0  0  0  0
    7.6593    0.7076    0.8523 C   0  0  0  0  0  0  0  0  0  0  0  0
   -1.2743   -0.5278    1.3348 H   0  0  0  0  0  0  0  0  0  0  0  0
   -0.6761   -0.9022   -1.6287 H   0  0  0  0  0  0  0  0  0  0  0  0
    1.2983   -0.8102    0.7167 H   0  0  0  0  0  0  0  0  0  0  0  0
   -1.1024    1.7319   -0.7356 H   0  0  0  0  0  0  0  0  0  0  0  0
   -0.9005    1.8343    1.0260 H   0  0  0  0  0  0  0  0  0  0  0  0
    1.6269   -0.1147   -2.2491 H   0  0  0  0  0  0  0  0  0  0  0  0
    2.0956   -1.6706   -1.5282 H   0  0  0  0  0  0  0  0  0  0  0  0
   -3.0180   -1.1815   -0.3184 H   0  0  0  0  0  0  0  0  0  0  0  0
   -3.3608    1.3535    1.1576 H   0  0  0  0  0  0  0  0  0  0  0  0
   -3.5363   -0.2672    1.8257 H   0  0  0  0  0  0  0  0  0  0  0  0
   -0.2839   -2.4921    0.7093 H   0  0  0  0  0  0  0  0  0  0  0  0
    3.3415    0.9618   -1.2251 H   0  0  0  0  0  0  0  0  0  0  0  0
   -4.8678    2.0222   -0.8262 H   0  0  0  0  0  0  0  0  0  0  0  0
   -7.2568    1.9509   -1.4986 H   0  0  0  0  0  0  0  0  0  0  0  0
   -7.7589   -1.4542    1.0558 H   0  0  0  0  0  0  0  0  0  0  0  0
    5.0741    2.0601   -0.7819 H   0  0  0  0  0  0  0  0  0  0  0  0
   -8.7452    0.1886   -0.5509 H   0  0  0  0  0  0  0  0  0  0  0  0
    7.4604    2.7321    0.0976 H   0  0  0  0  0  0  0  0  0  0  0  0
    8.6415    0.7119    1.3036 H   0  0  0  0  0  0  0  0  0  0  0  0
  1 17  1  0  0  0  0
  1 23  1  0  0  0  0
  2 10  1  0  0  0  0
  2 11  1  0  0  0  0
  3  9  1  0  0  0  0
  3 34  1  0  0  0  0
  4 15  2  0  0  0  0
  5  8  1  0  0  0  0
  5 13  1  0  0  0  0
  5 31  1  0  0  0  0
  6 12  1  0  0  0  0
  6 15  1  0  0  0  0
  6 35  1  0  0  0  0
  7 14  1  0  0  0  0
  7 19  2  0  0  0  0
  8  9  1  0  0  0  0
  8 11  1  0  0  0  0
  8 24  1  0  0  0  0
  9 10  1  0  0  0  0
  9 25  1  0  0  0  0
 10 12  1  0  0  0  0
 10 26  1  0  0  0  0
 11 27  1  0  0  0  0
 11 28  1  0  0  0  0
 12 29  1  0  0  0  0
 12 30  1  0  0  0  0
 13 14  1  0  0  0  0
 13 32  1  0  0  0  0
 13 33  1  0  0  0  0
 14 16  2  0  0  0  0
 15 17  1  0  0  0  0
 16 18  1  0  0  0  0
 16 36  1  0  0  0  0
 17 20  2  0  0  0  0
 18 21  2  0  0  0  0
 18 37  1  0  0  0  0
 19 21  1  0  0  0  0
 19 38  1  0  0  0  0
 20 22  1  0  0  0  0
 20 39  1  0  0  0  0
 21 40  1  0  0  0  0
 22 23  2  0  0  0  0
 22 41  1  0  0  0  0
 23 42  1  0  0  0  0
M  END
> <PUBCHEM_COMPOUND_CID>
75536597

> <PUBCHEM_CONFORMER_RMSD>
1

> <PUBCHEM_CONFORMER_DIVERSEORDER>
1
20
43
130
82
169
121
151
7
139
19
53
119
107
45
149
24
181
89
54
17
103
60
166
123
39
57
87
171
163
148
2
153
109
100
36
69
174
52
81
150
84
138
177
134
96
14
12
159
88
102
162
118
122
59
70
111
58
97
79
93
5
108
71
175
16
74
113
104
32
51
129
22
114
176
157
18
156
90
99
66
182
128
160
179
29
101
85
92
13
65
127
158
47
124
77
15
62
132
173
55
172
27
131
141
80
38
41
56
145
40
147
42
31
98
67
168
137
136
78
112
146
9
180
154
164
30
83
61
50
116
161
6
125
28
10
4
106
133
86
126
75
143
34
105
37
76
3
44
25
95
68
64
48
94
110
144
155
117
35
33
142
165
167
140
73
152
8
63
135
23
46
26
21
120
49
72
178
11
115
91
170

> <PUBCHEM_MMFF94_PARTIAL_CHARGES>
33
1 -0.08
10 0.28
11 0.28
12 0.3
13 0.41
14 0.17
15 0.71
16 -0.15
17 -0.05
18 -0.15
19 0.16
2 -0.56
20 -0.15
21 -0.15
22 -0.15
23 -0.11
3 -0.68
31 0.36
34 0.4
35 0.37
36 0.15
37 0.15
38 0.15
39 0.15
4 -0.57
40 0.15
41 0.15
42 0.15
5 -0.9
6 -0.73
7 -0.62
8 0.27
9 0.28

> <PUBCHEM_EFFECTIVE_ROTOR_COUNT>
8

> <PUBCHEM_PHARMACOPHORE_FEATURES>
11
1 2 acceptor
1 3 acceptor
1 3 donor
1 4 acceptor
1 5 cation
1 5 donor
1 6 donor
1 7 acceptor
5 1 17 20 22 23 rings
5 2 8 9 10 11 rings
6 7 14 16 18 19 21 rings

> <PUBCHEM_HEAVY_ATOM_COUNT>
23

> <PUBCHEM_ATOM_DEF_STEREO_COUNT>
3

> <PUBCHEM_ATOM_UDEF_STEREO_COUNT>
0

> <PUBCHEM_BOND_DEF_STEREO_COUNT>
0

> <PUBCHEM_BOND_UDEF_STEREO_COUNT>
0

> <PUBCHEM_ISOTOPIC_ATOM_COUNT>
0

> <PUBCHEM_COMPONENT_COUNT>
1

> <PUBCHEM_CACTVS_TAUTO_COUNT>
2

> <PUBCHEM_CONFORMER_ID>
048098D500000001

> <PUBCHEM_MMFF94_ENERGY>
42.7589

> <PUBCHEM_FEATURE_SELFOVERLAP>
55.822

> <PUBCHEM_SHAPE_FINGERPRINT>
10 15 18334576858437032586
10299344 5 8214142962493038541
106641 1 18412546543424336427
11315181 36 18059858360164436705
11524674 6 14634874158399095825
11638347 137 18113899338888559826
11719270 70 18335141981681374602
125118 31 18260832583545532404
12592606 108 11314317161173712553
13533116 47 17131838608327878062
13885169 127 17313099735759062597
13914758 101 16588022385880025525
14123256 10 17060338521923402816
14251764 18 18113617906217748711
14251764 46 18412825789276025480
14429380 56 18060408144993971968
14849402 71 17846501478009724089
14856354 85 12967125026369311897
15131766 46 17098918337013264812
15183329 4 13623530151497594409
15849732 13 18334013899608834004
16090146 7 13973410217812512054
17093844 174 17748827415476785857
20157964 124 18202004305186638806
21150785 3 16343983615457771517
21365058 27 15482672381820699093
21521721 280 18060703892183385043
220451 1 14548738378929536045
221357 26 10592047951761143514
22224240 67 17846495941632913198
23035841 295 11314310555366142457
23081809 10 15913334541768930071
246663 6 11169910572235310344
28498 318 12179837303767629800
300161 21 18342175570438356974
3009799 131 18334296457286873289
34797466 226 14189575247837458320
4325135 7 17060338517586406445
4339292 15 18263082279917317715
4340502 62 17530964674847586874
5207 217 17060338526455675655
5758199 1 16487259863492977719
59682541 35 18412544348743404208
636775 72 18337671902946954909
6394761 36 13190337968007134845

> <PUBCHEM_SHAPE_MULTIPOLES>
444.63
25.01
1.57
0.96
4.66
0.2
-0.02
-6.67
4.33
-1.12
-0.1
0
0.06
0.71

> <PUBCHEM_SHAPE_SELFOVERLAP>
926.087

> <PUBCHEM_SHAPE_VOLUME>
253.9

> <PUBCHEM_COORDINATE_TYPE>
2
5
10

$$$$
