38031080
  -OEChem-12032416363D

 63 66  0     1  0  0  0  0  0999 V2000
   -6.0209   -0.3866    1.0871 F   0  0  0  0  0  0  0  0  0  0  0  0
   -1.8898    0.0087    0.8169 O   0  0  0  0  0  0  0  0  0  0  0  0
    3.3512    0.2880   -0.7438 N   0  0  0  0  0  0  0  0  0  0  0  0
   -2.6140    1.5363    2.2820 N   0  0  0  0  0  0  0  0  0  0  0  0
   -3.7110    0.8326    1.8212 N   0  0  0  0  0  0  0  0  0  0  0  0
    3.9320   -2.9994   -0.6681 N   0  0  0  0  0  0  0  0  0  0  0  0
    0.7797    1.7449   -1.2899 C   0  0  1  0  0  0  0  0  0  0  0  0
    2.1844    2.3951   -1.2257 C   0  0  1  0  0  0  0  0  0  0  0  0
   -0.2275    2.5618   -0.4663 C   0  0  0  0  0  0  0  0  0  0  0  0
    0.1885    2.6799    1.0121 C   0  0  2  0  0  0  0  0  0  0  0  0
    0.2813    1.6089   -2.7321 C   0  0  0  0  0  0  0  0  0  0  0  0
    1.6480    3.0601    1.1577 C   0  0  0  0  0  0  0  0  0  0  0  0
    2.5222    2.9386    0.1428 C   0  0  0  0  0  0  0  0  0  0  0  0
    3.2715    1.4079   -1.6657 C   0  0  0  0  0  0  0  0  0  0  0  0
   -0.1212    1.3889    1.7779 C   0  0  0  0  0  0  0  0  0  0  0  0
   -0.7460    0.4861   -2.8364 C   0  0  0  0  0  0  0  0  0  0  0  0
   -0.3087    2.9290   -3.2177 C   0  0  0  0  0  0  0  0  0  0  0  0
    2.0710    3.6268    2.4844 C   0  0  0  0  0  0  0  0  0  0  0  0
   -1.5735    1.0215    1.6694 C   0  0  0  0  0  0  0  0  0  0  0  0
    4.3758   -0.6623   -1.1597 C   0  0  0  0  0  0  0  0  0  0  0  0
    4.4638   -1.8369   -0.2288 C   0  0  0  0  0  0  0  0  0  0  0  0
   -3.2412   -0.0479    0.9687 C   0  0  0  0  0  0  0  0  0  0  0  0
    5.0717   -1.6796    1.0064 C   0  0  0  0  0  0  0  0  0  0  0  0
   -3.9191   -1.0417    0.1879 C   0  0  0  0  0  0  0  0  0  0  0  0
    5.1381   -2.7870    1.8445 C   0  0  0  0  0  0  0  0  0  0  0  0
    4.0152   -4.0540    0.1739 C   0  0  0  0  0  0  0  0  0  0  0  0
   -5.3045   -1.1782    0.2753 C   0  0  0  0  0  0  0  0  0  0  0  0
   -3.1884   -1.8735   -0.6606 C   0  0  0  0  0  0  0  0  0  0  0  0
    4.6022   -4.0005    1.4278 C   0  0  0  0  0  0  0  0  0  0  0  0
   -5.9592   -2.1466   -0.4857 C   0  0  0  0  0  0  0  0  0  0  0  0
   -3.8432   -2.8421   -1.4213 C   0  0  0  0  0  0  0  0  0  0  0  0
   -5.2286   -2.9788   -1.3340 C   0  0  0  0  0  0  0  0  0  0  0  0
    0.8324    0.7408   -0.8507 H   0  0  0  0  0  0  0  0  0  0  0  0
    2.2242    3.2514   -1.9109 H   0  0  0  0  0  0  0  0  0  0  0  0
   -1.2457    2.1773   -0.5689 H   0  0  0  0  0  0  0  0  0  0  0  0
   -0.2638    3.5956   -0.8367 H   0  0  0  0  0  0  0  0  0  0  0  0
   -0.4183    3.4901    1.4416 H   0  0  0  0  0  0  0  0  0  0  0  0
    1.1066    1.3421   -3.3997 H   0  0  0  0  0  0  0  0  0  0  0  0
    3.5477    3.2724    0.2900 H   0  0  0  0  0  0  0  0  0  0  0  0
    4.2376    1.9296   -1.7004 H   0  0  0  0  0  0  0  0  0  0  0  0
    3.0774    1.0506   -2.6822 H   0  0  0  0  0  0  0  0  0  0  0  0
    0.1079    1.5121    2.8433 H   0  0  0  0  0  0  0  0  0  0  0  0
    0.4969    0.5550    1.4240 H   0  0  0  0  0  0  0  0  0  0  0  0
   -1.6388    0.6831   -2.2353 H   0  0  0  0  0  0  0  0  0  0  0  0
   -0.3193   -0.4680   -2.5090 H   0  0  0  0  0  0  0  0  0  0  0  0
   -1.0713    0.3609   -3.8751 H   0  0  0  0  0  0  0  0  0  0  0  0
   -1.2806    3.1581   -2.7683 H   0  0  0  0  0  0  0  0  0  0  0  0
   -0.4885    2.8663   -4.2982 H   0  0  0  0  0  0  0  0  0  0  0  0
    0.3677    3.7754   -3.0664 H   0  0  0  0  0  0  0  0  0  0  0  0
    1.4554    4.4952    2.7403 H   0  0  0  0  0  0  0  0  0  0  0  0
    3.1159    3.9551    2.4781 H   0  0  0  0  0  0  0  0  0  0  0  0
    1.9666    2.8793    3.2763 H   0  0  0  0  0  0  0  0  0  0  0  0
    3.5653    0.6233    0.1946 H   0  0  0  0  0  0  0  0  0  0  0  0
    5.3596   -0.1783   -1.2128 H   0  0  0  0  0  0  0  0  0  0  0  0
    4.1505   -1.0331   -2.1678 H   0  0  0  0  0  0  0  0  0  0  0  0
    5.4884   -0.7291    1.3222 H   0  0  0  0  0  0  0  0  0  0  0  0
    5.6068   -2.7046    2.8205 H   0  0  0  0  0  0  0  0  0  0  0  0
    3.5824   -4.9768   -0.1980 H   0  0  0  0  0  0  0  0  0  0  0  0
   -2.1082   -1.7987   -0.7560 H   0  0  0  0  0  0  0  0  0  0  0  0
    4.6428   -4.8768    2.0645 H   0  0  0  0  0  0  0  0  0  0  0  0
   -7.0378   -2.2528   -0.4174 H   0  0  0  0  0  0  0  0  0  0  0  0
   -3.2747   -3.4901   -2.0821 H   0  0  0  0  0  0  0  0  0  0  0  0
   -5.7384   -3.7328   -1.9263 H   0  0  0  0  0  0  0  0  0  0  0  0
  1 27  1  0  0  0  0
  2 19  1  0  0  0  0
  2 22  1  0  0  0  0
  3 14  1  0  0  0  0
  3 20  1  0  0  0  0
  3 53  1  0  0  0  0
  4  5  1  0  0  0  0
  4 19  2  0  0  0  0
  5 22  2  0  0  0  0
  6 21  1  0  0  0  0
  6 26  2  0  0  0  0
  7  8  1  0  0  0  0
  7  9  1  0  0  0  0
  7 11  1  0  0  0  0
  7 33  1  0  0  0  0
  8 13  1  0  0  0  0
  8 14  1  0  0  0  0
  8 34  1  0  0  0  0
  9 10  1  0  0  0  0
  9 35  1  0  0  0  0
  9 36  1  0  0  0  0
 10 12  1  0  0  0  0
 10 15  1  0  0  0  0
 10 37  1  0  0  0  0
 11 16  1  0  0  0  0
 11 17  1  0  0  0  0
 11 38  1  0  0  0  0
 12 13  2  0  0  0  0
 12 18  1  0  0  0  0
 13 39  1  0  0  0  0
 14 40  1  0  0  0  0
 14 41  1  0  0  0  0
 15 19  1  0  0  0  0
 15 42  1  0  0  0  0
 15 43  1  0  0  0  0
 16 44  1  0  0  0  0
 16 45  1  0  0  0  0
 16 46  1  0  0  0  0
 17 47  1  0  0  0  0
 17 48  1  0  0  0  0
 17 49  1  0  0  0  0
 18 50  1  0  0  0  0
 18 51  1  0  0  0  0
 18 52  1  0  0  0  0
 20 21  1  0  0  0  0
 20 54  1  0  0  0  0
 20 55  1  0  0  0  0
 21 23  2  0  0  0  0
 22 24  1  0  0  0  0
 23 25  1  0  0  0  0
 23 56  1  0  0  0  0
 24 27  1  0  0  0  0
 24 28  2  0  0  0  0
 25 29  2  0  0  0  0
 25 57  1  0  0  0  0
 26 29  1  0  0  0  0
 26 58  1  0  0  0  0
 27 30  2  0  0  0  0
 28 31  1  0  0  0  0
 28 59  1  0  0  0  0
 29 60  1  0  0  0  0
 30 32  1  0  0  0  0
 30 61  1  0  0  0  0
 31 32  2  0  0  0  0
 31 62  1  0  0  0  0
 32 63  1  0  0  0  0
M  END
> <PUBCHEM_COMPOUND_CID>
38031080

> <PUBCHEM_CONFORMER_RMSD>
1

> <PUBCHEM_CONFORMER_DIVERSEORDER>
1
170
140
167
157
25
2
152
64
51
161
102
89
172
135
142
100
108
132
168
141
96
68
176
138
27
69
116
103
62
63
73
169
54
41
43
115
15
79
131
93
163
92
55
125
4
111
77
99
147
75
134
87
94
56
97
52
65
165
59
139
162
74
88
11
42
85
124
146
105
144
31
48
173
151
98
113
145
22
40
32
148
23
90
50
95
159
117
118
6
123
44
130
82
122
101
86
154
156
71
81
175
91
114
19
46
153
14
70
126
143
29
38
83
107
21
80
45
166
109
24
30
160
7
76
150
34
120
66
9
119
8
121
53
149
155
12
84
67
37
5
13
20
3
164
18
58
127
171
129
28
17
57
72
104
49
133
158
78
39
174
106
60
10
61
16
136
35
137
26
47
36
33
110
128
112

> <PUBCHEM_MMFF94_PARTIAL_CHARGES>
37
1 -0.19
10 0.14
12 -0.28
13 -0.29
14 0.27
15 0.18
18 0.14
19 0.3
2 -0.28
20 0.41
21 0.17
22 0.43
23 -0.15
24 0.05
25 -0.15
26 0.16
27 0.19
28 -0.15
29 -0.15
3 -0.9
30 -0.15
31 -0.15
32 -0.15
39 0.15
4 -0.34
5 -0.34
53 0.36
56 0.15
57 0.15
58 0.15
59 0.15
6 -0.62
60 0.15
61 0.15
62 0.15
63 0.15
8 0.14

> <PUBCHEM_EFFECTIVE_ROTOR_COUNT>
8.8

> <PUBCHEM_PHARMACOPHORE_FEATURES>
8
1 3 cation
1 3 donor
1 6 acceptor
3 11 16 17 hydrophobe
5 2 4 5 19 22 rings
6 24 27 28 30 31 32 rings
6 6 21 23 25 26 29 rings
6 7 8 9 10 12 13 rings

> <PUBCHEM_HEAVY_ATOM_COUNT>
32

> <PUBCHEM_ATOM_DEF_STEREO_COUNT>
3

> <PUBCHEM_ATOM_UDEF_STEREO_COUNT>
0

> <PUBCHEM_BOND_DEF_STEREO_COUNT>
0

> <PUBCHEM_BOND_UDEF_STEREO_COUNT>
0

> <PUBCHEM_ISOTOPIC_ATOM_COUNT>
0

> <PUBCHEM_COMPONENT_COUNT>
1

> <PUBCHEM_CACTVS_TAUTO_COUNT>
1

> <PUBCHEM_CONFORMER_ID>
02444EE800000001

> <PUBCHEM_MMFF94_ENERGY>
64.4461

> <PUBCHEM_FEATURE_SELFOVERLAP>
40.597

> <PUBCHEM_SHAPE_FINGERPRINT>
10622 236 18336550404436663202
11135926 11 17532963647474784284
11552529 35 17908424654826544770
12156800 1 16663701728248608076
12977781 61 18049404185563126816
131258 38 18200310043535745982
13165053 137 15233820623618024315
14028597 1 15691196041712620068
14674994 50 17829324692437804988
14705955 166 15481284694761580506
14950920 106 17629756765608715722
15163728 17 8286191777950324648
18681886 176 15983722115220915272
19315092 285 18271240637600964126
20775530 9 18042984077381307514
21458453 9 14692277482710079175
21703447 108 17987796457029859592
25019877 29 14143218918318953557
25222932 49 16982369077681446703
3027735 51 16881046504122162026
345986 75 18343023276649416118
46194498 28 16229170553980255329
474144 1 18341336685889767870
484985 159 17688589364756923294
5081480 168 17240199924435613911
513532 50 17314500629109867088
59025328 239 18114179752628507788
66674814 147 18187366553804000634

> <PUBCHEM_SHAPE_MULTIPOLES>
625.48
12.61
5.66
2.84
8.08
2.3
-0.91
17.6
2.09
-6.36
0.66
0.03
-2.4
-2.6

> <PUBCHEM_SHAPE_SELFOVERLAP>
1334.462

> <PUBCHEM_SHAPE_VOLUME>
349.4

> <PUBCHEM_COORDINATE_TYPE>
2
5
10

$$$$
