51136914
  -OEChem-12032416223D

 48 52  0     1  0  0  0  0  0999 V2000
   -2.3073   -0.4417    2.0210 O   0  0  0  0  0  0  0  0  0  0  0  0
   -4.3524   -0.7989   -0.8142 N   0  0  1  0  0  0  0  0  0  0  0  0
   -1.3681   -1.1352    0.1095 N   0  0  0  0  0  0  0  0  0  0  0  0
   -0.9412   -0.1527    2.1310 N   0  0  0  0  0  0  0  0  0  0  0  0
   -1.8918    3.5420   -0.1886 N   0  0  0  0  0  0  0  0  0  0  0  0
    3.1733    0.1712    1.2467 N   0  0  0  0  0  0  0  0  0  0  0  0
    6.8405    0.1376   -1.7304 N   0  0  0  0  0  0  0  0  0  0  0  0
    7.2689   -0.0643    0.6324 N   0  0  0  0  0  0  0  0  0  0  0  0
   -3.8837   -1.4296    0.4359 C   0  0  1  0  0  0  0  0  0  0  0  0
   -4.0154   -2.9429    0.1838 C   0  0  0  0  0  0  0  0  0  0  0  0
   -4.6222   -3.0631   -1.2070 C   0  0  0  0  0  0  0  0  0  0  0  0
   -5.3104   -1.7288   -1.4124 C   0  0  0  0  0  0  0  0  0  0  0  0
   -4.9274    0.5244   -0.6095 C   0  0  0  0  0  0  0  0  0  0  0  0
   -2.4729   -1.0186    0.8019 C   0  0  0  0  0  0  0  0  0  0  0  0
   -3.8649    1.5808   -0.4622 C   0  0  0  0  0  0  0  0  0  0  0  0
   -0.4557   -0.5904    0.9655 C   0  0  0  0  0  0  0  0  0  0  0  0
   -3.8045    2.3540    0.6918 C   0  0  0  0  0  0  0  0  0  0  0  0
   -2.9396    1.7870   -1.4796 C   0  0  0  0  0  0  0  0  0  0  0  0
    0.9351   -0.5000    0.6263 C   0  0  0  0  0  0  0  0  0  0  0  0
   -2.8080    3.3127    0.7788 C   0  0  0  0  0  0  0  0  0  0  0  0
   -1.9817    2.7710   -1.2956 C   0  0  0  0  0  0  0  0  0  0  0  0
    1.4061   -0.9676   -0.5957 C   0  0  0  0  0  0  0  0  0  0  0  0
    1.8512    0.0557    1.5047 C   0  0  0  0  0  0  0  0  0  0  0  0
    2.7597   -0.8664   -0.8974 C   0  0  0  0  0  0  0  0  0  0  0  0
    3.5942   -0.2942    0.0491 C   0  0  0  0  0  0  0  0  0  0  0  0
    5.0104   -0.1570   -0.1950 C   0  0  0  0  0  0  0  0  0  0  0  0
    5.5238    0.0091   -1.4650 C   0  0  0  0  0  0  0  0  0  0  0  0
    5.9391   -0.1866    0.8253 C   0  0  0  0  0  0  0  0  0  0  0  0
    7.6447    0.0926   -0.6511 C   0  0  0  0  0  0  0  0  0  0  0  0
   -4.5514   -1.1791    1.2723 H   0  0  0  0  0  0  0  0  0  0  0  0
   -4.7006   -3.3803    0.9204 H   0  0  0  0  0  0  0  0  0  0  0  0
   -3.0678   -3.4890    0.2436 H   0  0  0  0  0  0  0  0  0  0  0  0
   -5.3125   -3.9081   -1.2857 H   0  0  0  0  0  0  0  0  0  0  0  0
   -3.8268   -3.2019   -1.9498 H   0  0  0  0  0  0  0  0  0  0  0  0
   -5.4782   -1.5222   -2.4739 H   0  0  0  0  0  0  0  0  0  0  0  0
   -6.2746   -1.7133   -0.8884 H   0  0  0  0  0  0  0  0  0  0  0  0
   -5.5220    0.8126   -1.4880 H   0  0  0  0  0  0  0  0  0  0  0  0
   -5.6276    0.5372    0.2362 H   0  0  0  0  0  0  0  0  0  0  0  0
   -4.5076    2.2196    1.5065 H   0  0  0  0  0  0  0  0  0  0  0  0
   -2.9577    1.2062   -2.3955 H   0  0  0  0  0  0  0  0  0  0  0  0
   -2.7171    3.9410    1.6587 H   0  0  0  0  0  0  0  0  0  0  0  0
   -1.2373    2.9711   -2.0591 H   0  0  0  0  0  0  0  0  0  0  0  0
    0.7424   -1.4183   -1.3290 H   0  0  0  0  0  0  0  0  0  0  0  0
    1.5652    0.4440    2.4777 H   0  0  0  0  0  0  0  0  0  0  0  0
    3.1152   -1.2535   -1.8463 H   0  0  0  0  0  0  0  0  0  0  0  0
    4.8979    0.0695   -2.3496 H   0  0  0  0  0  0  0  0  0  0  0  0
    5.6562   -0.3216    1.8650 H   0  0  0  0  0  0  0  0  0  0  0  0
    8.7073    0.1934   -0.8351 H   0  0  0  0  0  0  0  0  0  0  0  0
  1  4  1  0  0  0  0
  1 14  1  0  0  0  0
  2  9  1  0  0  0  0
  2 12  1  0  0  0  0
  2 13  1  0  0  0  0
  3 14  2  0  0  0  0
  3 16  1  0  0  0  0
  4 16  2  0  0  0  0
  5 20  2  0  0  0  0
  5 21  1  0  0  0  0
  6 23  1  0  0  0  0
  6 25  2  0  0  0  0
  7 27  2  0  0  0  0
  7 29  1  0  0  0  0
  8 28  1  0  0  0  0
  8 29  2  0  0  0  0
  9 10  1  0  0  0  0
  9 14  1  0  0  0  0
  9 30  1  0  0  0  0
 10 11  1  0  0  0  0
 10 31  1  0  0  0  0
 10 32  1  0  0  0  0
 11 12  1  0  0  0  0
 11 33  1  0  0  0  0
 11 34  1  0  0  0  0
 12 35  1  0  0  0  0
 12 36  1  0  0  0  0
 13 15  1  0  0  0  0
 13 37  1  0  0  0  0
 13 38  1  0  0  0  0
 15 17  2  0  0  0  0
 15 18  1  0  0  0  0
 16 19  1  0  0  0  0
 17 20  1  0  0  0  0
 17 39  1  0  0  0  0
 18 21  2  0  0  0  0
 18 40  1  0  0  0  0
 19 22  1  0  0  0  0
 19 23  2  0  0  0  0
 20 41  1  0  0  0  0
 21 42  1  0  0  0  0
 22 24  2  0  0  0  0
 22 43  1  0  0  0  0
 23 44  1  0  0  0  0
 24 25  1  0  0  0  0
 24 45  1  0  0  0  0
 25 26  1  0  0  0  0
 26 27  1  0  0  0  0
 26 28  2  0  0  0  0
 27 46  1  0  0  0  0
 28 47  1  0  0  0  0
 29 48  1  0  0  0  0
M  END
> <PUBCHEM_COMPOUND_CID>
51136914

> <PUBCHEM_CONFORMER_RMSD>
0.8

> <PUBCHEM_CONFORMER_DIVERSEORDER>
1
8
60
22
37
58
2
12
7
45
35
31
61
11
5
67
39
33
66
59
17
36
34
21
24
54
40
32
64
62
41
49
6
16
3
46
30
10
14
13
52
47
57
26
65
42
63
50
55
56
44
19
9
38
43
23
18
28
27
25
48
29
20
4
51
15
53

> <PUBCHEM_MMFF94_PARTIAL_CHARGES>
36
1 -0.02
12 0.27
13 0.41
14 0.3
15 -0.14
16 0.46
17 -0.15
18 -0.15
19 0.05
2 -0.81
20 0.16
21 0.16
22 -0.15
23 0.16
24 -0.15
25 0.31
27 0.16
28 0.16
29 0.47
3 -0.57
39 0.15
4 -0.41
40 0.15
41 0.15
42 0.15
43 0.15
44 0.15
45 0.15
46 0.15
47 0.15
48 0.15
5 -0.62
6 -0.62
7 -0.62
8 -0.62
9 0.45

> <PUBCHEM_EFFECTIVE_ROTOR_COUNT>
6

> <PUBCHEM_PHARMACOPHORE_FEATURES>
11
1 2 cation
1 5 acceptor
1 6 acceptor
1 7 acceptor
3 3 4 16 cation
3 7 8 29 cation
5 1 3 4 14 16 rings
5 2 9 10 11 12 rings
6 5 15 17 18 20 21 rings
6 6 19 22 23 24 25 rings
6 7 8 26 27 28 29 rings

> <PUBCHEM_HEAVY_ATOM_COUNT>
29

> <PUBCHEM_ATOM_DEF_STEREO_COUNT>
1

> <PUBCHEM_ATOM_UDEF_STEREO_COUNT>
0

> <PUBCHEM_BOND_DEF_STEREO_COUNT>
0

> <PUBCHEM_BOND_UDEF_STEREO_COUNT>
0

> <PUBCHEM_ISOTOPIC_ATOM_COUNT>
0

> <PUBCHEM_COMPONENT_COUNT>
1

> <PUBCHEM_CACTVS_TAUTO_COUNT>
1

> <PUBCHEM_CONFORMER_ID>
030C499200000001

> <PUBCHEM_MMFF94_ENERGY>
68.4829

> <PUBCHEM_FEATURE_SELFOVERLAP>
55.824

> <PUBCHEM_SHAPE_FINGERPRINT>
10 15 12540699249740846142
10076449 9 18342174488961088535
10087517 78 18187083932028602788
10165383 225 18130793296811273017
10291535 26 18261118456578641113
10454371 7 18409736153497792092
10670039 82 18261108573906313428
11101153 10 18263932209993060332
11315181 36 17458067101228440382
11477941 20 18409722997659627836
11578080 2 18056215582391538735
12107698 1 18334855056470014164
12788726 201 18261098665712466403
12988421 55 9294476913365013615
13673619 4 17917711370157426451
13782708 43 17988925604564941070
13947920 75 18187359926510602599
14068700 675 18335135448782637629
14713325 29 18341614785385816431
14856354 85 18336549420773465447
15183329 4 17821729412848748278
15324884 4 17840840166174689491
15419008 47 18059570317201964896
15461852 350 18413109468715560886
15876981 60 18261116313500633263
16992828 155 17532929398821030781
17686467 74 18264485277474231168
17913733 40 13695588828516569672
17980427 23 17749402459372285182
19489759 90 18333730225751558682
20771845 65 17700133490215572915
20775438 99 16897341713508568487
21033650 10 18190763954718232726
21236236 1 18260548905186729940
21927370 108 18187659041566955315
23081809 10 18040154011998284818
23557571 272 18341609326529641639
23559900 14 17417806287853859466
249057 25 17894348883156224756
255183 451 17907011039398397055
328310 630 16877955961883801942
3610482 184 18188504470881228388
4169191 19 16444206360294391484
469060 322 17677353640475120217
497634 4 17703801318205815163
531348 171 18340488850745111342
6608658 132 18113896035541867836
68570916 9 10735862981926598314
7237137 82 18410292501774905008

> <PUBCHEM_SHAPE_MULTIPOLES>
556.07
17
3.11
1.65
33.33
1.79
0.16
-3.04
-5.63
-7.65
-0.59
0.09
0.02
-0.51

> <PUBCHEM_SHAPE_SELFOVERLAP>
1230.769

> <PUBCHEM_SHAPE_VOLUME>
295.5

> <PUBCHEM_COORDINATE_TYPE>
2
5
10

$$$$
