51137997
  -OEChem-12032416393D

 57 60  0     1  0  0  0  0  0999 V2000
   -6.8782   -1.1622   -1.0213 F   0  0  0  0  0  0  0  0  0  0  0  0
   -1.0715    2.5548   -0.8657 O   0  0  0  0  0  0  0  0  0  0  0  0
    0.3421   -0.1362   -0.3694 N   0  0  0  0  0  0  0  0  0  0  0  0
    5.1824    1.3040   -0.3270 N   0  0  0  0  0  0  0  0  0  0  0  0
   -1.6491    1.6093    1.1817 N   0  0  0  0  0  0  0  0  0  0  0  0
    1.0771   -1.2297    0.2803 C   0  0  2  0  0  0  0  0  0  0  0  0
    2.6048   -1.1178    0.2536 C   0  0  0  0  0  0  0  0  0  0  0  0
    0.5139    1.1675    0.2554 C   0  0  1  0  0  0  0  0  0  0  0  0
    3.3354    0.0724   -0.0287 C   0  0  0  0  0  0  0  0  0  0  0  0
    0.5668   -2.5066   -0.4114 C   0  0  0  0  0  0  0  0  0  0  0  0
    1.5857    1.9928   -0.4541 C   0  0  0  0  0  0  0  0  0  0  0  0
    2.9610    1.4261   -0.3373 C   0  0  0  0  0  0  0  0  0  0  0  0
   -0.8239   -2.9324    0.0693 C   0  0  0  0  0  0  0  0  0  0  0  0
    4.7347    0.0439   -0.0076 C   0  0  0  0  0  0  0  0  0  0  0  0
    4.1257    2.1436   -0.5213 C   0  0  0  0  0  0  0  0  0  0  0  0
    3.3747   -2.2545    0.6092 C   0  0  0  0  0  0  0  0  0  0  0  0
   -0.8106    1.8519    0.1071 C   0  0  0  0  0  0  0  0  0  0  0  0
    5.4758   -1.0984    0.2997 C   0  0  0  0  0  0  0  0  0  0  0  0
   -1.2221   -4.2351   -0.6285 C   0  0  0  0  0  0  0  0  0  0  0  0
   -1.8880   -1.8638   -0.1850 C   0  0  0  0  0  0  0  0  0  0  0  0
    4.7682   -2.2492    0.6220 C   0  0  0  0  0  0  0  0  0  0  0  0
    6.5694    1.7052   -0.4270 C   0  0  0  0  0  0  0  0  0  0  0  0
   -2.9754    2.1720    1.2923 C   0  0  0  0  0  0  0  0  0  0  0  0
   -4.0162    1.2829    0.6756 C   0  0  0  0  0  0  0  0  0  0  0  0
   -4.3501    1.4303   -0.6707 C   0  0  0  0  0  0  0  0  0  0  0  0
   -4.6493    0.3094    1.4485 C   0  0  0  0  0  0  0  0  0  0  0  0
   -5.3170    0.6047   -1.2441 C   0  0  0  0  0  0  0  0  0  0  0  0
   -5.6163   -0.5163    0.8752 C   0  0  0  0  0  0  0  0  0  0  0  0
   -5.9501   -0.3687   -0.4710 C   0  0  0  0  0  0  0  0  0  0  0  0
    0.7923   -1.2706    1.3407 H   0  0  0  0  0  0  0  0  0  0  0  0
    0.7525    1.0827    1.3242 H   0  0  0  0  0  0  0  0  0  0  0  0
    1.2277   -3.3601   -0.2350 H   0  0  0  0  0  0  0  0  0  0  0  0
    0.5725   -2.3803   -1.5043 H   0  0  0  0  0  0  0  0  0  0  0  0
    1.3544    2.1032   -1.5230 H   0  0  0  0  0  0  0  0  0  0  0  0
    1.5855    3.0102   -0.0389 H   0  0  0  0  0  0  0  0  0  0  0  0
    0.5524   -0.0978   -1.3660 H   0  0  0  0  0  0  0  0  0  0  0  0
   -0.7866   -3.1321    1.1479 H   0  0  0  0  0  0  0  0  0  0  0  0
    4.2750    3.1860   -0.7709 H   0  0  0  0  0  0  0  0  0  0  0  0
    2.8889   -3.1760    0.9216 H   0  0  0  0  0  0  0  0  0  0  0  0
    6.5604   -1.0929    0.3124 H   0  0  0  0  0  0  0  0  0  0  0  0
   -0.4896   -5.0251   -0.4314 H   0  0  0  0  0  0  0  0  0  0  0  0
   -2.1938   -4.5891   -0.2676 H   0  0  0  0  0  0  0  0  0  0  0  0
   -1.2933   -4.1000   -1.7133 H   0  0  0  0  0  0  0  0  0  0  0  0
   -2.8897   -2.2869   -0.0447 H   0  0  0  0  0  0  0  0  0  0  0  0
   -1.8103   -1.0492    0.5361 H   0  0  0  0  0  0  0  0  0  0  0  0
   -1.8462   -1.4712   -1.2060 H   0  0  0  0  0  0  0  0  0  0  0  0
    5.3070   -3.1520    0.8975 H   0  0  0  0  0  0  0  0  0  0  0  0
    6.6279    2.7593   -0.7105 H   0  0  0  0  0  0  0  0  0  0  0  0
    7.0524    1.0908   -1.1911 H   0  0  0  0  0  0  0  0  0  0  0  0
    7.0424    1.5575    0.5472 H   0  0  0  0  0  0  0  0  0  0  0  0
   -1.3406    0.9894    1.9251 H   0  0  0  0  0  0  0  0  0  0  0  0
   -3.1812    2.3238    2.3580 H   0  0  0  0  0  0  0  0  0  0  0  0
   -2.9913    3.1617    0.8206 H   0  0  0  0  0  0  0  0  0  0  0  0
   -3.8669    2.1856   -1.2844 H   0  0  0  0  0  0  0  0  0  0  0  0
   -4.3959    0.1827    2.4977 H   0  0  0  0  0  0  0  0  0  0  0  0
   -5.5773    0.7192   -2.2922 H   0  0  0  0  0  0  0  0  0  0  0  0
   -6.1085   -1.2751    1.4763 H   0  0  0  0  0  0  0  0  0  0  0  0
  1 29  1  0  0  0  0
  2 17  2  0  0  0  0
  3  6  1  0  0  0  0
  3  8  1  0  0  0  0
  3 36  1  0  0  0  0
  4 14  1  0  0  0  0
  4 15  1  0  0  0  0
  4 22  1  0  0  0  0
  5 17  1  0  0  0  0
  5 23  1  0  0  0  0
  5 51  1  0  0  0  0
  6  7  1  0  0  0  0
  6 10  1  0  0  0  0
  6 30  1  0  0  0  0
  7  9  2  0  0  0  0
  7 16  1  0  0  0  0
  8 11  1  0  0  0  0
  8 17  1  0  0  0  0
  8 31  1  0  0  0  0
  9 12  1  0  0  0  0
  9 14  1  0  0  0  0
 10 13  1  0  0  0  0
 10 32  1  0  0  0  0
 10 33  1  0  0  0  0
 11 12  1  0  0  0  0
 11 34  1  0  0  0  0
 11 35  1  0  0  0  0
 12 15  2  0  0  0  0
 13 19  1  0  0  0  0
 13 20  1  0  0  0  0
 13 37  1  0  0  0  0
 14 18  2  0  0  0  0
 15 38  1  0  0  0  0
 16 21  2  0  0  0  0
 16 39  1  0  0  0  0
 18 21  1  0  0  0  0
 18 40  1  0  0  0  0
 19 41  1  0  0  0  0
 19 42  1  0  0  0  0
 19 43  1  0  0  0  0
 20 44  1  0  0  0  0
 20 45  1  0  0  0  0
 20 46  1  0  0  0  0
 21 47  1  0  0  0  0
 22 48  1  0  0  0  0
 22 49  1  0  0  0  0
 22 50  1  0  0  0  0
 23 24  1  0  0  0  0
 23 52  1  0  0  0  0
 23 53  1  0  0  0  0
 24 25  2  0  0  0  0
 24 26  1  0  0  0  0
 25 27  1  0  0  0  0
 25 54  1  0  0  0  0
 26 28  2  0  0  0  0
 26 55  1  0  0  0  0
 27 29  2  0  0  0  0
 27 56  1  0  0  0  0
 28 29  1  0  0  0  0
 28 57  1  0  0  0  0
M  END
> <PUBCHEM_COMPOUND_CID>
51137997

> <PUBCHEM_CONFORMER_RMSD>
0.8

> <PUBCHEM_CONFORMER_DIVERSEORDER>
1
31
63
74
37
43
4
27
48
30
34
16
69
12
23
33
66
22
44
3
40
11
56
10
35
15
24
18
73
32
54
51
49
64
58
62
70
45
50
14
42
20
67
61
2
39
26
13
60
21
72
9
8
38
7
52
41
71
68
59
57
46
55
6
25
5
28
17
29
47
53
65
19
36

> <PUBCHEM_MMFF94_PARTIAL_CHARGES>
34
1 -0.19
11 0.18
12 -0.18
14 -0.15
15 -0.3
16 -0.15
17 0.57
18 -0.15
2 -0.57
21 -0.15
22 0.26
23 0.44
24 -0.14
25 -0.15
26 -0.15
27 -0.15
28 -0.15
29 0.19
3 -0.9
36 0.36
38 0.15
39 0.15
4 0.05
40 0.15
47 0.15
5 -0.73
51 0.37
54 0.15
55 0.15
56 0.15
57 0.15
6 0.41
7 -0.14
8 0.33

> <PUBCHEM_EFFECTIVE_ROTOR_COUNT>
6.8

> <PUBCHEM_PHARMACOPHORE_FEATURES>
10
1 2 acceptor
1 3 cation
1 3 donor
1 4 cation
1 5 donor
3 13 19 20 hydrophobe
5 4 9 12 14 15 rings
6 24 25 26 27 28 29 rings
6 7 9 14 16 18 21 rings
7 3 6 7 8 9 11 12 rings

> <PUBCHEM_HEAVY_ATOM_COUNT>
29

> <PUBCHEM_ATOM_DEF_STEREO_COUNT>
2

> <PUBCHEM_ATOM_UDEF_STEREO_COUNT>
0

> <PUBCHEM_BOND_DEF_STEREO_COUNT>
0

> <PUBCHEM_BOND_UDEF_STEREO_COUNT>
0

> <PUBCHEM_ISOTOPIC_ATOM_COUNT>
0

> <PUBCHEM_COMPONENT_COUNT>
1

> <PUBCHEM_CACTVS_TAUTO_COUNT>
2

> <PUBCHEM_CONFORMER_ID>
030C4DCD00000001

> <PUBCHEM_MMFF94_ENERGY>
65.3928

> <PUBCHEM_FEATURE_SELFOVERLAP>
50.877

> <PUBCHEM_SHAPE_FINGERPRINT>
1100329 8 18268716188974156032
11136131 41 18188482476797389250
11488393 25 17842566140920377231
11513181 2 17845100571552568903
11578080 2 17416108706820545906
12236239 1 18272652320411061925
12788726 201 17989492900386871944
14341114 328 17917157096080011281
14394314 77 18343590642441972937
14787075 74 18060137617798689273
14790565 3 18411139116979913876
15131766 46 15576991925705085796
15183329 4 18413389855952839254
17138139 8 17987213686382232519
17349148 13 18271531918209811097
19591789 44 18338798892756222682
20028762 73 18200591393499884630
21133410 90 17130154337177175907
21197605 99 18411423933600053514
335352 9 18409450289612897198
338550 245 18261117408648766804
350125 39 18409449164062082674
439807 62 18338232769893231711
474229 33 18411699846625387579
5283173 99 17531523170914907333

> <PUBCHEM_SHAPE_MULTIPOLES>
568.72
15.03
3.74
1.04
5.48
2.79
0.11
-2.43
-0.98
-0.88
-0.42
1.2
-0.18
-1.49

> <PUBCHEM_SHAPE_SELFOVERLAP>
1228.175

> <PUBCHEM_SHAPE_VOLUME>
314.3

> <PUBCHEM_COORDINATE_TYPE>
2
5
10

$$$$
