75536059
  -OEChem-12032416293D

 48 50  0     1  0  0  0  0  0999 V2000
    0.8092    3.6074   -0.9487 O   0  0  0  0  0  0  0  0  0  0  0  0
    3.4537    2.8890   -0.7767 O   0  0  0  0  0  0  0  0  0  0  0  0
   -0.1900   -0.8549   -1.5608 O   0  0  0  0  0  0  0  0  0  0  0  0
   -5.3255    1.1632    0.5651 O   0  0  0  0  0  0  0  0  0  0  0  0
   -0.3031    0.8660   -0.0098 N   0  0  0  0  0  0  0  0  0  0  0  0
    1.9955    0.6460    0.8861 C   0  0  2  0  0  0  0  0  0  0  0  0
    1.0604    1.3107   -0.1492 C   0  0  2  0  0  0  0  0  0  0  0  0
    1.2067    2.8029    0.1455 C   0  0  1  0  0  0  0  0  0  0  0  0
    3.0281    1.7330    1.2820 C   0  0  0  0  0  0  0  0  0  0  0  0
    2.6965    2.9551    0.4279 C   0  0  1  0  0  0  0  0  0  0  0  0
    2.6092   -0.6451    0.3871 C   0  0  0  0  0  0  0  0  0  0  0  0
    2.3923   -1.8488    1.0575 C   0  0  0  0  0  0  0  0  0  0  0  0
    3.4015   -0.6189   -0.7607 C   0  0  0  0  0  0  0  0  0  0  0  0
   -0.8214   -0.1960   -0.7388 C   0  0  0  0  0  0  0  0  0  0  0  0
    2.9677   -3.0265    0.5804 C   0  0  0  0  0  0  0  0  0  0  0  0
    1.5480   -1.9018    2.2883 C   0  0  0  0  0  0  0  0  0  0  0  0
    3.9768   -1.7967   -1.2381 C   0  0  0  0  0  0  0  0  0  0  0  0
    3.7601   -3.0005   -0.5674 C   0  0  0  0  0  0  0  0  0  0  0  0
   -2.2527   -0.5136   -0.4992 C   0  0  0  0  0  0  0  0  0  0  0  0
   -3.1275    0.4863   -0.0741 C   0  0  0  0  0  0  0  0  0  0  0  0
   -2.7218   -1.8121   -0.6993 C   0  0  0  0  0  0  0  0  0  0  0  0
   -4.4715    0.1879    0.1508 C   0  0  0  0  0  0  0  0  0  0  0  0
   -4.0656   -2.1105   -0.4741 C   0  0  0  0  0  0  0  0  0  0  0  0
   -4.9406   -1.1105   -0.0493 C   0  0  0  0  0  0  0  0  0  0  0  0
   -6.6862    0.7883    0.7754 C   0  0  0  0  0  0  0  0  0  0  0  0
    1.4050    0.4660    1.7909 H   0  0  0  0  0  0  0  0  0  0  0  0
    1.3673    1.1137   -1.1837 H   0  0  0  0  0  0  0  0  0  0  0  0
    0.6163    3.0887    1.0253 H   0  0  0  0  0  0  0  0  0  0  0  0
    2.8813    1.9819    2.3407 H   0  0  0  0  0  0  0  0  0  0  0  0
    4.0661    1.4049    1.1623 H   0  0  0  0  0  0  0  0  0  0  0  0
    2.9314    3.9024    0.9223 H   0  0  0  0  0  0  0  0  0  0  0  0
   -0.8577    1.2995    0.7210 H   0  0  0  0  0  0  0  0  0  0  0  0
    1.0183    4.5300   -0.7237 H   0  0  0  0  0  0  0  0  0  0  0  0
    4.3935    2.9515   -0.5347 H   0  0  0  0  0  0  0  0  0  0  0  0
    3.5898    0.3038   -1.3000 H   0  0  0  0  0  0  0  0  0  0  0  0
    2.8092   -3.9731    1.0902 H   0  0  0  0  0  0  0  0  0  0  0  0
    1.9747   -1.2791    3.0815 H   0  0  0  0  0  0  0  0  0  0  0  0
    0.5222   -1.5858    2.0717 H   0  0  0  0  0  0  0  0  0  0  0  0
    1.4856   -2.9207    2.6874 H   0  0  0  0  0  0  0  0  0  0  0  0
    4.5942   -1.7765   -2.1314 H   0  0  0  0  0  0  0  0  0  0  0  0
    4.2083   -3.9173   -0.9391 H   0  0  0  0  0  0  0  0  0  0  0  0
   -2.8025    1.5139    0.0637 H   0  0  0  0  0  0  0  0  0  0  0  0
   -2.0544   -2.6054   -1.0254 H   0  0  0  0  0  0  0  0  0  0  0  0
   -4.4297   -3.1221   -0.6290 H   0  0  0  0  0  0  0  0  0  0  0  0
   -5.9709   -1.4116    0.1065 H   0  0  0  0  0  0  0  0  0  0  0  0
   -7.2218    1.6858    1.1018 H   0  0  0  0  0  0  0  0  0  0  0  0
   -6.7806    0.0500    1.5789 H   0  0  0  0  0  0  0  0  0  0  0  0
   -7.1597    0.4538   -0.1539 H   0  0  0  0  0  0  0  0  0  0  0  0
  1  8  1  0  0  0  0
  1 33  1  0  0  0  0
  2 10  1  0  0  0  0
  2 34  1  0  0  0  0
  3 14  2  0  0  0  0
  4 22  1  0  0  0  0
  4 25  1  0  0  0  0
  5  7  1  0  0  0  0
  5 14  1  0  0  0  0
  5 32  1  0  0  0  0
  6  7  1  0  0  0  0
  6  9  1  0  0  0  0
  6 11  1  0  0  0  0
  6 26  1  0  0  0  0
  7  8  1  0  0  0  0
  7 27  1  0  0  0  0
  8 10  1  0  0  0  0
  8 28  1  0  0  0  0
  9 10  1  0  0  0  0
  9 29  1  0  0  0  0
  9 30  1  0  0  0  0
 10 31  1  0  0  0  0
 11 12  1  0  0  0  0
 11 13  2  0  0  0  0
 12 15  2  0  0  0  0
 12 16  1  0  0  0  0
 13 17  1  0  0  0  0
 13 35  1  0  0  0  0
 14 19  1  0  0  0  0
 15 18  1  0  0  0  0
 15 36  1  0  0  0  0
 16 37  1  0  0  0  0
 16 38  1  0  0  0  0
 16 39  1  0  0  0  0
 17 18  2  0  0  0  0
 17 40  1  0  0  0  0
 18 41  1  0  0  0  0
 19 20  2  0  0  0  0
 19 21  1  0  0  0  0
 20 22  1  0  0  0  0
 20 42  1  0  0  0  0
 21 23  2  0  0  0  0
 21 43  1  0  0  0  0
 22 24  2  0  0  0  0
 23 24  1  0  0  0  0
 23 44  1  0  0  0  0
 24 45  1  0  0  0  0
 25 46  1  0  0  0  0
 25 47  1  0  0  0  0
 25 48  1  0  0  0  0
M  END
> <PUBCHEM_COMPOUND_CID>
75536059

> <PUBCHEM_CONFORMER_RMSD>
0.8

> <PUBCHEM_CONFORMER_DIVERSEORDER>
6
56
55
15
48
23
7
30
57
26
33
43
41
31
22
45
49
3
58
18
34
5
52
29
54
35
40
47
32
44
39
17
38
1
42
51
28
53
14
24
20
19
46
36
27
11
4
37
16
10
50
2
21
25
13
8
12
9

> <PUBCHEM_MMFF94_PARTIAL_CHARGES>
35
1 -0.68
10 0.28
11 -0.14
12 -0.14
13 -0.15
14 0.54
15 -0.15
16 0.14
17 -0.15
18 -0.15
19 0.09
2 -0.68
20 -0.15
21 -0.15
22 0.08
23 -0.15
24 -0.15
25 0.28
3 -0.57
32 0.37
33 0.4
34 0.4
35 0.15
36 0.15
4 -0.36
40 0.15
41 0.15
42 0.15
43 0.15
44 0.15
45 0.15
5 -0.73
6 0.14
7 0.3
8 0.28

> <PUBCHEM_EFFECTIVE_ROTOR_COUNT>
6

> <PUBCHEM_PHARMACOPHORE_FEATURES>
10
1 1 acceptor
1 1 donor
1 2 acceptor
1 2 donor
1 3 acceptor
1 4 acceptor
1 5 donor
5 6 7 8 9 10 rings
6 11 12 13 15 17 18 rings
6 19 20 21 22 23 24 rings

> <PUBCHEM_HEAVY_ATOM_COUNT>
25

> <PUBCHEM_ATOM_DEF_STEREO_COUNT>
4

> <PUBCHEM_ATOM_UDEF_STEREO_COUNT>
0

> <PUBCHEM_BOND_DEF_STEREO_COUNT>
0

> <PUBCHEM_BOND_UDEF_STEREO_COUNT>
0

> <PUBCHEM_ISOTOPIC_ATOM_COUNT>
0

> <PUBCHEM_COMPONENT_COUNT>
1

> <PUBCHEM_CACTVS_TAUTO_COUNT>
2

> <PUBCHEM_CONFORMER_ID>
048096BB00000006

> <PUBCHEM_MMFF94_ENERGY>
85.1642

> <PUBCHEM_FEATURE_SELFOVERLAP>
50.758

> <PUBCHEM_SHAPE_FINGERPRINT>
10759866 29 18270966855227588121
10906281 52 18189622807852101936
11135609 187 18196661911658912876
11140007 195 17274538724474419294
11186622 174 18411412892008625903
11405975 8 18343022194755650299
12107183 9 18198346157033732179
12166972 35 18060137614221101321
12422481 6 17983541253331805354
12553582 1 18265602195998127374
12617007 42 18201446831195259030
12633257 1 17823675629153154218
12788726 201 17902235511994418282
13533116 47 18270112543805038615
13583140 156 17488171798342661523
13785724 45 17911530800470510319
14178342 30 17768226252963667090
14341114 176 18342181042511255865
14790565 3 17906173202204402356
15042514 8 17692249638934186302
15664445 248 18271539602370638206
17492 89 18341611577087996695
17818456 19 17917435281217177321
1813 80 18270685238495844662
19319366 153 17894633608822753370
20645477 70 18338225072356957831
20691752 17 17821999947662905015
20832881 197 18262239898193775691
21033648 29 16987137337414730211
21065198 57 18341613741782642639
21421861 104 18334847312475226568
21503847 285 18412546509243900539
2255824 54 18263359355675664524
22950370 63 18337958870046834575
23559900 14 17774730774896764559
3117164 225 18340211804575281409
314173 41 18339362959475520318
3411729 13 18342455993232501864
3421961 26 18413103944622850450
3680242 22 18201452359234972265
4409770 3 17542783110216895172
474 4 18045212993097776961
5104073 3 18271812350147824739
543358 83 18412546513322609355
57527585 103 14393963129164667310
633830 44 18336823178110149855
7097593 13 18340759433895158383
8272917 22 18336827597119729505
8509985 295 17131827647417838315
9709674 26 18264487459059505259
9841814 1 18261380123145278642

> <PUBCHEM_SHAPE_MULTIPOLES>
486.03
11.02
3.91
1.32
19.19
1.69
-0.38
-2.06
-0.95
-4.88
0.23
-0.92
-0.44
-0.54

> <PUBCHEM_SHAPE_SELFOVERLAP>
1043.017

> <PUBCHEM_SHAPE_VOLUME>
269.2

> <PUBCHEM_COORDINATE_TYPE>
2
5
10

$$$$
