38027204
  -OEChem-12032416253D

 65 67  0     1  0  0  0  0  0999 V2000
    3.0781   -3.0215   -0.9892 O   0  0  0  0  0  0  0  0  0  0  0  0
   -1.6988    2.5460    0.3051 O   0  0  0  0  0  0  0  0  0  0  0  0
    3.6181   -1.2159    0.3822 N   0  0  0  0  0  0  0  0  0  0  0  0
   -2.3180    0.7681    1.6597 N   0  0  0  0  0  0  0  0  0  0  0  0
    1.9724    0.7261   -1.2192 C   0  0  1  0  0  0  0  0  0  0  0  0
    3.4144    0.9589   -0.7030 C   0  0  2  0  0  0  0  0  0  0  0  0
    1.0892    1.9447   -0.9107 C   0  0  0  0  0  0  0  0  0  0  0  0
    1.0243    2.2504    0.5976 C   0  0  2  0  0  0  0  0  0  0  0  0
    1.9467    0.4341   -2.7227 C   0  0  0  0  0  0  0  0  0  0  0  0
    4.1888   -0.3609   -0.6110 C   0  0  0  0  0  0  0  0  0  0  0  0
    2.3986    2.2319    1.2355 C   0  0  0  0  0  0  0  0  0  0  0  0
    3.4576    1.6620    0.6334 C   0  0  0  0  0  0  0  0  0  0  0  0
    2.5628   -3.1991    1.2992 C   0  0  0  0  0  0  0  0  0  0  0  0
    1.1466   -2.9410    1.7227 C   0  0  0  0  0  0  0  0  0  0  0  0
    1.5153   -4.2546    1.0978 C   0  0  0  0  0  0  0  0  0  0  0  0
    0.0729    1.2871    1.3160 C   0  0  0  0  0  0  0  0  0  0  0  0
    0.6940   -0.3549   -3.0903 C   0  0  0  0  0  0  0  0  0  0  0  0
    2.0205    1.7334   -3.5183 C   0  0  0  0  0  0  0  0  0  0  0  0
    3.1080   -2.4804    0.1099 C   0  0  0  0  0  0  0  0  0  0  0  0
    2.5385    2.9244    2.5626 C   0  0  0  0  0  0  0  0  0  0  0  0
   -1.3847    1.6042    1.0377 C   0  0  0  0  0  0  0  0  0  0  0  0
   -3.7590    0.9416    1.4924 C   0  0  0  0  0  0  0  0  0  0  0  0
   -1.9230   -0.3393    2.5216 C   0  0  0  0  0  0  0  0  0  0  0  0
   -4.2955    0.1213    0.3552 C   0  0  0  0  0  0  0  0  0  0  0  0
   -4.3461    0.6602   -0.9304 C   0  0  0  0  0  0  0  0  0  0  0  0
   -4.7433   -1.1798    0.5841 C   0  0  0  0  0  0  0  0  0  0  0  0
   -4.8445   -0.1019   -1.9872 C   0  0  0  0  0  0  0  0  0  0  0  0
   -5.2418   -1.9419   -0.4726 C   0  0  0  0  0  0  0  0  0  0  0  0
   -5.2921   -1.4031   -1.7583 C   0  0  0  0  0  0  0  0  0  0  0  0
    1.5480   -0.1398   -0.6980 H   0  0  0  0  0  0  0  0  0  0  0  0
    3.9554    1.6051   -1.4056 H   0  0  0  0  0  0  0  0  0  0  0  0
    0.0820    1.8118   -1.3170 H   0  0  0  0  0  0  0  0  0  0  0  0
    1.4998    2.8490   -1.3782 H   0  0  0  0  0  0  0  0  0  0  0  0
    0.6387    3.2752    0.6944 H   0  0  0  0  0  0  0  0  0  0  0  0
    2.8036   -0.1855   -3.0061 H   0  0  0  0  0  0  0  0  0  0  0  0
    5.2243   -0.1708   -0.3035 H   0  0  0  0  0  0  0  0  0  0  0  0
    4.2384   -0.8752   -1.5745 H   0  0  0  0  0  0  0  0  0  0  0  0
    4.4309    1.7199    1.1169 H   0  0  0  0  0  0  0  0  0  0  0  0
    3.2844   -3.3789    2.0905 H   0  0  0  0  0  0  0  0  0  0  0  0
    0.5438   -2.2595    1.1351 H   0  0  0  0  0  0  0  0  0  0  0  0
    0.9311   -2.9284    2.7840 H   0  0  0  0  0  0  0  0  0  0  0  0
    1.5484   -5.1261    1.7407 H   0  0  0  0  0  0  0  0  0  0  0  0
    1.1417   -4.4535    0.1010 H   0  0  0  0  0  0  0  0  0  0  0  0
    0.2115    1.3895    2.3980 H   0  0  0  0  0  0  0  0  0  0  0  0
    0.2791    0.2495    1.0379 H   0  0  0  0  0  0  0  0  0  0  0  0
   -0.2252    0.1995   -2.8774 H   0  0  0  0  0  0  0  0  0  0  0  0
    0.6532   -1.3023   -2.5418 H   0  0  0  0  0  0  0  0  0  0  0  0
    0.6931   -0.5946   -4.1593 H   0  0  0  0  0  0  0  0  0  0  0  0
    1.0903    2.3105   -3.4874 H   0  0  0  0  0  0  0  0  0  0  0  0
    2.1890    1.4978   -4.5765 H   0  0  0  0  0  0  0  0  0  0  0  0
    2.8528    2.3724   -3.2085 H   0  0  0  0  0  0  0  0  0  0  0  0
    3.6251   -0.9007    1.3481 H   0  0  0  0  0  0  0  0  0  0  0  0
    2.1779    3.9558    2.4932 H   0  0  0  0  0  0  0  0  0  0  0  0
    3.5811    2.9653    2.8961 H   0  0  0  0  0  0  0  0  0  0  0  0
    1.9680    2.4069    3.3389 H   0  0  0  0  0  0  0  0  0  0  0  0
   -3.9644    2.0022    1.3001 H   0  0  0  0  0  0  0  0  0  0  0  0
   -4.2735    0.7019    2.4309 H   0  0  0  0  0  0  0  0  0  0  0  0
   -2.5289   -0.3179    3.4331 H   0  0  0  0  0  0  0  0  0  0  0  0
   -0.8783   -0.3262    2.8278 H   0  0  0  0  0  0  0  0  0  0  0  0
   -2.1084   -1.2768    1.9895 H   0  0  0  0  0  0  0  0  0  0  0  0
   -4.0027    1.6727   -1.1240 H   0  0  0  0  0  0  0  0  0  0  0  0
   -4.7118   -1.6110    1.5812 H   0  0  0  0  0  0  0  0  0  0  0  0
   -4.8840    0.3177   -2.9881 H   0  0  0  0  0  0  0  0  0  0  0  0
   -5.5909   -2.9548   -0.2944 H   0  0  0  0  0  0  0  0  0  0  0  0
   -5.6801   -1.9965   -2.5810 H   0  0  0  0  0  0  0  0  0  0  0  0
  1 19  2  0  0  0  0
  2 21  2  0  0  0  0
  3 10  1  0  0  0  0
  3 19  1  0  0  0  0
  3 52  1  0  0  0  0
  4 21  1  0  0  0  0
  4 22  1  0  0  0  0
  4 23  1  0  0  0  0
  5  6  1  0  0  0  0
  5  7  1  0  0  0  0
  5  9  1  0  0  0  0
  5 30  1  0  0  0  0
  6 10  1  0  0  0  0
  6 12  1  0  0  0  0
  6 31  1  0  0  0  0
  7  8  1  0  0  0  0
  7 32  1  0  0  0  0
  7 33  1  0  0  0  0
  8 11  1  0  0  0  0
  8 16  1  0  0  0  0
  8 34  1  0  0  0  0
  9 17  1  0  0  0  0
  9 18  1  0  0  0  0
  9 35  1  0  0  0  0
 10 36  1  0  0  0  0
 10 37  1  0  0  0  0
 11 12  2  0  0  0  0
 11 20  1  0  0  0  0
 12 38  1  0  0  0  0
 13 14  1  0  0  0  0
 13 15  1  0  0  0  0
 13 19  1  0  0  0  0
 13 39  1  0  0  0  0
 14 15  1  0  0  0  0
 14 40  1  0  0  0  0
 14 41  1  0  0  0  0
 15 42  1  0  0  0  0
 15 43  1  0  0  0  0
 16 21  1  0  0  0  0
 16 44  1  0  0  0  0
 16 45  1  0  0  0  0
 17 46  1  0  0  0  0
 17 47  1  0  0  0  0
 17 48  1  0  0  0  0
 18 49  1  0  0  0  0
 18 50  1  0  0  0  0
 18 51  1  0  0  0  0
 20 53  1  0  0  0  0
 20 54  1  0  0  0  0
 20 55  1  0  0  0  0
 22 24  1  0  0  0  0
 22 56  1  0  0  0  0
 22 57  1  0  0  0  0
 23 58  1  0  0  0  0
 23 59  1  0  0  0  0
 23 60  1  0  0  0  0
 24 25  2  0  0  0  0
 24 26  1  0  0  0  0
 25 27  1  0  0  0  0
 25 61  1  0  0  0  0
 26 28  2  0  0  0  0
 26 62  1  0  0  0  0
 27 29  2  0  0  0  0
 27 63  1  0  0  0  0
 28 29  1  0  0  0  0
 28 64  1  0  0  0  0
 29 65  1  0  0  0  0
M  END
> <PUBCHEM_COMPOUND_CID>
38027204

> <PUBCHEM_CONFORMER_RMSD>
1

> <PUBCHEM_CONFORMER_DIVERSEORDER>
1
12
26
152
143
195
98
113
74
109
18
221
159
140
75
202
144
35
187
8
45
220
69
145
66
133
155
124
153
142
48
151
134
71
179
50
165
90
181
166
212
77
62
65
128
55
219
20
114
157
51
209
173
122
101
14
106
132
83
174
61
161
60
138
68
167
206
70
10
38
24
150
158
160
149
125
87
117
169
107
58
11
73
120
84
118
91
189
188
210
196
178
86
121
93
72
56
136
162
29
94
214
201
205
184
141
19
190
52
146
176
222
80
148
102
4
207
31
172
130
53
82
213
131
110
54
92
100
139
33
168
217
64
175
137
27
192
200
108
208
25
216
28
41
163
191
23
104
89
218
34
186
67
203
180
171
211
105
46
32
164
126
59
97
76
5
9
123
194
30
57
193
154
44
147
135
224
79
116
119
47
81
95
7
78
99
177
111
204
112
43
156
15
2
13
96
215
3
22
63
127
6
199
88
49
225
223
129
170
197
37
40
36
115
42
39
16
17
185
182
21
103
198
183
85

> <PUBCHEM_MMFF94_PARTIAL_CHARGES>
36
1 -0.57
10 0.3
11 -0.28
12 -0.29
13 -0.1
14 -0.2
15 -0.2
16 0.06
19 0.63
2 -0.57
20 0.14
21 0.57
22 0.44
23 0.3
24 -0.14
25 -0.15
26 -0.15
27 -0.15
28 -0.15
29 -0.15
3 -0.73
38 0.15
39 0.1
4 -0.66
40 0.1
41 0.1
42 0.1
43 0.1
52 0.37
6 0.14
61 0.15
62 0.15
63 0.15
64 0.15
65 0.15
8 0.14

> <PUBCHEM_EFFECTIVE_ROTOR_COUNT>
11.4

> <PUBCHEM_PHARMACOPHORE_FEATURES>
6
1 1 acceptor
1 2 acceptor
1 3 donor
3 9 17 18 hydrophobe
6 24 25 26 27 28 29 rings
6 5 6 7 8 11 12 rings

> <PUBCHEM_HEAVY_ATOM_COUNT>
29

> <PUBCHEM_ATOM_DEF_STEREO_COUNT>
3

> <PUBCHEM_ATOM_UDEF_STEREO_COUNT>
0

> <PUBCHEM_BOND_DEF_STEREO_COUNT>
0

> <PUBCHEM_BOND_UDEF_STEREO_COUNT>
0

> <PUBCHEM_ISOTOPIC_ATOM_COUNT>
0

> <PUBCHEM_COMPONENT_COUNT>
1

> <PUBCHEM_CACTVS_TAUTO_COUNT>
2

> <PUBCHEM_CONFORMER_ID>
02443FC400000001

> <PUBCHEM_MMFF94_ENERGY>
65.9916

> <PUBCHEM_FEATURE_SELFOVERLAP>
30.446

> <PUBCHEM_SHAPE_FINGERPRINT>
11796584 16 17704077296231275577
13383661 66 16899324137432004539
13583140 156 18270384023622867845
14251757 17 16660934257692712979
17138139 8 18271248334393764550
20764821 26 18048044248556292211
20775530 9 17611193658914669346
21304303 282 16018336034438505860
25222932 49 17914040161067365471
26353 1 17535456029491450475
3459 110 12247093356713640677
35225 105 17614311147661799310
46194498 28 16517121546714405557
463206 1 18410303496917712891
513532 50 16660353809688872710
66674814 147 17968100776661436474
6669772 16 18054777648842093848

> <PUBCHEM_SHAPE_MULTIPOLES>
575.11
10.24
4.13
3.11
15.07
4.29
-1.83
2.88
-2.63
-4.41
2.02
-0.68
-1.25
-0.7

> <PUBCHEM_SHAPE_SELFOVERLAP>
1183.849

> <PUBCHEM_SHAPE_VOLUME>
330.2

> <PUBCHEM_COORDINATE_TYPE>
2
5
10

$$$$
