71693104
  -OEChem-12032416273D

 68 70  0     1  0  0  0  0  0999 V2000
   -3.9342    1.3693    1.0770 O   0  0  0  0  0  0  0  0  0  0  0  0
   -7.9529    1.2141   -1.6862 O   0  0  0  0  0  0  0  0  0  0  0  0
   -6.5151    2.2867   -0.2965 O   0  0  0  0  0  0  0  0  0  0  0  0
   -3.0929   -0.7291    1.6101 N   0  0  0  0  0  0  0  0  0  0  0  0
    4.6214    0.5051    0.7775 N   0  0  0  0  0  0  0  0  0  0  0  0
    5.0925   -1.3323   -0.3897 N   0  0  0  0  0  0  0  0  0  0  0  0
    7.2620   -0.6138   -1.2086 N   0  0  0  0  0  0  0  0  0  0  0  0
    0.2785    0.5751    0.5896 C   0  0  1  0  0  0  0  0  0  0  0  0
   -0.9203   -0.4053    0.5498 C   0  0  1  0  0  0  0  0  0  0  0  0
    1.3125    0.2015   -0.4834 C   0  0  0  0  0  0  0  0  0  0  0  0
    1.8478   -1.2315   -0.3029 C   0  0  2  0  0  0  0  0  0  0  0  0
   -0.1680    2.0276    0.3962 C   0  0  0  0  0  0  0  0  0  0  0  0
    0.7283   -2.2252   -0.0669 C   0  0  0  0  0  0  0  0  0  0  0  0
   -0.5056   -1.8365    0.3007 C   0  0  0  0  0  0  0  0  0  0  0  0
   -1.7405   -0.3291    1.8427 C   0  0  0  0  0  0  0  0  0  0  0  0
    2.8851   -1.2958    0.8236 C   0  0  0  0  0  0  0  0  0  0  0  0
    0.8481    2.9834    1.0133 C   0  0  0  0  0  0  0  0  0  0  0  0
   -0.3653    2.3307   -1.0856 C   0  0  0  0  0  0  0  0  0  0  0  0
    1.0476   -3.6744   -0.3075 C   0  0  0  0  0  0  0  0  0  0  0  0
    4.2087   -0.7391    0.3832 C   0  0  0  0  0  0  0  0  0  0  0  0
   -4.0977    0.1620    1.2406 C   0  0  0  0  0  0  0  0  0  0  0  0
   -5.7634   -0.9272   -0.4121 C   0  0  0  0  0  0  0  0  0  0  0  0
   -5.4541   -0.4964    1.0443 C   0  0  0  0  0  0  0  0  0  0  0  0
   -5.7764    0.2627   -1.4012 C   0  0  0  0  0  0  0  0  0  0  0  0
    5.8518    0.7277    0.2218 C   0  0  0  0  0  0  0  0  0  0  0  0
   -7.1343   -1.6368   -0.4167 C   0  0  0  0  0  0  0  0  0  0  0  0
   -4.7148   -1.9459   -0.9065 C   0  0  0  0  0  0  0  0  0  0  0  0
    6.1207   -0.4302   -0.4991 C   0  0  0  0  0  0  0  0  0  0  0  0
    6.7457    1.7919    0.2662 C   0  0  0  0  0  0  0  0  0  0  0  0
   -6.7587    1.3616   -1.0604 C   0  0  0  0  0  0  0  0  0  0  0  0
    7.9222    1.6180   -0.4579 C   0  0  0  0  0  0  0  0  0  0  0  0
    8.1212    0.4312   -1.1553 C   0  0  0  0  0  0  0  0  0  0  0  0
    0.7444    0.4853    1.5799 H   0  0  0  0  0  0  0  0  0  0  0  0
   -1.5663   -0.1316   -0.2949 H   0  0  0  0  0  0  0  0  0  0  0  0
    2.1409    0.9160   -0.5093 H   0  0  0  0  0  0  0  0  0  0  0  0
    0.8551    0.2205   -1.4814 H   0  0  0  0  0  0  0  0  0  0  0  0
    2.3328   -1.5059   -1.2510 H   0  0  0  0  0  0  0  0  0  0  0  0
   -1.1215    2.2067    0.9039 H   0  0  0  0  0  0  0  0  0  0  0  0
   -1.2809   -2.5922    0.4093 H   0  0  0  0  0  0  0  0  0  0  0  0
   -1.7558    0.6812    2.2620 H   0  0  0  0  0  0  0  0  0  0  0  0
   -1.3293   -0.9869    2.6176 H   0  0  0  0  0  0  0  0  0  0  0  0
    2.5393   -0.7850    1.7293 H   0  0  0  0  0  0  0  0  0  0  0  0
    3.0732   -2.3339    1.1238 H   0  0  0  0  0  0  0  0  0  0  0  0
    0.9700    2.7872    2.0840 H   0  0  0  0  0  0  0  0  0  0  0  0
    0.5119    4.0206    0.9057 H   0  0  0  0  0  0  0  0  0  0  0  0
    1.8322    2.9064    0.5407 H   0  0  0  0  0  0  0  0  0  0  0  0
   -0.8575    3.3057   -1.1903 H   0  0  0  0  0  0  0  0  0  0  0  0
   -1.0135    1.6040   -1.5840 H   0  0  0  0  0  0  0  0  0  0  0  0
    0.5769    2.4135   -1.6374 H   0  0  0  0  0  0  0  0  0  0  0  0
    1.4462   -3.8128   -1.3178 H   0  0  0  0  0  0  0  0  0  0  0  0
    0.1608   -4.3110   -0.2164 H   0  0  0  0  0  0  0  0  0  0  0  0
    1.7866   -4.0392    0.4114 H   0  0  0  0  0  0  0  0  0  0  0  0
   -3.3200   -1.7135    1.7152 H   0  0  0  0  0  0  0  0  0  0  0  0
   -5.5132   -1.3697    1.7080 H   0  0  0  0  0  0  0  0  0  0  0  0
   -6.2138    0.2020    1.4160 H   0  0  0  0  0  0  0  0  0  0  0  0
    4.1092    1.1457    1.3697 H   0  0  0  0  0  0  0  0  0  0  0  0
   -6.0009   -0.0863   -2.4181 H   0  0  0  0  0  0  0  0  0  0  0  0
   -4.7847    0.7269   -1.4732 H   0  0  0  0  0  0  0  0  0  0  0  0
   -7.9223   -0.9934   -0.0110 H   0  0  0  0  0  0  0  0  0  0  0  0
   -7.1098   -2.5465    0.1945 H   0  0  0  0  0  0  0  0  0  0  0  0
   -7.4273   -1.9277   -1.4318 H   0  0  0  0  0  0  0  0  0  0  0  0
   -3.7263   -1.4888   -1.0181 H   0  0  0  0  0  0  0  0  0  0  0  0
   -4.6224   -2.7900   -0.2139 H   0  0  0  0  0  0  0  0  0  0  0  0
   -4.9932   -2.3520   -1.8860 H   0  0  0  0  0  0  0  0  0  0  0  0
    6.5431    2.6969    0.8254 H   0  0  0  0  0  0  0  0  0  0  0  0
    8.6747    2.3996   -0.4775 H   0  0  0  0  0  0  0  0  0  0  0  0
    9.0367    0.2872   -1.7231 H   0  0  0  0  0  0  0  0  0  0  0  0
   -8.5803    1.9306   -1.4513 H   0  0  0  0  0  0  0  0  0  0  0  0
  1 21  2  0  0  0  0
  2 30  1  0  0  0  0
  2 68  1  0  0  0  0
  3 30  2  0  0  0  0
  4 15  1  0  0  0  0
  4 21  1  0  0  0  0
  4 53  1  0  0  0  0
  5 20  1  0  0  0  0
  5 25  1  0  0  0  0
  5 56  1  0  0  0  0
  6 20  2  0  0  0  0
  6 28  1  0  0  0  0
  7 28  1  0  0  0  0
  7 32  2  0  0  0  0
  8  9  1  0  0  0  0
  8 10  1  0  0  0  0
  8 12  1  0  0  0  0
  8 33  1  0  0  0  0
  9 14  1  0  0  0  0
  9 15  1  0  0  0  0
  9 34  1  0  0  0  0
 10 11  1  0  0  0  0
 10 35  1  0  0  0  0
 10 36  1  0  0  0  0
 11 13  1  0  0  0  0
 11 16  1  0  0  0  0
 11 37  1  0  0  0  0
 12 17  1  0  0  0  0
 12 18  1  0  0  0  0
 12 38  1  0  0  0  0
 13 14  2  0  0  0  0
 13 19  1  0  0  0  0
 14 39  1  0  0  0  0
 15 40  1  0  0  0  0
 15 41  1  0  0  0  0
 16 20  1  0  0  0  0
 16 42  1  0  0  0  0
 16 43  1  0  0  0  0
 17 44  1  0  0  0  0
 17 45  1  0  0  0  0
 17 46  1  0  0  0  0
 18 47  1  0  0  0  0
 18 48  1  0  0  0  0
 18 49  1  0  0  0  0
 19 50  1  0  0  0  0
 19 51  1  0  0  0  0
 19 52  1  0  0  0  0
 21 23  1  0  0  0  0
 22 23  1  0  0  0  0
 22 24  1  0  0  0  0
 22 26  1  0  0  0  0
 22 27  1  0  0  0  0
 23 54  1  0  0  0  0
 23 55  1  0  0  0  0
 24 30  1  0  0  0  0
 24 57  1  0  0  0  0
 24 58  1  0  0  0  0
 25 28  2  0  0  0  0
 25 29  1  0  0  0  0
 26 59  1  0  0  0  0
 26 60  1  0  0  0  0
 26 61  1  0  0  0  0
 27 62  1  0  0  0  0
 27 63  1  0  0  0  0
 27 64  1  0  0  0  0
 29 31  2  0  0  0  0
 29 65  1  0  0  0  0
 31 32  1  0  0  0  0
 31 66  1  0  0  0  0
 32 67  1  0  0  0  0
M  END
> <PUBCHEM_COMPOUND_CID>
71693104

> <PUBCHEM_CONFORMER_RMSD>
1

> <PUBCHEM_CONFORMER_DIVERSEORDER>
1
58
163
158
16
100
130
109
102
153
108
61
93
127
114
83
146
159
129
172
98
60
72
27
157
26
80
155
33
94
165
37
38
126
53
99
11
116
24
128
148
31
50
63
119
46
154
88
156
110
54
162
117
47
19
104
51
55
120
123
82
95
170
3
145
6
97
124
139
75
42
107
74
168
118
20
48
113
40
141
101
137
121
15
96
4
59
166
90
78
5
57
56
134
41
142
35
70
144
10
151
52
79
164
71
169
81
147
73
43
135
36
22
28
161
32
84
132
76
112
103
86
111
152
21
29
14
92
2
106
25
17
7
64
125
140
66
39
45
34
85
9
67
91
8
171
160
150
18
30
77
138
122
44
62
49
143
68
13
149
12
105
69
167
23
131
133
136
89
65
115
87

> <PUBCHEM_MMFF94_PARTIAL_CHARGES>
31
1 -0.57
11 0.14
13 -0.28
14 -0.29
15 0.3
16 0.18
19 0.14
2 -0.65
20 0.01
21 0.57
23 0.06
24 0.06
25 -0.15
28 0.48
29 -0.15
3 -0.57
30 0.66
31 -0.15
32 0.16
39 0.15
4 -0.73
5 0.03
53 0.37
56 0.27
6 -0.57
65 0.15
66 0.15
67 0.15
68 0.5
7 -0.57
9 0.14

> <PUBCHEM_EFFECTIVE_ROTOR_COUNT>
10.8

> <PUBCHEM_PHARMACOPHORE_FEATURES>
13
1 1 acceptor
1 2 acceptor
1 3 acceptor
1 4 donor
1 5 donor
1 7 acceptor
3 12 17 18 hydrophobe
3 2 3 30 anion
3 22 26 27 hydrophobe
3 5 6 20 cation
5 5 6 20 25 28 rings
6 7 25 28 29 31 32 rings
6 8 9 10 11 13 14 rings

> <PUBCHEM_HEAVY_ATOM_COUNT>
32

> <PUBCHEM_ATOM_DEF_STEREO_COUNT>
3

> <PUBCHEM_ATOM_UDEF_STEREO_COUNT>
0

> <PUBCHEM_BOND_DEF_STEREO_COUNT>
0

> <PUBCHEM_BOND_UDEF_STEREO_COUNT>
0

> <PUBCHEM_ISOTOPIC_ATOM_COUNT>
0

> <PUBCHEM_COMPONENT_COUNT>
1

> <PUBCHEM_CACTVS_TAUTO_COUNT>
10

> <PUBCHEM_CONFORMER_ID>
0445F33000000001

> <PUBCHEM_MMFF94_ENERGY>
64.2434

> <PUBCHEM_FEATURE_SELFOVERLAP>
66.158

> <PUBCHEM_SHAPE_FINGERPRINT>
10006869 2 18187074015423766106
10906281 52 18187377488647713459
11135609 187 18412821421774677658
11135926 11 18273501148241854475
11621639 179 18045202870867994973
12166972 35 17632579387212002065
12838862 33 18340477950951336936
13673619 4 12247673868567146683
13782708 43 12751236991158262522
14344974 204 11095295561644762661
1454969 45 18412545405442489052
14856354 85 15769772481462393733
14955137 171 9223228559383735171
15021287 119 11025804223350207027
15131766 46 16156261947534411700
15183329 4 16630806603856761678
15352257 5 12823297900937512133
15849732 13 18411703226722510270
18681886 176 18131063887665940507
21150785 3 18342740749369086890
23559900 14 18272359906922418601
23576562 1 18265047123431004349
3009799 131 18186521003312335561
3633792 109 18342740723678573648
504579 68 17704072880297727508
54039377 194 17845654880459162087
550186 72 18337393747072667564
563151 97 18269843017147309707
6009941 240 16877949359986142704
999808 66 11024102157975461749

> <PUBCHEM_SHAPE_MULTIPOLES>
621.01
23.31
2.89
1.36
6.82
0.27
-0.09
-6.43
9.64
-0.55
0.22
-1.37
-0.23
0.73

> <PUBCHEM_SHAPE_SELFOVERLAP>
1296.385

> <PUBCHEM_SHAPE_VOLUME>
349.7

> <PUBCHEM_COORDINATE_TYPE>
2
5
10

$$$$
