45361501
  -OEChem-12032416313D

 69 71  0     1  0  0  0  0  0999 V2000
    3.7795    1.9193   -2.5582 Cl  0  0  0  0  0  0  0  0  0  0  0  0
   -0.4595   -2.3352   -1.4732 O   0  0  0  0  0  0  0  0  0  0  0  0
    4.4274   -2.3677    0.6920 O   0  0  0  0  0  0  0  0  0  0  0  0
   -5.8609    1.9011   -0.9111 O   0  0  0  0  0  0  0  0  0  0  0  0
   -8.4189    1.0963   -0.6746 O   0  0  0  0  0  0  0  0  0  0  0  0
   -5.0643    0.0001    0.1651 N   0  0  0  0  0  0  0  0  0  0  0  0
    3.8955   -1.1704   -1.2220 N   0  0  0  0  0  0  0  0  0  0  0  0
   -0.9228    0.2257    1.3201 C   0  0  1  0  0  0  0  0  0  0  0  0
   -1.2543   -0.5783    0.0191 C   0  0  2  0  0  0  0  0  0  0  0  0
   -2.7781   -0.9566   -0.0313 C   0  0  1  0  0  0  0  0  0  0  0  0
   -0.2648   -1.7625   -0.1792 C   0  0  2  0  0  0  0  0  0  0  0  0
    0.5559    0.6789    1.2840 C   0  0  0  0  0  0  0  0  0  0  0  0
   -1.8032    1.4960    1.3659 C   0  0  0  0  0  0  0  0  0  0  0  0
    1.2151   -1.3188   -0.1104 C   0  0  1  0  0  0  0  0  0  0  0  0
   -3.6545    0.3216    0.0911 C   0  0  2  0  0  0  0  0  0  0  0  0
    1.5296   -0.4819    1.1295 C   0  0  0  0  0  0  0  0  0  0  0  0
   -3.2930    1.1934    1.2935 C   0  0  0  0  0  0  0  0  0  0  0  0
   -1.1576   -0.6044    2.6076 C   0  0  0  0  0  0  0  0  0  0  0  0
    2.1717   -2.5157   -0.1769 C   0  0  2  0  0  0  0  0  0  0  0  0
   -3.1802   -1.7256   -1.3012 C   0  0  0  0  0  0  0  0  0  0  0  0
    1.8996   -3.4700    0.9807 C   0  0  0  0  0  0  0  0  0  0  0  0
    3.6169   -2.0273   -0.1671 C   0  0  0  0  0  0  0  0  0  0  0  0
   -6.0497    0.8264   -0.3474 C   0  0  0  0  0  0  0  0  0  0  0  0
   -7.4310    0.2454   -0.1335 C   0  0  0  0  0  0  0  0  0  0  0  0
    5.1969   -0.5767   -1.4235 C   0  0  0  0  0  0  0  0  0  0  0  0
    5.3450    0.7183   -0.6782 C   0  0  0  0  0  0  0  0  0  0  0  0
   -9.7310    0.5735   -0.4874 C   0  0  0  0  0  0  0  0  0  0  0  0
    4.7376    1.8925   -1.1226 C   0  0  0  0  0  0  0  0  0  0  0  0
    6.1134    0.7279    0.4859 C   0  0  0  0  0  0  0  0  0  0  0  0
    4.8983    3.0765   -0.4030 C   0  0  0  0  0  0  0  0  0  0  0  0
    6.2744    1.9120    1.2055 C   0  0  0  0  0  0  0  0  0  0  0  0
    5.6668    3.0863    0.7611 C   0  0  0  0  0  0  0  0  0  0  0  0
   -1.0931    0.0980   -0.8358 H   0  0  0  0  0  0  0  0  0  0  0  0
   -3.0068   -1.6199    0.8125 H   0  0  0  0  0  0  0  0  0  0  0  0
   -0.5114   -2.5297    0.5566 H   0  0  0  0  0  0  0  0  0  0  0  0
    0.8049    1.2369    2.1958 H   0  0  0  0  0  0  0  0  0  0  0  0
    0.7090    1.3755    0.4485 H   0  0  0  0  0  0  0  0  0  0  0  0
   -1.5983    2.0678    2.2799 H   0  0  0  0  0  0  0  0  0  0  0  0
   -1.5428    2.1554    0.5270 H   0  0  0  0  0  0  0  0  0  0  0  0
    1.3860   -0.6773   -0.9853 H   0  0  0  0  0  0  0  0  0  0  0  0
   -3.5004    0.9246   -0.8145 H   0  0  0  0  0  0  0  0  0  0  0  0
    2.5370   -0.0545    1.0661 H   0  0  0  0  0  0  0  0  0  0  0  0
    1.5105   -1.0682    2.0505 H   0  0  0  0  0  0  0  0  0  0  0  0
   -3.6257    0.7137    2.2221 H   0  0  0  0  0  0  0  0  0  0  0  0
   -3.8438    2.1416    1.2436 H   0  0  0  0  0  0  0  0  0  0  0  0
   -2.2030   -0.8941    2.7410 H   0  0  0  0  0  0  0  0  0  0  0  0
   -0.8712   -0.0278    3.4950 H   0  0  0  0  0  0  0  0  0  0  0  0
   -0.5763   -1.5305    2.6208 H   0  0  0  0  0  0  0  0  0  0  0  0
    2.0280   -3.0618   -1.1181 H   0  0  0  0  0  0  0  0  0  0  0  0
   -2.8366   -1.2099   -2.2037 H   0  0  0  0  0  0  0  0  0  0  0  0
   -4.2655   -1.8451   -1.3809 H   0  0  0  0  0  0  0  0  0  0  0  0
   -2.7756   -2.7416   -1.2921 H   0  0  0  0  0  0  0  0  0  0  0  0
   -5.3368   -0.8380    0.6710 H   0  0  0  0  0  0  0  0  0  0  0  0
   -0.2974   -1.6438   -2.1375 H   0  0  0  0  0  0  0  0  0  0  0  0
    2.0442   -3.0288    1.9695 H   0  0  0  0  0  0  0  0  0  0  0  0
    2.6089   -4.3066    0.9290 H   0  0  0  0  0  0  0  0  0  0  0  0
    0.9097   -3.9291    0.9358 H   0  0  0  0  0  0  0  0  0  0  0  0
    3.1854   -0.9797   -1.9215 H   0  0  0  0  0  0  0  0  0  0  0  0
   -7.5928    0.1237    0.9439 H   0  0  0  0  0  0  0  0  0  0  0  0
   -7.4746   -0.7352   -0.6219 H   0  0  0  0  0  0  0  0  0  0  0  0
    5.9627   -1.2958   -1.1079 H   0  0  0  0  0  0  0  0  0  0  0  0
    5.3451   -0.4318   -2.4993 H   0  0  0  0  0  0  0  0  0  0  0  0
   -9.8327   -0.3924   -0.9916 H   0  0  0  0  0  0  0  0  0  0  0  0
   -9.9516    0.4685    0.5792 H   0  0  0  0  0  0  0  0  0  0  0  0
  -10.4458    1.2748   -0.9259 H   0  0  0  0  0  0  0  0  0  0  0  0
    6.5926   -0.1779    0.8478 H   0  0  0  0  0  0  0  0  0  0  0  0
    4.4312    4.0000   -0.7357 H   0  0  0  0  0  0  0  0  0  0  0  0
    6.8723    1.9196    2.1122 H   0  0  0  0  0  0  0  0  0  0  0  0
    5.7919    4.0081    1.3217 H   0  0  0  0  0  0  0  0  0  0  0  0
  1 28  1  0  0  0  0
  2 11  1  0  0  0  0
  2 54  1  0  0  0  0
  3 22  2  0  0  0  0
  4 23  2  0  0  0  0
  5 24  1  0  0  0  0
  5 27  1  0  0  0  0
  6 15  1  0  0  0  0
  6 23  1  0  0  0  0
  6 53  1  0  0  0  0
  7 22  1  0  0  0  0
  7 25  1  0  0  0  0
  7 58  1  0  0  0  0
  8  9  1  0  0  0  0
  8 12  1  0  0  0  0
  8 13  1  0  0  0  0
  8 18  1  0  0  0  0
  9 10  1  0  0  0  0
  9 11  1  0  0  0  0
  9 33  1  0  0  0  0
 10 15  1  0  0  0  0
 10 20  1  0  0  0  0
 10 34  1  0  0  0  0
 11 14  1  0  0  0  0
 11 35  1  0  0  0  0
 12 16  1  0  0  0  0
 12 36  1  0  0  0  0
 12 37  1  0  0  0  0
 13 17  1  0  0  0  0
 13 38  1  0  0  0  0
 13 39  1  0  0  0  0
 14 16  1  0  0  0  0
 14 19  1  0  0  0  0
 14 40  1  0  0  0  0
 15 17  1  0  0  0  0
 15 41  1  0  0  0  0
 16 42  1  0  0  0  0
 16 43  1  0  0  0  0
 17 44  1  0  0  0  0
 17 45  1  0  0  0  0
 18 46  1  0  0  0  0
 18 47  1  0  0  0  0
 18 48  1  0  0  0  0
 19 21  1  0  0  0  0
 19 22  1  0  0  0  0
 19 49  1  0  0  0  0
 20 50  1  0  0  0  0
 20 51  1  0  0  0  0
 20 52  1  0  0  0  0
 21 55  1  0  0  0  0
 21 56  1  0  0  0  0
 21 57  1  0  0  0  0
 23 24  1  0  0  0  0
 24 59  1  0  0  0  0
 24 60  1  0  0  0  0
 25 26  1  0  0  0  0
 25 61  1  0  0  0  0
 25 62  1  0  0  0  0
 26 28  1  0  0  0  0
 26 29  2  0  0  0  0
 27 63  1  0  0  0  0
 27 64  1  0  0  0  0
 27 65  1  0  0  0  0
 28 30  2  0  0  0  0
 29 31  1  0  0  0  0
 29 66  1  0  0  0  0
 30 32  1  0  0  0  0
 30 67  1  0  0  0  0
 31 32  2  0  0  0  0
 31 68  1  0  0  0  0
 32 69  1  0  0  0  0
M  END
> <PUBCHEM_COMPOUND_CID>
45361501

> <PUBCHEM_CONFORMER_RMSD>
1

> <PUBCHEM_CONFORMER_DIVERSEORDER>
1
4
57
152
180
133
51
99
121
138
156
113
101
120
67
144
105
7
106
192
82
78
63
64
173
183
130
150
107
90
94
18
23
20
190
12
163
55
41
176
193
187
131
25
181
136
151
100
126
165
60
74
46
109
143
114
80
112
21
104
147
43
132
185
96
97
2
45
179
170
26
88
73
58
50
24
142
103
140
27
83
166
159
76
116
59
52
19
11
115
36
182
56
129
191
77
153
37
145
123
108
146
111
93
33
134
61
171
161
148
49
194
5
188
28
86
69
168
71
128
95
14
38
157
110
84
102
137
164
184
160
16
35
79
15
178
70
149
62
34
98
172
81
44
65
72
169
75
119
53
29
48
30
87
40
66
92
141
68
155
85
122
125
9
22
124
32
8
127
139
17
10
174
158
186
47
6
31
135
189
117
154
162
167
91
177
89
39
3
42
54
118
13
175

> <PUBCHEM_MMFF94_PARTIAL_CHARGES>
28
1 -0.18
11 0.28
15 0.3
19 0.06
2 -0.68
22 0.57
23 0.57
24 0.34
25 0.44
26 -0.14
27 0.28
28 0.18
29 -0.15
3 -0.57
30 -0.15
31 -0.15
32 -0.15
4 -0.57
5 -0.56
53 0.37
54 0.4
58 0.37
6 -0.73
66 0.15
67 0.15
68 0.15
69 0.15
7 -0.73

> <PUBCHEM_EFFECTIVE_ROTOR_COUNT>
10.6

> <PUBCHEM_PHARMACOPHORE_FEATURES>
11
1 2 acceptor
1 2 donor
1 21 hydrophobe
1 3 acceptor
1 4 acceptor
1 5 acceptor
1 6 donor
1 7 donor
6 26 28 29 30 31 32 rings
6 8 9 10 13 15 17 rings
6 8 9 11 12 14 16 rings

> <PUBCHEM_HEAVY_ATOM_COUNT>
32

> <PUBCHEM_ATOM_DEF_STEREO_COUNT>
6

> <PUBCHEM_ATOM_UDEF_STEREO_COUNT>
1

> <PUBCHEM_BOND_DEF_STEREO_COUNT>
0

> <PUBCHEM_BOND_UDEF_STEREO_COUNT>
0

> <PUBCHEM_ISOTOPIC_ATOM_COUNT>
0

> <PUBCHEM_COMPONENT_COUNT>
1

> <PUBCHEM_CACTVS_TAUTO_COUNT>
4

> <PUBCHEM_CONFORMER_ID>
02B4295D00000001

> <PUBCHEM_MMFF94_ENERGY>
87.8156

> <PUBCHEM_FEATURE_SELFOVERLAP>
55.843

> <PUBCHEM_SHAPE_FINGERPRINT>
10673678 19 18413110558645893135
10692045 39 14490462063381269752
10928967 22 10015322169752777044
11007060 377 18408893928112577315
11135609 187 18198622336031547360
11211813 74 18410853244796124781
12422481 6 17603300466775720740
12633257 1 16226332629112730660
12788726 201 17561087960421743377
13150687 139 17988935479031962662
13617811 41 15841554071763280888
13782708 43 11312054331831263569
14117953 113 18410862079739044932
14251757 52 18408882928332267689
14790565 3 17701561522694204777
14931854 50 17917162692828930208
15082195 135 18125717890143006409
15183329 4 18131078142520081193
15840311 113 18410293597075884095
16120349 18 18408036304415621821
17686467 74 18113620089580601613
19319366 153 18412822460671979735
20157964 124 18408042892336355882
20511986 3 18201150040201361428
20578428 11 15266764620711147074
20715895 44 18410292553947541108
21033648 29 16588318197388498010
21049683 118 18040708217155946114
21521721 280 18411987940758735483
21781055 127 15123244239068028123
23522609 53 17488766492505201345
23559900 14 17203035387238605419
23569914 2 17172881216697627357
25269216 80 16772939458741468101
3044373 193 17458067053551043124
34797466 226 17846503603622272567
4149490 64 18259984860001545683
44317340 157 18412831291319354142
474 4 18261966214899487442
5372103 7 15409750658180703032
56633871 153 11314299577392941088
57527293 21 15792016752917792438
9831232 110 12535348974214395757

> <PUBCHEM_SHAPE_MULTIPOLES>
626.98
20.55
3.27
1.76
37.46
0.78
0.04
-15.03
-5.52
-5.19
-0.11
-1.07
-0.33
-0.07

> <PUBCHEM_SHAPE_SELFOVERLAP>
1290.026

> <PUBCHEM_SHAPE_VOLUME>
358.8

> <PUBCHEM_COORDINATE_TYPE>
2
5
10

$$$$
