75536385
  -OEChem-12032416303D

 57 60  0     1  0  0  0  0  0999 V2000
    3.4306   -0.3898    0.6771 O   0  0  0  0  0  0  0  0  0  0  0  0
    6.2895   -0.0553    1.3115 O   0  0  0  0  0  0  0  0  0  0  0  0
   -0.4655   -1.5997    1.4138 O   0  0  0  0  0  0  0  0  0  0  0  0
    1.1432    1.3157   -1.9294 O   0  0  0  0  0  0  0  0  0  0  0  0
   -6.3409   -0.5052   -0.5593 O   0  0  0  0  0  0  0  0  0  0  0  0
    2.1139    2.0347    0.0520 N   0  0  0  0  0  0  0  0  0  0  0  0
    0.8919   -1.8968    1.4311 N   0  0  0  0  0  0  0  0  0  0  0  0
    3.4687   -1.2056   -0.4964 C   0  0  1  0  0  0  0  0  0  0  0  0
    4.1684    0.8363    0.5916 C   0  0  1  0  0  0  0  0  0  0  0  0
    5.6329    0.5814    0.2122 C   0  0  2  0  0  0  0  0  0  0  0  0
    4.9079   -1.5825   -0.8441 C   0  0  0  0  0  0  0  0  0  0  0  0
    5.7680   -0.3320   -1.0031 C   0  0  0  0  0  0  0  0  0  0  0  0
    2.6344   -2.4498   -0.2169 C   0  0  0  0  0  0  0  0  0  0  0  0
    3.4762    1.8315   -0.3372 C   0  0  0  0  0  0  0  0  0  0  0  0
    1.2176   -2.1000    0.1514 C   0  0  0  0  0  0  0  0  0  0  0  0
    0.1176   -1.9464   -0.7102 C   0  0  0  0  0  0  0  0  0  0  0  0
    1.0374    1.7564   -0.7878 C   0  0  0  0  0  0  0  0  0  0  0  0
   -0.9151   -1.6324    0.1332 C   0  0  0  0  0  0  0  0  0  0  0  0
   -0.3143    2.0469   -0.2443 C   0  0  0  0  0  0  0  0  0  0  0  0
   -2.3080   -1.3418   -0.0448 C   0  0  0  0  0  0  0  0  0  0  0  0
   -3.1074   -1.0538    1.0615 C   0  0  0  0  0  0  0  0  0  0  0  0
   -2.8640   -1.3479   -1.3241 C   0  0  0  0  0  0  0  0  0  0  0  0
   -1.3655    2.3481   -1.1103 C   0  0  0  0  0  0  0  0  0  0  0  0
   -0.5320    2.0184    1.1331 C   0  0  0  0  0  0  0  0  0  0  0  0
   -4.4624   -0.7716    0.8885 C   0  0  0  0  0  0  0  0  0  0  0  0
   -4.2189   -1.0658   -1.4972 C   0  0  0  0  0  0  0  0  0  0  0  0
   -2.6343    2.6208   -0.5991 C   0  0  0  0  0  0  0  0  0  0  0  0
   -1.8008    2.2908    1.6445 C   0  0  0  0  0  0  0  0  0  0  0  0
   -5.0181   -0.7776   -0.3909 C   0  0  0  0  0  0  0  0  0  0  0  0
   -2.8519    2.5922    0.7784 C   0  0  0  0  0  0  0  0  0  0  0  0
   -7.0993   -0.2191    0.6151 C   0  0  0  0  0  0  0  0  0  0  0  0
    3.0162   -0.6602   -1.3322 H   0  0  0  0  0  0  0  0  0  0  0  0
    4.1446    1.2482    1.6088 H   0  0  0  0  0  0  0  0  0  0  0  0
    6.1514    1.5305    0.0367 H   0  0  0  0  0  0  0  0  0  0  0  0
    4.9382   -2.1753   -1.7653 H   0  0  0  0  0  0  0  0  0  0  0  0
    5.3338   -2.2017   -0.0444 H   0  0  0  0  0  0  0  0  0  0  0  0
    6.8123   -0.6344   -1.1437 H   0  0  0  0  0  0  0  0  0  0  0  0
    5.4609    0.2057   -1.9076 H   0  0  0  0  0  0  0  0  0  0  0  0
    3.0749   -3.0223    0.6104 H   0  0  0  0  0  0  0  0  0  0  0  0
    2.6286   -3.1077   -1.0945 H   0  0  0  0  0  0  0  0  0  0  0  0
    3.5188    1.5103   -1.3818 H   0  0  0  0  0  0  0  0  0  0  0  0
    3.9758    2.8049   -0.2785 H   0  0  0  0  0  0  0  0  0  0  0  0
    7.2254   -0.1651    1.0712 H   0  0  0  0  0  0  0  0  0  0  0  0
    1.9589    2.4786    0.9509 H   0  0  0  0  0  0  0  0  0  0  0  0
    0.0920   -2.0489   -1.7852 H   0  0  0  0  0  0  0  0  0  0  0  0
   -2.7103   -1.0397    2.0734 H   0  0  0  0  0  0  0  0  0  0  0  0
   -2.2665   -1.5674   -2.2052 H   0  0  0  0  0  0  0  0  0  0  0  0
   -1.2154    2.3776   -2.1863 H   0  0  0  0  0  0  0  0  0  0  0  0
    0.2506    1.7561    1.8388 H   0  0  0  0  0  0  0  0  0  0  0  0
   -5.0251   -0.5557    1.7903 H   0  0  0  0  0  0  0  0  0  0  0  0
   -4.6465   -1.0716   -2.4961 H   0  0  0  0  0  0  0  0  0  0  0  0
   -3.4534    2.8532   -1.2733 H   0  0  0  0  0  0  0  0  0  0  0  0
   -1.9733    2.2592    2.7164 H   0  0  0  0  0  0  0  0  0  0  0  0
   -3.8408    2.8005    1.1762 H   0  0  0  0  0  0  0  0  0  0  0  0
   -8.1285   -0.0249    0.2958 H   0  0  0  0  0  0  0  0  0  0  0  0
   -6.7424    0.6890    1.1130 H   0  0  0  0  0  0  0  0  0  0  0  0
   -7.1316   -1.0790    1.2927 H   0  0  0  0  0  0  0  0  0  0  0  0
  1  8  1  0  0  0  0
  1  9  1  0  0  0  0
  2 10  1  0  0  0  0
  2 43  1  0  0  0  0
  3  7  1  0  0  0  0
  3 18  1  0  0  0  0
  4 17  2  0  0  0  0
  5 29  1  0  0  0  0
  5 31  1  0  0  0  0
  6 14  1  0  0  0  0
  6 17  1  0  0  0  0
  6 44  1  0  0  0  0
  7 15  2  0  0  0  0
  8 11  1  0  0  0  0
  8 13  1  0  0  0  0
  8 32  1  0  0  0  0
  9 10  1  0  0  0  0
  9 14  1  0  0  0  0
  9 33  1  0  0  0  0
 10 12  1  0  0  0  0
 10 34  1  0  0  0  0
 11 12  1  0  0  0  0
 11 35  1  0  0  0  0
 11 36  1  0  0  0  0
 12 37  1  0  0  0  0
 12 38  1  0  0  0  0
 13 15  1  0  0  0  0
 13 39  1  0  0  0  0
 13 40  1  0  0  0  0
 14 41  1  0  0  0  0
 14 42  1  0  0  0  0
 15 16  1  0  0  0  0
 16 18  2  0  0  0  0
 16 45  1  0  0  0  0
 17 19  1  0  0  0  0
 18 20  1  0  0  0  0
 19 23  2  0  0  0  0
 19 24  1  0  0  0  0
 20 21  2  0  0  0  0
 20 22  1  0  0  0  0
 21 25  1  0  0  0  0
 21 46  1  0  0  0  0
 22 26  2  0  0  0  0
 22 47  1  0  0  0  0
 23 27  1  0  0  0  0
 23 48  1  0  0  0  0
 24 28  2  0  0  0  0
 24 49  1  0  0  0  0
 25 29  2  0  0  0  0
 25 50  1  0  0  0  0
 26 29  1  0  0  0  0
 26 51  1  0  0  0  0
 27 30  2  0  0  0  0
 27 52  1  0  0  0  0
 28 30  1  0  0  0  0
 28 53  1  0  0  0  0
 30 54  1  0  0  0  0
 31 55  1  0  0  0  0
 31 56  1  0  0  0  0
 31 57  1  0  0  0  0
M  END
> <PUBCHEM_COMPOUND_CID>
75536385

> <PUBCHEM_CONFORMER_RMSD>
1

> <PUBCHEM_CONFORMER_DIVERSEORDER>
1
54
21
221
206
133
139
186
224
176
10
94
82
8
106
98
108
113
69
154
147
209
140
233
136
6
162
202
37
197
160
148
7
177
89
189
193
124
145
155
134
40
182
95
60
185
142
163
111
131
62
17
38
56
119
187
172
93
159
217
91
128
103
138
198
164
234
218
47
121
2
191
236
85
71
15
64
213
144
79
58
178
208
207
105
42
125
237
156
31
126
112
18
90
184
16
223
101
33
123
196
175
231
171
29
100
157
216
23
227
211
180
102
188
63
84
88
190
61
50
143
74
59
149
228
83
165
35
80
81
232
92
152
219
14
181
86
43
174
97
220
229
46
27
215
168
78
199
151
20
36
238
75
179
96
118
235
67
225
183
166
116
226
158
65
77
200
53
192
11
122
24
205
146
169
34
55
99
72
30
167
68
110
129
19
127
214
9
109
141
26
73
28
51
194
48
117
150
132
137
204
44
120
107
45
57
222
22
70
153
76
87
32
210
104
25
115
212
161
201
41
3
170
195
114
39
52
66
135
13
203
49
4
173
130
12
5
230

> <PUBCHEM_MMFF94_PARTIAL_CHARGES>
41
1 -0.56
10 0.28
13 0.18
14 0.3
15 0.11
16 -0.15
17 0.54
18 0.09
19 0.09
2 -0.68
20 0.05
21 -0.15
22 -0.15
23 -0.15
24 -0.15
25 -0.15
26 -0.15
27 -0.15
28 -0.15
29 0.08
3 -0.02
30 -0.15
31 0.28
4 -0.57
43 0.4
44 0.37
45 0.15
46 0.15
47 0.15
48 0.15
49 0.15
5 -0.36
50 0.15
51 0.15
52 0.15
53 0.15
54 0.15
6 -0.73
7 -0.41
8 0.28
9 0.28

> <PUBCHEM_EFFECTIVE_ROTOR_COUNT>
9.2

> <PUBCHEM_PHARMACOPHORE_FEATURES>
11
1 1 acceptor
1 2 acceptor
1 2 donor
1 4 acceptor
1 5 acceptor
1 6 donor
1 7 acceptor
5 3 7 15 16 18 rings
6 1 8 9 10 11 12 rings
6 19 23 24 27 28 30 rings
6 20 21 22 25 26 29 rings

> <PUBCHEM_HEAVY_ATOM_COUNT>
31

> <PUBCHEM_ATOM_DEF_STEREO_COUNT>
3

> <PUBCHEM_ATOM_UDEF_STEREO_COUNT>
0

> <PUBCHEM_BOND_DEF_STEREO_COUNT>
0

> <PUBCHEM_BOND_UDEF_STEREO_COUNT>
0

> <PUBCHEM_ISOTOPIC_ATOM_COUNT>
0

> <PUBCHEM_COMPONENT_COUNT>
1

> <PUBCHEM_CACTVS_TAUTO_COUNT>
2

> <PUBCHEM_CONFORMER_ID>
0480980100000001

> <PUBCHEM_MMFF94_ENERGY>
73.7145

> <PUBCHEM_FEATURE_SELFOVERLAP>
55.826

> <PUBCHEM_SHAPE_FINGERPRINT>
10670039 82 18262253135973721502
11513181 2 18130225930708818783
11578080 2 15337739075563114985
11646440 116 18410864295313889411
12107698 1 18343584019290561726
12422481 6 18123500257078764377
12467345 10 18342458110456050717
12788726 201 18335413547878117296
13140716 1 18120657096024119602
13402501 40 18408039628066233006
14068700 675 18342452690091713812
14394314 77 18272657840204005113
14464042 87 18343587339220893681
14840074 17 18343868835598776415
15001296 14 18339356486737758890
15131766 46 14978241843312628528
15484559 13 14741260021569193870
15575132 122 18340768152778963767
15849732 13 18060420231759566703
17357779 13 18409165523984180390
20691752 17 17750244621060321186
21236236 1 18411139100443570982
21360443 126 17896591787818886101
221357 26 18343024372193325598
22223350 30 17981322605790773259
23559900 14 18195805395583440088
23566358 2 18339637837223708845
24893992 56 18041000696482427083
3027735 51 18410576162779128115
3052486 1 18260551083273004876
338550 245 18335428958252748468
350125 39 18411984645738129641
392239 28 18131632296501709312
463206 1 18269833288782925639
469060 322 17458351797034802807
508706 21 18188220814171660664
59755656 215 18410293605470691383

> <PUBCHEM_SHAPE_MULTIPOLES>
598.66
13.26
3.26
1.41
0.2
1.28
-0.01
-2.96
0.18
-0.45
0
-0.32
0.13
-0.23

> <PUBCHEM_SHAPE_SELFOVERLAP>
1289.799

> <PUBCHEM_SHAPE_VOLUME>
329.3

> <PUBCHEM_COORDINATE_TYPE>
2
5
10

$$$$
