40777119
  -OEChem-12032416183D

 59 63  0     1  0  0  0  0  0999 V2000
   -3.3718   -2.3383    1.9779 Br  0  0  0  0  0  0  0  0  0  0  0  0
    4.9032    0.7780    1.9766 O   0  0  0  0  0  0  0  0  0  0  0  0
    0.8412    2.7140    1.1547 N   0  0  2  0  0  0  0  0  0  0  0  0
    3.1510   -0.2351    0.8416 N   0  0  0  0  0  0  0  0  0  0  0  0
   -1.4210    0.1786   -1.8909 N   0  0  0  0  0  0  0  0  0  0  0  0
   -3.3666   -1.1973   -1.5314 N   0  0  0  0  0  0  0  0  0  0  0  0
    0.3265    2.3925   -1.3780 C   0  0  2  0  0  0  0  0  0  0  0  0
   -0.9529    2.1553   -0.5287 C   0  0  2  0  0  0  0  0  0  0  0  0
    1.8450    1.8033    0.5436 C   0  0  2  0  0  0  0  0  0  0  0  0
    1.4402    1.4368   -0.9004 C   0  0  0  0  0  0  0  0  0  0  0  0
    0.8015    3.8298   -1.0755 C   0  0  0  0  0  0  0  0  0  0  0  0
   -0.5247    2.1646    0.9666 C   0  0  0  0  0  0  0  0  0  0  0  0
    0.9181    4.0149    0.4476 C   0  0  0  0  0  0  0  0  0  0  0  0
    2.0995    0.5594    1.3976 C   0  0  0  0  0  0  0  0  0  0  0  0
   -1.8310    0.9601   -0.8705 C   0  0  0  0  0  0  0  0  0  0  0  0
   -2.9812    0.7309   -0.1433 C   0  0  0  0  0  0  0  0  0  0  0  0
   -3.7171   -0.3734   -0.5221 C   0  0  0  0  0  0  0  0  0  0  0  0
   -2.2243   -0.8673   -2.1638 C   0  0  0  0  0  0  0  0  0  0  0  0
    4.4920   -0.0612    1.1797 C   0  0  0  0  0  0  0  0  0  0  0  0
   -4.9417   -0.7221    0.1578 C   0  0  0  0  0  0  0  0  0  0  0  0
   -1.8050   -1.7538   -3.2873 C   0  0  0  0  0  0  0  0  0  0  0  0
    5.4654   -0.9496    0.4942 C   0  0  0  0  0  0  0  0  0  0  0  0
   -4.9575   -1.5689    1.2659 C   0  0  0  0  0  0  0  0  0  0  0  0
   -6.1342   -0.1837   -0.3258 C   0  0  0  0  0  0  0  0  0  0  0  0
    6.7827   -0.5300    0.3088 C   0  0  0  0  0  0  0  0  0  0  0  0
    5.0623   -2.2043    0.0373 C   0  0  0  0  0  0  0  0  0  0  0  0
   -6.1658   -1.8774    1.8907 C   0  0  0  0  0  0  0  0  0  0  0  0
   -7.3425   -0.4922    0.2990 C   0  0  0  0  0  0  0  0  0  0  0  0
    7.6970   -1.3651   -0.3336 C   0  0  0  0  0  0  0  0  0  0  0  0
    5.9764   -3.0394   -0.6051 C   0  0  0  0  0  0  0  0  0  0  0  0
   -7.3585   -1.3391    1.4073 C   0  0  0  0  0  0  0  0  0  0  0  0
    7.2938   -2.6198   -0.7905 C   0  0  0  0  0  0  0  0  0  0  0  0
    0.1371    2.2702   -2.4497 H   0  0  0  0  0  0  0  0  0  0  0  0
   -1.6018    3.0290   -0.6971 H   0  0  0  0  0  0  0  0  0  0  0  0
    2.8010    2.3461    0.4985 H   0  0  0  0  0  0  0  0  0  0  0  0
    1.0955    0.3994   -0.9744 H   0  0  0  0  0  0  0  0  0  0  0  0
    2.3129    1.5313   -1.5585 H   0  0  0  0  0  0  0  0  0  0  0  0
    0.0954    4.5609   -1.4862 H   0  0  0  0  0  0  0  0  0  0  0  0
    1.7716    4.0105   -1.5544 H   0  0  0  0  0  0  0  0  0  0  0  0
   -1.2337    2.7770    1.5400 H   0  0  0  0  0  0  0  0  0  0  0  0
   -0.5892    1.1668    1.4159 H   0  0  0  0  0  0  0  0  0  0  0  0
    1.8619    4.5184    0.6906 H   0  0  0  0  0  0  0  0  0  0  0  0
    0.1269    4.6829    0.8112 H   0  0  0  0  0  0  0  0  0  0  0  0
    1.2169   -0.0853    1.4566 H   0  0  0  0  0  0  0  0  0  0  0  0
    2.3704    0.8493    2.4195 H   0  0  0  0  0  0  0  0  0  0  0  0
    2.8863   -0.9064    0.1286 H   0  0  0  0  0  0  0  0  0  0  0  0
   -3.2903    1.3794    0.6679 H   0  0  0  0  0  0  0  0  0  0  0  0
   -2.2972   -1.4366   -4.2113 H   0  0  0  0  0  0  0  0  0  0  0  0
   -0.7213   -1.7111   -3.4350 H   0  0  0  0  0  0  0  0  0  0  0  0
   -2.0786   -2.7934   -3.0817 H   0  0  0  0  0  0  0  0  0  0  0  0
   -6.1426    0.4780   -1.1889 H   0  0  0  0  0  0  0  0  0  0  0  0
    7.1151    0.4455    0.6538 H   0  0  0  0  0  0  0  0  0  0  0  0
    4.0556   -2.5819    0.1886 H   0  0  0  0  0  0  0  0  0  0  0  0
   -6.1994   -2.5353    2.7555 H   0  0  0  0  0  0  0  0  0  0  0  0
   -8.2712   -0.0732   -0.0773 H   0  0  0  0  0  0  0  0  0  0  0  0
    8.7226   -1.0384   -0.4786 H   0  0  0  0  0  0  0  0  0  0  0  0
    5.6649   -4.0194   -0.9548 H   0  0  0  0  0  0  0  0  0  0  0  0
   -8.2994   -1.5792    1.8936 H   0  0  0  0  0  0  0  0  0  0  0  0
    8.0058   -3.2707   -1.2894 H   0  0  0  0  0  0  0  0  0  0  0  0
  1 23  1  0  0  0  0
  2 19  2  0  0  0  0
  3  9  1  0  0  0  0
  3 12  1  0  0  0  0
  3 13  1  0  0  0  0
  4 14  1  0  0  0  0
  4 19  1  0  0  0  0
  4 46  1  0  0  0  0
  5 15  2  0  0  0  0
  5 18  1  0  0  0  0
  6 17  1  0  0  0  0
  6 18  2  0  0  0  0
  7  8  1  0  0  0  0
  7 10  1  0  0  0  0
  7 11  1  0  0  0  0
  7 33  1  0  0  0  0
  8 12  1  0  0  0  0
  8 15  1  0  0  0  0
  8 34  1  0  0  0  0
  9 10  1  0  0  0  0
  9 14  1  0  0  0  0
  9 35  1  0  0  0  0
 10 36  1  0  0  0  0
 10 37  1  0  0  0  0
 11 13  1  0  0  0  0
 11 38  1  0  0  0  0
 11 39  1  0  0  0  0
 12 40  1  0  0  0  0
 12 41  1  0  0  0  0
 13 42  1  0  0  0  0
 13 43  1  0  0  0  0
 14 44  1  0  0  0  0
 14 45  1  0  0  0  0
 15 16  1  0  0  0  0
 16 17  2  0  0  0  0
 16 47  1  0  0  0  0
 17 20  1  0  0  0  0
 18 21  1  0  0  0  0
 19 22  1  0  0  0  0
 20 23  1  0  0  0  0
 20 24  2  0  0  0  0
 21 48  1  0  0  0  0
 21 49  1  0  0  0  0
 21 50  1  0  0  0  0
 22 25  2  0  0  0  0
 22 26  1  0  0  0  0
 23 27  2  0  0  0  0
 24 28  1  0  0  0  0
 24 51  1  0  0  0  0
 25 29  1  0  0  0  0
 25 52  1  0  0  0  0
 26 30  2  0  0  0  0
 26 53  1  0  0  0  0
 27 31  1  0  0  0  0
 27 54  1  0  0  0  0
 28 31  2  0  0  0  0
 28 55  1  0  0  0  0
 29 32  2  0  0  0  0
 29 56  1  0  0  0  0
 30 32  1  0  0  0  0
 30 57  1  0  0  0  0
 31 58  1  0  0  0  0
 32 59  1  0  0  0  0
M  END
> <PUBCHEM_COMPOUND_CID>
40777119

> <PUBCHEM_CONFORMER_RMSD>
1

> <PUBCHEM_CONFORMER_DIVERSEORDER>
1
103
80
24
47
36
98
108
82
101
49
15
92
60
59
77
52
81
78
57
45
58
70
64
65
97
83
79
106
75
63
104
51
17
39
76
72
50
26
91
69
48
14
105
90
74
33
21
28
107
42
89
43
61
54
88
32
4
102
53
68
9
23
99
44
55
84
12
34
93
27
62
87
73
85
46
71
31
2
94
38
20
29
40
30
37
109
67
3
56
16
41
96
18
25
95
66
100
86
35
22
6
19
8
5
13
7
11
10

> <PUBCHEM_MMFF94_PARTIAL_CHARGES>
39
1 -0.11
12 0.27
13 0.27
14 0.3
15 0.17
16 -0.15
17 0.31
18 0.48
19 0.54
2 -0.57
21 0.14
22 0.09
23 0.11
24 -0.15
25 -0.15
26 -0.15
27 -0.15
28 -0.15
29 -0.15
3 -0.81
30 -0.15
31 -0.15
32 -0.15
4 -0.73
46 0.37
47 0.15
5 -0.62
51 0.15
52 0.15
53 0.15
54 0.15
55 0.15
56 0.15
57 0.15
58 0.15
59 0.15
6 -0.62
8 0.14
9 0.27

> <PUBCHEM_EFFECTIVE_ROTOR_COUNT>
7.2

> <PUBCHEM_PHARMACOPHORE_FEATURES>
10
1 1 hydrophobe
1 2 acceptor
1 3 cation
1 4 donor
1 5 acceptor
3 5 6 18 cation
6 20 23 24 27 28 31 rings
6 22 25 26 29 30 32 rings
6 5 6 15 16 17 18 rings
8 3 7 8 9 10 11 12 13 rings

> <PUBCHEM_HEAVY_ATOM_COUNT>
32

> <PUBCHEM_ATOM_DEF_STEREO_COUNT>
3

> <PUBCHEM_ATOM_UDEF_STEREO_COUNT>
0

> <PUBCHEM_BOND_DEF_STEREO_COUNT>
0

> <PUBCHEM_BOND_UDEF_STEREO_COUNT>
0

> <PUBCHEM_ISOTOPIC_ATOM_COUNT>
0

> <PUBCHEM_COMPONENT_COUNT>
1

> <PUBCHEM_CACTVS_TAUTO_COUNT>
2

> <PUBCHEM_CONFORMER_ID>
026E359F00000001

> <PUBCHEM_MMFF94_ENERGY>
95.659

> <PUBCHEM_FEATURE_SELFOVERLAP>
50.746

> <PUBCHEM_SHAPE_FINGERPRINT>
10692045 39 16773806882947429191
10928967 22 18199445724444101702
11135926 11 18047461511942031716
11211813 15 10737583729839082710
11513181 2 17464833650041249931
117089 54 18337402543101944682
11961588 58 10881402032278987228
12107183 9 17560798861867467145
12422481 6 17989202633659150238
12633257 1 16558743550704436096
12677640 9 16772936155769913727
13103583 49 16845565448582497028
131258 43 16299251127828088589
13540713 5 17557976531641768277
13673619 4 17748826336912467397
13690498 29 17967246481869811709
13947930 73 18042414675802328947
14202776 33 14851873705001681639
14251764 30 18408041810210643994
14420673 8 18187087282625333259
14767858 380 12973602244287336383
14950920 106 15984522508430431234
14955137 171 18412825806466626057
15274700 34 12030632549951065581
15669420 48 16298109809009745142
15684393 108 18335146367597443142
15721738 202 18186806877095024718
16110190 28 17918267675817234710
16120349 189 10303518520951322594
16991981 162 15142900095518670766
16992787 43 18266464385836499572
19246450 95 17488753259710786617
20501277 279 18130779102234666296
20567600 254 9943806694464292384
20775530 9 18339346492876323278
208703 8 18260551091831271876
21365058 113 18040720289802755381
21403212 168 16988846051793890143
21585481 104 14635419425766631551
21716022 299 17896057562359041764
23559900 14 17896041117282088077
255183 451 18187086191197380789
2838139 119 10447925049084799472
312425 54 16845277385263552490
3737641 26 18271238301777604270
3862424 121 15213880357920836259
4107672 100 17023177168478679149
437815 12 18334580152634894019
44880168 125 17774708776206435598
474113 269 18199740497124812519
513202 73 18201156538412994234
5372103 7 9295288317895334987
54039377 194 18410860937061108958
56633871 153 18131624590992581599
57816373 69 18189335843965085751
6009941 240 18188204278553157973
6058803 2 17198811192862543613
6371380 46 17967521382000444009
6679774 75 18271540791502281375
7918774 8 18335141990328928978
9896288 288 17914058598839825105
999808 66 18412265012634376994

> <PUBCHEM_SHAPE_MULTIPOLES>
638.69
19.92
3.95
2.15
10.12
3.03
-1.06
-21.78
4.76
3.14
0.07
-1.64
-0.84
2.55

> <PUBCHEM_SHAPE_SELFOVERLAP>
1380.322

> <PUBCHEM_SHAPE_VOLUME>
359.6

> <PUBCHEM_COORDINATE_TYPE>
2
5
10

$$$$
