7156516
  -OEChem-12032416133D

 74 77  0     1  0  0  0  0  0999 V2000
   -0.8482    3.3454   -0.1134 S   0  0  0  0  0  0  0  0  0  0  0  0
   -6.5614   -2.0115   -0.6517 O   0  0  0  0  0  0  0  0  0  0  0  0
   -7.0823   -0.0819    0.6712 O   0  0  0  0  0  0  0  0  0  0  0  0
    1.3266   -1.8563   -1.2145 O   0  0  0  0  0  0  0  0  0  0  0  0
    4.4716    0.1008    1.2310 O   0  0  0  0  0  0  0  0  0  0  0  0
    0.6726    1.2529   -0.0787 N   0  0  0  0  0  0  0  0  0  0  0  0
    2.4157   -1.7980    0.8377 N   0  0  0  0  0  0  0  0  0  0  0  0
    2.9125    5.5392    0.1844 N   0  0  0  0  0  0  0  0  0  0  0  0
   -2.4958   -0.8814    0.4448 C   0  0  2  0  0  0  0  0  0  0  0  0
   -3.4093    0.1317   -0.3765 C   0  0  1  0  0  0  0  0  0  0  0  0
   -4.9569   -0.1706   -0.4161 C   0  0  1  0  0  0  0  0  0  0  0  0
   -0.9792   -0.6522   -0.0035 C   0  0  1  0  0  0  0  0  0  0  0  0
   -2.8949   -2.3378    0.0920 C   0  0  0  0  0  0  0  0  0  0  0  0
   -5.1766   -1.6764   -0.7358 C   0  0  1  0  0  0  0  0  0  0  0  0
   -3.0681    1.6112   -0.0337 C   0  0  0  0  0  0  0  0  0  0  0  0
   -4.3905   -2.6065    0.1817 C   0  0  0  0  0  0  0  0  0  0  0  0
   -2.6142   -0.6910    1.9771 C   0  0  0  0  0  0  0  0  0  0  0  0
   -0.6382    0.8156   -0.0313 C   0  0  0  0  0  0  0  0  0  0  0  0
   -5.7225    0.2386    0.8616 C   0  0  0  0  0  0  0  0  0  0  0  0
   -5.6037    0.6462   -1.5704 C   0  0  0  0  0  0  0  0  0  0  0  0
   -1.5908    1.8137   -0.0629 C   0  0  0  0  0  0  0  0  0  0  0  0
    0.0522   -1.4534    0.8024 C   0  0  0  0  0  0  0  0  0  0  0  0
    1.3080   -1.7224    0.0060 C   0  0  0  0  0  0  0  0  0  0  0  0
    0.6830    2.5677   -0.1169 C   0  0  0  0  0  0  0  0  0  0  0  0
    1.8726    3.3845   -0.1627 C   0  0  0  0  0  0  0  0  0  0  0  0
    3.7529   -2.0495    0.3509 C   0  0  2  0  0  0  0  0  0  0  0  0
    4.0505   -3.5589    0.3120 C   0  0  0  0  0  0  0  0  0  0  0  0
    3.0901    2.8552   -0.5760 C   0  0  0  0  0  0  0  0  0  0  0  0
    1.8371    4.7202    0.2039 C   0  0  0  0  0  0  0  0  0  0  0  0
    4.7728   -1.2884    1.2041 C   0  0  0  0  0  0  0  0  0  0  0  0
    5.4038   -3.9421   -0.3249 C   0  0  0  0  0  0  0  0  0  0  0  0
    4.2191    3.6664   -0.6094 C   0  0  0  0  0  0  0  0  0  0  0  0
    5.4469   -3.4521   -1.7755 C   0  0  0  0  0  0  0  0  0  0  0  0
    5.6662   -5.4481   -0.2841 C   0  0  0  0  0  0  0  0  0  0  0  0
    4.0786    4.9895   -0.2229 C   0  0  0  0  0  0  0  0  0  0  0  0
   -3.0837   -0.0069   -1.4223 H   0  0  0  0  0  0  0  0  0  0  0  0
   -0.9272   -0.9713   -1.0550 H   0  0  0  0  0  0  0  0  0  0  0  0
   -2.3826   -3.0516    0.7469 H   0  0  0  0  0  0  0  0  0  0  0  0
   -2.5672   -2.5709   -0.9298 H   0  0  0  0  0  0  0  0  0  0  0  0
   -4.8687   -1.8690   -1.7722 H   0  0  0  0  0  0  0  0  0  0  0  0
   -3.5378    2.2839   -0.7590 H   0  0  0  0  0  0  0  0  0  0  0  0
   -3.4458    1.8803    0.9584 H   0  0  0  0  0  0  0  0  0  0  0  0
   -4.7484   -2.5269    1.2140 H   0  0  0  0  0  0  0  0  0  0  0  0
   -4.5859   -3.6477   -0.1055 H   0  0  0  0  0  0  0  0  0  0  0  0
   -1.9564   -1.3834    2.5140 H   0  0  0  0  0  0  0  0  0  0  0  0
   -3.6127   -0.8983    2.3560 H   0  0  0  0  0  0  0  0  0  0  0  0
   -2.3396    0.3178    2.2976 H   0  0  0  0  0  0  0  0  0  0  0  0
   -5.3891   -0.2956    1.7476 H   0  0  0  0  0  0  0  0  0  0  0  0
   -5.6476    1.3130    1.0546 H   0  0  0  0  0  0  0  0  0  0  0  0
   -6.6424    0.3525   -1.7592 H   0  0  0  0  0  0  0  0  0  0  0  0
   -5.6080    1.7202   -1.3571 H   0  0  0  0  0  0  0  0  0  0  0  0
   -5.0586    0.4968   -2.5097 H   0  0  0  0  0  0  0  0  0  0  0  0
   -0.3297   -2.4427    1.0734 H   0  0  0  0  0  0  0  0  0  0  0  0
    0.2968   -0.9321    1.7362 H   0  0  0  0  0  0  0  0  0  0  0  0
   -6.6544   -2.9459   -0.9039 H   0  0  0  0  0  0  0  0  0  0  0  0
   -7.5588    0.1874    1.4748 H   0  0  0  0  0  0  0  0  0  0  0  0
    2.2851   -1.7444    1.8439 H   0  0  0  0  0  0  0  0  0  0  0  0
    3.7818   -1.6366   -0.6632 H   0  0  0  0  0  0  0  0  0  0  0  0
    3.2442   -4.0700   -0.2318 H   0  0  0  0  0  0  0  0  0  0  0  0
    4.0142   -3.9565    1.3354 H   0  0  0  0  0  0  0  0  0  0  0  0
    3.1810    1.8154   -0.8798 H   0  0  0  0  0  0  0  0  0  0  0  0
    0.9472    5.2252    0.5641 H   0  0  0  0  0  0  0  0  0  0  0  0
    5.7842   -1.3930    0.8026 H   0  0  0  0  0  0  0  0  0  0  0  0
    4.7663   -1.6544    2.2367 H   0  0  0  0  0  0  0  0  0  0  0  0
    6.2196   -3.4644    0.2286 H   0  0  0  0  0  0  0  0  0  0  0  0
    5.1784    3.2753   -0.9285 H   0  0  0  0  0  0  0  0  0  0  0  0
    6.3512   -3.8135   -2.2777 H   0  0  0  0  0  0  0  0  0  0  0  0
    5.4725   -2.3600   -1.8336 H   0  0  0  0  0  0  0  0  0  0  0  0
    4.5829   -3.8101   -2.3456 H   0  0  0  0  0  0  0  0  0  0  0  0
    4.9022   -5.9985   -0.8435 H   0  0  0  0  0  0  0  0  0  0  0  0
    6.6435   -5.6880   -0.7159 H   0  0  0  0  0  0  0  0  0  0  0  0
    5.6572   -5.8125    0.7485 H   0  0  0  0  0  0  0  0  0  0  0  0
    4.9287    5.6637   -0.2313 H   0  0  0  0  0  0  0  0  0  0  0  0
    5.1466    0.5296    1.7841 H   0  0  0  0  0  0  0  0  0  0  0  0
  1 21  1  0  0  0  0
  1 24  1  0  0  0  0
  2 14  1  0  0  0  0
  2 55  1  0  0  0  0
  3 19  1  0  0  0  0
  3 56  1  0  0  0  0
  4 23  2  0  0  0  0
  5 30  1  0  0  0  0
  5 74  1  0  0  0  0
  6 18  1  0  0  0  0
  6 24  2  0  0  0  0
  7 23  1  0  0  0  0
  7 26  1  0  0  0  0
  7 57  1  0  0  0  0
  8 29  1  0  0  0  0
  8 35  2  0  0  0  0
  9 10  1  0  0  0  0
  9 12  1  0  0  0  0
  9 13  1  0  0  0  0
  9 17  1  0  0  0  0
 10 11  1  0  0  0  0
 10 15  1  0  0  0  0
 10 36  1  0  0  0  0
 11 14  1  0  0  0  0
 11 19  1  0  0  0  0
 11 20  1  0  0  0  0
 12 18  1  0  0  0  0
 12 22  1  0  0  0  0
 12 37  1  0  0  0  0
 13 16  1  0  0  0  0
 13 38  1  0  0  0  0
 13 39  1  0  0  0  0
 14 16  1  0  0  0  0
 14 40  1  0  0  0  0
 15 21  1  0  0  0  0
 15 41  1  0  0  0  0
 15 42  1  0  0  0  0
 16 43  1  0  0  0  0
 16 44  1  0  0  0  0
 17 45  1  0  0  0  0
 17 46  1  0  0  0  0
 17 47  1  0  0  0  0
 18 21  2  0  0  0  0
 19 48  1  0  0  0  0
 19 49  1  0  0  0  0
 20 50  1  0  0  0  0
 20 51  1  0  0  0  0
 20 52  1  0  0  0  0
 22 23  1  0  0  0  0
 22 53  1  0  0  0  0
 22 54  1  0  0  0  0
 24 25  1  0  0  0  0
 25 28  1  0  0  0  0
 25 29  2  0  0  0  0
 26 27  1  0  0  0  0
 26 30  1  0  0  0  0
 26 58  1  0  0  0  0
 27 31  1  0  0  0  0
 27 59  1  0  0  0  0
 27 60  1  0  0  0  0
 28 32  2  0  0  0  0
 28 61  1  0  0  0  0
 29 62  1  0  0  0  0
 30 63  1  0  0  0  0
 30 64  1  0  0  0  0
 31 33  1  0  0  0  0
 31 34  1  0  0  0  0
 31 65  1  0  0  0  0
 32 35  1  0  0  0  0
 32 66  1  0  0  0  0
 33 67  1  0  0  0  0
 33 68  1  0  0  0  0
 33 69  1  0  0  0  0
 34 70  1  0  0  0  0
 34 71  1  0  0  0  0
 34 72  1  0  0  0  0
 35 73  1  0  0  0  0
M  END
> <PUBCHEM_COMPOUND_CID>
7156516

> <PUBCHEM_CONFORMER_RMSD>
1

> <PUBCHEM_CONFORMER_DIVERSEORDER>
1
26
15
5
20
56
11
31
2
22
43
27
10
45
35
40
42
14
30
41
46
44
37
16
57
50
33
49
19
38
29
25
24
4
51
48
21
34
53
32
39
3
52
55
18
28
8
6
23
36
17
54
47
9
13
12
7

> <PUBCHEM_MMFF94_PARTIAL_CHARGES>
32
1 -0.08
12 0.18
14 0.28
15 0.18
18 0.05
19 0.28
2 -0.68
21 -0.14
22 0.06
23 0.57
24 0.33
25 0.05
26 0.3
28 -0.15
29 0.16
3 -0.68
30 0.28
32 -0.15
35 0.16
4 -0.57
5 -0.68
55 0.4
56 0.4
57 0.37
6 -0.57
61 0.15
62 0.15
66 0.15
7 -0.73
73 0.15
74 0.4
8 -0.62

> <PUBCHEM_EFFECTIVE_ROTOR_COUNT>
10.2

> <PUBCHEM_PHARMACOPHORE_FEATURES>
15
1 2 acceptor
1 2 donor
1 3 acceptor
1 3 donor
1 4 acceptor
1 5 acceptor
1 5 donor
1 6 acceptor
1 7 donor
1 8 acceptor
3 31 33 34 hydrophobe
5 1 6 18 21 24 rings
6 8 25 28 29 32 35 rings
6 9 10 11 13 14 16 rings
6 9 10 12 15 18 21 rings

> <PUBCHEM_HEAVY_ATOM_COUNT>
35

> <PUBCHEM_ATOM_DEF_STEREO_COUNT>
6

> <PUBCHEM_ATOM_UDEF_STEREO_COUNT>
0

> <PUBCHEM_BOND_DEF_STEREO_COUNT>
0

> <PUBCHEM_BOND_UDEF_STEREO_COUNT>
0

> <PUBCHEM_ISOTOPIC_ATOM_COUNT>
0

> <PUBCHEM_COMPONENT_COUNT>
1

> <PUBCHEM_CACTVS_TAUTO_COUNT>
2

> <PUBCHEM_CONFORMER_ID>
006D332400000001

> <PUBCHEM_MMFF94_ENERGY>
105.8925

> <PUBCHEM_FEATURE_SELFOVERLAP>
76.273

> <PUBCHEM_SHAPE_FINGERPRINT>
10050765 1 18338237172055322867
10190108 129 17185598456327275611
10411042 1 18266179422797166054
1100329 8 18193557757819878849
11135926 11 18265328594039413949
11578080 2 17242419864487775429
11756154 67 18123190104774508350
11763715 3 18048333158332258750
12166972 35 18271244928358072546
12645989 146 18196935470462342414
12788726 201 17827639145333824674
131258 43 18129396930007916766
13540713 5 18201725089726462715
13757389 114 17620764881785559732
13782708 43 17702091470472968038
13785724 45 18341055099507131476
138480 1 18409446964997044880
14028597 1 17627260045094714993
140371 6 18341049597543210025
14068700 675 18118689820914709734
14394314 77 18050572837795649011
14790565 3 17760087710892911397
15082195 135 18268130119538834639
15198563 99 17978792307713062588
15200665 1 16968860550763285560
15324884 4 17837452347252853184
15400415 2 17833831955615152716
15439362 3 18337107981443921809
15684970 41 18052288152764621943
15876981 60 17974303023428039102
15927050 60 17979918533784575390
16067689 302 18119810459930219623
16087824 20 17761775066827385717
21133410 127 15088910480968180724
21133410 32 16229191282183757122
21133665 82 17903922498678178396
21796203 349 17905087730997706315
21927370 108 18123205505894171099
23559900 14 18410284805341359555
24771750 20 17971765620947581988
3298306 158 18121218946112628164
4017518 198 17977671141293378660
404807 14 18195811764871610490
4144715 1 18188213208191190387
5171179 24 18337669724284867949
5385378 56 18265058105705090961
59755656 215 18120091947231844741
6700243 42 17483704220864992718
9981440 41 17830455346936572625

> <PUBCHEM_SHAPE_MULTIPOLES>
685.71
14.79
7.71
1.14
8.1
6.2
-0.02
-14.18
1.94
-17.33
1.09
0.02
-0.54
0.55

> <PUBCHEM_SHAPE_SELFOVERLAP>
1432.7

> <PUBCHEM_SHAPE_VOLUME>
392.7

> <PUBCHEM_COORDINATE_TYPE>
2
5
10

$$$$
