45361000
  -OEChem-12032416353D

 66 69  0     1  0  0  0  0  0999 V2000
    7.3255    2.1029   -0.9917 F   0  0  0  0  0  0  0  0  0  0  0  0
    9.4175    2.3578   -0.4136 F   0  0  0  0  0  0  0  0  0  0  0  0
    7.8722    2.3814    1.1315 F   0  0  0  0  0  0  0  0  0  0  0  0
    1.4537   -2.3155   -0.8180 O   0  0  0  0  0  0  0  0  0  0  0  0
   -5.4215   -0.9502   -1.2342 O   0  0  0  0  0  0  0  0  0  0  0  0
    8.4034    0.4086    0.1030 O   0  0  0  0  0  0  0  0  0  0  0  0
    2.7625   -0.2393    0.3086 N   0  0  1  0  0  0  0  0  0  0  0  0
   -0.7432    0.7645    0.0044 N   0  0  1  0  0  0  0  0  0  0  0  0
   -0.4385   -2.0703    0.4451 N   0  0  0  0  0  0  0  0  0  0  0  0
   -6.5489   -1.0678    0.7915 N   0  0  0  0  0  0  0  0  0  0  0  0
   -9.5050    1.3998   -1.7007 N   0  0  0  0  0  0  0  0  0  0  0  0
    0.6041    0.8286    0.6127 C   0  0  1  0  0  0  0  0  0  0  0  0
    1.3964   -0.4986    0.8007 C   0  0  1  0  0  0  0  0  0  0  0  0
    1.6061    1.6910   -0.1773 C   0  0  0  0  0  0  0  0  0  0  0  0
    2.9533    1.2067    0.3158 C   0  0  0  0  0  0  0  0  0  0  0  0
   -1.7445    0.0038    0.8030 C   0  0  2  0  0  0  0  0  0  0  0  0
    0.8320   -1.7000    0.0469 C   0  0  0  0  0  0  0  0  0  0  0  0
   -1.2275   -1.3192    1.4013 C   0  0  0  0  0  0  0  0  0  0  0  0
    3.7924   -0.9322    1.0721 C   0  0  0  0  0  0  0  0  0  0  0  0
   -2.9815   -0.3283   -0.0578 C   0  0  0  0  0  0  0  0  0  0  0  0
   -1.2483    2.1157   -0.2931 C   0  0  0  0  0  0  0  0  0  0  0  0
   -4.2025   -0.5425    0.8175 C   0  0  0  0  0  0  0  0  0  0  0  0
    5.0676   -1.0824    0.2860 C   0  0  0  0  0  0  0  0  0  0  0  0
   -5.4328   -0.8721   -0.0087 C   0  0  0  0  0  0  0  0  0  0  0  0
    6.1584   -0.2581    0.5622 C   0  0  0  0  0  0  0  0  0  0  0  0
    5.1581   -2.0455   -0.7191 C   0  0  0  0  0  0  0  0  0  0  0  0
    7.3398   -0.3967   -0.1664 C   0  0  0  0  0  0  0  0  0  0  0  0
    6.3393   -2.1840   -1.4480 C   0  0  0  0  0  0  0  0  0  0  0  0
    7.4303   -1.3598   -1.1715 C   0  0  0  0  0  0  0  0  0  0  0  0
   -7.8440   -1.3923    0.2422 C   0  0  0  0  0  0  0  0  0  0  0  0
   -8.6499   -0.1572   -0.0606 C   0  0  0  0  0  0  0  0  0  0  0  0
    8.2369    1.8150   -0.0384 C   0  0  0  0  0  0  0  0  0  0  0  0
   -9.2679    0.5627    0.9558 C   0  0  0  0  0  0  0  0  0  0  0  0
   -8.7977    0.2990   -1.3606 C   0  0  0  0  0  0  0  0  0  0  0  0
  -10.0044    1.7007    0.6456 C   0  0  0  0  0  0  0  0  0  0  0  0
  -10.0915    2.0738   -0.6860 C   0  0  0  0  0  0  0  0  0  0  0  0
    0.5110    1.2919    1.6073 H   0  0  0  0  0  0  0  0  0  0  0  0
    1.4248   -0.7425    1.8710 H   0  0  0  0  0  0  0  0  0  0  0  0
    1.4762    2.7619    0.0104 H   0  0  0  0  0  0  0  0  0  0  0  0
    1.5147    1.5130   -1.2572 H   0  0  0  0  0  0  0  0  0  0  0  0
    3.1493    1.5983    1.3220 H   0  0  0  0  0  0  0  0  0  0  0  0
    3.7571    1.5264   -0.3543 H   0  0  0  0  0  0  0  0  0  0  0  0
   -2.0577    0.6332    1.6479 H   0  0  0  0  0  0  0  0  0  0  0  0
   -0.6214   -1.1226    2.2915 H   0  0  0  0  0  0  0  0  0  0  0  0
   -2.0340   -1.9797    1.7306 H   0  0  0  0  0  0  0  0  0  0  0  0
    3.4594   -1.9496    1.3219 H   0  0  0  0  0  0  0  0  0  0  0  0
    3.9797   -0.4506    2.0414 H   0  0  0  0  0  0  0  0  0  0  0  0
   -2.7933   -1.2166   -0.6754 H   0  0  0  0  0  0  0  0  0  0  0  0
   -3.2302    0.4582   -0.7741 H   0  0  0  0  0  0  0  0  0  0  0  0
   -0.8636   -2.8773   -0.0012 H   0  0  0  0  0  0  0  0  0  0  0  0
   -2.2370    2.1294   -0.7550 H   0  0  0  0  0  0  0  0  0  0  0  0
   -0.6075    2.6255   -1.0198 H   0  0  0  0  0  0  0  0  0  0  0  0
   -1.2983    2.7311    0.6129 H   0  0  0  0  0  0  0  0  0  0  0  0
   -4.0564   -1.3618    1.5281 H   0  0  0  0  0  0  0  0  0  0  0  0
   -4.4185    0.3663    1.3926 H   0  0  0  0  0  0  0  0  0  0  0  0
    6.0890    0.4886    1.3492 H   0  0  0  0  0  0  0  0  0  0  0  0
    4.3168   -2.6954   -0.9436 H   0  0  0  0  0  0  0  0  0  0  0  0
    6.4099   -2.9338   -2.2305 H   0  0  0  0  0  0  0  0  0  0  0  0
   -6.4676   -0.9646    1.7990 H   0  0  0  0  0  0  0  0  0  0  0  0
    8.3477   -1.4721   -1.7428 H   0  0  0  0  0  0  0  0  0  0  0  0
   -7.7158   -2.0021   -0.6596 H   0  0  0  0  0  0  0  0  0  0  0  0
   -8.3719   -2.0105    0.9771 H   0  0  0  0  0  0  0  0  0  0  0  0
   -9.1817    0.2463    1.9917 H   0  0  0  0  0  0  0  0  0  0  0  0
   -8.3383   -0.2183   -2.1973 H   0  0  0  0  0  0  0  0  0  0  0  0
  -10.4945    2.2774    1.4215 H   0  0  0  0  0  0  0  0  0  0  0  0
  -10.6540    2.9536   -0.9804 H   0  0  0  0  0  0  0  0  0  0  0  0
  1 32  1  0  0  0  0
  2 32  1  0  0  0  0
  3 32  1  0  0  0  0
  4 17  2  0  0  0  0
  5 24  2  0  0  0  0
  6 27  1  0  0  0  0
  6 32  1  0  0  0  0
  7 13  1  0  0  0  0
  7 15  1  0  0  0  0
  7 19  1  0  0  0  0
  8 12  1  0  0  0  0
  8 16  1  0  0  0  0
  8 21  1  0  0  0  0
  9 17  1  0  0  0  0
  9 18  1  0  0  0  0
  9 50  1  0  0  0  0
 10 24  1  0  0  0  0
 10 30  1  0  0  0  0
 10 59  1  0  0  0  0
 11 34  1  0  0  0  0
 11 36  2  0  0  0  0
 12 13  1  0  0  0  0
 12 14  1  0  0  0  0
 12 37  1  0  0  0  0
 13 17  1  0  0  0  0
 13 38  1  0  0  0  0
 14 15  1  0  0  0  0
 14 39  1  0  0  0  0
 14 40  1  0  0  0  0
 15 41  1  0  0  0  0
 15 42  1  0  0  0  0
 16 18  1  0  0  0  0
 16 20  1  0  0  0  0
 16 43  1  0  0  0  0
 18 44  1  0  0  0  0
 18 45  1  0  0  0  0
 19 23  1  0  0  0  0
 19 46  1  0  0  0  0
 19 47  1  0  0  0  0
 20 22  1  0  0  0  0
 20 48  1  0  0  0  0
 20 49  1  0  0  0  0
 21 51  1  0  0  0  0
 21 52  1  0  0  0  0
 21 53  1  0  0  0  0
 22 24  1  0  0  0  0
 22 54  1  0  0  0  0
 22 55  1  0  0  0  0
 23 25  2  0  0  0  0
 23 26  1  0  0  0  0
 25 27  1  0  0  0  0
 25 56  1  0  0  0  0
 26 28  2  0  0  0  0
 26 57  1  0  0  0  0
 27 29  2  0  0  0  0
 28 29  1  0  0  0  0
 28 58  1  0  0  0  0
 29 60  1  0  0  0  0
 30 31  1  0  0  0  0
 30 61  1  0  0  0  0
 30 62  1  0  0  0  0
 31 33  1  0  0  0  0
 31 34  2  0  0  0  0
 33 35  2  0  0  0  0
 33 63  1  0  0  0  0
 34 64  1  0  0  0  0
 35 36  1  0  0  0  0
 35 65  1  0  0  0  0
 36 66  1  0  0  0  0
M  END
> <PUBCHEM_COMPOUND_CID>
45361000

> <PUBCHEM_CONFORMER_RMSD>
1.2

> <PUBCHEM_CONFORMER_DIVERSEORDER>
3
54
45
47
50
67
100
72
95
61
78
57
20
105
75
49
51
31
42
64
36
83
87
96
103
107
38
14
71
66
56
63
21
65
90
92
26
43
53
82
70
30
25
86
48
104
7
52
80
91
29
23
44
106
11
108
19
68
5
58
99
24
6
46
77
84
81
27
93
69
76
74
97
89
37
62
55
73
35
9
33
2
28
17
41
102
98
34
94
88
18
101
22
12
85
10
4
79
1
15
13
40
8
39
16
60
59
32

> <PUBCHEM_MMFF94_PARTIAL_CHARGES>
44
1 -0.34
10 -0.73
11 -0.62
12 0.27
13 0.33
15 0.27
16 0.27
17 0.57
18 0.3
19 0.41
2 -0.34
21 0.27
22 0.06
23 -0.14
24 0.57
25 -0.15
26 -0.15
27 0.08
28 -0.15
29 -0.15
3 -0.34
30 0.44
31 -0.14
32 1.3
33 -0.15
34 0.16
35 -0.15
36 0.16
4 -0.57
5 -0.57
50 0.37
56 0.15
57 0.15
58 0.15
59 0.37
6 -0.36
60 0.15
63 0.15
64 0.15
65 0.15
66 0.15
7 -0.81
8 -0.81
9 -0.73

> <PUBCHEM_EFFECTIVE_ROTOR_COUNT>
11.4

> <PUBCHEM_PHARMACOPHORE_FEATURES>
12
1 10 donor
1 11 acceptor
1 4 acceptor
1 5 acceptor
1 6 acceptor
1 7 cation
1 8 cation
1 9 donor
5 7 12 13 14 15 rings
6 11 31 33 34 35 36 rings
6 23 25 26 27 28 29 rings
7 8 9 12 13 16 17 18 rings

> <PUBCHEM_HEAVY_ATOM_COUNT>
36

> <PUBCHEM_ATOM_DEF_STEREO_COUNT>
3

> <PUBCHEM_ATOM_UDEF_STEREO_COUNT>
0

> <PUBCHEM_BOND_DEF_STEREO_COUNT>
0

> <PUBCHEM_BOND_UDEF_STEREO_COUNT>
0

> <PUBCHEM_ISOTOPIC_ATOM_COUNT>
0

> <PUBCHEM_COMPONENT_COUNT>
1

> <PUBCHEM_CACTVS_TAUTO_COUNT>
6

> <PUBCHEM_CONFORMER_ID>
02B4276800000003

> <PUBCHEM_MMFF94_ENERGY>
99.0518

> <PUBCHEM_FEATURE_SELFOVERLAP>
60.934

> <PUBCHEM_SHAPE_FINGERPRINT>
10580692 12 18410011023547569473
10674148 151 17894348887308884353
11061554 47 18040149609287976933
11211813 74 18411981386628208816
11456790 92 12107781917390807094
11638347 137 9007060166773370402
11672396 167 18198061375102060670
12089408 11 18187359935401685707
12522641 33 17989491809644786926
13811026 1 18335706061152893467
13947947 74 17894633651397029051
14040221 8 16845579690973931689
14117953 113 18343303643915188767
15131766 46 14905893964713489114
15461852 350 15626221308913555793
15840311 113 18260834813313248636
16087824 20 18334574604323468429
16992787 43 18411135844188454018
1754911 235 18273214201244362447
21792934 111 18411412913752520594
249057 3 18413669119828533295
335352 9 18412542137415748303
3633792 109 18411420622179749032
3711267 37 18041005016623499429
4760202 170 18201151139471182208
5381727 24 8574714593861403352
6126387 218 18407760331434623833
6691757 9 15913332429668589143

> <PUBCHEM_SHAPE_MULTIPOLES>
676.53
37.43
2.47
1.19
43.86
0.66
0.19
16.29
8.07
-3.17
0.38
0.69
-0.14
1.73

> <PUBCHEM_SHAPE_SELFOVERLAP>
1434.642

> <PUBCHEM_SHAPE_VOLUME>
377.7

> <PUBCHEM_COORDINATE_TYPE>
2
5
10

$$$$
