51136631
  -OEChem-12032416143D

 69 72  0     1  0  0  0  0  0999 V2000
   -6.8068   -2.0941   -1.3176 O   0  0  0  0  0  0  0  0  0  0  0  0
   -1.0431    3.7129   -0.6229 O   0  0  0  0  0  0  0  0  0  0  0  0
   -6.9779   -0.0781   -0.2748 O   0  0  0  0  0  0  0  0  0  0  0  0
    2.4904   -1.3403   -3.0156 O   0  0  0  0  0  0  0  0  0  0  0  0
    4.5455   -1.9633   -1.2567 O   0  0  0  0  0  0  0  0  0  0  0  0
    2.3757    1.2931    2.1980 O   0  0  0  0  0  0  0  0  0  0  0  0
   -2.1708    2.0726    0.5522 N   0  0  0  0  0  0  0  0  0  0  0  0
   -1.0717   -2.1615    1.8092 N   0  0  0  0  0  0  0  0  0  0  0  0
    0.1648    2.3126    0.7778 N   0  0  0  0  0  0  0  0  0  0  0  0
   -2.8236   -0.2995    0.8567 C   0  0  2  0  0  0  0  0  0  0  0  0
   -4.1908    0.0302    0.2011 C   0  0  1  0  0  0  0  0  0  0  0  0
   -4.0978    1.2503   -0.7333 C   0  0  0  0  0  0  0  0  0  0  0  0
   -2.2520    0.9662    1.5175 C   0  0  0  0  0  0  0  0  0  0  0  0
   -3.4601    2.4478   -0.0302 C   0  0  0  0  0  0  0  0  0  0  0  0
   -1.7998   -0.9102   -0.1071 C   0  0  0  0  0  0  0  0  0  0  0  0
   -4.8092   -1.1618   -0.5287 C   0  0  0  0  0  0  0  0  0  0  0  0
   -0.7370   -1.6469    0.6721 C   0  0  0  0  0  0  0  0  0  0  0  0
   -1.0068    2.7796    0.1831 C   0  0  0  0  0  0  0  0  0  0  0  0
    0.6322   -1.7385    0.1039 C   0  0  0  0  0  0  0  0  0  0  0  0
   -6.2991   -1.0138   -0.6702 C   0  0  0  0  0  0  0  0  0  0  0  0
    1.6629   -2.0711    0.9921 C   0  0  0  0  0  0  0  0  0  0  0  0
    1.3254   -2.2947    2.4363 C   0  0  0  0  0  0  0  0  0  0  0  0
   -0.0557   -2.9288    2.5376 C   0  0  0  0  0  0  0  0  0  0  0  0
    0.9086   -1.4955   -1.2428 C   0  0  0  0  0  0  0  0  0  0  0  0
    2.9798   -2.1339    0.5284 C   0  0  0  0  0  0  0  0  0  0  0  0
    2.2247   -1.5760   -1.6998 C   0  0  0  0  0  0  0  0  0  0  0  0
    3.2579   -1.8914   -0.8168 C   0  0  0  0  0  0  0  0  0  0  0  0
    1.4766    2.3565    0.2438 C   0  0  0  0  0  0  0  0  0  0  0  0
    2.5557    1.8465    0.9654 C   0  0  0  0  0  0  0  0  0  0  0  0
    1.6831    2.9185   -1.0159 C   0  0  0  0  0  0  0  0  0  0  0  0
    3.8416    1.8986    0.4273 C   0  0  0  0  0  0  0  0  0  0  0  0
    2.9689    2.9708   -1.5541 C   0  0  0  0  0  0  0  0  0  0  0  0
    1.3806   -1.0242   -3.8535 C   0  0  0  0  0  0  0  0  0  0  0  0
    4.0482    2.4608   -0.8326 C   0  0  0  0  0  0  0  0  0  0  0  0
    5.5424   -2.2913   -0.2908 C   0  0  0  0  0  0  0  0  0  0  0  0
    3.5371    0.7979    2.8609 C   0  0  0  0  0  0  0  0  0  0  0  0
   -3.0607   -1.0075    1.6608 H   0  0  0  0  0  0  0  0  0  0  0  0
   -4.8595    0.3139    1.0277 H   0  0  0  0  0  0  0  0  0  0  0  0
   -3.4968    0.9932   -1.6150 H   0  0  0  0  0  0  0  0  0  0  0  0
   -5.0884    1.5411   -1.0993 H   0  0  0  0  0  0  0  0  0  0  0  0
   -2.9191    1.2998    2.3227 H   0  0  0  0  0  0  0  0  0  0  0  0
   -1.2980    0.7388    1.9913 H   0  0  0  0  0  0  0  0  0  0  0  0
   -1.3645   -0.1354   -0.7435 H   0  0  0  0  0  0  0  0  0  0  0  0
   -2.2611   -1.6578   -0.7604 H   0  0  0  0  0  0  0  0  0  0  0  0
   -3.3491    3.2733   -0.7398 H   0  0  0  0  0  0  0  0  0  0  0  0
   -4.1016    2.8020    0.7853 H   0  0  0  0  0  0  0  0  0  0  0  0
   -4.3786   -1.2792   -1.5291 H   0  0  0  0  0  0  0  0  0  0  0  0
   -4.6335   -2.0790    0.0460 H   0  0  0  0  0  0  0  0  0  0  0  0
    2.0617   -2.9498    2.9149 H   0  0  0  0  0  0  0  0  0  0  0  0
    1.3380   -1.3305    2.9568 H   0  0  0  0  0  0  0  0  0  0  0  0
   -0.0442   -3.9572    2.1554 H   0  0  0  0  0  0  0  0  0  0  0  0
   -0.3487   -2.9834    3.5918 H   0  0  0  0  0  0  0  0  0  0  0  0
    0.1066    1.8748    1.6899 H   0  0  0  0  0  0  0  0  0  0  0  0
    0.0778   -1.2714   -1.8990 H   0  0  0  0  0  0  0  0  0  0  0  0
    3.7400   -2.3783    1.2625 H   0  0  0  0  0  0  0  0  0  0  0  0
   -7.7795   -2.0305   -1.4277 H   0  0  0  0  0  0  0  0  0  0  0  0
    0.8891    3.3030   -1.6427 H   0  0  0  0  0  0  0  0  0  0  0  0
    4.7276    1.5231    0.9271 H   0  0  0  0  0  0  0  0  0  0  0  0
    3.1298    3.4009   -2.5384 H   0  0  0  0  0  0  0  0  0  0  0  0
    0.6730   -1.8578   -3.9193 H   0  0  0  0  0  0  0  0  0  0  0  0
    0.8990   -0.0879   -3.5508 H   0  0  0  0  0  0  0  0  0  0  0  0
    1.7752   -0.8644   -4.8625 H   0  0  0  0  0  0  0  0  0  0  0  0
    5.6175   -1.5244    0.4877 H   0  0  0  0  0  0  0  0  0  0  0  0
    5.3901   -3.2940    0.1230 H   0  0  0  0  0  0  0  0  0  0  0  0
    6.5043   -2.3069   -0.8138 H   0  0  0  0  0  0  0  0  0  0  0  0
    5.0486    2.4994   -1.2538 H   0  0  0  0  0  0  0  0  0  0  0  0
    4.0139   -0.0155    2.3062 H   0  0  0  0  0  0  0  0  0  0  0  0
    4.2393    1.6055    3.0947 H   0  0  0  0  0  0  0  0  0  0  0  0
    3.2077    0.3786    3.8173 H   0  0  0  0  0  0  0  0  0  0  0  0
  1 20  1  0  0  0  0
  1 56  1  0  0  0  0
  2 18  2  0  0  0  0
  3 20  2  0  0  0  0
  4 26  1  0  0  0  0
  4 33  1  0  0  0  0
  5 27  1  0  0  0  0
  5 35  1  0  0  0  0
  6 29  1  0  0  0  0
  6 36  1  0  0  0  0
  7 13  1  0  0  0  0
  7 14  1  0  0  0  0
  7 18  1  0  0  0  0
  8 17  2  0  0  0  0
  8 23  1  0  0  0  0
  9 18  1  0  0  0  0
  9 28  1  0  0  0  0
  9 53  1  0  0  0  0
 10 11  1  0  0  0  0
 10 13  1  0  0  0  0
 10 15  1  0  0  0  0
 10 37  1  0  0  0  0
 11 12  1  0  0  0  0
 11 16  1  0  0  0  0
 11 38  1  0  0  0  0
 12 14  1  0  0  0  0
 12 39  1  0  0  0  0
 12 40  1  0  0  0  0
 13 41  1  0  0  0  0
 13 42  1  0  0  0  0
 14 45  1  0  0  0  0
 14 46  1  0  0  0  0
 15 17  1  0  0  0  0
 15 43  1  0  0  0  0
 15 44  1  0  0  0  0
 16 20  1  0  0  0  0
 16 47  1  0  0  0  0
 16 48  1  0  0  0  0
 17 19  1  0  0  0  0
 19 21  1  0  0  0  0
 19 24  2  0  0  0  0
 21 22  1  0  0  0  0
 21 25  2  0  0  0  0
 22 23  1  0  0  0  0
 22 49  1  0  0  0  0
 22 50  1  0  0  0  0
 23 51  1  0  0  0  0
 23 52  1  0  0  0  0
 24 26  1  0  0  0  0
 24 54  1  0  0  0  0
 25 27  1  0  0  0  0
 25 55  1  0  0  0  0
 26 27  2  0  0  0  0
 28 29  1  0  0  0  0
 28 30  2  0  0  0  0
 29 31  2  0  0  0  0
 30 32  1  0  0  0  0
 30 57  1  0  0  0  0
 31 34  1  0  0  0  0
 31 58  1  0  0  0  0
 32 34  2  0  0  0  0
 32 59  1  0  0  0  0
 33 60  1  0  0  0  0
 33 61  1  0  0  0  0
 33 62  1  0  0  0  0
 34 66  1  0  0  0  0
 35 63  1  0  0  0  0
 35 64  1  0  0  0  0
 35 65  1  0  0  0  0
 36 67  1  0  0  0  0
 36 68  1  0  0  0  0
 36 69  1  0  0  0  0
M  END
> <PUBCHEM_COMPOUND_CID>
51136631

> <PUBCHEM_CONFORMER_RMSD>
1.2

> <PUBCHEM_CONFORMER_DIVERSEORDER>
1
53
2
39
18
57
42
31
60
11
62
4
29
61
48
68
67
74
55
6
45
23
21
22
52
69
71
24
65
35
73
9
40
33
15
41
46
20
38
51
16
75
5
66
50
63
36
13
17
43
25
72
76
19
37
59
58
12
47
77
8
32
44
56
28
34
3
64
7
26
54
70
27
30
49
14
10

> <PUBCHEM_MMFF94_PARTIAL_CHARGES>
41
1 -0.65
13 0.3
14 0.3
15 0.06
16 0.06
17 0.3
18 0.69
19 0.09
2 -0.57
20 0.66
21 -0.14
22 0.14
23 0.25
24 -0.15
25 -0.15
26 0.08
27 0.08
28 0.12
29 0.08
3 -0.57
30 -0.15
31 -0.15
32 -0.15
33 0.28
34 -0.15
35 0.28
36 0.28
4 -0.36
5 -0.36
53 0.37
54 0.15
55 0.15
56 0.5
57 0.15
58 0.15
59 0.15
6 -0.36
66 0.15
7 -0.66
8 -0.7
9 -0.55

> <PUBCHEM_EFFECTIVE_ROTOR_COUNT>
11.6

> <PUBCHEM_PHARMACOPHORE_FEATURES>
13
1 1 acceptor
1 2 acceptor
1 3 acceptor
1 4 acceptor
1 5 acceptor
1 6 acceptor
1 8 acceptor
1 9 donor
3 1 3 20 anion
6 19 21 24 25 26 27 rings
6 28 29 30 31 32 34 rings
6 7 10 11 12 13 14 rings
6 8 17 19 21 22 23 rings

> <PUBCHEM_HEAVY_ATOM_COUNT>
36

> <PUBCHEM_ATOM_DEF_STEREO_COUNT>
2

> <PUBCHEM_ATOM_UDEF_STEREO_COUNT>
0

> <PUBCHEM_BOND_DEF_STEREO_COUNT>
0

> <PUBCHEM_BOND_UDEF_STEREO_COUNT>
0

> <PUBCHEM_ISOTOPIC_ATOM_COUNT>
0

> <PUBCHEM_COMPONENT_COUNT>
1

> <PUBCHEM_CACTVS_TAUTO_COUNT>
2

> <PUBCHEM_CONFORMER_ID>
030C487700000001

> <PUBCHEM_MMFF94_ENERGY>
127.5346

> <PUBCHEM_FEATURE_SELFOVERLAP>
66.063

> <PUBCHEM_SHAPE_FINGERPRINT>
12107698 1 18413108329404840119
12156800 1 16957359526008060196
12166972 35 17749675082057817183
12422481 6 18268972264679537904
12645989 146 18197508333263619246
13150687 139 18045514255707018876
15721738 202 17417822746505874427
17909252 39 17846224340595923503
20600515 1 17552071793459923816
20691752 17 18114475473885242425
20764821 26 18115589218887269173
20775438 99 18198328736378413071
20905425 154 18341611490708187024
22393880 68 18264201427222317613
23559900 14 18270392777156178049
3052486 1 18043526110875548736
3298306 158 18192993940314147001
35225 105 17905604754781629884
4093350 32 17775291569351407899
46194498 28 17632293454149037950
463206 1 18196645405734700953
513532 50 17203050785028956060
59755656 215 18270401714756196605

> <PUBCHEM_SHAPE_MULTIPOLES>
690.7
11.02
4.42
2.61
17.11
2.14
0.85
-2.98
3.58
-2.73
-0.31
-2.5
-1.38
0.06

> <PUBCHEM_SHAPE_SELFOVERLAP>
1473.411

> <PUBCHEM_SHAPE_VOLUME>
380.8

> <PUBCHEM_COORDINATE_TYPE>
2
5
10

$$$$
