45783698
  -OEChem-12032416263D

 47 50  0     1  0  0  0  0  0999 V2000
   -1.4435   -1.6285    1.9968 O   0  0  0  0  0  0  0  0  0  0  0  0
    1.7331    3.9903    1.2508 O   0  5  0  0  0  0  0  0  0  0  0  0
    2.1782    3.4637   -0.8334 O   0  0  0  0  0  0  0  0  0  0  0  0
    5.4900   -1.2303   -1.0512 O   0  0  0  0  0  0  0  0  0  0  0  0
   -3.6309   -0.3919   -0.6848 N   0  0  1  0  0  0  0  0  0  0  0  0
   -0.8218   -1.2273   -0.1172 N   0  0  0  0  0  0  0  0  0  0  0  0
   -0.0434   -1.6685    1.9884 N   0  0  0  0  0  0  0  0  0  0  0  0
    1.4088    3.4662    0.1578 N   0  3  0  0  0  0  0  0  0  0  0  0
    3.9649   -1.5258    0.6724 N   0  0  0  0  0  0  0  0  0  0  0  0
   -3.3091   -1.2675    0.4598 C   0  0  1  0  0  0  0  0  0  0  0  0
   -3.9395   -2.6261    0.1023 C   0  0  0  0  0  0  0  0  0  0  0  0
   -4.6439   -2.4000   -1.2279 C   0  0  0  0  0  0  0  0  0  0  0  0
   -4.8758   -0.9028   -1.2589 C   0  0  0  0  0  0  0  0  0  0  0  0
   -3.7322    1.0155   -0.3207 C   0  0  0  0  0  0  0  0  0  0  0  0
   -1.8201   -1.3639    0.7184 C   0  0  0  0  0  0  0  0  0  0  0  0
   -2.3778    1.6608   -0.1940 C   0  0  0  0  0  0  0  0  0  0  0  0
   -1.9948    2.2493    1.0113 C   0  0  0  0  0  0  0  0  0  0  0  0
   -1.5057    1.6701   -1.2827 C   0  0  0  0  0  0  0  0  0  0  0  0
    0.2477   -1.4226    0.7075 C   0  0  0  0  0  0  0  0  0  0  0  0
   -0.7402    2.8474    1.1278 C   0  0  0  0  0  0  0  0  0  0  0  0
   -0.2510    2.2682   -1.1662 C   0  0  0  0  0  0  0  0  0  0  0  0
    0.1317    2.8569    0.0391 C   0  0  0  0  0  0  0  0  0  0  0  0
    1.5954   -1.3670    0.2194 C   0  0  0  0  0  0  0  0  0  0  0  0
    1.8613   -1.1102   -1.1210 C   0  0  0  0  0  0  0  0  0  0  0  0
    2.6726   -1.5660    1.0677 C   0  0  0  0  0  0  0  0  0  0  0  0
    3.1779   -1.0610   -1.5657 C   0  0  0  0  0  0  0  0  0  0  0  0
    4.1844   -1.2737   -0.6375 C   0  0  0  0  0  0  0  0  0  0  0  0
    6.4837   -1.4554   -0.0580 C   0  0  0  0  0  0  0  0  0  0  0  0
   -3.7972   -0.9058    1.3758 H   0  0  0  0  0  0  0  0  0  0  0  0
   -3.2147   -3.4437    0.0248 H   0  0  0  0  0  0  0  0  0  0  0  0
   -4.6775   -2.9021    0.8655 H   0  0  0  0  0  0  0  0  0  0  0  0
   -5.5740   -2.9706   -1.3059 H   0  0  0  0  0  0  0  0  0  0  0  0
   -3.9875   -2.7028   -2.0533 H   0  0  0  0  0  0  0  0  0  0  0  0
   -5.0381   -0.5422   -2.2793 H   0  0  0  0  0  0  0  0  0  0  0  0
   -5.7459   -0.6398   -0.6440 H   0  0  0  0  0  0  0  0  0  0  0  0
   -4.2584    1.5684   -1.1118 H   0  0  0  0  0  0  0  0  0  0  0  0
   -4.3333    1.1586    0.5868 H   0  0  0  0  0  0  0  0  0  0  0  0
   -2.6634    2.2473    1.8680 H   0  0  0  0  0  0  0  0  0  0  0  0
   -1.7916    1.2194   -2.2295 H   0  0  0  0  0  0  0  0  0  0  0  0
   -0.4755    3.2952    2.0823 H   0  0  0  0  0  0  0  0  0  0  0  0
    0.4023    2.2561   -2.0349 H   0  0  0  0  0  0  0  0  0  0  0  0
    1.0637   -0.9442   -1.8406 H   0  0  0  0  0  0  0  0  0  0  0  0
    2.5509   -1.7711    2.1272 H   0  0  0  0  0  0  0  0  0  0  0  0
    3.4023   -0.8613   -2.6078 H   0  0  0  0  0  0  0  0  0  0  0  0
    6.4397   -0.6884    0.7226 H   0  0  0  0  0  0  0  0  0  0  0  0
    6.3879   -2.4574    0.3734 H   0  0  0  0  0  0  0  0  0  0  0  0
    7.4632   -1.3887   -0.5408 H   0  0  0  0  0  0  0  0  0  0  0  0
  1  7  1  0  0  0  0
  1 15  1  0  0  0  0
  2  8  1  0  0  0  0
  3  8  2  0  0  0  0
  4 27  1  0  0  0  0
  4 28  1  0  0  0  0
  5 10  1  0  0  0  0
  5 13  1  0  0  0  0
  5 14  1  0  0  0  0
  6 15  2  0  0  0  0
  6 19  1  0  0  0  0
  7 19  2  0  0  0  0
  8 22  1  0  0  0  0
  9 25  1  0  0  0  0
  9 27  2  0  0  0  0
 10 11  1  0  0  0  0
 10 15  1  0  0  0  0
 10 29  1  0  0  0  0
 11 12  1  0  0  0  0
 11 30  1  0  0  0  0
 11 31  1  0  0  0  0
 12 13  1  0  0  0  0
 12 32  1  0  0  0  0
 12 33  1  0  0  0  0
 13 34  1  0  0  0  0
 13 35  1  0  0  0  0
 14 16  1  0  0  0  0
 14 36  1  0  0  0  0
 14 37  1  0  0  0  0
 16 17  2  0  0  0  0
 16 18  1  0  0  0  0
 17 20  1  0  0  0  0
 17 38  1  0  0  0  0
 18 21  2  0  0  0  0
 18 39  1  0  0  0  0
 19 23  1  0  0  0  0
 20 22  2  0  0  0  0
 20 40  1  0  0  0  0
 21 22  1  0  0  0  0
 21 41  1  0  0  0  0
 23 24  1  0  0  0  0
 23 25  2  0  0  0  0
 24 26  2  0  0  0  0
 24 42  1  0  0  0  0
 25 43  1  0  0  0  0
 26 27  1  0  0  0  0
 26 44  1  0  0  0  0
 28 45  1  0  0  0  0
 28 46  1  0  0  0  0
 28 47  1  0  0  0  0
M  CHG  2   2  -1   8   1
M  END
> <PUBCHEM_COMPOUND_CID>
45783698

> <PUBCHEM_CONFORMER_RMSD>
0.8

> <PUBCHEM_CONFORMER_DIVERSEORDER>
1
43
18
73
74
32
68
21
79
30
9
56
59
69
62
71
64
31
49
40
16
60
45
36
76
75
52
33
34
53
38
47
14
58
50
17
8
77
44
24
4
72
63
37
48
19
67
46
65
54
15
3
66
29
6
2
22
25
26
28
42
57
70
20
39
27
51
61
55
35
78
12
10
7
13
41
11
23
5

> <PUBCHEM_MMFF94_PARTIAL_CHARGES>
33
1 -0.02
10 0.45
13 0.27
14 0.41
15 0.3
16 -0.14
17 -0.15
18 -0.15
19 0.46
2 -0.52
20 -0.15
21 -0.15
22 0.13
23 0.05
24 -0.15
25 0.16
26 -0.15
27 0.39
28 0.28
3 -0.52
38 0.15
39 0.15
4 -0.36
40 0.15
41 0.15
42 0.15
43 0.15
44 0.15
5 -0.81
6 -0.57
7 -0.41
8 0.91
9 -0.62

> <PUBCHEM_EFFECTIVE_ROTOR_COUNT>
7

> <PUBCHEM_PHARMACOPHORE_FEATURES>
9
1 2 acceptor
1 2 anion
1 3 acceptor
1 5 cation
3 6 7 19 cation
5 1 6 7 15 19 rings
5 5 10 11 12 13 rings
6 16 17 18 20 21 22 rings
6 9 23 24 25 26 27 rings

> <PUBCHEM_HEAVY_ATOM_COUNT>
28

> <PUBCHEM_ATOM_DEF_STEREO_COUNT>
1

> <PUBCHEM_ATOM_UDEF_STEREO_COUNT>
0

> <PUBCHEM_BOND_DEF_STEREO_COUNT>
0

> <PUBCHEM_BOND_UDEF_STEREO_COUNT>
0

> <PUBCHEM_ISOTOPIC_ATOM_COUNT>
0

> <PUBCHEM_COMPONENT_COUNT>
1

> <PUBCHEM_CACTVS_TAUTO_COUNT>
1

> <PUBCHEM_CONFORMER_ID>
02BA9A9200000001

> <PUBCHEM_MMFF94_ENERGY>
67.3536

> <PUBCHEM_FEATURE_SELFOVERLAP>
45.753

> <PUBCHEM_SHAPE_FINGERPRINT>
10006869 2 17614859413717791049
1100329 8 18339646638224160505
12156800 1 15650383050483862468
12166972 35 17749395887930208990
12596599 1 18201164230493933389
12788726 201 18190178975466132794
133893 2 18122366810713941569
13402501 40 18263638644815156552
13761468 95 17395034053744238638
14787075 74 18333733494553811660
14790565 3 17691122630921234145
14910302 57 17844527695513131062
16090146 7 17846224333283031075
17357779 13 18413101766826550431
17492 54 18043236952234110813
17818456 19 17831002538740037042
19319366 153 17534905178729667867
20642791 239 18188479169693325317
20642791 35 18335687335707340949
20691752 17 17531515577623217509
20775438 99 17619044571406547151
20905425 154 18194686093067338029
21344244 246 17980753063183897479
21623110 236 18337122219477039120
23402539 116 18409730638443415654
23419403 2 18118095143457273717
23557571 272 18272369720100126902
23559900 14 18340194280565472401
238918 7 17616528901216540208
3298306 158 17905606962247334461
392239 28 18338238159628743440
4280585 95 18337662053546571668
5171179 24 18341604957957584296
59755656 215 17615959346426740063
7471813 234 18412263977795100942

> <PUBCHEM_SHAPE_MULTIPOLES>
527.84
9.82
4.47
1.52
9.04
5.11
0.19
-8.6
-3.33
-0.25
0.66
-0.07
-0.23
-0.15

> <PUBCHEM_SHAPE_SELFOVERLAP>
1148.894

> <PUBCHEM_SHAPE_VOLUME>
289.5

> <PUBCHEM_COORDINATE_TYPE>
2
5
10

$$$$
