38026882
  -OEChem-12032416143D

 70 71  0     1  0  0  0  0  0999 V2000
    1.4085    2.9897    0.4222 O   0  0  0  0  0  0  0  0  0  0  0  0
   -3.7483   -2.3098    1.1701 O   0  0  0  0  0  0  0  0  0  0  0  0
    6.1823   -2.2913   -0.2174 O   0  0  0  0  0  0  0  0  0  0  0  0
    2.5463    0.9711    0.2641 N   0  0  0  0  0  0  0  0  0  0  0  0
   -3.4355   -1.1225   -0.8028 N   0  0  0  0  0  0  0  0  0  0  0  0
    5.0723   -0.2537   -0.1168 N   0  0  0  0  0  0  0  0  0  0  0  0
   -2.2827   -3.0957   -0.4479 N   0  0  0  0  0  0  0  0  0  0  0  0
   -2.5754    1.3686    0.6457 C   0  0  1  0  0  0  0  0  0  0  0  0
   -3.5939    1.2948   -0.5193 C   0  0  1  0  0  0  0  0  0  0  0  0
   -1.5611    2.4962    0.4006 C   0  0  0  0  0  0  0  0  0  0  0  0
   -0.7840    2.3048   -0.9156 C   0  0  2  0  0  0  0  0  0  0  0  0
   -3.2693    1.5794    1.9952 C   0  0  0  0  0  0  0  0  0  0  0  0
   -1.7052    1.9608   -2.0684 C   0  0  0  0  0  0  0  0  0  0  0  0
   -2.9619    1.5239   -1.8723 C   0  0  0  0  0  0  0  0  0  0  0  0
    0.3164    1.2496   -0.7589 C   0  0  0  0  0  0  0  0  0  0  0  0
   -4.3346   -0.0473   -0.5223 C   0  0  0  0  0  0  0  0  0  0  0  0
   -2.3911    1.0644    3.1312 C   0  0  0  0  0  0  0  0  0  0  0  0
   -3.6046    3.0537    2.1963 C   0  0  0  0  0  0  0  0  0  0  0  0
   -1.1638    2.1744   -3.4546 C   0  0  0  0  0  0  0  0  0  0  0  0
    1.4672    1.8216    0.0297 C   0  0  0  0  0  0  0  0  0  0  0  0
    3.7056    1.4519    1.0199 C   0  0  0  0  0  0  0  0  0  0  0  0
    2.6151   -0.4439   -0.1241 C   0  0  0  0  0  0  0  0  0  0  0  0
    5.0038    1.1613    0.2714 C   0  0  0  0  0  0  0  0  0  0  0  0
    3.9131   -0.7341   -0.8729 C   0  0  0  0  0  0  0  0  0  0  0  0
   -3.2031   -2.1901    0.0738 C   0  0  0  0  0  0  0  0  0  0  0  0
    6.1504   -1.1051    0.1195 C   0  0  0  0  0  0  0  0  0  0  0  0
   -1.8691   -4.2853    0.2583 C   0  0  0  0  0  0  0  0  0  0  0  0
    7.3350   -0.5098    0.8375 C   0  0  0  0  0  0  0  0  0  0  0  0
   -0.4268   -4.6318   -0.0877 C   0  0  0  0  0  0  0  0  0  0  0  0
   -2.8058   -5.4456   -0.0543 C   0  0  0  0  0  0  0  0  0  0  0  0
   -2.0247    0.4220    0.6915 H   0  0  0  0  0  0  0  0  0  0  0  0
   -4.3481    2.0824   -0.3974 H   0  0  0  0  0  0  0  0  0  0  0  0
   -0.8740    2.5916    1.2464 H   0  0  0  0  0  0  0  0  0  0  0  0
   -2.0733    3.4623    0.3029 H   0  0  0  0  0  0  0  0  0  0  0  0
   -0.3334    3.2768   -1.1614 H   0  0  0  0  0  0  0  0  0  0  0  0
   -4.2039    1.0107    2.0369 H   0  0  0  0  0  0  0  0  0  0  0  0
   -3.5944    1.3371   -2.7380 H   0  0  0  0  0  0  0  0  0  0  0  0
    0.7137    0.9572   -1.7371 H   0  0  0  0  0  0  0  0  0  0  0  0
   -0.0608    0.3514   -0.2608 H   0  0  0  0  0  0  0  0  0  0  0  0
   -5.0930   -0.0584   -1.3146 H   0  0  0  0  0  0  0  0  0  0  0  0
   -4.8636   -0.2251    0.4177 H   0  0  0  0  0  0  0  0  0  0  0  0
   -1.4393    1.6002    3.1979 H   0  0  0  0  0  0  0  0  0  0  0  0
   -2.1723   -0.0014    3.0045 H   0  0  0  0  0  0  0  0  0  0  0  0
   -2.9025    1.1822    4.0929 H   0  0  0  0  0  0  0  0  0  0  0  0
   -2.7251    3.6700    2.4107 H   0  0  0  0  0  0  0  0  0  0  0  0
   -4.2600    3.1572    3.0700 H   0  0  0  0  0  0  0  0  0  0  0  0
   -4.1491    3.4830    1.3500 H   0  0  0  0  0  0  0  0  0  0  0  0
   -0.8112    3.2045   -3.5707 H   0  0  0  0  0  0  0  0  0  0  0  0
   -1.9243    2.0010   -4.2237 H   0  0  0  0  0  0  0  0  0  0  0  0
   -0.3312    1.4958   -3.6602 H   0  0  0  0  0  0  0  0  0  0  0  0
   -2.9856   -1.1532   -1.7127 H   0  0  0  0  0  0  0  0  0  0  0  0
    3.6968    0.9296    1.9842 H   0  0  0  0  0  0  0  0  0  0  0  0
    3.6239    2.5242    1.2227 H   0  0  0  0  0  0  0  0  0  0  0  0
    1.7669   -0.7486   -0.7389 H   0  0  0  0  0  0  0  0  0  0  0  0
    2.5739   -1.0274    0.8036 H   0  0  0  0  0  0  0  0  0  0  0  0
    5.0467    1.7456   -0.6556 H   0  0  0  0  0  0  0  0  0  0  0  0
    5.8534    1.4598    0.8877 H   0  0  0  0  0  0  0  0  0  0  0  0
    3.9948   -1.8061   -1.0773 H   0  0  0  0  0  0  0  0  0  0  0  0
    3.9214   -0.2110   -1.8367 H   0  0  0  0  0  0  0  0  0  0  0  0
   -1.9423   -2.9472   -1.3931 H   0  0  0  0  0  0  0  0  0  0  0  0
   -1.9251   -4.0798    1.3341 H   0  0  0  0  0  0  0  0  0  0  0  0
    7.0476   -0.2008    1.8459 H   0  0  0  0  0  0  0  0  0  0  0  0
    7.7334    0.3385    0.2745 H   0  0  0  0  0  0  0  0  0  0  0  0
    8.1249   -1.2625    0.9222 H   0  0  0  0  0  0  0  0  0  0  0  0
   -0.0902   -5.5115    0.4705 H   0  0  0  0  0  0  0  0  0  0  0  0
    0.2418   -3.7988    0.1569 H   0  0  0  0  0  0  0  0  0  0  0  0
   -0.3128   -4.8418   -1.1572 H   0  0  0  0  0  0  0  0  0  0  0  0
   -2.5095   -6.3464    0.4931 H   0  0  0  0  0  0  0  0  0  0  0  0
   -3.8366   -5.2038    0.2266 H   0  0  0  0  0  0  0  0  0  0  0  0
   -2.8033   -5.6799   -1.1248 H   0  0  0  0  0  0  0  0  0  0  0  0
  1 20  2  0  0  0  0
  2 25  2  0  0  0  0
  3 26  2  0  0  0  0
  4 20  1  0  0  0  0
  4 21  1  0  0  0  0
  4 22  1  0  0  0  0
  5 16  1  0  0  0  0
  5 25  1  0  0  0  0
  5 51  1  0  0  0  0
  6 23  1  0  0  0  0
  6 24  1  0  0  0  0
  6 26  1  0  0  0  0
  7 25  1  0  0  0  0
  7 27  1  0  0  0  0
  7 60  1  0  0  0  0
  8  9  1  0  0  0  0
  8 10  1  0  0  0  0
  8 12  1  0  0  0  0
  8 31  1  0  0  0  0
  9 14  1  0  0  0  0
  9 16  1  0  0  0  0
  9 32  1  0  0  0  0
 10 11  1  0  0  0  0
 10 33  1  0  0  0  0
 10 34  1  0  0  0  0
 11 13  1  0  0  0  0
 11 15  1  0  0  0  0
 11 35  1  0  0  0  0
 12 17  1  0  0  0  0
 12 18  1  0  0  0  0
 12 36  1  0  0  0  0
 13 14  2  0  0  0  0
 13 19  1  0  0  0  0
 14 37  1  0  0  0  0
 15 20  1  0  0  0  0
 15 38  1  0  0  0  0
 15 39  1  0  0  0  0
 16 40  1  0  0  0  0
 16 41  1  0  0  0  0
 17 42  1  0  0  0  0
 17 43  1  0  0  0  0
 17 44  1  0  0  0  0
 18 45  1  0  0  0  0
 18 46  1  0  0  0  0
 18 47  1  0  0  0  0
 19 48  1  0  0  0  0
 19 49  1  0  0  0  0
 19 50  1  0  0  0  0
 21 23  1  0  0  0  0
 21 52  1  0  0  0  0
 21 53  1  0  0  0  0
 22 24  1  0  0  0  0
 22 54  1  0  0  0  0
 22 55  1  0  0  0  0
 23 56  1  0  0  0  0
 23 57  1  0  0  0  0
 24 58  1  0  0  0  0
 24 59  1  0  0  0  0
 26 28  1  0  0  0  0
 27 29  1  0  0  0  0
 27 30  1  0  0  0  0
 27 61  1  0  0  0  0
 28 62  1  0  0  0  0
 28 63  1  0  0  0  0
 28 64  1  0  0  0  0
 29 65  1  0  0  0  0
 29 66  1  0  0  0  0
 29 67  1  0  0  0  0
 30 68  1  0  0  0  0
 30 69  1  0  0  0  0
 30 70  1  0  0  0  0
M  END
> <PUBCHEM_COMPOUND_CID>
38026882

> <PUBCHEM_CONFORMER_RMSD>
1

> <PUBCHEM_CONFORMER_DIVERSEORDER>
1
128
51
123
207
79
145
23
116
205
127
162
69
22
212
174
151
213
186
87
153
191
141
32
132
208
27
64
142
194
171
154
121
117
81
176
168
63
166
115
133
180
99
98
197
155
199
170
66
106
21
135
157
144
45
209
61
161
94
206
173
114
131
75
49
182
71
150
47
201
146
136
160
38
148
31
10
82
211
78
50
163
134
159
183
52
77
119
91
73
164
97
200
33
37
102
112
90
58
26
202
85
189
108
169
165
111
184
60
62
110
192
187
76
196
158
72
92
188
122
101
14
126
210
109
204
172
28
86
70
100
68
34
107
65
124
181
143
15
2
55
140
83
203
130
113
156
125
138
48
19
57
36
195
74
137
80
95
59
178
18
6
179
40
88
43
147
167
42
41
44
177
53
4
129
35
104
89
39
185
84
67
96
175
105
46
149
9
118
56
16
54
17
12
3
24
20
25
5
139
8
29
152
13
11
120
30
7
198
103
93
193
190

> <PUBCHEM_MMFF94_PARTIAL_CHARGES>
26
1 -0.57
11 0.14
13 -0.28
14 -0.29
15 0.06
16 0.3
19 0.14
2 -0.57
20 0.57
21 0.3
22 0.3
23 0.3
24 0.3
25 0.69
26 0.57
27 0.3
28 0.06
3 -0.57
37 0.15
4 -0.66
5 -0.73
51 0.37
6 -0.66
60 0.37
7 -0.73
9 0.14

> <PUBCHEM_EFFECTIVE_ROTOR_COUNT>
12

> <PUBCHEM_PHARMACOPHORE_FEATURES>
9
1 1 acceptor
1 2 acceptor
1 3 acceptor
1 5 donor
1 7 donor
3 12 17 18 hydrophobe
3 27 29 30 hydrophobe
6 4 6 21 22 23 24 rings
6 8 9 10 11 13 14 rings

> <PUBCHEM_HEAVY_ATOM_COUNT>
30

> <PUBCHEM_ATOM_DEF_STEREO_COUNT>
3

> <PUBCHEM_ATOM_UDEF_STEREO_COUNT>
0

> <PUBCHEM_BOND_DEF_STEREO_COUNT>
0

> <PUBCHEM_BOND_UDEF_STEREO_COUNT>
0

> <PUBCHEM_ISOTOPIC_ATOM_COUNT>
0

> <PUBCHEM_COMPONENT_COUNT>
1

> <PUBCHEM_CACTVS_TAUTO_COUNT>
3

> <PUBCHEM_CONFORMER_ID>
02443E8200000001

> <PUBCHEM_MMFF94_ENERGY>
56.1104

> <PUBCHEM_FEATURE_SELFOVERLAP>
45.719

> <PUBCHEM_SHAPE_FINGERPRINT>
10305334 12 17772196310405519977
11477941 20 16877949313469756644
11552529 35 18270962478328469416
12969540 37 17617936271937352053
14020679 6 17054185513204649117
14674994 50 18335134341234754967
14856354 85 18272380767352260932
14950920 106 17988933305024390360
15799311 1 18339094717909895900
17627616 140 18045490924716549194
19315092 285 15902080306352569531
20764821 26 17977657611249714006
20775530 9 17688871256213832951
229767 44 18341063981304899427
23466295 7 18262240052997214379
23559900 14 18267572675607308241
3383291 50 18412544332250031995
4435113 14 17773616948665367398
4616759 239 17988346132125150978
469060 322 17749119919349296699
484985 159 18411419514442118235
5080951 261 18261938705296061112
5104073 3 17846206719205263480
531348 171 17605261888166322688
56633871 153 18120944064486061107
57527452 28 18260835882607358297

> <PUBCHEM_SHAPE_MULTIPOLES>
579.85
12.54
5.8
2.21
28.73
10.63
0.18
3.5
-2.92
-6.72
-0.11
-2.89
-2.48
-0.13

> <PUBCHEM_SHAPE_SELFOVERLAP>
1163.637

> <PUBCHEM_SHAPE_VOLUME>
339.1

> <PUBCHEM_COORDINATE_TYPE>
2
5
10

$$$$
