45784261
  -OEChem-12032416313D

 40 43  0     1  0  0  0  0  0999 V2000
   -6.2104   -0.6881    0.7665 F   0  0  0  0  0  0  0  0  0  0  0  0
   -5.9656    0.8576   -0.7431 F   0  0  0  0  0  0  0  0  0  0  0  0
   -5.6603   -1.2246   -1.2675 F   0  0  0  0  0  0  0  0  0  0  0  0
    4.1222    0.3295   -0.2293 N   0  0  1  0  0  0  0  0  0  0  0  0
   -0.5737    0.6173   -1.1399 N   0  0  0  0  0  0  0  0  0  0  0  0
    0.0594    0.1840    0.9461 N   0  0  0  0  0  0  0  0  0  0  0  0
    5.0756   -0.6056    0.3792 C   0  0  0  0  0  0  0  0  0  0  0  0
    6.5042   -0.0338    0.2675 C   0  0  0  0  0  0  0  0  0  0  0  0
    5.4995   -1.6625   -0.6619 C   0  0  0  0  0  0  0  0  0  0  0  0
    1.8805    0.8571   -0.6715 C   0  0  2  0  0  0  0  0  0  0  0  0
    2.8367   -0.3279   -0.4804 C   0  0  0  0  0  0  0  0  0  0  0  0
    6.9496   -1.4405   -0.1833 C   0  0  0  0  0  0  0  0  0  0  0  0
    3.8101    1.4242    0.6912 C   0  0  0  0  0  0  0  0  0  0  0  0
    2.5406    2.0174    0.0939 C   0  0  0  0  0  0  0  0  0  0  0  0
    0.4629    0.5447   -0.2515 C   0  0  0  0  0  0  0  0  0  0  0  0
   -1.7225    0.2806   -0.4712 C   0  0  0  0  0  0  0  0  0  0  0  0
   -1.3011    0.0148    0.8286 C   0  0  0  0  0  0  0  0  0  0  0  0
   -3.0537    0.1887   -0.8793 C   0  0  0  0  0  0  0  0  0  0  0  0
   -2.2504   -0.3667    1.7918 C   0  0  0  0  0  0  0  0  0  0  0  0
   -3.9850   -0.1922    0.0923 C   0  0  0  0  0  0  0  0  0  0  0  0
   -3.5926   -0.4653    1.4047 C   0  0  0  0  0  0  0  0  0  0  0  0
   -5.4261   -0.3087   -0.2830 C   0  0  0  0  0  0  0  0  0  0  0  0
    4.8166   -1.0152    1.3633 H   0  0  0  0  0  0  0  0  0  0  0  0
    6.9473    0.3191    1.2030 H   0  0  0  0  0  0  0  0  0  0  0  0
    6.6575    0.7305   -0.5049 H   0  0  0  0  0  0  0  0  0  0  0  0
    5.3569   -1.3902   -1.7154 H   0  0  0  0  0  0  0  0  0  0  0  0
    5.1046   -2.6699   -0.5028 H   0  0  0  0  0  0  0  0  0  0  0  0
    1.8760    1.1289   -1.7372 H   0  0  0  0  0  0  0  0  0  0  0  0
    2.5300   -0.9546    0.3681 H   0  0  0  0  0  0  0  0  0  0  0  0
    2.8620   -0.9578   -1.3763 H   0  0  0  0  0  0  0  0  0  0  0  0
    7.2468   -2.0957    0.6436 H   0  0  0  0  0  0  0  0  0  0  0  0
    7.7182   -1.4717   -0.9593 H   0  0  0  0  0  0  0  0  0  0  0  0
    4.6125    2.1669    0.7428 H   0  0  0  0  0  0  0  0  0  0  0  0
    3.6058    1.0604    1.7067 H   0  0  0  0  0  0  0  0  0  0  0  0
    2.7947    2.8198   -0.6100 H   0  0  0  0  0  0  0  0  0  0  0  0
    1.8987    2.4476    0.8699 H   0  0  0  0  0  0  0  0  0  0  0  0
   -0.5089    0.8727   -2.1165 H   0  0  0  0  0  0  0  0  0  0  0  0
   -3.3477    0.4031   -1.9011 H   0  0  0  0  0  0  0  0  0  0  0  0
   -1.9552   -0.5810    2.8140 H   0  0  0  0  0  0  0  0  0  0  0  0
   -4.3227   -0.7610    2.1543 H   0  0  0  0  0  0  0  0  0  0  0  0
  1 22  1  0  0  0  0
  2 22  1  0  0  0  0
  3 22  1  0  0  0  0
  4  7  1  0  0  0  0
  4 11  1  0  0  0  0
  4 13  1  0  0  0  0
  5 15  1  0  0  0  0
  5 16  1  0  0  0  0
  5 37  1  0  0  0  0
  6 15  2  0  0  0  0
  6 17  1  0  0  0  0
  7  8  1  0  0  0  0
  7  9  1  0  0  0  0
  7 23  1  0  0  0  0
  8 12  1  0  0  0  0
  8 24  1  0  0  0  0
  8 25  1  0  0  0  0
  9 12  1  0  0  0  0
  9 26  1  0  0  0  0
  9 27  1  0  0  0  0
 10 11  1  0  0  0  0
 10 14  1  0  0  0  0
 10 15  1  0  0  0  0
 10 28  1  0  0  0  0
 11 29  1  0  0  0  0
 11 30  1  0  0  0  0
 12 31  1  0  0  0  0
 12 32  1  0  0  0  0
 13 14  1  0  0  0  0
 13 33  1  0  0  0  0
 13 34  1  0  0  0  0
 14 35  1  0  0  0  0
 14 36  1  0  0  0  0
 16 17  2  0  0  0  0
 16 18  1  0  0  0  0
 17 19  1  0  0  0  0
 18 20  2  0  0  0  0
 18 38  1  0  0  0  0
 19 21  2  0  0  0  0
 19 39  1  0  0  0  0
 20 21  1  0  0  0  0
 20 22  1  0  0  0  0
 21 40  1  0  0  0  0
M  END
> <PUBCHEM_COMPOUND_CID>
45784261

> <PUBCHEM_CONFORMER_RMSD>
0.8

> <PUBCHEM_CONFORMER_DIVERSEORDER>
1
6
4
3
2
5

> <PUBCHEM_MMFF94_PARTIAL_CHARGES>
22
1 -0.34
10 0.18
11 0.27
13 0.27
15 0.01
16 -0.15
17 0.23
18 -0.15
19 -0.15
2 -0.34
20 -0.14
21 -0.15
22 1.16
3 -0.34
37 0.27
38 0.15
39 0.15
4 -0.75
40 0.15
5 0.03
6 -0.57
7 0.21

> <PUBCHEM_EFFECTIVE_ROTOR_COUNT>
4.8

> <PUBCHEM_PHARMACOPHORE_FEATURES>
7
1 4 cation
1 5 donor
3 5 6 15 cation
4 7 8 9 12 rings
5 4 10 11 13 14 rings
5 5 6 15 16 17 rings
6 16 17 18 19 20 21 rings

> <PUBCHEM_HEAVY_ATOM_COUNT>
22

> <PUBCHEM_ATOM_DEF_STEREO_COUNT>
1

> <PUBCHEM_ATOM_UDEF_STEREO_COUNT>
0

> <PUBCHEM_BOND_DEF_STEREO_COUNT>
0

> <PUBCHEM_BOND_UDEF_STEREO_COUNT>
0

> <PUBCHEM_ISOTOPIC_ATOM_COUNT>
0

> <PUBCHEM_COMPONENT_COUNT>
1

> <PUBCHEM_CACTVS_TAUTO_COUNT>
2

> <PUBCHEM_CONFORMER_ID>
02BA9CC500000001

> <PUBCHEM_MMFF94_ENERGY>
43.0068

> <PUBCHEM_FEATURE_SELFOVERLAP>
35.63

> <PUBCHEM_SHAPE_FINGERPRINT>
10 15 13973956607021139226
106641 1 15267052671014034422
10670039 82 16081360822040469061
11315181 36 17749398065647296184
11524674 6 18410575097870708763
11796584 16 17458349654373876786
12011746 2 17676489436793146282
12166972 35 17989205966907739320
12236239 1 17561083609472146288
12390115 104 16951395534748369973
12403259 118 16415209957077336097
12516196 113 18413107256406730032
12596602 18 17060340695794319202
12616971 3 17489583493393972813
12670543 26 17095238099004614335
12788726 201 14851873730059419492
12954195 1 17604143723342924645
13288520 33 17603869996302183453
13533116 47 18131350821893711120
13544592 145 17822294621121446344
13631057 29 8213272102356471393
13668630 136 18413109454960798982
13685833 64 18409168805634535090
13911852 28 18198627619194781510
13914758 101 18130228155854967617
13964095 4 16153708704518045246
14211702 104 17703515483848615687
14251764 18 16988841688296858968
14386348 63 18040438780919421322
14528608 73 12685096999140271046
14617045 38 17095242501435868074
15183329 4 16877940520843200627
15242439 84 17603867818706389136
17834072 8 17022903458085394698
17844677 252 18113623378491900436
17857418 61 18131070437374775158
17870717 6 17095248011810304139
1813 80 18129959892698897452
19377110 9 16056893424126656699
19489759 90 18130790040719621129
19784866 240 18272093785989463004
200 152 18343582936399529704
20028762 73 17918274247291998894
20281389 69 13110962007764431234
20374829 77 17313106362861685498
20645477 70 18409446990745314494
20681677 155 14490478616348713184
21150785 3 12468360176256952531
21267235 1 16588033446222068499
22061861 79 18260829306405734038
2215653 11 17966968326918534178
22224240 67 17917705813086871590
2297311 6 17095243614064434565
23035841 295 16225765211649607544
23198884 109 12107787401973878791
23402539 116 18343862221607746093
23522609 53 18195277505806946932
23536379 177 18343581845973695657
23559900 14 17386010627897623028
23569943 247 17969494905845068755
23622692 88 17703791427381539660
26918003 58 18202004343176446122
29717793 49 17822015302835301990
3004659 81 16443067205838962620
335352 9 16732702757882718191
345986 75 17844802595611849522
34797466 226 17240492412135746510
3545911 37 16732983133105000059
3633792 109 18059292051018965223
4325135 7 9655566410245314401
4340502 62 12607407689502597436
437815 12 18260550017588904836
465052 167 18343304760806996246
5104073 3 15912477060280675563
542803 24 12612750228763993473
59682541 35 13686287011052052679
59755656 215 17676203554874171442
67856867 119 17060049414990449624
7495541 125 16702016534522104731

> <PUBCHEM_SHAPE_MULTIPOLES>
415.99
17.26
1.34
1.2
3.6
0.19
0.25
-6.87
-1.3
1.72
-0.09
-1.18
-0.11
0.61

> <PUBCHEM_SHAPE_SELFOVERLAP>
910.657

> <PUBCHEM_SHAPE_VOLUME>
231

> <PUBCHEM_COORDINATE_TYPE>
2
5
10

$$$$
