7675083
  -OEChem-12032416133D

 60 63  0     1  0  0  0  0  0999 V2000
    2.3325   -1.6698   -1.7274 S   0  0  0  0  0  0  0  0  0  0  0  0
    3.1162   -6.1304    2.0457 F   0  0  0  0  0  0  0  0  0  0  0  0
    0.4724    1.6221   -1.4548 O   0  0  0  0  0  0  0  0  0  0  0  0
    3.4523   -0.7644   -1.5800 O   0  0  0  0  0  0  0  0  0  0  0  0
    1.9944   -2.2325   -3.0177 O   0  0  0  0  0  0  0  0  0  0  0  0
   -2.2162    1.0157    2.3934 O   0  0  0  0  0  0  0  0  0  0  0  0
    4.6190    3.0273   -0.1455 O   0  0  0  0  0  0  0  0  0  0  0  0
    0.9375   -0.9483   -1.0527 N   0  0  2  0  0  0  0  0  0  0  0  0
   -1.2932   -0.2048    0.6247 N   0  0  0  0  0  0  0  0  0  0  0  0
    2.0426    2.1723    0.1732 N   0  0  0  0  0  0  0  0  0  0  0  0
    4.0224    5.1847    0.3098 N   0  0  0  0  0  0  0  0  0  0  0  0
   -8.6901   -0.1971   -1.1527 N   0  0  0  0  0  0  0  0  0  0  0  0
    1.1454   -0.0440    0.1120 C   0  0  2  0  0  0  0  0  0  0  0  0
    0.0612   -0.1748    1.1777 C   0  0  0  0  0  0  0  0  0  0  0  0
   -0.2717   -1.8083   -0.9721 C   0  0  0  0  0  0  0  0  0  0  0  0
   -1.4771   -0.9445   -0.6289 C   0  0  0  0  0  0  0  0  0  0  0  0
    1.1627    1.3283   -0.4824 C   0  0  0  0  0  0  0  0  0  0  0  0
    2.2615    3.5405   -0.2186 C   0  0  1  0  0  0  0  0  0  0  0  0
    1.2896    4.4708    0.4942 C   0  0  0  0  0  0  0  0  0  0  0  0
    1.6569    5.9158    0.1982 C   0  0  0  0  0  0  0  0  0  0  0  0
   -2.3374    0.3899    1.3415 C   0  0  0  0  0  0  0  0  0  0  0  0
    2.5672   -3.0058   -0.5972 C   0  0  0  0  0  0  0  0  0  0  0  0
    3.7319    3.8673    0.0181 C   0  0  0  0  0  0  0  0  0  0  0  0
    3.0562    6.1879    0.7171 C   0  0  0  0  0  0  0  0  0  0  0  0
   -3.7015    0.2628    0.8050 C   0  0  0  0  0  0  0  0  0  0  0  0
    1.9618   -4.2389   -0.8397 C   0  0  0  0  0  0  0  0  0  0  0  0
    3.3578   -2.8282    0.5381 C   0  0  0  0  0  0  0  0  0  0  0  0
   -4.4998   -0.8187    1.1774 C   0  0  0  0  0  0  0  0  0  0  0  0
   -4.1967    1.2251   -0.0750 C   0  0  0  0  0  0  0  0  0  0  0  0
    2.1472   -5.2943    0.0531 C   0  0  0  0  0  0  0  0  0  0  0  0
    3.5433   -3.8836    1.4309 C   0  0  0  0  0  0  0  0  0  0  0  0
    2.9380   -5.1167    1.1884 C   0  0  0  0  0  0  0  0  0  0  0  0
   -5.7934   -0.9379    0.6696 C   0  0  0  0  0  0  0  0  0  0  0  0
   -5.4904    1.1058   -0.5827 C   0  0  0  0  0  0  0  0  0  0  0  0
   -6.2888    0.0244   -0.2104 C   0  0  0  0  0  0  0  0  0  0  0  0
   -7.6137   -0.0979   -0.7303 C   0  0  0  0  0  0  0  0  0  0  0  0
    2.1071   -0.2479    0.5920 H   0  0  0  0  0  0  0  0  0  0  0  0
    0.1890   -1.1175    1.7248 H   0  0  0  0  0  0  0  0  0  0  0  0
    0.1447    0.6318    1.9149 H   0  0  0  0  0  0  0  0  0  0  0  0
   -0.1492   -2.5770   -0.2030 H   0  0  0  0  0  0  0  0  0  0  0  0
   -0.4509   -2.2963   -1.9353 H   0  0  0  0  0  0  0  0  0  0  0  0
   -2.3676   -1.5757   -0.5556 H   0  0  0  0  0  0  0  0  0  0  0  0
   -1.6599   -0.2036   -1.4159 H   0  0  0  0  0  0  0  0  0  0  0  0
    2.0996    3.6216   -1.3015 H   0  0  0  0  0  0  0  0  0  0  0  0
    1.3122    4.2956    1.5778 H   0  0  0  0  0  0  0  0  0  0  0  0
    0.2631    4.2707    0.1643 H   0  0  0  0  0  0  0  0  0  0  0  0
    2.5406    1.8293    0.9899 H   0  0  0  0  0  0  0  0  0  0  0  0
    0.9421    6.5979    0.6707 H   0  0  0  0  0  0  0  0  0  0  0  0
    1.6148    6.0953   -0.8830 H   0  0  0  0  0  0  0  0  0  0  0  0
    3.0612    6.2019    1.8128 H   0  0  0  0  0  0  0  0  0  0  0  0
    3.4179    7.1602    0.3682 H   0  0  0  0  0  0  0  0  0  0  0  0
    5.0033    5.4260    0.4124 H   0  0  0  0  0  0  0  0  0  0  0  0
    1.3404   -4.3997   -1.7160 H   0  0  0  0  0  0  0  0  0  0  0  0
    3.8427   -1.8792    0.7473 H   0  0  0  0  0  0  0  0  0  0  0  0
   -4.1234   -1.5740    1.8624 H   0  0  0  0  0  0  0  0  0  0  0  0
   -3.5824    2.0713   -0.3718 H   0  0  0  0  0  0  0  0  0  0  0  0
    1.6757   -6.2543   -0.1348 H   0  0  0  0  0  0  0  0  0  0  0  0
    4.1593   -3.7461    2.3147 H   0  0  0  0  0  0  0  0  0  0  0  0
   -6.4037   -1.7866    0.9691 H   0  0  0  0  0  0  0  0  0  0  0  0
   -5.8621    1.8639   -1.2680 H   0  0  0  0  0  0  0  0  0  0  0  0
  1  4  2  0  0  0  0
  1  5  2  0  0  0  0
  1  8  1  0  0  0  0
  1 22  1  0  0  0  0
  2 32  1  0  0  0  0
  3 17  2  0  0  0  0
  6 21  2  0  0  0  0
  7 23  2  0  0  0  0
  8 13  1  0  0  0  0
  8 15  1  0  0  0  0
  9 14  1  0  0  0  0
  9 16  1  0  0  0  0
  9 21  1  0  0  0  0
 10 17  1  0  0  0  0
 10 18  1  0  0  0  0
 10 47  1  0  0  0  0
 11 23  1  0  0  0  0
 11 24  1  0  0  0  0
 11 52  1  0  0  0  0
 12 36  3  0  0  0  0
 13 14  1  0  0  0  0
 13 17  1  0  0  0  0
 13 37  1  0  0  0  0
 14 38  1  0  0  0  0
 14 39  1  0  0  0  0
 15 16  1  0  0  0  0
 15 40  1  0  0  0  0
 15 41  1  0  0  0  0
 16 42  1  0  0  0  0
 16 43  1  0  0  0  0
 18 19  1  0  0  0  0
 18 23  1  0  0  0  0
 18 44  1  0  0  0  0
 19 20  1  0  0  0  0
 19 45  1  0  0  0  0
 19 46  1  0  0  0  0
 20 24  1  0  0  0  0
 20 48  1  0  0  0  0
 20 49  1  0  0  0  0
 21 25  1  0  0  0  0
 22 26  2  0  0  0  0
 22 27  1  0  0  0  0
 24 50  1  0  0  0  0
 24 51  1  0  0  0  0
 25 28  2  0  0  0  0
 25 29  1  0  0  0  0
 26 30  1  0  0  0  0
 26 53  1  0  0  0  0
 27 31  2  0  0  0  0
 27 54  1  0  0  0  0
 28 33  1  0  0  0  0
 28 55  1  0  0  0  0
 29 34  2  0  0  0  0
 29 56  1  0  0  0  0
 30 32  2  0  0  0  0
 30 57  1  0  0  0  0
 31 32  1  0  0  0  0
 31 58  1  0  0  0  0
 33 35  2  0  0  0  0
 33 59  1  0  0  0  0
 34 35  1  0  0  0  0
 34 60  1  0  0  0  0
 35 36  1  0  0  0  0
M  END
> <PUBCHEM_COMPOUND_CID>
7675083

> <PUBCHEM_CONFORMER_RMSD>
1

> <PUBCHEM_CONFORMER_DIVERSEORDER>
1
110
18
93
65
47
276
287
199
230
218
177
290
186
254
231
49
288
267
291
219
214
221
51
78
280
204
232
243
80
251
87
167
137
195
157
125
245
207
286
169
261
252
138
250
151
32
233
77
83
269
31
149
293
163
240
295
181
98
262
197
272
223
115
191
174
144
180
76
136
283
152
190
188
247
217
268
59
270
263
220
168
206
242
229
165
15
63
37
12
150
192
228
61
34
88
92
72
113
255
36
173
19
131
198
57
294
236
69
158
27
26
114
202
134
253
246
260
249
44
90
284
35
271
178
6
238
56
101
187
226
248
244
227
224
189
7
275
74
159
172
170
45
241
282
264
132
194
183
133
111
289
50
70
175
28
23
148
123
112
239
95
66
64
106
235
171
119
108
130
234
146
257
166
155
22
259
277
38
55
213
140
17
196
210
107
120
84
278
5
105
52
42
62
225
200
81
100
43
209
216
121
97
160
8
182
29
67
162
103
41
54
94
164
208
211
127
75
104
48
122
201
117
10
53
215
179
256
222
142
145
205
96
82
203
185
4
237
273
156
281
33
139
21
128
135
285
126
212
86
274
102
30
129
118
58
25
3
14
292
79
91
40
46
176
147
184
2
60
109
154
124
13
20
16
73
161
265
258
89
71
9
85
68
143
116
153
266
99
39
193
279
141
11
24

> <PUBCHEM_MMFF94_PARTIAL_CHARGES>
44
1 1.45
10 -0.73
11 -0.73
12 -0.56
13 0.42
14 0.3
15 0.36
16 0.3
17 0.57
18 0.36
2 -0.19
21 0.54
22 -0.01
23 0.57
24 0.3
25 0.09
26 -0.15
27 -0.15
28 -0.15
29 -0.15
3 -0.57
30 -0.15
31 -0.15
32 0.19
33 -0.15
34 -0.15
35 0.07
36 0.48
4 -0.65
47 0.37
5 -0.65
52 0.37
53 0.15
54 0.15
55 0.15
56 0.15
57 0.15
58 0.15
59 0.15
6 -0.57
60 0.15
7 -0.57
8 -0.85
9 -0.66

> <PUBCHEM_EFFECTIVE_ROTOR_COUNT>
9.2

> <PUBCHEM_PHARMACOPHORE_FEATURES>
12
1 10 donor
1 11 donor
1 12 acceptor
1 3 acceptor
1 4 acceptor
1 5 acceptor
1 6 acceptor
1 7 acceptor
6 11 18 19 20 23 24 rings
6 22 26 27 30 31 32 rings
6 25 28 29 33 34 35 rings
6 8 9 13 14 15 16 rings

> <PUBCHEM_HEAVY_ATOM_COUNT>
36

> <PUBCHEM_ATOM_DEF_STEREO_COUNT>
2

> <PUBCHEM_ATOM_UDEF_STEREO_COUNT>
0

> <PUBCHEM_BOND_DEF_STEREO_COUNT>
0

> <PUBCHEM_BOND_UDEF_STEREO_COUNT>
0

> <PUBCHEM_ISOTOPIC_ATOM_COUNT>
0

> <PUBCHEM_COMPONENT_COUNT>
1

> <PUBCHEM_CACTVS_TAUTO_COUNT>
4

> <PUBCHEM_CONFORMER_ID>
00751CCB00000001

> <PUBCHEM_MMFF94_ENERGY>
79.2504

> <PUBCHEM_FEATURE_SELFOVERLAP>
60.918

> <PUBCHEM_SHAPE_FINGERPRINT>
10074138 170 17260178320952437216
11115154 58 17899413083173718865
11377469 6 17773889596951013987
11720765 8 18265326223327787897
11991303 11 17688608464476755164
12440610 7 17895761837107765435
12788726 201 17327779126506932642
13757389 114 9722498140618478472
13782708 43 18115036208701480763
13835254 42 17978226054851240482
14150023 79 18337955708992771525
15484559 13 18270691969142030332
20721686 124 18335976587999217834
21049683 118 17557123297670402152
21304303 282 17550097508262312148
21344244 78 18191575355803705202
23559900 14 18263075540696307731
23845131 108 18049723211100581750
4058900 60 18051123989072799647
504843 32 17760932139885382316
508180 173 17680705914037234469
5219985 13 17978791538624584173
563151 97 18050840319789891567
57527573 199 17186168002886194790
57527585 21 12958601672118268466
6004065 56 18335698299894204434
6371380 46 18195256731434991980
6695519 79 17906478841130474635
6697151 62 18120070824699033079
6700243 42 17268370335308935302
79837 15 17617663593184973534
9981440 41 17975981182724150475

> <PUBCHEM_SHAPE_MULTIPOLES>
683.19
13.27
9.66
1.68
38.01
5.68
0.23
-0.59
1.57
-23.11
-3.25
-0.51
-1.55
-0.66

> <PUBCHEM_SHAPE_SELFOVERLAP>
1452.809

> <PUBCHEM_SHAPE_VOLUME>
380.8

> <PUBCHEM_COORDINATE_TYPE>
2
5
10

$$$$
