26743960
  -OEChem-12032416313D

 43 46  0     1  0  0  0  0  0999 V2000
    5.3667   -1.8337    1.5866 O   0  0  0  0  0  0  0  0  0  0  0  0
    0.7950   -1.8212   -1.8174 O   0  0  0  0  0  0  0  0  0  0  0  0
    2.8118    0.3445    0.3624 N   0  0  1  0  0  0  0  0  0  0  0  0
    0.1331   -0.9564    0.1398 N   0  0  0  0  0  0  0  0  0  0  0  0
   -0.5879   -2.0320   -1.7463 N   0  0  0  0  0  0  0  0  0  0  0  0
   -4.5753   -2.0518   -0.3648 N   0  0  0  0  0  0  0  0  0  0  0  0
   -2.4922    2.9574    2.2344 N   0  0  0  0  0  0  0  0  0  0  0  0
    2.6024   -0.8366   -0.4995 C   0  0  1  0  0  0  0  0  0  0  0  0
    3.4074   -1.9634    0.1742 C   0  0  0  0  0  0  0  0  0  0  0  0
    4.0700   -1.3084    1.3797 C   0  0  2  0  0  0  0  0  0  0  0  0
    4.1108    0.1615    1.0070 C   0  0  0  0  0  0  0  0  0  0  0  0
    2.7322    1.6059   -0.3625 C   0  0  0  0  0  0  0  0  0  0  0  0
    1.1380   -1.1831   -0.6679 C   0  0  0  0  0  0  0  0  0  0  0  0
    1.3063    2.0226   -0.6078 C   0  0  0  0  0  0  0  0  0  0  0  0
    0.4389    2.2133    0.4677 C   0  0  0  0  0  0  0  0  0  0  0  0
    0.8531    2.2178   -1.9124 C   0  0  0  0  0  0  0  0  0  0  0  0
   -0.9044   -1.4947   -0.5643 C   0  0  0  0  0  0  0  0  0  0  0  0
   -0.8818    2.5991    0.2386 C   0  0  0  0  0  0  0  0  0  0  0  0
   -0.4678    2.6034   -2.1415 C   0  0  0  0  0  0  0  0  0  0  0  0
   -2.2463   -1.4809   -0.0576 C   0  0  0  0  0  0  0  0  0  0  0  0
   -1.3352    2.7942   -1.0660 C   0  0  0  0  0  0  0  0  0  0  0  0
   -2.5404   -0.9146    1.1778 C   0  0  0  0  0  0  0  0  0  0  0  0
   -3.2900   -2.0316   -0.7836 C   0  0  0  0  0  0  0  0  0  0  0  0
   -1.7705    2.7968    1.3399 C   0  0  0  0  0  0  0  0  0  0  0  0
   -3.8508   -0.9162    1.6428 C   0  0  0  0  0  0  0  0  0  0  0  0
   -4.8229   -1.4920    0.8406 C   0  0  0  0  0  0  0  0  0  0  0  0
    3.0363   -0.6714   -1.4958 H   0  0  0  0  0  0  0  0  0  0  0  0
    2.7872   -2.8084    0.4946 H   0  0  0  0  0  0  0  0  0  0  0  0
    4.1605   -2.3584   -0.5192 H   0  0  0  0  0  0  0  0  0  0  0  0
    3.4699   -1.4639    2.2846 H   0  0  0  0  0  0  0  0  0  0  0  0
    4.2265    0.7931    1.8940 H   0  0  0  0  0  0  0  0  0  0  0  0
    4.9499    0.3699    0.3300 H   0  0  0  0  0  0  0  0  0  0  0  0
    3.3100    1.5758   -1.2956 H   0  0  0  0  0  0  0  0  0  0  0  0
    3.1836    2.4094    0.2367 H   0  0  0  0  0  0  0  0  0  0  0  0
    5.2732   -2.7886    1.7449 H   0  0  0  0  0  0  0  0  0  0  0  0
    0.7938    2.0661    1.4859 H   0  0  0  0  0  0  0  0  0  0  0  0
    1.5169    2.0709   -2.7600 H   0  0  0  0  0  0  0  0  0  0  0  0
   -0.8209    2.7540   -3.1574 H   0  0  0  0  0  0  0  0  0  0  0  0
   -2.3621    3.0940   -1.2607 H   0  0  0  0  0  0  0  0  0  0  0  0
   -1.7690   -0.4685    1.8001 H   0  0  0  0  0  0  0  0  0  0  0  0
   -3.1449   -2.4926   -1.7561 H   0  0  0  0  0  0  0  0  0  0  0  0
   -4.1034   -0.4806    2.6027 H   0  0  0  0  0  0  0  0  0  0  0  0
   -5.8602   -1.5187    1.1577 H   0  0  0  0  0  0  0  0  0  0  0  0
  1 10  1  0  0  0  0
  1 35  1  0  0  0  0
  2  5  1  0  0  0  0
  2 13  1  0  0  0  0
  3  8  1  0  0  0  0
  3 11  1  0  0  0  0
  3 12  1  0  0  0  0
  4 13  2  0  0  0  0
  4 17  1  0  0  0  0
  5 17  2  0  0  0  0
  6 23  1  0  0  0  0
  6 26  2  0  0  0  0
  7 24  3  0  0  0  0
  8  9  1  0  0  0  0
  8 13  1  0  0  0  0
  8 27  1  0  0  0  0
  9 10  1  0  0  0  0
  9 28  1  0  0  0  0
  9 29  1  0  0  0  0
 10 11  1  0  0  0  0
 10 30  1  0  0  0  0
 11 31  1  0  0  0  0
 11 32  1  0  0  0  0
 12 14  1  0  0  0  0
 12 33  1  0  0  0  0
 12 34  1  0  0  0  0
 14 15  2  0  0  0  0
 14 16  1  0  0  0  0
 15 18  1  0  0  0  0
 15 36  1  0  0  0  0
 16 19  2  0  0  0  0
 16 37  1  0  0  0  0
 17 20  1  0  0  0  0
 18 21  2  0  0  0  0
 18 24  1  0  0  0  0
 19 21  1  0  0  0  0
 19 38  1  0  0  0  0
 20 22  1  0  0  0  0
 20 23  2  0  0  0  0
 21 39  1  0  0  0  0
 22 25  2  0  0  0  0
 22 40  1  0  0  0  0
 23 41  1  0  0  0  0
 25 26  1  0  0  0  0
 25 42  1  0  0  0  0
 26 43  1  0  0  0  0
M  END
> <PUBCHEM_COMPOUND_CID>
26743960

> <PUBCHEM_CONFORMER_RMSD>
0.8

> <PUBCHEM_CONFORMER_DIVERSEORDER>
1
132
188
149
127
85
98
106
170
3
94
27
194
162
144
112
147
111
90
84
117
204
65
210
197
29
79
168
189
186
99
190
152
18
150
143
123
130
28
176
161
202
174
113
83
207
26
66
187
11
208
121
221
19
146
157
183
156
212
97
167
142
163
181
165
40
216
192
15
55
177
185
49
215
17
148
201
160
119
155
70
211
96
87
34
33
195
139
69
6
137
30
196
209
74
182
224
120
179
91
154
12
36
145
48
5
72
23
110
22
86
222
101
16
61
153
203
46
166
125
115
39
80
57
116
108
198
178
2
114
180
71
205
206
25
38
50
20
223
9
122
109
118
104
73
171
95
43
78
77
136
129
102
63
37
14
92
193
4
135
8
32
158
60
21
105
107
133
175
41
45
82
217
128
59
93
159
58
54
184
31
134
138
124
64
10
218
53
140
213
56
103
131
13
42
24
35
220
191
141
126
200
47
52
169
51
172
62
89
214
88
151
67
199
81
100
219
164
173
7
68
76
75
44

> <PUBCHEM_MMFF94_PARTIAL_CHARGES>
34
1 -0.68
10 0.28
11 0.27
12 0.41
13 0.3
14 -0.14
15 -0.15
16 -0.15
17 0.46
18 0.07
19 -0.15
2 -0.02
20 0.05
21 -0.15
22 -0.15
23 0.16
24 0.48
25 -0.15
26 0.16
3 -0.81
35 0.4
36 0.15
37 0.15
38 0.15
39 0.15
4 -0.57
40 0.15
41 0.15
42 0.15
43 0.15
5 -0.41
6 -0.62
7 -0.56
8 0.45

> <PUBCHEM_EFFECTIVE_ROTOR_COUNT>
5

> <PUBCHEM_PHARMACOPHORE_FEATURES>
10
1 1 acceptor
1 1 donor
1 3 cation
1 6 acceptor
1 7 acceptor
3 4 5 17 cation
5 2 4 5 13 17 rings
5 3 8 9 10 11 rings
6 14 15 16 18 19 21 rings
6 6 20 22 23 25 26 rings

> <PUBCHEM_HEAVY_ATOM_COUNT>
26

> <PUBCHEM_ATOM_DEF_STEREO_COUNT>
2

> <PUBCHEM_ATOM_UDEF_STEREO_COUNT>
0

> <PUBCHEM_BOND_DEF_STEREO_COUNT>
0

> <PUBCHEM_BOND_UDEF_STEREO_COUNT>
0

> <PUBCHEM_ISOTOPIC_ATOM_COUNT>
0

> <PUBCHEM_COMPONENT_COUNT>
1

> <PUBCHEM_CACTVS_TAUTO_COUNT>
1

> <PUBCHEM_CONFORMER_ID>
0198149800000001

> <PUBCHEM_MMFF94_ENERGY>
53.0115

> <PUBCHEM_FEATURE_SELFOVERLAP>
50.747

> <PUBCHEM_SHAPE_FINGERPRINT>
10064457 181 17768550295177184568
10382601 240 18120937467373459660
104564 63 18341068379134879093
10674148 151 13840531914082122486
10688039 33 18040425616243266221
12293681 160 17402925673493392812
12422481 6 18196678223622294513
12633257 1 18193286191137184344
13134695 92 18264765648338313589
13140716 1 18339358540328582752
13965767 371 18131347557423608690
14790565 3 17541944629764795660
14840074 17 17974276922938712976
15420108 30 17484511592826852780
17357779 13 18339060653780323725
1813 80 18334018306567429230
19734167 9 17841725014455946224
20715895 44 18268717113357300537
22182313 1 17986388889579529670
23419403 2 18195498554308053709
23559900 14 16009305534743565215
3052486 1 18192172441581552084
345986 75 18411696629636731193
35225 105 17760325995408487704
4340502 62 17841155442159456617
469060 322 17822290133270901704
484985 159 17098595900543126370
513202 73 18191585255650847618
5282274 181 17981630185552393113
5283268 108 18411147926016120046
57527293 21 18115879490726752080
7064713 232 17774738484494565931
7097593 13 18047752890575100294
81228 2 18191605059480610079
9925002 15 17629468967997098407

> <PUBCHEM_SHAPE_MULTIPOLES>
498.42
7.96
4.07
1.9
0.7
2.85
-0.04
-7.16
4.37
-1.25
-0.35
-0.36
0.66
-1.51

> <PUBCHEM_SHAPE_SELFOVERLAP>
1089.951

> <PUBCHEM_SHAPE_VOLUME>
269

> <PUBCHEM_COORDINATE_TYPE>
2
5
10

$$$$
