7135169
  -OEChem-12032416133D

 73 77  0     1  0  0  0  0  0999 V2000
    0.3688    3.3593    0.2030 S   0  0  0  0  0  0  0  0  0  0  0  0
   -6.8968    0.5266   -0.6983 O   0  0  0  0  0  0  0  0  0  0  0  0
   -6.6807    2.3215    0.8751 O   0  0  0  0  0  0  0  0  0  0  0  0
    0.7019   -1.5455   -1.5482 O   0  0  0  0  0  0  0  0  0  0  0  0
    3.9068    0.4173   -0.2364 O   0  0  0  0  0  0  0  0  0  0  0  0
    5.2547    3.6732    0.1770 O   0  0  0  0  0  0  0  0  0  0  0  0
    1.0296    0.8760   -0.0953 N   0  0  0  0  0  0  0  0  0  0  0  0
    1.2316   -3.1901    0.0047 N   0  0  0  0  0  0  0  0  0  0  0  0
    2.8306    2.4731    0.0294 N   0  0  0  0  0  0  0  0  0  0  0  0
   -2.6949   -0.0306    0.3220 C   0  0  2  0  0  0  0  0  0  0  0  0
   -3.1821    1.3417   -0.3221 C   0  0  1  0  0  0  0  0  0  0  0  0
   -4.7344    1.6219   -0.3204 C   0  0  1  0  0  0  0  0  0  0  0  0
   -1.1993   -0.3029   -0.1707 C   0  0  1  0  0  0  0  0  0  0  0  0
   -3.5948   -1.1869   -0.1857 C   0  0  0  0  0  0  0  0  0  0  0  0
   -5.4849    0.3511   -0.8104 C   0  0  1  0  0  0  0  0  0  0  0  0
   -2.3279    2.5414    0.1816 C   0  0  0  0  0  0  0  0  0  0  0  0
   -5.0859   -0.9113   -0.0545 C   0  0  0  0  0  0  0  0  0  0  0  0
   -2.7322   -0.0149    1.8701 C   0  0  0  0  0  0  0  0  0  0  0  0
   -0.3504    0.9352   -0.0358 C   0  0  0  0  0  0  0  0  0  0  0  0
   -5.2967    2.1054    1.0347 C   0  0  0  0  0  0  0  0  0  0  0  0
   -5.0449    2.7613   -1.3321 C   0  0  0  0  0  0  0  0  0  0  0  0
   -0.8775    2.2030    0.1030 C   0  0  0  0  0  0  0  0  0  0  0  0
   -0.5254   -1.5194    0.4781 C   0  0  0  0  0  0  0  0  0  0  0  0
    0.5224   -2.0792   -0.4506 C   0  0  0  0  0  0  0  0  0  0  0  0
    1.5149    2.0925    0.0272 C   0  0  0  0  0  0  0  0  0  0  0  0
    1.0409   -3.8463    1.3036 C   0  0  0  0  0  0  0  0  0  0  0  0
    2.2920   -3.7676   -0.8229 C   0  0  0  0  0  0  0  0  0  0  0  0
    0.7797   -5.3406    1.1222 C   0  0  0  0  0  0  0  0  0  0  0  0
    2.0553   -5.2589   -1.0495 C   0  0  0  0  0  0  0  0  0  0  0  0
    1.8835   -6.0028    0.2836 C   0  0  0  0  0  0  0  0  0  0  0  0
    1.5741   -7.4789    0.0463 C   0  0  0  0  0  0  0  0  0  0  0  0
    3.9623    1.6373   -0.1003 C   0  0  0  0  0  0  0  0  0  0  0  0
    5.2614    2.3280   -0.0145 C   0  0  0  0  0  0  0  0  0  0  0  0
    6.5516    1.8578   -0.0937 C   0  0  0  0  0  0  0  0  0  0  0  0
    7.3917    2.9865    0.0590 C   0  0  0  0  0  0  0  0  0  0  0  0
    6.5549    4.0660    0.2208 C   0  0  0  0  0  0  0  0  0  0  0  0
   -2.9319    1.2357   -1.3921 H   0  0  0  0  0  0  0  0  0  0  0  0
   -1.2912   -0.4705   -1.2540 H   0  0  0  0  0  0  0  0  0  0  0  0
   -3.3745   -2.1168    0.3507 H   0  0  0  0  0  0  0  0  0  0  0  0
   -3.3769   -1.3855   -1.2435 H   0  0  0  0  0  0  0  0  0  0  0  0
   -5.2704    0.2000   -1.8767 H   0  0  0  0  0  0  0  0  0  0  0  0
   -2.5800    2.7944    1.2168 H   0  0  0  0  0  0  0  0  0  0  0  0
   -2.5243    3.4273   -0.4315 H   0  0  0  0  0  0  0  0  0  0  0  0
   -5.6456   -1.7656   -0.4567 H   0  0  0  0  0  0  0  0  0  0  0  0
   -5.3883   -0.8462    0.9965 H   0  0  0  0  0  0  0  0  0  0  0  0
   -2.1148    0.7801    2.2972 H   0  0  0  0  0  0  0  0  0  0  0  0
   -3.7377    0.0955    2.2705 H   0  0  0  0  0  0  0  0  0  0  0  0
   -2.3619   -0.9592    2.2846 H   0  0  0  0  0  0  0  0  0  0  0  0
   -4.8376    3.0461    1.3536 H   0  0  0  0  0  0  0  0  0  0  0  0
   -5.1761    1.3752    1.8308 H   0  0  0  0  0  0  0  0  0  0  0  0
   -4.5934    2.5522   -2.3088 H   0  0  0  0  0  0  0  0  0  0  0  0
   -4.6597    3.7272   -0.9890 H   0  0  0  0  0  0  0  0  0  0  0  0
   -6.1200    2.8869   -1.5028 H   0  0  0  0  0  0  0  0  0  0  0  0
   -0.0600   -1.2478    1.4324 H   0  0  0  0  0  0  0  0  0  0  0  0
   -1.2506   -2.3196    0.6488 H   0  0  0  0  0  0  0  0  0  0  0  0
   -7.3224   -0.2703   -1.0579 H   0  0  0  0  0  0  0  0  0  0  0  0
   -7.0255    2.6348    1.7285 H   0  0  0  0  0  0  0  0  0  0  0  0
    0.2216   -3.4056    1.8735 H   0  0  0  0  0  0  0  0  0  0  0  0
    1.9583   -3.6877    1.8829 H   0  0  0  0  0  0  0  0  0  0  0  0
    3.2415   -3.6044   -0.2994 H   0  0  0  0  0  0  0  0  0  0  0  0
    2.3583   -3.2537   -1.7870 H   0  0  0  0  0  0  0  0  0  0  0  0
   -0.1911   -5.4785    0.6285 H   0  0  0  0  0  0  0  0  0  0  0  0
    0.7135   -5.8220    2.1048 H   0  0  0  0  0  0  0  0  0  0  0  0
    2.8958   -5.6816   -1.6120 H   0  0  0  0  0  0  0  0  0  0  0  0
    1.1554   -5.3914   -1.6641 H   0  0  0  0  0  0  0  0  0  0  0  0
    2.8278   -5.9393    0.8407 H   0  0  0  0  0  0  0  0  0  0  0  0
    2.9882    3.4713    0.1439 H   0  0  0  0  0  0  0  0  0  0  0  0
    0.6381   -7.6063   -0.5082 H   0  0  0  0  0  0  0  0  0  0  0  0
    2.3754   -7.9556   -0.5279 H   0  0  0  0  0  0  0  0  0  0  0  0
    1.4794   -8.0130    0.9975 H   0  0  0  0  0  0  0  0  0  0  0  0
    6.8541    0.8310   -0.2428 H   0  0  0  0  0  0  0  0  0  0  0  0
    8.4718    3.0102    0.0522 H   0  0  0  0  0  0  0  0  0  0  0  0
    6.7187    5.1233    0.3698 H   0  0  0  0  0  0  0  0  0  0  0  0
  1 22  1  0  0  0  0
  1 25  1  0  0  0  0
  2 15  1  0  0  0  0
  2 56  1  0  0  0  0
  3 20  1  0  0  0  0
  3 57  1  0  0  0  0
  4 24  2  0  0  0  0
  5 32  2  0  0  0  0
  6 33  1  0  0  0  0
  6 36  1  0  0  0  0
  7 19  1  0  0  0  0
  7 25  2  0  0  0  0
  8 24  1  0  0  0  0
  8 26  1  0  0  0  0
  8 27  1  0  0  0  0
  9 25  1  0  0  0  0
  9 32  1  0  0  0  0
  9 67  1  0  0  0  0
 10 11  1  0  0  0  0
 10 13  1  0  0  0  0
 10 14  1  0  0  0  0
 10 18  1  0  0  0  0
 11 12  1  0  0  0  0
 11 16  1  0  0  0  0
 11 37  1  0  0  0  0
 12 15  1  0  0  0  0
 12 20  1  0  0  0  0
 12 21  1  0  0  0  0
 13 19  1  0  0  0  0
 13 23  1  0  0  0  0
 13 38  1  0  0  0  0
 14 17  1  0  0  0  0
 14 39  1  0  0  0  0
 14 40  1  0  0  0  0
 15 17  1  0  0  0  0
 15 41  1  0  0  0  0
 16 22  1  0  0  0  0
 16 42  1  0  0  0  0
 16 43  1  0  0  0  0
 17 44  1  0  0  0  0
 17 45  1  0  0  0  0
 18 46  1  0  0  0  0
 18 47  1  0  0  0  0
 18 48  1  0  0  0  0
 19 22  2  0  0  0  0
 20 49  1  0  0  0  0
 20 50  1  0  0  0  0
 21 51  1  0  0  0  0
 21 52  1  0  0  0  0
 21 53  1  0  0  0  0
 23 24  1  0  0  0  0
 23 54  1  0  0  0  0
 23 55  1  0  0  0  0
 26 28  1  0  0  0  0
 26 58  1  0  0  0  0
 26 59  1  0  0  0  0
 27 29  1  0  0  0  0
 27 60  1  0  0  0  0
 27 61  1  0  0  0  0
 28 30  1  0  0  0  0
 28 62  1  0  0  0  0
 28 63  1  0  0  0  0
 29 30  1  0  0  0  0
 29 64  1  0  0  0  0
 29 65  1  0  0  0  0
 30 31  1  0  0  0  0
 30 66  1  0  0  0  0
 31 68  1  0  0  0  0
 31 69  1  0  0  0  0
 31 70  1  0  0  0  0
 32 33  1  0  0  0  0
 33 34  2  0  0  0  0
 34 35  1  0  0  0  0
 34 71  1  0  0  0  0
 35 36  2  0  0  0  0
 35 72  1  0  0  0  0
 36 73  1  0  0  0  0
M  END
> <PUBCHEM_COMPOUND_CID>
7135169

> <PUBCHEM_CONFORMER_RMSD>
1

> <PUBCHEM_CONFORMER_DIVERSEORDER>
1
16
13
20
14
6
23
18
24
21
17
22
3
12
8
9
11
19
7
10
5
15
4
2

> <PUBCHEM_MMFF94_PARTIAL_CHARGES>
31
1 -0.08
13 0.18
15 0.28
16 0.18
19 0.05
2 -0.68
20 0.28
22 -0.14
23 0.06
24 0.57
25 0.44
26 0.3
27 0.3
3 -0.68
32 0.71
33 0.05
34 -0.15
35 -0.15
36 -0.01
4 -0.57
5 -0.57
56 0.4
57 0.4
6 -0.28
67 0.37
7 -0.57
71 0.15
72 0.15
73 0.15
8 -0.66
9 -0.49

> <PUBCHEM_EFFECTIVE_ROTOR_COUNT>
9.4

> <PUBCHEM_PHARMACOPHORE_FEATURES>
13
1 2 acceptor
1 2 donor
1 3 acceptor
1 3 donor
1 4 acceptor
1 5 acceptor
1 6 acceptor
1 9 donor
5 1 7 19 22 25 rings
5 6 33 34 35 36 rings
6 10 11 12 14 15 17 rings
6 10 11 13 16 19 22 rings
6 8 26 27 28 29 30 rings

> <PUBCHEM_HEAVY_ATOM_COUNT>
36

> <PUBCHEM_ATOM_DEF_STEREO_COUNT>
5

> <PUBCHEM_ATOM_UDEF_STEREO_COUNT>
0

> <PUBCHEM_BOND_DEF_STEREO_COUNT>
0

> <PUBCHEM_BOND_UDEF_STEREO_COUNT>
0

> <PUBCHEM_ISOTOPIC_ATOM_COUNT>
0

> <PUBCHEM_COMPONENT_COUNT>
1

> <PUBCHEM_CACTVS_TAUTO_COUNT>
3

> <PUBCHEM_CONFORMER_ID>
006CDFC100000001

> <PUBCHEM_MMFF94_ENERGY>
94.3296

> <PUBCHEM_FEATURE_SELFOVERLAP>
66.12

> <PUBCHEM_SHAPE_FINGERPRINT>
10050765 1 18122906431028217397
102385 1 17978509732914461484
10675989 125 18341056212093779540
10940486 97 17828768683489586068
11007060 377 18127127708915737800
11135926 11 18411132516022031221
11136131 41 18335974273439639586
11578080 2 17532917321826031525
11763715 3 17330012195879310198
11991303 11 18044656636398852772
13540713 4 17970067734967003533
13540713 5 17986389993650030897
14150023 79 18410852170304714447
14659021 117 17693644227699748624
14790565 3 18410575136393467516
14856354 85 16298659616068556392
14937079 2 17402048894727659192
15200665 1 17978791538829552818
15320294 125 18115567341557668264
15347591 1 18266176138044152309
15400415 2 18338515352407554252
15439362 3 18337107852948382685
15890870 6 18410854408389240900
15927050 60 18413388748194473719
16090146 7 18269575964650667360
16719943 64 18338514274285516024
16993438 75 18046348805910705546
20505436 4 18060703901269094653
21133665 82 18341053008580875108
21796203 349 17187889357158181795
22311459 1 18266460893706042086
23559900 14 18049433743712278027
244849 19 17897471431553964233
25019877 29 18260547861298986604
283562 15 18343308071436387233
3383291 50 18194400219727657344
3418910 222 17617940232778829786
4017518 198 18339646737255984262
4058900 60 18411143553997739352
4461854 278 18120951752287474491
4516262 110 18409162204613361853
504843 32 18191585461481476598
5085150 59 18338223973056307344
5171179 24 17903916647734748285
5265222 85 18266179620176400836
5385378 56 18339369573952087585
563151 97 18412258459004666613
6058803 2 18057603158272760537
6371380 46 18199746011356587040
6669772 16 18410577275186272423
6673363 416 17475807451431002926
6679774 75 18264467586636282730
6898599 12 17903083562225562684
9961470 85 18340769338881325930
9981440 41 18262525895596638051

> <PUBCHEM_SHAPE_MULTIPOLES>
700.42
14.89
9.36
1.05
3.19
22.35
-0.12
-22.87
0.71
14.18
-0.53
-0.77
0.46
0.52

> <PUBCHEM_SHAPE_SELFOVERLAP>
1484.761

> <PUBCHEM_SHAPE_VOLUME>
394.5

> <PUBCHEM_COORDINATE_TYPE>
2
5
10

$$$$
