45783816
  -OEChem-12032416263D

 46 49  0     1  0  0  0  0  0999 V2000
   -2.3509    2.5941    1.5176 S   0  0  0  0  0  0  0  0  0  0  0  0
   -1.5263   -1.4023    1.8977 O   0  0  0  0  0  0  0  0  0  0  0  0
   -3.6035   -0.1161   -0.8476 N   0  0  1  0  0  0  0  0  0  0  0  0
   -0.7793   -0.7379   -0.1067 N   0  0  0  0  0  0  0  0  0  0  0  0
   -0.1334   -1.3104    2.0120 N   0  0  0  0  0  0  0  0  0  0  0  0
    3.2209   -0.0415   -1.2460 N   0  0  0  0  0  0  0  0  0  0  0  0
    5.5364    0.0011   -0.6868 N   0  0  0  0  0  0  0  0  0  0  0  0
   -3.2883   -1.0666    0.2374 C   0  0  1  0  0  0  0  0  0  0  0  0
   -3.7468   -2.4362   -0.2968 C   0  0  0  0  0  0  0  0  0  0  0  0
   -4.3603   -2.1464   -1.6593 C   0  0  0  0  0  0  0  0  0  0  0  0
   -4.7395   -0.6816   -1.5756 C   0  0  0  0  0  0  0  0  0  0  0  0
   -3.8761    1.2328   -0.3685 C   0  0  0  0  0  0  0  0  0  0  0  0
   -1.8231   -1.0488    0.6197 C   0  0  0  0  0  0  0  0  0  0  0  0
   -2.6088    1.9859   -0.0623 C   0  0  0  0  0  0  0  0  0  0  0  0
    0.2340   -0.9132    0.7901 C   0  0  0  0  0  0  0  0  0  0  0  0
   -1.5610    2.2802   -0.9069 C   0  0  0  0  0  0  0  0  0  0  0  0
    1.6042   -0.6842    0.4327 C   0  0  0  0  0  0  0  0  0  0  0  0
   -0.5330    3.0145   -0.2483 C   0  0  0  0  0  0  0  0  0  0  0  0
   -0.8340    3.2535    1.0745 C   0  0  0  0  0  0  0  0  0  0  0  0
    2.6263   -0.8671    1.3577 C   0  0  0  0  0  0  0  0  0  0  0  0
    1.9511   -0.2743   -0.8445 C   0  0  0  0  0  0  0  0  0  0  0  0
    3.9454   -0.6376    0.9822 C   0  0  0  0  0  0  0  0  0  0  0  0
    4.1876   -0.2297   -0.3196 C   0  0  0  0  0  0  0  0  0  0  0  0
    6.5959   -0.1893    0.2789 C   0  0  0  0  0  0  0  0  0  0  0  0
    5.8627    0.4211   -2.0316 C   0  0  0  0  0  0  0  0  0  0  0  0
   -3.8834   -0.8442    1.1344 H   0  0  0  0  0  0  0  0  0  0  0  0
   -2.9388   -3.1709   -0.3823 H   0  0  0  0  0  0  0  0  0  0  0  0
   -4.5123   -2.8538    0.3685 H   0  0  0  0  0  0  0  0  0  0  0  0
   -5.2184   -2.7907   -1.8722 H   0  0  0  0  0  0  0  0  0  0  0  0
   -3.6120   -2.3037   -2.4461 H   0  0  0  0  0  0  0  0  0  0  0  0
   -5.6788   -0.5630   -1.0207 H   0  0  0  0  0  0  0  0  0  0  0  0
   -4.8544   -0.2389   -2.5698 H   0  0  0  0  0  0  0  0  0  0  0  0
   -4.3783    1.8041   -1.1624 H   0  0  0  0  0  0  0  0  0  0  0  0
   -4.5719    1.2298    0.4806 H   0  0  0  0  0  0  0  0  0  0  0  0
   -1.5282    1.9851   -1.9480 H   0  0  0  0  0  0  0  0  0  0  0  0
    0.3817    3.3487   -0.7203 H   0  0  0  0  0  0  0  0  0  0  0  0
   -0.2352    3.7829    1.8022 H   0  0  0  0  0  0  0  0  0  0  0  0
    2.4294   -1.1872    2.3776 H   0  0  0  0  0  0  0  0  0  0  0  0
    1.2098   -0.1095   -1.6210 H   0  0  0  0  0  0  0  0  0  0  0  0
    4.7106   -0.7918    1.7332 H   0  0  0  0  0  0  0  0  0  0  0  0
    6.4846    0.4855    1.1352 H   0  0  0  0  0  0  0  0  0  0  0  0
    6.6417   -1.2281    0.6248 H   0  0  0  0  0  0  0  0  0  0  0  0
    7.5778    0.0306   -0.1560 H   0  0  0  0  0  0  0  0  0  0  0  0
    5.5393   -0.3295   -2.7611 H   0  0  0  0  0  0  0  0  0  0  0  0
    5.3770    1.3741   -2.2687 H   0  0  0  0  0  0  0  0  0  0  0  0
    6.9398    0.5640   -2.1695 H   0  0  0  0  0  0  0  0  0  0  0  0
  1 14  1  0  0  0  0
  1 19  1  0  0  0  0
  2  5  1  0  0  0  0
  2 13  1  0  0  0  0
  3  8  1  0  0  0  0
  3 11  1  0  0  0  0
  3 12  1  0  0  0  0
  4 13  2  0  0  0  0
  4 15  1  0  0  0  0
  5 15  2  0  0  0  0
  6 21  1  0  0  0  0
  6 23  2  0  0  0  0
  7 23  1  0  0  0  0
  7 24  1  0  0  0  0
  7 25  1  0  0  0  0
  8  9  1  0  0  0  0
  8 13  1  0  0  0  0
  8 26  1  0  0  0  0
  9 10  1  0  0  0  0
  9 27  1  0  0  0  0
  9 28  1  0  0  0  0
 10 11  1  0  0  0  0
 10 29  1  0  0  0  0
 10 30  1  0  0  0  0
 11 31  1  0  0  0  0
 11 32  1  0  0  0  0
 12 14  1  0  0  0  0
 12 33  1  0  0  0  0
 12 34  1  0  0  0  0
 14 16  2  0  0  0  0
 15 17  1  0  0  0  0
 16 18  1  0  0  0  0
 16 35  1  0  0  0  0
 17 20  1  0  0  0  0
 17 21  2  0  0  0  0
 18 19  2  0  0  0  0
 18 36  1  0  0  0  0
 19 37  1  0  0  0  0
 20 22  2  0  0  0  0
 20 38  1  0  0  0  0
 21 39  1  0  0  0  0
 22 23  1  0  0  0  0
 22 40  1  0  0  0  0
 24 41  1  0  0  0  0
 24 42  1  0  0  0  0
 24 43  1  0  0  0  0
 25 44  1  0  0  0  0
 25 45  1  0  0  0  0
 25 46  1  0  0  0  0
M  END
> <PUBCHEM_COMPOUND_CID>
45783816

> <PUBCHEM_CONFORMER_RMSD>
0.8

> <PUBCHEM_CONFORMER_DIVERSEORDER>
2
17
11
51
43
85
37
69
72
20
91
18
96
49
55
4
98
28
39
47
76
86
30
12
77
79
58
38
62
36
61
25
24
45
9
64
81
41
8
70
82
46
57
33
78
52
14
66
56
88
10
48
29
74
32
95
22
71
65
6
50
83
93
60
63
21
40
59
89
67
34
44
75
84
1
94
5
90
92
16
35
80
68
31
54
97
7
42
73
87
27
53
19
15
23
3
26
13

> <PUBCHEM_MMFF94_PARTIAL_CHARGES>
29
1 -0.08
11 0.27
12 0.45
13 0.3
14 -0.14
15 0.46
16 -0.15
17 0.05
18 -0.15
19 -0.11
2 -0.02
20 -0.15
21 0.16
22 -0.15
23 0.41
24 0.37
25 0.37
3 -0.81
35 0.15
36 0.15
37 0.15
38 0.15
39 0.15
4 -0.57
40 0.15
5 -0.41
6 -0.62
7 -0.84
8 0.45

> <PUBCHEM_EFFECTIVE_ROTOR_COUNT>
6

> <PUBCHEM_PHARMACOPHORE_FEATURES>
7
1 3 cation
3 4 5 15 cation
3 6 7 23 cation
5 1 14 16 18 19 rings
5 2 4 5 13 15 rings
5 3 8 9 10 11 rings
6 6 17 20 21 22 23 rings

> <PUBCHEM_HEAVY_ATOM_COUNT>
25

> <PUBCHEM_ATOM_DEF_STEREO_COUNT>
1

> <PUBCHEM_ATOM_UDEF_STEREO_COUNT>
0

> <PUBCHEM_BOND_DEF_STEREO_COUNT>
0

> <PUBCHEM_BOND_UDEF_STEREO_COUNT>
0

> <PUBCHEM_ISOTOPIC_ATOM_COUNT>
0

> <PUBCHEM_COMPONENT_COUNT>
1

> <PUBCHEM_CACTVS_TAUTO_COUNT>
1

> <PUBCHEM_CONFORMER_ID>
02BA9B0800000002

> <PUBCHEM_MMFF94_ENERGY>
55.3999

> <PUBCHEM_FEATURE_SELFOVERLAP>
35.524

> <PUBCHEM_SHAPE_FINGERPRINT>
10871710 139 18115588137072351717
10937287 8 17478898181866584777
11315181 36 17822015337416651014
11578080 2 17272039500031635628
12166972 35 17458910456205184086
12788726 201 18336820914292983659
13782708 43 17489318456185506462
13947920 75 18342172237680729205
13994607 96 17895493444020774217
14910302 57 17774721952796464166
14931854 50 18187074049324412975
15183329 4 17968948479580068670
15420108 30 16603193189764134936
15849732 13 18060431205627439307
15961568 22 18197764704314656000
17349148 13 18040713645656633226
17357779 13 18272358811173066057
17492 54 18189037730374663293
17818456 19 17978774728180253162
19438510 23 14057819588507505455
19489759 90 18409165507015359714
20300324 65 18411699872231453157
20642791 239 18187352234847109469
20775438 99 17116043342005995719
21033650 10 18195550129007943468
21304303 64 17095243601543789965
21623110 236 18336838583915806176
23402539 116 18409728473747860094
235170 7 17704356546135053446
23557571 272 18202281394294591823
23559900 14 18189047762753712772
469060 322 17605581936292065097
484985 159 12463282549824206797
497634 4 16988574514996780784
5104073 3 16226051154283934392
531348 171 18128826248491428838
57527585 103 17606151500215618563
6786 2 16767635144182505737
7471813 234 18339358698888678692

> <PUBCHEM_SHAPE_MULTIPOLES>
487.56
11.95
3.03
1.74
17.85
2.61
0.07
-3.71
-5.53
-4.55
0.36
0.33
-0.27
-1.29

> <PUBCHEM_SHAPE_SELFOVERLAP>
1039.026

> <PUBCHEM_SHAPE_VOLUME>
276.4

> <PUBCHEM_COORDINATE_TYPE>
2
5
10

$$$$
