44716247
  -OEChem-12032416153D

 48 50  0     1  0  0  0  0  0999 V2000
   -3.8976    0.3830    1.7613 O   0  0  0  0  0  0  0  0  0  0  0  0
    6.3804    0.2969    1.4654 O   0  0  0  0  0  0  0  0  0  0  0  0
   -0.8789    1.1913   -1.2873 N   0  0  1  0  0  0  0  0  0  0  0  0
    2.8310    0.3776   -0.7994 N   0  0  0  0  0  0  0  0  0  0  0  0
   -4.4464   -0.9605   -0.0590 N   0  0  0  0  0  0  0  0  0  0  0  0
    3.0062   -0.8389   -1.3405 N   0  0  0  0  0  0  0  0  0  0  0  0
    4.1458   -1.3239   -0.8600 N   0  0  0  0  0  0  0  0  0  0  0  0
   -1.2160    0.4806    1.1935 C   0  0  1  0  0  0  0  0  0  0  0  0
   -2.1693   -0.2864    0.2555 C   0  0  2  0  0  0  0  0  0  0  0  0
    0.3252    0.4700   -0.7910 C   0  0  2  0  0  0  0  0  0  0  0  0
    0.2211    0.1842    0.7253 C   0  0  0  0  0  0  0  0  0  0  0  0
   -1.4293    1.9946    1.0135 C   0  0  0  0  0  0  0  0  0  0  0  0
   -2.0484    0.2822   -1.1710 C   0  0  0  0  0  0  0  0  0  0  0  0
   -1.1556    2.3797   -0.4485 C   0  0  0  0  0  0  0  0  0  0  0  0
    1.6223    1.2023   -1.1419 C   0  0  0  0  0  0  0  0  0  0  0  0
   -3.5860   -0.2329    0.7453 C   0  0  0  0  0  0  0  0  0  0  0  0
   -5.8610   -1.0873    0.2081 C   0  0  0  0  0  0  0  0  0  0  0  0
    3.8508    0.7048    0.0403 C   0  0  0  0  0  0  0  0  0  0  0  0
   -6.6321    0.0556   -0.4403 C   0  0  0  0  0  0  0  0  0  0  0  0
   -6.3712   -2.4398   -0.2720 C   0  0  0  0  0  0  0  0  0  0  0  0
    4.6756   -0.3907   -0.0129 C   0  0  0  0  0  0  0  0  0  0  0  0
    5.9068   -0.5756    0.6886 C   0  0  0  0  0  0  0  0  0  0  0  0
    6.7265   -1.8668    0.5268 C   0  0  0  0  0  0  0  0  0  0  0  0
   -1.3446    0.1928    2.2425 H   0  0  0  0  0  0  0  0  0  0  0  0
   -1.8731   -1.3451    0.2501 H   0  0  0  0  0  0  0  0  0  0  0  0
    0.3559   -0.4972   -1.3130 H   0  0  0  0  0  0  0  0  0  0  0  0
    0.4682   -0.8665    0.9208 H   0  0  0  0  0  0  0  0  0  0  0  0
    0.9226    0.7952    1.3063 H   0  0  0  0  0  0  0  0  0  0  0  0
   -2.4425    2.2981    1.2942 H   0  0  0  0  0  0  0  0  0  0  0  0
   -0.7452    2.5455    1.6707 H   0  0  0  0  0  0  0  0  0  0  0  0
   -2.9533    0.8171   -1.4877 H   0  0  0  0  0  0  0  0  0  0  0  0
   -1.9337   -0.5420   -1.8870 H   0  0  0  0  0  0  0  0  0  0  0  0
   -0.3241    3.0915   -0.5036 H   0  0  0  0  0  0  0  0  0  0  0  0
   -2.0190    2.9220   -0.8549 H   0  0  0  0  0  0  0  0  0  0  0  0
    1.7072    1.3924   -2.2180 H   0  0  0  0  0  0  0  0  0  0  0  0
    1.7415    2.1474   -0.6019 H   0  0  0  0  0  0  0  0  0  0  0  0
   -4.0839   -1.4005   -0.9000 H   0  0  0  0  0  0  0  0  0  0  0  0
   -6.0073   -1.0274    1.2934 H   0  0  0  0  0  0  0  0  0  0  0  0
    3.8962    1.6426    0.5758 H   0  0  0  0  0  0  0  0  0  0  0  0
   -6.2825    1.0247   -0.0678 H   0  0  0  0  0  0  0  0  0  0  0  0
   -6.5008    0.0554   -1.5282 H   0  0  0  0  0  0  0  0  0  0  0  0
   -7.7028   -0.0224   -0.2251 H   0  0  0  0  0  0  0  0  0  0  0  0
   -7.4346   -2.5616   -0.0414 H   0  0  0  0  0  0  0  0  0  0  0  0
   -5.8236   -3.2555    0.2129 H   0  0  0  0  0  0  0  0  0  0  0  0
   -6.2414   -2.5536   -1.3541 H   0  0  0  0  0  0  0  0  0  0  0  0
    7.0189   -1.9822   -0.5201 H   0  0  0  0  0  0  0  0  0  0  0  0
    6.1250   -2.7212    0.8479 H   0  0  0  0  0  0  0  0  0  0  0  0
    7.6272   -1.8129    1.1447 H   0  0  0  0  0  0  0  0  0  0  0  0
  1 16  2  0  0  0  0
  2 22  2  0  0  0  0
  3 10  1  0  0  0  0
  3 13  1  0  0  0  0
  3 14  1  0  0  0  0
  4  6  1  0  0  0  0
  4 15  1  0  0  0  0
  4 18  1  0  0  0  0
  5 16  1  0  0  0  0
  5 17  1  0  0  0  0
  5 37  1  0  0  0  0
  6  7  2  0  0  0  0
  7 21  1  0  0  0  0
  8  9  1  0  0  0  0
  8 11  1  0  0  0  0
  8 12  1  0  0  0  0
  8 24  1  0  0  0  0
  9 13  1  0  0  0  0
  9 16  1  0  0  0  0
  9 25  1  0  0  0  0
 10 11  1  0  0  0  0
 10 15  1  0  0  0  0
 10 26  1  0  0  0  0
 11 27  1  0  0  0  0
 11 28  1  0  0  0  0
 12 14  1  0  0  0  0
 12 29  1  0  0  0  0
 12 30  1  0  0  0  0
 13 31  1  0  0  0  0
 13 32  1  0  0  0  0
 14 33  1  0  0  0  0
 14 34  1  0  0  0  0
 15 35  1  0  0  0  0
 15 36  1  0  0  0  0
 17 19  1  0  0  0  0
 17 20  1  0  0  0  0
 17 38  1  0  0  0  0
 18 21  2  0  0  0  0
 18 39  1  0  0  0  0
 19 40  1  0  0  0  0
 19 41  1  0  0  0  0
 19 42  1  0  0  0  0
 20 43  1  0  0  0  0
 20 44  1  0  0  0  0
 20 45  1  0  0  0  0
 21 22  1  0  0  0  0
 22 23  1  0  0  0  0
 23 46  1  0  0  0  0
 23 47  1  0  0  0  0
 23 48  1  0  0  0  0
M  END
> <PUBCHEM_COMPOUND_CID>
44716247

> <PUBCHEM_CONFORMER_RMSD>
0.8

> <PUBCHEM_CONFORMER_DIVERSEORDER>
1
137
128
93
51
129
80
112
114
35
120
61
136
85
104
124
75
88
40
126
32
101
58
108
121
87
98
15
134
106
70
18
138
81
46
113
117
25
132
78
86
53
45
65
66
52
23
77
50
54
99
110
107
9
41
95
68
133
28
103
73
55
36
105
94
69
89
19
71
130
127
59
116
123
62
16
34
67
64
42
27
84
111
37
115
76
125
72
47
90
122
14
79
8
96
49
30
131
100
97
109
135
11
38
13
31
48
82
44
6
2
63
7
39
4
91
43
12
57
118
56
17
74
20
10
22
5
102
92
21
60
3
29
24
33
83
26
119

> <PUBCHEM_MMFF94_PARTIAL_CHARGES>
20
1 -0.57
10 0.27
13 0.27
14 0.27
15 0.26
16 0.57
17 0.3
18 -0.3
2 -0.57
21 0.14
22 0.6
23 0.06
3 -0.81
37 0.37
39 0.15
4 0.31
5 -0.73
6 -0.42
7 -0.23
9 0.06

> <PUBCHEM_EFFECTIVE_ROTOR_COUNT>
7.2

> <PUBCHEM_PHARMACOPHORE_FEATURES>
7
1 1 acceptor
1 2 acceptor
1 3 cation
1 5 donor
3 17 19 20 hydrophobe
5 4 6 7 18 21 rings
8 3 8 9 10 11 12 13 14 rings

> <PUBCHEM_HEAVY_ATOM_COUNT>
23

> <PUBCHEM_ATOM_DEF_STEREO_COUNT>
2

> <PUBCHEM_ATOM_UDEF_STEREO_COUNT>
1

> <PUBCHEM_BOND_DEF_STEREO_COUNT>
0

> <PUBCHEM_BOND_UDEF_STEREO_COUNT>
0

> <PUBCHEM_ISOTOPIC_ATOM_COUNT>
0

> <PUBCHEM_COMPONENT_COUNT>
1

> <PUBCHEM_CACTVS_TAUTO_COUNT>
4

> <PUBCHEM_CONFORMER_ID>
02AA50D700000001

> <PUBCHEM_MMFF94_ENERGY>
43.0306

> <PUBCHEM_FEATURE_SELFOVERLAP>
35.521

> <PUBCHEM_SHAPE_FINGERPRINT>
10 15 16487251089054055818
106641 1 14979952605901032079
10670039 82 13407059397844366279
10753850 27 18187648033122676651
11724838 91 14908173174850200308
12236239 1 18409451414324304343
12403259 118 16988852656878962257
12555020 224 17167866387122867571
12596602 18 17203615856474922826
12670543 26 15864065481799855735
12760667 363 18040437681038379017
12892183 10 16558486192274852733
12895836 83 8214136339690306944
12954195 1 16370994184241604325
13177829 20 17703505584296501242
13533116 47 18260550056639086720
13668630 136 18040152928743756475
13862211 1 18333452062326586363
13914758 101 16877936092747814181
14251752 14 14634864245239632966
14251764 18 14476955710037845655
14294032 229 15865458443042515341
14341114 328 16917345948800467442
14508225 48 16732703856692993101
14848160 23 18410571794723417935
15048467 5 11815897859630688006
15183329 4 14201391677372617086
15188451 53 18261387828617125210
15510800 12 18261692427129000483
17834072 8 15213017167613597691
1813 80 18338812177238191669
18222031 100 18261685813411140372
19377110 9 17846777434090121260
19784866 240 17749113279102873652
200 152 18113057138139466093
20028762 73 18411139147425500150
20281389 69 13254797923923277954
21315764 119 13984655940931551210
21637258 2 18410852200775667375
22079108 93 16702300161594084454
221357 26 12107781909207151462
2215653 11 16225765229040492914
22224240 67 14117519848728064471
23198884 109 11097855181378318786
23402539 116 18334858307744348341
23559900 14 15864361306109581844
293599 30 9871754580888965167
29717793 49 16515687732534625526
3004659 81 15647053772519683724
3009799 131 17458061590268506533
3014063 24 18335417976121625046
312425 54 17845106094395103899
3472631 163 10447918495429000970
347723 3 17312822676124705185
4058900 60 11026060349508979501
4340502 62 16917074368811631558
44062 13 15792308101454176411
5104073 3 16701475450057841707
5718773 13 18187359896931823618
5758199 1 11887959869622853847
59682541 35 16916778638986307730
59755656 215 16877939408737250626
9689198 14 9079121085353687183

> <PUBCHEM_SHAPE_MULTIPOLES>
436.69
16.92
1.88
1.32
5
0.02
-0.12
12.04
-2.55
-0.97
0.13
0.2
-0.25
-0.4

> <PUBCHEM_SHAPE_SELFOVERLAP>
910.232

> <PUBCHEM_SHAPE_VOLUME>
244.7

> <PUBCHEM_COORDINATE_TYPE>
2
5
10

$$$$
