75537056
  -OEChem-12032416303D

 50 53  0     1  0  0  0  0  0999 V2000
    6.4386    1.5818   -0.3820 S   0  0  0  0  0  0  0  0  0  0  0  0
   -4.2855   -2.1185   -0.6035 O   0  0  0  0  0  0  0  0  0  0  0  0
    6.8760    2.2906    0.8129 O   0  0  0  0  0  0  0  0  0  0  0  0
    7.4003    0.8116   -1.1580 O   0  0  0  0  0  0  0  0  0  0  0  0
   -2.0193   -1.5950   -0.4491 N   0  0  0  0  0  0  0  0  0  0  0  0
    0.7025   -1.8762    0.2059 N   0  0  2  0  0  0  0  0  0  0  0  0
   -3.4960    0.0966   -0.1578 N   0  0  0  0  0  0  0  0  0  0  0  0
   -1.1966   -0.4152   -0.3523 C   0  0  2  0  0  0  0  0  0  0  0  0
   -0.0253   -0.6532    0.5998 C   0  0  0  0  0  0  0  0  0  0  0  0
   -2.1758    0.6651    0.0911 C   0  0  0  0  0  0  0  0  0  0  0  0
   -1.3893   -2.8786   -0.6843 C   0  0  0  0  0  0  0  0  0  0  0  0
   -0.1880   -3.0532    0.2478 C   0  0  0  0  0  0  0  0  0  0  0  0
   -3.3921   -1.2998   -0.4313 C   0  0  0  0  0  0  0  0  0  0  0  0
    1.8612   -2.0818    1.0745 C   0  0  0  0  0  0  0  0  0  0  0  0
   -4.6917    0.8632   -0.0451 C   0  0  0  0  0  0  0  0  0  0  0  0
    3.0025   -1.1692    0.7122 C   0  0  0  0  0  0  0  0  0  0  0  0
   -5.9324    0.2467   -0.2079 C   0  0  0  0  0  0  0  0  0  0  0  0
   -4.6223    2.2292    0.2280 C   0  0  0  0  0  0  0  0  0  0  0  0
    3.7870   -1.4444   -0.4079 C   0  0  0  0  0  0  0  0  0  0  0  0
    3.2753   -0.0482    1.4963 C   0  0  0  0  0  0  0  0  0  0  0  0
    4.8444   -0.5990   -0.7437 C   0  0  0  0  0  0  0  0  0  0  0  0
    4.3327    0.7971    1.1606 C   0  0  0  0  0  0  0  0  0  0  0  0
   -7.1036    0.9964   -0.0979 C   0  0  0  0  0  0  0  0  0  0  0  0
   -5.7934    2.9789    0.3383 C   0  0  0  0  0  0  0  0  0  0  0  0
    5.1172    0.5218    0.0407 C   0  0  0  0  0  0  0  0  0  0  0  0
   -7.0340    2.3624    0.1753 C   0  0  0  0  0  0  0  0  0  0  0  0
    5.7077    2.7909   -1.4625 C   0  0  0  0  0  0  0  0  0  0  0  0
   -0.8293   -0.1977   -1.3642 H   0  0  0  0  0  0  0  0  0  0  0  0
    0.6229    0.2285    0.5542 H   0  0  0  0  0  0  0  0  0  0  0  0
   -0.3868   -0.7445    1.6332 H   0  0  0  0  0  0  0  0  0  0  0  0
   -2.0919    0.8908    1.1600 H   0  0  0  0  0  0  0  0  0  0  0  0
   -2.0207    1.5760   -0.4959 H   0  0  0  0  0  0  0  0  0  0  0  0
   -1.0696   -2.8961   -1.7326 H   0  0  0  0  0  0  0  0  0  0  0  0
   -2.1216   -3.6793   -0.5410 H   0  0  0  0  0  0  0  0  0  0  0  0
   -0.5438   -3.2200    1.2734 H   0  0  0  0  0  0  0  0  0  0  0  0
    0.3568   -3.9529   -0.0622 H   0  0  0  0  0  0  0  0  0  0  0  0
    2.2389   -3.1087    0.9692 H   0  0  0  0  0  0  0  0  0  0  0  0
    1.5976   -1.9813    2.1363 H   0  0  0  0  0  0  0  0  0  0  0  0
   -6.0591   -0.8055   -0.4219 H   0  0  0  0  0  0  0  0  0  0  0  0
   -3.6797    2.7486    0.3686 H   0  0  0  0  0  0  0  0  0  0  0  0
    3.5831   -2.3136   -1.0278 H   0  0  0  0  0  0  0  0  0  0  0  0
    2.6710    0.1788    2.3706 H   0  0  0  0  0  0  0  0  0  0  0  0
    5.4372   -0.8287   -1.6246 H   0  0  0  0  0  0  0  0  0  0  0  0
    4.5232    1.6682    1.7811 H   0  0  0  0  0  0  0  0  0  0  0  0
   -8.0703    0.5175   -0.2248 H   0  0  0  0  0  0  0  0  0  0  0  0
   -5.7400    4.0424    0.5525 H   0  0  0  0  0  0  0  0  0  0  0  0
   -7.9458    2.9461    0.2614 H   0  0  0  0  0  0  0  0  0  0  0  0
    6.4903    3.4880   -1.7696 H   0  0  0  0  0  0  0  0  0  0  0  0
    5.2975    2.2832   -2.3375 H   0  0  0  0  0  0  0  0  0  0  0  0
    4.9249    3.3249   -0.9205 H   0  0  0  0  0  0  0  0  0  0  0  0
  1  3  2  0  0  0  0
  1  4  2  0  0  0  0
  1 25  1  0  0  0  0
  1 27  1  0  0  0  0
  2 13  2  0  0  0  0
  5  8  1  0  0  0  0
  5 11  1  0  0  0  0
  5 13  1  0  0  0  0
  6  9  1  0  0  0  0
  6 12  1  0  0  0  0
  6 14  1  0  0  0  0
  7 10  1  0  0  0  0
  7 13  1  0  0  0  0
  7 15  1  0  0  0  0
  8  9  1  0  0  0  0
  8 10  1  0  0  0  0
  8 28  1  0  0  0  0
  9 29  1  0  0  0  0
  9 30  1  0  0  0  0
 10 31  1  0  0  0  0
 10 32  1  0  0  0  0
 11 12  1  0  0  0  0
 11 33  1  0  0  0  0
 11 34  1  0  0  0  0
 12 35  1  0  0  0  0
 12 36  1  0  0  0  0
 14 16  1  0  0  0  0
 14 37  1  0  0  0  0
 14 38  1  0  0  0  0
 15 17  2  0  0  0  0
 15 18  1  0  0  0  0
 16 19  2  0  0  0  0
 16 20  1  0  0  0  0
 17 23  1  0  0  0  0
 17 39  1  0  0  0  0
 18 24  2  0  0  0  0
 18 40  1  0  0  0  0
 19 21  1  0  0  0  0
 19 41  1  0  0  0  0
 20 22  2  0  0  0  0
 20 42  1  0  0  0  0
 21 25  2  0  0  0  0
 21 43  1  0  0  0  0
 22 25  1  0  0  0  0
 22 44  1  0  0  0  0
 23 26  2  0  0  0  0
 23 45  1  0  0  0  0
 24 26  1  0  0  0  0
 24 46  1  0  0  0  0
 26 47  1  0  0  0  0
 27 48  1  0  0  0  0
 27 49  1  0  0  0  0
 27 50  1  0  0  0  0
M  END
> <PUBCHEM_COMPOUND_CID>
75537056

> <PUBCHEM_CONFORMER_RMSD>
0.8

> <PUBCHEM_CONFORMER_DIVERSEORDER>
1
29
20
6
30
7
18
26
10
12
31
25
24
15
27
19
16
17
23
13
28
21
11
22
2
5
3
9
4
14
8

> <PUBCHEM_MMFF94_PARTIAL_CHARGES>
36
1 1.2
10 0.3
11 0.3
12 0.27
13 0.69
14 0.41
15 0.12
16 -0.14
17 -0.15
18 -0.15
19 -0.15
2 -0.57
20 -0.15
21 -0.15
22 -0.15
23 -0.15
24 -0.15
25 -0.01
26 -0.15
27 0.11
3 -0.65
39 0.15
4 -0.65
40 0.15
41 0.15
42 0.15
43 0.15
44 0.15
45 0.15
46 0.15
47 0.15
5 -0.66
6 -0.81
7 -0.48
8 0.3
9 0.27

> <PUBCHEM_EFFECTIVE_ROTOR_COUNT>
5.2

> <PUBCHEM_PHARMACOPHORE_FEATURES>
8
1 2 acceptor
1 3 acceptor
1 4 acceptor
1 6 cation
5 5 7 8 10 13 rings
6 15 17 18 23 24 26 rings
6 16 19 20 21 22 25 rings
6 5 6 8 9 11 12 rings

> <PUBCHEM_HEAVY_ATOM_COUNT>
27

> <PUBCHEM_ATOM_DEF_STEREO_COUNT>
1

> <PUBCHEM_ATOM_UDEF_STEREO_COUNT>
0

> <PUBCHEM_BOND_DEF_STEREO_COUNT>
0

> <PUBCHEM_BOND_UDEF_STEREO_COUNT>
0

> <PUBCHEM_ISOTOPIC_ATOM_COUNT>
0

> <PUBCHEM_COMPONENT_COUNT>
1

> <PUBCHEM_CACTVS_TAUTO_COUNT>
1

> <PUBCHEM_CONFORMER_ID>
04809AA000000001

> <PUBCHEM_MMFF94_ENERGY>
71.3531

> <PUBCHEM_FEATURE_SELFOVERLAP>
40.708

> <PUBCHEM_SHAPE_FINGERPRINT>
10 15 18259987068088573211
10280341 67 18198050577675780096
10411042 1 17764021764204235759
10554248 39 18194945363026647231
10906281 52 18058737888832310715
11273773 38 18408887356259570220
11991303 11 16486677144121553269
1200032 147 18113340804377582322
12390115 104 18272936020629056291
12760667 363 10231755604382157037
12895836 83 18413668028078522347
12895837 130 18264774436041848308
13540713 5 18266154228245571906
13757389 114 18200029680998159295
13782708 43 11311470508706113481
13885169 86 18334301980272100029
13944108 23 18053948342355410784
14251764 75 18334576854231749152
14257110 125 18409729538767640234
14528608 73 18271800177872695851
1454969 45 18341040853786263759
14565420 104 17967812721873767946
14790565 3 18411419479903168177
14840074 17 18040155106434386229
14931854 50 17775287136196176544
15064981 194 17971770006325384446
15183329 4 16630810988817735257
15188451 53 8646768889247903306
15198563 99 17771325742658870135
1577012 14 18335414686635248450
15840311 113 18261397689819910661
16126227 98 18411139164462216865
16992752 21 18198619033829593847
16993089 31 14189291630041345957
19053607 189 17907291402089744152
19427546 20 18341045324478564431
19438510 23 18186519925618364890
1979834 28 13696157232603170801
20058555 10 18337669690505735669
20526848 3 18408042905158123156
20691028 202 18409448093987946292
21298829 104 18335423499834741900
21424621 283 18335140890437772403
21585482 111 18115588123823921181
23569914 152 17342677569567484454
23569943 247 9943801193471848509
270888 7 18410008827658770770
2748736 6 18409439276314534149
3014063 24 10015864271522941032
3472631 163 18410859871508026638
34797466 226 17988647363450236567
3918712 181 18339355267379471417
406291 66 9151173134214783196
4073 2 18259989287854169930
4169191 19 18261109643781153109
4340502 62 15936410026834461362
44249763 50 17631712980755117466
5104073 3 17821725035554816826
54583773 228 18411973639256384573
5718773 13 9295287235568337584
5911458 16 18260554437136801660
59682541 52 17131839733840833694
6328613 192 18411419488704300681
636775 72 18268986665241534280
6438161 24 9655284922420624873
6898599 12 18271802471174599671
7808743 9 18409443717606026378
7970288 3 9727629497124621956

> <PUBCHEM_SHAPE_MULTIPOLES>
526.95
20.85
3.46
1.05
0.8
0.09
-0.07
-20.74
2.4
-0.83
0.32
1.5
-0.13
-1.68

> <PUBCHEM_SHAPE_SELFOVERLAP>
1120.873

> <PUBCHEM_SHAPE_VOLUME>
295.7

> <PUBCHEM_COORDINATE_TYPE>
2
5
10

$$$$
