11943308
  -OEChem-12032416153D

 49 51  0     1  0  0  0  0  0999 V2000
   -6.7474   -1.2293   -0.1213 F   0  0  0  0  0  0  0  0  0  0  0  0
   -4.9277   -2.3210   -0.5694 F   0  0  0  0  0  0  0  0  0  0  0  0
   -5.3241   -1.6623    1.4647 F   0  0  0  0  0  0  0  0  0  0  0  0
   -0.7358   -0.7113    0.9152 O   0  0  0  0  0  0  0  0  0  0  0  0
    3.7412   -1.4849    0.4833 N   0  0  2  0  0  0  0  0  0  0  0  0
    0.8752    0.9374    0.7202 N   0  0  0  0  0  0  0  0  0  0  0  0
   -1.3018    1.4277    0.1313 N   0  0  0  0  0  0  0  0  0  0  0  0
    4.6216    0.0024   -1.4609 C   0  0  2  0  0  0  0  0  0  0  0  0
    5.5724    0.0655   -0.2439 C   0  0  2  0  0  0  0  0  0  0  0  0
    2.6697   -0.5606    0.0235 C   0  0  2  0  0  0  0  0  0  0  0  0
    3.2089    0.4353   -1.0273 C   0  0  0  0  0  0  0  0  0  0  0  0
    4.9298   -0.7156    0.9244 C   0  0  0  0  0  0  0  0  0  0  0  0
    4.5354   -1.4762   -1.8853 C   0  0  0  0  0  0  0  0  0  0  0  0
    4.1395   -2.3309   -0.6681 C   0  0  0  0  0  0  0  0  0  0  0  0
    5.9349    1.4917    0.1642 C   0  0  0  0  0  0  0  0  0  0  0  0
    1.9801    0.1575    1.1856 C   0  0  0  0  0  0  0  0  0  0  0  0
    6.9482    1.5036    1.2923 C   0  0  0  0  0  0  0  0  0  0  0  0
   -0.4368    0.4416    0.6135 C   0  0  0  0  0  0  0  0  0  0  0  0
   -2.6910    1.3203   -0.1125 C   0  0  0  0  0  0  0  0  0  0  0  0
   -3.3338    0.1188    0.1375 C   0  0  0  0  0  0  0  0  0  0  0  0
   -3.3807    2.4201   -0.5963 C   0  0  0  0  0  0  0  0  0  0  0  0
   -4.7038    0.0143   -0.1031 C   0  0  0  0  0  0  0  0  0  0  0  0
   -4.7507    2.3155   -0.8368 C   0  0  0  0  0  0  0  0  0  0  0  0
   -5.4122    1.1126   -0.5903 C   0  0  0  0  0  0  0  0  0  0  0  0
   -5.4113   -1.2721    0.1597 C   0  0  0  0  0  0  0  0  0  0  0  0
    4.9845    0.6210   -2.2883 H   0  0  0  0  0  0  0  0  0  0  0  0
    6.5046   -0.4449   -0.5270 H   0  0  0  0  0  0  0  0  0  0  0  0
    1.8952   -1.1728   -0.4623 H   0  0  0  0  0  0  0  0  0  0  0  0
    2.5434    0.4366   -1.9000 H   0  0  0  0  0  0  0  0  0  0  0  0
    3.2316    1.4629   -0.6499 H   0  0  0  0  0  0  0  0  0  0  0  0
    4.6503   -0.0633    1.7579 H   0  0  0  0  0  0  0  0  0  0  0  0
    5.6687   -1.4105    1.3449 H   0  0  0  0  0  0  0  0  0  0  0  0
    3.7952   -1.5937   -2.6859 H   0  0  0  0  0  0  0  0  0  0  0  0
    5.4993   -1.8166   -2.2813 H   0  0  0  0  0  0  0  0  0  0  0  0
    3.3182   -3.0063   -0.9378 H   0  0  0  0  0  0  0  0  0  0  0  0
    4.9721   -2.9843   -0.3778 H   0  0  0  0  0  0  0  0  0  0  0  0
    6.3570    2.0216   -0.6981 H   0  0  0  0  0  0  0  0  0  0  0  0
    5.0501    2.0537    0.4818 H   0  0  0  0  0  0  0  0  0  0  0  0
    1.6198   -0.5697    1.9223 H   0  0  0  0  0  0  0  0  0  0  0  0
    2.6557    0.8485    1.6994 H   0  0  0  0  0  0  0  0  0  0  0  0
    6.5442    1.0884    2.2198 H   0  0  0  0  0  0  0  0  0  0  0  0
    7.8457    0.9369    1.0238 H   0  0  0  0  0  0  0  0  0  0  0  0
    7.2564    2.5329    1.5043 H   0  0  0  0  0  0  0  0  0  0  0  0
    1.0479    1.9006    0.4493 H   0  0  0  0  0  0  0  0  0  0  0  0
   -0.8893    2.3348   -0.0717 H   0  0  0  0  0  0  0  0  0  0  0  0
   -2.8469   -0.7688    0.5140 H   0  0  0  0  0  0  0  0  0  0  0  0
   -2.8753    3.3618   -0.7918 H   0  0  0  0  0  0  0  0  0  0  0  0
   -5.3022    3.1709   -1.2161 H   0  0  0  0  0  0  0  0  0  0  0  0
   -6.4795    1.0507   -0.7840 H   0  0  0  0  0  0  0  0  0  0  0  0
  1 25  1  0  0  0  0
  2 25  1  0  0  0  0
  3 25  1  0  0  0  0
  4 18  2  0  0  0  0
  5 10  1  0  0  0  0
  5 12  1  0  0  0  0
  5 14  1  0  0  0  0
  6 16  1  0  0  0  0
  6 18  1  0  0  0  0
  6 44  1  0  0  0  0
  7 18  1  0  0  0  0
  7 19  1  0  0  0  0
  7 45  1  0  0  0  0
  8  9  1  0  0  0  0
  8 11  1  0  0  0  0
  8 13  1  0  0  0  0
  8 26  1  0  0  0  0
  9 12  1  0  0  0  0
  9 15  1  0  0  0  0
  9 27  1  0  0  0  0
 10 11  1  0  0  0  0
 10 16  1  0  0  0  0
 10 28  1  0  0  0  0
 11 29  1  0  0  0  0
 11 30  1  0  0  0  0
 12 31  1  0  0  0  0
 12 32  1  0  0  0  0
 13 14  1  0  0  0  0
 13 33  1  0  0  0  0
 13 34  1  0  0  0  0
 14 35  1  0  0  0  0
 14 36  1  0  0  0  0
 15 17  1  0  0  0  0
 15 37  1  0  0  0  0
 15 38  1  0  0  0  0
 16 39  1  0  0  0  0
 16 40  1  0  0  0  0
 17 41  1  0  0  0  0
 17 42  1  0  0  0  0
 17 43  1  0  0  0  0
 19 20  1  0  0  0  0
 19 21  2  0  0  0  0
 20 22  2  0  0  0  0
 20 46  1  0  0  0  0
 21 23  1  0  0  0  0
 21 47  1  0  0  0  0
 22 24  1  0  0  0  0
 22 25  1  0  0  0  0
 23 24  2  0  0  0  0
 23 48  1  0  0  0  0
 24 49  1  0  0  0  0
M  END
> <PUBCHEM_COMPOUND_CID>
11943308

> <PUBCHEM_CONFORMER_RMSD>
0.8

> <PUBCHEM_CONFORMER_DIVERSEORDER>
1
64
5
56
22
45
61
43
65
13
35
18
60
10
55
36
63
17
62
44
50
14
30
52
59
49
4
57
39
37
66
16
47
42
46
29
51
11
68
20
28
38
32
40
53
6
2
15
19
27
31
54
48
67
41
12
21
7
34
26
58
9
3
24
8
33
25
23

> <PUBCHEM_MMFF94_PARTIAL_CHARGES>
25
1 -0.34
10 0.27
12 0.27
14 0.27
16 0.3
18 0.69
19 0.12
2 -0.34
20 -0.15
21 -0.15
22 -0.14
23 -0.15
24 -0.15
25 1.16
3 -0.34
4 -0.57
44 0.37
45 0.37
46 0.15
47 0.15
48 0.15
49 0.15
5 -0.81
6 -0.73
7 -0.55

> <PUBCHEM_EFFECTIVE_ROTOR_COUNT>
8.2

> <PUBCHEM_PHARMACOPHORE_FEATURES>
7
1 17 hydrophobe
1 4 acceptor
1 5 cation
1 6 donor
1 7 donor
6 19 20 21 22 23 24 rings
8 5 8 9 10 11 12 13 14 rings

> <PUBCHEM_HEAVY_ATOM_COUNT>
25

> <PUBCHEM_ATOM_DEF_STEREO_COUNT>
3

> <PUBCHEM_ATOM_UDEF_STEREO_COUNT>
0

> <PUBCHEM_BOND_DEF_STEREO_COUNT>
0

> <PUBCHEM_BOND_UDEF_STEREO_COUNT>
0

> <PUBCHEM_ISOTOPIC_ATOM_COUNT>
0

> <PUBCHEM_COMPONENT_COUNT>
1

> <PUBCHEM_CACTVS_TAUTO_COUNT>
3

> <PUBCHEM_CONFORMER_ID>
00B63D8C00000001

> <PUBCHEM_MMFF94_ENERGY>
57.1967

> <PUBCHEM_FEATURE_SELFOVERLAP>
35.569

> <PUBCHEM_SHAPE_FINGERPRINT>
10299344 5 13470692555475898908
10595046 47 18187647985614350732
10763959 59 11169913883776564206
10835480 77 18342168934434790240
11089746 13 15068620504634903668
11135609 149 15938630950461260354
11524674 6 17060618902648980343
12236239 1 17749387044513087120
12616971 3 16153715284239196413
12730499 353 17917710215285470616
13073987 5 18334573516878604104
13150687 139 16630247005228486452
14251718 22 18410573989620706208
14251732 16 18411133667046561296
14251758 9 9583523105130771224
14347332 77 18408604773444463333
14461889 52 18411414038506554834
14528608 73 17676493821627480436
14840074 17 15769774645656529333
15183329 4 17022905644260775638
15250474 111 17822561725538960067
15461852 350 18333454249044831418
15537594 2 16702295750493951308
1577012 14 17022910034044523516
17844677 252 18412547608798174545
1813 80 15626220199915565168
18335252 98 18342460365187390874
21054139 6 17676483968904191946
21623969 137 17561085791215514262
21774942 28 14997104905167772287
22061861 79 17917710154217048837
22149856 69 18200891611908501963
2303208 19 18131356288780605679
23081809 10 17167867435089508580
23559900 14 18410845578105493137
239999 70 18059576837632005486
2838139 119 12685083805011651135
3004659 81 18261956220389374346
314194 84 16845286112320262244
34797466 226 18273218594943399260
351380 3 14908177530263595164
394071 54 15913028959646709264
4073 2 18334296456996424569
4325135 7 18408882971055113380
4340502 62 18272087215185437270
437795 51 16988275512590935944
5104073 3 18338800005226749032
5109719 28 18269835488249878232
513532 50 18188773847837340914
7237137 82 18260264132070807533
7495541 125 18272086110719719104

> <PUBCHEM_SHAPE_MULTIPOLES>
471.85
19.25
2.3
1.28
4.18
0.19
-0.16
0.85
-0.42
1.46
-0.3
-1.36
0.16
2.26

> <PUBCHEM_SHAPE_SELFOVERLAP>
996.438

> <PUBCHEM_SHAPE_VOLUME>
265.2

> <PUBCHEM_COORDINATE_TYPE>
2
5
10

$$$$
