75367644
  -OEChem-12032416403D

 44 45  0     1  0  0  0  0  0999 V2000
    4.7776   -1.5739    1.4251 F   0  0  0  0  0  0  0  0  0  0  0  0
    4.4100   -2.1893   -0.6217 F   0  0  0  0  0  0  0  0  0  0  0  0
    5.7937   -0.5634   -0.2102 F   0  0  0  0  0  0  0  0  0  0  0  0
   -3.0287    2.7497    1.2902 O   0  0  0  0  0  0  0  0  0  0  0  0
    0.3423    2.5301   -0.1619 O   0  0  0  0  0  0  0  0  0  0  0  0
   -1.3363   -1.3621   -1.4392 O   0  0  0  0  0  0  0  0  0  0  0  0
   -2.6218    0.4249   -0.6705 N   0  0  0  0  0  0  0  0  0  0  0  0
   -3.4057   -1.8053   -0.5355 N   0  0  0  0  0  0  0  0  0  0  0  0
    1.1295    0.4065    0.3354 N   0  0  0  0  0  0  0  0  0  0  0  0
   -0.9334    2.0187    0.2209 C   0  0  2  0  0  0  0  0  0  0  0  0
   -1.5783    1.3943   -1.0162 C   0  0  0  0  0  0  0  0  0  0  0  0
   -3.8646    0.9114   -0.0515 C   0  0  0  0  0  0  0  0  0  0  0  0
   -1.7550    3.1612    0.8122 C   0  0  0  0  0  0  0  0  0  0  0  0
   -3.9419    2.4014    0.2547 C   0  0  0  0  0  0  0  0  0  0  0  0
   -2.3773   -0.9477   -0.9201 C   0  0  0  0  0  0  0  0  0  0  0  0
   -3.3480   -3.2409   -0.7074 C   0  0  0  0  0  0  0  0  0  0  0  0
    1.3969    1.6616   -0.0901 C   0  0  0  0  0  0  0  0  0  0  0  0
   -2.7402   -3.9461    0.4991 C   0  0  0  0  0  0  0  0  0  0  0  0
    2.6589    2.1060   -0.4502 C   0  0  0  0  0  0  0  0  0  0  0  0
   -3.5378   -3.7205    1.7758 C   0  0  0  0  0  0  0  0  0  0  0  0
    3.7144    1.2044   -0.3686 C   0  0  0  0  0  0  0  0  0  0  0  0
    3.4789   -0.0957    0.0648 C   0  0  0  0  0  0  0  0  0  0  0  0
    2.1803   -0.4417    0.4019 C   0  0  0  0  0  0  0  0  0  0  0  0
    4.5866   -1.0834    0.1630 C   0  0  0  0  0  0  0  0  0  0  0  0
   -0.8554    1.2691    1.0203 H   0  0  0  0  0  0  0  0  0  0  0  0
   -2.0108    2.1563   -1.6754 H   0  0  0  0  0  0  0  0  0  0  0  0
   -0.8167    0.9014   -1.6302 H   0  0  0  0  0  0  0  0  0  0  0  0
   -3.9907    0.3566    0.8861 H   0  0  0  0  0  0  0  0  0  0  0  0
   -4.6862    0.6375   -0.7232 H   0  0  0  0  0  0  0  0  0  0  0  0
   -1.2105    3.5834    1.6652 H   0  0  0  0  0  0  0  0  0  0  0  0
   -1.8646    3.9879    0.0985 H   0  0  0  0  0  0  0  0  0  0  0  0
   -3.8101    3.0297   -0.6333 H   0  0  0  0  0  0  0  0  0  0  0  0
   -4.9437    2.6160    0.6431 H   0  0  0  0  0  0  0  0  0  0  0  0
   -4.2550   -1.4358   -0.1262 H   0  0  0  0  0  0  0  0  0  0  0  0
   -2.7617   -3.4704   -1.6037 H   0  0  0  0  0  0  0  0  0  0  0  0
   -4.3726   -3.5882   -0.8784 H   0  0  0  0  0  0  0  0  0  0  0  0
   -2.6905   -5.0218    0.2952 H   0  0  0  0  0  0  0  0  0  0  0  0
   -1.7121   -3.5992    0.6566 H   0  0  0  0  0  0  0  0  0  0  0  0
    2.8257    3.1236   -0.7863 H   0  0  0  0  0  0  0  0  0  0  0  0
   -3.5417   -2.6650    2.0650 H   0  0  0  0  0  0  0  0  0  0  0  0
   -4.5748   -4.0491    1.6535 H   0  0  0  0  0  0  0  0  0  0  0  0
   -3.0970   -4.2905    2.5999 H   0  0  0  0  0  0  0  0  0  0  0  0
    4.7120    1.5323   -0.6464 H   0  0  0  0  0  0  0  0  0  0  0  0
    1.9351   -1.4417    0.7461 H   0  0  0  0  0  0  0  0  0  0  0  0
  1 24  1  0  0  0  0
  2 24  1  0  0  0  0
  3 24  1  0  0  0  0
  4 13  1  0  0  0  0
  4 14  1  0  0  0  0
  5 10  1  0  0  0  0
  5 17  1  0  0  0  0
  6 15  2  0  0  0  0
  7 11  1  0  0  0  0
  7 12  1  0  0  0  0
  7 15  1  0  0  0  0
  8 15  1  0  0  0  0
  8 16  1  0  0  0  0
  8 34  1  0  0  0  0
  9 17  2  0  0  0  0
  9 23  1  0  0  0  0
 10 11  1  0  0  0  0
 10 13  1  0  0  0  0
 10 25  1  0  0  0  0
 11 26  1  0  0  0  0
 11 27  1  0  0  0  0
 12 14  1  0  0  0  0
 12 28  1  0  0  0  0
 12 29  1  0  0  0  0
 13 30  1  0  0  0  0
 13 31  1  0  0  0  0
 14 32  1  0  0  0  0
 14 33  1  0  0  0  0
 16 18  1  0  0  0  0
 16 35  1  0  0  0  0
 16 36  1  0  0  0  0
 17 19  1  0  0  0  0
 18 20  1  0  0  0  0
 18 37  1  0  0  0  0
 18 38  1  0  0  0  0
 19 21  2  0  0  0  0
 19 39  1  0  0  0  0
 20 40  1  0  0  0  0
 20 41  1  0  0  0  0
 20 42  1  0  0  0  0
 21 22  1  0  0  0  0
 21 43  1  0  0  0  0
 22 23  2  0  0  0  0
 22 24  1  0  0  0  0
 23 44  1  0  0  0  0
M  END
> <PUBCHEM_COMPOUND_CID>
75367644

> <PUBCHEM_CONFORMER_RMSD>
1

> <PUBCHEM_CONFORMER_DIVERSEORDER>
1
3
142
118
156
84
121
128
68
149
44
151
144
76
134
110
107
78
132
64
153
2
119
123
159
140
89
19
81
26
9
10
136
138
143
92
105
5
100
127
147
157
34
83
31
124
116
51
50
39
82
126
43
108
137
23
30
135
145
18
111
141
152
42
160
150
90
45
24
4
104
60
125
29
93
86
99
41
65
148
120
16
62
109
158
61
47
7
98
80
102
48
131
38
122
63
59
85
130
146
53
57
113
13
87
8
139
33
6
49
129
72
52
106
97
46
12
133
21
94
103
154
77
28
115
95
32
55
40
14
54
117
25
155
79
36
112
71
70
96
17
27
11
114
88
35
58
67
101
69
66
56
74
22
73
15
20
91
37
75

> <PUBCHEM_MMFF94_PARTIAL_CHARGES>
26
1 -0.34
10 0.28
11 0.3
12 0.3
13 0.28
14 0.28
15 0.69
16 0.3
17 0.39
19 -0.15
2 -0.34
21 -0.15
22 -0.14
23 0.16
24 1.16
3 -0.34
34 0.37
39 0.15
4 -0.56
43 0.15
44 0.15
5 -0.36
6 -0.57
7 -0.66
8 -0.73
9 -0.62

> <PUBCHEM_EFFECTIVE_ROTOR_COUNT>
8.4

> <PUBCHEM_PHARMACOPHORE_FEATURES>
6
1 20 hydrophobe
1 4 acceptor
1 6 acceptor
1 8 donor
6 9 17 19 21 22 23 rings
7 4 7 10 11 12 13 14 rings

> <PUBCHEM_HEAVY_ATOM_COUNT>
24

> <PUBCHEM_ATOM_DEF_STEREO_COUNT>
1

> <PUBCHEM_ATOM_UDEF_STEREO_COUNT>
0

> <PUBCHEM_BOND_DEF_STEREO_COUNT>
0

> <PUBCHEM_BOND_UDEF_STEREO_COUNT>
0

> <PUBCHEM_ISOTOPIC_ATOM_COUNT>
0

> <PUBCHEM_COMPONENT_COUNT>
1

> <PUBCHEM_CACTVS_TAUTO_COUNT>
2

> <PUBCHEM_CONFORMER_ID>
047E04DC00000001

> <PUBCHEM_MMFF94_ENERGY>
50.707

> <PUBCHEM_FEATURE_SELFOVERLAP>
30.446

> <PUBCHEM_SHAPE_FINGERPRINT>
10616163 171 18343019986693944126
11014199 57 18336266846237095180
11036077 51 18340207389153780499
13140716 1 18342734152178033353
13631057 29 18196092368318437908
13911852 28 17978511159376282223
14844126 61 18201142330556119367
14866123 147 18411418410999922835
15042514 8 18413110559152242957
17492 89 18339922714210539846
1813 80 17751091215060110964
19141452 34 18339361855584587636
20775530 9 18190737729110288343
21315759 227 17971457748848583890
221490 88 18336827619079784756
23379529 103 18412833499349516278
23466295 7 18334301997842125667
23559900 14 18201145603748694424
23598288 3 18271809063917386589
3737641 26 17976552919970000059
463206 1 18190740830720436554
5104073 3 18341888619568183504
5309563 4 17835244828119615799
5385378 56 17405998358175608137
5486654 36 18335423495090913731
58807428 26 17912098157324069465

> <PUBCHEM_SHAPE_MULTIPOLES>
439.54
10.25
4.88
1.14
10.41
2.22
-0.18
6.61
-0.89
-6.14
-1.52
-0.78
0.49
-0.36

> <PUBCHEM_SHAPE_SELFOVERLAP>
904.633

> <PUBCHEM_SHAPE_VOLUME>
251.3

> <PUBCHEM_COORDINATE_TYPE>
2
5
10

$$$$
