51137536
  -OEChem-12032416203D

 53 57  0     1  0  0  0  0  0999 V2000
    1.8645   -1.2184    0.1955 O   0  0  0  0  0  0  0  0  0  0  0  0
   -6.4029    2.5777    0.8675 O   0  0  0  0  0  0  0  0  0  0  0  0
   -8.0924    0.9797    0.2351 O   0  0  0  0  0  0  0  0  0  0  0  0
   -2.1604   -1.0950   -0.2962 N   0  0  1  0  0  0  0  0  0  0  0  0
    2.0189   -3.4500    0.2204 N   0  0  0  0  0  0  0  0  0  0  0  0
    3.2990   -2.9341    0.1409 N   0  0  0  0  0  0  0  0  0  0  0  0
    7.0294    2.4574   -0.1480 N   0  0  0  0  0  0  0  0  0  0  0  0
   -0.2936   -2.3670    0.3336 C   0  0  1  0  0  0  0  0  0  0  0  0
   -0.8506   -1.6272    1.5623 C   0  0  0  0  0  0  0  0  0  0  0  0
   -0.9382   -1.6638   -0.8685 C   0  0  0  0  0  0  0  0  0  0  0  0
   -1.7493   -0.5375    0.9923 C   0  0  0  0  0  0  0  0  0  0  0  0
   -2.7673   -0.0964   -1.1638 C   0  0  0  0  0  0  0  0  0  0  0  0
    1.2146   -2.4131    0.2500 C   0  0  0  0  0  0  0  0  0  0  0  0
   -4.2065    0.1595   -0.8031 C   0  0  0  0  0  0  0  0  0  0  0  0
   -4.5510    1.3212   -0.1080 C   0  0  0  0  0  0  0  0  0  0  0  0
   -5.1922   -0.7729   -1.1719 C   0  0  0  0  0  0  0  0  0  0  0  0
    3.1605   -1.6290    0.1289 C   0  0  0  0  0  0  0  0  0  0  0  0
   -5.8827    1.5129    0.1981 C   0  0  0  0  0  0  0  0  0  0  0  0
   -6.5338   -0.5543   -0.8498 C   0  0  0  0  0  0  0  0  0  0  0  0
   -6.8475    0.6004   -0.1628 C   0  0  0  0  0  0  0  0  0  0  0  0
    4.1453   -0.5888    0.0583 C   0  0  0  0  0  0  0  0  0  0  0  0
   -7.8033    2.2332    0.8868 C   0  0  0  0  0  0  0  0  0  0  0  0
    5.4999   -0.9143   -0.0121 C   0  0  0  0  0  0  0  0  0  0  0  0
    3.7485    0.7485    0.0597 C   0  0  0  0  0  0  0  0  0  0  0  0
    6.0608    1.4346   -0.0795 C   0  0  0  0  0  0  0  0  0  0  0  0
    6.4576    0.0973   -0.0811 C   0  0  0  0  0  0  0  0  0  0  0  0
    4.7062    1.7602   -0.0092 C   0  0  0  0  0  0  0  0  0  0  0  0
    6.6273    3.8500   -0.1549 C   0  0  0  0  0  0  0  0  0  0  0  0
    8.4393    2.1293   -0.2204 C   0  0  0  0  0  0  0  0  0  0  0  0
   -0.6524   -3.4049    0.3734 H   0  0  0  0  0  0  0  0  0  0  0  0
   -1.4437   -2.3247    2.1671 H   0  0  0  0  0  0  0  0  0  0  0  0
   -0.0731   -1.2063    2.2085 H   0  0  0  0  0  0  0  0  0  0  0  0
   -1.1605   -2.3756   -1.6710 H   0  0  0  0  0  0  0  0  0  0  0  0
   -0.2860   -0.8805   -1.2767 H   0  0  0  0  0  0  0  0  0  0  0  0
   -1.1731    0.3892    0.8734 H   0  0  0  0  0  0  0  0  0  0  0  0
   -2.5966   -0.3407    1.6565 H   0  0  0  0  0  0  0  0  0  0  0  0
   -2.1937    0.8403   -1.1807 H   0  0  0  0  0  0  0  0  0  0  0  0
   -2.7612   -0.4537   -2.2035 H   0  0  0  0  0  0  0  0  0  0  0  0
   -3.8031    2.0501    0.1851 H   0  0  0  0  0  0  0  0  0  0  0  0
   -4.9188   -1.6754   -1.7133 H   0  0  0  0  0  0  0  0  0  0  0  0
   -7.2968   -1.2707   -1.1322 H   0  0  0  0  0  0  0  0  0  0  0  0
   -8.3671    3.0279    0.3849 H   0  0  0  0  0  0  0  0  0  0  0  0
   -8.1350    2.1712    1.9297 H   0  0  0  0  0  0  0  0  0  0  0  0
    5.8313   -1.9500   -0.0147 H   0  0  0  0  0  0  0  0  0  0  0  0
    2.7028    1.0408    0.1133 H   0  0  0  0  0  0  0  0  0  0  0  0
    7.4981   -0.2073   -0.1344 H   0  0  0  0  0  0  0  0  0  0  0  0
    4.3474    2.7847   -0.0047 H   0  0  0  0  0  0  0  0  0  0  0  0
    5.9978    4.0761   -1.0228 H   0  0  0  0  0  0  0  0  0  0  0  0
    6.0929    4.1122    0.7651 H   0  0  0  0  0  0  0  0  0  0  0  0
    7.4917    4.5207   -0.2143 H   0  0  0  0  0  0  0  0  0  0  0  0
    8.7622    1.5717    0.6659 H   0  0  0  0  0  0  0  0  0  0  0  0
    8.6650    1.5492   -1.1221 H   0  0  0  0  0  0  0  0  0  0  0  0
    9.0627    3.0294   -0.2651 H   0  0  0  0  0  0  0  0  0  0  0  0
  1 13  1  0  0  0  0
  1 17  1  0  0  0  0
  2 18  1  0  0  0  0
  2 22  1  0  0  0  0
  3 20  1  0  0  0  0
  3 22  1  0  0  0  0
  4 10  1  0  0  0  0
  4 11  1  0  0  0  0
  4 12  1  0  0  0  0
  5  6  1  0  0  0  0
  5 13  2  0  0  0  0
  6 17  2  0  0  0  0
  7 25  1  0  0  0  0
  7 28  1  0  0  0  0
  7 29  1  0  0  0  0
  8  9  1  0  0  0  0
  8 10  1  0  0  0  0
  8 13  1  0  0  0  0
  8 30  1  0  0  0  0
  9 11  1  0  0  0  0
  9 31  1  0  0  0  0
  9 32  1  0  0  0  0
 10 33  1  0  0  0  0
 10 34  1  0  0  0  0
 11 35  1  0  0  0  0
 11 36  1  0  0  0  0
 12 14  1  0  0  0  0
 12 37  1  0  0  0  0
 12 38  1  0  0  0  0
 14 15  2  0  0  0  0
 14 16  1  0  0  0  0
 15 18  1  0  0  0  0
 15 39  1  0  0  0  0
 16 19  2  0  0  0  0
 16 40  1  0  0  0  0
 17 21  1  0  0  0  0
 18 20  2  0  0  0  0
 19 20  1  0  0  0  0
 19 41  1  0  0  0  0
 21 23  2  0  0  0  0
 21 24  1  0  0  0  0
 22 42  1  0  0  0  0
 22 43  1  0  0  0  0
 23 26  1  0  0  0  0
 23 44  1  0  0  0  0
 24 27  2  0  0  0  0
 24 45  1  0  0  0  0
 25 26  2  0  0  0  0
 25 27  1  0  0  0  0
 26 46  1  0  0  0  0
 27 47  1  0  0  0  0
 28 48  1  0  0  0  0
 28 49  1  0  0  0  0
 28 50  1  0  0  0  0
 29 51  1  0  0  0  0
 29 52  1  0  0  0  0
 29 53  1  0  0  0  0
M  END
> <PUBCHEM_COMPOUND_CID>
51137536

> <PUBCHEM_CONFORMER_RMSD>
0.8

> <PUBCHEM_CONFORMER_DIVERSEORDER>
1
87
52
46
39
175
85
75
92
126
47
45
80
158
35
127
104
40
73
44
99
31
152
81
63
90
142
74
150
21
84
86
140
17
155
55
133
153
96
125
156
101
135
138
94
51
97
59
106
33
5
134
171
82
41
160
20
110
11
172
163
60
113
137
36
57
42
10
49
119
16
154
123
162
121
22
174
26
168
70
91
27
65
115
136
176
2
66
8
93
144
67
146
112
111
50
116
83
34
23
43
64
30
108
118
29
177
143
131
4
71
19
141
37
122
3
54
24
167
130
124
14
6
32
170
157
173
69
89
25
128
9
7
12
98
149
165
169
76
61
132
78
164
13
159
151
178
129
62
166
139
68
72
38
105
161
109
53
18
107
56
79
95
120
28
114
77
88
117
58
179
100
15
48
147
103
145
148
102

> <PUBCHEM_MMFF94_PARTIAL_CHARGES>
35
1 -0.28
10 0.27
11 0.27
12 0.41
13 0.3
14 -0.14
15 -0.15
16 -0.15
17 0.43
18 0.08
19 -0.15
2 -0.36
20 0.08
21 0.05
22 0.56
23 -0.15
24 -0.15
25 0.1
26 -0.15
27 -0.15
28 0.37
29 0.37
3 -0.36
39 0.15
4 -0.81
40 0.15
41 0.15
44 0.15
45 0.15
46 0.15
47 0.15
5 -0.34
6 -0.34
7 -0.84
8 0.18

> <PUBCHEM_EFFECTIVE_ROTOR_COUNT>
6.6

> <PUBCHEM_PHARMACOPHORE_FEATURES>
9
1 2 acceptor
1 3 acceptor
1 4 cation
1 7 cation
5 1 5 6 13 17 rings
5 2 3 18 20 22 rings
5 4 8 9 10 11 rings
6 14 15 16 18 19 20 rings
6 21 23 24 25 26 27 rings

> <PUBCHEM_HEAVY_ATOM_COUNT>
29

> <PUBCHEM_ATOM_DEF_STEREO_COUNT>
1

> <PUBCHEM_ATOM_UDEF_STEREO_COUNT>
0

> <PUBCHEM_BOND_DEF_STEREO_COUNT>
0

> <PUBCHEM_BOND_UDEF_STEREO_COUNT>
0

> <PUBCHEM_ISOTOPIC_ATOM_COUNT>
0

> <PUBCHEM_COMPONENT_COUNT>
1

> <PUBCHEM_CACTVS_TAUTO_COUNT>
1

> <PUBCHEM_CONFORMER_ID>
030C4C0000000001

> <PUBCHEM_MMFF94_ENERGY>
79.7572

> <PUBCHEM_FEATURE_SELFOVERLAP>
45.828

> <PUBCHEM_SHAPE_FINGERPRINT>
10 15 17603866706235882883
10074138 170 16226340321130542891
10319688 67 16298390179884475345
10411042 1 17833266416756567322
10595046 47 18341607093321156439
10673678 19 18343024375929389975
10838868 160 18341884221279559664
11135609 187 18412543223525756945
11273773 42 18341889723248008989
11408170 253 17558837191918252785
11828042 207 17702097170105931144
1200032 147 18260267469407894970
12035758 1 16732706047479650263
12522641 24 17460307751033154971
12539765 74 18130512958930485151
12760667 363 10519991478087038223
12821665 9 18411978101046773287
12895837 130 18270118049087591942
13248334 5 18265895749093618970
13540713 4 18263664964444039618
1361 87 13326568635404288844
13690498 29 17416391272946465783
13911852 28 9511462225316592435
14251764 75 18410012156590708534
14394314 77 18412267212328338089
14565420 104 18113898234676127282
14617042 71 18411142412027718017
14849402 71 18411138056777821113
14931854 50 17917722322624614288
15064981 194 18192726750372094574
15183329 4 17275106124235388785
15276724 80 18266456517165886445
15510800 12 11671778303794755892
15519825 34 15719965764117125289
15685185 35 18337956817289986728
1577012 14 18342452647041275102
15840311 113 18338240341550958973
16126227 98 18410574024085926623
16989713 51 16772937260240880967
16994733 274 18412258416023352017
17899979 129 18342743996860365150
18393751 57 17822009813340141883
19302320 297 18187082888905768932
19438510 23 18114460149831989602
20691028 202 18265613376536672100
20715895 44 18409729604199698872
21033648 29 17749395897063637682
21298829 104 18410857685211949764
21304303 64 18334293175968880101
21521721 280 18335704901986763219
21585481 104 17346332448706887604
21585482 111 18335419006988064901
21641784 216 16271647772411901091
23522609 53 17774167791189707777
23569914 152 18057071089883414764
23729398 52 18191872215665188202
24771293 8 18260266364894684733
24893989 43 11676037756396965664
25269216 80 17059764637774349375
2747138 104 17458922435691924305
2748736 6 18410006676413197872
2838139 119 18261946375933870542
306946 40 17168412789511537061
34797466 226 18129946672478350031
3633792 109 18272093791060137114
3711267 37 18129954386255775937
393628 194 18263082291773623836
397830 11 18187096044337544211
4073 2 18334297578479520987
4093350 32 17846500314421090110
4107672 100 17346311652849709775
4169191 19 18410569570722046109
4339292 15 12679192592315266588
4366758 26 18412833490143156520
437815 12 11167940268857737779
445580 126 18410565176769762874
474113 269 8070029939750502953
5080951 261 16588307237682291339
5104073 3 17894345588188965026
5265222 85 18131631210249906447
5385378 56 18260263028306670170
543368 44 18410571778482545791
5718773 13 9511466619405512492
57303763 176 18058457509278482488
5758199 1 18407760339344018111
5776283 40 18270961374939600464
58083652 198 18116417169113462311
5911458 16 18201442454491845409
59682541 35 17749114396437857937
59682541 52 17274834519631601526
6328613 192 18272087138007998713
6691757 9 15502653862045035675
9689198 14 18343589538017328623
9980921 177 18188753013108919824

> <PUBCHEM_SHAPE_MULTIPOLES>
559.27
25.71
3.68
0.97
5.01
0.46
-0.05
26.81
0.7
-4.74
-0.52
1.2
-0.14
-1.8

> <PUBCHEM_SHAPE_SELFOVERLAP>
1228.896

> <PUBCHEM_SHAPE_VOLUME>
306

> <PUBCHEM_COORDINATE_TYPE>
2
5
10

$$$$
