11941654
  -OEChem-12032416253D

 59 63  0     1  0  0  0  0  0999 V2000
   -1.0001   -3.5220    0.0454 O   0  0  0  0  0  0  0  0  0  0  0  0
   -1.7288   -1.2607    2.0684 O   0  0  0  0  0  0  0  0  0  0  0  0
    3.0507   -2.0435    0.3311 O   0  0  0  0  0  0  0  0  0  0  0  0
   -5.4721    1.4502    1.3751 O   0  0  0  0  0  0  0  0  0  0  0  0
    7.3786   -0.9578   -1.1996 O   0  0  0  0  0  0  0  0  0  0  0  0
    6.5989    3.5644    0.1132 O   0  0  0  0  0  0  0  0  0  0  0  0
   -3.2358   -1.7919   -1.2143 N   0  0  0  0  0  0  0  0  0  0  0  0
    1.2660   -0.9394    1.3013 N   0  0  0  0  0  0  0  0  0  0  0  0
    3.1596    0.2561    0.7902 N   0  0  0  0  0  0  0  0  0  0  0  0
   -4.5248    0.0280   -0.5661 N   0  0  0  0  0  0  0  0  0  0  0  0
   -4.2240   -0.5266   -2.8917 N   0  0  0  0  0  0  0  0  0  0  0  0
   -1.7357   -1.3367    0.6328 C   0  0  1  0  0  0  0  0  0  0  0  0
   -0.5392   -2.1720    0.2208 C   0  0  1  0  0  0  0  0  0  0  0  0
   -2.9258   -2.1355    0.1562 C   0  0  2  0  0  0  0  0  0  0  0  0
    0.3955   -2.0853    1.4056 C   0  0  2  0  0  0  0  0  0  0  0  0
   -2.4218   -3.5647    0.2380 C   0  0  0  0  0  0  0  0  0  0  0  0
   -0.5683   -1.9402    2.5699 C   0  0  0  0  0  0  0  0  0  0  0  0
   -4.0295   -0.7167   -1.5728 C   0  0  0  0  0  0  0  0  0  0  0  0
    2.5558   -1.0040    0.7606 C   0  0  0  0  0  0  0  0  0  0  0  0
   -5.2932    1.0677   -0.9517 C   0  0  0  0  0  0  0  0  0  0  0  0
    4.4528    0.6098    0.3397 C   0  0  0  0  0  0  0  0  0  0  0  0
   -5.0017    0.5302   -3.2061 C   0  0  0  0  0  0  0  0  0  0  0  0
   -5.5685    1.3703   -2.2696 C   0  0  0  0  0  0  0  0  0  0  0  0
   -5.8205    1.8598    0.1274 C   0  0  0  0  0  0  0  0  0  0  0  0
    4.8932    1.9287    0.4500 C   0  0  0  0  0  0  0  0  0  0  0  0
    5.2880   -0.3603   -0.2144 C   0  0  0  0  0  0  0  0  0  0  0  0
    6.5634   -0.0116   -0.6583 C   0  0  0  0  0  0  0  0  0  0  0  0
    6.1687    2.2775    0.0059 C   0  0  0  0  0  0  0  0  0  0  0  0
   -6.6245    2.9741    0.1916 C   0  0  0  0  0  0  0  0  0  0  0  0
    7.0038    1.3073   -0.5482 C   0  0  0  0  0  0  0  0  0  0  0  0
   -6.7801    3.2679    1.5672 C   0  0  0  0  0  0  0  0  0  0  0  0
   -6.0600    2.3124    2.2457 C   0  0  0  0  0  0  0  0  0  0  0  0
    6.8654   -2.2864   -1.2827 C   0  0  0  0  0  0  0  0  0  0  0  0
    7.9139    3.8510   -0.3606 C   0  0  0  0  0  0  0  0  0  0  0  0
   -1.6867   -0.3108    0.2540 H   0  0  0  0  0  0  0  0  0  0  0  0
   -0.0981   -1.8499   -0.7281 H   0  0  0  0  0  0  0  0  0  0  0  0
   -3.8115   -2.0318    0.7935 H   0  0  0  0  0  0  0  0  0  0  0  0
    1.0103   -2.9836    1.5266 H   0  0  0  0  0  0  0  0  0  0  0  0
   -2.8673   -4.2368   -0.5020 H   0  0  0  0  0  0  0  0  0  0  0  0
   -2.6002   -3.9853    1.2338 H   0  0  0  0  0  0  0  0  0  0  0  0
   -0.1583   -1.3817    3.4168 H   0  0  0  0  0  0  0  0  0  0  0  0
   -0.8973   -2.9210    2.9305 H   0  0  0  0  0  0  0  0  0  0  0  0
   -2.8174   -2.3246   -1.9684 H   0  0  0  0  0  0  0  0  0  0  0  0
    0.9031   -0.0305    1.5728 H   0  0  0  0  0  0  0  0  0  0  0  0
    2.6099    1.0164    1.1825 H   0  0  0  0  0  0  0  0  0  0  0  0
   -5.1618    0.6882   -4.2673 H   0  0  0  0  0  0  0  0  0  0  0  0
   -6.1855    2.2052   -2.5765 H   0  0  0  0  0  0  0  0  0  0  0  0
    4.2477    2.6904    0.8811 H   0  0  0  0  0  0  0  0  0  0  0  0
    4.9547   -1.3780   -0.3024 H   0  0  0  0  0  0  0  0  0  0  0  0
   -7.0519    3.5165   -0.6400 H   0  0  0  0  0  0  0  0  0  0  0  0
    8.0049    1.5155   -0.9112 H   0  0  0  0  0  0  0  0  0  0  0  0
   -7.3462    4.0751    2.0089 H   0  0  0  0  0  0  0  0  0  0  0  0
   -5.8756    2.1179    3.2920 H   0  0  0  0  0  0  0  0  0  0  0  0
    6.6687   -2.7070   -0.2906 H   0  0  0  0  0  0  0  0  0  0  0  0
    5.9936   -2.3429   -1.9436 H   0  0  0  0  0  0  0  0  0  0  0  0
    7.6469   -2.9041   -1.7379 H   0  0  0  0  0  0  0  0  0  0  0  0
    8.6750    3.3109    0.2127 H   0  0  0  0  0  0  0  0  0  0  0  0
    8.0012    3.6737   -1.4379 H   0  0  0  0  0  0  0  0  0  0  0  0
    8.0901    4.9193   -0.1976 H   0  0  0  0  0  0  0  0  0  0  0  0
  1 13  1  0  0  0  0
  1 16  1  0  0  0  0
  2 12  1  0  0  0  0
  2 17  1  0  0  0  0
  3 19  2  0  0  0  0
  4 24  1  0  0  0  0
  4 32  1  0  0  0  0
  5 27  1  0  0  0  0
  5 33  1  0  0  0  0
  6 28  1  0  0  0  0
  6 34  1  0  0  0  0
  7 14  1  0  0  0  0
  7 18  1  0  0  0  0
  7 43  1  0  0  0  0
  8 15  1  0  0  0  0
  8 19  1  0  0  0  0
  8 44  1  0  0  0  0
  9 19  1  0  0  0  0
  9 21  1  0  0  0  0
  9 45  1  0  0  0  0
 10 18  1  0  0  0  0
 10 20  2  0  0  0  0
 11 18  2  0  0  0  0
 11 22  1  0  0  0  0
 12 13  1  0  0  0  0
 12 14  1  0  0  0  0
 12 35  1  0  0  0  0
 13 15  1  0  0  0  0
 13 36  1  0  0  0  0
 14 16  1  0  0  0  0
 14 37  1  0  0  0  0
 15 17  1  0  0  0  0
 15 38  1  0  0  0  0
 16 39  1  0  0  0  0
 16 40  1  0  0  0  0
 17 41  1  0  0  0  0
 17 42  1  0  0  0  0
 20 23  1  0  0  0  0
 20 24  1  0  0  0  0
 21 25  2  0  0  0  0
 21 26  1  0  0  0  0
 22 23  2  0  0  0  0
 22 46  1  0  0  0  0
 23 47  1  0  0  0  0
 24 29  2  0  0  0  0
 25 28  1  0  0  0  0
 25 48  1  0  0  0  0
 26 27  2  0  0  0  0
 26 49  1  0  0  0  0
 27 30  1  0  0  0  0
 28 30  2  0  0  0  0
 29 31  1  0  0  0  0
 29 50  1  0  0  0  0
 30 51  1  0  0  0  0
 31 32  2  0  0  0  0
 31 52  1  0  0  0  0
 32 53  1  0  0  0  0
 33 54  1  0  0  0  0
 33 55  1  0  0  0  0
 33 56  1  0  0  0  0
 34 57  1  0  0  0  0
 34 58  1  0  0  0  0
 34 59  1  0  0  0  0
M  END
> <PUBCHEM_COMPOUND_CID>
11941654

> <PUBCHEM_CONFORMER_RMSD>
1

> <PUBCHEM_CONFORMER_DIVERSEORDER>
1
20
171
196
133
53
189
63
81
122
112
57
127
193
51
149
152
177
65
30
34
100
62
184
214
188
194
153
21
82
201
179
105
170
70
49
71
168
137
111
208
131
138
147
89
162
86
75
45
46
74
77
69
192
67
42
209
142
38
207
93
99
154
185
76
103
164
151
24
72
124
180
40
7
102
183
44
159
141
41
35
55
161
204
175
84
78
213
95
61
160
68
181
195
190
186
203
97
108
126
33
155
121
167
212
143
88
174
17
205
217
50
66
43
118
92
58
25
52
85
31
28
136
47
145
79
10
135
48
165
16
210
15
202
200
191
37
123
144
129
169
27
176
80
132
197
199
18
119
12
113
94
60
5
87
148
117
150
14
110
8
64
182
3
130
173
215
146
158
216
139
9
125
109
120
115
178
36
101
90
206
104
11
166
91
107
106
128
19
134
39
6
211
140
83
54
163
172
26
98
59
116
32
73
96
22
156
56
29
157
13
187
2
198
23
114
4

> <PUBCHEM_MMFF94_PARTIAL_CHARGES>
45
1 -0.56
10 -0.62
11 -0.62
12 0.28
13 0.28
14 0.37
15 0.3
16 0.28
17 0.28
18 0.72
19 0.69
2 -0.56
20 0.36
21 0.12
22 0.16
23 -0.15
24 0.09
25 -0.15
26 -0.15
27 0.08
28 0.08
29 -0.15
3 -0.57
30 -0.15
31 -0.15
32 -0.01
33 0.28
34 0.28
4 -0.28
43 0.4
44 0.37
45 0.37
46 0.15
47 0.15
48 0.15
49 0.15
5 -0.36
50 0.15
51 0.15
52 0.15
53 0.15
6 -0.36
7 -0.87
8 -0.73
9 -0.55

> <PUBCHEM_EFFECTIVE_ROTOR_COUNT>
10.2

> <PUBCHEM_PHARMACOPHORE_FEATURES>
16
1 1 acceptor
1 10 acceptor
1 2 acceptor
1 3 acceptor
1 4 acceptor
1 5 acceptor
1 6 acceptor
1 7 donor
1 8 donor
1 9 donor
4 7 10 11 18 cation
5 1 12 13 14 16 rings
5 2 12 13 15 17 rings
5 4 24 29 31 32 rings
6 10 11 18 20 22 23 rings
6 21 25 26 27 28 30 rings

> <PUBCHEM_HEAVY_ATOM_COUNT>
34

> <PUBCHEM_ATOM_DEF_STEREO_COUNT>
4

> <PUBCHEM_ATOM_UDEF_STEREO_COUNT>
0

> <PUBCHEM_BOND_DEF_STEREO_COUNT>
0

> <PUBCHEM_BOND_UDEF_STEREO_COUNT>
0

> <PUBCHEM_ISOTOPIC_ATOM_COUNT>
0

> <PUBCHEM_COMPONENT_COUNT>
1

> <PUBCHEM_CACTVS_TAUTO_COUNT>
9

> <PUBCHEM_CONFORMER_ID>
00B6371600000001

> <PUBCHEM_MMFF94_ENERGY>
107.6004

> <PUBCHEM_FEATURE_SELFOVERLAP>
81.973

> <PUBCHEM_SHAPE_FINGERPRINT>
10369192 42 18409175402994770659
10554248 39 18059867142992794350
10930396 42 14996281376477596229
11007060 377 17822003238198671543
11135609 201 18040995168083739267
12013929 29 18342462530326272384
12061779 8 18341050714515204969
12218070 45 12396309153366637265
13165053 182 18195256730923809072
13553639 21 9149527170315665704
13627167 48 18337381626668949941
13690498 29 17701248377077611295
13782708 43 10015596012535068828
14150022 121 17968951923816565915
14664723 55 18200597995450018401
14765038 42 18408324376225371941
14840074 17 18337667491803973601
14950920 106 12685090384563893479
15119646 57 18410854391293299843
15131766 46 18262506002279131701
15183329 4 18341041947937658006
15510800 12 12247668388241280213
15530120 55 17559943497619417908
15684389 69 7853267845026815642
16120349 67 17988648437619308995
16993427 108 12108371286521671561
17852330 134 18272381841457393414
18603816 31 9871484097335036555
19304152 47 16515959286094561351
19309040 13 18272089383511192487
19438510 23 18186519912359026986
20691028 202 18408887326020433585
21033648 29 17677052451661836778
21223535 225 18272369724363510588
21585480 29 8142080966282437308
25222932 49 12535352264892321222
2838139 119 18261946358558698858
3504750 166 8646505028259394039
3610482 184 17775277236966224853
38570 142 18271525287276171691
397830 11 11746932079922252450
4098825 35 18201722842773479263
4258327 124 18267006277891881565
4394409 98 15985099687077508223
50009960 94 12606309209068458484
50677037 204 18335413590891873124
5223283 242 18115879508265434414
58902169 19 17917430861569079566
5937810 71 18115597079611156300
6289498 60 17532078557864015356
6376802 90 18189335857003494762
96874 4 8069733084401609369

> <PUBCHEM_SHAPE_MULTIPOLES>
639.58
24.52
4.57
2.32
24.73
1.22
-0.86
26.38
-6.3
0.89
1.26
-5.11
-0.03
-1.24

> <PUBCHEM_SHAPE_SELFOVERLAP>
1397.157

> <PUBCHEM_SHAPE_VOLUME>
346.2

> <PUBCHEM_COORDINATE_TYPE>
2
5
10

$$$$
