26742858
  -OEChem-12032416183D

 61 64  0     1  0  0  0  0  0999 V2000
   -8.1684    2.0629    0.0008 F   0  0  0  0  0  0  0  0  0  0  0  0
   -6.8183    2.1694    1.7020 F   0  0  0  0  0  0  0  0  0  0  0  0
   -6.3200    3.1995   -0.1404 F   0  0  0  0  0  0  0  0  0  0  0  0
    4.5800   -1.1883   -0.6400 O   0  0  0  0  0  0  0  0  0  0  0  0
   -2.1422   -2.4272   -1.5083 O   0  0  0  0  0  0  0  0  0  0  0  0
    5.6250    1.6145    1.5576 O   0  0  0  0  0  0  0  0  0  0  0  0
   -0.9072   -2.0698    0.4127 N   0  0  0  0  0  0  0  0  0  0  0  0
    3.1332    0.5587   -0.1529 N   0  0  0  0  0  0  0  0  0  0  0  0
    5.8014    1.6152   -0.7953 N   0  0  0  0  0  0  0  0  0  0  0  0
   -2.7659   -0.7056   -0.0839 N   0  0  0  0  0  0  0  0  0  0  0  0
    7.4422    0.6595    0.4315 N   0  0  0  0  0  0  0  0  0  0  0  0
    0.7968   -0.7743    1.6706 C   0  0  2  0  0  0  0  0  0  0  0  0
    1.8279   -1.8791    1.3315 C   0  0  1  0  0  0  0  0  0  0  0  0
    1.4550   -2.6345    0.0406 C   0  0  0  0  0  0  0  0  0  0  0  0
   -0.6176   -1.3858    1.6822 C   0  0  0  0  0  0  0  0  0  0  0  0
    0.8310    0.4618    0.7529 C   0  0  0  0  0  0  0  0  0  0  0  0
    3.2857   -1.4019    1.3451 C   0  0  0  0  0  0  0  0  0  0  0  0
    0.0200   -3.1584    0.0996 C   0  0  0  0  0  0  0  0  0  0  0  0
    2.1745    1.1822    0.7572 C   0  0  0  0  0  0  0  0  0  0  0  0
    3.7323   -0.6718    0.0926 C   0  0  0  0  0  0  0  0  0  0  0  0
    3.4412    1.2892   -1.3752 C   0  0  0  0  0  0  0  0  0  0  0  0
   -1.9693   -1.7828   -0.4706 C   0  0  0  0  0  0  0  0  0  0  0  0
    4.5831    2.2731   -1.1829 C   0  0  0  0  0  0  0  0  0  0  0  0
    6.7337    1.0715   -1.7671 C   0  0  0  0  0  0  0  0  0  0  0  0
    7.8874    0.5352   -0.9330 C   0  0  0  0  0  0  0  0  0  0  0  0
    6.2135    1.3337    0.5219 C   0  0  0  0  0  0  0  0  0  0  0  0
   -4.1444   -0.5166   -0.3513 C   0  0  0  0  0  0  0  0  0  0  0  0
   -4.7943    0.6274    0.1116 C   0  0  0  0  0  0  0  0  0  0  0  0
   -4.8511   -1.4744   -1.0784 C   0  0  0  0  0  0  0  0  0  0  0  0
   -6.1514    0.8135   -0.1525 C   0  0  0  0  0  0  0  0  0  0  0  0
   -6.2082   -1.2884   -1.3422 C   0  0  0  0  0  0  0  0  0  0  0  0
   -6.8583   -0.1444   -0.8794 C   0  0  0  0  0  0  0  0  0  0  0  0
   -6.8474    2.0359    0.3430 C   0  0  0  0  0  0  0  0  0  0  0  0
    1.0055   -0.4257    2.6918 H   0  0  0  0  0  0  0  0  0  0  0  0
    1.7564   -2.6124    2.1496 H   0  0  0  0  0  0  0  0  0  0  0  0
    2.1417   -3.4749   -0.1135 H   0  0  0  0  0  0  0  0  0  0  0  0
    1.5529   -1.9748   -0.8297 H   0  0  0  0  0  0  0  0  0  0  0  0
   -0.6828   -2.1480    2.4696 H   0  0  0  0  0  0  0  0  0  0  0  0
   -1.3622   -0.6311    1.9394 H   0  0  0  0  0  0  0  0  0  0  0  0
    0.0722    1.1678    1.1151 H   0  0  0  0  0  0  0  0  0  0  0  0
    0.5474    0.2008   -0.2736 H   0  0  0  0  0  0  0  0  0  0  0  0
    3.9355   -2.2822    1.4434 H   0  0  0  0  0  0  0  0  0  0  0  0
    3.4939   -0.7839    2.2253 H   0  0  0  0  0  0  0  0  0  0  0  0
   -0.2355   -3.6363   -0.8509 H   0  0  0  0  0  0  0  0  0  0  0  0
   -0.0820   -3.9171    0.8845 H   0  0  0  0  0  0  0  0  0  0  0  0
    2.0288    2.2250    0.4522 H   0  0  0  0  0  0  0  0  0  0  0  0
    2.6033    1.2101    1.7645 H   0  0  0  0  0  0  0  0  0  0  0  0
    3.7072    0.5683   -2.1574 H   0  0  0  0  0  0  0  0  0  0  0  0
    2.5378    1.8066   -1.7178 H   0  0  0  0  0  0  0  0  0  0  0  0
    4.7669    2.8388   -2.1022 H   0  0  0  0  0  0  0  0  0  0  0  0
    4.3220    2.9878   -0.3940 H   0  0  0  0  0  0  0  0  0  0  0  0
   -2.3385    0.0296    0.4692 H   0  0  0  0  0  0  0  0  0  0  0  0
    7.0566    1.8590   -2.4547 H   0  0  0  0  0  0  0  0  0  0  0  0
    6.2396    0.2759   -2.3330 H   0  0  0  0  0  0  0  0  0  0  0  0
    8.1128   -0.5122   -1.1504 H   0  0  0  0  0  0  0  0  0  0  0  0
    8.7946    1.1342   -1.0552 H   0  0  0  0  0  0  0  0  0  0  0  0
    7.9717    0.3424    1.2373 H   0  0  0  0  0  0  0  0  0  0  0  0
   -4.2465    1.3765    0.6789 H   0  0  0  0  0  0  0  0  0  0  0  0
   -4.4091   -2.3942   -1.4409 H   0  0  0  0  0  0  0  0  0  0  0  0
   -6.7607   -2.0369   -1.9029 H   0  0  0  0  0  0  0  0  0  0  0  0
   -7.9158   -0.0194   -1.0945 H   0  0  0  0  0  0  0  0  0  0  0  0
  1 33  1  0  0  0  0
  2 33  1  0  0  0  0
  3 33  1  0  0  0  0
  4 20  2  0  0  0  0
  5 22  2  0  0  0  0
  6 26  2  0  0  0  0
  7 15  1  0  0  0  0
  7 18  1  0  0  0  0
  7 22  1  0  0  0  0
  8 19  1  0  0  0  0
  8 20  1  0  0  0  0
  8 21  1  0  0  0  0
  9 23  1  0  0  0  0
  9 24  1  0  0  0  0
  9 26  1  0  0  0  0
 10 22  1  0  0  0  0
 10 27  1  0  0  0  0
 10 52  1  0  0  0  0
 11 25  1  0  0  0  0
 11 26  1  0  0  0  0
 11 57  1  0  0  0  0
 12 13  1  0  0  0  0
 12 15  1  0  0  0  0
 12 16  1  0  0  0  0
 12 34  1  0  0  0  0
 13 14  1  0  0  0  0
 13 17  1  0  0  0  0
 13 35  1  0  0  0  0
 14 18  1  0  0  0  0
 14 36  1  0  0  0  0
 14 37  1  0  0  0  0
 15 38  1  0  0  0  0
 15 39  1  0  0  0  0
 16 19  1  0  0  0  0
 16 40  1  0  0  0  0
 16 41  1  0  0  0  0
 17 20  1  0  0  0  0
 17 42  1  0  0  0  0
 17 43  1  0  0  0  0
 18 44  1  0  0  0  0
 18 45  1  0  0  0  0
 19 46  1  0  0  0  0
 19 47  1  0  0  0  0
 21 23  1  0  0  0  0
 21 48  1  0  0  0  0
 21 49  1  0  0  0  0
 23 50  1  0  0  0  0
 23 51  1  0  0  0  0
 24 25  1  0  0  0  0
 24 53  1  0  0  0  0
 24 54  1  0  0  0  0
 25 55  1  0  0  0  0
 25 56  1  0  0  0  0
 27 28  1  0  0  0  0
 27 29  2  0  0  0  0
 28 30  2  0  0  0  0
 28 58  1  0  0  0  0
 29 31  1  0  0  0  0
 29 59  1  0  0  0  0
 30 32  1  0  0  0  0
 30 33  1  0  0  0  0
 31 32  2  0  0  0  0
 31 60  1  0  0  0  0
 32 61  1  0  0  0  0
M  END
> <PUBCHEM_COMPOUND_CID>
26742858

> <PUBCHEM_CONFORMER_RMSD>
1.4

> <PUBCHEM_CONFORMER_DIVERSEORDER>
1
10
43
57
97
25
114
87
68
73
83
31
98
106
17
23
107
130
81
30
35
82
70
94
62
59
72
88
79
78
53
91
116
117
65
36
101
143
44
64
55
60
93
149
129
6
102
74
148
135
51
99
63
32
122
34
123
86
89
22
104
77
133
61
141
96
118
15
40
54
109
13
137
127
121
111
24
56
131
146
113
52
48
76
5
7
45
140
85
108
28
67
71
95
84
33
103
29
80
100
49
126
110
134
2
124
9
39
90
75
41
19
139
142
147
18
120
115
145
144
47
16
112
3
69
38
20
128
132
50
46
42
125
37
4
119
138
14
105
58
92
66
11
12
136
21
27
8
26

> <PUBCHEM_MMFF94_PARTIAL_CHARGES>
35
1 -0.34
10 -0.55
11 -0.73
15 0.3
17 0.06
18 0.3
19 0.3
2 -0.34
20 0.57
21 0.3
22 0.69
23 0.3
24 0.3
25 0.3
26 0.69
27 0.12
28 -0.15
29 -0.15
3 -0.34
30 -0.14
31 -0.15
32 -0.15
33 1.16
4 -0.57
5 -0.57
52 0.37
57 0.37
58 0.15
59 0.15
6 -0.57
60 0.15
61 0.15
7 -0.66
8 -0.66
9 -0.66

> <PUBCHEM_EFFECTIVE_ROTOR_COUNT>
9.4

> <PUBCHEM_PHARMACOPHORE_FEATURES>
9
1 10 donor
1 11 donor
1 4 acceptor
1 5 acceptor
1 6 acceptor
5 9 11 24 25 26 rings
6 27 28 29 30 31 32 rings
6 7 12 13 14 15 18 rings
7 8 12 13 16 17 19 20 rings

> <PUBCHEM_HEAVY_ATOM_COUNT>
33

> <PUBCHEM_ATOM_DEF_STEREO_COUNT>
2

> <PUBCHEM_ATOM_UDEF_STEREO_COUNT>
0

> <PUBCHEM_BOND_DEF_STEREO_COUNT>
0

> <PUBCHEM_BOND_UDEF_STEREO_COUNT>
0

> <PUBCHEM_ISOTOPIC_ATOM_COUNT>
0

> <PUBCHEM_COMPONENT_COUNT>
1

> <PUBCHEM_CACTVS_TAUTO_COUNT>
8

> <PUBCHEM_CONFORMER_ID>
0198104A00000001

> <PUBCHEM_MMFF94_ENERGY>
78.0682

> <PUBCHEM_FEATURE_SELFOVERLAP>
45.698

> <PUBCHEM_SHAPE_FINGERPRINT>
10 15 15574711408853854271
10190206 1 17846790584752741009
10670039 82 18343578556435000373
10674148 151 18413108381867509756
11578821 258 17683812378395108076
1200032 147 18260550008766699602
13690498 29 17487327382177460655
13782708 43 12319740254133948211
14294032 229 18262516992436349652
14394314 77 18410013213501829773
15183329 4 17561086899512086211
15301273 46 12468621829643275690
1577012 14 18411413999698984715
16992727 255 18343867709937698953
20715895 44 18409169939653802214
21033648 144 17821720642330773591
21033650 10 16486986072439977275
21223535 225 18272923938427370165
21298829 104 18408886239177215556
21424621 283 18408602573730228362
21585482 111 18115304458920155413
21774942 28 18343304751879639580
23559900 14 16128086879350317219
25269216 80 17274526738080241447
2747138 104 11025787700732084854
2838139 119 18337673125840470028
3633792 109 18202008694791135438
38570 142 18260266377742844515
397830 11 13767929039311532657
4058900 60 18333732424701624163
4073 2 18259987059678902779
4093350 32 18272373040637367718
4098825 35 18272652320474151630
4169191 19 18186515493470532533
4258327 124 18411135806889593749
445580 204 18410856568451497613
474113 269 8214138518241105081
508180 173 18130507530191686217
57035037 87 18130499856235452624
5718773 13 9655569708700725475
5911458 16 18408044013666017101

> <PUBCHEM_SHAPE_MULTIPOLES>
614.79
23.17
3.1
1.53
10.63
0.22
0.11
-19.11
-4.79
2.29
0.09
-0.63
0.04
-2.68

> <PUBCHEM_SHAPE_SELFOVERLAP>
1303.638

> <PUBCHEM_SHAPE_VOLUME>
341.5

> <PUBCHEM_COORDINATE_TYPE>
2
5
10

$$$$
