45361412
  -OEChem-12032416313D

 80 82  0     1  0  0  0  0  0999 V2000
    0.6860    1.2027   -0.6443 O   0  0  0  0  0  0  0  0  0  0  0  0
    4.0367   -2.8468   -0.6044 O   0  0  0  0  0  0  0  0  0  0  0  0
   -5.6704    1.3625    2.0145 O   0  0  0  0  0  0  0  0  0  0  0  0
   -4.6812    0.8249   -0.0180 N   0  0  0  0  0  0  0  0  0  0  0  0
    4.7218   -0.9511    0.5319 N   0  0  0  0  0  0  0  0  0  0  0  0
   -1.3530   -1.8904    0.2780 C   0  0  1  0  0  0  0  0  0  0  0  0
   -1.0172   -0.3713    0.1086 C   0  0  2  0  0  0  0  0  0  0  0  0
   -2.2631    0.4201   -0.4292 C   0  0  1  0  0  0  0  0  0  0  0  0
    0.2997   -0.1714   -0.6957 C   0  0  2  0  0  0  0  0  0  0  0  0
   -0.1451   -2.6181    0.9140 C   0  0  0  0  0  0  0  0  0  0  0  0
   -2.5521   -2.0371    1.2431 C   0  0  0  0  0  0  0  0  0  0  0  0
    1.4802   -0.9844   -0.1152 C   0  0  1  0  0  0  0  0  0  0  0  0
   -3.4839    0.2045    0.5089 C   0  0  2  0  0  0  0  0  0  0  0  0
    1.1372   -2.4572    0.1082 C   0  0  0  0  0  0  0  0  0  0  0  0
   -3.7839   -1.2683    0.7869 C   0  0  0  0  0  0  0  0  0  0  0  0
   -1.6951   -2.5769   -1.0687 C   0  0  0  0  0  0  0  0  0  0  0  0
    2.7318   -0.8776   -0.9950 C   0  0  2  0  0  0  0  0  0  0  0  0
   -2.0110    1.9285   -0.5924 C   0  0  0  0  0  0  0  0  0  0  0  0
    2.4219   -1.4221   -2.3904 C   0  0  0  0  0  0  0  0  0  0  0  0
    3.8867   -1.6468   -0.3488 C   0  0  0  0  0  0  0  0  0  0  0  0
   -5.6756    1.3527    0.7852 C   0  0  0  0  0  0  0  0  0  0  0  0
   -6.8310    1.9388   -0.0099 C   0  0  0  0  0  0  0  0  0  0  0  0
   -7.9416    0.9265   -0.3779 C   0  0  0  0  0  0  0  0  0  0  0  0
    4.6352    0.4705    0.8602 C   0  0  0  0  0  0  0  0  0  0  0  0
    5.8187   -1.6604    1.1816 C   0  0  0  0  0  0  0  0  0  0  0  0
   -7.3100   -0.1809   -1.2443 C   0  0  0  0  0  0  0  0  0  0  0  0
   -8.5485    0.2755    0.8757 C   0  0  0  0  0  0  0  0  0  0  0  0
   -9.0591    1.6015   -1.1908 C   0  0  0  0  0  0  0  0  0  0  0  0
    5.8754    1.2161    0.4598 C   0  0  0  0  0  0  0  0  0  0  0  0
    6.9345    1.3411    1.3587 C   0  0  0  0  0  0  0  0  0  0  0  0
    5.9685    1.7837   -0.8110 C   0  0  0  0  0  0  0  0  0  0  0  0
    8.0869    2.0338    0.9871 C   0  0  0  0  0  0  0  0  0  0  0  0
    7.1207    2.4762   -1.1827 C   0  0  0  0  0  0  0  0  0  0  0  0
    8.1799    2.6014   -0.2837 C   0  0  0  0  0  0  0  0  0  0  0  0
   -0.8234    0.0371    1.1135 H   0  0  0  0  0  0  0  0  0  0  0  0
   -2.5182    0.0435   -1.4279 H   0  0  0  0  0  0  0  0  0  0  0  0
    0.0936   -0.4118   -1.7400 H   0  0  0  0  0  0  0  0  0  0  0  0
    0.0281   -2.2292    1.9266 H   0  0  0  0  0  0  0  0  0  0  0  0
   -0.3640   -3.6873    1.0312 H   0  0  0  0  0  0  0  0  0  0  0  0
   -2.8155   -3.0956    1.3640 H   0  0  0  0  0  0  0  0  0  0  0  0
   -2.2688   -1.6759    2.2409 H   0  0  0  0  0  0  0  0  0  0  0  0
    1.7306   -0.5554    0.8663 H   0  0  0  0  0  0  0  0  0  0  0  0
   -3.2599    0.6852    1.4713 H   0  0  0  0  0  0  0  0  0  0  0  0
    1.0283   -3.0216   -0.8194 H   0  0  0  0  0  0  0  0  0  0  0  0
    1.9262   -2.9554    0.6824 H   0  0  0  0  0  0  0  0  0  0  0  0
   -4.5588   -1.3499    1.5602 H   0  0  0  0  0  0  0  0  0  0  0  0
   -4.2131   -1.7416   -0.1046 H   0  0  0  0  0  0  0  0  0  0  0  0
   -0.8884   -2.4865   -1.8014 H   0  0  0  0  0  0  0  0  0  0  0  0
   -1.8800   -3.6472   -0.9190 H   0  0  0  0  0  0  0  0  0  0  0  0
   -2.5897   -2.1632   -1.5410 H   0  0  0  0  0  0  0  0  0  0  0  0
    3.0163    0.1637   -1.1553 H   0  0  0  0  0  0  0  0  0  0  0  0
   -2.9312    2.4748   -0.8235 H   0  0  0  0  0  0  0  0  0  0  0  0
   -1.3364    2.1276   -1.4299 H   0  0  0  0  0  0  0  0  0  0  0  0
   -1.5889    2.3620    0.3201 H   0  0  0  0  0  0  0  0  0  0  0  0
   -4.8006    0.8349   -1.0265 H   0  0  0  0  0  0  0  0  0  0  0  0
    0.8263    1.4426    0.2876 H   0  0  0  0  0  0  0  0  0  0  0  0
    2.1004   -2.4651   -2.4159 H   0  0  0  0  0  0  0  0  0  0  0  0
    3.3406   -1.3907   -2.9914 H   0  0  0  0  0  0  0  0  0  0  0  0
    1.6965   -0.8134   -2.9354 H   0  0  0  0  0  0  0  0  0  0  0  0
   -6.4319    2.4109   -0.9174 H   0  0  0  0  0  0  0  0  0  0  0  0
   -7.2558    2.7543    0.5899 H   0  0  0  0  0  0  0  0  0  0  0  0
    3.7544    0.9591    0.4427 H   0  0  0  0  0  0  0  0  0  0  0  0
    4.4950    0.5401    1.9473 H   0  0  0  0  0  0  0  0  0  0  0  0
    5.8614   -1.3902    2.2407 H   0  0  0  0  0  0  0  0  0  0  0  0
    5.6798   -2.7435    1.1158 H   0  0  0  0  0  0  0  0  0  0  0  0
    6.7597   -1.4151    0.6818 H   0  0  0  0  0  0  0  0  0  0  0  0
   -8.0856   -0.8488   -1.6390 H   0  0  0  0  0  0  0  0  0  0  0  0
   -6.7773    0.2364   -2.1060 H   0  0  0  0  0  0  0  0  0  0  0  0
   -6.6214   -0.8146   -0.6774 H   0  0  0  0  0  0  0  0  0  0  0  0
   -8.9649    1.0348    1.5470 H   0  0  0  0  0  0  0  0  0  0  0  0
   -9.3584   -0.4132    0.6094 H   0  0  0  0  0  0  0  0  0  0  0  0
   -7.8062   -0.2999    1.4390 H   0  0  0  0  0  0  0  0  0  0  0  0
   -9.5341    2.4010   -0.6114 H   0  0  0  0  0  0  0  0  0  0  0  0
   -8.6635    2.0464   -2.1107 H   0  0  0  0  0  0  0  0  0  0  0  0
   -9.8383    0.8851   -1.4738 H   0  0  0  0  0  0  0  0  0  0  0  0
    6.8754    0.9123    2.3553 H   0  0  0  0  0  0  0  0  0  0  0  0
    5.1506    1.6917   -1.5206 H   0  0  0  0  0  0  0  0  0  0  0  0
    8.9110    2.1327    1.6876 H   0  0  0  0  0  0  0  0  0  0  0  0
    7.1934    2.9179   -2.1723 H   0  0  0  0  0  0  0  0  0  0  0  0
    9.0769    3.1410   -0.5731 H   0  0  0  0  0  0  0  0  0  0  0  0
  1  9  1  0  0  0  0
  1 56  1  0  0  0  0
  2 20  2  0  0  0  0
  3 21  2  0  0  0  0
  4 13  1  0  0  0  0
  4 21  1  0  0  0  0
  4 55  1  0  0  0  0
  5 20  1  0  0  0  0
  5 24  1  0  0  0  0
  5 25  1  0  0  0  0
  6  7  1  0  0  0  0
  6 10  1  0  0  0  0
  6 11  1  0  0  0  0
  6 16  1  0  0  0  0
  7  8  1  0  0  0  0
  7  9  1  0  0  0  0
  7 35  1  0  0  0  0
  8 13  1  0  0  0  0
  8 18  1  0  0  0  0
  8 36  1  0  0  0  0
  9 12  1  0  0  0  0
  9 37  1  0  0  0  0
 10 14  1  0  0  0  0
 10 38  1  0  0  0  0
 10 39  1  0  0  0  0
 11 15  1  0  0  0  0
 11 40  1  0  0  0  0
 11 41  1  0  0  0  0
 12 14  1  0  0  0  0
 12 17  1  0  0  0  0
 12 42  1  0  0  0  0
 13 15  1  0  0  0  0
 13 43  1  0  0  0  0
 14 44  1  0  0  0  0
 14 45  1  0  0  0  0
 15 46  1  0  0  0  0
 15 47  1  0  0  0  0
 16 48  1  0  0  0  0
 16 49  1  0  0  0  0
 16 50  1  0  0  0  0
 17 19  1  0  0  0  0
 17 20  1  0  0  0  0
 17 51  1  0  0  0  0
 18 52  1  0  0  0  0
 18 53  1  0  0  0  0
 18 54  1  0  0  0  0
 19 57  1  0  0  0  0
 19 58  1  0  0  0  0
 19 59  1  0  0  0  0
 21 22  1  0  0  0  0
 22 23  1  0  0  0  0
 22 60  1  0  0  0  0
 22 61  1  0  0  0  0
 23 26  1  0  0  0  0
 23 27  1  0  0  0  0
 23 28  1  0  0  0  0
 24 29  1  0  0  0  0
 24 62  1  0  0  0  0
 24 63  1  0  0  0  0
 25 64  1  0  0  0  0
 25 65  1  0  0  0  0
 25 66  1  0  0  0  0
 26 67  1  0  0  0  0
 26 68  1  0  0  0  0
 26 69  1  0  0  0  0
 27 70  1  0  0  0  0
 27 71  1  0  0  0  0
 27 72  1  0  0  0  0
 28 73  1  0  0  0  0
 28 74  1  0  0  0  0
 28 75  1  0  0  0  0
 29 30  2  0  0  0  0
 29 31  1  0  0  0  0
 30 32  1  0  0  0  0
 30 76  1  0  0  0  0
 31 33  2  0  0  0  0
 31 77  1  0  0  0  0
 32 34  2  0  0  0  0
 32 78  1  0  0  0  0
 33 34  1  0  0  0  0
 33 79  1  0  0  0  0
 34 80  1  0  0  0  0
M  END
> <PUBCHEM_COMPOUND_CID>
45361412

> <PUBCHEM_CONFORMER_RMSD>
1.2

> <PUBCHEM_CONFORMER_DIVERSEORDER>
1
47
94
178
65
144
159
168
56
13
105
119
72
183
106
152
92
167
75
175
69
42
155
124
184
38
103
54
96
10
55
162
90
100
153
15
127
139
9
185
66
140
101
176
87
166
171
114
137
39
84
132
60
163
182
123
109
78
99
117
98
104
121
31
160
89
68
83
181
48
172
58
8
164
28
81
149
180
12
82
37
26
46
51
145
115
97
93
179
35
36
24
157
174
25
57
143
150
126
18
73
133
120
52
71
128
107
76
169
7
173
116
34
27
170
165
85
130
161
49
158
125
110
142
21
95
11
151
86
64
102
40
23
6
63
53
147
62
134
14
111
91
118
129
88
61
112
77
79
154
108
16
177
30
59
156
135
29
22
136
3
45
20
32
43
80
122
33
50
70
113
19
141
41
148
146
44
138
74
67
17
2
4
5
131

> <PUBCHEM_MMFF94_PARTIAL_CHARGES>
26
1 -0.68
13 0.3
17 0.06
2 -0.57
20 0.57
21 0.57
22 0.06
24 0.44
25 0.3
29 -0.14
3 -0.57
30 -0.15
31 -0.15
32 -0.15
33 -0.15
34 -0.15
4 -0.73
5 -0.66
55 0.37
56 0.4
76 0.15
77 0.15
78 0.15
79 0.15
80 0.15
9 0.28

> <PUBCHEM_EFFECTIVE_ROTOR_COUNT>
10.6

> <PUBCHEM_PHARMACOPHORE_FEATURES>
10
1 1 acceptor
1 1 donor
1 19 hydrophobe
1 2 acceptor
1 3 acceptor
1 4 donor
4 23 26 27 28 hydrophobe
6 29 30 31 32 33 34 rings
6 6 7 8 11 13 15 rings
6 6 7 9 10 12 14 rings

> <PUBCHEM_HEAVY_ATOM_COUNT>
34

> <PUBCHEM_ATOM_DEF_STEREO_COUNT>
6

> <PUBCHEM_ATOM_UDEF_STEREO_COUNT>
1

> <PUBCHEM_BOND_DEF_STEREO_COUNT>
0

> <PUBCHEM_BOND_UDEF_STEREO_COUNT>
0

> <PUBCHEM_ISOTOPIC_ATOM_COUNT>
0

> <PUBCHEM_COMPONENT_COUNT>
1

> <PUBCHEM_CACTVS_TAUTO_COUNT>
2

> <PUBCHEM_CONFORMER_ID>
02B4290400000001

> <PUBCHEM_MMFF94_ENERGY>
108.3217

> <PUBCHEM_FEATURE_SELFOVERLAP>
50.76

> <PUBCHEM_SHAPE_FINGERPRINT>
10 15 17821730541591794856
10930396 42 17167854292569061389
12539765 74 17774449274339855511
12838862 33 18187917383686448125
12925494 130 18266738167919933552
13811026 1 18333733524413218131
14216079 64 9007057967549797793
14849402 71 18273497879840594105
15150948 74 18412259558559252568
15274700 259 18042106718811522117
15461852 350 17989204893413464647
15510800 12 11242239737409033376
15840311 113 18113617859400597018
17980427 23 18042123318748688790
19301679 30 14201942481912724258
20105231 36 11815891280743442149
2026 5 9222969062319459888
21033648 29 17603866642623724701
21344244 181 11383827177932346452
21792934 111 17603581894164769588
21792938 324 15213010591834117910
21859007 373 17096073689445683741
23559900 14 18264509333723622334
23576562 1 17058919147070497457
24771293 8 18412266121369305965
3418910 222 17632865218119481505
3504750 166 11602827926118222041
3986486 107 17060073549240334672
4073 2 18335423486791681875
4093350 32 17632021870792876572
4169191 19 18410578387957711985
4258327 124 18060419144573398535
4403749 210 18260269677174774099
44880568 143 17916028950190576713
45377200 153 13901609893017748469
504579 68 15052018961271102862
5104073 3 18186523220069810130
5470011 282 12895067440383099752
5719381 82 10159705681446489780
6438161 24 9943809967904910644

> <PUBCHEM_SHAPE_MULTIPOLES>
672.13
26.8
3.19
1.45
12.23
0.77
-0.19
-24.92
1.87
-3.29
-0.18
-0.15
0.12
0.27

> <PUBCHEM_SHAPE_SELFOVERLAP>
1385.26

> <PUBCHEM_SHAPE_VOLUME>
382.7

> <PUBCHEM_COORDINATE_TYPE>
2
5
10

$$$$
