45360936
  -OEChem-12032416393D

 68 71  0     1  0  0  0  0  0999 V2000
    2.6625   -2.6620    0.4938 O   0  0  0  0  0  0  0  0  0  0  0  0
   -4.7987   -2.0882   -1.4179 O   0  0  0  0  0  0  0  0  0  0  0  0
    8.9569    0.8343   -0.3953 O   0  0  0  0  0  0  0  0  0  0  0  0
   -3.2427    4.4131    0.2386 O   0  0  0  0  0  0  0  0  0  0  0  0
    2.6781   -0.0280   -0.1016 N   0  0  1  0  0  0  0  0  0  0  0  0
   -0.5386   -1.3478   -1.2426 N   0  0  1  0  0  0  0  0  0  0  0  0
    0.4547   -2.7203    1.0925 N   0  0  0  0  0  0  0  0  0  0  0  0
   -4.8405   -1.6866    0.8681 N   0  0  0  0  0  0  0  0  0  0  0  0
    0.3590   -0.2676   -0.7766 C   0  0  1  0  0  0  0  0  0  0  0  0
    1.3902   -0.5924    0.3438 C   0  0  1  0  0  0  0  0  0  0  0  0
    1.2589    0.3172   -1.8810 C   0  0  0  0  0  0  0  0  0  0  0  0
    2.3772    0.9839   -1.1081 C   0  0  0  0  0  0  0  0  0  0  0  0
   -1.4738   -1.8630   -0.2040 C   0  0  2  0  0  0  0  0  0  0  0  0
    1.5876   -2.0790    0.6286 C   0  0  0  0  0  0  0  0  0  0  0  0
   -0.8436   -2.0826    1.1853 C   0  0  0  0  0  0  0  0  0  0  0  0
    3.4828    0.5062    0.9897 C   0  0  0  0  0  0  0  0  0  0  0  0
   -2.0906   -3.2050   -0.6511 C   0  0  0  0  0  0  0  0  0  0  0  0
   -1.2870   -0.9271   -2.4393 C   0  0  0  0  0  0  0  0  0  0  0  0
   -3.4201   -3.4417    0.0411 C   0  0  0  0  0  0  0  0  0  0  0  0
    4.9400    0.5932    0.6214 C   0  0  0  0  0  0  0  0  0  0  0  0
   -4.4207   -2.3456   -0.2781 C   0  0  0  0  0  0  0  0  0  0  0  0
    5.7248   -0.5599    0.6010 C   0  0  0  0  0  0  0  0  0  0  0  0
    5.5053    1.8273    0.3002 C   0  0  0  0  0  0  0  0  0  0  0  0
    7.0747   -0.4788    0.2597 C   0  0  0  0  0  0  0  0  0  0  0  0
    6.8553    1.9084   -0.0411 C   0  0  0  0  0  0  0  0  0  0  0  0
    7.6400    0.7554   -0.0614 C   0  0  0  0  0  0  0  0  0  0  0  0
   -5.7920   -0.6015    0.8287 C   0  0  0  0  0  0  0  0  0  0  0  0
   -5.1135    0.7335    0.6721 C   0  0  0  0  0  0  0  0  0  0  0  0
   -4.4768    1.3251    1.7632 C   0  0  0  0  0  0  0  0  0  0  0  0
   -5.1217    1.3786   -0.5645 C   0  0  0  0  0  0  0  0  0  0  0  0
   -3.8484    2.5617    1.6176 C   0  0  0  0  0  0  0  0  0  0  0  0
   -4.4933    2.6153   -0.7102 C   0  0  0  0  0  0  0  0  0  0  0  0
   -3.8567    3.2069    0.3808 C   0  0  0  0  0  0  0  0  0  0  0  0
   -3.2895    5.0170   -1.0534 C   0  0  0  0  0  0  0  0  0  0  0  0
   -0.2641    0.5634   -0.4102 H   0  0  0  0  0  0  0  0  0  0  0  0
    1.0678   -0.1010    1.2715 H   0  0  0  0  0  0  0  0  0  0  0  0
    1.6656   -0.4774   -2.5209 H   0  0  0  0  0  0  0  0  0  0  0  0
    0.7304    1.0371   -2.5146 H   0  0  0  0  0  0  0  0  0  0  0  0
    2.0214    1.9226   -0.6649 H   0  0  0  0  0  0  0  0  0  0  0  0
    3.2325    1.1970   -1.7565 H   0  0  0  0  0  0  0  0  0  0  0  0
   -2.2544   -1.1049   -0.0703 H   0  0  0  0  0  0  0  0  0  0  0  0
   -0.7380   -1.1277    1.7103 H   0  0  0  0  0  0  0  0  0  0  0  0
   -1.4600   -2.7110    1.8340 H   0  0  0  0  0  0  0  0  0  0  0  0
    3.4221   -0.1561    1.8650 H   0  0  0  0  0  0  0  0  0  0  0  0
    3.1057    1.4756    1.3423 H   0  0  0  0  0  0  0  0  0  0  0  0
   -2.2740   -3.2585   -1.7265 H   0  0  0  0  0  0  0  0  0  0  0  0
   -1.4095   -4.0386   -0.4380 H   0  0  0  0  0  0  0  0  0  0  0  0
    0.5239   -3.7067    1.3233 H   0  0  0  0  0  0  0  0  0  0  0  0
   -1.9544   -1.6932   -2.8376 H   0  0  0  0  0  0  0  0  0  0  0  0
   -0.6106   -0.7046   -3.2709 H   0  0  0  0  0  0  0  0  0  0  0  0
   -1.8910   -0.0343   -2.2385 H   0  0  0  0  0  0  0  0  0  0  0  0
   -3.8554   -4.3818   -0.3202 H   0  0  0  0  0  0  0  0  0  0  0  0
   -3.2965   -3.5678    1.1206 H   0  0  0  0  0  0  0  0  0  0  0  0
    5.2978   -1.5273    0.8507 H   0  0  0  0  0  0  0  0  0  0  0  0
    4.9045    2.7328    0.3105 H   0  0  0  0  0  0  0  0  0  0  0  0
    7.6810   -1.3804    0.2457 H   0  0  0  0  0  0  0  0  0  0  0  0
    7.2835    2.8758   -0.2898 H   0  0  0  0  0  0  0  0  0  0  0  0
   -4.4581   -1.9460    1.7725 H   0  0  0  0  0  0  0  0  0  0  0  0
   -6.5072   -0.7732    0.0159 H   0  0  0  0  0  0  0  0  0  0  0  0
   -6.3605   -0.6235    1.7654 H   0  0  0  0  0  0  0  0  0  0  0  0
    9.1784    1.7618   -0.5871 H   0  0  0  0  0  0  0  0  0  0  0  0
   -4.4633    0.8312    2.7312 H   0  0  0  0  0  0  0  0  0  0  0  0
   -5.6124    0.9272   -1.4228 H   0  0  0  0  0  0  0  0  0  0  0  0
   -3.3535    3.0173    2.4708 H   0  0  0  0  0  0  0  0  0  0  0  0
   -4.5368    3.0603   -1.6984 H   0  0  0  0  0  0  0  0  0  0  0  0
   -2.7532    5.9691   -0.9847 H   0  0  0  0  0  0  0  0  0  0  0  0
   -4.3173    5.2499   -1.3518 H   0  0  0  0  0  0  0  0  0  0  0  0
   -2.7677    4.4093   -1.8005 H   0  0  0  0  0  0  0  0  0  0  0  0
  1 14  2  0  0  0  0
  2 21  2  0  0  0  0
  3 26  1  0  0  0  0
  3 61  1  0  0  0  0
  4 33  1  0  0  0  0
  4 34  1  0  0  0  0
  5 10  1  0  0  0  0
  5 12  1  0  0  0  0
  5 16  1  0  0  0  0
  6  9  1  0  0  0  0
  6 13  1  0  0  0  0
  6 18  1  0  0  0  0
  7 14  1  0  0  0  0
  7 15  1  0  0  0  0
  7 48  1  0  0  0  0
  8 21  1  0  0  0  0
  8 27  1  0  0  0  0
  8 58  1  0  0  0  0
  9 10  1  0  0  0  0
  9 11  1  0  0  0  0
  9 35  1  0  0  0  0
 10 14  1  0  0  0  0
 10 36  1  0  0  0  0
 11 12  1  0  0  0  0
 11 37  1  0  0  0  0
 11 38  1  0  0  0  0
 12 39  1  0  0  0  0
 12 40  1  0  0  0  0
 13 15  1  0  0  0  0
 13 17  1  0  0  0  0
 13 41  1  0  0  0  0
 15 42  1  0  0  0  0
 15 43  1  0  0  0  0
 16 20  1  0  0  0  0
 16 44  1  0  0  0  0
 16 45  1  0  0  0  0
 17 19  1  0  0  0  0
 17 46  1  0  0  0  0
 17 47  1  0  0  0  0
 18 49  1  0  0  0  0
 18 50  1  0  0  0  0
 18 51  1  0  0  0  0
 19 21  1  0  0  0  0
 19 52  1  0  0  0  0
 19 53  1  0  0  0  0
 20 22  2  0  0  0  0
 20 23  1  0  0  0  0
 22 24  1  0  0  0  0
 22 54  1  0  0  0  0
 23 25  2  0  0  0  0
 23 55  1  0  0  0  0
 24 26  2  0  0  0  0
 24 56  1  0  0  0  0
 25 26  1  0  0  0  0
 25 57  1  0  0  0  0
 27 28  1  0  0  0  0
 27 59  1  0  0  0  0
 27 60  1  0  0  0  0
 28 29  2  0  0  0  0
 28 30  1  0  0  0  0
 29 31  1  0  0  0  0
 29 62  1  0  0  0  0
 30 32  2  0  0  0  0
 30 63  1  0  0  0  0
 31 33  2  0  0  0  0
 31 64  1  0  0  0  0
 32 33  1  0  0  0  0
 32 65  1  0  0  0  0
 34 66  1  0  0  0  0
 34 67  1  0  0  0  0
 34 68  1  0  0  0  0
M  END
> <PUBCHEM_COMPOUND_CID>
45360936

> <PUBCHEM_CONFORMER_RMSD>
1.2

> <PUBCHEM_CONFORMER_DIVERSEORDER>
4
57
36
144
78
34
24
113
143
3
81
140
28
11
58
8
133
94
105
102
137
109
66
125
88
106
132
20
115
99
123
126
7
153
103
104
53
40
85
96
124
51
146
107
151
37
2
52
139
9
32
22
55
74
142
91
75
108
45
12
31
145
71
62
18
154
1
101
89
112
67
128
156
119
15
82
148
147
120
23
110
70
79
38
98
25
65
49
116
152
135
114
19
48
93
122
127
100
150
46
80
155
39
83
131
50
29
17
61
134
13
27
87
68
117
157
138
90
86
64
41
73
44
35
129
76
21
141
97
118
92
84
54
111
5
60
130
59
47
14
69
95
43
42
77
149
63
6
10
30
56
121
16
72
33
26
136

> <PUBCHEM_MMFF94_PARTIAL_CHARGES>
43
1 -0.57
10 0.33
12 0.27
13 0.27
14 0.57
15 0.3
16 0.41
18 0.27
19 0.06
2 -0.57
20 -0.14
21 0.57
22 -0.15
23 -0.15
24 -0.15
25 -0.15
26 0.08
27 0.44
28 -0.14
29 -0.15
3 -0.53
30 -0.15
31 -0.15
32 -0.15
33 0.08
34 0.28
4 -0.36
48 0.37
5 -0.81
54 0.15
55 0.15
56 0.15
57 0.15
58 0.37
6 -0.81
61 0.45
62 0.15
63 0.15
64 0.15
65 0.15
7 -0.73
8 -0.73
9 0.27

> <PUBCHEM_EFFECTIVE_ROTOR_COUNT>
10.4

> <PUBCHEM_PHARMACOPHORE_FEATURES>
12
1 1 acceptor
1 2 acceptor
1 3 donor
1 4 acceptor
1 5 cation
1 6 cation
1 7 donor
1 8 donor
5 5 9 10 11 12 rings
6 20 22 23 24 25 26 rings
6 28 29 30 31 32 33 rings
7 6 7 9 10 13 14 15 rings

> <PUBCHEM_HEAVY_ATOM_COUNT>
34

> <PUBCHEM_ATOM_DEF_STEREO_COUNT>
3

> <PUBCHEM_ATOM_UDEF_STEREO_COUNT>
0

> <PUBCHEM_BOND_DEF_STEREO_COUNT>
0

> <PUBCHEM_BOND_UDEF_STEREO_COUNT>
0

> <PUBCHEM_ISOTOPIC_ATOM_COUNT>
0

> <PUBCHEM_COMPONENT_COUNT>
1

> <PUBCHEM_CACTVS_TAUTO_COUNT>
12

> <PUBCHEM_CONFORMER_ID>
02B4272800000004

> <PUBCHEM_MMFF94_ENERGY>
98.0071

> <PUBCHEM_FEATURE_SELFOVERLAP>
60.933

> <PUBCHEM_SHAPE_FINGERPRINT>
100830 39 18411138039175660048
10087517 78 18341050808713509425
10554248 39 14261359102710081008
10580692 12 18413109459777986090
10670039 82 18342453781313879771
10674148 151 18409449216245288346
10815517 723 18260548943857435724
10951579 204 18266761133584618172
11434127 23 17774443772181540549
12104220 1 18335135440108066181
12128747 34 18342459218747737958
12422481 6 17240485771536278798
12988421 55 17917448513964515155
13383665 225 18115042904782180212
13885169 127 18341332271422470722
14294032 229 18186801349599286956
14394314 77 18411421692634758761
14856354 85 18267022932588430855
15021287 119 17458068183169971844
15183329 4 16271923809865074980
15264996 154 17255404250054717269
15604295 49 17843959468073772456
15876981 60 18195808690302923887
16112460 7 17894624847157593402
18603816 31 12468635096881851345
19309040 13 16557077628203025185
21236236 1 18411698819943451146
21756936 100 18343297063560794647
23522609 53 17895209817877547284
23569943 247 17097184218139880162
25019877 29 16844465972085405687
2838139 119 17489586757933088864
3504750 166 18270958071829999462
392239 28 18410301341240028449
4403749 210 18188483580277196436
4616759 239 17751349797412455610
5372103 7 17460576045673197189
54039377 194 10375864204453103421
550186 7 18201721764762542455
563151 97 18408881841379228482
6201320 215 18272646819106485288

> <PUBCHEM_SHAPE_MULTIPOLES>
656.3
18.9
4.86
1.51
34.62
3.34
-0.42
9.3
2.68
-8.83
-0.31
-1.25
0.04
-0.79

> <PUBCHEM_SHAPE_SELFOVERLAP>
1389.14

> <PUBCHEM_SHAPE_VOLUME>
366.9

> <PUBCHEM_COORDINATE_TYPE>
2
5
10

$$$$
