11912504
  -OEChem-12032416113D

 67 69  0     1  0  0  0  0  0999 V2000
    3.1938    1.1583    1.0252 O   0  0  0  0  0  0  0  0  0  0  0  0
   -3.3813   -1.1860    1.8426 O   0  0  0  0  0  0  0  0  0  0  0  0
    9.3866   -1.7565    0.6356 O   0  0  0  0  0  0  0  0  0  0  0  0
   -6.8842   -3.0134   -0.8233 O   0  0  0  0  0  0  0  0  0  0  0  0
   -2.0672    0.6756    1.4551 N   0  0  0  0  0  0  0  0  0  0  0  0
    3.9103    1.2155   -1.1850 N   0  0  0  0  0  0  0  0  0  0  0  0
   -4.3670    0.7063    0.9320 N   0  0  0  0  0  0  0  0  0  0  0  0
    7.1598   -0.5307   -0.6454 N   0  0  0  0  0  0  0  0  0  0  0  0
    0.4944    1.4375    0.3445 C   0  0  1  0  0  0  0  0  0  0  0  0
   -0.8136    2.1445   -0.0998 C   0  0  2  0  0  0  0  0  0  0  0  0
    0.2263    0.0146    0.8677 C   0  0  0  0  0  0  0  0  0  0  0  0
   -1.8497    2.0680    1.0342 C   0  0  0  0  0  0  0  0  0  0  0  0
   -0.8596    0.0079    1.9428 C   0  0  0  0  0  0  0  0  0  0  0  0
   -1.4058    1.6000   -1.4048 C   0  0  0  0  0  0  0  0  0  0  0  0
    1.5658    1.4182   -0.7453 C   0  0  0  0  0  0  0  0  0  0  0  0
   -2.6236    2.3950   -1.8266 C   0  0  0  0  0  0  0  0  0  0  0  0
    2.9582    1.2492   -0.1766 C   0  0  0  0  0  0  0  0  0  0  0  0
   -3.2944   -0.0207    1.4473 C   0  0  0  0  0  0  0  0  0  0  0  0
    5.3249    1.0655   -0.9305 C   0  0  0  0  0  0  0  0  0  0  0  0
    5.7291   -0.4014   -0.9138 C   0  0  0  0  0  0  0  0  0  0  0  0
    7.4457   -0.3081    0.7788 C   0  0  0  0  0  0  0  0  0  0  0  0
    7.6504   -1.8536   -1.0565 C   0  0  0  0  0  0  0  0  0  0  0  0
   -5.5046    0.1985    0.2570 C   0  0  0  0  0  0  0  0  0  0  0  0
    8.9422   -0.4599    1.0362 C   0  0  0  0  0  0  0  0  0  0  0  0
    9.1419   -1.9697   -0.7551 C   0  0  0  0  0  0  0  0  0  0  0  0
   -5.6358   -1.1742    0.0466 C   0  0  0  0  0  0  0  0  0  0  0  0
   -6.4930    1.0714   -0.1974 C   0  0  0  0  0  0  0  0  0  0  0  0
   -6.7556   -1.6739   -0.6180 C   0  0  0  0  0  0  0  0  0  0  0  0
   -7.6130    0.5717   -0.8622 C   0  0  0  0  0  0  0  0  0  0  0  0
   -7.7442   -0.8010   -1.0723 C   0  0  0  0  0  0  0  0  0  0  0  0
   -5.8368   -3.8489   -0.3329 C   0  0  0  0  0  0  0  0  0  0  0  0
    0.8756    2.0240    1.1935 H   0  0  0  0  0  0  0  0  0  0  0  0
   -0.5744    3.2052   -0.2593 H   0  0  0  0  0  0  0  0  0  0  0  0
   -0.0863   -0.6329    0.0389 H   0  0  0  0  0  0  0  0  0  0  0  0
    1.1379   -0.4271    1.2846 H   0  0  0  0  0  0  0  0  0  0  0  0
   -1.4584    2.5952    1.9148 H   0  0  0  0  0  0  0  0  0  0  0  0
   -2.7646    2.5963    0.7766 H   0  0  0  0  0  0  0  0  0  0  0  0
   -1.0710   -1.0226    2.2439 H   0  0  0  0  0  0  0  0  0  0  0  0
   -0.5207    0.5457    2.8361 H   0  0  0  0  0  0  0  0  0  0  0  0
   -1.6732    0.5413   -1.3184 H   0  0  0  0  0  0  0  0  0  0  0  0
   -0.6639    1.6734   -2.2078 H   0  0  0  0  0  0  0  0  0  0  0  0
    1.5601    2.3717   -1.2887 H   0  0  0  0  0  0  0  0  0  0  0  0
    1.3803    0.6169   -1.4704 H   0  0  0  0  0  0  0  0  0  0  0  0
   -2.9038    2.1201   -2.8496 H   0  0  0  0  0  0  0  0  0  0  0  0
   -3.4969    2.1971   -1.2040 H   0  0  0  0  0  0  0  0  0  0  0  0
   -2.4247    3.4716   -1.8195 H   0  0  0  0  0  0  0  0  0  0  0  0
    3.6110    1.2912   -2.1529 H   0  0  0  0  0  0  0  0  0  0  0  0
    5.5446    1.5674    0.0162 H   0  0  0  0  0  0  0  0  0  0  0  0
    5.8523    1.6028   -1.7268 H   0  0  0  0  0  0  0  0  0  0  0  0
   -4.3562    1.7151    1.0259 H   0  0  0  0  0  0  0  0  0  0  0  0
    5.1273   -0.9715   -0.1936 H   0  0  0  0  0  0  0  0  0  0  0  0
    5.4933   -0.8164   -1.9033 H   0  0  0  0  0  0  0  0  0  0  0  0
    7.1534    0.6964    1.0984 H   0  0  0  0  0  0  0  0  0  0  0  0
    6.8978   -1.0328    1.3954 H   0  0  0  0  0  0  0  0  0  0  0  0
    7.4961   -2.0018   -2.1314 H   0  0  0  0  0  0  0  0  0  0  0  0
    7.1061   -2.6429   -0.5216 H   0  0  0  0  0  0  0  0  0  0  0  0
    9.5237    0.3061    0.5085 H   0  0  0  0  0  0  0  0  0  0  0  0
    9.1491   -0.3539    2.1060 H   0  0  0  0  0  0  0  0  0  0  0  0
    9.4953   -2.9753   -1.0046 H   0  0  0  0  0  0  0  0  0  0  0  0
    9.7306   -1.2558   -1.3441 H   0  0  0  0  0  0  0  0  0  0  0  0
   -4.8508   -1.8403    0.3645 H   0  0  0  0  0  0  0  0  0  0  0  0
   -6.4025    2.1432   -0.0409 H   0  0  0  0  0  0  0  0  0  0  0  0
   -8.3825    1.2514   -1.2163 H   0  0  0  0  0  0  0  0  0  0  0  0
   -8.6188   -1.1843   -1.5908 H   0  0  0  0  0  0  0  0  0  0  0  0
   -5.7500   -3.7916    0.7576 H   0  0  0  0  0  0  0  0  0  0  0  0
   -4.8876   -3.6460   -0.8405 H   0  0  0  0  0  0  0  0  0  0  0  0
   -6.1100   -4.8814   -0.5745 H   0  0  0  0  0  0  0  0  0  0  0  0
  1 17  2  0  0  0  0
  2 18  2  0  0  0  0
  3 24  1  0  0  0  0
  3 25  1  0  0  0  0
  4 28  1  0  0  0  0
  4 31  1  0  0  0  0
  5 12  1  0  0  0  0
  5 13  1  0  0  0  0
  5 18  1  0  0  0  0
  6 17  1  0  0  0  0
  6 19  1  0  0  0  0
  6 47  1  0  0  0  0
  7 18  1  0  0  0  0
  7 23  1  0  0  0  0
  7 50  1  0  0  0  0
  8 20  1  0  0  0  0
  8 21  1  0  0  0  0
  8 22  1  0  0  0  0
  9 10  1  0  0  0  0
  9 11  1  0  0  0  0
  9 15  1  0  0  0  0
  9 32  1  0  0  0  0
 10 12  1  0  0  0  0
 10 14  1  0  0  0  0
 10 33  1  0  0  0  0
 11 13  1  0  0  0  0
 11 34  1  0  0  0  0
 11 35  1  0  0  0  0
 12 36  1  0  0  0  0
 12 37  1  0  0  0  0
 13 38  1  0  0  0  0
 13 39  1  0  0  0  0
 14 16  1  0  0  0  0
 14 40  1  0  0  0  0
 14 41  1  0  0  0  0
 15 17  1  0  0  0  0
 15 42  1  0  0  0  0
 15 43  1  0  0  0  0
 16 44  1  0  0  0  0
 16 45  1  0  0  0  0
 16 46  1  0  0  0  0
 19 20  1  0  0  0  0
 19 48  1  0  0  0  0
 19 49  1  0  0  0  0
 20 51  1  0  0  0  0
 20 52  1  0  0  0  0
 21 24  1  0  0  0  0
 21 53  1  0  0  0  0
 21 54  1  0  0  0  0
 22 25  1  0  0  0  0
 22 55  1  0  0  0  0
 22 56  1  0  0  0  0
 23 26  2  0  0  0  0
 23 27  1  0  0  0  0
 24 57  1  0  0  0  0
 24 58  1  0  0  0  0
 25 59  1  0  0  0  0
 25 60  1  0  0  0  0
 26 28  1  0  0  0  0
 26 61  1  0  0  0  0
 27 29  2  0  0  0  0
 27 62  1  0  0  0  0
 28 30  2  0  0  0  0
 29 30  1  0  0  0  0
 29 63  1  0  0  0  0
 30 64  1  0  0  0  0
 31 65  1  0  0  0  0
 31 66  1  0  0  0  0
 31 67  1  0  0  0  0
M  END
> <PUBCHEM_COMPOUND_CID>
11912504

> <PUBCHEM_CONFORMER_RMSD>
1.4

> <PUBCHEM_CONFORMER_DIVERSEORDER>
1
74
33
71
85
109
46
99
75
35
79
12
44
54
106
57
105
21
47
96
90
3
59
81
66
56
86
89
4
39
10
26
65
32
48
70
104
30
76
93
95
97
55
68
13
83
60
94
107
51
110
40
63
34
42
9
108
29
91
43
2
50
58
14
87
36
38
78
72
80
92
102
17
11
84
25
8
98
101
88
49
5
69
31
103
52
53
19
62
28
6
16
67
22
82
18
20
24
73
7
61
15
45
77
41
27
23
100
37
64

> <PUBCHEM_MMFF94_PARTIAL_CHARGES>
32
1 -0.57
12 0.3
13 0.3
15 0.06
17 0.57
18 0.69
19 0.3
2 -0.57
20 0.27
21 0.27
22 0.27
23 0.12
24 0.28
25 0.28
26 -0.15
27 -0.15
28 0.08
29 -0.15
3 -0.56
30 -0.15
31 0.28
4 -0.36
47 0.37
5 -0.66
50 0.37
6 -0.73
61 0.15
62 0.15
63 0.15
64 0.15
7 -0.55
8 -0.81

> <PUBCHEM_EFFECTIVE_ROTOR_COUNT>
13.4

> <PUBCHEM_PHARMACOPHORE_FEATURES>
11
1 1 acceptor
1 16 hydrophobe
1 2 acceptor
1 3 acceptor
1 4 acceptor
1 6 donor
1 7 donor
1 8 cation
6 23 26 27 28 29 30 rings
6 3 8 21 22 24 25 rings
6 5 9 10 11 12 13 rings

> <PUBCHEM_HEAVY_ATOM_COUNT>
31

> <PUBCHEM_ATOM_DEF_STEREO_COUNT>
2

> <PUBCHEM_ATOM_UDEF_STEREO_COUNT>
0

> <PUBCHEM_BOND_DEF_STEREO_COUNT>
0

> <PUBCHEM_BOND_UDEF_STEREO_COUNT>
0

> <PUBCHEM_ISOTOPIC_ATOM_COUNT>
0

> <PUBCHEM_COMPONENT_COUNT>
1

> <PUBCHEM_CACTVS_TAUTO_COUNT>
4

> <PUBCHEM_CONFORMER_ID>
00B5C53800000001

> <PUBCHEM_MMFF94_ENERGY>
77.6253

> <PUBCHEM_FEATURE_SELFOVERLAP>
55.821

> <PUBCHEM_SHAPE_FINGERPRINT>
10 15 14333406736275458284
106641 1 12391509789411246533
10677351 14 18260274041114338652
11135609 99 18059574728138392454
11135926 11 18341616993257683795
11181472 205 13190608405150269980
11211813 163 18260827095098995567
12539765 74 11025788795975645872
12645989 146 18261397766628467308
13726171 33 11531577300706756943
15183329 4 17022617585231238049
15188451 53 18412266121595710992
15347590 135 14261357933671874486
15706992 2 10881685672256435661
16126227 98 10952045650290239204
16994733 274 8790891756867722878
18603816 31 18060129977547956743
20105231 36 18262243339660293067
2026 5 18335985251803647082
21033648 29 9871165200582537092
21095123 293 10737281346597786350
212700 22 18201717345336841942
21307412 95 17749680669989240787
21424621 283 9151184142431805877
21585482 111 8718563700255674023
21792961 116 16588030108790308985
23559900 14 17750243671403998820
23576562 1 16082222981602910735
23729398 52 9582425802077599916
3711267 37 8934995988978722590
4353968 344 18041837312349365412
4403749 210 13182750200062906129
444769 64 17967824829708516865
44802255 64 12901546849837407441
504579 68 15719114648081781544
5718773 13 18343304781849088282
5758199 1 10735878365660663148
59682541 35 12751234817915275999
9689198 14 10953456327976742938

> <PUBCHEM_SHAPE_MULTIPOLES>
594.56
30.25
2.86
1.59
47.83
2.02
-0.26
24.36
5.95
-3.46
0.92
-0.28
-0.25
-0.19

> <PUBCHEM_SHAPE_SELFOVERLAP>
1217.604

> <PUBCHEM_SHAPE_VOLUME>
339.9

> <PUBCHEM_COORDINATE_TYPE>
2
5
10

$$$$
