38030682
  -OEChem-12032416363D

 65 68  0     1  0  0  0  0  0999 V2000
   -6.8178   -2.5081   -0.2910 O   0  0  0  0  0  0  0  0  0  0  0  0
    2.6239    0.8284   -0.7882 O   0  0  0  0  0  0  0  0  0  0  0  0
   -4.6803   -0.6290   -0.3246 N   0  0  0  0  0  0  0  0  0  0  0  0
    1.5351   -0.3784   -2.3254 N   0  0  0  0  0  0  0  0  0  0  0  0
    2.7063   -1.0425   -2.0118 N   0  0  0  0  0  0  0  0  0  0  0  0
   -2.0949    0.1285    0.8301 C   0  0  1  0  0  0  0  0  0  0  0  0
   -3.2130    1.1543    0.5312 C   0  0  2  0  0  0  0  0  0  0  0  0
   -0.9537    0.2649   -0.1875 C   0  0  0  0  0  0  0  0  0  0  0  0
   -0.3480    1.6839   -0.2406 C   0  0  2  0  0  0  0  0  0  0  0  0
   -1.5763    0.2693    2.2677 C   0  0  0  0  0  0  0  0  0  0  0  0
   -4.1171    0.6881   -0.6145 C   0  0  0  0  0  0  0  0  0  0  0  0
   -2.6713    2.5238    0.2094 C   0  0  0  0  0  0  0  0  0  0  0  0
   -1.3938    2.7825   -0.1253 C   0  0  0  0  0  0  0  0  0  0  0  0
    0.5063    1.8043   -1.5088 C   0  0  0  0  0  0  0  0  0  0  0  0
   -2.7288    0.1660    3.2617 C   0  0  0  0  0  0  0  0  0  0  0  0
   -0.5162   -0.7886    2.5567 C   0  0  0  0  0  0  0  0  0  0  0  0
   -0.9393    4.1998   -0.3422 C   0  0  0  0  0  0  0  0  0  0  0  0
   -5.1531   -1.2769   -1.5559 C   0  0  0  0  0  0  0  0  0  0  0  0
   -5.7805   -0.5243    0.6438 C   0  0  0  0  0  0  0  0  0  0  0  0
    1.5290    0.7074   -1.5877 C   0  0  0  0  0  0  0  0  0  0  0  0
   -5.7476   -2.6433   -1.2269 C   0  0  0  0  0  0  0  0  0  0  0  0
   -6.3591   -1.9089    0.9213 C   0  0  0  0  0  0  0  0  0  0  0  0
    3.3095   -0.3021   -1.1114 C   0  0  0  0  0  0  0  0  0  0  0  0
    4.5553   -0.4972   -0.4284 C   0  0  0  0  0  0  0  0  0  0  0  0
    5.3270   -1.6283   -0.6947 C   0  0  0  0  0  0  0  0  0  0  0  0
    4.9961    0.4446    0.5015 C   0  0  0  0  0  0  0  0  0  0  0  0
    6.5391   -1.8178   -0.0312 C   0  0  0  0  0  0  0  0  0  0  0  0
    6.2081    0.2551    1.1652 C   0  0  0  0  0  0  0  0  0  0  0  0
    6.9796   -0.8762    0.8989 C   0  0  0  0  0  0  0  0  0  0  0  0
    8.2755   -1.0792    1.6088 C   0  0  0  0  0  0  0  0  0  0  0  0
   -2.4858   -0.8927    0.7383 H   0  0  0  0  0  0  0  0  0  0  0  0
   -3.8585    1.3003    1.3977 H   0  0  0  0  0  0  0  0  0  0  0  0
   -1.3566    0.0100   -1.1779 H   0  0  0  0  0  0  0  0  0  0  0  0
   -0.1813   -0.4881   -0.0034 H   0  0  0  0  0  0  0  0  0  0  0  0
    0.3191    1.7941    0.6264 H   0  0  0  0  0  0  0  0  0  0  0  0
   -1.1098    1.2495    2.4228 H   0  0  0  0  0  0  0  0  0  0  0  0
   -3.5193    0.6415   -1.5349 H   0  0  0  0  0  0  0  0  0  0  0  0
   -4.9095    1.4231   -0.8144 H   0  0  0  0  0  0  0  0  0  0  0  0
   -3.3817    3.3451    0.2787 H   0  0  0  0  0  0  0  0  0  0  0  0
   -0.1248    1.7674   -2.4056 H   0  0  0  0  0  0  0  0  0  0  0  0
    1.0393    2.7622   -1.5332 H   0  0  0  0  0  0  0  0  0  0  0  0
   -2.3472    0.0018    4.2764 H   0  0  0  0  0  0  0  0  0  0  0  0
   -3.3163    1.0866    3.3186 H   0  0  0  0  0  0  0  0  0  0  0  0
   -3.3953   -0.6710    3.0281 H   0  0  0  0  0  0  0  0  0  0  0  0
   -0.8647   -1.7934    2.2949 H   0  0  0  0  0  0  0  0  0  0  0  0
   -0.2592   -0.7971    3.6222 H   0  0  0  0  0  0  0  0  0  0  0  0
    0.4182   -0.5921    2.0227 H   0  0  0  0  0  0  0  0  0  0  0  0
   -0.6936    4.3711   -1.3948 H   0  0  0  0  0  0  0  0  0  0  0  0
   -1.7091    4.9273   -0.0626 H   0  0  0  0  0  0  0  0  0  0  0  0
   -0.0544    4.4124    0.2666 H   0  0  0  0  0  0  0  0  0  0  0  0
   -4.3232   -1.4148   -2.2583 H   0  0  0  0  0  0  0  0  0  0  0  0
   -5.9140   -0.6541   -2.0442 H   0  0  0  0  0  0  0  0  0  0  0  0
   -6.5735    0.1255    0.2511 H   0  0  0  0  0  0  0  0  0  0  0  0
   -5.4438   -0.1069    1.5969 H   0  0  0  0  0  0  0  0  0  0  0  0
   -6.1549   -3.1008   -2.1342 H   0  0  0  0  0  0  0  0  0  0  0  0
   -4.9911   -3.3265   -0.8217 H   0  0  0  0  0  0  0  0  0  0  0  0
   -5.6230   -2.5664    1.3998 H   0  0  0  0  0  0  0  0  0  0  0  0
   -7.2171   -1.8261    1.5961 H   0  0  0  0  0  0  0  0  0  0  0  0
    5.0034   -2.3751   -1.4159 H   0  0  0  0  0  0  0  0  0  0  0  0
    4.4233    1.3384    0.7354 H   0  0  0  0  0  0  0  0  0  0  0  0
    7.1323   -2.7022   -0.2484 H   0  0  0  0  0  0  0  0  0  0  0  0
    6.5420    0.9964    1.8864 H   0  0  0  0  0  0  0  0  0  0  0  0
    8.2524   -0.6330    2.6089 H   0  0  0  0  0  0  0  0  0  0  0  0
    9.0911   -0.6224    1.0395 H   0  0  0  0  0  0  0  0  0  0  0  0
    8.4919   -2.1450    1.7389 H   0  0  0  0  0  0  0  0  0  0  0  0
  1 21  1  0  0  0  0
  1 22  1  0  0  0  0
  2 20  1  0  0  0  0
  2 23  1  0  0  0  0
  3 11  1  0  0  0  0
  3 18  1  0  0  0  0
  3 19  1  0  0  0  0
  4  5  1  0  0  0  0
  4 20  2  0  0  0  0
  5 23  2  0  0  0  0
  6  7  1  0  0  0  0
  6  8  1  0  0  0  0
  6 10  1  0  0  0  0
  6 31  1  0  0  0  0
  7 11  1  0  0  0  0
  7 12  1  0  0  0  0
  7 32  1  0  0  0  0
  8  9  1  0  0  0  0
  8 33  1  0  0  0  0
  8 34  1  0  0  0  0
  9 13  1  0  0  0  0
  9 14  1  0  0  0  0
  9 35  1  0  0  0  0
 10 15  1  0  0  0  0
 10 16  1  0  0  0  0
 10 36  1  0  0  0  0
 11 37  1  0  0  0  0
 11 38  1  0  0  0  0
 12 13  2  0  0  0  0
 12 39  1  0  0  0  0
 13 17  1  0  0  0  0
 14 20  1  0  0  0  0
 14 40  1  0  0  0  0
 14 41  1  0  0  0  0
 15 42  1  0  0  0  0
 15 43  1  0  0  0  0
 15 44  1  0  0  0  0
 16 45  1  0  0  0  0
 16 46  1  0  0  0  0
 16 47  1  0  0  0  0
 17 48  1  0  0  0  0
 17 49  1  0  0  0  0
 17 50  1  0  0  0  0
 18 21  1  0  0  0  0
 18 51  1  0  0  0  0
 18 52  1  0  0  0  0
 19 22  1  0  0  0  0
 19 53  1  0  0  0  0
 19 54  1  0  0  0  0
 21 55  1  0  0  0  0
 21 56  1  0  0  0  0
 22 57  1  0  0  0  0
 22 58  1  0  0  0  0
 23 24  1  0  0  0  0
 24 25  2  0  0  0  0
 24 26  1  0  0  0  0
 25 27  1  0  0  0  0
 25 59  1  0  0  0  0
 26 28  2  0  0  0  0
 26 60  1  0  0  0  0
 27 29  2  0  0  0  0
 27 61  1  0  0  0  0
 28 29  1  0  0  0  0
 28 62  1  0  0  0  0
 29 30  1  0  0  0  0
 30 63  1  0  0  0  0
 30 64  1  0  0  0  0
 30 65  1  0  0  0  0
M  END
> <PUBCHEM_COMPOUND_CID>
38030682

> <PUBCHEM_CONFORMER_RMSD>
1

> <PUBCHEM_CONFORMER_DIVERSEORDER>
8
169
5
135
186
131
124
104
55
170
187
153
182
20
43
59
132
28
198
45
76
173
62
151
164
142
82
14
204
157
74
84
165
42
125
144
183
197
65
9
101
4
123
108
44
13
115
102
184
199
139
190
61
71
200
23
206
66
77
195
88
194
63
50
29
96
130
111
30
86
83
56
118
70
106
143
36
79
11
80
201
25
185
15
179
158
141
168
193
150
105
149
110
161
92
136
72
38
91
78
6
2
152
146
155
67
35
202
64
100
163
12
41
93
40
207
181
27
48
109
97
68
177
159
128
98
180
17
203
103
32
129
126
90
112
148
24
87
119
7
54
192
107
31
26
22
75
127
58
122
16
178
49
53
189
89
47
99
113
33
120
57
191
69
85
114
121
167
138
10
37
3
174
117
156
137
18
176
19
39
133
166
208
140
46
147
196
95
81
94
175
171
51
52
172
21
160
154
145
73
205
116
134
34
1
60
188
162

> <PUBCHEM_MMFF94_PARTIAL_CHARGES>
30
1 -0.56
11 0.27
12 -0.29
13 -0.28
14 0.18
17 0.14
18 0.27
19 0.27
2 -0.28
20 0.3
21 0.28
22 0.28
23 0.43
24 0.05
25 -0.15
26 -0.15
27 -0.15
28 -0.15
29 -0.14
3 -0.81
30 0.14
39 0.15
4 -0.34
5 -0.34
59 0.15
60 0.15
61 0.15
62 0.15
7 0.14
9 0.14

> <PUBCHEM_EFFECTIVE_ROTOR_COUNT>
8

> <PUBCHEM_PHARMACOPHORE_FEATURES>
7
1 1 acceptor
1 3 cation
3 10 15 16 hydrophobe
5 2 4 5 20 23 rings
6 1 3 18 19 21 22 rings
6 24 25 26 27 28 29 rings
6 6 7 8 9 12 13 rings

> <PUBCHEM_HEAVY_ATOM_COUNT>
30

> <PUBCHEM_ATOM_DEF_STEREO_COUNT>
3

> <PUBCHEM_ATOM_UDEF_STEREO_COUNT>
0

> <PUBCHEM_BOND_DEF_STEREO_COUNT>
0

> <PUBCHEM_BOND_UDEF_STEREO_COUNT>
0

> <PUBCHEM_ISOTOPIC_ATOM_COUNT>
0

> <PUBCHEM_COMPONENT_COUNT>
1

> <PUBCHEM_CACTVS_TAUTO_COUNT>
1

> <PUBCHEM_CONFORMER_ID>
02444D5A00000008

> <PUBCHEM_MMFF94_ENERGY>
60.0671

> <PUBCHEM_FEATURE_SELFOVERLAP>
35.522

> <PUBCHEM_SHAPE_FINGERPRINT>
10165383 225 9799695900013626677
10670039 82 13695856027000863639
11443803 9 18119249459870930049
11513181 2 17972314006477368682
12218070 45 16987987440239010887
12390115 104 9367343726337903285
12555020 224 16732988630330874993
12596602 18 17560517305693021154
12838863 1 17822004316035399650
13165053 103 17749673983058055603
13782708 43 18268432344014209598
14068700 675 18113898260487959988
14932701 244 17632862992698187107
14951699 99 11959473179641120739
15052358 14 15213014959784207743
15183329 4 14418127409497896670
15188451 53 18187080642420776662
15320295 40 17749659757888739958
17349148 13 17822024076794403420
19377110 9 16630533924878166354
19958102 18 16153426151235511411
20028762 73 18409730656003249014
20775438 99 17615118224131377163
21756936 100 14404890380964615884
21987483 16 18196362839499233122
23389318 12 17095529488053215446
23559900 14 17095816528236974828
3004659 81 14996286920936865986
3383291 50 17894917338313955402
339767 52 16805328769430589394
3633792 109 17095239224534115612
392239 28 16200146620971827295
397830 11 17918273134810228084
4015057 19 17822303438742669765
4058900 60 9222966884559473277
4280585 95 18412539942829670775
484989 97 16806179894378205387
50009960 94 17343772975423635135
5080951 261 18338507539866973829
5104073 3 16988013673756685790
5718773 13 18334856142806654367
59682541 52 13984654859053096106
6328613 192 8142080974867539222
6703917 75 11311479359906152676
9689198 14 11023830608114310422

> <PUBCHEM_SHAPE_MULTIPOLES>
590.7
19.22
2.98
2.29
19.95
2.27
1.14
-17.51
3.1
-3.85
-0.68
-0.49
-0.59
-1.02

> <PUBCHEM_SHAPE_SELFOVERLAP>
1245.785

> <PUBCHEM_SHAPE_VOLUME>
331.6

> <PUBCHEM_COORDINATE_TYPE>
2
5
10

$$$$
