7143846
  -OEChem-12032416213D

 54 57  0     1  0  0  0  0  0999 V2000
    3.8256   -1.5332   -0.3355 S   0  0  0  0  0  0  0  0  0  0  0  0
   -7.5367   -1.6989    0.0046 S   0  0  0  0  0  0  0  0  0  0  0  0
    3.8400   -1.9682   -1.7152 O   0  0  0  0  0  0  0  0  0  0  0  0
    3.3107   -2.3759    0.7218 O   0  0  0  0  0  0  0  0  0  0  0  0
   -1.6252    0.8169   -1.7419 O   0  0  0  0  0  0  0  0  0  0  0  0
    3.0583   -0.0065   -0.2467 N   0  0  2  0  0  0  0  0  0  0  0  0
    0.1972    1.3273   -0.3790 N   0  0  0  0  0  0  0  0  0  0  0  0
    2.4304    2.1604   -1.3165 C   0  0  1  0  0  0  0  0  0  0  0  0
    2.1563    1.8739    1.1070 C   0  0  2  0  0  0  0  0  0  0  0  0
    2.5686    2.8680    0.0249 C   0  0  0  0  0  0  0  0  0  0  0  0
    3.3458    0.9264   -1.3736 C   0  0  0  0  0  0  0  0  0  0  0  0
    3.1098    0.6654    1.0862 C   0  0  0  0  0  0  0  0  0  0  0  0
    0.9555    1.8065   -1.5430 C   0  0  0  0  0  0  0  0  0  0  0  0
    0.7222    1.4181    0.9122 C   0  0  0  0  0  0  0  0  0  0  0  0
   -0.0324    1.0832    1.9709 C   0  0  0  0  0  0  0  0  0  0  0  0
   -1.1156    0.8769   -0.6214 C   0  0  0  0  0  0  0  0  0  0  0  0
    5.4751   -1.0489    0.1037 C   0  0  0  0  0  0  0  0  0  0  0  0
   -1.9246    0.4742    0.5822 C   0  0  0  0  0  0  0  0  0  0  0  0
   -1.3726    0.5990    1.7984 C   0  0  0  0  0  0  0  0  0  0  0  0
    6.4187   -2.2402    0.1092 C   0  0  0  0  0  0  0  0  0  0  0  0
   -3.2921   -0.0553    0.4407 C   0  0  0  0  0  0  0  0  0  0  0  0
    7.8279   -1.8313    0.5044 C   0  0  0  0  0  0  0  0  0  0  0  0
   -4.3830    0.8144    0.4596 C   0  0  0  0  0  0  0  0  0  0  0  0
   -3.4976   -1.4270    0.2880 C   0  0  0  0  0  0  0  0  0  0  0  0
   -5.6778    0.3129    0.3262 C   0  0  0  0  0  0  0  0  0  0  0  0
   -4.7924   -1.9282    0.1545 C   0  0  0  0  0  0  0  0  0  0  0  0
   -5.8826   -1.0583    0.1736 C   0  0  0  0  0  0  0  0  0  0  0  0
   -8.1095   -0.8516   -1.4951 C   0  0  0  0  0  0  0  0  0  0  0  0
    2.7448    2.8386   -2.1198 H   0  0  0  0  0  0  0  0  0  0  0  0
    2.2541    2.3726    2.0804 H   0  0  0  0  0  0  0  0  0  0  0  0
    1.9359    3.7640    0.0567 H   0  0  0  0  0  0  0  0  0  0  0  0
    3.6026    3.1996    0.1797 H   0  0  0  0  0  0  0  0  0  0  0  0
    3.1906    0.4161   -2.3301 H   0  0  0  0  0  0  0  0  0  0  0  0
    4.3901    1.2538   -1.3273 H   0  0  0  0  0  0  0  0  0  0  0  0
    4.1236    1.0237    1.2924 H   0  0  0  0  0  0  0  0  0  0  0  0
    2.8268   -0.0432    1.8726 H   0  0  0  0  0  0  0  0  0  0  0  0
    0.4287    2.7073   -1.8870 H   0  0  0  0  0  0  0  0  0  0  0  0
    0.8548    1.0722   -2.3521 H   0  0  0  0  0  0  0  0  0  0  0  0
    0.3532    1.1376    2.9836 H   0  0  0  0  0  0  0  0  0  0  0  0
    5.4567   -0.6177    1.1068 H   0  0  0  0  0  0  0  0  0  0  0  0
    5.8233   -0.3030   -0.6148 H   0  0  0  0  0  0  0  0  0  0  0  0
   -1.9122    0.3215    2.6993 H   0  0  0  0  0  0  0  0  0  0  0  0
    6.0577   -3.0053    0.8065 H   0  0  0  0  0  0  0  0  0  0  0  0
    6.4434   -2.7056   -0.8830 H   0  0  0  0  0  0  0  0  0  0  0  0
    8.4905   -2.7024    0.5000 H   0  0  0  0  0  0  0  0  0  0  0  0
    8.2330   -1.0931   -0.1951 H   0  0  0  0  0  0  0  0  0  0  0  0
    7.8438   -1.3979    1.5095 H   0  0  0  0  0  0  0  0  0  0  0  0
   -4.2395    1.8857    0.5785 H   0  0  0  0  0  0  0  0  0  0  0  0
   -2.6578   -2.1176    0.2703 H   0  0  0  0  0  0  0  0  0  0  0  0
   -6.5123    1.0091    0.3511 H   0  0  0  0  0  0  0  0  0  0  0  0
   -4.9322   -3.0000    0.0362 H   0  0  0  0  0  0  0  0  0  0  0  0
   -8.1889    0.2253   -1.3255 H   0  0  0  0  0  0  0  0  0  0  0  0
   -9.0974   -1.2333   -1.7662 H   0  0  0  0  0  0  0  0  0  0  0  0
   -7.4223   -1.0400   -2.3244 H   0  0  0  0  0  0  0  0  0  0  0  0
  1  3  2  0  0  0  0
  1  4  2  0  0  0  0
  1  6  1  0  0  0  0
  1 17  1  0  0  0  0
  2 27  1  0  0  0  0
  2 28  1  0  0  0  0
  5 16  2  0  0  0  0
  6 11  1  0  0  0  0
  6 12  1  0  0  0  0
  7 13  1  0  0  0  0
  7 14  1  0  0  0  0
  7 16  1  0  0  0  0
  8 10  1  0  0  0  0
  8 11  1  0  0  0  0
  8 13  1  0  0  0  0
  8 29  1  0  0  0  0
  9 10  1  0  0  0  0
  9 12  1  0  0  0  0
  9 14  1  0  0  0  0
  9 30  1  0  0  0  0
 10 31  1  0  0  0  0
 10 32  1  0  0  0  0
 11 33  1  0  0  0  0
 11 34  1  0  0  0  0
 12 35  1  0  0  0  0
 12 36  1  0  0  0  0
 13 37  1  0  0  0  0
 13 38  1  0  0  0  0
 14 15  2  0  0  0  0
 15 19  1  0  0  0  0
 15 39  1  0  0  0  0
 16 18  1  0  0  0  0
 17 20  1  0  0  0  0
 17 40  1  0  0  0  0
 17 41  1  0  0  0  0
 18 19  2  0  0  0  0
 18 21  1  0  0  0  0
 19 42  1  0  0  0  0
 20 22  1  0  0  0  0
 20 43  1  0  0  0  0
 20 44  1  0  0  0  0
 21 23  2  0  0  0  0
 21 24  1  0  0  0  0
 22 45  1  0  0  0  0
 22 46  1  0  0  0  0
 22 47  1  0  0  0  0
 23 25  1  0  0  0  0
 23 48  1  0  0  0  0
 24 26  2  0  0  0  0
 24 49  1  0  0  0  0
 25 27  2  0  0  0  0
 25 50  1  0  0  0  0
 26 27  1  0  0  0  0
 26 51  1  0  0  0  0
 28 52  1  0  0  0  0
 28 53  1  0  0  0  0
 28 54  1  0  0  0  0
M  END
> <PUBCHEM_COMPOUND_CID>
7143846

> <PUBCHEM_CONFORMER_RMSD>
0.8

> <PUBCHEM_CONFORMER_DIVERSEORDER>
1
8
17
16
18
2
5
3
15
4
7
12
10
11
14
6
13
9

> <PUBCHEM_MMFF94_PARTIAL_CHARGES>
30
1 1.33
11 0.36
12 0.36
13 0.3
14 -0.03
15 -0.15
16 0.62
17 0.11
18 -0.01
19 -0.15
2 -0.33
21 0.03
23 -0.15
24 -0.15
25 -0.15
26 -0.15
27 0.1
28 0.23
3 -0.65
39 0.15
4 -0.65
42 0.15
48 0.15
49 0.15
5 -0.57
50 0.15
51 0.15
6 -0.85
7 -0.47
9 0.14

> <PUBCHEM_EFFECTIVE_ROTOR_COUNT>
6

> <PUBCHEM_PHARMACOPHORE_FEATURES>
9
1 22 hydrophobe
1 28 hydrophobe
1 3 acceptor
1 4 acceptor
1 5 acceptor
6 21 23 24 25 26 27 rings
6 6 8 9 10 11 12 rings
6 7 14 15 16 18 19 rings
6 7 8 9 10 13 14 rings

> <PUBCHEM_HEAVY_ATOM_COUNT>
28

> <PUBCHEM_ATOM_DEF_STEREO_COUNT>
2

> <PUBCHEM_ATOM_UDEF_STEREO_COUNT>
0

> <PUBCHEM_BOND_DEF_STEREO_COUNT>
0

> <PUBCHEM_BOND_UDEF_STEREO_COUNT>
0

> <PUBCHEM_ISOTOPIC_ATOM_COUNT>
0

> <PUBCHEM_COMPONENT_COUNT>
1

> <PUBCHEM_CACTVS_TAUTO_COUNT>
1

> <PUBCHEM_CONFORMER_ID>
006D01A600000001

> <PUBCHEM_MMFF94_ENERGY>
64.7899

> <PUBCHEM_FEATURE_SELFOVERLAP>
47.272

> <PUBCHEM_SHAPE_FINGERPRINT>
10670039 82 14923939020757590287
11135609 99 18202281441777180918
11724838 91 10735870678006358785
11796584 16 18130520733432693855
12107183 9 18195819474876354049
12522641 33 18042692879063401996
12633257 1 14261056663311871442
12892183 10 16557913282719533208
12895836 83 12396592857187975402
13533116 47 18342459287635721009
13583140 156 17916584396540447329
13782708 43 17703229637586291695
14068700 675 18411420579731385424
14251751 18 18410857646451274726
14347332 77 18343866619975913121
15183329 4 18040150708978354479
15475509 35 18131630097114385075
15475509 8 17530683195944920885
15510800 12 18342471338903412911
17349148 13 16056891251495482625
17857418 61 18343868831451404327
19784866 240 18412269410896932336
19958102 18 18334849546686434343
21033648 29 14332861361201397841
21033650 10 16371000759604802341
21344244 78 17275103929686669976
21637258 2 18411136918236291688
21641784 216 14923931341920528927
23559900 14 18335984280644769969
23569943 247 17968093054373561963
25222932 49 17272286022880853287
2838139 119 8430300326249385834
29717793 49 18187641449328195461
3004659 81 18407757045093650323
376196 1 15796541376104499356
3886686 26 16480251369876400199
4066623 53 15791449332008366542
4098825 35 17967817124278750996
4340502 62 18058446676621966832
439807 62 18187085044193101447
46194498 28 17676489492443066244
463206 1 18270682090079354643
5104073 3 17632307804219999417
513532 50 17677044763005699832
59682541 35 12679456521960001447
59682541 52 17967811652701184559
6438161 24 18412259549736663459
6695519 79 17260775338507764976
8988823 20 17846216717430120601
960060 61 17895486898279534036

> <PUBCHEM_SHAPE_MULTIPOLES>
556.36
18.68
2.76
1.54
14.79
0.19
-0.14
17.5
-2.31
-3.61
-0.21
-0.15
-0.55
-0.57

> <PUBCHEM_SHAPE_SELFOVERLAP>
1162.605

> <PUBCHEM_SHAPE_VOLUME>
317.7

> <PUBCHEM_COORDINATE_TYPE>
2
5
10

$$$$
