75368543
  -OEChem-12032416383D

 37 39  0     1  0  0  0  0  0999 V2000
    5.9358    0.0494    0.4132 O   0  0  0  0  0  0  0  0  0  0  0  0
   -5.5607    1.6788   -0.3695 O   0  0  0  0  0  0  0  0  0  0  0  0
   -5.8132    0.3788    1.4778 O   0  0  0  0  0  0  0  0  0  0  0  0
    3.5864   -0.0826    0.3973 N   0  0  0  0  0  0  0  0  0  0  0  0
    1.0105   -1.0509   -0.1802 N   0  0  2  0  0  0  0  0  0  0  0  0
    4.5570    1.9096    0.0307 N   0  0  0  0  0  0  0  0  0  0  0  0
    2.4840    0.8534    0.3284 C   0  0  2  0  0  0  0  0  0  0  0  0
    1.3883    0.3165   -0.5918 C   0  0  0  0  0  0  0  0  0  0  0  0
    3.3142   -1.4822    0.6492 C   0  0  0  0  0  0  0  0  0  0  0  0
    3.1418    2.1480   -0.1423 C   0  0  0  0  0  0  0  0  0  0  0  0
    2.1711   -1.9619   -0.2489 C   0  0  0  0  0  0  0  0  0  0  0  0
    4.8275    0.5546    0.2998 C   0  0  0  0  0  0  0  0  0  0  0  0
   -0.0799   -1.5515   -1.0170 C   0  0  0  0  0  0  0  0  0  0  0  0
   -1.4067   -0.9595   -0.6224 C   0  0  0  0  0  0  0  0  0  0  0  0
   -2.0638   -1.4204    0.5185 C   0  0  0  0  0  0  0  0  0  0  0  0
   -1.9790    0.0493   -1.3972 C   0  0  0  0  0  0  0  0  0  0  0  0
   -3.2930   -0.8723    0.8845 C   0  0  0  0  0  0  0  0  0  0  0  0
   -3.2083    0.5973   -1.0312 C   0  0  0  0  0  0  0  0  0  0  0  0
   -3.8654    0.1366    0.1097 C   0  0  0  0  0  0  0  0  0  0  0  0
   -5.1466    0.7090    0.4913 C   0  0  0  0  0  0  0  0  0  0  0  0
    2.1017    0.9753    1.3504 H   0  0  0  0  0  0  0  0  0  0  0  0
    0.5366    1.0019   -0.5269 H   0  0  0  0  0  0  0  0  0  0  0  0
    1.7335    0.3157   -1.6347 H   0  0  0  0  0  0  0  0  0  0  0  0
    3.0388   -1.5750    1.7061 H   0  0  0  0  0  0  0  0  0  0  0  0
    4.2234   -2.0684    0.4826 H   0  0  0  0  0  0  0  0  0  0  0  0
    2.8415    3.0134    0.4546 H   0  0  0  0  0  0  0  0  0  0  0  0
    2.9653    2.3596   -1.2014 H   0  0  0  0  0  0  0  0  0  0  0  0
    2.5290   -2.0378   -1.2845 H   0  0  0  0  0  0  0  0  0  0  0  0
    1.8827   -2.9692    0.0746 H   0  0  0  0  0  0  0  0  0  0  0  0
    5.2768    2.6117   -0.1082 H   0  0  0  0  0  0  0  0  0  0  0  0
   -0.1790   -2.6403   -0.9029 H   0  0  0  0  0  0  0  0  0  0  0  0
    0.1206   -1.3928   -2.0855 H   0  0  0  0  0  0  0  0  0  0  0  0
   -1.6279   -2.2058    1.1304 H   0  0  0  0  0  0  0  0  0  0  0  0
   -1.4773    0.4173   -2.2884 H   0  0  0  0  0  0  0  0  0  0  0  0
   -3.7888   -1.2449    1.7770 H   0  0  0  0  0  0  0  0  0  0  0  0
   -3.6175    1.3808   -1.6628 H   0  0  0  0  0  0  0  0  0  0  0  0
   -6.4253    2.0583   -0.1032 H   0  0  0  0  0  0  0  0  0  0  0  0
  1 12  2  0  0  0  0
  2 20  1  0  0  0  0
  2 37  1  0  0  0  0
  3 20  2  0  0  0  0
  4  7  1  0  0  0  0
  4  9  1  0  0  0  0
  4 12  1  0  0  0  0
  5  8  1  0  0  0  0
  5 11  1  0  0  0  0
  5 13  1  0  0  0  0
  6 10  1  0  0  0  0
  6 12  1  0  0  0  0
  6 30  1  0  0  0  0
  7  8  1  0  0  0  0
  7 10  1  0  0  0  0
  7 21  1  0  0  0  0
  8 22  1  0  0  0  0
  8 23  1  0  0  0  0
  9 11  1  0  0  0  0
  9 24  1  0  0  0  0
  9 25  1  0  0  0  0
 10 26  1  0  0  0  0
 10 27  1  0  0  0  0
 11 28  1  0  0  0  0
 11 29  1  0  0  0  0
 13 14  1  0  0  0  0
 13 31  1  0  0  0  0
 13 32  1  0  0  0  0
 14 15  2  0  0  0  0
 14 16  1  0  0  0  0
 15 17  1  0  0  0  0
 15 33  1  0  0  0  0
 16 18  2  0  0  0  0
 16 34  1  0  0  0  0
 17 19  2  0  0  0  0
 17 35  1  0  0  0  0
 18 19  1  0  0  0  0
 18 36  1  0  0  0  0
 19 20  1  0  0  0  0
M  END
> <PUBCHEM_COMPOUND_CID>
75368543

> <PUBCHEM_CONFORMER_RMSD>
0.6

> <PUBCHEM_CONFORMER_DIVERSEORDER>
1
32
20
16
26
27
21
31
25
24
18
10
15
28
5
4
29
17
33
11
22
19
2
13
12
6
8
30
7
23
9
3
14

> <PUBCHEM_MMFF94_PARTIAL_CHARGES>
26
1 -0.57
10 0.3
11 0.27
12 0.69
13 0.41
14 -0.14
15 -0.15
16 -0.15
17 -0.15
18 -0.15
19 0.09
2 -0.65
20 0.63
3 -0.57
30 0.37
33 0.15
34 0.15
35 0.15
36 0.15
37 0.5
4 -0.66
5 -0.81
6 -0.73
7 0.3
8 0.27
9 0.3

> <PUBCHEM_EFFECTIVE_ROTOR_COUNT>
4.2

> <PUBCHEM_PHARMACOPHORE_FEATURES>
9
1 1 acceptor
1 2 acceptor
1 3 acceptor
1 5 cation
1 6 donor
3 2 3 20 anion
5 4 6 7 10 12 rings
6 14 15 16 17 18 19 rings
6 4 5 7 8 9 11 rings

> <PUBCHEM_HEAVY_ATOM_COUNT>
20

> <PUBCHEM_ATOM_DEF_STEREO_COUNT>
1

> <PUBCHEM_ATOM_UDEF_STEREO_COUNT>
0

> <PUBCHEM_BOND_DEF_STEREO_COUNT>
0

> <PUBCHEM_BOND_UDEF_STEREO_COUNT>
0

> <PUBCHEM_ISOTOPIC_ATOM_COUNT>
0

> <PUBCHEM_COMPONENT_COUNT>
1

> <PUBCHEM_CACTVS_TAUTO_COUNT>
2

> <PUBCHEM_CONFORMER_ID>
047E085F00000001

> <PUBCHEM_MMFF94_ENERGY>
51.9523

> <PUBCHEM_FEATURE_SELFOVERLAP>
45.824

> <PUBCHEM_SHAPE_FINGERPRINT>
10354089 29 18410013238848601138
11089746 13 17417804063234548192
11370993 144 18186518778587971491
11724838 91 18341895229744436503
12236239 1 17561080306537008574
12403259 415 18114464436293707775
12507560 40 18040712520206403399
12596602 18 14779269721544323548
12633257 1 17313106405415868789
12670546 177 11384115241235472369
12788726 201 17560807571961489297
12892183 10 17313378981399794127
13583140 156 17096066048529967383
13675066 3 17821733810610370879
13785724 45 17693096266977598810
1420 369 12540688215241725920
14251764 38 18054792784914194609
14251764 75 18125166179961366856
14341114 176 18114184116272893544
14350574 20 9799687112774016759
15163728 17 16055494755948765265
15183329 4 9150902642365565355
15188451 53 16298678291139650195
15342168 16 18272373083386210231
17857418 61 10953458535637464273
1813 80 14634873024221897351
193927 3 11458421306492660505
19784866 170 18333452049145960767
19784866 9 18411698794590301010
20157964 124 18341610366064740791
20374829 77 10375872957348311831
20645477 56 18186799171486066263
20871999 31 12175630559801396123
21033648 29 17895736453297152125
21065199 12 18113337496741210403
22393880 68 11959731534481361525
23402539 116 17060615620549894012
23403322 49 9223239546057063293
23557571 272 13757489194044741471
23559900 14 17823998752813537967
2838139 119 17560798814718305513
312425 54 17603877659236120305
314194 84 11241973676574055565
3472631 163 16486966323689414681
3545911 37 18409450284273164818
4259306 186 9007056859801448961
4325135 7 18131630119575580671
465052 167 11963688702884231617
474 4 18272651229642193703
5104073 3 18263632039307865154
5924683 9 18188492509919964219
602551 16 16081092610065238538
633830 44 18341891961216023150
8272917 22 18343022155895528278
960060 61 10231751193319018203

> <PUBCHEM_SHAPE_MULTIPOLES>
379.04
12.94
1.92
1.06
2.9
0.11
0.07
5.98
-3.81
-1.22
0.09
1
-0.09
0.07

> <PUBCHEM_SHAPE_SELFOVERLAP>
810.844

> <PUBCHEM_SHAPE_VOLUME>
210.5

> <PUBCHEM_COORDINATE_TYPE>
2
5
10

$$$$
