25390244
  -OEChem-12032416253D

 58 60  0     1  0  0  0  0  0999 V2000
   -0.7332   -1.6203   -0.5642 O   0  0  0  0  0  0  0  0  0  0  0  0
    1.3495   -4.3800    0.4083 O   0  0  0  0  0  0  0  0  0  0  0  0
   -0.8164   -4.5774   -1.2764 O   0  0  0  0  0  0  0  0  0  0  0  0
    1.6552   -0.3441   -1.8754 O   0  0  0  0  0  0  0  0  0  0  0  0
   -4.6200    3.7424   -0.6564 O   0  0  0  0  0  0  0  0  0  0  0  0
   -1.5101    0.4479    1.3327 O   0  0  0  0  0  0  0  0  0  0  0  0
    2.8042    0.8205   -0.2260 N   0  0  0  0  0  0  0  0  0  0  0  0
   -3.2341   -0.8864    0.6174 N   0  0  0  0  0  0  0  0  0  0  0  0
   -3.4316    1.4676    0.5272 N   0  0  0  0  0  0  0  0  0  0  0  0
    0.5615   -2.2019   -0.3302 C   0  0  2  0  0  0  0  0  0  0  0  0
    0.3106   -3.4316    0.5260 C   0  0  1  0  0  0  0  0  0  0  0  0
   -1.0130   -3.9201   -0.0251 C   0  0  1  0  0  0  0  0  0  0  0  0
   -1.7495   -2.6113   -0.2885 C   0  0  1  0  0  0  0  0  0  0  0  0
    1.4684   -1.1809    0.3333 C   0  0  0  0  0  0  0  0  0  0  0  0
    5.3058    2.1687    0.3561 C   0  0  0  0  0  0  0  0  0  0  0  0
    4.7275    1.0960    1.2915 C   0  0  0  0  0  0  0  0  0  0  0  0
    4.8300    1.9289   -1.0848 C   0  0  0  0  0  0  0  0  0  0  0  0
    3.2065    1.0158    1.1718 C   0  0  0  0  0  0  0  0  0  0  0  0
    3.3077    1.8335   -1.1550 C   0  0  0  0  0  0  0  0  0  0  0  0
   -2.5568   -2.1299    0.9093 C   0  0  0  0  0  0  0  0  0  0  0  0
    1.9790   -0.2016   -0.6934 C   0  0  0  0  0  0  0  0  0  0  0  0
    6.8307    2.1881    0.4287 C   0  0  0  0  0  0  0  0  0  0  0  0
   -2.6459    0.3501    0.8565 C   0  0  0  0  0  0  0  0  0  0  0  0
   -2.8929    2.8108    0.7533 C   0  0  0  0  0  0  0  0  0  0  0  0
   -4.8386    1.4431    0.1024 C   0  0  0  0  0  0  0  0  0  0  0  0
   -3.2118    3.7298   -0.4155 C   0  0  0  0  0  0  0  0  0  0  0  0
   -5.0825    2.4422   -1.0236 C   0  0  0  0  0  0  0  0  0  0  0  0
    0.9696   -2.5212   -1.2983 H   0  0  0  0  0  0  0  0  0  0  0  0
    0.2022   -3.1527    1.5811 H   0  0  0  0  0  0  0  0  0  0  0  0
   -1.5331   -4.6139    0.6415 H   0  0  0  0  0  0  0  0  0  0  0  0
   -2.3910   -2.6720   -1.1754 H   0  0  0  0  0  0  0  0  0  0  0  0
    2.3353   -1.6866    0.7732 H   0  0  0  0  0  0  0  0  0  0  0  0
    0.9244   -0.6343    1.1097 H   0  0  0  0  0  0  0  0  0  0  0  0
    4.9380    3.1501    0.6842 H   0  0  0  0  0  0  0  0  0  0  0  0
    5.0014    1.3148    2.3301 H   0  0  0  0  0  0  0  0  0  0  0  0
    5.1596    0.1181    1.0424 H   0  0  0  0  0  0  0  0  0  0  0  0
    5.2672    0.9974   -1.4670 H   0  0  0  0  0  0  0  0  0  0  0  0
    5.1763    2.7394   -1.7365 H   0  0  0  0  0  0  0  0  0  0  0  0
    2.7470    1.9513    1.5127 H   0  0  0  0  0  0  0  0  0  0  0  0
    2.8377    0.2208    1.8219 H   0  0  0  0  0  0  0  0  0  0  0  0
    2.9990    1.6102   -2.1810 H   0  0  0  0  0  0  0  0  0  0  0  0
    2.8497    2.7900   -0.8763 H   0  0  0  0  0  0  0  0  0  0  0  0
   -1.9168   -1.9775    1.7852 H   0  0  0  0  0  0  0  0  0  0  0  0
   -3.3271   -2.8628    1.1707 H   0  0  0  0  0  0  0  0  0  0  0  0
    7.2575    1.2305    0.1115 H   0  0  0  0  0  0  0  0  0  0  0  0
    7.1677    2.3867    1.4515 H   0  0  0  0  0  0  0  0  0  0  0  0
    7.2397    2.9717   -0.2176 H   0  0  0  0  0  0  0  0  0  0  0  0
    1.0692   -5.1797    0.8850 H   0  0  0  0  0  0  0  0  0  0  0  0
   -1.6924   -4.8388   -1.6081 H   0  0  0  0  0  0  0  0  0  0  0  0
   -4.1506   -0.9684    0.2017 H   0  0  0  0  0  0  0  0  0  0  0  0
   -1.8129    2.7799    0.9261 H   0  0  0  0  0  0  0  0  0  0  0  0
   -3.3709    3.1836    1.6670 H   0  0  0  0  0  0  0  0  0  0  0  0
   -5.4231    1.7294    0.9850 H   0  0  0  0  0  0  0  0  0  0  0  0
   -5.1815    0.4606   -0.2163 H   0  0  0  0  0  0  0  0  0  0  0  0
   -2.9003    4.7533   -0.1852 H   0  0  0  0  0  0  0  0  0  0  0  0
   -2.6889    3.4164   -1.3269 H   0  0  0  0  0  0  0  0  0  0  0  0
   -4.5814    2.1280   -1.9471 H   0  0  0  0  0  0  0  0  0  0  0  0
   -6.1542    2.5139   -1.2345 H   0  0  0  0  0  0  0  0  0  0  0  0
  1 10  1  0  0  0  0
  1 13  1  0  0  0  0
  2 11  1  0  0  0  0
  2 48  1  0  0  0  0
  3 12  1  0  0  0  0
  3 49  1  0  0  0  0
  4 21  2  0  0  0  0
  5 26  1  0  0  0  0
  5 27  1  0  0  0  0
  6 23  2  0  0  0  0
  7 18  1  0  0  0  0
  7 19  1  0  0  0  0
  7 21  1  0  0  0  0
  8 20  1  0  0  0  0
  8 23  1  0  0  0  0
  8 50  1  0  0  0  0
  9 23  1  0  0  0  0
  9 24  1  0  0  0  0
  9 25  1  0  0  0  0
 10 11  1  0  0  0  0
 10 14  1  0  0  0  0
 10 28  1  0  0  0  0
 11 12  1  0  0  0  0
 11 29  1  0  0  0  0
 12 13  1  0  0  0  0
 12 30  1  0  0  0  0
 13 20  1  0  0  0  0
 13 31  1  0  0  0  0
 14 21  1  0  0  0  0
 14 32  1  0  0  0  0
 14 33  1  0  0  0  0
 15 16  1  0  0  0  0
 15 17  1  0  0  0  0
 15 22  1  0  0  0  0
 15 34  1  0  0  0  0
 16 18  1  0  0  0  0
 16 35  1  0  0  0  0
 16 36  1  0  0  0  0
 17 19  1  0  0  0  0
 17 37  1  0  0  0  0
 17 38  1  0  0  0  0
 18 39  1  0  0  0  0
 18 40  1  0  0  0  0
 19 41  1  0  0  0  0
 19 42  1  0  0  0  0
 20 43  1  0  0  0  0
 20 44  1  0  0  0  0
 22 45  1  0  0  0  0
 22 46  1  0  0  0  0
 22 47  1  0  0  0  0
 24 26  1  0  0  0  0
 24 51  1  0  0  0  0
 24 52  1  0  0  0  0
 25 27  1  0  0  0  0
 25 53  1  0  0  0  0
 25 54  1  0  0  0  0
 26 55  1  0  0  0  0
 26 56  1  0  0  0  0
 27 57  1  0  0  0  0
 27 58  1  0  0  0  0
M  END
> <PUBCHEM_COMPOUND_CID>
25390244

> <PUBCHEM_CONFORMER_RMSD>
1

> <PUBCHEM_CONFORMER_DIVERSEORDER>
1
80
152
15
159
165
97
40
130
68
79
45
121
200
127
55
57
94
104
146
141
126
17
179
65
129
81
24
176
119
174
90
154
148
25
54
14
58
188
181
168
180
98
20
92
43
191
143
139
105
193
19
93
73
160
3
182
151
187
31
6
136
117
172
61
107
60
71
21
183
39
202
186
175
42
147
96
62
46
89
166
35
137
162
8
44
70
100
144
149
51
30
23
178
189
133
66
49
76
109
190
95
86
125
131
197
36
99
102
83
192
184
108
132
11
37
140
157
84
38
161
2
67
26
87
199
47
10
12
155
153
158
128
64
82
77
122
156
48
169
52
124
145
29
4
123
173
34
164
88
135
194
171
32
5
22
78
69
75
101
85
177
150
111
106
113
18
134
27
170
114
28
116
138
196
198
41
118
120
167
103
115
13
195
16
7
142
110
201
63
53
9
203
33
112
74
72
185
56
91
50
163
59

> <PUBCHEM_MMFF94_PARTIAL_CHARGES>
26
1 -0.56
10 0.28
11 0.28
12 0.28
13 0.28
14 0.06
18 0.3
19 0.3
2 -0.68
20 0.3
21 0.57
23 0.69
24 0.3
25 0.3
26 0.28
27 0.28
3 -0.68
4 -0.57
48 0.4
49 0.4
5 -0.56
50 0.37
6 -0.57
7 -0.66
8 -0.73
9 -0.66

> <PUBCHEM_EFFECTIVE_ROTOR_COUNT>
10.4

> <PUBCHEM_PHARMACOPHORE_FEATURES>
12
1 1 acceptor
1 2 acceptor
1 2 donor
1 3 acceptor
1 3 donor
1 4 acceptor
1 5 acceptor
1 6 acceptor
1 8 donor
5 1 10 11 12 13 rings
6 5 9 24 25 26 27 rings
6 7 15 16 17 18 19 rings

> <PUBCHEM_HEAVY_ATOM_COUNT>
27

> <PUBCHEM_ATOM_DEF_STEREO_COUNT>
4

> <PUBCHEM_ATOM_UDEF_STEREO_COUNT>
0

> <PUBCHEM_BOND_DEF_STEREO_COUNT>
0

> <PUBCHEM_BOND_UDEF_STEREO_COUNT>
0

> <PUBCHEM_ISOTOPIC_ATOM_COUNT>
0

> <PUBCHEM_COMPONENT_COUNT>
1

> <PUBCHEM_CACTVS_TAUTO_COUNT>
2

> <PUBCHEM_CONFORMER_ID>
01836CA400000001

> <PUBCHEM_MMFF94_ENERGY>
56.2683

> <PUBCHEM_FEATURE_SELFOVERLAP>
60.913

> <PUBCHEM_SHAPE_FINGERPRINT>
10937287 8 18411138004715330935
11135609 127 17977651032267333989
11135609 187 18339357462693322305
11370993 70 18337953385710980257
12107183 9 18263068965074874218
12633257 1 15430045378295251616
12788726 201 17974296717714525134
13009979 54 17610908168190762318
13965767 371 17968091963203415332
14251764 75 18270409274089217489
14294032 229 18341615966702218283
14468879 13 18188221909636553289
14508225 48 17551503775287532759
15003188 8 18187363199223571813
15326921 28 18339344323997863600
15463212 79 18336260249235673338
16120349 189 18333725819067959029
16988056 13 17255955676526786445
20511986 3 17749373902130322808
20567600 299 17545883728997008141
21133410 221 17342067628098284144
21133410 32 15050304930434912404
21279426 13 18272664433130966414
21304303 282 18269817860965331007
21639891 77 17611461227019825403
21860390 5 17621038660317838239
23559900 14 17907011786357884627
3117164 225 18334569102180076018
3459 39 18342730841074695000
376196 1 18191305979601738907
469060 322 17905354031945410555
4938544 92 18267860761224119472
508706 21 18056465382274994608
5372103 7 17314766561470561333
550186 7 18127707117410210452
57124632 79 18266454308945586633
6371380 46 18337959979134847246
67856867 119 18050280376403091761
7399639 24 18263946379448223105
7808743 9 18339081600515505384
9981440 41 18335143089882670723

> <PUBCHEM_SHAPE_MULTIPOLES>
505.49
11.89
6.16
1.25
11.79
4.66
0.14
-16.93
-0.6
-5.74
1.01
0.48
-0.14
0.58

> <PUBCHEM_SHAPE_SELFOVERLAP>
1034.746

> <PUBCHEM_SHAPE_VOLUME>
289.4

> <PUBCHEM_COORDINATE_TYPE>
2
5
10

$$$$
