75536179
  -OEChem-12032416343D

 44 46  0     1  0  0  0  0  0999 V2000
   -3.8520   -1.9780   -0.5351 O   0  0  0  0  0  0  0  0  0  0  0  0
   -3.3597    1.7676    1.3200 O   0  0  0  0  0  0  0  0  0  0  0  0
   -7.1343   -0.6595    0.1929 O   0  0  0  0  0  0  0  0  0  0  0  0
    3.3324   -1.4105    1.2394 O   0  0  0  0  0  0  0  0  0  0  0  0
   -5.1966    0.4792   -0.4115 N   0  0  0  0  0  0  0  0  0  0  0  0
    2.6494    0.4227   -0.0651 N   0  0  0  0  0  0  0  0  0  0  0  0
    6.7146    1.2472   -0.6859 N   0  0  0  0  0  0  0  0  0  0  0  0
   -3.7469    0.4078   -0.6332 C   0  0  1  0  0  0  0  0  0  0  0  0
   -2.9912    0.5442    0.6919 C   0  0  1  0  0  0  0  0  0  0  0  0
   -3.3906   -0.8966   -1.3362 C   0  0  0  0  0  0  0  0  0  0  0  0
   -1.4976    0.5119    0.4908 C   0  0  0  0  0  0  0  0  0  0  0  0
   -5.9558   -0.6636   -0.1679 C   0  0  0  0  0  0  0  0  0  0  0  0
   -5.2602   -1.9878   -0.4624 C   0  0  0  0  0  0  0  0  0  0  0  0
   -5.7915    1.8014   -0.2713 C   0  0  0  0  0  0  0  0  0  0  0  0
   -0.7299   -0.4650    1.1249 C   0  0  0  0  0  0  0  0  0  0  0  0
   -0.8830    1.4588   -0.3286 C   0  0  0  0  0  0  0  0  0  0  0  0
    0.6523   -0.4950    0.9397 C   0  0  0  0  0  0  0  0  0  0  0  0
    0.4991    1.4289   -0.5139 C   0  0  0  0  0  0  0  0  0  0  0  0
    1.2668    0.4521    0.1203 C   0  0  0  0  0  0  0  0  0  0  0  0
    3.5746   -0.4747    0.4846 C   0  0  0  0  0  0  0  0  0  0  0  0
    4.9875   -0.2645    0.0737 C   0  0  0  0  0  0  0  0  0  0  0  0
    5.8932   -1.3194    0.0568 C   0  0  0  0  0  0  0  0  0  0  0  0
    5.4441    0.9882   -0.3031 C   0  0  0  0  0  0  0  0  0  0  0  0
    7.2091   -1.0926   -0.3310 C   0  0  0  0  0  0  0  0  0  0  0  0
    7.5662    0.1971   -0.6898 C   0  0  0  0  0  0  0  0  0  0  0  0
   -3.4984    1.2333   -1.3116 H   0  0  0  0  0  0  0  0  0  0  0  0
   -3.2953   -0.2495    1.3846 H   0  0  0  0  0  0  0  0  0  0  0  0
   -2.3155   -1.0168   -1.4953 H   0  0  0  0  0  0  0  0  0  0  0  0
   -3.8620   -0.9530   -2.3261 H   0  0  0  0  0  0  0  0  0  0  0  0
   -5.5418   -2.6954    0.3245 H   0  0  0  0  0  0  0  0  0  0  0  0
   -5.6598   -2.3696   -1.4094 H   0  0  0  0  0  0  0  0  0  0  0  0
   -5.7211    2.1244    0.7700 H   0  0  0  0  0  0  0  0  0  0  0  0
   -6.8529    1.7573   -0.5345 H   0  0  0  0  0  0  0  0  0  0  0  0
   -5.2945    2.5166   -0.9316 H   0  0  0  0  0  0  0  0  0  0  0  0
   -1.1960   -1.2094    1.7650 H   0  0  0  0  0  0  0  0  0  0  0  0
   -1.4587    2.2336   -0.8268 H   0  0  0  0  0  0  0  0  0  0  0  0
   -3.1916    2.4981    0.7010 H   0  0  0  0  0  0  0  0  0  0  0  0
    1.1764   -1.2814    1.4639 H   0  0  0  0  0  0  0  0  0  0  0  0
    0.9647    2.1743   -1.1538 H   0  0  0  0  0  0  0  0  0  0  0  0
    2.9931    1.1283   -0.7104 H   0  0  0  0  0  0  0  0  0  0  0  0
    5.5916   -2.3248    0.3378 H   0  0  0  0  0  0  0  0  0  0  0  0
    4.8178    1.8737   -0.2868 H   0  0  0  0  0  0  0  0  0  0  0  0
    7.9321   -1.8999   -0.3528 H   0  0  0  0  0  0  0  0  0  0  0  0
    8.5803    0.4264   -1.0002 H   0  0  0  0  0  0  0  0  0  0  0  0
  1 10  1  0  0  0  0
  1 13  1  0  0  0  0
  2  9  1  0  0  0  0
  2 37  1  0  0  0  0
  3 12  2  0  0  0  0
  4 20  2  0  0  0  0
  5  8  1  0  0  0  0
  5 12  1  0  0  0  0
  5 14  1  0  0  0  0
  6 19  1  0  0  0  0
  6 20  1  0  0  0  0
  6 40  1  0  0  0  0
  7 23  1  0  0  0  0
  7 25  2  0  0  0  0
  8  9  1  0  0  0  0
  8 10  1  0  0  0  0
  8 26  1  0  0  0  0
  9 11  1  0  0  0  0
  9 27  1  0  0  0  0
 10 28  1  0  0  0  0
 10 29  1  0  0  0  0
 11 15  2  0  0  0  0
 11 16  1  0  0  0  0
 12 13  1  0  0  0  0
 13 30  1  0  0  0  0
 13 31  1  0  0  0  0
 14 32  1  0  0  0  0
 14 33  1  0  0  0  0
 14 34  1  0  0  0  0
 15 17  1  0  0  0  0
 15 35  1  0  0  0  0
 16 18  2  0  0  0  0
 16 36  1  0  0  0  0
 17 19  2  0  0  0  0
 17 38  1  0  0  0  0
 18 19  1  0  0  0  0
 18 39  1  0  0  0  0
 20 21  1  0  0  0  0
 21 22  1  0  0  0  0
 21 23  2  0  0  0  0
 22 24  2  0  0  0  0
 22 41  1  0  0  0  0
 23 42  1  0  0  0  0
 24 25  1  0  0  0  0
 24 43  1  0  0  0  0
 25 44  1  0  0  0  0
M  END
> <PUBCHEM_COMPOUND_CID>
75536179

> <PUBCHEM_CONFORMER_RMSD>
0.8

> <PUBCHEM_CONFORMER_DIVERSEORDER>
1
41
39
36
18
15
32
6
17
30
37
13
10
46
9
16
20
28
45
14
19
26
11
8
29
3
43
40
34
27
38
4
31
5
12
21
33
25
44
2
7
42
35
22
24
23

> <PUBCHEM_MMFF94_PARTIAL_CHARGES>
35
1 -0.56
10 0.28
11 -0.14
12 0.57
13 0.34
14 0.3
15 -0.15
16 -0.15
17 -0.15
18 -0.15
19 0.12
2 -0.68
20 0.54
21 0.09
22 -0.15
23 0.16
24 -0.15
25 0.16
3 -0.57
35 0.15
36 0.15
37 0.4
38 0.15
39 0.15
4 -0.57
40 0.37
41 0.15
42 0.15
43 0.15
44 0.15
5 -0.66
6 -0.55
7 -0.62
8 0.3
9 0.42

> <PUBCHEM_EFFECTIVE_ROTOR_COUNT>
6

> <PUBCHEM_PHARMACOPHORE_FEATURES>
10
1 1 acceptor
1 2 acceptor
1 2 donor
1 3 acceptor
1 4 acceptor
1 6 donor
1 7 acceptor
6 1 5 8 10 12 13 rings
6 11 15 16 17 18 19 rings
6 7 21 22 23 24 25 rings

> <PUBCHEM_HEAVY_ATOM_COUNT>
25

> <PUBCHEM_ATOM_DEF_STEREO_COUNT>
2

> <PUBCHEM_ATOM_UDEF_STEREO_COUNT>
0

> <PUBCHEM_BOND_DEF_STEREO_COUNT>
0

> <PUBCHEM_BOND_UDEF_STEREO_COUNT>
0

> <PUBCHEM_ISOTOPIC_ATOM_COUNT>
0

> <PUBCHEM_COMPONENT_COUNT>
1

> <PUBCHEM_CACTVS_TAUTO_COUNT>
4

> <PUBCHEM_CONFORMER_ID>
0480973300000001

> <PUBCHEM_MMFF94_ENERGY>
81.6137

> <PUBCHEM_FEATURE_SELFOVERLAP>
50.749

> <PUBCHEM_SHAPE_FINGERPRINT>
10 15 11025803089167058254
10299344 5 18412546509101521054
10595046 47 18411420584147502752
10968037 39 18334575741898496973
11315181 36 18202285805679926145
11524674 6 16128654167420921215
117089 54 17828207924297150443
12166972 35 18335985349838834548
12236239 1 18409448072370418533
12516196 113 18407758140637637276
13288520 33 18272932730715456881
13668630 136 18342460327039094262
14123256 10 18333731325727104618
1420 363 16200433572290185978
14251752 14 18412260627451370054
14347424 109 9943809968268550414
14528608 73 18333731325911701552
14856354 85 18060140963936675263
15183329 4 18260258646733068495
15348495 7 14045445796017112702
15716309 27 15913327996454567854
15849732 13 18260830409996077591
17844677 252 16415478255600602904
18681886 176 18341043111789165521
18927931 339 17275383209971800565
20281389 69 8214142954288349502
21150785 3 17530684329093496074
21267235 1 18408605894689266891
21403212 168 11743845741681246372
220451 1 18408882910519383155
22224240 67 12103845657178539861
2297311 6 17561083605367271801
23035841 295 18272931626376241767
23081809 10 17676200235133223552
23198884 109 18113054939474874219
23402539 116 18408321077262746276
23522609 53 18195556764765116768
23536379 177 18411135831472415700
23559900 14 18059001903981447673
2838139 119 12396293781393802239
29717793 49 18411985737572069382
3004659 81 18335697260543195288
3009799 131 16443061712058949892
335352 9 18412820284330816645
34797466 226 17132120173730971208
397830 11 16270781494403576450
4073 2 18040721411084384786
4325135 7 18410013239191440790
497634 4 18341050735419912877
5265222 85 17988076815520476414
54039377 194 18337396049934260835
559249 180 18412542094529093183
59755656 215 17489308564253344158
999808 66 18041288750842652723

> <PUBCHEM_SHAPE_MULTIPOLES>
476.07
20.95
1.74
1.01
16.46
0.11
-0.09
3.28
4.5
-1.39
0.13
-0.25
0.05
-1.07

> <PUBCHEM_SHAPE_SELFOVERLAP>
1022.348

> <PUBCHEM_SHAPE_VOLUME>
257.5

> <PUBCHEM_COORDINATE_TYPE>
2
5
10

$$$$
