11885997
  -OEChem-12032416373D

 55 59  0     1  0  0  0  0  0999 V2000
    4.3120   -0.9289    0.6199 S   0  0  0  0  0  0  0  0  0  0  0  0
   -1.2089    0.0787    1.0038 O   0  0  0  0  0  0  0  0  0  0  0  0
    0.1900   -2.6429    0.5651 O   0  0  0  0  0  0  0  0  0  0  0  0
   -3.1668   -1.5631   -0.0648 O   0  0  0  0  0  0  0  0  0  0  0  0
   -3.2105   -0.0487   -1.7910 O   0  0  0  0  0  0  0  0  0  0  0  0
    2.0176    0.5316    0.5439 N   0  0  0  0  0  0  0  0  0  0  0  0
   -5.0732   -0.4483   -0.4670 N   0  0  0  0  0  0  0  0  0  0  0  0
    1.5484    1.7328    0.1895 N   0  0  0  0  0  0  0  0  0  0  0  0
    3.7370    1.6026   -0.2147 N   0  0  0  0  0  0  0  0  0  0  0  0
    2.6067    2.3860   -0.2746 N   0  0  0  0  0  0  0  0  0  0  0  0
    0.4508   -1.3224    0.0401 C   0  0  1  0  0  0  0  0  0  0  0  0
   -0.8973   -0.6663   -0.1839 C   0  0  1  0  0  0  0  0  0  0  0  0
    1.1139   -0.4740    1.1077 C   0  0  2  0  0  0  0  0  0  0  0  0
   -1.8185   -1.8500   -0.3585 C   0  0  1  0  0  0  0  0  0  0  0  0
   -0.0762    0.0794    1.8846 C   0  0  0  0  0  0  0  0  0  0  0  0
   -1.2280   -2.8557    0.6023 C   0  0  0  0  0  0  0  0  0  0  0  0
   -5.9857    0.4731   -1.1069 C   0  0  0  0  0  0  0  0  0  0  0  0
   -7.4251   -0.0499   -1.0521 C   0  0  0  0  0  0  0  0  0  0  0  0
   -5.8791    1.8718   -0.4900 C   0  0  0  0  0  0  0  0  0  0  0  0
   -8.0194    0.0196    0.3547 C   0  0  0  0  0  0  0  0  0  0  0  0
   -6.4759    1.9380    0.9159 C   0  0  0  0  0  0  0  0  0  0  0  0
   -7.9118    1.4231    0.9427 C   0  0  0  0  0  0  0  0  0  0  0  0
   -3.7650   -0.6298   -0.8639 C   0  0  0  0  0  0  0  0  0  0  0  0
    3.3475    0.4575    0.2966 C   0  0  0  0  0  0  0  0  0  0  0  0
    5.9062   -0.3211    0.0630 C   0  0  0  0  0  0  0  0  0  0  0  0
    6.7433    0.3288    0.9606 C   0  0  0  0  0  0  0  0  0  0  0  0
    6.2865   -0.5072   -1.2598 C   0  0  0  0  0  0  0  0  0  0  0  0
    7.9823    0.8012    0.5278 C   0  0  0  0  0  0  0  0  0  0  0  0
    7.5256   -0.0350   -1.6924 C   0  0  0  0  0  0  0  0  0  0  0  0
    8.3735    0.6192   -0.7986 C   0  0  0  0  0  0  0  0  0  0  0  0
    1.0311   -1.4440   -0.8800 H   0  0  0  0  0  0  0  0  0  0  0  0
   -0.8851    0.0354   -1.0220 H   0  0  0  0  0  0  0  0  0  0  0  0
    1.7201   -1.0704    1.7987 H   0  0  0  0  0  0  0  0  0  0  0  0
   -1.7300   -2.2494   -1.3781 H   0  0  0  0  0  0  0  0  0  0  0  0
   -0.3269   -0.5837    2.7205 H   0  0  0  0  0  0  0  0  0  0  0  0
    0.0723    1.0843    2.2907 H   0  0  0  0  0  0  0  0  0  0  0  0
   -1.5827   -2.7099    1.6288 H   0  0  0  0  0  0  0  0  0  0  0  0
   -1.4528   -3.8875    0.3158 H   0  0  0  0  0  0  0  0  0  0  0  0
   -5.6867    0.5429   -2.1602 H   0  0  0  0  0  0  0  0  0  0  0  0
   -7.4684   -1.0842   -1.4140 H   0  0  0  0  0  0  0  0  0  0  0  0
   -8.0482    0.5499   -1.7277 H   0  0  0  0  0  0  0  0  0  0  0  0
   -6.4121    2.5850   -1.1319 H   0  0  0  0  0  0  0  0  0  0  0  0
   -4.8330    2.1986   -0.4553 H   0  0  0  0  0  0  0  0  0  0  0  0
   -7.5119   -0.6945    1.0138 H   0  0  0  0  0  0  0  0  0  0  0  0
   -9.0728   -0.2814    0.3198 H   0  0  0  0  0  0  0  0  0  0  0  0
   -6.4505    2.9728    1.2760 H   0  0  0  0  0  0  0  0  0  0  0  0
   -5.8620    1.3473    1.6066 H   0  0  0  0  0  0  0  0  0  0  0  0
   -8.5540    2.1064    0.3734 H   0  0  0  0  0  0  0  0  0  0  0  0
   -8.2839    1.4208    1.9734 H   0  0  0  0  0  0  0  0  0  0  0  0
   -5.3897   -0.9639    0.3484 H   0  0  0  0  0  0  0  0  0  0  0  0
    6.4539    0.4789    1.9974 H   0  0  0  0  0  0  0  0  0  0  0  0
    5.6379   -1.0145   -1.9692 H   0  0  0  0  0  0  0  0  0  0  0  0
    8.6426    1.3107    1.2236 H   0  0  0  0  0  0  0  0  0  0  0  0
    7.8304   -0.1764   -2.7252 H   0  0  0  0  0  0  0  0  0  0  0  0
    9.3382    0.9870   -1.1355 H   0  0  0  0  0  0  0  0  0  0  0  0
  1 24  1  0  0  0  0
  1 25  1  0  0  0  0
  2 12  1  0  0  0  0
  2 15  1  0  0  0  0
  3 11  1  0  0  0  0
  3 16  1  0  0  0  0
  4 14  1  0  0  0  0
  4 23  1  0  0  0  0
  5 23  2  0  0  0  0
  6  8  1  0  0  0  0
  6 13  1  0  0  0  0
  6 24  1  0  0  0  0
  7 17  1  0  0  0  0
  7 23  1  0  0  0  0
  7 50  1  0  0  0  0
  8 10  2  0  0  0  0
  9 10  1  0  0  0  0
  9 24  2  0  0  0  0
 11 12  1  0  0  0  0
 11 13  1  0  0  0  0
 11 31  1  0  0  0  0
 12 14  1  0  0  0  0
 12 32  1  0  0  0  0
 13 15  1  0  0  0  0
 13 33  1  0  0  0  0
 14 16  1  0  0  0  0
 14 34  1  0  0  0  0
 15 35  1  0  0  0  0
 15 36  1  0  0  0  0
 16 37  1  0  0  0  0
 16 38  1  0  0  0  0
 17 18  1  0  0  0  0
 17 19  1  0  0  0  0
 17 39  1  0  0  0  0
 18 20  1  0  0  0  0
 18 40  1  0  0  0  0
 18 41  1  0  0  0  0
 19 21  1  0  0  0  0
 19 42  1  0  0  0  0
 19 43  1  0  0  0  0
 20 22  1  0  0  0  0
 20 44  1  0  0  0  0
 20 45  1  0  0  0  0
 21 22  1  0  0  0  0
 21 46  1  0  0  0  0
 21 47  1  0  0  0  0
 22 48  1  0  0  0  0
 22 49  1  0  0  0  0
 25 26  2  0  0  0  0
 25 27  1  0  0  0  0
 26 28  1  0  0  0  0
 26 51  1  0  0  0  0
 27 29  2  0  0  0  0
 27 52  1  0  0  0  0
 28 30  2  0  0  0  0
 28 53  1  0  0  0  0
 29 30  1  0  0  0  0
 29 54  1  0  0  0  0
 30 55  1  0  0  0  0
M  END
> <PUBCHEM_COMPOUND_CID>
11885997

> <PUBCHEM_CONFORMER_RMSD>
1

> <PUBCHEM_CONFORMER_DIVERSEORDER>
1
225
254
127
390
130
285
277
395
176
358
53
87
363
222
356
49
204
289
246
325
149
268
283
274
32
128
320
140
137
361
267
35
235
347
104
62
170
297
387
185
5
21
67
368
194
173
105
382
247
238
30
9
150
188
276
319
236
396
16
70
190
282
328
398
111
213
180
36
117
258
40
305
187
91
245
294
309
205
281
51
244
280
85
271
239
203
381
215
316
45
77
291
164
86
181
17
100
318
249
139
342
376
287
26
266
313
191
240
312
68
38
3
186
69
279
47
255
212
210
345
175
148
223
15
65
346
226
61
7
350
252
89
288
165
147
145
94
260
153
172
39
199
44
160
118
141
19
178
60
157
290
122
306
393
355
41
298
48
340
243
224
18
207
55
353
264
273
323
193
314
262
43
383
115
73
385
365
22
344
219
84
189
195
155
138
217
123
380
125
331
357
4
184
301
101
168
126
324
183
326
399
263
171
221
182
343
295
367
327
335
378
112
124
315
31
322
158
338
37
97
20
354
401
78
33
234
218
374
74
389
23
392
93
83
284
12
269
311
394
28
304
99
152
286
248
317
228
300
13
2
107
98
169
270
369
14
237
75
174
46
82
8
231
299
339
333
108
192
391
308
329
352
24
349
57
129
116
136
95
253
227
272
132
25
114
198
64
397
110
52
341
179
54
257
79
296
11
177
146
208
167
310
359
143
90
220
348
102
250
103
131
159
232
303
27
166
275
377
229
142
202
371
209
373
206
384
379
366
6
113
151
251
370
261
388
372
80
197
351
76
230
10
92
332
109
256
242
321
334
362
201
233
211
106
163
265
161
336
216
162
278
360
58
154
337
292
81
56
144
214
156
259
330
241
88
66
135
386
42
375
96
59
133
400
134
63
364
119
72
196
50
29
307
302
34
200
121
120
293
71

> <PUBCHEM_MMFF94_PARTIAL_CHARGES>
30
1 -0.16
11 0.28
12 0.28
13 0.26
14 0.28
15 0.28
16 0.28
17 0.3
2 -0.56
23 0.78
24 0.24
25 0.1
26 -0.15
27 -0.15
28 -0.15
29 -0.15
3 -0.56
30 -0.15
4 -0.43
5 -0.57
50 0.37
51 0.15
52 0.15
53 0.15
54 0.15
55 0.15
6 0.31
7 -0.73
8 -0.42
9 -0.34

> <PUBCHEM_EFFECTIVE_ROTOR_COUNT>
9.4

> <PUBCHEM_PHARMACOPHORE_FEATURES>
10
1 2 acceptor
1 3 acceptor
1 5 acceptor
1 7 donor
3 6 9 24 cation
5 2 11 12 13 15 rings
5 3 11 12 14 16 rings
5 6 8 9 10 24 rings
6 17 18 19 20 21 22 rings
6 25 26 27 28 29 30 rings

> <PUBCHEM_HEAVY_ATOM_COUNT>
30

> <PUBCHEM_ATOM_DEF_STEREO_COUNT>
4

> <PUBCHEM_ATOM_UDEF_STEREO_COUNT>
0

> <PUBCHEM_BOND_DEF_STEREO_COUNT>
0

> <PUBCHEM_BOND_UDEF_STEREO_COUNT>
0

> <PUBCHEM_ISOTOPIC_ATOM_COUNT>
0

> <PUBCHEM_COMPONENT_COUNT>
1

> <PUBCHEM_CACTVS_TAUTO_COUNT>
2

> <PUBCHEM_CONFORMER_ID>
00B55DAD00000001

> <PUBCHEM_MMFF94_ENERGY>
60.0687

> <PUBCHEM_FEATURE_SELFOVERLAP>
51.448

> <PUBCHEM_SHAPE_FINGERPRINT>
10 15 15357698587013609315
10165383 225 18335136488861029023
10369192 42 18335698330533553495
106641 1 13190343473949467087
10670039 82 18201715129544887705
10674148 151 18342737416980620712
10883706 142 14273452596743951692
10951579 204 18128273207154582372
11135609 187 18413106139372705570
11135609 99 8141782999243558473
11456790 92 15791719812064523004
11719270 70 11312058764316764148
11828422 8 16626282293934858696
13177829 20 13623532354910704407
13914758 101 17346600759587295304
14251764 18 18259700094836376429
14849402 71 18334576837104984725
14856354 85 18408603687086899495
15183329 4 18410008832022361868
15188451 53 12895357685989022222
15357212 105 16445620383349995260
15475509 8 18341898454974550092
15728490 51 11602825709287602897
1577012 14 18341888555270124603
18608769 82 16008752428712124793
19611394 137 17896332488248239979
21298829 104 18413389817598605912
21585482 111 18263924329467044237
22224240 67 13117999993803131065
23559900 14 18129375081271814152
23576562 1 18197770205797587669
249057 3 18410291445033576196
2747138 104 10665227038636795942
3009799 131 17203324524653294962
3178227 256 17894633638549127977
335352 9 18409445916365265116
3633792 109 17775288274921276114
3711267 37 18041002834099936757
4098825 35 18131348626648685565
4149490 64 9654705527527804421
474113 269 15123236469013189278
5385378 56 18261388901937605874
57035037 87 17703781575048771328
5758199 1 18335420145433290643
59682541 35 13262403271253084885
5969126 39 11095889250646907603
59755656 215 18272651221162886166
6081469 158 15554450682867518484
9689198 14 16370724811902530174
9953998 17 13334735718118989685

> <PUBCHEM_SHAPE_MULTIPOLES>
572.85
26.28
2.11
1.35
0.74
0.51
0.1
-11.29
5.18
-1.52
-0.31
0.21
-0.03
-0.57

> <PUBCHEM_SHAPE_SELFOVERLAP>
1217.674

> <PUBCHEM_SHAPE_VOLUME>
321

> <PUBCHEM_COORDINATE_TYPE>
2
5
10

$$$$
