7134268
  -OEChem-12032416123D

 59 62  0     1  0  0  0  0  0999 V2000
   -4.6270   -3.6086    0.5100 S   0  0  0  0  0  0  0  0  0  0  0  0
    6.4300   -1.7626    0.7002 S   0  0  0  0  0  0  0  0  0  0  0  0
    1.1123    1.8625   -1.0317 O   0  0  0  0  0  0  0  0  0  0  0  0
   -0.0578    4.2076    1.1064 O   0  0  0  0  0  0  0  0  0  0  0  0
   -3.3887    4.1543    0.1086 O   0  0  0  0  0  0  0  0  0  0  0  0
   -0.9357   -3.0965   -0.5035 O   0  0  0  0  0  0  0  0  0  0  0  0
    1.9400   -2.0251   -0.8029 O   0  0  0  0  0  0  0  0  0  0  0  0
   -1.1582    2.4436    0.0736 N   0  0  0  0  0  0  0  0  0  0  0  0
   -2.6178   -1.5621   -0.0631 N   0  0  0  0  0  0  0  0  0  0  0  0
    1.7471    0.3297    0.6013 N   0  0  0  0  0  0  0  0  0  0  0  0
    3.6014   -1.0611   -2.0627 N   0  0  0  0  0  0  0  0  0  0  0  0
   -3.9590   -6.0197    0.3794 N   0  0  0  0  0  0  0  0  0  0  0  0
   -4.9943   -5.2376    0.6401 N   0  0  0  0  0  0  0  0  0  0  0  0
   -1.8358   -0.3757   -0.3198 C   0  0  2  0  0  0  0  0  0  0  0  0
   -0.3822    1.4146    0.7771 C   0  0  1  0  0  0  0  0  0  0  0  0
   -1.1269    0.0922    0.9535 C   0  0  0  0  0  0  0  0  0  0  0  0
   -2.7159    0.7454   -0.8667 C   0  0  0  0  0  0  0  0  0  0  0  0
   -1.9057    2.0115   -1.1203 C   0  0  0  0  0  0  0  0  0  0  0  0
    0.8967    1.2479    0.0095 C   0  0  0  0  0  0  0  0  0  0  0  0
   -1.0437    3.7879    0.4975 C   0  0  0  0  0  0  0  0  0  0  0  0
    3.0331   -0.0279    0.0474 C   0  0  1  0  0  0  0  0  0  0  0  0
   -2.0922   -2.8405   -0.1788 C   0  0  0  0  0  0  0  0  0  0  0  0
   -2.1479    4.6898    0.1872 C   0  0  0  0  0  0  0  0  0  0  0  0
    4.0281   -0.4727    1.1263 C   0  0  0  0  0  0  0  0  0  0  0  0
   -3.0336   -3.9570    0.0936 C   0  0  0  0  0  0  0  0  0  0  0  0
    2.7929   -1.1528   -0.9491 C   0  0  0  0  0  0  0  0  0  0  0  0
   -2.1717    6.0370   -0.0508 C   0  0  0  0  0  0  0  0  0  0  0  0
    5.4619   -0.3689    0.6625 C   0  0  0  0  0  0  0  0  0  0  0  0
   -2.8302   -5.2801    0.0647 C   0  0  0  0  0  0  0  0  0  0  0  0
   -3.5275    6.3611   -0.2951 C   0  0  0  0  0  0  0  0  0  0  0  0
   -4.2275    5.1820   -0.1866 C   0  0  0  0  0  0  0  0  0  0  0  0
    6.1032    0.7365    0.2022 C   0  0  0  0  0  0  0  0  0  0  0  0
   -1.5853   -6.0087   -0.2525 C   0  0  0  0  0  0  0  0  0  0  0  0
    7.4539    0.4388   -0.1396 C   0  0  0  0  0  0  0  0  0  0  0  0
    7.7640   -0.8849    0.0823 C   0  0  0  0  0  0  0  0  0  0  0  0
   -1.0780   -0.6289   -1.0724 H   0  0  0  0  0  0  0  0  0  0  0  0
   -0.1102    1.7985    1.7691 H   0  0  0  0  0  0  0  0  0  0  0  0
   -1.8896    0.2414    1.7318 H   0  0  0  0  0  0  0  0  0  0  0  0
   -0.4835   -0.7082    1.3344 H   0  0  0  0  0  0  0  0  0  0  0  0
   -3.1973    0.4249   -1.7986 H   0  0  0  0  0  0  0  0  0  0  0  0
   -3.5237    0.9676   -0.1571 H   0  0  0  0  0  0  0  0  0  0  0  0
   -2.5390    2.8008   -1.5267 H   0  0  0  0  0  0  0  0  0  0  0  0
   -1.1710    1.8116   -1.9087 H   0  0  0  0  0  0  0  0  0  0  0  0
   -3.5773   -1.4482    0.2514 H   0  0  0  0  0  0  0  0  0  0  0  0
    1.4775   -0.1158    1.4726 H   0  0  0  0  0  0  0  0  0  0  0  0
    3.4022    0.8537   -0.4902 H   0  0  0  0  0  0  0  0  0  0  0  0
    3.9250    0.1758    2.0074 H   0  0  0  0  0  0  0  0  0  0  0  0
    3.7882   -1.4879    1.4685 H   0  0  0  0  0  0  0  0  0  0  0  0
   -1.3259    6.7098   -0.0514 H   0  0  0  0  0  0  0  0  0  0  0  0
   -3.9427    7.3323   -0.5221 H   0  0  0  0  0  0  0  0  0  0  0  0
   -5.2706    4.9197   -0.2858 H   0  0  0  0  0  0  0  0  0  0  0  0
    5.6531    1.7165    0.1103 H   0  0  0  0  0  0  0  0  0  0  0  0
    4.2951   -0.3291   -2.1768 H   0  0  0  0  0  0  0  0  0  0  0  0
    3.5327   -1.7416   -2.8122 H   0  0  0  0  0  0  0  0  0  0  0  0
   -1.2515   -5.7827   -1.2701 H   0  0  0  0  0  0  0  0  0  0  0  0
   -0.7878   -5.7382    0.4467 H   0  0  0  0  0  0  0  0  0  0  0  0
   -1.7348   -7.0913   -0.1839 H   0  0  0  0  0  0  0  0  0  0  0  0
    8.1625    1.1591   -0.5274 H   0  0  0  0  0  0  0  0  0  0  0  0
    8.7103   -1.3783   -0.0887 H   0  0  0  0  0  0  0  0  0  0  0  0
  1 13  1  0  0  0  0
  1 25  1  0  0  0  0
  2 28  1  0  0  0  0
  2 35  1  0  0  0  0
  3 19  2  0  0  0  0
  4 20  2  0  0  0  0
  5 23  1  0  0  0  0
  5 31  1  0  0  0  0
  6 22  2  0  0  0  0
  7 26  2  0  0  0  0
  8 15  1  0  0  0  0
  8 18  1  0  0  0  0
  8 20  1  0  0  0  0
  9 14  1  0  0  0  0
  9 22  1  0  0  0  0
  9 44  1  0  0  0  0
 10 19  1  0  0  0  0
 10 21  1  0  0  0  0
 10 45  1  0  0  0  0
 11 26  1  0  0  0  0
 11 53  1  0  0  0  0
 11 54  1  0  0  0  0
 12 13  2  0  0  0  0
 12 29  1  0  0  0  0
 14 16  1  0  0  0  0
 14 17  1  0  0  0  0
 14 36  1  0  0  0  0
 15 16  1  0  0  0  0
 15 19  1  0  0  0  0
 15 37  1  0  0  0  0
 16 38  1  0  0  0  0
 16 39  1  0  0  0  0
 17 18  1  0  0  0  0
 17 40  1  0  0  0  0
 17 41  1  0  0  0  0
 18 42  1  0  0  0  0
 18 43  1  0  0  0  0
 20 23  1  0  0  0  0
 21 24  1  0  0  0  0
 21 26  1  0  0  0  0
 21 46  1  0  0  0  0
 22 25  1  0  0  0  0
 23 27  2  0  0  0  0
 24 28  1  0  0  0  0
 24 47  1  0  0  0  0
 24 48  1  0  0  0  0
 25 29  2  0  0  0  0
 27 30  1  0  0  0  0
 27 49  1  0  0  0  0
 28 32  2  0  0  0  0
 29 33  1  0  0  0  0
 30 31  2  0  0  0  0
 30 50  1  0  0  0  0
 31 51  1  0  0  0  0
 32 34  1  0  0  0  0
 32 52  1  0  0  0  0
 33 55  1  0  0  0  0
 33 56  1  0  0  0  0
 33 57  1  0  0  0  0
 34 35  2  0  0  0  0
 34 58  1  0  0  0  0
 35 59  1  0  0  0  0
M  END
> <PUBCHEM_COMPOUND_CID>
7134268

> <PUBCHEM_CONFORMER_RMSD>
1.2

> <PUBCHEM_CONFORMER_DIVERSEORDER>
1
75
6
79
3
71
32
64
68
27
46
55
29
70
59
34
54
82
5
19
65
74
67
26
25
33
23
72
40
76
2
83
12
51
81
10
37
31
85
57
20
61
18
42
73
44
21
45
7
77
8
84
50
17
78
15
52
53
39
9
63
4
22
41
11
28
35
14
58
48
80
66
24
16
49
56
47
36
60
38
43
13
62
69
30

> <PUBCHEM_MMFF94_PARTIAL_CHARGES>
43
1 0.18
10 -0.73
11 -0.8
12 -0.23
13 -0.22
14 0.3
15 0.36
18 0.3
19 0.57
2 -0.08
20 0.71
21 0.36
22 0.71
23 0.05
24 0.18
25 -0.05
26 0.57
27 -0.15
28 -0.14
29 0.05
3 -0.57
30 -0.15
31 -0.01
32 -0.15
33 0.18
34 -0.15
35 -0.11
4 -0.57
44 0.37
45 0.37
49 0.15
5 -0.28
50 0.15
51 0.15
52 0.15
53 0.37
54 0.37
58 0.15
59 0.15
6 -0.57
7 -0.57
8 -0.66
9 -0.73

> <PUBCHEM_EFFECTIVE_ROTOR_COUNT>
12.2

> <PUBCHEM_PHARMACOPHORE_FEATURES>
12
1 10 donor
1 11 donor
1 3 acceptor
1 4 acceptor
1 5 acceptor
1 6 acceptor
1 7 acceptor
1 9 donor
5 1 12 13 25 29 rings
5 2 28 32 34 35 rings
5 5 23 27 30 31 rings
6 8 14 15 16 17 18 rings

> <PUBCHEM_HEAVY_ATOM_COUNT>
35

> <PUBCHEM_ATOM_DEF_STEREO_COUNT>
3

> <PUBCHEM_ATOM_UDEF_STEREO_COUNT>
0

> <PUBCHEM_BOND_DEF_STEREO_COUNT>
0

> <PUBCHEM_BOND_UDEF_STEREO_COUNT>
0

> <PUBCHEM_ISOTOPIC_ATOM_COUNT>
0

> <PUBCHEM_COMPONENT_COUNT>
1

> <PUBCHEM_CACTVS_TAUTO_COUNT>
8

> <PUBCHEM_CONFORMER_ID>
006CDC3C00000001

> <PUBCHEM_MMFF94_ENERGY>
67.0843

> <PUBCHEM_FEATURE_SELFOVERLAP>
60.9

> <PUBCHEM_SHAPE_FINGERPRINT>
10319688 45 18338518641818999891
10411042 1 18194401323350077442
10675989 125 17334497103935504832
11297750 10 17901091234265459735
11763715 3 18119546567784266876
12107183 9 18196947780271123523
12440610 7 18197783206953723716
12758862 56 18118115008299066771
12788726 201 18268409292402200157
13248334 5 17401486451484510937
14068700 675 18189051066026480110
14394314 77 18050857907153304688
15064981 194 18334300859808051180
15324884 4 17630297897075558472
15400415 2 18050283661969443816
15439362 3 17256526319083619801
15664445 248 17476384050003169053
15927050 60 17909539559421625623
16114785 44 18269835324908848753
16664035 1 18121499326332250675
16992752 21 18265906933319014676
17980427 26 17476060342164735140
18393751 57 18050009882957235065
20505436 4 17751925714331189672
21639891 77 18262509424956577759
21716022 299 17608379261054851860
21796203 349 17685249404386947107
22311459 1 18410853248288660608
32027 91 17906726256895922175
3627633 1 18337951302530327461
4058900 60 17838900326577881352
4144715 1 18341894049018748832
44280117 145 18409169927332993638
504843 32 18264764355205179780
563151 97 18050272675427179461
6058803 2 18186519891891615616
6376802 90 18268998592391549758
6673363 416 18122358028588003164
6697151 62 17906144589601632135
6700243 42 17983894239456004844
6898599 12 18336830801946431100
77188 2 18050003591034919625
9961470 85 18051972524677738342

> <PUBCHEM_SHAPE_MULTIPOLES>
668.75
13.95
11.39
1.02
35.06
4.66
0.19
-0.45
-1.13
-28.93
-0.86
0.51
-0.01
1.06

> <PUBCHEM_SHAPE_SELFOVERLAP>
1407.22

> <PUBCHEM_SHAPE_VOLUME>
376.8

> <PUBCHEM_COORDINATE_TYPE>
2
5
10

$$$$
