26742544
  -OEChem-12032416173D

 61 63  0     1  0  0  0  0  0999 V2000
    0.5600   -3.2950   -0.4801 O   0  0  0  0  0  0  0  0  0  0  0  0
   -3.6782    2.0579   -2.0261 O   0  0  0  0  0  0  0  0  0  0  0  0
   -4.3607    3.6744   -0.2066 O   0  0  0  0  0  0  0  0  0  0  0  0
    3.5809   -0.9641   -0.9896 O   0  0  0  0  0  0  0  0  0  0  0  0
    6.0406    0.2999   -0.9170 O   0  0  0  0  0  0  0  0  0  0  0  0
   -3.9721    0.1148   -0.7871 N   0  0  0  0  0  0  0  0  0  0  0  0
   -0.0331   -1.8916    1.2694 N   0  0  0  0  0  0  0  0  0  0  0  0
   -3.2447   -1.4897    0.9705 C   0  0  2  0  0  0  0  0  0  0  0  0
   -2.7738   -2.4428   -0.1533 C   0  0  1  0  0  0  0  0  0  0  0  0
   -2.4012   -1.6703   -1.4323 C   0  0  0  0  0  0  0  0  0  0  0  0
   -4.3751   -0.5842    0.4399 C   0  0  0  0  0  0  0  0  0  0  0  0
   -2.1371   -0.6296    1.6080 C   0  0  0  0  0  0  0  0  0  0  0  0
   -1.6897   -3.4374    0.2815 C   0  0  0  0  0  0  0  0  0  0  0  0
   -3.5445   -0.7613   -1.8777 C   0  0  0  0  0  0  0  0  0  0  0  0
   -1.0243   -1.4515    2.2487 C   0  0  0  0  0  0  0  0  0  0  0  0
   -0.2815   -2.8745    0.3181 C   0  0  0  0  0  0  0  0  0  0  0  0
    1.2676   -1.2369    1.3193 C   0  0  0  0  0  0  0  0  0  0  0  0
   -3.9984    1.4963   -0.9754 C   0  0  0  0  0  0  0  0  0  0  0  0
    1.3238    0.0210    0.4559 C   0  0  0  0  0  0  0  0  0  0  0  0
   -4.4479    2.3298    0.1979 C   0  0  0  0  0  0  0  0  0  0  0  0
    2.6755    0.6913    0.4798 C   0  0  0  0  0  0  0  0  0  0  0  0
    3.7453    0.1673   -0.2458 C   0  0  0  0  0  0  0  0  0  0  0  0
    2.8482    1.8487    1.2392 C   0  0  0  0  0  0  0  0  0  0  0  0
    4.9877    0.8004   -0.2122 C   0  0  0  0  0  0  0  0  0  0  0  0
   -4.7632    4.5721    0.8264 C   0  0  0  0  0  0  0  0  0  0  0  0
    4.0906    2.4819    1.2728 C   0  0  0  0  0  0  0  0  0  0  0  0
    5.1604    1.9576    0.5470 C   0  0  0  0  0  0  0  0  0  0  0  0
    3.1698   -0.7932   -2.3439 C   0  0  0  0  0  0  0  0  0  0  0  0
    7.2754    1.0085   -0.8274 C   0  0  0  0  0  0  0  0  0  0  0  0
   -3.6767   -2.1054    1.7721 H   0  0  0  0  0  0  0  0  0  0  0  0
   -3.6490   -3.0606   -0.4065 H   0  0  0  0  0  0  0  0  0  0  0  0
   -2.1614   -2.3729   -2.2390 H   0  0  0  0  0  0  0  0  0  0  0  0
   -1.5083   -1.0569   -1.2642 H   0  0  0  0  0  0  0  0  0  0  0  0
   -5.2494   -1.1947    0.1811 H   0  0  0  0  0  0  0  0  0  0  0  0
   -4.7007    0.1075    1.2196 H   0  0  0  0  0  0  0  0  0  0  0  0
   -2.5989   -0.0235    2.3985 H   0  0  0  0  0  0  0  0  0  0  0  0
   -1.7232    0.0768    0.8801 H   0  0  0  0  0  0  0  0  0  0  0  0
   -1.6768   -4.2679   -0.4375 H   0  0  0  0  0  0  0  0  0  0  0  0
   -1.9307   -3.8907    1.2492 H   0  0  0  0  0  0  0  0  0  0  0  0
   -3.2323   -0.1773   -2.7492 H   0  0  0  0  0  0  0  0  0  0  0  0
   -4.4138   -1.3576   -2.1790 H   0  0  0  0  0  0  0  0  0  0  0  0
   -0.5242   -0.8417    3.0098 H   0  0  0  0  0  0  0  0  0  0  0  0
   -1.4289   -2.3275    2.7668 H   0  0  0  0  0  0  0  0  0  0  0  0
    2.0227   -1.9532    0.9742 H   0  0  0  0  0  0  0  0  0  0  0  0
    1.5231   -1.0135    2.3623 H   0  0  0  0  0  0  0  0  0  0  0  0
    1.0354   -0.2096   -0.5761 H   0  0  0  0  0  0  0  0  0  0  0  0
    0.5631    0.7322    0.8023 H   0  0  0  0  0  0  0  0  0  0  0  0
   -3.7828    2.1534    1.0494 H   0  0  0  0  0  0  0  0  0  0  0  0
   -5.4841    2.0797    0.4477 H   0  0  0  0  0  0  0  0  0  0  0  0
    2.0252    2.2679    1.8119 H   0  0  0  0  0  0  0  0  0  0  0  0
   -4.6721    5.5936    0.4478 H   0  0  0  0  0  0  0  0  0  0  0  0
   -4.1148    4.4616    1.7009 H   0  0  0  0  0  0  0  0  0  0  0  0
   -5.8062    4.3910    1.1032 H   0  0  0  0  0  0  0  0  0  0  0  0
    4.2241    3.3827    1.8649 H   0  0  0  0  0  0  0  0  0  0  0  0
    6.0951    2.5026    0.6207 H   0  0  0  0  0  0  0  0  0  0  0  0
    2.7563   -1.7412   -2.6987 H   0  0  0  0  0  0  0  0  0  0  0  0
    4.0362   -0.5367   -2.9610 H   0  0  0  0  0  0  0  0  0  0  0  0
    2.4048   -0.0168   -2.4459 H   0  0  0  0  0  0  0  0  0  0  0  0
    8.0003    0.4715   -1.4481 H   0  0  0  0  0  0  0  0  0  0  0  0
    7.6691    1.0060    0.1947 H   0  0  0  0  0  0  0  0  0  0  0  0
    7.1914    2.0196   -1.2401 H   0  0  0  0  0  0  0  0  0  0  0  0
  1 16  2  0  0  0  0
  2 18  2  0  0  0  0
  3 20  1  0  0  0  0
  3 25  1  0  0  0  0
  4 22  1  0  0  0  0
  4 28  1  0  0  0  0
  5 24  1  0  0  0  0
  5 29  1  0  0  0  0
  6 11  1  0  0  0  0
  6 14  1  0  0  0  0
  6 18  1  0  0  0  0
  7 15  1  0  0  0  0
  7 16  1  0  0  0  0
  7 17  1  0  0  0  0
  8  9  1  0  0  0  0
  8 11  1  0  0  0  0
  8 12  1  0  0  0  0
  8 30  1  0  0  0  0
  9 10  1  0  0  0  0
  9 13  1  0  0  0  0
  9 31  1  0  0  0  0
 10 14  1  0  0  0  0
 10 32  1  0  0  0  0
 10 33  1  0  0  0  0
 11 34  1  0  0  0  0
 11 35  1  0  0  0  0
 12 15  1  0  0  0  0
 12 36  1  0  0  0  0
 12 37  1  0  0  0  0
 13 16  1  0  0  0  0
 13 38  1  0  0  0  0
 13 39  1  0  0  0  0
 14 40  1  0  0  0  0
 14 41  1  0  0  0  0
 15 42  1  0  0  0  0
 15 43  1  0  0  0  0
 17 19  1  0  0  0  0
 17 44  1  0  0  0  0
 17 45  1  0  0  0  0
 18 20  1  0  0  0  0
 19 21  1  0  0  0  0
 19 46  1  0  0  0  0
 19 47  1  0  0  0  0
 20 48  1  0  0  0  0
 20 49  1  0  0  0  0
 21 22  2  0  0  0  0
 21 23  1  0  0  0  0
 22 24  1  0  0  0  0
 23 26  2  0  0  0  0
 23 50  1  0  0  0  0
 24 27  2  0  0  0  0
 25 51  1  0  0  0  0
 25 52  1  0  0  0  0
 25 53  1  0  0  0  0
 26 27  1  0  0  0  0
 26 54  1  0  0  0  0
 27 55  1  0  0  0  0
 28 56  1  0  0  0  0
 28 57  1  0  0  0  0
 28 58  1  0  0  0  0
 29 59  1  0  0  0  0
 29 60  1  0  0  0  0
 29 61  1  0  0  0  0
M  END
> <PUBCHEM_COMPOUND_CID>
26742544

> <PUBCHEM_CONFORMER_RMSD>
1

> <PUBCHEM_CONFORMER_DIVERSEORDER>
1
141
85
38
146
138
145
70
127
49
32
140
139
131
54
34
115
157
52
27
51
94
103
147
136
99
143
40
150
134
60
114
97
122
90
120
59
93
58
65
154
17
57
153
26
22
155
137
63
84
50
11
12
107
78
101
55
68
62
25
104
132
111
72
61
66
126
148
102
159
71
48
33
10
130
92
89
80
105
144
46
73
117
91
121
23
56
67
76
16
20
110
152
128
113
123
133
129
41
88
100
3
125
98
8
83
14
135
87
9
2
95
39
74
43
13
79
45
19
160
119
156
28
82
124
64
15
35
116
4
108
37
158
24
30
31
75
109
149
86
96
42
53
106
142
29
112
151
81
21
69
77
118
161
44
18
36
7
5
47
6

> <PUBCHEM_MMFF94_PARTIAL_CHARGES>
28
1 -0.57
11 0.3
13 0.06
14 0.3
15 0.3
16 0.57
17 0.3
18 0.57
19 0.14
2 -0.57
20 0.34
21 -0.14
22 0.08
23 -0.15
24 0.08
25 0.28
26 -0.15
27 -0.15
28 0.28
29 0.28
3 -0.56
4 -0.36
5 -0.36
50 0.15
54 0.15
55 0.15
6 -0.66
7 -0.66

> <PUBCHEM_EFFECTIVE_ROTOR_COUNT>
9.6

> <PUBCHEM_PHARMACOPHORE_FEATURES>
8
1 1 acceptor
1 2 acceptor
1 3 acceptor
1 4 acceptor
1 5 acceptor
6 21 22 23 24 26 27 rings
6 6 8 9 10 11 14 rings
7 7 8 9 12 13 15 16 rings

> <PUBCHEM_HEAVY_ATOM_COUNT>
29

> <PUBCHEM_ATOM_DEF_STEREO_COUNT>
2

> <PUBCHEM_ATOM_UDEF_STEREO_COUNT>
0

> <PUBCHEM_BOND_DEF_STEREO_COUNT>
0

> <PUBCHEM_BOND_UDEF_STEREO_COUNT>
0

> <PUBCHEM_ISOTOPIC_ATOM_COUNT>
0

> <PUBCHEM_COMPONENT_COUNT>
1

> <PUBCHEM_CACTVS_TAUTO_COUNT>
2

> <PUBCHEM_CONFORMER_ID>
01980F1000000001

> <PUBCHEM_MMFF94_ENERGY>
92.0309

> <PUBCHEM_FEATURE_SELFOVERLAP>
40.646

> <PUBCHEM_SHAPE_FINGERPRINT>
10291535 26 18191296289786007435
105312 117 18408044030571806982
10670039 82 18187921815580715220
12422481 6 17096348558989382974
12633257 1 15430035482606348371
13944108 23 17619348701997782789
14251757 17 18272653441339042809
14251764 38 18337954596675869668
14251764 75 18197218036629713273
14279260 333 18129943374127556550
14347329 18 18260827120594915304
14713325 29 18263083365647173363
15163728 17 18336267830090716811
15183329 4 18411416254757489674
17349148 13 17274555342357087002
21033648 144 17842840194746883944
21033648 29 18338229479120023760
21033650 10 18187928451621764146
21133410 52 7995672175940461160
21859007 373 18271513308844745576
22393880 68 18270679904552885194
23559900 14 17702389631897991458
312425 83 17988921154456161141
4015057 19 17345476071267393410
4098825 35 17704076188008043023
469060 322 16660363697384225909
508706 21 18338509871416477920
5283173 99 18341049709391909416
5895379 119 18115879662330232964
7288768 16 17895197650103172953

> <PUBCHEM_SHAPE_MULTIPOLES>
557.5
13.79
4.45
1.86
16.18
2.89
-0.34
11.73
-3.87
-6.87
0.76
-0.35
-0.32
1.21

> <PUBCHEM_SHAPE_SELFOVERLAP>
1155.372

> <PUBCHEM_SHAPE_VOLUME>
315.2

> <PUBCHEM_COORDINATE_TYPE>
2
5
10

$$$$
