45783470
  -OEChem-12032416203D

 53 56  0     1  0  0  0  0  0999 V2000
   -1.4213   -3.0669    1.1315 O   0  0  0  0  0  0  0  0  0  0  0  0
    7.6595    1.7068    0.2469 O   0  0  0  0  0  0  0  0  0  0  0  0
   -3.7567   -0.6101   -0.2882 N   0  0  1  0  0  0  0  0  0  0  0  0
   -0.8573   -1.3029   -0.1283 N   0  0  0  0  0  0  0  0  0  0  0  0
   -0.0306   -2.9401    1.2392 N   0  0  0  0  0  0  0  0  0  0  0  0
    3.9181   -1.5335    0.7469 N   0  0  0  0  0  0  0  0  0  0  0  0
    5.4198    0.0360   -0.2314 N   0  0  0  0  0  0  0  0  0  0  0  0
   -3.3139   -1.9825    0.0289 C   0  0  1  0  0  0  0  0  0  0  0  0
   -3.7364   -2.8217   -1.1912 C   0  0  0  0  0  0  0  0  0  0  0  0
   -4.4613   -1.8493   -2.1108 C   0  0  0  0  0  0  0  0  0  0  0  0
   -4.9106   -0.7431   -1.1776 C   0  0  0  0  0  0  0  0  0  0  0  0
   -4.0651    0.1820    0.8954 C   0  0  0  0  0  0  0  0  0  0  0  0
   -1.8279   -2.0649    0.3088 C   0  0  0  0  0  0  0  0  0  0  0  0
   -4.0302    1.6591    0.6063 C   0  0  0  0  0  0  0  0  0  0  0  0
   -2.8410    2.3721    0.7591 C   0  0  0  0  0  0  0  0  0  0  0  0
   -5.1872    2.3148    0.1857 C   0  0  0  0  0  0  0  0  0  0  0  0
    0.2261   -1.8785    0.4691 C   0  0  0  0  0  0  0  0  0  0  0  0
   -2.8089    3.7407    0.4914 C   0  0  0  0  0  0  0  0  0  0  0  0
   -5.1552    3.6833   -0.0821 C   0  0  0  0  0  0  0  0  0  0  0  0
    1.5527   -1.3690    0.2746 C   0  0  0  0  0  0  0  0  0  0  0  0
   -3.9660    4.3963    0.0708 C   0  0  0  0  0  0  0  0  0  0  0  0
    1.7839   -0.2626   -0.5352 C   0  0  0  0  0  0  0  0  0  0  0  0
    2.6440   -1.9631    0.8878 C   0  0  0  0  0  0  0  0  0  0  0  0
    3.0810    0.2090   -0.7048 C   0  0  0  0  0  0  0  0  0  0  0  0
    4.1039   -0.4557   -0.0479 C   0  0  0  0  0  0  0  0  0  0  0  0
    5.7126    1.1660   -1.0516 C   0  0  0  0  0  0  0  0  0  0  0  0
    7.2104    1.4198   -1.0714 C   0  0  0  0  0  0  0  0  0  0  0  0
    9.0576    1.9582    0.2778 C   0  0  0  0  0  0  0  0  0  0  0  0
   -3.8563   -2.3652    0.9052 H   0  0  0  0  0  0  0  0  0  0  0  0
   -2.8990   -3.2987   -1.7118 H   0  0  0  0  0  0  0  0  0  0  0  0
   -4.4284   -3.6111   -0.8732 H   0  0  0  0  0  0  0  0  0  0  0  0
   -5.2971   -2.3214   -2.6356 H   0  0  0  0  0  0  0  0  0  0  0  0
   -3.7644   -1.4572   -2.8621 H   0  0  0  0  0  0  0  0  0  0  0  0
   -5.8160   -1.0505   -0.6390 H   0  0  0  0  0  0  0  0  0  0  0  0
   -5.1211    0.1713   -1.7397 H   0  0  0  0  0  0  0  0  0  0  0  0
   -3.3233   -0.0106    1.6830 H   0  0  0  0  0  0  0  0  0  0  0  0
   -5.0282   -0.0996    1.3426 H   0  0  0  0  0  0  0  0  0  0  0  0
   -1.9316    1.8728    1.0832 H   0  0  0  0  0  0  0  0  0  0  0  0
   -6.1221    1.7735    0.0680 H   0  0  0  0  0  0  0  0  0  0  0  0
   -1.8829    4.2957    0.6097 H   0  0  0  0  0  0  0  0  0  0  0  0
   -6.0564    4.1941   -0.4084 H   0  0  0  0  0  0  0  0  0  0  0  0
   -3.9412    5.4619   -0.1376 H   0  0  0  0  0  0  0  0  0  0  0  0
    0.9729    0.2513   -1.0450 H   0  0  0  0  0  0  0  0  0  0  0  0
    2.5492   -2.8299    1.5351 H   0  0  0  0  0  0  0  0  0  0  0  0
    3.2254    1.0741   -1.3411 H   0  0  0  0  0  0  0  0  0  0  0  0
    6.1585   -0.4568    0.2574 H   0  0  0  0  0  0  0  0  0  0  0  0
    5.3817    1.0011   -2.0836 H   0  0  0  0  0  0  0  0  0  0  0  0
    5.2154    2.0587   -0.6533 H   0  0  0  0  0  0  0  0  0  0  0  0
    7.7402    0.5390   -1.4544 H   0  0  0  0  0  0  0  0  0  0  0  0
    7.4278    2.2724   -1.7252 H   0  0  0  0  0  0  0  0  0  0  0  0
    9.6131    1.0795   -0.0640 H   0  0  0  0  0  0  0  0  0  0  0  0
    9.3056    2.8258   -0.3412 H   0  0  0  0  0  0  0  0  0  0  0  0
    9.3460    2.1727    1.3104 H   0  0  0  0  0  0  0  0  0  0  0  0
  1  5  1  0  0  0  0
  1 13  1  0  0  0  0
  2 27  1  0  0  0  0
  2 28  1  0  0  0  0
  3  8  1  0  0  0  0
  3 11  1  0  0  0  0
  3 12  1  0  0  0  0
  4 13  2  0  0  0  0
  4 17  1  0  0  0  0
  5 17  2  0  0  0  0
  6 23  1  0  0  0  0
  6 25  2  0  0  0  0
  7 25  1  0  0  0  0
  7 26  1  0  0  0  0
  7 46  1  0  0  0  0
  8  9  1  0  0  0  0
  8 13  1  0  0  0  0
  8 29  1  0  0  0  0
  9 10  1  0  0  0  0
  9 30  1  0  0  0  0
  9 31  1  0  0  0  0
 10 11  1  0  0  0  0
 10 32  1  0  0  0  0
 10 33  1  0  0  0  0
 11 34  1  0  0  0  0
 11 35  1  0  0  0  0
 12 14  1  0  0  0  0
 12 36  1  0  0  0  0
 12 37  1  0  0  0  0
 14 15  2  0  0  0  0
 14 16  1  0  0  0  0
 15 18  1  0  0  0  0
 15 38  1  0  0  0  0
 16 19  2  0  0  0  0
 16 39  1  0  0  0  0
 17 20  1  0  0  0  0
 18 21  2  0  0  0  0
 18 40  1  0  0  0  0
 19 21  1  0  0  0  0
 19 41  1  0  0  0  0
 20 22  1  0  0  0  0
 20 23  2  0  0  0  0
 21 42  1  0  0  0  0
 22 24  2  0  0  0  0
 22 43  1  0  0  0  0
 23 44  1  0  0  0  0
 24 25  1  0  0  0  0
 24 45  1  0  0  0  0
 26 27  1  0  0  0  0
 26 47  1  0  0  0  0
 26 48  1  0  0  0  0
 27 49  1  0  0  0  0
 27 50  1  0  0  0  0
 28 51  1  0  0  0  0
 28 52  1  0  0  0  0
 28 53  1  0  0  0  0
M  END
> <PUBCHEM_COMPOUND_CID>
45783470

> <PUBCHEM_CONFORMER_RMSD>
1

> <PUBCHEM_CONFORMER_DIVERSEORDER>
1
68
52
103
39
43
26
58
102
94
6
10
34
25
78
19
31
44
105
84
56
82
21
38
53
24
32
75
88
12
42
51
81
66
27
18
49
74
60
62
100
108
2
101
23
46
14
96
92
30
15
33
91
57
47
107
20
83
71
54
95
9
45
106
28
85
4
3
93
73
48
90
69
61
22
50
17
79
41
55
104
11
98
37
99
5
16
67
40
86
87
80
65
72
35
63
76
89
59
7
77
36
13
97
70
8
64
29

> <PUBCHEM_MMFF94_PARTIAL_CHARGES>
35
1 -0.02
11 0.27
12 0.41
13 0.3
14 -0.14
15 -0.15
16 -0.15
17 0.46
18 -0.15
19 -0.15
2 -0.56
20 0.05
21 -0.15
22 -0.15
23 0.16
24 -0.15
25 0.41
26 0.37
27 0.28
28 0.28
3 -0.81
38 0.15
39 0.15
4 -0.57
40 0.15
41 0.15
42 0.15
43 0.15
44 0.15
45 0.15
46 0.4
5 -0.41
6 -0.62
7 -0.87
8 0.45

> <PUBCHEM_EFFECTIVE_ROTOR_COUNT>
9

> <PUBCHEM_PHARMACOPHORE_FEATURES>
9
1 2 acceptor
1 3 cation
1 7 donor
3 4 5 17 cation
3 6 7 25 cation
5 1 4 5 13 17 rings
5 3 8 9 10 11 rings
6 14 15 16 18 19 21 rings
6 6 20 22 23 24 25 rings

> <PUBCHEM_HEAVY_ATOM_COUNT>
28

> <PUBCHEM_ATOM_DEF_STEREO_COUNT>
1

> <PUBCHEM_ATOM_UDEF_STEREO_COUNT>
0

> <PUBCHEM_BOND_DEF_STEREO_COUNT>
0

> <PUBCHEM_BOND_UDEF_STEREO_COUNT>
0

> <PUBCHEM_ISOTOPIC_ATOM_COUNT>
0

> <PUBCHEM_COMPONENT_COUNT>
1

> <PUBCHEM_CACTVS_TAUTO_COUNT>
8

> <PUBCHEM_CONFORMER_ID>
02BA99AE00000001

> <PUBCHEM_MMFF94_ENERGY>
65.9623

> <PUBCHEM_FEATURE_SELFOVERLAP>
45.672

> <PUBCHEM_SHAPE_FINGERPRINT>
10087517 78 18410575110797263068
10291535 26 18336835285354055723
10454371 7 18273502268975189292
10670039 82 18411697724937923760
10871710 139 18411697652640586095
10917259 128 18340754976394780920
10937287 8 18123470476070971163
10951579 204 18267044807927813628
11477941 20 18059000817470590981
11761917 142 18412541003761472608
12107183 9 17975406919780210682
12717326 25 15140949652807930592
12788726 201 18198039440977951535
12888983 3 17916009339671039560
12895837 130 18411705365932916393
14114211 80 17771352968366660577
14251764 75 17981055111323423217
14765038 42 17986692393238033329
14950920 106 11386368148977407391
15064981 113 17988069002964806022
15289351 153 18337663205827071560
155225 5 18339647737356454296
15575132 122 18339923698232557285
16112460 7 18186518787615496080
16126227 98 18271251513107719097
20511986 3 17968938570093698889
21033650 10 18269858461454515270
21756936 100 18408611383093514627
21774942 28 18412265035153543092
23516275 100 17767385139417846720
23569914 152 17339299818349612174
2838139 119 18339927121131562116
312425 83 18058176033236499807
4169191 19 18040992982298825894
44249763 50 17774425170835488922
445580 204 18410575106770983172
44802255 64 17632018645568129262
5047190 69 18342735261171653000
5104073 3 17603586335683544330
5171179 24 17916295224455055752
563151 74 15357966829159379177
563151 97 18410292506465998222
6009941 240 12757412956788379254
6058803 2 18192411010205384059
6201320 215 18272931601514222184
6327066 14 18266458711883657573
636775 72 18339360890077029576
6608658 132 18341323483212729279
7288768 16 17749965358150316579
7808743 9 18340204081854830963
7970288 3 9871163030717379269

> <PUBCHEM_SHAPE_MULTIPOLES>
539.58
19.06
5.02
1.21
45.79
3.67
-0.34
17.47
-3.69
-7.91
0.63
-0.61
-0.68
-2.4

> <PUBCHEM_SHAPE_SELFOVERLAP>
1153.013

> <PUBCHEM_SHAPE_VOLUME>
300.6

> <PUBCHEM_COORDINATE_TYPE>
2
5
10

$$$$
