11886497
  -OEChem-12032416373D

 51 54  0     1  0  0  0  0  0999 V2000
   -6.5705    3.0747    1.0369 F   0  0  0  0  0  0  0  0  0  0  0  0
   -8.3513    1.9845    0.4502 F   0  0  0  0  0  0  0  0  0  0  0  0
   -7.0035    2.7586   -1.0705 F   0  0  0  0  0  0  0  0  0  0  0  0
    2.4477   -0.5347   -1.1120 O   0  0  0  0  0  0  0  0  0  0  0  0
    2.0566   -3.1373    0.4621 O   0  0  0  0  0  0  0  0  0  0  0  0
    4.6895   -0.7087    0.5161 O   0  0  0  0  0  0  0  0  0  0  0  0
   -2.2044   -2.5658   -0.2090 O   0  0  0  0  0  0  0  0  0  0  0  0
   -0.6308   -0.9663   -0.7670 N   0  0  0  0  0  0  0  0  0  0  0  0
   -2.7998   -0.3032   -0.4010 N   0  0  0  0  0  0  0  0  0  0  0  0
    1.2767   -1.9243    0.4114 C   0  0  1  0  0  0  0  0  0  0  0  0
    2.2581   -0.7757    0.2923 C   0  0  1  0  0  0  0  0  0  0  0  0
    0.4918   -1.8655   -0.8782 C   0  0  2  0  0  0  0  0  0  0  0  0
    3.5015   -1.3407    0.9360 C   0  0  1  0  0  0  0  0  0  0  0  0
    1.5249   -1.3410   -1.8605 C   0  0  0  0  0  0  0  0  0  0  0  0
    3.4485   -2.7916    0.5133 C   0  0  0  0  0  0  0  0  0  0  0  0
    4.7364    0.6586    0.9160 C   0  0  0  0  0  0  0  0  0  0  0  0
   -1.9230   -1.3911   -0.4336 C   0  0  0  0  0  0  0  0  0  0  0  0
    6.0226    1.2652    0.4373 C   0  0  0  0  0  0  0  0  0  0  0  0
   -4.1832   -0.3119   -0.1067 C   0  0  0  0  0  0  0  0  0  0  0  0
    7.1489    1.2222    1.2515 C   0  0  0  0  0  0  0  0  0  0  0  0
    6.0768    1.8644   -0.8163 C   0  0  0  0  0  0  0  0  0  0  0  0
    8.3447    1.7859    0.8065 C   0  0  0  0  0  0  0  0  0  0  0  0
    7.2727    2.4279   -1.2612 C   0  0  0  0  0  0  0  0  0  0  0  0
   -4.8893    0.8800   -0.1257 C   0  0  0  0  0  0  0  0  0  0  0  0
   -4.8042   -1.5132    0.1947 C   0  0  0  0  0  0  0  0  0  0  0  0
    8.4066    2.3886   -0.4498 C   0  0  0  0  0  0  0  0  0  0  0  0
   -6.2536    0.8702    0.1646 C   0  0  0  0  0  0  0  0  0  0  0  0
   -6.1685   -1.5229    0.4849 C   0  0  0  0  0  0  0  0  0  0  0  0
   -6.8932   -0.3313    0.4698 C   0  0  0  0  0  0  0  0  0  0  0  0
   -7.0289    2.1444    0.1480 C   0  0  0  0  0  0  0  0  0  0  0  0
    0.6682   -1.8828    1.3204 H   0  0  0  0  0  0  0  0  0  0  0  0
    1.8944    0.1503    0.7473 H   0  0  0  0  0  0  0  0  0  0  0  0
    0.1253   -2.8476   -1.1962 H   0  0  0  0  0  0  0  0  0  0  0  0
    3.4111   -1.2918    2.0296 H   0  0  0  0  0  0  0  0  0  0  0  0
    2.0993   -2.1637   -2.3003 H   0  0  0  0  0  0  0  0  0  0  0  0
    1.0997   -0.7452   -2.6739 H   0  0  0  0  0  0  0  0  0  0  0  0
    3.9642   -3.4493    1.2195 H   0  0  0  0  0  0  0  0  0  0  0  0
    3.8905   -2.9536   -0.4762 H   0  0  0  0  0  0  0  0  0  0  0  0
   -0.4641    0.0300   -0.8719 H   0  0  0  0  0  0  0  0  0  0  0  0
    3.8977    1.2251    0.4960 H   0  0  0  0  0  0  0  0  0  0  0  0
    4.6682    0.7305    2.0088 H   0  0  0  0  0  0  0  0  0  0  0  0
   -2.4026    0.6083   -0.6147 H   0  0  0  0  0  0  0  0  0  0  0  0
    7.1125    0.7532    2.2309 H   0  0  0  0  0  0  0  0  0  0  0  0
    5.2003    1.8982   -1.4575 H   0  0  0  0  0  0  0  0  0  0  0  0
   -4.3918    1.8169   -0.3636 H   0  0  0  0  0  0  0  0  0  0  0  0
    9.2279    1.7549    1.4379 H   0  0  0  0  0  0  0  0  0  0  0  0
    7.3213    2.8966   -2.2398 H   0  0  0  0  0  0  0  0  0  0  0  0
   -4.3145   -2.4749    0.2273 H   0  0  0  0  0  0  0  0  0  0  0  0
    9.3378    2.8271   -0.7965 H   0  0  0  0  0  0  0  0  0  0  0  0
   -6.6676   -2.4579    0.7228 H   0  0  0  0  0  0  0  0  0  0  0  0
   -7.9549   -0.3592    0.6985 H   0  0  0  0  0  0  0  0  0  0  0  0
  1 30  1  0  0  0  0
  2 30  1  0  0  0  0
  3 30  1  0  0  0  0
  4 11  1  0  0  0  0
  4 14  1  0  0  0  0
  5 10  1  0  0  0  0
  5 15  1  0  0  0  0
  6 13  1  0  0  0  0
  6 16  1  0  0  0  0
  7 17  2  0  0  0  0
  8 12  1  0  0  0  0
  8 17  1  0  0  0  0
  8 39  1  0  0  0  0
  9 17  1  0  0  0  0
  9 19  1  0  0  0  0
  9 42  1  0  0  0  0
 10 11  1  0  0  0  0
 10 12  1  0  0  0  0
 10 31  1  0  0  0  0
 11 13  1  0  0  0  0
 11 32  1  0  0  0  0
 12 14  1  0  0  0  0
 12 33  1  0  0  0  0
 13 15  1  0  0  0  0
 13 34  1  0  0  0  0
 14 35  1  0  0  0  0
 14 36  1  0  0  0  0
 15 37  1  0  0  0  0
 15 38  1  0  0  0  0
 16 18  1  0  0  0  0
 16 40  1  0  0  0  0
 16 41  1  0  0  0  0
 18 20  2  0  0  0  0
 18 21  1  0  0  0  0
 19 24  1  0  0  0  0
 19 25  2  0  0  0  0
 20 22  1  0  0  0  0
 20 43  1  0  0  0  0
 21 23  2  0  0  0  0
 21 44  1  0  0  0  0
 22 26  2  0  0  0  0
 22 46  1  0  0  0  0
 23 26  1  0  0  0  0
 23 47  1  0  0  0  0
 24 27  2  0  0  0  0
 24 45  1  0  0  0  0
 25 28  1  0  0  0  0
 25 48  1  0  0  0  0
 26 49  1  0  0  0  0
 27 29  1  0  0  0  0
 27 30  1  0  0  0  0
 28 29  2  0  0  0  0
 28 50  1  0  0  0  0
 29 51  1  0  0  0  0
M  END
> <PUBCHEM_COMPOUND_CID>
11886497

> <PUBCHEM_CONFORMER_RMSD>
1

> <PUBCHEM_CONFORMER_DIVERSEORDER>
2
67
53
59
61
68
31
51
63
38
15
56
30
65
58
71
48
50
60
55
17
64
44
74
46
42
75
25
69
77
52
47
39
36
41
49
76
27
62
24
54
13
66
18
70
33
45
9
57
35
26
16
43
73
22
40
21
28
34
7
19
12
20
14
37
4
23
72
5
8
11
32
29
10
6
3
1

> <PUBCHEM_MMFF94_PARTIAL_CHARGES>
41
1 -0.34
10 0.28
11 0.28
12 0.3
13 0.28
14 0.28
15 0.28
16 0.42
17 0.69
18 -0.14
19 0.12
2 -0.34
20 -0.15
21 -0.15
22 -0.15
23 -0.15
24 -0.15
25 -0.15
26 -0.15
27 -0.14
28 -0.15
29 -0.15
3 -0.34
30 1.16
39 0.37
4 -0.56
42 0.37
43 0.15
44 0.15
45 0.15
46 0.15
47 0.15
48 0.15
49 0.15
5 -0.56
50 0.15
51 0.15
6 -0.56
7 -0.57
8 -0.73
9 -0.55

> <PUBCHEM_EFFECTIVE_ROTOR_COUNT>
9.2

> <PUBCHEM_PHARMACOPHORE_FEATURES>
10
1 4 acceptor
1 5 acceptor
1 6 acceptor
1 7 acceptor
1 8 donor
1 9 donor
5 4 10 11 12 14 rings
5 5 10 11 13 15 rings
6 18 20 21 22 23 26 rings
6 19 24 25 27 28 29 rings

> <PUBCHEM_HEAVY_ATOM_COUNT>
30

> <PUBCHEM_ATOM_DEF_STEREO_COUNT>
4

> <PUBCHEM_ATOM_UDEF_STEREO_COUNT>
0

> <PUBCHEM_BOND_DEF_STEREO_COUNT>
0

> <PUBCHEM_BOND_UDEF_STEREO_COUNT>
0

> <PUBCHEM_ISOTOPIC_ATOM_COUNT>
0

> <PUBCHEM_COMPONENT_COUNT>
1

> <PUBCHEM_CACTVS_TAUTO_COUNT>
3

> <PUBCHEM_CONFORMER_ID>
00B55FA100000002

> <PUBCHEM_MMFF94_ENERGY>
81.7579

> <PUBCHEM_FEATURE_SELFOVERLAP>
51.519

> <PUBCHEM_SHAPE_FINGERPRINT>
10 15 18187362168404695946
10190206 1 17560814238104095648
10280341 67 18200579385224934512
10554248 39 17916858007031177903
10670039 82 15913059711016819754
10693767 8 11383845848603366956
10835480 77 18409443662098310673
10883706 17 10375859805927135716
10930396 42 16950280699136327669
11991303 11 16415191321356547207
125118 31 18411138026533052384
12522641 68 18201999962331969374
12539765 74 18343306950993112150
12645989 146 10879994670459801203
12895837 130 18343580742678719207
13111901 25 18187087281897820380
13248334 5 18193838142038952954
13782708 43 8142077672306271819
14251757 52 18412827984479086972
14394314 77 18410295800674623065
14565420 104 18114177536911115154
14849402 71 18042688480204449036
14931854 50 17418096511842118664
14951699 99 18410293601407650655
15350500 55 18411132520190150973
15510800 12 11747209122471686704
1577012 14 18272926137376603550
15840311 113 18335704914765851790
16989713 51 17273405296165647911
16992610 120 18115601465225608294
16994733 274 18334853935288391064
19303781 99 8358252605924443113
20105231 36 11671775010688957005
20691028 202 18192711366195515500
20721686 146 18343302574357763812
20982279 24 12031200963910932101
21095123 293 18334860575994165084
21130935 74 18113618950407414603
21298829 104 18410013242933117460
21521239 73 11455889174622696318
21585482 111 18335136462337494580
22224240 67 17385998516427614442
23522609 53 17532941721977825390
24771293 8 18259984898439141815
2747138 104 13695857135249572732
2838139 119 18129936914059042812
3411729 13 18408601457841039090
3663271 9 18186798080617393819
3711267 37 18341058514186370240
3918712 181 18341330080810718016
406291 66 8935001468902973856
4073 2 18260551130233647075
4093350 32 17989211434833403094
4169191 19 18408317783603319589
444735 82 18408324371850731036
504579 68 12391510846437113297
5718773 13 9079118860370308016
5758199 1 18261109712231350746
5911458 16 18334861658040840004
5937810 71 17346329172132261849
59682541 35 12973879352084238292
59682541 52 16988294127464571318
6438161 24 9655578496108841692
9689198 14 18272374204594135916
9896288 288 18192432098310418370

> <PUBCHEM_SHAPE_MULTIPOLES>
562.13
28.12
3.51
1.15
2.28
0.41
0.24
30.36
-4.02
0.9
0
-1.28
0.09
-1

> <PUBCHEM_SHAPE_SELFOVERLAP>
1218.209

> <PUBCHEM_SHAPE_VOLUME>
308.5

> <PUBCHEM_COORDINATE_TYPE>
2
5
10

$$$$
