7050301
  -OEChem-12032416133D

 55 58  0     1  0  0  0  0  0999 V2000
    7.3706   -2.8363    0.0214 Cl  0  0  0  0  0  0  0  0  0  0  0  0
    8.6772   -0.2155   -0.4388 F   0  0  0  0  0  0  0  0  0  0  0  0
    2.6702    1.9234   -1.4970 O   0  0  0  0  0  0  0  0  0  0  0  0
    2.6727   -1.6522    1.4655 O   0  0  0  0  0  0  0  0  0  0  0  0
   -3.9381    1.9492    1.3779 O   0  0  0  0  0  0  0  0  0  0  0  0
   -7.1291   -2.9173   -0.8407 O   0  0  0  0  0  0  0  0  0  0  0  0
    1.0111   -0.3491    0.5033 N   0  0  0  0  0  0  0  0  0  0  0  0
   -2.1456    1.2669    0.0587 N   0  0  0  0  0  0  0  0  0  0  0  0
    3.1306    0.0852   -0.0776 N   0  0  0  0  0  0  0  0  0  0  0  0
   -6.3115   -0.8623   -0.1300 N   0  0  0  0  0  0  0  0  0  0  0  0
   -1.0900    1.5249    1.0111 C   0  0  2  0  0  0  0  0  0  0  0  0
    0.8832    0.7683   -0.3916 C   0  0  1  0  0  0  0  0  0  0  0  0
    0.2089    1.9476    0.3024 C   0  0  0  0  0  0  0  0  0  0  0  0
   -0.8627    0.3060    1.9222 C   0  0  0  0  0  0  0  0  0  0  0  0
   -0.1667   -0.8447    1.1930 C   0  0  0  0  0  0  0  0  0  0  0  0
   -4.3648    1.1729   -0.8407 C   0  0  0  0  0  0  0  0  0  0  0  0
    2.3407    1.0270   -0.7298 C   0  0  0  0  0  0  0  0  0  0  0  0
    2.3313   -0.7580    0.7008 C   0  0  0  0  0  0  0  0  0  0  0  0
   -4.1889   -0.2959   -1.2391 C   0  0  0  0  0  0  0  0  0  0  0  0
   -5.8274    1.5197   -0.5448 C   0  0  0  0  0  0  0  0  0  0  0  0
   -3.4827    1.5032    0.3280 C   0  0  0  0  0  0  0  0  0  0  0  0
   -4.9110   -1.2511   -0.2905 C   0  0  0  0  0  0  0  0  0  0  0  0
   -6.5109    0.5017    0.3691 C   0  0  0  0  0  0  0  0  0  0  0  0
    4.5565    0.0038   -0.1687 C   0  0  0  0  0  0  0  0  0  0  0  0
   -7.3259   -1.7696   -0.4329 C   0  0  0  0  0  0  0  0  0  0  0  0
    5.1989   -1.2306   -0.0432 C   0  0  0  0  0  0  0  0  0  0  0  0
    5.3134    1.1582   -0.3856 C   0  0  0  0  0  0  0  0  0  0  0  0
   -8.7421   -1.2881   -0.2423 C   0  0  0  0  0  0  0  0  0  0  0  0
    6.5885   -1.3103   -0.1338 C   0  0  0  0  0  0  0  0  0  0  0  0
    6.7030    1.0786   -0.4761 C   0  0  0  0  0  0  0  0  0  0  0  0
    7.3406   -0.1556   -0.3502 C   0  0  0  0  0  0  0  0  0  0  0  0
   -1.4208    2.3609    1.6401 H   0  0  0  0  0  0  0  0  0  0  0  0
    0.3489    0.4410   -1.2895 H   0  0  0  0  0  0  0  0  0  0  0  0
    0.8915    2.3708    1.0520 H   0  0  0  0  0  0  0  0  0  0  0  0
    0.0140    2.7460   -0.4240 H   0  0  0  0  0  0  0  0  0  0  0  0
   -1.8093   -0.0476    2.3473 H   0  0  0  0  0  0  0  0  0  0  0  0
   -0.2298    0.6183    2.7631 H   0  0  0  0  0  0  0  0  0  0  0  0
    0.1182   -1.6311    1.8987 H   0  0  0  0  0  0  0  0  0  0  0  0
   -0.8299   -1.2851    0.4404 H   0  0  0  0  0  0  0  0  0  0  0  0
   -4.0263    1.8062   -1.6722 H   0  0  0  0  0  0  0  0  0  0  0  0
   -1.8741    0.9220   -0.8562 H   0  0  0  0  0  0  0  0  0  0  0  0
   -3.1425   -0.6035   -1.3250 H   0  0  0  0  0  0  0  0  0  0  0  0
   -4.6218   -0.4229   -2.2409 H   0  0  0  0  0  0  0  0  0  0  0  0
   -6.3703    1.5382   -1.4993 H   0  0  0  0  0  0  0  0  0  0  0  0
   -5.9209    2.5244   -0.1156 H   0  0  0  0  0  0  0  0  0  0  0  0
   -4.8328   -2.2746   -0.6711 H   0  0  0  0  0  0  0  0  0  0  0  0
   -4.4470   -1.2371    0.7027 H   0  0  0  0  0  0  0  0  0  0  0  0
   -6.0961    0.5372    1.3824 H   0  0  0  0  0  0  0  0  0  0  0  0
   -7.5695    0.7537    0.4547 H   0  0  0  0  0  0  0  0  0  0  0  0
    4.6304   -2.1464    0.0939 H   0  0  0  0  0  0  0  0  0  0  0  0
    4.8562    2.1403   -0.4567 H   0  0  0  0  0  0  0  0  0  0  0  0
   -8.9151   -1.0266    0.8050 H   0  0  0  0  0  0  0  0  0  0  0  0
   -9.4380   -2.0883   -0.5131 H   0  0  0  0  0  0  0  0  0  0  0  0
   -8.9403   -0.4306   -0.8908 H   0  0  0  0  0  0  0  0  0  0  0  0
    7.2898    1.9782   -0.6374 H   0  0  0  0  0  0  0  0  0  0  0  0
  1 29  1  0  0  0  0
  2 31  1  0  0  0  0
  3 17  2  0  0  0  0
  4 18  2  0  0  0  0
  5 21  2  0  0  0  0
  6 25  2  0  0  0  0
  7 12  1  0  0  0  0
  7 15  1  0  0  0  0
  7 18  1  0  0  0  0
  8 11  1  0  0  0  0
  8 21  1  0  0  0  0
  8 41  1  0  0  0  0
  9 17  1  0  0  0  0
  9 18  1  0  0  0  0
  9 24  1  0  0  0  0
 10 22  1  0  0  0  0
 10 23  1  0  0  0  0
 10 25  1  0  0  0  0
 11 13  1  0  0  0  0
 11 14  1  0  0  0  0
 11 32  1  0  0  0  0
 12 13  1  0  0  0  0
 12 17  1  0  0  0  0
 12 33  1  0  0  0  0
 13 34  1  0  0  0  0
 13 35  1  0  0  0  0
 14 15  1  0  0  0  0
 14 36  1  0  0  0  0
 14 37  1  0  0  0  0
 15 38  1  0  0  0  0
 15 39  1  0  0  0  0
 16 19  1  0  0  0  0
 16 20  1  0  0  0  0
 16 21  1  0  0  0  0
 16 40  1  0  0  0  0
 19 22  1  0  0  0  0
 19 42  1  0  0  0  0
 19 43  1  0  0  0  0
 20 23  1  0  0  0  0
 20 44  1  0  0  0  0
 20 45  1  0  0  0  0
 22 46  1  0  0  0  0
 22 47  1  0  0  0  0
 23 48  1  0  0  0  0
 23 49  1  0  0  0  0
 24 26  2  0  0  0  0
 24 27  1  0  0  0  0
 25 28  1  0  0  0  0
 26 29  1  0  0  0  0
 26 50  1  0  0  0  0
 27 30  2  0  0  0  0
 27 51  1  0  0  0  0
 28 52  1  0  0  0  0
 28 53  1  0  0  0  0
 28 54  1  0  0  0  0
 29 31  2  0  0  0  0
 30 31  1  0  0  0  0
 30 55  1  0  0  0  0
M  END
> <PUBCHEM_COMPOUND_CID>
7050301

> <PUBCHEM_CONFORMER_RMSD>
1

> <PUBCHEM_CONFORMER_DIVERSEORDER>
2
23
71
9
40
39
42
21
58
12
54
30
48
34
37
56
68
32
31
11
13
49
3
70
36
6
28
63
18
41
51
65
22
16
4
52
53
24
35
17
33
67
43
55
61
38
19
47
5
72
45
60
69
44
7
57
66
10
46
62
15
27
64
50
1
25
59
14
20
26
29
8

> <PUBCHEM_MMFF94_PARTIAL_CHARGES>
31
1 -0.18
10 -0.66
11 0.3
12 0.36
15 0.3
16 0.06
17 0.57
18 0.69
2 -0.19
21 0.57
22 0.3
23 0.3
24 0.12
25 0.57
26 -0.15
27 -0.15
28 0.06
29 0.18
3 -0.57
30 -0.15
31 0.19
4 -0.57
41 0.37
5 -0.57
50 0.15
51 0.15
55 0.15
6 -0.57
7 -0.66
8 -0.73
9 -0.24

> <PUBCHEM_EFFECTIVE_ROTOR_COUNT>
7.2

> <PUBCHEM_PHARMACOPHORE_FEATURES>
9
1 3 acceptor
1 4 acceptor
1 5 acceptor
1 6 acceptor
1 8 donor
5 7 9 12 17 18 rings
6 10 16 19 20 22 23 rings
6 24 26 27 29 30 31 rings
6 7 11 12 13 14 15 rings

> <PUBCHEM_HEAVY_ATOM_COUNT>
31

> <PUBCHEM_ATOM_DEF_STEREO_COUNT>
2

> <PUBCHEM_ATOM_UDEF_STEREO_COUNT>
0

> <PUBCHEM_BOND_DEF_STEREO_COUNT>
0

> <PUBCHEM_BOND_UDEF_STEREO_COUNT>
0

> <PUBCHEM_ISOTOPIC_ATOM_COUNT>
0

> <PUBCHEM_COMPONENT_COUNT>
1

> <PUBCHEM_CACTVS_TAUTO_COUNT>
2

> <PUBCHEM_CONFORMER_ID>
006B943D00000002

> <PUBCHEM_MMFF94_ENERGY>
69.0775

> <PUBCHEM_FEATURE_SELFOVERLAP>
45.785

> <PUBCHEM_SHAPE_FINGERPRINT>
10 15 10159701304795154607
10190108 129 13183032817194799532
10299344 5 18412265043289627943
10595046 47 18261390014497068049
10693767 8 18116147771654184994
11135926 11 18338513024492399911
11315181 36 18343866602564234313
117089 54 17901390310330093683
11991303 11 15213311858320821323
12082328 90 18411979135716874589
12166972 35 18409450293312297856
12236239 1 18411419488245377781
1361 4 18343021047330132070
13668630 136 18411700959037546910
13673619 4 17203323425442562377
13690498 29 18410846677880417133
13692114 37 18335975442172248762
14118638 360 16370996374464005785
14178184 131 17845649386953612271
14347424 109 9151178636842576604
14856354 85 17274819160354004797
14931854 50 18114169853304156283
15142383 8 11674875602849718820
15183329 4 17458339745251159362
15461852 350 18412834577454495996
1577012 14 17603578587556851193
18335252 98 18130790062125983190
18681886 176 18410568509136948280
20028762 73 18339643344079326278
20105231 36 15410900660964313068
21130935 74 18129381502327438810
21150785 3 18261111876720391842
21267235 1 18341895212458929265
21521239 73 18260266347983781898
21521721 280 11815602079061893718
23522609 53 18124909877914799545
23559900 14 18114186350152292656
23569917 315 18271531888736851942
23569943 247 17976259033160913898
23576562 1 16154571906871375982
2838139 119 16153710916257593141
3004659 81 18333726931922904409
3178227 256 14836403636385599878
335352 9 17967540073935376396
3411729 13 8142097463136511112
34797466 226 17060342946647351684
4325135 7 18187363247100493287
439807 62 18412545444666900567
484989 97 17969794157886193227
5104073 3 13326305697917877030
5283156 175 18412265043141993421
54039377 194 18341896320692691991
6328613 192 8646763400422195446
9962374 69 17059763538394921045
999808 66 18335709373279755323

> <PUBCHEM_SHAPE_MULTIPOLES>
589.16
25.7
2.39
1.16
2.13
0.91
0.29
14.36
-6.34
0.98
-0.15
0.42
-0.16
-1.62

> <PUBCHEM_SHAPE_SELFOVERLAP>
1253.533

> <PUBCHEM_SHAPE_VOLUME>
329.1

> <PUBCHEM_COORDINATE_TYPE>
2
5
10

$$$$
