45783593
  -OEChem-12032416343D

 55 59  0     1  0  0  0  0  0999 V2000
   -4.4071   -0.8505    1.0746 O   0  0  0  0  0  0  0  0  0  0  0  0
    2.4844   -0.2286   -2.0265 O   0  0  0  0  0  0  0  0  0  0  0  0
    4.8864   -0.3704    0.5345 N   0  0  1  0  0  0  0  0  0  0  0  0
    1.8715   -1.0482   -0.0341 N   0  0  0  0  0  0  0  0  0  0  0  0
    3.2705    2.0408    1.3943 N   0  0  0  0  0  0  0  0  0  0  0  0
    1.0908   -0.1023   -1.9653 N   0  0  0  0  0  0  0  0  0  0  0  0
    3.6928    2.7231   -0.6763 N   0  0  0  0  0  0  0  0  0  0  0  0
   -2.8941   -0.2758   -0.5874 N   0  0  0  0  0  0  0  0  0  0  0  0
    4.3458   -1.0392   -0.6658 C   0  0  1  0  0  0  0  0  0  0  0  0
    4.6823   -2.5289   -0.4685 C   0  0  0  0  0  0  0  0  0  0  0  0
    5.4635   -2.5908    0.8363 C   0  0  0  0  0  0  0  0  0  0  0  0
    6.0116   -1.1866    0.9910 C   0  0  0  0  0  0  0  0  0  0  0  0
   -5.3990   -0.3445    0.1878 C   0  0  0  0  0  0  0  0  0  0  0  0
   -6.7035   -1.1162    0.3833 C   0  0  0  0  0  0  0  0  0  0  0  0
   -5.5886    1.1520    0.4305 C   0  0  0  0  0  0  0  0  0  0  0  0
    5.2744    1.0136    0.2952 C   0  0  0  0  0  0  0  0  0  0  0  0
   -7.8268   -0.5464   -0.4766 C   0  0  0  0  0  0  0  0  0  0  0  0
   -6.7120    1.7220   -0.4296 C   0  0  0  0  0  0  0  0  0  0  0  0
   -8.0150    0.9496   -0.2359 C   0  0  0  0  0  0  0  0  0  0  0  0
    2.8629   -0.7944   -0.8505 C   0  0  0  0  0  0  0  0  0  0  0  0
    4.0862    1.9382    0.3020 C   0  0  0  0  0  0  0  0  0  0  0  0
    0.8046   -0.6066   -0.7613 C   0  0  0  0  0  0  0  0  0  0  0  0
   -3.1091   -0.8002    0.6400 C   0  0  0  0  0  0  0  0  0  0  0  0
   -0.5344   -0.6849   -0.2567 C   0  0  0  0  0  0  0  0  0  0  0  0
   -2.1049   -1.2800    1.4651 C   0  0  0  0  0  0  0  0  0  0  0  0
    2.2948    2.9489    1.0932 C   0  0  0  0  0  0  0  0  0  0  0  0
   -0.7956   -1.2177    1.0010 C   0  0  0  0  0  0  0  0  0  0  0  0
    2.5765    3.3559   -0.1896 C   0  0  0  0  0  0  0  0  0  0  0  0
   -1.6089   -0.2318   -1.0048 C   0  0  0  0  0  0  0  0  0  0  0  0
    4.8733   -0.7028   -1.5696 H   0  0  0  0  0  0  0  0  0  0  0  0
    3.8043   -3.1826   -0.4280 H   0  0  0  0  0  0  0  0  0  0  0  0
    5.3190   -2.8744   -1.2922 H   0  0  0  0  0  0  0  0  0  0  0  0
    4.7859   -2.8306    1.6652 H   0  0  0  0  0  0  0  0  0  0  0  0
    6.2519   -3.3488    0.8111 H   0  0  0  0  0  0  0  0  0  0  0  0
    6.2819   -0.9727    2.0297 H   0  0  0  0  0  0  0  0  0  0  0  0
    6.8965   -1.0514    0.3561 H   0  0  0  0  0  0  0  0  0  0  0  0
   -5.1250   -0.5115   -0.8631 H   0  0  0  0  0  0  0  0  0  0  0  0
   -6.9927   -1.0886    1.4419 H   0  0  0  0  0  0  0  0  0  0  0  0
   -6.5476   -2.1756    0.1461 H   0  0  0  0  0  0  0  0  0  0  0  0
   -4.6592    1.6967    0.2280 H   0  0  0  0  0  0  0  0  0  0  0  0
   -5.8079    1.3268    1.4920 H   0  0  0  0  0  0  0  0  0  0  0  0
    5.9368    1.3583    1.1013 H   0  0  0  0  0  0  0  0  0  0  0  0
    5.8401    1.1302   -0.6376 H   0  0  0  0  0  0  0  0  0  0  0  0
   -7.6004   -0.7198   -1.5358 H   0  0  0  0  0  0  0  0  0  0  0  0
   -8.7619   -1.0750   -0.2595 H   0  0  0  0  0  0  0  0  0  0  0  0
   -6.8689    2.7773   -0.1798 H   0  0  0  0  0  0  0  0  0  0  0  0
   -6.4184    1.6835   -1.4858 H   0  0  0  0  0  0  0  0  0  0  0  0
   -8.7792    1.3393   -0.9177 H   0  0  0  0  0  0  0  0  0  0  0  0
   -8.3847    1.1102    0.7844 H   0  0  0  0  0  0  0  0  0  0  0  0
    3.3683    1.5358    2.2652 H   0  0  0  0  0  0  0  0  0  0  0  0
   -2.3256   -1.6924    2.4436 H   0  0  0  0  0  0  0  0  0  0  0  0
    1.5164    3.2108    1.7950 H   0  0  0  0  0  0  0  0  0  0  0  0
    0.0002   -1.5908    1.6403 H   0  0  0  0  0  0  0  0  0  0  0  0
    2.0316    4.0714   -0.7878 H   0  0  0  0  0  0  0  0  0  0  0  0
   -1.4908    0.1979   -1.9952 H   0  0  0  0  0  0  0  0  0  0  0  0
  1 13  1  0  0  0  0
  1 23  1  0  0  0  0
  2  6  1  0  0  0  0
  2 20  1  0  0  0  0
  3  9  1  0  0  0  0
  3 12  1  0  0  0  0
  3 16  1  0  0  0  0
  4 20  2  0  0  0  0
  4 22  1  0  0  0  0
  5 21  1  0  0  0  0
  5 26  1  0  0  0  0
  5 50  1  0  0  0  0
  6 22  2  0  0  0  0
  7 21  2  0  0  0  0
  7 28  1  0  0  0  0
  8 23  2  0  0  0  0
  8 29  1  0  0  0  0
  9 10  1  0  0  0  0
  9 20  1  0  0  0  0
  9 30  1  0  0  0  0
 10 11  1  0  0  0  0
 10 31  1  0  0  0  0
 10 32  1  0  0  0  0
 11 12  1  0  0  0  0
 11 33  1  0  0  0  0
 11 34  1  0  0  0  0
 12 35  1  0  0  0  0
 12 36  1  0  0  0  0
 13 14  1  0  0  0  0
 13 15  1  0  0  0  0
 13 37  1  0  0  0  0
 14 17  1  0  0  0  0
 14 38  1  0  0  0  0
 14 39  1  0  0  0  0
 15 18  1  0  0  0  0
 15 40  1  0  0  0  0
 15 41  1  0  0  0  0
 16 21  1  0  0  0  0
 16 42  1  0  0  0  0
 16 43  1  0  0  0  0
 17 19  1  0  0  0  0
 17 44  1  0  0  0  0
 17 45  1  0  0  0  0
 18 19  1  0  0  0  0
 18 46  1  0  0  0  0
 18 47  1  0  0  0  0
 19 48  1  0  0  0  0
 19 49  1  0  0  0  0
 22 24  1  0  0  0  0
 23 25  1  0  0  0  0
 24 27  1  0  0  0  0
 24 29  2  0  0  0  0
 25 27  2  0  0  0  0
 25 51  1  0  0  0  0
 26 28  2  0  0  0  0
 26 52  1  0  0  0  0
 27 53  1  0  0  0  0
 28 54  1  0  0  0  0
 29 55  1  0  0  0  0
M  END
> <PUBCHEM_COMPOUND_CID>
45783593

> <PUBCHEM_CONFORMER_RMSD>
1

> <PUBCHEM_CONFORMER_DIVERSEORDER>
1
95
12
35
29
15
42
64
53
84
70
90
23
92
41
87
86
69
30
94
72
27
10
77
16
82
63
3
83
38
26
2
71
62
39
37
24
51
91
36
93
45
44
59
80
50
67
6
79
19
66
40
5
32
43
11
20
54
89
68
73
4
85
49
31
46
78
21
57
7
76
28
55
47
17
18
65
34
81
13
56
58
22
8
9
48
75
74
25
88
52
96
33
14
60
61
97

> <PUBCHEM_MMFF94_PARTIAL_CHARGES>
28
1 -0.36
12 0.27
13 0.28
16 0.45
2 -0.02
20 0.3
21 0.01
22 0.46
23 0.39
24 0.05
25 -0.15
26 -0.3
27 -0.15
28 0.08
29 0.16
3 -0.81
4 -0.57
5 0.03
50 0.27
51 0.15
52 0.15
53 0.15
54 0.15
55 0.15
6 -0.41
7 -0.57
8 -0.62
9 0.45

> <PUBCHEM_EFFECTIVE_ROTOR_COUNT>
8.2

> <PUBCHEM_PHARMACOPHORE_FEATURES>
9
1 3 cation
1 5 donor
3 4 6 22 cation
3 5 7 21 cation
5 2 4 6 20 22 rings
5 3 9 10 11 12 rings
5 5 7 21 26 28 rings
6 13 14 15 17 18 19 rings
6 8 23 24 25 27 29 rings

> <PUBCHEM_HEAVY_ATOM_COUNT>
29

> <PUBCHEM_ATOM_DEF_STEREO_COUNT>
1

> <PUBCHEM_ATOM_UDEF_STEREO_COUNT>
0

> <PUBCHEM_BOND_DEF_STEREO_COUNT>
0

> <PUBCHEM_BOND_UDEF_STEREO_COUNT>
0

> <PUBCHEM_ISOTOPIC_ATOM_COUNT>
0

> <PUBCHEM_COMPONENT_COUNT>
1

> <PUBCHEM_CACTVS_TAUTO_COUNT>
1

> <PUBCHEM_CONFORMER_ID>
02BA9A2900000001

> <PUBCHEM_MMFF94_ENERGY>
44.2663

> <PUBCHEM_FEATURE_SELFOVERLAP>
45.676

> <PUBCHEM_SHAPE_FINGERPRINT>
10162869 55 18130774699080706775
10319926 262 17313111877889889723
11089746 13 18408887317825715531
11186622 174 18410571777786180913
11456790 92 18262521390434576753
11719270 70 17561363963547412975
11828532 37 18041006193312156723
12107698 1 18342174436556447769
13533116 47 18333733498733143426
13878862 14 18340753918751436532
14223995 32 17824251597865515869
14556957 393 17060346198032684345
15131766 46 17984692583266058572
15183329 4 17346604092888443649
15348495 7 18261397788430208427
15419008 47 18113612366005973237
19301679 30 18052534371278381570
20157964 124 18273218603153408591
21033648 29 18260820557657695832
21130935 74 17967818245207420483
21315763 129 18413109438128835945
21315764 268 18407757032604802933
21344244 181 13190340111792402896
21344244 246 8069762827656691920
21344244 78 18130497545052073178
21360442 67 10087634905916819917
21641784 216 15984840228752048977
21792938 703 13110674017275081253
21859007 373 17968367954060881301
23522609 53 11891614534367802255
23559900 14 17531257196015861582
249057 25 17846506920033357585
249057 3 18202846556552323134
2838139 119 18410009902360872613
3044373 193 18342181098208667439
34797466 226 18060147548696565775
397830 11 18189908689475645731
4073 2 18042409191033665779
4112364 45 17059760226563633936
4144715 1 18410303514387673707
44555599 121 18201449039156771617
5104073 3 16154568617332374641
68570916 9 18200591518887074135
8988823 20 18410856572947100526

> <PUBCHEM_SHAPE_MULTIPOLES>
555.18
20.24
2.92
1.31
33.89
2.3
0.19
-0.78
-1.39
-4.94
-0.55
-0.7
-0.11
0.68

> <PUBCHEM_SHAPE_SELFOVERLAP>
1200.936

> <PUBCHEM_SHAPE_VOLUME>
301.9

> <PUBCHEM_COORDINATE_TYPE>
2
5
10

$$$$
