40779157
  -OEChem-12032416163D

 61 64  0     1  0  0  0  0  0999 V2000
    2.9074    0.9046   -0.0553 O   0  0  0  0  0  0  0  0  0  0  0  0
    3.6988   -0.1200    1.8417 O   0  0  0  0  0  0  0  0  0  0  0  0
    0.2005    3.3903    0.5180 N   0  0  2  0  0  0  0  0  0  0  0  0
   -3.6242    0.5674    0.7579 N   0  0  0  0  0  0  0  0  0  0  0  0
   -3.9957   -0.7168    0.8954 N   0  0  0  0  0  0  0  0  0  0  0  0
    4.5996   -0.5810   -0.2461 N   0  0  0  0  0  0  0  0  0  0  0  0
   -1.0084    2.2773   -1.5026 C   0  0  2  0  0  0  0  0  0  0  0  0
   -1.8423    2.0978   -0.2038 C   0  0  2  0  0  0  0  0  0  0  0  0
    0.4010    1.6857   -1.2896 C   0  0  0  0  0  0  0  0  0  0  0  0
    1.1462    2.5108   -0.2185 C   0  0  2  0  0  0  0  0  0  0  0  0
   -0.9701    2.6037    0.9806 C   0  0  0  0  0  0  0  0  0  0  0  0
   -0.8354    3.7967   -1.7141 C   0  0  0  0  0  0  0  0  0  0  0  0
   -0.2825    4.4280   -0.4243 C   0  0  0  0  0  0  0  0  0  0  0  0
   -2.4562    0.7329    0.0730 C   0  0  0  0  0  0  0  0  0  0  0  0
    1.9650    1.6210    0.7191 C   0  0  0  0  0  0  0  0  0  0  0  0
   -2.0343   -0.5309   -0.2604 C   0  0  0  0  0  0  0  0  0  0  0  0
   -3.0691   -2.8929    0.2003 C   0  0  0  0  0  0  0  0  0  0  0  0
   -3.0207   -1.3830    0.2713 C   0  0  0  0  0  0  0  0  0  0  0  0
   -3.1248   -3.4138   -1.2470 C   0  0  0  0  0  0  0  0  0  0  0  0
   -1.8647   -3.6027    0.8530 C   0  0  0  0  0  0  0  0  0  0  0  0
   -2.3111   -4.6988   -1.2270 C   0  0  0  0  0  0  0  0  0  0  0  0
   -1.1786   -4.3724   -0.2697 C   0  0  0  0  0  0  0  0  0  0  0  0
   -4.4544    1.6061    1.3223 C   0  0  0  0  0  0  0  0  0  0  0  0
    3.7369    0.0474    0.6271 C   0  0  0  0  0  0  0  0  0  0  0  0
    5.5964   -1.5428    0.1643 C   0  0  0  0  0  0  0  0  0  0  0  0
    6.8132   -1.4665   -0.7487 C   0  0  0  0  0  0  0  0  0  0  0  0
    5.0076   -2.9480    0.1831 C   0  0  0  0  0  0  0  0  0  0  0  0
   -1.5000    1.8149   -2.3651 H   0  0  0  0  0  0  0  0  0  0  0  0
   -2.6903    2.7917   -0.3056 H   0  0  0  0  0  0  0  0  0  0  0  0
    0.3536    0.6311   -1.0148 H   0  0  0  0  0  0  0  0  0  0  0  0
    0.9594    1.7354   -2.2332 H   0  0  0  0  0  0  0  0  0  0  0  0
    1.8759    3.1483   -0.7397 H   0  0  0  0  0  0  0  0  0  0  0  0
   -1.5845    3.2387    1.6324 H   0  0  0  0  0  0  0  0  0  0  0  0
   -0.6456    1.7781    1.6244 H   0  0  0  0  0  0  0  0  0  0  0  0
   -1.7948    4.2593   -1.9735 H   0  0  0  0  0  0  0  0  0  0  0  0
   -0.1500    3.9811   -2.5502 H   0  0  0  0  0  0  0  0  0  0  0  0
    0.5324    5.1207   -0.6684 H   0  0  0  0  0  0  0  0  0  0  0  0
   -1.0534    5.0406    0.0602 H   0  0  0  0  0  0  0  0  0  0  0  0
    1.3276    0.9083    1.2540 H   0  0  0  0  0  0  0  0  0  0  0  0
    2.4938    2.2415    1.4530 H   0  0  0  0  0  0  0  0  0  0  0  0
   -1.1549   -0.8199   -0.8137 H   0  0  0  0  0  0  0  0  0  0  0  0
   -3.9751   -3.2321    0.7226 H   0  0  0  0  0  0  0  0  0  0  0  0
   -2.6747   -2.7076   -1.9551 H   0  0  0  0  0  0  0  0  0  0  0  0
   -4.1543   -3.5906   -1.5756 H   0  0  0  0  0  0  0  0  0  0  0  0
   -2.2301   -4.3113    1.6070 H   0  0  0  0  0  0  0  0  0  0  0  0
   -1.1698   -2.9232    1.3574 H   0  0  0  0  0  0  0  0  0  0  0  0
   -1.9499   -4.9772   -2.2211 H   0  0  0  0  0  0  0  0  0  0  0  0
   -2.9155   -5.5256   -0.8357 H   0  0  0  0  0  0  0  0  0  0  0  0
   -0.6674   -5.2683    0.0939 H   0  0  0  0  0  0  0  0  0  0  0  0
   -0.4379   -3.7330   -0.7643 H   0  0  0  0  0  0  0  0  0  0  0  0
   -4.8748    2.1953    0.5039 H   0  0  0  0  0  0  0  0  0  0  0  0
   -5.2627    1.1511    1.9015 H   0  0  0  0  0  0  0  0  0  0  0  0
   -3.8431    2.2280    1.9797 H   0  0  0  0  0  0  0  0  0  0  0  0
    4.4933   -0.3858   -1.2374 H   0  0  0  0  0  0  0  0  0  0  0  0
    5.9112   -1.2894    1.1839 H   0  0  0  0  0  0  0  0  0  0  0  0
    7.2410   -0.4580   -0.7417 H   0  0  0  0  0  0  0  0  0  0  0  0
    6.5494   -1.7051   -1.7852 H   0  0  0  0  0  0  0  0  0  0  0  0
    7.5904   -2.1664   -0.4249 H   0  0  0  0  0  0  0  0  0  0  0  0
    4.1523   -3.0052    0.8653 H   0  0  0  0  0  0  0  0  0  0  0  0
    4.6549   -3.2436   -0.8113 H   0  0  0  0  0  0  0  0  0  0  0  0
    5.7518   -3.6801    0.5132 H   0  0  0  0  0  0  0  0  0  0  0  0
  1 15  1  0  0  0  0
  1 24  1  0  0  0  0
  2 24  2  0  0  0  0
  3 10  1  0  0  0  0
  3 11  1  0  0  0  0
  3 13  1  0  0  0  0
  4  5  1  0  0  0  0
  4 14  1  0  0  0  0
  4 23  1  0  0  0  0
  5 18  2  0  0  0  0
  6 24  1  0  0  0  0
  6 25  1  0  0  0  0
  6 54  1  0  0  0  0
  7  8  1  0  0  0  0
  7  9  1  0  0  0  0
  7 12  1  0  0  0  0
  7 28  1  0  0  0  0
  8 11  1  0  0  0  0
  8 14  1  0  0  0  0
  8 29  1  0  0  0  0
  9 10  1  0  0  0  0
  9 30  1  0  0  0  0
  9 31  1  0  0  0  0
 10 15  1  0  0  0  0
 10 32  1  0  0  0  0
 11 33  1  0  0  0  0
 11 34  1  0  0  0  0
 12 13  1  0  0  0  0
 12 35  1  0  0  0  0
 12 36  1  0  0  0  0
 13 37  1  0  0  0  0
 13 38  1  0  0  0  0
 14 16  2  0  0  0  0
 15 39  1  0  0  0  0
 15 40  1  0  0  0  0
 16 18  1  0  0  0  0
 16 41  1  0  0  0  0
 17 18  1  0  0  0  0
 17 19  1  0  0  0  0
 17 20  1  0  0  0  0
 17 42  1  0  0  0  0
 19 21  1  0  0  0  0
 19 43  1  0  0  0  0
 19 44  1  0  0  0  0
 20 22  1  0  0  0  0
 20 45  1  0  0  0  0
 20 46  1  0  0  0  0
 21 22  1  0  0  0  0
 21 47  1  0  0  0  0
 21 48  1  0  0  0  0
 22 49  1  0  0  0  0
 22 50  1  0  0  0  0
 23 51  1  0  0  0  0
 23 52  1  0  0  0  0
 23 53  1  0  0  0  0
 25 26  1  0  0  0  0
 25 27  1  0  0  0  0
 25 55  1  0  0  0  0
 26 56  1  0  0  0  0
 26 57  1  0  0  0  0
 26 58  1  0  0  0  0
 27 59  1  0  0  0  0
 27 60  1  0  0  0  0
 27 61  1  0  0  0  0
M  END
> <PUBCHEM_COMPOUND_CID>
40779157

> <PUBCHEM_CONFORMER_RMSD>
1

> <PUBCHEM_CONFORMER_DIVERSEORDER>
1
14
15
49
20
70
75
50
59
32
55
36
42
51
23
12
26
53
8
45
21
47
69
19
11
30
2
13
40
52
31
67
7
16
66
18
54
61
3
17
72
10
63
46
39
68
48
33
22
6
9
57
64
56
37
58
74
38
62
65
28
35
60
5
73
41
43
29
44
34
71
24
4
27
25

> <PUBCHEM_MMFF94_PARTIAL_CHARGES>
20
1 -0.43
10 0.27
11 0.27
13 0.27
14 -0.33
15 0.28
16 -0.15
17 0.18
18 0.11
2 -0.57
23 0.26
24 0.78
25 0.3
3 -0.81
4 0.31
41 0.15
5 -0.71
54 0.37
6 -0.73
8 0.18

> <PUBCHEM_EFFECTIVE_ROTOR_COUNT>
9.2

> <PUBCHEM_PHARMACOPHORE_FEATURES>
8
1 2 acceptor
1 3 cation
1 5 acceptor
1 6 donor
3 25 26 27 hydrophobe
5 17 19 20 21 22 rings
5 4 5 14 16 18 rings
8 3 7 8 9 10 11 12 13 rings

> <PUBCHEM_HEAVY_ATOM_COUNT>
27

> <PUBCHEM_ATOM_DEF_STEREO_COUNT>
3

> <PUBCHEM_ATOM_UDEF_STEREO_COUNT>
0

> <PUBCHEM_BOND_DEF_STEREO_COUNT>
0

> <PUBCHEM_BOND_UDEF_STEREO_COUNT>
0

> <PUBCHEM_ISOTOPIC_ATOM_COUNT>
0

> <PUBCHEM_COMPONENT_COUNT>
1

> <PUBCHEM_CACTVS_TAUTO_COUNT>
2

> <PUBCHEM_CONFORMER_ID>
026E3D9500000001

> <PUBCHEM_MMFF94_ENERGY>
49.8061

> <PUBCHEM_FEATURE_SELFOVERLAP>
40.596

> <PUBCHEM_SHAPE_FINGERPRINT>
10042902 136 18339645645980674534
10462674 296 18055347209600601182
10483366 6 18265028286179191535
10928967 22 18334007298687738130
11014199 57 18194400219812709098
11069576 57 17404006519282302687
11315621 246 18338814329723286100
11756154 67 18410017658085794223
12553582 1 18260257564469550744
12969540 37 17979068611270138380
13402501 40 18199474272875239030
14114206 34 17385994083614728186
14117953 113 18411417289791659599
14251757 5 18336550426349251874
14444916 359 17765732225674274796
14659021 117 18334565863790442274
14910302 57 18271231769031912970
15439362 3 16607438370090104156
16110190 28 18412832404042561032
17492 89 17978513357935119243
20775530 9 18263639726872446338
21344244 181 18120902124251391597
229767 44 18341059501584957115
23379529 103 18413113849228917686
23559900 14 17545309139819189137
3027735 51 18050268290017175917
325973 47 17834112331422964554
4017518 198 18200032833324631023
4409770 3 18189608350401203765
4573279 73 18117852208192976252
4616759 239 12605104178799977550
463206 1 18334862757304301290
5085150 59 17759780577881164906
5385378 56 17909564861444219241
56633871 153 18340774822763454363
7097593 13 18194405730339749521

> <PUBCHEM_SHAPE_MULTIPOLES>
523.98
10.44
7.08
1.35
20.86
3.11
0.14
9.59
-1.52
-4.85
2.26
-0.43
-0.39
-0.65

> <PUBCHEM_SHAPE_SELFOVERLAP>
1095.608

> <PUBCHEM_SHAPE_VOLUME>
296.7

> <PUBCHEM_COORDINATE_TYPE>
2
5
10

$$$$
