26763194
  -OEChem-12032416233D

 39 41  0     1  0  0  0  0  0999 V2000
   -4.1666    0.1998    0.6280 S   0  0  0  0  0  0  0  0  0  0  0  0
    3.2039    1.4440   -0.4414 O   0  0  0  0  0  0  0  0  0  0  0  0
    0.4113   -2.1385    0.5478 O   0  0  0  0  0  0  0  0  0  0  0  0
   -0.3839   -0.0002    0.9278 N   0  0  0  0  0  0  0  0  0  0  0  0
    1.0990    3.2009    0.0336 N   0  0  0  0  0  0  0  0  0  0  0  0
    1.7268   -0.3378   -0.1193 N   0  0  0  0  0  0  0  0  0  0  0  0
   -0.2652    1.4251    0.6903 C   0  0  1  0  0  0  0  0  0  0  0  0
    1.1652    1.9051    0.7272 C   0  0  1  0  0  0  0  0  0  0  0  0
   -0.7741    1.8716   -0.6768 C   0  0  0  0  0  0  0  0  0  0  0  0
    0.1430    3.0228   -1.0705 C   0  0  0  0  0  0  0  0  0  0  0  0
    2.1303    1.0081   -0.0204 C   0  0  0  0  0  0  0  0  0  0  0  0
    0.5638   -0.9159    0.4559 C   0  0  0  0  0  0  0  0  0  0  0  0
   -1.6256   -0.4651    1.5319 C   0  0  0  0  0  0  0  0  0  0  0  0
    2.6538   -1.2537   -0.7767 C   0  0  0  0  0  0  0  0  0  0  0  0
   -2.7025   -0.6800    0.5082 C   0  0  0  0  0  0  0  0  0  0  0  0
    3.6184   -1.9075    0.2055 C   0  0  0  0  0  0  0  0  0  0  0  0
   -2.6959   -1.5271   -0.5783 C   0  0  0  0  0  0  0  0  0  0  0  0
    4.6031   -2.8478   -0.4748 C   0  0  0  0  0  0  0  0  0  0  0  0
   -3.9087   -1.4524   -1.3221 C   0  0  0  0  0  0  0  0  0  0  0  0
   -4.7962   -0.5515   -0.7760 C   0  0  0  0  0  0  0  0  0  0  0  0
   -0.8273    1.9586    1.4696 H   0  0  0  0  0  0  0  0  0  0  0  0
    1.5350    2.0183    1.7519 H   0  0  0  0  0  0  0  0  0  0  0  0
   -1.8186    2.1950   -0.6199 H   0  0  0  0  0  0  0  0  0  0  0  0
   -0.7139    1.0697   -1.4218 H   0  0  0  0  0  0  0  0  0  0  0  0
    0.6744    2.7816   -1.9983 H   0  0  0  0  0  0  0  0  0  0  0  0
   -0.4187    3.9472   -1.2358 H   0  0  0  0  0  0  0  0  0  0  0  0
    2.0107    3.4977   -0.3089 H   0  0  0  0  0  0  0  0  0  0  0  0
   -1.9242    0.2369    2.3187 H   0  0  0  0  0  0  0  0  0  0  0  0
   -1.4366   -1.4243    2.0301 H   0  0  0  0  0  0  0  0  0  0  0  0
    3.2175   -0.7131   -1.5460 H   0  0  0  0  0  0  0  0  0  0  0  0
    2.0755   -2.0287   -1.2946 H   0  0  0  0  0  0  0  0  0  0  0  0
    4.1805   -1.1332    0.7417 H   0  0  0  0  0  0  0  0  0  0  0  0
    3.0623   -2.4670    0.9667 H   0  0  0  0  0  0  0  0  0  0  0  0
   -1.8705   -2.1766   -0.8369 H   0  0  0  0  0  0  0  0  0  0  0  0
    4.0771   -3.6589   -0.9881 H   0  0  0  0  0  0  0  0  0  0  0  0
    5.2109   -2.3115   -1.2105 H   0  0  0  0  0  0  0  0  0  0  0  0
    5.2765   -3.2922    0.2647 H   0  0  0  0  0  0  0  0  0  0  0  0
   -4.1198   -2.0308   -2.2122 H   0  0  0  0  0  0  0  0  0  0  0  0
   -5.7841   -0.2986   -1.1343 H   0  0  0  0  0  0  0  0  0  0  0  0
  1 15  1  0  0  0  0
  1 20  1  0  0  0  0
  2 11  2  0  0  0  0
  3 12  2  0  0  0  0
  4  7  1  0  0  0  0
  4 12  1  0  0  0  0
  4 13  1  0  0  0  0
  5  8  1  0  0  0  0
  5 10  1  0  0  0  0
  5 27  1  0  0  0  0
  6 11  1  0  0  0  0
  6 12  1  0  0  0  0
  6 14  1  0  0  0  0
  7  8  1  0  0  0  0
  7  9  1  0  0  0  0
  7 21  1  0  0  0  0
  8 11  1  0  0  0  0
  8 22  1  0  0  0  0
  9 10  1  0  0  0  0
  9 23  1  0  0  0  0
  9 24  1  0  0  0  0
 10 25  1  0  0  0  0
 10 26  1  0  0  0  0
 13 15  1  0  0  0  0
 13 28  1  0  0  0  0
 13 29  1  0  0  0  0
 14 16  1  0  0  0  0
 14 30  1  0  0  0  0
 14 31  1  0  0  0  0
 15 17  2  0  0  0  0
 16 18  1  0  0  0  0
 16 32  1  0  0  0  0
 16 33  1  0  0  0  0
 17 19  1  0  0  0  0
 17 34  1  0  0  0  0
 18 35  1  0  0  0  0
 18 36  1  0  0  0  0
 18 37  1  0  0  0  0
 19 20  2  0  0  0  0
 19 38  1  0  0  0  0
 20 39  1  0  0  0  0
M  END
> <PUBCHEM_COMPOUND_CID>
26763194

> <PUBCHEM_CONFORMER_RMSD>
0.8

> <PUBCHEM_CONFORMER_DIVERSEORDER>
1
35
13
17
19
32
33
22
16
34
40
39
36
43
18
8
31
41
20
38
15
12
23
4
30
42
37
11
21
3
7
26
14
10
9
29
28
6
5
25
27
2
24

> <PUBCHEM_MMFF94_PARTIAL_CHARGES>
21
1 -0.08
10 0.27
11 0.57
12 0.69
13 0.48
14 0.3
15 -0.14
17 -0.15
19 -0.15
2 -0.57
20 -0.11
27 0.36
3 -0.57
34 0.15
38 0.15
39 0.15
4 -0.66
5 -0.9
6 -0.42
7 0.3
8 0.33

> <PUBCHEM_EFFECTIVE_ROTOR_COUNT>
5

> <PUBCHEM_PHARMACOPHORE_FEATURES>
8
1 18 hydrophobe
1 2 acceptor
1 3 acceptor
1 5 cation
1 5 donor
5 1 15 17 19 20 rings
5 5 7 8 9 10 rings
6 4 6 7 8 11 12 rings

> <PUBCHEM_HEAVY_ATOM_COUNT>
20

> <PUBCHEM_ATOM_DEF_STEREO_COUNT>
2

> <PUBCHEM_ATOM_UDEF_STEREO_COUNT>
0

> <PUBCHEM_BOND_DEF_STEREO_COUNT>
0

> <PUBCHEM_BOND_UDEF_STEREO_COUNT>
0

> <PUBCHEM_ISOTOPIC_ATOM_COUNT>
0

> <PUBCHEM_COMPONENT_COUNT>
1

> <PUBCHEM_CACTVS_TAUTO_COUNT>
2

> <PUBCHEM_CONFORMER_ID>
01985FBA00000001

> <PUBCHEM_MMFF94_ENERGY>
27.3197

> <PUBCHEM_FEATURE_SELFOVERLAP>
40.847

> <PUBCHEM_SHAPE_FINGERPRINT>
104564 63 18118403943089637295
10906281 52 18188781676993165336
10989021 7 18411985732565068954
11265709 11 18339928104320545738
11578080 2 17773291505375120481
116883 192 18336823104557772109
12553582 1 18338251361857402058
12596599 1 17845670178298921535
12788726 201 17972596589391799442
13009979 54 17989496216491995019
13083527 12 18340475708730085610
13134695 92 18411140259520641437
13140716 1 18265912258614588984
13899415 180 18336248085777715870
14181834 199 18271532012509116045
14251745 187 18261668268238049337
14508225 48 18261959527387286820
15210252 30 17240478092098201269
15848700 24 18411134714923486474
15848702 151 18413666924651644359
16752209 62 17970350321859962194
16945 1 18194699278342922496
17357779 13 18334009462965626380
17492 89 18269270343436325223
17539 30 18121494644590219980
1813 80 18270697375867662639
18186145 218 17748543753734143043
19141452 34 17987522502867593427
20626108 58 18130493202218092147
20645477 70 18408882975165717811
20671657 53 18413108351148669303
21339142 36 18195806271814010944
221357 26 18334284354533010525
221490 88 18265337398648608555
22182313 1 18263905705596681316
23114952 82 18042686281006853869
23175994 123 18187094927223826227
2334 1 18337123305987356944
23402539 116 18268991994704877054
23419403 2 17030163529506553848
23526113 38 18041282170292962787
23557571 272 17985269578025885534
23598291 2 18343865511441821003
25 1 18187361090742100195
2748010 2 18335984186192399560
3060560 45 18337379560900307135
3286 77 17489582338395826066
5281201 14 18262516009272940935
58779409 54 17975970969365915956
6992083 37 18057905562260711817
7832392 63 18410853227547385065
81228 2 18049742731890466338
84936 182 17842277257430860737
9981440 41 17476908525407528929

> <PUBCHEM_SHAPE_MULTIPOLES>
388.76
7.74
3.33
1.15
2.07
1.69
-0.03
-6.52
1.83
-2.94
0.78
0.69
-0.02
-0.24

> <PUBCHEM_SHAPE_SELFOVERLAP>
808.556

> <PUBCHEM_SHAPE_VOLUME>
223.7

> <PUBCHEM_COORDINATE_TYPE>
2
5
10

$$$$
