75367072
  -OEChem-12032416383D

 51 52  0     1  0  0  0  0  0999 V2000
   -0.2072   -1.2169    0.1473 O   0  0  0  0  0  0  0  0  0  0  0  0
   -1.1169    2.2549   -0.0082 O   0  0  0  0  0  0  0  0  0  0  0  0
    3.4552    1.3199   -0.4551 O   0  0  0  0  0  0  0  0  0  0  0  0
   -3.5312    0.2578    0.2338 N   0  0  0  0  0  0  0  0  0  0  0  0
    2.4281   -0.3088    0.8560 N   0  0  0  0  0  0  0  0  0  0  0  0
   -2.1698    0.0643   -0.2381 C   0  0  1  0  0  0  0  0  0  0  0  0
   -1.1482    0.9275    0.4789 C   0  0  1  0  0  0  0  0  0  0  0  0
    0.1399    0.1777    0.1669 C   0  0  1  0  0  0  0  0  0  0  0  0
    4.5839   -0.7542   -0.1101 C   0  0  0  0  0  0  0  0  0  0  0  0
   -1.6375   -1.3307    0.0464 C   0  0  0  0  0  0  0  0  0  0  0  0
    5.6310   -0.5325    0.9873 C   0  0  0  0  0  0  0  0  0  0  0  0
    5.3001   -0.5133   -1.4399 C   0  0  0  0  0  0  0  0  0  0  0  0
    1.2375    0.4192    1.1879 C   0  0  0  0  0  0  0  0  0  0  0  0
    6.9458   -0.2694    0.2610 C   0  0  0  0  0  0  0  0  0  0  0  0
    6.5220    0.3168   -1.0736 C   0  0  0  0  0  0  0  0  0  0  0  0
   -4.4957   -0.3241   -0.6920 C   0  0  0  0  0  0  0  0  0  0  0  0
   -5.9685   -0.2167   -0.2207 C   0  0  0  0  0  0  0  0  0  0  0  0
    3.4444    0.2039    0.0578 C   0  0  0  0  0  0  0  0  0  0  0  0
   -6.1584   -0.8550    1.1667 C   0  0  0  0  0  0  0  0  0  0  0  0
   -6.9159   -0.8962   -1.2250 C   0  0  0  0  0  0  0  0  0  0  0  0
   -6.3384    1.2759   -0.1273 C   0  0  0  0  0  0  0  0  0  0  0  0
   -2.1059    0.2849   -1.3132 H   0  0  0  0  0  0  0  0  0  0  0  0
   -1.3403    0.9516    1.5589 H   0  0  0  0  0  0  0  0  0  0  0  0
    0.5074    0.4370   -0.8348 H   0  0  0  0  0  0  0  0  0  0  0  0
    4.2017   -1.7818   -0.0857 H   0  0  0  0  0  0  0  0  0  0  0  0
   -1.9980   -1.7272    1.0026 H   0  0  0  0  0  0  0  0  0  0  0  0
   -1.8883   -2.0479   -0.7409 H   0  0  0  0  0  0  0  0  0  0  0  0
    5.7182   -1.4079    1.6399 H   0  0  0  0  0  0  0  0  0  0  0  0
    5.3786    0.3225    1.6262 H   0  0  0  0  0  0  0  0  0  0  0  0
    4.6882   -0.0274   -2.2063 H   0  0  0  0  0  0  0  0  0  0  0  0
    5.6315   -1.4756   -1.8507 H   0  0  0  0  0  0  0  0  0  0  0  0
    0.9276    0.0676    2.1781 H   0  0  0  0  0  0  0  0  0  0  0  0
    1.4742    1.4864    1.2551 H   0  0  0  0  0  0  0  0  0  0  0  0
    7.4807   -1.2138    0.1042 H   0  0  0  0  0  0  0  0  0  0  0  0
    7.6026    0.4014    0.8225 H   0  0  0  0  0  0  0  0  0  0  0  0
    6.2497    1.3722   -0.9581 H   0  0  0  0  0  0  0  0  0  0  0  0
    7.3116    0.2469   -1.8271 H   0  0  0  0  0  0  0  0  0  0  0  0
   -3.7112    1.2567    0.3248 H   0  0  0  0  0  0  0  0  0  0  0  0
   -4.2686   -1.3885   -0.8347 H   0  0  0  0  0  0  0  0  0  0  0  0
   -4.4007    0.1537   -1.6764 H   0  0  0  0  0  0  0  0  0  0  0  0
    2.5228   -1.2474    1.2330 H   0  0  0  0  0  0  0  0  0  0  0  0
   -0.9478    2.2256   -0.9651 H   0  0  0  0  0  0  0  0  0  0  0  0
   -5.5625   -0.3512    1.9354 H   0  0  0  0  0  0  0  0  0  0  0  0
   -7.2067   -0.8048    1.4829 H   0  0  0  0  0  0  0  0  0  0  0  0
   -5.8654   -1.9108    1.1538 H   0  0  0  0  0  0  0  0  0  0  0  0
   -6.8236   -0.4466   -2.2199 H   0  0  0  0  0  0  0  0  0  0  0  0
   -6.6868   -1.9635   -1.3186 H   0  0  0  0  0  0  0  0  0  0  0  0
   -7.9621   -0.8050   -0.9123 H   0  0  0  0  0  0  0  0  0  0  0  0
   -5.7793    1.7958    0.6576 H   0  0  0  0  0  0  0  0  0  0  0  0
   -7.4023    1.3986    0.1083 H   0  0  0  0  0  0  0  0  0  0  0  0
   -6.1519    1.7921   -1.0759 H   0  0  0  0  0  0  0  0  0  0  0  0
  1  8  1  0  0  0  0
  1 10  1  0  0  0  0
  2  7  1  0  0  0  0
  2 42  1  0  0  0  0
  3 18  2  0  0  0  0
  4  6  1  0  0  0  0
  4 16  1  0  0  0  0
  4 38  1  0  0  0  0
  5 13  1  0  0  0  0
  5 18  1  0  0  0  0
  5 41  1  0  0  0  0
  6  7  1  0  0  0  0
  6 10  1  0  0  0  0
  6 22  1  0  0  0  0
  7  8  1  0  0  0  0
  7 23  1  0  0  0  0
  8 13  1  0  0  0  0
  8 24  1  0  0  0  0
  9 11  1  0  0  0  0
  9 12  1  0  0  0  0
  9 18  1  0  0  0  0
  9 25  1  0  0  0  0
 10 26  1  0  0  0  0
 10 27  1  0  0  0  0
 11 14  1  0  0  0  0
 11 28  1  0  0  0  0
 11 29  1  0  0  0  0
 12 15  1  0  0  0  0
 12 30  1  0  0  0  0
 12 31  1  0  0  0  0
 13 32  1  0  0  0  0
 13 33  1  0  0  0  0
 14 15  1  0  0  0  0
 14 34  1  0  0  0  0
 14 35  1  0  0  0  0
 15 36  1  0  0  0  0
 15 37  1  0  0  0  0
 16 17  1  0  0  0  0
 16 39  1  0  0  0  0
 16 40  1  0  0  0  0
 17 19  1  0  0  0  0
 17 20  1  0  0  0  0
 17 21  1  0  0  0  0
 19 43  1  0  0  0  0
 19 44  1  0  0  0  0
 19 45  1  0  0  0  0
 20 46  1  0  0  0  0
 20 47  1  0  0  0  0
 20 48  1  0  0  0  0
 21 49  1  0  0  0  0
 21 50  1  0  0  0  0
 21 51  1  0  0  0  0
M  END
> <PUBCHEM_COMPOUND_CID>
75367072

> <PUBCHEM_CONFORMER_RMSD>
1

> <PUBCHEM_CONFORMER_DIVERSEORDER>
1
71
51
121
16
111
44
102
116
4
85
112
61
89
96
53
105
57
119
123
23
88
33
73
94
80
104
83
65
26
32
81
74
108
48
79
22
114
41
6
35
67
50
113
47
106
42
115
43
103
118
58
39
122
99
70
56
100
90
5
84
21
27
59
20
91
62
25
82
75
97
120
54
8
10
77
69
24
60
18
12
93
86
63
101
76
95
34
31
46
38
72
98
110
45
36
109
64
117
78
11
124
68
19
3
49
66
40
52
107
17
14
29
28
30
13
15
55
125
2
7
92
87
9
37

> <PUBCHEM_MMFF94_PARTIAL_CHARGES>
16
1 -0.56
10 0.28
13 0.3
16 0.27
18 0.57
2 -0.68
3 -0.57
38 0.36
4 -0.9
41 0.37
42 0.4
5 -0.73
6 0.27
7 0.28
8 0.28
9 0.06

> <PUBCHEM_EFFECTIVE_ROTOR_COUNT>
9

> <PUBCHEM_PHARMACOPHORE_FEATURES>
10
1 1 acceptor
1 2 acceptor
1 2 donor
1 3 acceptor
1 4 cation
1 4 donor
1 5 donor
4 17 19 20 21 hydrophobe
5 1 6 7 8 10 rings
5 9 11 12 14 15 rings

> <PUBCHEM_HEAVY_ATOM_COUNT>
21

> <PUBCHEM_ATOM_DEF_STEREO_COUNT>
3

> <PUBCHEM_ATOM_UDEF_STEREO_COUNT>
0

> <PUBCHEM_BOND_DEF_STEREO_COUNT>
0

> <PUBCHEM_BOND_UDEF_STEREO_COUNT>
0

> <PUBCHEM_ISOTOPIC_ATOM_COUNT>
0

> <PUBCHEM_COMPONENT_COUNT>
1

> <PUBCHEM_CACTVS_TAUTO_COUNT>
2

> <PUBCHEM_CONFORMER_ID>
047E02A000000001

> <PUBCHEM_MMFF94_ENERGY>
38.4898

> <PUBCHEM_FEATURE_SELFOVERLAP>
50.746

> <PUBCHEM_SHAPE_FINGERPRINT>
10087517 78 12540965280020857775
11315181 36 16415759748216111571
11524674 6 15195563520350683309
12091667 2 18413388735820618315
12166972 35 17530969098336951980
12236239 1 17603304842946149698
125118 31 12901546832151330886
12516196 113 16845572023950639066
12730499 353 14707207695685500944
13533116 47 12895079488008795716
13668630 136 16845858992174820670
13685833 64 16845855693777028374
13862211 1 18413102866623034355
14123256 10 17749107790419460359
14251752 14 18411134727824115189
14251764 18 14261631741830781097
14251764 46 15140679181067789875
14933364 13 16370724824871840823
15021287 119 14261343666191242713
15048467 5 15140675882696436847
15183329 4 18410293609707473815
15716309 27 13542463168298969197
17834076 25 14851604379690540507
18006028 8 16917347034910495393
19141452 34 16845285076979949591
19489759 90 13758358869430504131
20157964 124 16298106476341989842
21150785 3 17894347800286499695
21267235 1 18410016541398967897
221357 26 17167859756078374100
22224240 67 12319730359357252388
23035841 295 18410011044373695883
23402539 116 18201995534741841133
23536379 177 16515682230127481819
23559900 14 18271801393227296984
246663 6 18343585170679504239
29717793 49 18201725054960620524
3004659 81 18412263952368129636
34797466 226 17917716821093404148
4325135 7 15068621600220998251
4463277 17 18412543210677524537
5283156 175 18259981540376193698
5758199 1 11097850775222044677
59682541 35 9583226241639719214
59755656 215 18130788932075019190
59755656 520 16298384686226178163

> <PUBCHEM_SHAPE_MULTIPOLES>
404.6
20.88
1.28
1.11
1.69
0.38
0.04
-3.18
3.73
0.94
0.07
-0.36
-0.15
-0.15

> <PUBCHEM_SHAPE_SELFOVERLAP>
812.342

> <PUBCHEM_SHAPE_VOLUME>
241.5

> <PUBCHEM_COORDINATE_TYPE>
2
5
10

$$$$
