11911662
  -OEChem-12032416373D

 66 70  0     1  0  0  0  0  0999 V2000
    0.9772    1.1554   -1.9047 O   0  0  0  0  0  0  0  0  0  0  0  0
   -0.8459   -1.2296   -1.2717 O   0  0  0  0  0  0  0  0  0  0  0  0
    2.7185   -0.8819   -1.1851 O   0  0  0  0  0  0  0  0  0  0  0  0
    3.5451   -0.5891    0.9269 O   0  0  0  0  0  0  0  0  0  0  0  0
   10.3289    0.5214    2.3039 O   0  0  0  0  0  0  0  0  0  0  0  0
   -1.6979    2.3046   -0.8141 N   0  0  0  0  0  0  0  0  0  0  0  0
   -3.7385    1.4356   -0.1256 N   0  0  0  0  0  0  0  0  0  0  0  0
   -3.0204    3.6321    0.5577 N   0  0  0  0  0  0  0  0  0  0  0  0
    4.9542   -0.7155   -0.9382 N   0  0  0  0  0  0  0  0  0  0  0  0
   -8.5200   -2.6774    0.4768 N   0  0  0  0  0  0  0  0  0  0  0  0
   -0.7390    0.0788   -0.6724 C   0  0  1  0  0  0  0  0  0  0  0  0
    0.7316    0.4459   -0.6796 C   0  0  1  0  0  0  0  0  0  0  0  0
   -1.3781    1.1124   -1.5698 C   0  0  2  0  0  0  0  0  0  0  0  0
    1.4061   -0.9048   -0.6709 C   0  0  1  0  0  0  0  0  0  0  0  0
   -0.2716    1.4029   -2.5689 C   0  0  0  0  0  0  0  0  0  0  0  0
    0.4738   -1.7320   -1.5270 C   0  0  0  0  0  0  0  0  0  0  0  0
   -2.8699    2.4643   -0.0959 C   0  0  0  0  0  0  0  0  0  0  0  0
    3.7421   -0.7143   -0.2756 C   0  0  0  0  0  0  0  0  0  0  0  0
   -4.8698    1.6251    0.5845 C   0  0  0  0  0  0  0  0  0  0  0  0
   -4.1739    3.7542    1.2469 C   0  0  0  0  0  0  0  0  0  0  0  0
   -5.1443    2.7745    1.2972 C   0  0  0  0  0  0  0  0  0  0  0  0
    6.2478   -0.5724   -0.3868 C   0  0  0  0  0  0  0  0  0  0  0  0
   -5.8029    0.5244    0.5561 C   0  0  0  0  0  0  0  0  0  0  0  0
    6.4049   -0.4060    0.9891 C   0  0  0  0  0  0  0  0  0  0  0  0
    7.3673   -0.5987   -1.2186 C   0  0  0  0  0  0  0  0  0  0  0  0
   -5.4170   -0.7295    1.0299 C   0  0  0  0  0  0  0  0  0  0  0  0
   -7.0912    0.7148    0.0563 C   0  0  0  0  0  0  0  0  0  0  0  0
    7.6815   -0.2659    1.5333 C   0  0  0  0  0  0  0  0  0  0  0  0
    8.6438   -0.4586   -0.6744 C   0  0  0  0  0  0  0  0  0  0  0  0
   -6.3192   -1.7929    1.0039 C   0  0  0  0  0  0  0  0  0  0  0  0
   -7.9934   -0.3486    0.0301 C   0  0  0  0  0  0  0  0  0  0  0  0
   -7.6075   -1.6024    0.5040 C   0  0  0  0  0  0  0  0  0  0  0  0
    8.8010   -0.2921    0.7016 C   0  0  0  0  0  0  0  0  0  0  0  0
   10.1321   -0.1455    1.2685 C   0  0  0  0  0  0  0  0  0  0  0  0
   -9.8605   -2.4893   -0.0414 C   0  0  0  0  0  0  0  0  0  0  0  0
   -8.1248   -3.9879    0.9537 C   0  0  0  0  0  0  0  0  0  0  0  0
   11.3300   -0.8118    0.6002 C   0  0  0  0  0  0  0  0  0  0  0  0
   -1.1600    0.0133    0.3358 H   0  0  0  0  0  0  0  0  0  0  0  0
    1.0353    1.0948    0.1470 H   0  0  0  0  0  0  0  0  0  0  0  0
   -2.2585    0.7450   -2.1094 H   0  0  0  0  0  0  0  0  0  0  0  0
    1.3722   -1.3229    0.3446 H   0  0  0  0  0  0  0  0  0  0  0  0
   -0.3244    0.7157   -3.4206 H   0  0  0  0  0  0  0  0  0  0  0  0
   -0.2790    2.4269   -2.9551 H   0  0  0  0  0  0  0  0  0  0  0  0
    0.6905   -1.6306   -2.5963 H   0  0  0  0  0  0  0  0  0  0  0  0
    0.5157   -2.7970   -1.2792 H   0  0  0  0  0  0  0  0  0  0  0  0
   -1.0173    3.0533   -0.7535 H   0  0  0  0  0  0  0  0  0  0  0  0
    4.9146   -0.8334   -1.9477 H   0  0  0  0  0  0  0  0  0  0  0  0
   -4.3000    4.6924    1.7767 H   0  0  0  0  0  0  0  0  0  0  0  0
   -6.0534    2.9159    1.8687 H   0  0  0  0  0  0  0  0  0  0  0  0
    5.5859   -0.3769    1.6944 H   0  0  0  0  0  0  0  0  0  0  0  0
    7.2581   -0.7252   -2.2928 H   0  0  0  0  0  0  0  0  0  0  0  0
   -4.4179   -0.8958    1.4261 H   0  0  0  0  0  0  0  0  0  0  0  0
   -7.4099    1.6832   -0.3229 H   0  0  0  0  0  0  0  0  0  0  0  0
    7.7859   -0.1411    2.6081 H   0  0  0  0  0  0  0  0  0  0  0  0
    9.4972   -0.4700   -1.3468 H   0  0  0  0  0  0  0  0  0  0  0  0
   -5.9714   -2.7482    1.3845 H   0  0  0  0  0  0  0  0  0  0  0  0
   -8.9828   -0.1499   -0.3698 H   0  0  0  0  0  0  0  0  0  0  0  0
  -10.4476   -3.4131    0.0095 H   0  0  0  0  0  0  0  0  0  0  0  0
   -9.8391   -2.1916   -1.0957 H   0  0  0  0  0  0  0  0  0  0  0  0
  -10.4090   -1.7405    0.5410 H   0  0  0  0  0  0  0  0  0  0  0  0
   -8.9401   -4.7145    0.8634 H   0  0  0  0  0  0  0  0  0  0  0  0
   -7.8518   -3.9574    2.0145 H   0  0  0  0  0  0  0  0  0  0  0  0
   -7.2873   -4.3857    0.3699 H   0  0  0  0  0  0  0  0  0  0  0  0
   11.7616   -0.1322   -0.1384 H   0  0  0  0  0  0  0  0  0  0  0  0
   11.0368   -1.7527    0.1265 H   0  0  0  0  0  0  0  0  0  0  0  0
   12.0786   -1.0472    1.3627 H   0  0  0  0  0  0  0  0  0  0  0  0
  1 12  1  0  0  0  0
  1 15  1  0  0  0  0
  2 11  1  0  0  0  0
  2 16  1  0  0  0  0
  3 14  1  0  0  0  0
  3 18  1  0  0  0  0
  4 18  2  0  0  0  0
  5 34  2  0  0  0  0
  6 13  1  0  0  0  0
  6 17  1  0  0  0  0
  6 46  1  0  0  0  0
  7 17  1  0  0  0  0
  7 19  2  0  0  0  0
  8 17  2  0  0  0  0
  8 20  1  0  0  0  0
  9 18  1  0  0  0  0
  9 22  1  0  0  0  0
  9 47  1  0  0  0  0
 10 32  1  0  0  0  0
 10 35  1  0  0  0  0
 10 36  1  0  0  0  0
 11 12  1  0  0  0  0
 11 13  1  0  0  0  0
 11 38  1  0  0  0  0
 12 14  1  0  0  0  0
 12 39  1  0  0  0  0
 13 15  1  0  0  0  0
 13 40  1  0  0  0  0
 14 16  1  0  0  0  0
 14 41  1  0  0  0  0
 15 42  1  0  0  0  0
 15 43  1  0  0  0  0
 16 44  1  0  0  0  0
 16 45  1  0  0  0  0
 19 21  1  0  0  0  0
 19 23  1  0  0  0  0
 20 21  2  0  0  0  0
 20 48  1  0  0  0  0
 21 49  1  0  0  0  0
 22 24  2  0  0  0  0
 22 25  1  0  0  0  0
 23 26  2  0  0  0  0
 23 27  1  0  0  0  0
 24 28  1  0  0  0  0
 24 50  1  0  0  0  0
 25 29  2  0  0  0  0
 25 51  1  0  0  0  0
 26 30  1  0  0  0  0
 26 52  1  0  0  0  0
 27 31  2  0  0  0  0
 27 53  1  0  0  0  0
 28 33  2  0  0  0  0
 28 54  1  0  0  0  0
 29 33  1  0  0  0  0
 29 55  1  0  0  0  0
 30 32  2  0  0  0  0
 30 56  1  0  0  0  0
 31 32  1  0  0  0  0
 31 57  1  0  0  0  0
 33 34  1  0  0  0  0
 34 37  1  0  0  0  0
 35 58  1  0  0  0  0
 35 59  1  0  0  0  0
 35 60  1  0  0  0  0
 36 61  1  0  0  0  0
 36 62  1  0  0  0  0
 36 63  1  0  0  0  0
 37 64  1  0  0  0  0
 37 65  1  0  0  0  0
 37 66  1  0  0  0  0
M  END
> <PUBCHEM_COMPOUND_CID>
11911662

> <PUBCHEM_CONFORMER_RMSD>
1

> <PUBCHEM_CONFORMER_DIVERSEORDER>
1
13
5
54
9
64
48
37
10
23
34
62
32
4
46
33
66
6
20
52
8
36
18
51
53
74
12
60
44
19
70
61
21
69
14
26
50
75
40
24
63
58
73
31
11
47
27
56
7
67
78
43
65
39
76
16
28
41
45
22
68
77
15
29
55
59
17
71
25
38
3
42
79
30
57
80
72
49
35
2

> <PUBCHEM_MMFF94_PARTIAL_CHARGES>
48
1 -0.56
10 -0.84
11 0.28
12 0.28
13 0.37
14 0.28
15 0.28
16 0.28
17 0.72
18 0.78
19 0.31
2 -0.56
20 0.16
21 -0.15
22 0.12
24 -0.15
25 -0.15
26 -0.15
27 -0.15
28 -0.15
29 -0.15
3 -0.43
30 -0.15
31 -0.15
32 0.1
33 0.09
34 0.42
35 0.37
36 0.37
37 0.06
4 -0.57
46 0.4
47 0.37
48 0.15
49 0.15
5 -0.57
50 0.15
51 0.15
52 0.15
53 0.15
54 0.15
55 0.15
56 0.15
57 0.15
6 -0.87
7 -0.62
8 -0.62
9 -0.55

> <PUBCHEM_EFFECTIVE_ROTOR_COUNT>
10.2

> <PUBCHEM_PHARMACOPHORE_FEATURES>
14
1 1 acceptor
1 10 cation
1 2 acceptor
1 4 acceptor
1 5 acceptor
1 6 donor
1 7 acceptor
1 9 donor
4 6 7 8 17 cation
5 1 11 12 13 15 rings
5 2 11 12 14 16 rings
6 22 24 25 28 29 33 rings
6 23 26 27 30 31 32 rings
6 7 8 17 19 20 21 rings

> <PUBCHEM_HEAVY_ATOM_COUNT>
37

> <PUBCHEM_ATOM_DEF_STEREO_COUNT>
4

> <PUBCHEM_ATOM_UDEF_STEREO_COUNT>
0

> <PUBCHEM_BOND_DEF_STEREO_COUNT>
0

> <PUBCHEM_BOND_UDEF_STEREO_COUNT>
0

> <PUBCHEM_ISOTOPIC_ATOM_COUNT>
0

> <PUBCHEM_COMPONENT_COUNT>
1

> <PUBCHEM_CACTVS_TAUTO_COUNT>
27

> <PUBCHEM_CONFORMER_ID>
00B5C1EE00000001

> <PUBCHEM_MMFF94_ENERGY>
135.7409

> <PUBCHEM_FEATURE_SELFOVERLAP>
71.764

> <PUBCHEM_SHAPE_FINGERPRINT>
10 15 18202279169965697718
10100884 174 18262238944980743627
10162869 55 17095524003137047046
10369192 42 17346313752730261500
10917259 69 9079127643515943543
11135609 99 18335988679187159951
11135926 11 13407080254126641721
11146346 171 18130235866170934806
11181472 205 11887958753253005986
11200772 48 9367338237185316605
11211813 128 18202569470757914991
11408170 108 15574712435730879576
11408170 132 10015571823675585354
11411753 3 17629499500851060341
11621639 179 9871205895018189531
12144600 37 18128827343697611478
12838863 1 18335703910203011643
13740195 50 18342734131272578082
13974486 7 18123188172652155171
14068700 675 18187651327869196493
15274700 256 18410011066038521274
15350500 16 17385441033481659719
15684389 69 17967249784831576722
15728490 51 18407760339550116615
16992610 120 9511464424866933665
16992727 255 9511460018204549287
1768 4 16774072977936227520
17686467 74 18342736325742806273
18603816 31 15574724607562694873
18608769 82 18131630084419010246
19303781 99 18190744335967917167
19611394 137 18343024423453300257
20105231 36 17968658208890293410
21130935 74 18268433421766320094
21360443 89 18260544554242661714
21792965 131 17458336434380754658
21792965 184 18341335603737500510
21792965 270 17774711083020456104
23389318 12 17240772800137746958
2747138 104 18201446865486172165
3092352 35 14045737115143242956
335507 130 18060136553163706220
3711267 37 16415481550146929064
3991529 128 11167949082995896311
4149490 64 17459489904178028625
4339292 15 17313097566404939502
4403749 210 18271804558845105997
444735 79 18343023298419794687
4760202 70 17968106364735187348
508180 173 8718534005125473671
58083652 198 16660373597067858380
59521270 166 9439402432872431824
59521660 218 16443637891123677452
59682541 35 18131633387043223358
6126387 218 16805602525824126733
6698420 124 13542454384732367742
9663363 56 18272087194190570653
9689198 14 17489587810548229036
9953998 17 18272376326514202289
9962374 69 17385445436640933028

> <PUBCHEM_SHAPE_MULTIPOLES>
707.19
38.27
3.32
1.71
60.33
1.1
-0.36
-23.15
19.57
-12.47
1.01
2.15
0.4
0.59

> <PUBCHEM_SHAPE_SELFOVERLAP>
1539.838

> <PUBCHEM_SHAPE_VOLUME>
385.4

> <PUBCHEM_COORDINATE_TYPE>
2
5
10

$$$$
