11885216
  -OEChem-12032416213D

 62 66  0     1  0  0  0  0  0999 V2000
    7.2373    2.5698    0.3938 S   0  0  0  0  0  0  0  0  0  0  0  0
   -2.8459   -0.0344    2.2318 O   0  0  0  0  0  0  0  0  0  0  0  0
    1.6077   -0.2005   -1.8322 O   0  0  0  0  0  0  0  0  0  0  0  0
   -2.7981   -1.3831    0.3422 N   0  0  0  0  0  0  0  0  0  0  0  0
    0.2115   -1.7244   -0.7517 N   0  0  0  0  0  0  0  0  0  0  0  0
   -3.3779    0.9063    0.2082 N   0  0  0  0  0  0  0  0  0  0  0  0
   -2.0050   -2.5149   -1.7560 C   0  0  1  0  0  0  0  0  0  0  0  0
   -1.2866   -3.3677    0.4302 C   0  0  2  0  0  0  0  0  0  0  0  0
   -1.7605   -3.7877   -0.9579 C   0  0  0  0  0  0  0  0  0  0  0  0
   -3.0735   -1.6328   -1.0814 C   0  0  0  0  0  0  0  0  0  0  0  0
   -2.3984   -2.5609    1.1220 C   0  0  0  0  0  0  0  0  0  0  0  0
   -0.6729   -1.7735   -1.9230 C   0  0  0  0  0  0  0  0  0  0  0  0
   -0.0174   -2.5407    0.3577 C   0  0  0  0  0  0  0  0  0  0  0  0
   -2.9949   -0.1613    1.0119 C   0  0  0  0  0  0  0  0  0  0  0  0
   -3.6245    2.2252    0.7474 C   0  0  0  0  0  0  0  0  0  0  0  0
    0.8693   -2.5710    1.3654 C   0  0  0  0  0  0  0  0  0  0  0  0
    1.3528   -0.9050   -0.8538 C   0  0  0  0  0  0  0  0  0  0  0  0
   -3.2505    3.3129   -0.2650 C   0  0  0  0  0  0  0  0  0  0  0  0
   -5.0795    2.3697    1.2060 C   0  0  0  0  0  0  0  0  0  0  0  0
   -4.2316    3.3852   -1.4350 C   0  0  0  0  0  0  0  0  0  0  0  0
   -6.0577    2.4435    0.0334 C   0  0  0  0  0  0  0  0  0  0  0  0
    2.3093   -0.9317    0.3079 C   0  0  0  0  0  0  0  0  0  0  0  0
   -5.6712    3.5402   -0.9540 C   0  0  0  0  0  0  0  0  0  0  0  0
    2.0455   -1.7486    1.3388 C   0  0  0  0  0  0  0  0  0  0  0  0
    3.5099   -0.0781    0.3281 C   0  0  0  0  0  0  0  0  0  0  0  0
    4.7128   -0.5522   -0.1963 C   0  0  0  0  0  0  0  0  0  0  0  0
    3.4456    1.2052    0.8725 C   0  0  0  0  0  0  0  0  0  0  0  0
    5.8498    0.2557   -0.1766 C   0  0  0  0  0  0  0  0  0  0  0  0
    4.5825    2.0132    0.8920 C   0  0  0  0  0  0  0  0  0  0  0  0
    5.7846    1.5384    0.3675 C   0  0  0  0  0  0  0  0  0  0  0  0
    7.6276    2.7036   -1.3738 C   0  0  0  0  0  0  0  0  0  0  0  0
   -2.3767   -2.7755   -2.7549 H   0  0  0  0  0  0  0  0  0  0  0  0
   -1.1018   -4.2767    1.0176 H   0  0  0  0  0  0  0  0  0  0  0  0
   -1.0096   -4.4167   -1.4522 H   0  0  0  0  0  0  0  0  0  0  0  0
   -2.6810   -4.3801   -0.8885 H   0  0  0  0  0  0  0  0  0  0  0  0
   -3.1743   -0.7170   -1.6625 H   0  0  0  0  0  0  0  0  0  0  0  0
   -4.0448   -2.1415   -1.1182 H   0  0  0  0  0  0  0  0  0  0  0  0
   -3.2964   -3.1808    1.2375 H   0  0  0  0  0  0  0  0  0  0  0  0
   -2.0858   -2.2686    2.1306 H   0  0  0  0  0  0  0  0  0  0  0  0
   -0.0911   -2.2693   -2.7122 H   0  0  0  0  0  0  0  0  0  0  0  0
   -0.8451   -0.7485   -2.2750 H   0  0  0  0  0  0  0  0  0  0  0  0
   -2.9782    2.3485    1.6253 H   0  0  0  0  0  0  0  0  0  0  0  0
    0.7115   -3.1894    2.2429 H   0  0  0  0  0  0  0  0  0  0  0  0
   -2.2379    3.1423   -0.6502 H   0  0  0  0  0  0  0  0  0  0  0  0
   -3.2376    4.2850    0.2443 H   0  0  0  0  0  0  0  0  0  0  0  0
   -5.1751    3.2871    1.8008 H   0  0  0  0  0  0  0  0  0  0  0  0
   -5.3622    1.5376    1.8617 H   0  0  0  0  0  0  0  0  0  0  0  0
   -3.6418    0.7607   -0.7548 H   0  0  0  0  0  0  0  0  0  0  0  0
   -4.1460    2.4854   -2.0554 H   0  0  0  0  0  0  0  0  0  0  0  0
   -3.9689    4.2334   -2.0777 H   0  0  0  0  0  0  0  0  0  0  0  0
   -7.0691    2.6306    0.4118 H   0  0  0  0  0  0  0  0  0  0  0  0
   -6.0876    1.4774   -0.4851 H   0  0  0  0  0  0  0  0  0  0  0  0
   -5.7914    4.5198   -0.4751 H   0  0  0  0  0  0  0  0  0  0  0  0
   -6.3514    3.5199   -1.8130 H   0  0  0  0  0  0  0  0  0  0  0  0
    2.7021   -1.8057    2.2021 H   0  0  0  0  0  0  0  0  0  0  0  0
    4.7795   -1.5501   -0.6232 H   0  0  0  0  0  0  0  0  0  0  0  0
    2.5155    1.5897    1.2843 H   0  0  0  0  0  0  0  0  0  0  0  0
    6.7772   -0.1381   -0.5845 H   0  0  0  0  0  0  0  0  0  0  0  0
    4.5124    3.0102    1.3199 H   0  0  0  0  0  0  0  0  0  0  0  0
    7.9205    1.7325   -1.7807 H   0  0  0  0  0  0  0  0  0  0  0  0
    8.4607    3.3993   -1.5044 H   0  0  0  0  0  0  0  0  0  0  0  0
    6.7642    3.0845   -1.9261 H   0  0  0  0  0  0  0  0  0  0  0  0
  1 30  1  0  0  0  0
  1 31  1  0  0  0  0
  2 14  2  0  0  0  0
  3 17  2  0  0  0  0
  4 10  1  0  0  0  0
  4 11  1  0  0  0  0
  4 14  1  0  0  0  0
  5 12  1  0  0  0  0
  5 13  1  0  0  0  0
  5 17  1  0  0  0  0
  6 14  1  0  0  0  0
  6 15  1  0  0  0  0
  6 48  1  0  0  0  0
  7  9  1  0  0  0  0
  7 10  1  0  0  0  0
  7 12  1  0  0  0  0
  7 32  1  0  0  0  0
  8  9  1  0  0  0  0
  8 11  1  0  0  0  0
  8 13  1  0  0  0  0
  8 33  1  0  0  0  0
  9 34  1  0  0  0  0
  9 35  1  0  0  0  0
 10 36  1  0  0  0  0
 10 37  1  0  0  0  0
 11 38  1  0  0  0  0
 11 39  1  0  0  0  0
 12 40  1  0  0  0  0
 12 41  1  0  0  0  0
 13 16  2  0  0  0  0
 15 18  1  0  0  0  0
 15 19  1  0  0  0  0
 15 42  1  0  0  0  0
 16 24  1  0  0  0  0
 16 43  1  0  0  0  0
 17 22  1  0  0  0  0
 18 20  1  0  0  0  0
 18 44  1  0  0  0  0
 18 45  1  0  0  0  0
 19 21  1  0  0  0  0
 19 46  1  0  0  0  0
 19 47  1  0  0  0  0
 20 23  1  0  0  0  0
 20 49  1  0  0  0  0
 20 50  1  0  0  0  0
 21 23  1  0  0  0  0
 21 51  1  0  0  0  0
 21 52  1  0  0  0  0
 22 24  2  0  0  0  0
 22 25  1  0  0  0  0
 23 53  1  0  0  0  0
 23 54  1  0  0  0  0
 24 55  1  0  0  0  0
 25 26  2  0  0  0  0
 25 27  1  0  0  0  0
 26 28  1  0  0  0  0
 26 56  1  0  0  0  0
 27 29  2  0  0  0  0
 27 57  1  0  0  0  0
 28 30  2  0  0  0  0
 28 58  1  0  0  0  0
 29 30  1  0  0  0  0
 29 59  1  0  0  0  0
 31 60  1  0  0  0  0
 31 61  1  0  0  0  0
 31 62  1  0  0  0  0
M  END
> <PUBCHEM_COMPOUND_CID>
11885216

> <PUBCHEM_CONFORMER_RMSD>
1

> <PUBCHEM_CONFORMER_DIVERSEORDER>
1
4
6
7
2
8
3
5

> <PUBCHEM_MMFF94_PARTIAL_CHARGES>
31
1 -0.33
10 0.3
11 0.3
12 0.3
13 -0.03
14 0.69
15 0.3
16 -0.15
17 0.62
2 -0.57
22 -0.01
24 -0.15
25 0.03
26 -0.15
27 -0.15
28 -0.15
29 -0.15
3 -0.57
30 0.1
31 0.23
4 -0.66
43 0.15
48 0.37
5 -0.47
55 0.15
56 0.15
57 0.15
58 0.15
59 0.15
6 -0.73
8 0.14

> <PUBCHEM_EFFECTIVE_ROTOR_COUNT>
7.2

> <PUBCHEM_PHARMACOPHORE_FEATURES>
9
1 2 acceptor
1 3 acceptor
1 31 hydrophobe
1 6 donor
6 15 18 19 20 21 23 rings
6 25 26 27 28 29 30 rings
6 4 7 8 9 10 11 rings
6 5 13 16 17 22 24 rings
6 5 7 8 9 12 13 rings

> <PUBCHEM_HEAVY_ATOM_COUNT>
31

> <PUBCHEM_ATOM_DEF_STEREO_COUNT>
2

> <PUBCHEM_ATOM_UDEF_STEREO_COUNT>
0

> <PUBCHEM_BOND_DEF_STEREO_COUNT>
0

> <PUBCHEM_BOND_UDEF_STEREO_COUNT>
0

> <PUBCHEM_ISOTOPIC_ATOM_COUNT>
0

> <PUBCHEM_COMPONENT_COUNT>
1

> <PUBCHEM_CACTVS_TAUTO_COUNT>
2

> <PUBCHEM_CONFORMER_ID>
00B55AA000000001

> <PUBCHEM_MMFF94_ENERGY>
71.788

> <PUBCHEM_FEATURE_SELFOVERLAP>
47.222

> <PUBCHEM_SHAPE_FINGERPRINT>
10675989 125 17762054337731480497
10864689 126 18339643331205318156
10871710 139 18340479058577956831
11135609 127 17831566580385486077
11479125 193 17828172464777623005
11720765 8 9006183860554623903
12107183 9 18265886957326557058
12788726 201 18198321022843807743
13103583 49 15068920654060768089
13761468 95 17987820547838870536
13911987 19 18131067074911443313
14202776 33 18055358195920228764
14251764 30 9870876097317238029
14251764 75 18198632029735902273
14950920 106 16226626197958165985
15198563 99 18055903545240492359
15338160 23 18335421334933542580
15575132 122 18413385441295911103
16120349 189 18335135371705523109
16992828 155 18334570252635803925
18603816 31 10663286418030965596
19304152 47 18114191859972601193
19309040 13 16413539726522688745
19315092 285 14348087488570614545
21388113 180 18193271889144241965
21756936 100 18410853291491911586
21927370 108 17834123317796411771
23379529 103 10303510819679555273
23522609 53 17604439630285527748
23569914 152 17485387590636753828
2838139 119 18266453209718756301
3388396 114 17331115508236736364
3418910 222 17471017351260542592
376196 1 18046624504535704283
4112364 45 18116709621604712361
44249763 50 18058720438090426632
508706 21 18340479092615916392
6086070 43 17060329756812809504
6327066 14 18411416181326307709
636775 72 18122904498525179488
6695519 79 14707483776505625416
7288768 16 17822010900077534371
7808743 9 18412822490809753179
7970288 3 9222934985536788737

> <PUBCHEM_SHAPE_MULTIPOLES>
615.13
15.97
5.34
1.66
21.35
0.76
-0.22
23.63
-0.93
-6.17
-0.93
-0.74
-0.37
-0.31

> <PUBCHEM_SHAPE_SELFOVERLAP>
1309.874

> <PUBCHEM_SHAPE_VOLUME>
344.1

> <PUBCHEM_COORDINATE_TYPE>
2
5
10

$$$$
