40781553
  -OEChem-12032416253D

 51 53  0     1  0  0  0  0  0999 V2000
    4.9018   -3.3238    2.7690 Cl  0  0  0  0  0  0  0  0  0  0  0  0
    3.2354    0.3799   -2.0187 S   0  0  0  0  0  0  0  0  0  0  0  0
   -0.8944    1.7854   -0.6321 O   0  0  0  0  0  0  0  0  0  0  0  0
   -1.6624    3.1271    2.6097 O   0  0  0  0  0  0  0  0  0  0  0  0
   -0.5973    4.5812    0.5313 O   0  0  0  0  0  0  0  0  0  0  0  0
   -5.0854   -3.5708   -0.2338 O   0  0  0  0  0  0  0  0  0  0  0  0
   -3.8189    1.1450   -1.0188 O   0  0  0  0  0  0  0  0  0  0  0  0
    4.1170    1.5317   -2.0210 O   0  0  0  0  0  0  0  0  0  0  0  0
    3.1361   -0.4651   -3.1933 O   0  0  0  0  0  0  0  0  0  0  0  0
   -4.2129   -0.9019    0.0036 N   0  0  0  0  0  0  0  0  0  0  0  0
    1.6674    0.8896   -1.5177 N   0  0  0  0  0  0  0  0  0  0  0  0
   -1.7714    1.9247    0.4995 C   0  0  2  0  0  0  0  0  0  0  0  0
   -0.9034    2.4524    1.6292 C   0  0  1  0  0  0  0  0  0  0  0  0
    0.0513    3.3589    0.8803 C   0  0  1  0  0  0  0  0  0  0  0  0
    0.2975    2.5710   -0.4016 C   0  0  1  0  0  0  0  0  0  0  0  0
   -2.4194    0.5877    0.8119 C   0  0  0  0  0  0  0  0  0  0  0  0
    1.4745    1.6111   -0.2946 C   0  0  0  0  0  0  0  0  0  0  0  0
   -3.5452    0.3108   -0.1523 C   0  0  0  0  0  0  0  0  0  0  0  0
   -5.3145   -1.2518   -0.8930 C   0  0  0  0  0  0  0  0  0  0  0  0
   -3.9992   -1.8569    1.0963 C   0  0  0  0  0  0  0  0  0  0  0  0
   -5.1808   -2.6944   -1.3597 C   0  0  0  0  0  0  0  0  0  0  0  0
   -3.9252   -3.2768    0.5488 C   0  0  0  0  0  0  0  0  0  0  0  0
    3.7050   -0.6630   -0.6709 C   0  0  0  0  0  0  0  0  0  0  0  0
    3.4012   -2.0240   -0.7036 C   0  0  0  0  0  0  0  0  0  0  0  0
    4.3787   -0.1249    0.4255 C   0  0  0  0  0  0  0  0  0  0  0  0
    3.7711   -2.8469    0.3601 C   0  0  0  0  0  0  0  0  0  0  0  0
    4.7487   -0.9477    1.4892 C   0  0  0  0  0  0  0  0  0  0  0  0
    4.4448   -2.3087    1.4566 C   0  0  0  0  0  0  0  0  0  0  0  0
   -2.5295    2.6786    0.2497 H   0  0  0  0  0  0  0  0  0  0  0  0
   -0.3521    1.6342    2.1082 H   0  0  0  0  0  0  0  0  0  0  0  0
    0.9522    3.6070    1.4487 H   0  0  0  0  0  0  0  0  0  0  0  0
    0.4252    3.2286   -1.2694 H   0  0  0  0  0  0  0  0  0  0  0  0
   -2.8398    0.6065    1.8235 H   0  0  0  0  0  0  0  0  0  0  0  0
   -1.6804   -0.2173    0.7303 H   0  0  0  0  0  0  0  0  0  0  0  0
    1.2955    0.8802    0.5020 H   0  0  0  0  0  0  0  0  0  0  0  0
    2.3718    2.1835   -0.0382 H   0  0  0  0  0  0  0  0  0  0  0  0
   -1.0369    3.5341    3.2331 H   0  0  0  0  0  0  0  0  0  0  0  0
    0.0388    5.1127    0.0227 H   0  0  0  0  0  0  0  0  0  0  0  0
    0.8639    0.3495   -1.8623 H   0  0  0  0  0  0  0  0  0  0  0  0
   -5.3549   -0.5748   -1.7515 H   0  0  0  0  0  0  0  0  0  0  0  0
   -6.2378   -1.1247   -0.3154 H   0  0  0  0  0  0  0  0  0  0  0  0
   -4.8633   -1.7564    1.7639 H   0  0  0  0  0  0  0  0  0  0  0  0
   -3.1019   -1.6344    1.6754 H   0  0  0  0  0  0  0  0  0  0  0  0
   -6.0622   -2.9857   -1.9393 H   0  0  0  0  0  0  0  0  0  0  0  0
   -4.2994   -2.8286   -1.9979 H   0  0  0  0  0  0  0  0  0  0  0  0
   -3.0288   -3.4207   -0.0661 H   0  0  0  0  0  0  0  0  0  0  0  0
   -3.8850   -3.9955    1.3731 H   0  0  0  0  0  0  0  0  0  0  0  0
    2.8705   -2.4622   -1.5441 H   0  0  0  0  0  0  0  0  0  0  0  0
    4.6225    0.9325    0.4736 H   0  0  0  0  0  0  0  0  0  0  0  0
    3.5264   -3.9053    0.3220 H   0  0  0  0  0  0  0  0  0  0  0  0
    5.2725   -0.5146    2.3375 H   0  0  0  0  0  0  0  0  0  0  0  0
  1 28  1  0  0  0  0
  2  8  2  0  0  0  0
  2  9  2  0  0  0  0
  2 11  1  0  0  0  0
  2 23  1  0  0  0  0
  3 12  1  0  0  0  0
  3 15  1  0  0  0  0
  4 13  1  0  0  0  0
  4 37  1  0  0  0  0
  5 14  1  0  0  0  0
  5 38  1  0  0  0  0
  6 21  1  0  0  0  0
  6 22  1  0  0  0  0
  7 18  2  0  0  0  0
 10 18  1  0  0  0  0
 10 19  1  0  0  0  0
 10 20  1  0  0  0  0
 11 17  1  0  0  0  0
 11 39  1  0  0  0  0
 12 13  1  0  0  0  0
 12 16  1  0  0  0  0
 12 29  1  0  0  0  0
 13 14  1  0  0  0  0
 13 30  1  0  0  0  0
 14 15  1  0  0  0  0
 14 31  1  0  0  0  0
 15 17  1  0  0  0  0
 15 32  1  0  0  0  0
 16 18  1  0  0  0  0
 16 33  1  0  0  0  0
 16 34  1  0  0  0  0
 17 35  1  0  0  0  0
 17 36  1  0  0  0  0
 19 21  1  0  0  0  0
 19 40  1  0  0  0  0
 19 41  1  0  0  0  0
 20 22  1  0  0  0  0
 20 42  1  0  0  0  0
 20 43  1  0  0  0  0
 21 44  1  0  0  0  0
 21 45  1  0  0  0  0
 22 46  1  0  0  0  0
 22 47  1  0  0  0  0
 23 24  2  0  0  0  0
 23 25  1  0  0  0  0
 24 26  1  0  0  0  0
 24 48  1  0  0  0  0
 25 27  2  0  0  0  0
 25 49  1  0  0  0  0
 26 28  2  0  0  0  0
 26 50  1  0  0  0  0
 27 28  1  0  0  0  0
 27 51  1  0  0  0  0
M  END
> <PUBCHEM_COMPOUND_CID>
40781553

> <PUBCHEM_CONFORMER_RMSD>
1.2

> <PUBCHEM_CONFORMER_DIVERSEORDER>
1
71
143
66
24
73
140
10
123
5
37
125
81
64
39
59
53
67
21
49
31
32
9
78
104
98
130
134
20
122
116
97
12
27
126
93
142
16
90
11
139
115
105
46
23
114
19
102
45
87
83
131
129
17
99
112
118
55
58
48
109
75
54
133
120
89
91
62
103
47
28
119
82
136
135
88
94
52
7
3
13
106
61
38
141
127
77
63
41
74
8
18
145
70
80
92
56
15
50
132
110
68
138
65
42
22
29
33
72
85
84
137
101
79
36
40
86
124
108
144
95
2
30
51
76
60
34
57
96
113
100
107
121
6
35
4
117
128
26
44
14
111
43
69
25

> <PUBCHEM_MMFF94_PARTIAL_CHARGES>
35
1 -0.18
10 -0.66
11 -0.91
12 0.28
13 0.28
14 0.28
15 0.28
16 0.06
17 0.36
18 0.57
19 0.3
2 1.45
20 0.3
21 0.28
22 0.28
23 -0.01
24 -0.15
25 -0.15
26 -0.15
27 -0.15
28 0.18
3 -0.56
37 0.4
38 0.4
39 0.42
4 -0.68
48 0.15
49 0.15
5 -0.68
50 0.15
51 0.15
6 -0.56
7 -0.57
8 -0.65
9 -0.65

> <PUBCHEM_EFFECTIVE_ROTOR_COUNT>
9.2

> <PUBCHEM_PHARMACOPHORE_FEATURES>
13
1 11 donor
1 3 acceptor
1 4 acceptor
1 4 donor
1 5 acceptor
1 5 donor
1 6 acceptor
1 7 acceptor
1 8 acceptor
1 9 acceptor
5 3 12 13 14 15 rings
6 23 24 25 26 27 28 rings
6 6 10 19 20 21 22 rings

> <PUBCHEM_HEAVY_ATOM_COUNT>
28

> <PUBCHEM_ATOM_DEF_STEREO_COUNT>
4

> <PUBCHEM_ATOM_UDEF_STEREO_COUNT>
0

> <PUBCHEM_BOND_DEF_STEREO_COUNT>
0

> <PUBCHEM_BOND_UDEF_STEREO_COUNT>
0

> <PUBCHEM_ISOTOPIC_ATOM_COUNT>
0

> <PUBCHEM_COMPONENT_COUNT>
1

> <PUBCHEM_CACTVS_TAUTO_COUNT>
1

> <PUBCHEM_CONFORMER_ID>
026E46F100000001

> <PUBCHEM_MMFF94_ENERGY>
55.3963

> <PUBCHEM_FEATURE_SELFOVERLAP>
66.006

> <PUBCHEM_SHAPE_FINGERPRINT>
10074138 170 17844255008440363713
10622 236 17968931977376837954
10928967 22 18264506142130482043
11069576 57 18040719173585927382
12977781 61 17974249284275640780
13828863 39 12894489127062660810
14480069 147 17749686167859077531
14508693 111 18410860970814315674
14848178 5 18335412448398124582
15003188 105 18337392763677319406
15163728 17 8069754026397848057
17138139 8 18191600837622859918
20567600 70 18269271438119351975
20775530 9 18336559286428699803
21049683 118 16408170643382305713
21054139 6 18189633764445121108
21223535 225 15140946319200957550
21458453 9 16843295021348599466
21703447 108 17985830573848510329
23572383 38 18341600482786206927
25019877 29 14289976902777224952
25222932 49 18268987773052316238
312425 83 16732982054846916671
4017518 198 17039783968244360950
463206 1 18334577949454178475
50080093 196 17101418277898364539
59025328 239 17240478088071674286
613672 6 18060700589638144205

> <PUBCHEM_SHAPE_MULTIPOLES>
530.9
12.88
5.31
2.35
3.14
0.81
0.3
-15.73
0.23
2.66
-2.56
-2.79
0.05
-3.99

> <PUBCHEM_SHAPE_SELFOVERLAP>
1087.906

> <PUBCHEM_SHAPE_VOLUME>
307.1

> <PUBCHEM_COORDINATE_TYPE>
2
5
10

$$$$
