38029018
  -OEChem-12032416263D

 70 73  0     1  0  0  0  0  0999 V2000
   -3.5177   -3.4044    1.1317 O   0  0  0  0  0  0  0  0  0  0  0  0
   -0.1683    3.1879    0.3003 O   0  0  0  0  0  0  0  0  0  0  0  0
   -3.8873   -2.0193   -0.7061 N   0  0  0  0  0  0  0  0  0  0  0  0
    1.4140    1.5771   -0.2493 N   0  0  0  0  0  0  0  0  0  0  0  0
    4.0762    0.4589   -0.0443 N   0  0  0  0  0  0  0  0  0  0  0  0
    6.0402   -0.3951   -1.0396 N   0  0  0  0  0  0  0  0  0  0  0  0
   -3.4934    0.5018    0.8852 C   0  0  1  0  0  0  0  0  0  0  0  0
   -4.6331    0.2298   -0.1281 C   0  0  1  0  0  0  0  0  0  0  0  0
   -2.8697    1.8830    0.6328 C   0  0  0  0  0  0  0  0  0  0  0  0
   -2.2977    2.0124   -0.7915 C   0  0  2  0  0  0  0  0  0  0  0  0
   -3.9860    0.4119    2.3330 C   0  0  0  0  0  0  0  0  0  0  0  0
   -3.2713    1.5082   -1.8373 C   0  0  0  0  0  0  0  0  0  0  0  0
   -4.3166    0.7236   -1.5204 C   0  0  0  0  0  0  0  0  0  0  0  0
   -4.9807   -1.2623   -0.1823 C   0  0  0  0  0  0  0  0  0  0  0  0
   -2.1287   -3.6907   -0.7451 C   0  0  0  0  0  0  0  0  0  0  0  0
   -0.9462    1.2993   -0.9108 C   0  0  0  0  0  0  0  0  0  0  0  0
   -1.0169   -2.8456   -1.2941 C   0  0  0  0  0  0  0  0  0  0  0  0
   -0.7660   -3.7443   -0.1190 C   0  0  0  0  0  0  0  0  0  0  0  0
   -4.6630    1.7147    2.7463 C   0  0  0  0  0  0  0  0  0  0  0  0
   -2.8279    0.0831    3.2697 C   0  0  0  0  0  0  0  0  0  0  0  0
   -3.2437   -3.0317   -0.0031 C   0  0  0  0  0  0  0  0  0  0  0  0
   -3.0421    1.9642   -3.2515 C   0  0  0  0  0  0  0  0  0  0  0  0
    0.1259    2.1132   -0.2285 C   0  0  0  0  0  0  0  0  0  0  0  0
    1.7595    0.2955   -0.8686 C   0  0  0  0  0  0  0  0  0  0  0  0
    2.5079    2.3076    0.3855 C   0  0  0  0  0  0  0  0  0  0  0  0
    3.2436    0.1886   -1.2191 C   0  0  0  0  0  0  0  0  0  0  0  0
    3.5534    1.3667    0.9806 C   0  0  0  0  0  0  0  0  0  0  0  0
    5.3454   -0.1008    0.0820 C   0  0  0  0  0  0  0  0  0  0  0  0
    5.8160   -0.3212    1.3664 C   0  0  0  0  0  0  0  0  0  0  0  0
    7.0814   -0.8796    1.5087 C   0  0  0  0  0  0  0  0  0  0  0  0
    7.2660   -0.9367   -0.8618 C   0  0  0  0  0  0  0  0  0  0  0  0
    7.8268   -1.1960    0.3784 C   0  0  0  0  0  0  0  0  0  0  0  0
   -2.7110   -0.2530    0.7452 H   0  0  0  0  0  0  0  0  0  0  0  0
   -5.5386    0.7635    0.1867 H   0  0  0  0  0  0  0  0  0  0  0  0
   -2.1026    2.1059    1.3801 H   0  0  0  0  0  0  0  0  0  0  0  0
   -3.6288    2.6714    0.7186 H   0  0  0  0  0  0  0  0  0  0  0  0
   -2.1675    3.0869   -0.9838 H   0  0  0  0  0  0  0  0  0  0  0  0
   -4.7159   -0.3973    2.4384 H   0  0  0  0  0  0  0  0  0  0  0  0
   -5.0104    0.4299   -2.3058 H   0  0  0  0  0  0  0  0  0  0  0  0
   -5.8291   -1.4284   -0.8571 H   0  0  0  0  0  0  0  0  0  0  0  0
   -5.2791   -1.6494    0.7958 H   0  0  0  0  0  0  0  0  0  0  0  0
   -2.4259   -4.5585   -1.3252 H   0  0  0  0  0  0  0  0  0  0  0  0
   -0.6627    1.2020   -1.9634 H   0  0  0  0  0  0  0  0  0  0  0  0
   -0.9739    0.3038   -0.4643 H   0  0  0  0  0  0  0  0  0  0  0  0
   -1.0270   -1.7808   -1.1162 H   0  0  0  0  0  0  0  0  0  0  0  0
   -0.5905   -3.1324   -2.2478 H   0  0  0  0  0  0  0  0  0  0  0  0
   -0.1695   -4.6334   -0.2828 H   0  0  0  0  0  0  0  0  0  0  0  0
   -0.6153   -3.2759    0.8461 H   0  0  0  0  0  0  0  0  0  0  0  0
   -5.4337    2.0340    2.0386 H   0  0  0  0  0  0  0  0  0  0  0  0
   -5.1691    1.5671    3.7085 H   0  0  0  0  0  0  0  0  0  0  0  0
   -3.9560    2.5357    2.9060 H   0  0  0  0  0  0  0  0  0  0  0  0
   -3.1866   -0.0173    4.3001 H   0  0  0  0  0  0  0  0  0  0  0  0
   -2.3576   -0.8664    2.9922 H   0  0  0  0  0  0  0  0  0  0  0  0
   -2.0552    0.8580    3.2652 H   0  0  0  0  0  0  0  0  0  0  0  0
   -3.5990   -1.8413   -1.6640 H   0  0  0  0  0  0  0  0  0  0  0  0
   -2.9966    3.0572   -3.2962 H   0  0  0  0  0  0  0  0  0  0  0  0
   -3.8470    1.6434   -3.9217 H   0  0  0  0  0  0  0  0  0  0  0  0
   -2.1067    1.5599   -3.6484 H   0  0  0  0  0  0  0  0  0  0  0  0
    1.1659    0.1328   -1.7716 H   0  0  0  0  0  0  0  0  0  0  0  0
    1.4839   -0.4843   -0.1479 H   0  0  0  0  0  0  0  0  0  0  0  0
    2.1157    2.9727    1.1622 H   0  0  0  0  0  0  0  0  0  0  0  0
    2.9584    2.9401   -0.3892 H   0  0  0  0  0  0  0  0  0  0  0  0
    3.4347   -0.8195   -1.6067 H   0  0  0  0  0  0  0  0  0  0  0  0
    3.4982    0.9045   -2.0100 H   0  0  0  0  0  0  0  0  0  0  0  0
    4.3541    1.9845    1.4054 H   0  0  0  0  0  0  0  0  0  0  0  0
    3.1013    0.7809    1.7904 H   0  0  0  0  0  0  0  0  0  0  0  0
    5.2440   -0.1004    2.2608 H   0  0  0  0  0  0  0  0  0  0  0  0
    7.4847   -1.0723    2.4984 H   0  0  0  0  0  0  0  0  0  0  0  0
    7.8063   -1.1655   -1.7745 H   0  0  0  0  0  0  0  0  0  0  0  0
    8.8149   -1.6331    0.4654 H   0  0  0  0  0  0  0  0  0  0  0  0
  1 21  2  0  0  0  0
  2 23  2  0  0  0  0
  3 14  1  0  0  0  0
  3 21  1  0  0  0  0
  3 55  1  0  0  0  0
  4 23  1  0  0  0  0
  4 24  1  0  0  0  0
  4 25  1  0  0  0  0
  5 26  1  0  0  0  0
  5 27  1  0  0  0  0
  5 28  1  0  0  0  0
  6 28  1  0  0  0  0
  6 31  2  0  0  0  0
  7  8  1  0  0  0  0
  7  9  1  0  0  0  0
  7 11  1  0  0  0  0
  7 33  1  0  0  0  0
  8 13  1  0  0  0  0
  8 14  1  0  0  0  0
  8 34  1  0  0  0  0
  9 10  1  0  0  0  0
  9 35  1  0  0  0  0
  9 36  1  0  0  0  0
 10 12  1  0  0  0  0
 10 16  1  0  0  0  0
 10 37  1  0  0  0  0
 11 19  1  0  0  0  0
 11 20  1  0  0  0  0
 11 38  1  0  0  0  0
 12 13  2  0  0  0  0
 12 22  1  0  0  0  0
 13 39  1  0  0  0  0
 14 40  1  0  0  0  0
 14 41  1  0  0  0  0
 15 17  1  0  0  0  0
 15 18  1  0  0  0  0
 15 21  1  0  0  0  0
 15 42  1  0  0  0  0
 16 23  1  0  0  0  0
 16 43  1  0  0  0  0
 16 44  1  0  0  0  0
 17 18  1  0  0  0  0
 17 45  1  0  0  0  0
 17 46  1  0  0  0  0
 18 47  1  0  0  0  0
 18 48  1  0  0  0  0
 19 49  1  0  0  0  0
 19 50  1  0  0  0  0
 19 51  1  0  0  0  0
 20 52  1  0  0  0  0
 20 53  1  0  0  0  0
 20 54  1  0  0  0  0
 22 56  1  0  0  0  0
 22 57  1  0  0  0  0
 22 58  1  0  0  0  0
 24 26  1  0  0  0  0
 24 59  1  0  0  0  0
 24 60  1  0  0  0  0
 25 27  1  0  0  0  0
 25 61  1  0  0  0  0
 25 62  1  0  0  0  0
 26 63  1  0  0  0  0
 26 64  1  0  0  0  0
 27 65  1  0  0  0  0
 27 66  1  0  0  0  0
 28 29  2  0  0  0  0
 29 30  1  0  0  0  0
 29 67  1  0  0  0  0
 30 32  2  0  0  0  0
 30 68  1  0  0  0  0
 31 32  1  0  0  0  0
 31 69  1  0  0  0  0
 32 70  1  0  0  0  0
M  END
> <PUBCHEM_COMPOUND_CID>
38029018

> <PUBCHEM_CONFORMER_RMSD>
1

> <PUBCHEM_CONFORMER_DIVERSEORDER>
1
15
119
75
141
113
78
148
180
171
155
92
82
156
146
25
20
81
133
138
174
36
110
66
27
68
136
178
154
145
143
120
24
30
53
170
169
94
103
134
153
16
151
95
111
41
173
162
128
108
137
26
172
71
46
115
31
60
43
121
182
55
58
122
135
57
17
106
69
10
140
126
175
84
161
116
72
18
160
125
61
142
166
183
8
152
149
87
91
127
73
90
177
33
52
159
150
80
118
85
107
109
105
130
83
19
100
23
147
117
179
9
167
47
163
132
74
50
157
34
112
21
124
38
62
158
48
176
131
102
12
56
139
65
29
79
51
7
76
39
22
67
6
97
114
89
165
144
54
45
77
123
168
28
4
11
98
88
40
49
37
104
44
164
14
3
64
5
96
32
93
59
129
42
101
99
86
181
13
70
2
35
63

> <PUBCHEM_MMFF94_PARTIAL_CHARGES>
38
1 -0.57
10 0.14
12 -0.28
13 -0.29
14 0.3
15 -0.1
16 0.06
17 -0.2
18 -0.2
2 -0.57
21 0.63
22 0.14
23 0.57
24 0.3
25 0.3
26 0.37
27 0.37
28 0.41
29 -0.15
3 -0.73
30 -0.15
31 0.16
32 -0.15
39 0.15
4 -0.66
42 0.1
45 0.1
46 0.1
47 0.1
48 0.1
5 -0.84
55 0.37
6 -0.62
67 0.15
68 0.15
69 0.15
70 0.15
8 0.14

> <PUBCHEM_EFFECTIVE_ROTOR_COUNT>
11.6

> <PUBCHEM_PHARMACOPHORE_FEATURES>
9
1 1 acceptor
1 2 acceptor
1 3 donor
1 5 cation
1 6 acceptor
3 11 19 20 hydrophobe
6 4 5 24 25 26 27 rings
6 6 28 29 30 31 32 rings
6 7 8 9 10 12 13 rings

> <PUBCHEM_HEAVY_ATOM_COUNT>
32

> <PUBCHEM_ATOM_DEF_STEREO_COUNT>
3

> <PUBCHEM_ATOM_UDEF_STEREO_COUNT>
0

> <PUBCHEM_BOND_DEF_STEREO_COUNT>
0

> <PUBCHEM_BOND_UDEF_STEREO_COUNT>
0

> <PUBCHEM_ISOTOPIC_ATOM_COUNT>
0

> <PUBCHEM_COMPONENT_COUNT>
1

> <PUBCHEM_CACTVS_TAUTO_COUNT>
2

> <PUBCHEM_CONFORMER_ID>
024446DA00000001

> <PUBCHEM_MMFF94_ENERGY>
85.8168

> <PUBCHEM_FEATURE_SELFOVERLAP>
45.671

> <PUBCHEM_SHAPE_FINGERPRINT>
10305334 12 17917161490016106385
10554248 39 10665231437374449288
107951 10 16951115155125332853
11524674 6 18201431472149518463
11828422 8 14714482945283675293
12104220 1 17988645169006928040
12522641 33 17825650185630662077
12633257 1 18270134494733892437
12655364 131 17771059389327876283
12838863 1 18200582722493852687
13690498 29 17676202468163173029
13782708 43 18114179727386237256
14068700 675 17987512783852461943
14117953 113 18408316675649340389
14849402 71 16342839076200305104
14950920 106 18059861700457289312
15001296 14 18043517516229504890
15021287 119 17603304865048643412
15183329 4 18409449194127470938
15781502 13 14975963615816578639
15799311 1 18341067271702885588
16112460 7 18270687575221720000
16114785 44 17913210863028497529
17627616 140 18116701933271107618
20771845 38 18337103467549722003
21716022 299 11967387567442870401
312425 54 17774449278581873616
3383291 50 18271518779958243567
373842 8 18194673779660831678
484985 159 18409728478644032183
5104073 3 18201712999282969432
531348 171 17822281340998080044

> <PUBCHEM_SHAPE_MULTIPOLES>
626.88
16.85
3.94
2.42
38.75
3.84
-0.83
4.5
-3.64
-4.52
0.62
-3.48
-1.12
0.05

> <PUBCHEM_SHAPE_SELFOVERLAP>
1303.756

> <PUBCHEM_SHAPE_VOLUME>
354.3

> <PUBCHEM_COORDINATE_TYPE>
2
5
10

$$$$
