40587832
  -OEChem-12032416133D

 62 65  0     1  0  0  0  0  0999 V2000
   -0.0429    0.3163   -2.0099 O   0  0  0  0  0  0  0  0  0  0  0  0
   -1.8358    4.1466   -0.8139 O   0  0  0  0  0  0  0  0  0  0  0  0
   -2.7587   -2.3267    0.5484 O   0  0  0  0  0  0  0  0  0  0  0  0
    4.6265    1.4491   -1.6259 O   0  0  0  0  0  0  0  0  0  0  0  0
   -5.6119   -0.2195    1.6100 O   0  0  0  0  0  0  0  0  0  0  0  0
   -0.1991    2.5152   -0.4321 N   0  0  0  0  0  0  0  0  0  0  0  0
    2.5770    1.6160   -0.5188 N   0  0  0  0  0  0  0  0  0  0  0  0
   -0.4548   -1.0402   -0.1632 N   0  0  0  0  0  0  0  0  0  0  0  0
   -1.9465   -4.3242   -0.2048 N   0  0  0  0  0  0  0  0  0  0  0  0
    0.2000    1.2400    0.1807 C   0  0  2  0  0  0  0  0  0  0  0  0
    1.6794    1.2031    0.5712 C   0  0  0  0  0  0  0  0  0  0  0  0
    0.8724    3.3618   -0.9592 C   0  0  0  0  0  0  0  0  0  0  0  0
    2.0397    2.5537   -1.5030 C   0  0  0  0  0  0  0  0  0  0  0  0
   -0.8114   -2.2397   -0.8755 C   0  0  1  0  0  0  0  0  0  0  0  0
   -0.0998    0.1390   -0.7959 C   0  0  0  0  0  0  0  0  0  0  0  0
    0.4192   -3.0922   -1.1523 C   0  0  0  0  0  0  0  0  0  0  0  0
   -0.0069   -4.4257   -1.7444 C   0  0  0  0  0  0  0  0  0  0  0  0
   -1.5022    3.0308   -0.4181 C   0  0  0  0  0  0  0  0  0  0  0  0
   -0.8855   -5.1539   -0.7450 C   0  0  0  0  0  0  0  0  0  0  0  0
   -1.9021   -2.9503   -0.0816 C   0  0  0  0  0  0  0  0  0  0  0  0
    3.8812    1.1404   -0.6966 C   0  0  0  0  0  0  0  0  0  0  0  0
   -2.5762    2.1817    0.1113 C   0  0  0  0  0  0  0  0  0  0  0  0
    4.4228    0.2021    0.2994 C   0  0  0  0  0  0  0  0  0  0  0  0
   -2.8965    2.2282    1.4683 C   0  0  0  0  0  0  0  0  0  0  0  0
   -3.2761    1.3286   -0.7417 C   0  0  0  0  0  0  0  0  0  0  0  0
    4.2532   -1.1718    0.1286 C   0  0  0  0  0  0  0  0  0  0  0  0
    5.1074    0.6871    1.4137 C   0  0  0  0  0  0  0  0  0  0  0  0
   -3.9167    1.4213    1.9720 C   0  0  0  0  0  0  0  0  0  0  0  0
   -4.2962    0.5218   -0.2380 C   0  0  0  0  0  0  0  0  0  0  0  0
   -4.6165    0.5681    1.1188 C   0  0  0  0  0  0  0  0  0  0  0  0
    4.7681   -2.0609    1.0721 C   0  0  0  0  0  0  0  0  0  0  0  0
    5.6223   -0.2019    2.3572 C   0  0  0  0  0  0  0  0  0  0  0  0
    5.4527   -1.5759    2.1864 C   0  0  0  0  0  0  0  0  0  0  0  0
   -6.2862   -1.0681    0.6818 C   0  0  0  0  0  0  0  0  0  0  0  0
   -0.3950    1.0899    1.0874 H   0  0  0  0  0  0  0  0  0  0  0  0
    1.8598    1.9102    1.3906 H   0  0  0  0  0  0  0  0  0  0  0  0
    1.9504    0.2095    0.9377 H   0  0  0  0  0  0  0  0  0  0  0  0
    1.2043    3.9996   -0.1306 H   0  0  0  0  0  0  0  0  0  0  0  0
    0.4742    4.0217   -1.7377 H   0  0  0  0  0  0  0  0  0  0  0  0
    1.7477    1.9758   -2.3857 H   0  0  0  0  0  0  0  0  0  0  0  0
    2.8403    3.2301   -1.8241 H   0  0  0  0  0  0  0  0  0  0  0  0
   -1.2664   -1.9523   -1.8325 H   0  0  0  0  0  0  0  0  0  0  0  0
    0.9884   -3.2598   -0.2285 H   0  0  0  0  0  0  0  0  0  0  0  0
    1.0915   -2.5727   -1.8456 H   0  0  0  0  0  0  0  0  0  0  0  0
   -0.4401   -1.0791    0.8522 H   0  0  0  0  0  0  0  0  0  0  0  0
   -0.5578   -4.2581   -2.6779 H   0  0  0  0  0  0  0  0  0  0  0  0
    0.8701   -5.0352   -1.9874 H   0  0  0  0  0  0  0  0  0  0  0  0
   -1.3500   -6.0326   -1.2034 H   0  0  0  0  0  0  0  0  0  0  0  0
   -0.2899   -5.4967    0.1086 H   0  0  0  0  0  0  0  0  0  0  0  0
   -2.7038   -4.8031    0.2728 H   0  0  0  0  0  0  0  0  0  0  0  0
   -2.3572    2.8893    2.1417 H   0  0  0  0  0  0  0  0  0  0  0  0
   -3.0344    1.2854   -1.8006 H   0  0  0  0  0  0  0  0  0  0  0  0
    3.7198   -1.5601   -0.7354 H   0  0  0  0  0  0  0  0  0  0  0  0
    5.2449    1.7557    1.5565 H   0  0  0  0  0  0  0  0  0  0  0  0
   -4.1614    1.4613    3.0298 H   0  0  0  0  0  0  0  0  0  0  0  0
   -4.7979   -0.1182   -0.9557 H   0  0  0  0  0  0  0  0  0  0  0  0
    4.6352   -3.1306    0.9393 H   0  0  0  0  0  0  0  0  0  0  0  0
    6.1551    0.1757    3.2250 H   0  0  0  0  0  0  0  0  0  0  0  0
    5.8534   -2.2680    2.9212 H   0  0  0  0  0  0  0  0  0  0  0  0
   -7.0453   -1.6222    1.2435 H   0  0  0  0  0  0  0  0  0  0  0  0
   -5.6079   -1.8089    0.2454 H   0  0  0  0  0  0  0  0  0  0  0  0
   -6.8143   -0.4883   -0.0828 H   0  0  0  0  0  0  0  0  0  0  0  0
  1 15  2  0  0  0  0
  2 18  2  0  0  0  0
  3 20  2  0  0  0  0
  4 21  2  0  0  0  0
  5 30  1  0  0  0  0
  5 34  1  0  0  0  0
  6 10  1  0  0  0  0
  6 12  1  0  0  0  0
  6 18  1  0  0  0  0
  7 11  1  0  0  0  0
  7 13  1  0  0  0  0
  7 21  1  0  0  0  0
  8 14  1  0  0  0  0
  8 15  1  0  0  0  0
  8 45  1  0  0  0  0
  9 19  1  0  0  0  0
  9 20  1  0  0  0  0
  9 50  1  0  0  0  0
 10 11  1  0  0  0  0
 10 15  1  0  0  0  0
 10 35  1  0  0  0  0
 11 36  1  0  0  0  0
 11 37  1  0  0  0  0
 12 13  1  0  0  0  0
 12 38  1  0  0  0  0
 12 39  1  0  0  0  0
 13 40  1  0  0  0  0
 13 41  1  0  0  0  0
 14 16  1  0  0  0  0
 14 20  1  0  0  0  0
 14 42  1  0  0  0  0
 16 17  1  0  0  0  0
 16 43  1  0  0  0  0
 16 44  1  0  0  0  0
 17 19  1  0  0  0  0
 17 46  1  0  0  0  0
 17 47  1  0  0  0  0
 18 22  1  0  0  0  0
 19 48  1  0  0  0  0
 19 49  1  0  0  0  0
 21 23  1  0  0  0  0
 22 24  2  0  0  0  0
 22 25  1  0  0  0  0
 23 26  2  0  0  0  0
 23 27  1  0  0  0  0
 24 28  1  0  0  0  0
 24 51  1  0  0  0  0
 25 29  2  0  0  0  0
 25 52  1  0  0  0  0
 26 31  1  0  0  0  0
 26 53  1  0  0  0  0
 27 32  2  0  0  0  0
 27 54  1  0  0  0  0
 28 30  2  0  0  0  0
 28 55  1  0  0  0  0
 29 30  1  0  0  0  0
 29 56  1  0  0  0  0
 31 33  2  0  0  0  0
 31 57  1  0  0  0  0
 32 33  1  0  0  0  0
 32 58  1  0  0  0  0
 33 59  1  0  0  0  0
 34 60  1  0  0  0  0
 34 61  1  0  0  0  0
 34 62  1  0  0  0  0
M  END
> <PUBCHEM_COMPOUND_CID>
40587832

> <PUBCHEM_CONFORMER_RMSD>
1

> <PUBCHEM_CONFORMER_DIVERSEORDER>
2
26
59
91
142
163
146
95
77
195
185
138
99
79
161
139
92
127
101
164
181
23
115
124
78
37
118
87
117
121
190
64
104
191
72
174
112
176
111
196
34
88
48
97
170
171
62
49
156
151
119
186
172
29
194
150
39
51
187
80
84
159
147
110
183
126
107
67
40
106
173
134
141
58
129
61
18
16
168
20
33
75
192
137
114
105
19
1
93
57
76
103
148
152
177
155
122
140
70
133
82
6
43
66
193
90
81
175
68
157
130
47
166
169
50
123
145
165
15
74
31
27
36
86
85
182
160
128
144
178
55
52
94
100
60
102
197
135
32
189
153
143
188
109
98
158
28
12
108
113
120
46
7
25
38
132
154
13
45
167
180
14
73
149
96
9
136
54
4
53
63
71
22
56
162
35
17
30
21
65
10
8
69
125
89
179
5
42
24
3
131
41
184
11
83
116
44

> <PUBCHEM_MMFF94_PARTIAL_CHARGES>
43
1 -0.57
10 0.36
11 0.3
12 0.3
13 0.3
14 0.36
15 0.57
18 0.54
19 0.3
2 -0.57
20 0.57
21 0.54
22 0.09
23 0.09
24 -0.15
25 -0.15
26 -0.15
27 -0.15
28 -0.15
29 -0.15
3 -0.57
30 0.08
31 -0.15
32 -0.15
33 -0.15
34 0.28
4 -0.57
45 0.37
5 -0.36
50 0.37
51 0.15
52 0.15
53 0.15
54 0.15
55 0.15
56 0.15
57 0.15
58 0.15
59 0.15
6 -0.66
7 -0.66
8 -0.73
9 -0.73

> <PUBCHEM_EFFECTIVE_ROTOR_COUNT>
10.2

> <PUBCHEM_PHARMACOPHORE_FEATURES>
11
1 1 acceptor
1 2 acceptor
1 3 acceptor
1 4 acceptor
1 5 acceptor
1 8 donor
1 9 donor
6 22 24 25 28 29 30 rings
6 23 26 27 31 32 33 rings
6 6 7 10 11 12 13 rings
6 9 14 16 17 19 20 rings

> <PUBCHEM_HEAVY_ATOM_COUNT>
34

> <PUBCHEM_ATOM_DEF_STEREO_COUNT>
2

> <PUBCHEM_ATOM_UDEF_STEREO_COUNT>
0

> <PUBCHEM_BOND_DEF_STEREO_COUNT>
0

> <PUBCHEM_BOND_UDEF_STEREO_COUNT>
0

> <PUBCHEM_ISOTOPIC_ATOM_COUNT>
0

> <PUBCHEM_COMPONENT_COUNT>
1

> <PUBCHEM_CACTVS_TAUTO_COUNT>
6

> <PUBCHEM_CONFORMER_ID>
026B523800000002

> <PUBCHEM_MMFF94_ENERGY>
105.8147

> <PUBCHEM_FEATURE_SELFOVERLAP>
55.825

> <PUBCHEM_SHAPE_FINGERPRINT>
10074138 170 18268687546159259610
10675989 125 16682883099796029679
11578080 2 17557707159545456584
11719270 70 18340772555347191233
12422481 6 18265620887626753944
12788726 201 17979362181106629446
12839892 36 18340208492469901617
14117953 113 18410013209443460221
14395042 24 18268425906037964411
15403338 16 17458056037139582995
15815584 197 18126007053232516445
16728300 4 18040986315945437779
17818456 19 18269278022214740891
19319366 153 16820811314124662423
20028762 73 18130795602865962551
20764821 26 18267887101762453311
21344244 78 17334761475872486202
21583282 1 17388274578057953045
21795232 338 18341600539702028290
21814621 53 15338296588040538215
22223350 30 17984981759493190691
22956985 138 17978804414899536303
229767 44 18412257333264656546
23559900 14 17544205878294470212
238918 7 18198900319073167598
373842 8 18409454686968883515
4403749 210 18192130635109078832
5047190 48 18413394250015716806
5085150 59 18337659833586809705
5171179 24 17621881985404143039
6371009 1 18342173406233840431
79837 15 18341892978506781923

> <PUBCHEM_SHAPE_MULTIPOLES>
650.43
11.74
5.78
1.86
4.31
6.21
-0.5
-0.1
-8.62
-2.79
2.86
1.19
-0.08
-1.51

> <PUBCHEM_SHAPE_SELFOVERLAP>
1394.847

> <PUBCHEM_SHAPE_VOLUME>
353.6

> <PUBCHEM_COORDINATE_TYPE>
2
5
10

$$$$
