45784128
  -OEChem-12032416363D

 50 52  0     1  0  0  0  0  0999 V2000
    5.4293   -1.6737    1.2892 O   0  0  0  0  0  0  0  0  0  0  0  0
   -1.3148    0.6830    0.5001 O   0  0  0  0  0  0  0  0  0  0  0  0
   -1.2695    2.6370   -0.5882 N   0  0  0  0  0  0  0  0  0  0  0  0
   -2.5270    2.0863   -0.7512 N   0  0  0  0  0  0  0  0  0  0  0  0
   -3.8916   -0.7604    1.0207 N   0  0  0  0  0  0  0  0  0  0  0  0
   -5.5215   -1.0849   -0.4524 N   0  0  0  0  0  0  0  0  0  0  0  0
    2.0389   -0.9996   -0.2023 C   0  0  2  0  0  0  0  0  0  0  0  0
    1.5325    0.1475   -1.0900 C   0  0  0  0  0  0  0  0  0  0  0  0
    3.5654   -0.8716    0.0282 C   0  0  1  0  0  0  0  0  0  0  0  0
    1.8190    1.5303   -0.4747 C   0  0  2  0  0  0  0  0  0  0  0  0
    1.6699   -2.3456   -0.8337 C   0  0  0  0  0  0  0  0  0  0  0  0
    3.2455    1.6399    0.0245 C   0  0  0  0  0  0  0  0  0  0  0  0
    4.0150    0.5564    0.2306 C   0  0  0  0  0  0  0  0  0  0  0  0
    0.8204    1.8557    0.6416 C   0  0  0  0  0  0  0  0  0  0  0  0
    4.0183   -1.7233    1.2197 C   0  0  0  0  0  0  0  0  0  0  0  0
    0.2235   -2.7065   -0.5105 C   0  0  0  0  0  0  0  0  0  0  0  0
    1.8931   -2.3047   -2.3421 C   0  0  0  0  0  0  0  0  0  0  0  0
    3.7831    3.0275    0.2384 C   0  0  0  0  0  0  0  0  0  0  0  0
   -0.5964    1.7843    0.1485 C   0  0  0  0  0  0  0  0  0  0  0  0
   -2.5078    0.9470   -0.0997 C   0  0  0  0  0  0  0  0  0  0  0  0
   -3.6208    0.0740   -0.0270 C   0  0  0  0  0  0  0  0  0  0  0  0
   -4.6403   -0.1440   -0.9234 C   0  0  0  0  0  0  0  0  0  0  0  0
   -5.0418   -1.4356    0.7202 C   0  0  0  0  0  0  0  0  0  0  0  0
   -3.1226   -0.9189    2.2335 C   0  0  0  0  0  0  0  0  0  0  0  0
    1.5469   -0.9283    0.7774 H   0  0  0  0  0  0  0  0  0  0  0  0
    2.0687    0.1446   -2.0490 H   0  0  0  0  0  0  0  0  0  0  0  0
    0.4756    0.0308   -1.3438 H   0  0  0  0  0  0  0  0  0  0  0  0
    4.1078   -1.2225   -0.8597 H   0  0  0  0  0  0  0  0  0  0  0  0
    1.6843    2.2637   -1.2829 H   0  0  0  0  0  0  0  0  0  0  0  0
    2.2942   -3.1453   -0.4221 H   0  0  0  0  0  0  0  0  0  0  0  0
    5.0468    0.7093    0.5396 H   0  0  0  0  0  0  0  0  0  0  0  0
    0.9864    2.8721    1.0187 H   0  0  0  0  0  0  0  0  0  0  0  0
    0.9457    1.1839    1.4994 H   0  0  0  0  0  0  0  0  0  0  0  0
    3.6061   -1.3428    2.1612 H   0  0  0  0  0  0  0  0  0  0  0  0
    3.7269   -2.7709    1.1127 H   0  0  0  0  0  0  0  0  0  0  0  0
   -0.4878   -1.9830   -0.9209 H   0  0  0  0  0  0  0  0  0  0  0  0
    0.0651   -2.7599    0.5720 H   0  0  0  0  0  0  0  0  0  0  0  0
   -0.0284   -3.6875   -0.9281 H   0  0  0  0  0  0  0  0  0  0  0  0
    1.1453   -1.7061   -2.8726 H   0  0  0  0  0  0  0  0  0  0  0  0
    1.8021   -3.3205   -2.7466 H   0  0  0  0  0  0  0  0  0  0  0  0
    2.8938   -1.9543   -2.6116 H   0  0  0  0  0  0  0  0  0  0  0  0
    3.2383    3.5353    1.0397 H   0  0  0  0  0  0  0  0  0  0  0  0
    3.6860    3.6180   -0.6784 H   0  0  0  0  0  0  0  0  0  0  0  0
    4.8431    3.0216    0.5143 H   0  0  0  0  0  0  0  0  0  0  0  0
    5.6990   -2.2100    2.0542 H   0  0  0  0  0  0  0  0  0  0  0  0
   -4.7899    0.3250   -1.8857 H   0  0  0  0  0  0  0  0  0  0  0  0
   -5.4815   -2.1659    1.3859 H   0  0  0  0  0  0  0  0  0  0  0  0
   -3.6820   -1.5409    2.9374 H   0  0  0  0  0  0  0  0  0  0  0  0
   -2.9531    0.0655    2.6768 H   0  0  0  0  0  0  0  0  0  0  0  0
   -2.1774   -1.4067    1.9830 H   0  0  0  0  0  0  0  0  0  0  0  0
  1 15  1  0  0  0  0
  1 45  1  0  0  0  0
  2 19  1  0  0  0  0
  2 20  1  0  0  0  0
  3  4  1  0  0  0  0
  3 19  2  0  0  0  0
  4 20  2  0  0  0  0
  5 21  1  0  0  0  0
  5 23  1  0  0  0  0
  5 24  1  0  0  0  0
  6 22  1  0  0  0  0
  6 23  2  0  0  0  0
  7  8  1  0  0  0  0
  7  9  1  0  0  0  0
  7 11  1  0  0  0  0
  7 25  1  0  0  0  0
  8 10  1  0  0  0  0
  8 26  1  0  0  0  0
  8 27  1  0  0  0  0
  9 13  1  0  0  0  0
  9 15  1  0  0  0  0
  9 28  1  0  0  0  0
 10 12  1  0  0  0  0
 10 14  1  0  0  0  0
 10 29  1  0  0  0  0
 11 16  1  0  0  0  0
 11 17  1  0  0  0  0
 11 30  1  0  0  0  0
 12 13  2  0  0  0  0
 12 18  1  0  0  0  0
 13 31  1  0  0  0  0
 14 19  1  0  0  0  0
 14 32  1  0  0  0  0
 14 33  1  0  0  0  0
 15 34  1  0  0  0  0
 15 35  1  0  0  0  0
 16 36  1  0  0  0  0
 16 37  1  0  0  0  0
 16 38  1  0  0  0  0
 17 39  1  0  0  0  0
 17 40  1  0  0  0  0
 17 41  1  0  0  0  0
 18 42  1  0  0  0  0
 18 43  1  0  0  0  0
 18 44  1  0  0  0  0
 20 21  1  0  0  0  0
 21 22  2  0  0  0  0
 22 46  1  0  0  0  0
 23 47  1  0  0  0  0
 24 48  1  0  0  0  0
 24 49  1  0  0  0  0
 24 50  1  0  0  0  0
M  END
> <PUBCHEM_COMPOUND_CID>
45784128

> <PUBCHEM_CONFORMER_RMSD>
0.8

> <PUBCHEM_CONFORMER_DIVERSEORDER>
1
91
44
72
37
45
108
48
74
106
73
78
51
27
62
64
76
61
96
69
6
81
90
63
109
24
83
104
26
59
79
36
105
14
107
102
66
42
38
7
25
93
20
22
9
34
77
3
53
32
84
50
11
94
16
58
89
10
92
35
88
56
30
46
40
100
47
18
60
33
103
95
65
68
52
49
12
21
5
55
97
87
70
4
54
43
67
2
28
31
39
101
82
99
8
19
57
75
41
86
15
17
80
23
85
29
71
13
98

> <PUBCHEM_MMFF94_PARTIAL_CHARGES>
23
1 -0.68
10 0.14
12 -0.28
13 -0.29
14 0.18
15 0.28
18 0.14
19 0.3
2 -0.28
20 0.48
21 -0.15
22 0.08
23 0.04
24 0.26
3 -0.34
31 0.15
4 -0.34
45 0.4
46 0.15
47 0.15
5 0.05
6 -0.57
9 0.14

> <PUBCHEM_EFFECTIVE_ROTOR_COUNT>
5.8

> <PUBCHEM_PHARMACOPHORE_FEATURES>
7
1 1 acceptor
1 1 donor
3 11 16 17 hydrophobe
3 5 6 23 cation
5 2 3 4 19 20 rings
5 5 6 21 22 23 rings
6 7 8 9 10 12 13 rings

> <PUBCHEM_HEAVY_ATOM_COUNT>
24

> <PUBCHEM_ATOM_DEF_STEREO_COUNT>
3

> <PUBCHEM_ATOM_UDEF_STEREO_COUNT>
0

> <PUBCHEM_BOND_DEF_STEREO_COUNT>
0

> <PUBCHEM_BOND_UDEF_STEREO_COUNT>
0

> <PUBCHEM_ISOTOPIC_ATOM_COUNT>
0

> <PUBCHEM_COMPONENT_COUNT>
1

> <PUBCHEM_CACTVS_TAUTO_COUNT>
1

> <PUBCHEM_CONFORMER_ID>
02BA9C4000000001

> <PUBCHEM_MMFF94_ENERGY>
36.7225

> <PUBCHEM_FEATURE_SELFOVERLAP>
35.52

> <PUBCHEM_SHAPE_FINGERPRINT>
10076449 9 17917438563263781542
10447042 23 18410565219344850461
10759866 29 17896332474688058894
11405975 8 18337108956380788921
11488393 25 17415293732476609102
11828532 37 15869996479902963675
12363563 72 18261402130573273851
12596602 18 16415200122029203291
12633257 1 18341620312602713659
13083527 12 18410851036681287436
13224815 77 18341058445112464767
13402501 40 18335986462651530547
13544653 18 18408326609560762865
14178342 30 17985270664452047720
14341114 328 17417820573099162601
14386348 63 18187368791739885161
146900 427 17988084524839391704
14790565 3 17398677182354799644
14955137 171 18200308806990936692
15635459 17 18409738365305462483
20028762 73 18131344220065702478
20261772 1 18272928340963760862
20403669 9 18335987501949161643
20626108 58 18114456761029173224
20645477 70 18412262856650335413
21033650 10 15864623964924518845
21197605 99 17982174718950209063
21304304 249 18408597042145147402
21315764 371 16630524085335334207
221490 88 18340493240422617110
23559900 14 17967811665090383208
25222932 49 17898012579858596459
33824 294 18340488971046036364
463206 1 18270396234905739863
465052 167 18409166602321788402
5104073 3 18411981347345944769
5283173 99 18041548145271266309
59554788 248 18131057200443721172
6287921 2 17274277027901423559
7064713 232 17703793613251107987
9709674 26 18267305331098621837

> <PUBCHEM_SHAPE_MULTIPOLES>
462.25
10.66
3.27
1.45
7.4
0.37
-0.11
-3.02
-2.71
-2.66
0.62
0.08
-0.94
0.52

> <PUBCHEM_SHAPE_SELFOVERLAP>
973.671

> <PUBCHEM_SHAPE_VOLUME>
262.9

> <PUBCHEM_COORDINATE_TYPE>
2
5
10

$$$$
