11941628
  -OEChem-12032416153D

 39 42  0     1  0  0  0  0  0999 V2000
    3.4050    0.2077    2.1498 F   0  0  0  0  0  0  0  0  0  0  0  0
    6.9987   -1.1725   -0.5976 F   0  0  0  0  0  0  0  0  0  0  0  0
   -6.1586   -2.1587   -0.4233 O   0  0  0  0  0  0  0  0  0  0  0  0
   -4.4901    2.0836    0.0802 O   0  0  0  0  0  0  0  0  0  0  0  0
   -1.2339   -1.8865    1.2971 O   0  0  0  0  0  0  0  0  0  0  0  0
   -2.9122   -0.8170    0.1457 N   0  0  0  0  0  0  0  0  0  0  0  0
   -2.2165    2.0429    0.2336 N   0  0  0  0  0  0  0  0  0  0  0  0
   -3.3749    0.1510   -0.8274 C   0  0  1  0  0  0  0  0  0  0  0  0
   -4.7359   -0.3795   -1.2728 C   0  0  0  0  0  0  0  0  0  0  0  0
   -5.2365   -1.1534   -0.0542 C   0  0  2  0  0  0  0  0  0  0  0  0
   -3.9609   -1.7598    0.5074 C   0  0  0  0  0  0  0  0  0  0  0  0
   -3.4306    1.4819   -0.1048 C   0  0  0  0  0  0  0  0  0  0  0  0
   -1.6151   -0.9542    0.5898 C   0  0  0  0  0  0  0  0  0  0  0  0
   -0.6334    0.0971    0.2155 C   0  0  0  0  0  0  0  0  0  0  0  0
   -0.9284    1.4697    0.1496 C   0  0  0  0  0  0  0  0  0  0  0  0
    0.7015   -0.3300    0.0918 C   0  0  0  0  0  0  0  0  0  0  0  0
    0.1318    2.3853    0.0271 C   0  0  0  0  0  0  0  0  0  0  0  0
    1.7345    0.5908   -0.0765 C   0  0  0  0  0  0  0  0  0  0  0  0
    1.4511    1.9501   -0.0962 C   0  0  0  0  0  0  0  0  0  0  0  0
    3.1007    0.1331   -0.2077 C   0  0  0  0  0  0  0  0  0  0  0  0
    3.8932   -0.0441    0.9263 C   0  0  0  0  0  0  0  0  0  0  0  0
    3.6248   -0.1309   -1.4733 C   0  0  0  0  0  0  0  0  0  0  0  0
    5.2099   -0.4853    0.7949 C   0  0  0  0  0  0  0  0  0  0  0  0
    4.9414   -0.5720   -1.6046 C   0  0  0  0  0  0  0  0  0  0  0  0
    5.7341   -0.7492   -0.4705 C   0  0  0  0  0  0  0  0  0  0  0  0
   -2.6845    0.2236   -1.6751 H   0  0  0  0  0  0  0  0  0  0  0  0
   -5.4407    0.3963   -1.5878 H   0  0  0  0  0  0  0  0  0  0  0  0
   -4.6157   -1.0646   -2.1222 H   0  0  0  0  0  0  0  0  0  0  0  0
   -5.7044   -0.4741    0.6675 H   0  0  0  0  0  0  0  0  0  0  0  0
   -3.9967   -1.8882    1.5940 H   0  0  0  0  0  0  0  0  0  0  0  0
   -3.7257   -2.7328    0.0604 H   0  0  0  0  0  0  0  0  0  0  0  0
   -2.2489    3.0247    0.4982 H   0  0  0  0  0  0  0  0  0  0  0  0
   -6.3698   -2.6689    0.3771 H   0  0  0  0  0  0  0  0  0  0  0  0
    0.9403   -1.3917    0.1415 H   0  0  0  0  0  0  0  0  0  0  0  0
   -0.0648    3.4556   -0.0009 H   0  0  0  0  0  0  0  0  0  0  0  0
    2.2423    2.6873   -0.2098 H   0  0  0  0  0  0  0  0  0  0  0  0
    3.0208    0.0019   -2.3678 H   0  0  0  0  0  0  0  0  0  0  0  0
    5.8272   -0.6228    1.6776 H   0  0  0  0  0  0  0  0  0  0  0  0
    5.3500   -0.7776   -2.5896 H   0  0  0  0  0  0  0  0  0  0  0  0
  1 21  1  0  0  0  0
  2 25  1  0  0  0  0
  3 10  1  0  0  0  0
  3 33  1  0  0  0  0
  4 12  2  0  0  0  0
  5 13  2  0  0  0  0
  6  8  1  0  0  0  0
  6 11  1  0  0  0  0
  6 13  1  0  0  0  0
  7 12  1  0  0  0  0
  7 15  1  0  0  0  0
  7 32  1  0  0  0  0
  8  9  1  0  0  0  0
  8 12  1  0  0  0  0
  8 26  1  0  0  0  0
  9 10  1  0  0  0  0
  9 27  1  0  0  0  0
  9 28  1  0  0  0  0
 10 11  1  0  0  0  0
 10 29  1  0  0  0  0
 11 30  1  0  0  0  0
 11 31  1  0  0  0  0
 13 14  1  0  0  0  0
 14 15  2  0  0  0  0
 14 16  1  0  0  0  0
 15 17  1  0  0  0  0
 16 18  2  0  0  0  0
 16 34  1  0  0  0  0
 17 19  2  0  0  0  0
 17 35  1  0  0  0  0
 18 19  1  0  0  0  0
 18 20  1  0  0  0  0
 19 36  1  0  0  0  0
 20 21  2  0  0  0  0
 20 22  1  0  0  0  0
 21 23  1  0  0  0  0
 22 24  2  0  0  0  0
 22 37  1  0  0  0  0
 23 25  2  0  0  0  0
 23 38  1  0  0  0  0
 24 25  1  0  0  0  0
 24 39  1  0  0  0  0
M  END
> <PUBCHEM_COMPOUND_CID>
11941628

> <PUBCHEM_CONFORMER_RMSD>
0.6

> <PUBCHEM_CONFORMER_DIVERSEORDER>
1
6
4
5
3
2

> <PUBCHEM_MMFF94_PARTIAL_CHARGES>
30
1 -0.19
10 0.28
11 0.3
12 0.57
13 0.54
14 0.09
15 0.12
16 -0.15
17 -0.15
19 -0.15
2 -0.19
21 0.19
22 -0.15
23 -0.15
24 -0.15
25 0.19
3 -0.68
32 0.37
33 0.4
34 0.15
35 0.15
36 0.15
37 0.15
38 0.15
39 0.15
4 -0.57
5 -0.57
6 -0.66
7 -0.55
8 0.36

> <PUBCHEM_EFFECTIVE_ROTOR_COUNT>
1.8

> <PUBCHEM_PHARMACOPHORE_FEATURES>
9
1 3 acceptor
1 3 donor
1 4 acceptor
1 5 acceptor
1 7 donor
5 6 8 9 10 11 rings
6 14 15 16 17 18 19 rings
6 20 21 22 23 24 25 rings
7 6 7 8 12 13 14 15 rings

> <PUBCHEM_HEAVY_ATOM_COUNT>
25

> <PUBCHEM_ATOM_DEF_STEREO_COUNT>
2

> <PUBCHEM_ATOM_UDEF_STEREO_COUNT>
0

> <PUBCHEM_BOND_DEF_STEREO_COUNT>
0

> <PUBCHEM_BOND_UDEF_STEREO_COUNT>
0

> <PUBCHEM_ISOTOPIC_ATOM_COUNT>
0

> <PUBCHEM_COMPONENT_COUNT>
1

> <PUBCHEM_CACTVS_TAUTO_COUNT>
3

> <PUBCHEM_CONFORMER_ID>
00B636FC00000001

> <PUBCHEM_MMFF94_ENERGY>
89.5344

> <PUBCHEM_FEATURE_SELFOVERLAP>
45.731

> <PUBCHEM_SHAPE_FINGERPRINT>
10 15 10879991376013864495
11315181 36 18040722480588802092
11545043 162 17989203724633759936
11963148 33 18410285943255602790
12166972 35 17676489492632814477
12236239 1 17676490519472745896
12403814 3 12823298979211426763
12516196 113 18272088327165410832
12788726 201 18187359875076795912
13288520 33 18412546505186355477
13583140 156 15195287473753769513
13685833 64 18273498991825133774
13782708 43 17917712349779241694
13862211 1 18410574002342292086
14294032 229 17970626291163886181
14790565 3 17403746545281510513
14849402 71 13973382696612230082
15183329 4 17168143429862140006
15196674 1 18410575106138467573
15788980 27 17632574954794987796
15880784 105 16988553632522954462
16752209 62 18333167262923564386
17349148 13 18408044008938234100
17844677 252 18343868826871892968
18222031 100 18341894125431172782
18681886 176 18334576863365080612
18927931 339 18411984663503360127
193927 3 18341338872090885461
19489759 90 18409730642605948886
200 152 17704071785060052476
20028762 73 18130221687597907647
21033648 29 17417514857079133488
21236236 1 18411984641791133641
21267235 1 18408889564088388619
21781051 124 17604436327149871595
22224240 67 9655579617406587911
23402539 116 18410011005175742852
23522609 53 18122942868934787553
23557571 272 18273218581699372271
23559900 14 18336542836593491632
3004659 81 17967532389621802630
335352 9 18408882933012422229
3383291 50 18335137635053548827
5104073 3 18342739641294132945
559249 180 18336263448875603487
59682541 52 14996545292409259770
59755656 215 18410570674254503255
86090 222 17130732559612380382
9709674 26 18265615579231999993

> <PUBCHEM_SHAPE_MULTIPOLES>
472.37
14.2
2.09
1.2
6.42
0.74
0.02
-7.4
-3.03
-2.48
0.19
1.12
-0.25
0.35

> <PUBCHEM_SHAPE_SELFOVERLAP>
1056.209

> <PUBCHEM_SHAPE_VOLUME>
250.5

> <PUBCHEM_COORDINATE_TYPE>
2
5
10

$$$$
