26742338
  -OEChem-12032416183D

 41 43  0     1  0  0  0  0  0999 V2000
   -3.7288   -1.5781   -1.9503 F   0  0  0  0  0  0  0  0  0  0  0  0
   -7.3287    0.7326    0.0706 F   0  0  0  0  0  0  0  0  0  0  0  0
    0.2736   -0.6104    0.3385 O   0  0  0  0  0  0  0  0  0  0  0  0
   -1.0323    0.7028    1.6798 O   0  0  0  0  0  0  0  0  0  0  0  0
    3.8624   -0.7421    1.3084 N   0  0  2  0  0  0  0  0  0  0  0  0
   -1.9304   -0.5101   -0.1097 N   0  0  0  0  0  0  0  0  0  0  0  0
    4.3671   -0.3506   -1.2145 C   0  0  1  0  0  0  0  0  0  0  0  0
    2.6308   -0.9623    0.5037 C   0  0  2  0  0  0  0  0  0  0  0  0
    2.8600   -0.5744   -0.9738 C   0  0  0  0  0  0  0  0  0  0  0  0
    4.8405    0.8481   -0.3636 C   0  0  2  0  0  0  0  0  0  0  0  0
    5.1057   -1.5942   -0.6852 C   0  0  0  0  0  0  0  0  0  0  0  0
    4.3775    0.6335    1.0937 C   0  0  0  0  0  0  0  0  0  0  0  0
    4.8924   -1.7001    0.8359 C   0  0  0  0  0  0  0  0  0  0  0  0
    1.4125   -0.2511    1.0965 C   0  0  0  0  0  0  0  0  0  0  0  0
    4.3574    2.1309   -0.9003 C   0  0  0  0  0  0  0  0  0  0  0  0
    3.9635    3.1767   -1.3384 C   0  0  0  0  0  0  0  0  0  0  0  0
   -0.9280   -0.0613    0.7281 C   0  0  0  0  0  0  0  0  0  0  0  0
   -3.3074   -0.1949   -0.0659 C   0  0  0  0  0  0  0  0  0  0  0  0
   -4.1823   -0.7462   -1.0019 C   0  0  0  0  0  0  0  0  0  0  0  0
   -3.7911    0.6698    0.9161 C   0  0  0  0  0  0  0  0  0  0  0  0
   -5.5408   -0.4331   -0.9560 C   0  0  0  0  0  0  0  0  0  0  0  0
   -5.1495    0.9830    0.9622 C   0  0  0  0  0  0  0  0  0  0  0  0
   -6.0243    0.4315    0.0260 C   0  0  0  0  0  0  0  0  0  0  0  0
    4.5704   -0.2009   -2.2806 H   0  0  0  0  0  0  0  0  0  0  0  0
    2.3931   -2.0361    0.5285 H   0  0  0  0  0  0  0  0  0  0  0  0
    2.2977    0.3249   -1.2507 H   0  0  0  0  0  0  0  0  0  0  0  0
    2.5017   -1.3839   -1.6222 H   0  0  0  0  0  0  0  0  0  0  0  0
    5.9390    0.8727   -0.3821 H   0  0  0  0  0  0  0  0  0  0  0  0
    6.1772   -1.5254   -0.9067 H   0  0  0  0  0  0  0  0  0  0  0  0
    4.7271   -2.4949   -1.1833 H   0  0  0  0  0  0  0  0  0  0  0  0
    5.2292    0.7984    1.7675 H   0  0  0  0  0  0  0  0  0  0  0  0
    3.6322    1.3733    1.4083 H   0  0  0  0  0  0  0  0  0  0  0  0
    4.5998   -2.7237    1.1007 H   0  0  0  0  0  0  0  0  0  0  0  0
    5.8372   -1.5196    1.3642 H   0  0  0  0  0  0  0  0  0  0  0  0
    1.5309    0.8377    1.0670 H   0  0  0  0  0  0  0  0  0  0  0  0
    1.2697   -0.5635    2.1382 H   0  0  0  0  0  0  0  0  0  0  0  0
    3.6135    4.1043   -1.7270 H   0  0  0  0  0  0  0  0  0  0  0  0
   -1.6482   -1.1462   -0.8515 H   0  0  0  0  0  0  0  0  0  0  0  0
   -3.1757    1.1349    1.6735 H   0  0  0  0  0  0  0  0  0  0  0  0
   -6.2220   -0.8623   -1.6847 H   0  0  0  0  0  0  0  0  0  0  0  0
   -5.5277    1.6561    1.7261 H   0  0  0  0  0  0  0  0  0  0  0  0
  1 19  1  0  0  0  0
  2 23  1  0  0  0  0
  3 14  1  0  0  0  0
  3 17  1  0  0  0  0
  4 17  2  0  0  0  0
  5  8  1  0  0  0  0
  5 12  1  0  0  0  0
  5 13  1  0  0  0  0
  6 17  1  0  0  0  0
  6 18  1  0  0  0  0
  6 38  1  0  0  0  0
  7  9  1  0  0  0  0
  7 10  1  0  0  0  0
  7 11  1  0  0  0  0
  7 24  1  0  0  0  0
  8  9  1  0  0  0  0
  8 14  1  0  0  0  0
  8 25  1  0  0  0  0
  9 26  1  0  0  0  0
  9 27  1  0  0  0  0
 10 12  1  0  0  0  0
 10 15  1  0  0  0  0
 10 28  1  0  0  0  0
 11 13  1  0  0  0  0
 11 29  1  0  0  0  0
 11 30  1  0  0  0  0
 12 31  1  0  0  0  0
 12 32  1  0  0  0  0
 13 33  1  0  0  0  0
 13 34  1  0  0  0  0
 14 35  1  0  0  0  0
 14 36  1  0  0  0  0
 15 16  3  0  0  0  0
 16 37  1  0  0  0  0
 18 19  2  0  0  0  0
 18 20  1  0  0  0  0
 19 21  1  0  0  0  0
 20 22  2  0  0  0  0
 20 39  1  0  0  0  0
 21 23  2  0  0  0  0
 21 40  1  0  0  0  0
 22 23  1  0  0  0  0
 22 41  1  0  0  0  0
M  END
> <PUBCHEM_COMPOUND_CID>
26742338

> <PUBCHEM_CONFORMER_RMSD>
0.8

> <PUBCHEM_CONFORMER_DIVERSEORDER>
1
122
14
133
7
54
115
126
96
85
33
119
27
82
131
35
101
99
5
113
9
117
127
31
77
50
124
86
37
57
110
32
83
111
103
116
47
52
49
134
112
40
62
88
51
68
135
21
13
44
43
120
129
2
46
67
109
74
84
17
108
121
91
10
95
45
130
72
75
61
81
38
123
100
79
106
30
98
107
89
25
42
128
64
6
125
24
114
66
90
3
41
4
55
12
36
53
23
56
22
20
102
76
16
78
26
71
65
34
73
94
28
48
63
132
11
118
87
69
93
8
59
39
97
18
58
19
60
29
92
15
70
105
80
104

> <PUBCHEM_MMFF94_PARTIAL_CHARGES>
25
1 -0.19
10 0.2
12 0.27
13 0.27
14 0.28
15 -0.2
16 -0.18
17 0.78
18 0.12
19 0.19
2 -0.19
20 -0.15
21 -0.15
22 -0.15
23 0.19
3 -0.43
37 0.18
38 0.37
39 0.15
4 -0.57
40 0.15
41 0.15
5 -0.81
6 -0.55
8 0.27

> <PUBCHEM_EFFECTIVE_ROTOR_COUNT>
6.2

> <PUBCHEM_PHARMACOPHORE_FEATURES>
6
1 16 hydrophobe
1 4 acceptor
1 5 cation
1 6 donor
6 18 19 20 21 22 23 rings
8 5 7 8 9 10 11 12 13 rings

> <PUBCHEM_HEAVY_ATOM_COUNT>
23

> <PUBCHEM_ATOM_DEF_STEREO_COUNT>
3

> <PUBCHEM_ATOM_UDEF_STEREO_COUNT>
0

> <PUBCHEM_BOND_DEF_STEREO_COUNT>
0

> <PUBCHEM_BOND_UDEF_STEREO_COUNT>
0

> <PUBCHEM_ISOTOPIC_ATOM_COUNT>
0

> <PUBCHEM_COMPONENT_COUNT>
1

> <PUBCHEM_CACTVS_TAUTO_COUNT>
2

> <PUBCHEM_CONFORMER_ID>
01980E4200000001

> <PUBCHEM_MMFF94_ENERGY>
55.6206

> <PUBCHEM_FEATURE_SELFOVERLAP>
30.446

> <PUBCHEM_SHAPE_FINGERPRINT>
10638233 991 18335140903924151765
11128504 68 18409450297163321953
11796584 16 15267338535405091599
12166972 35 18341050723209919736
12236239 1 18412262835570962231
12403259 415 16370441150645066774
12516196 113 14117792518747810547
12616971 3 18409163311754276079
12730499 353 17022907822020341330
12916748 109 13912323464881427175
13533116 47 17095518453290273562
13955234 65 17313654967566628642
14211702 104 11023815215643248389
14528608 73 18408042935249086116
15183329 4 16845577504655936803
15799311 1 16773251646713163999
17844677 252 18187365389635416557
20157964 124 18260550039200462368
20567600 75 12967137086188885369
21033648 144 17895472634688025390
21033648 29 16081079398809035551
21065198 48 8574438629258791647
21315764 119 17488759882101983396
221357 26 18041282076257421356
2303208 19 15626226853225841463
23081809 10 18202565077390907939
23522609 53 17916330332156063017
23559900 14 16629945721107823915
29717793 49 18271811198632228822
3004659 81 18059859437515659486
34797466 226 18409455799301278085
3545911 37 15936413316505362914
4325135 7 18272089396311645660
44317340 157 18335989760901427889
495365 180 17167860890002318626
542803 24 18410011026940586587
633830 44 18335141998723957474
960060 61 18201442501709774064

> <PUBCHEM_SHAPE_MULTIPOLES>
437.08
17.48
1.93
1.48
18.86
1.61
0.12
2.11
2.36
-3.95
0.6
0.18
-0.15
-1.75

> <PUBCHEM_SHAPE_SELFOVERLAP>
930.715

> <PUBCHEM_SHAPE_VOLUME>
242.2

> <PUBCHEM_COORDINATE_TYPE>
2
5
10

$$$$
