45783320
  -OEChem-12032416203D

 64 68  0     1  0  0  0  0  0999 V2000
   -3.4216    2.0854    1.1438 O   0  0  0  0  0  0  0  0  0  0  0  0
    7.0277   -0.4412    0.3540 O   0  0  0  0  0  0  0  0  0  0  0  0
   -1.5268   -2.3552   -0.9188 O   0  0  0  0  0  0  0  0  0  0  0  0
   -3.8550   -1.5345    0.6812 N   0  0  1  0  0  0  0  0  0  0  0  0
    3.2161    0.4493   -0.0118 N   0  0  0  0  0  0  0  0  0  0  0  0
   -1.7713    0.5933    0.8849 N   0  0  0  0  0  0  0  0  0  0  0  0
   -2.2571    2.8287    0.9135 N   0  0  0  0  0  0  0  0  0  0  0  0
    2.7382    2.7681    0.0114 N   0  0  0  0  0  0  0  0  0  0  0  0
    6.5823   -2.3393    1.5757 N   0  0  0  0  0  0  0  0  0  0  0  0
   -4.1420   -0.2423    1.3354 C   0  0  1  0  0  0  0  0  0  0  0  0
   -4.3338   -0.5911    2.8229 C   0  0  0  0  0  0  0  0  0  0  0  0
   -4.1974   -2.1052    2.8972 C   0  0  0  0  0  0  0  0  0  0  0  0
   -4.5148   -2.5616    1.4875 C   0  0  0  0  0  0  0  0  0  0  0  0
    5.1083   -1.7414   -0.2344 C   0  0  0  0  0  0  0  0  0  0  0  0
   -4.2757   -1.5783   -0.7133 C   0  0  0  0  0  0  0  0  0  0  0  0
    4.9106   -0.7286   -1.3601 C   0  0  0  0  0  0  0  0  0  0  0  0
    3.8719   -1.8275    0.6582 C   0  0  0  0  0  0  0  0  0  0  0  0
   -3.0472    0.7796    1.1111 C   0  0  0  0  0  0  0  0  0  0  0  0
    4.3861    0.6252   -0.8766 C   0  0  0  0  0  0  0  0  0  0  0  0
    3.3839   -0.4581    1.1300 C   0  0  0  0  0  0  0  0  0  0  0  0
   -3.2894   -0.8889   -1.6183 C   0  0  0  0  0  0  0  0  0  0  0  0
    2.2962    1.4955    0.1255 C   0  0  0  0  0  0  0  0  0  0  0  0
    6.3271   -1.4244    0.5817 C   0  0  0  0  0  0  0  0  0  0  0  0
   -1.3281    1.8788    0.7704 C   0  0  0  0  0  0  0  0  0  0  0  0
    0.9771    1.1519    0.3737 C   0  0  0  0  0  0  0  0  0  0  0  0
    0.0519    2.1805    0.5140 C   0  0  0  0  0  0  0  0  0  0  0  0
   -1.9613   -1.3104   -1.6780 C   0  0  0  0  0  0  0  0  0  0  0  0
   -3.7169    0.1828   -2.4022 C   0  0  0  0  0  0  0  0  0  0  0  0
    0.4684    3.5025    0.4034 C   0  0  0  0  0  0  0  0  0  0  0  0
   -1.0604   -0.6604   -2.5216 C   0  0  0  0  0  0  0  0  0  0  0  0
    1.8103    3.7410    0.1538 C   0  0  0  0  0  0  0  0  0  0  0  0
   -2.8161    0.8330   -3.2457 C   0  0  0  0  0  0  0  0  0  0  0  0
   -1.4879    0.4114   -3.3055 C   0  0  0  0  0  0  0  0  0  0  0  0
   -0.1532   -2.7186   -1.0429 C   0  0  0  0  0  0  0  0  0  0  0  0
   -5.0889    0.1781    0.9683 H   0  0  0  0  0  0  0  0  0  0  0  0
   -3.6139   -0.1025    3.4885 H   0  0  0  0  0  0  0  0  0  0  0  0
   -5.3410   -0.2976    3.1433 H   0  0  0  0  0  0  0  0  0  0  0  0
   -4.8673   -2.5450    3.6418 H   0  0  0  0  0  0  0  0  0  0  0  0
   -3.1676   -2.3739    3.1636 H   0  0  0  0  0  0  0  0  0  0  0  0
   -5.6002   -2.5714    1.3260 H   0  0  0  0  0  0  0  0  0  0  0  0
   -4.1155   -3.5610    1.2890 H   0  0  0  0  0  0  0  0  0  0  0  0
    5.2860   -2.7266   -0.6865 H   0  0  0  0  0  0  0  0  0  0  0  0
   -4.3273   -2.6214   -1.0564 H   0  0  0  0  0  0  0  0  0  0  0  0
   -5.2906   -1.1795   -0.8426 H   0  0  0  0  0  0  0  0  0  0  0  0
    5.8365   -0.5810   -1.9290 H   0  0  0  0  0  0  0  0  0  0  0  0
    4.1788   -1.1447   -2.0660 H   0  0  0  0  0  0  0  0  0  0  0  0
    3.0662   -2.2935    0.0745 H   0  0  0  0  0  0  0  0  0  0  0  0
    4.0221   -2.4738    1.5290 H   0  0  0  0  0  0  0  0  0  0  0  0
    4.1213    1.2188   -1.7608 H   0  0  0  0  0  0  0  0  0  0  0  0
    5.1626    1.1792   -0.3371 H   0  0  0  0  0  0  0  0  0  0  0  0
    4.1018   -0.0211    1.8353 H   0  0  0  0  0  0  0  0  0  0  0  0
    2.4505   -0.6067    1.6850 H   0  0  0  0  0  0  0  0  0  0  0  0
    0.6748    0.1124    0.4438 H   0  0  0  0  0  0  0  0  0  0  0  0
   -4.7478    0.5245   -2.3651 H   0  0  0  0  0  0  0  0  0  0  0  0
    7.3803   -2.2248    2.1919 H   0  0  0  0  0  0  0  0  0  0  0  0
    6.0285   -3.1789    1.7094 H   0  0  0  0  0  0  0  0  0  0  0  0
   -0.2074    4.3454    0.5030 H   0  0  0  0  0  0  0  0  0  0  0  0
   -0.0147   -0.9305   -2.6195 H   0  0  0  0  0  0  0  0  0  0  0  0
    2.1864    4.7543    0.0585 H   0  0  0  0  0  0  0  0  0  0  0  0
   -3.1485    1.6684   -3.8548 H   0  0  0  0  0  0  0  0  0  0  0  0
   -0.7869    0.9194   -3.9615 H   0  0  0  0  0  0  0  0  0  0  0  0
    0.0797   -3.0730   -2.0528 H   0  0  0  0  0  0  0  0  0  0  0  0
    0.5136   -1.9131   -0.7220 H   0  0  0  0  0  0  0  0  0  0  0  0
    0.0191   -3.5603   -0.3640 H   0  0  0  0  0  0  0  0  0  0  0  0
  1  7  1  0  0  0  0
  1 18  1  0  0  0  0
  2 23  2  0  0  0  0
  3 27  1  0  0  0  0
  3 34  1  0  0  0  0
  4 10  1  0  0  0  0
  4 13  1  0  0  0  0
  4 15  1  0  0  0  0
  5 19  1  0  0  0  0
  5 20  1  0  0  0  0
  5 22  1  0  0  0  0
  6 18  2  0  0  0  0
  6 24  1  0  0  0  0
  7 24  2  0  0  0  0
  8 22  2  0  0  0  0
  8 31  1  0  0  0  0
  9 23  1  0  0  0  0
  9 55  1  0  0  0  0
  9 56  1  0  0  0  0
 10 11  1  0  0  0  0
 10 18  1  0  0  0  0
 10 35  1  0  0  0  0
 11 12  1  0  0  0  0
 11 36  1  0  0  0  0
 11 37  1  0  0  0  0
 12 13  1  0  0  0  0
 12 38  1  0  0  0  0
 12 39  1  0  0  0  0
 13 40  1  0  0  0  0
 13 41  1  0  0  0  0
 14 16  1  0  0  0  0
 14 17  1  0  0  0  0
 14 23  1  0  0  0  0
 14 42  1  0  0  0  0
 15 21  1  0  0  0  0
 15 43  1  0  0  0  0
 15 44  1  0  0  0  0
 16 19  1  0  0  0  0
 16 45  1  0  0  0  0
 16 46  1  0  0  0  0
 17 20  1  0  0  0  0
 17 47  1  0  0  0  0
 17 48  1  0  0  0  0
 19 49  1  0  0  0  0
 19 50  1  0  0  0  0
 20 51  1  0  0  0  0
 20 52  1  0  0  0  0
 21 27  1  0  0  0  0
 21 28  2  0  0  0  0
 22 25  1  0  0  0  0
 24 26  1  0  0  0  0
 25 26  2  0  0  0  0
 25 53  1  0  0  0  0
 26 29  1  0  0  0  0
 27 30  2  0  0  0  0
 28 32  1  0  0  0  0
 28 54  1  0  0  0  0
 29 31  2  0  0  0  0
 29 57  1  0  0  0  0
 30 33  1  0  0  0  0
 30 58  1  0  0  0  0
 31 59  1  0  0  0  0
 32 33  2  0  0  0  0
 32 60  1  0  0  0  0
 33 61  1  0  0  0  0
 34 62  1  0  0  0  0
 34 63  1  0  0  0  0
 34 64  1  0  0  0  0
M  END
> <PUBCHEM_COMPOUND_CID>
45783320

> <PUBCHEM_CONFORMER_RMSD>
1

> <PUBCHEM_CONFORMER_DIVERSEORDER>
1
255
86
163
189
28
109
161
53
94
170
118
257
71
137
192
251
147
34
235
103
221
200
70
205
123
65
18
175
63
250
243
97
135
8
166
173
78
246
133
59
56
188
79
247
104
15
254
179
132
228
126
184
67
11
54
182
232
122
233
83
194
219
91
225
13
216
128
212
62
7
115
187
191
69
165
153
82
206
72
120
155
89
129
110
24
84
74
121
154
249
29
177
245
169
185
197
172
57
117
239
14
102
87
210
223
141
101
64
224
68
171
127
160
167
130
3
220
241
100
41
215
256
240
88
112
44
138
134
158
5
208
202
198
75
49
61
90
214
52
229
58
66
231
190
81
32
136
248
258
176
107
92
204
33
196
199
259
174
80
140
211
150
149
85
201
238
95
146
217
17
236
9
105
193
60
131
222
253
76
168
226
203
242
106
252
38
39
42
36
20
55
45
244
113
151
139
162
227
43
156
237
148
142
145
2
108
152
157
77
213
50
12
46
124
73
26
6
27
230
181
21
99
4
47
183
22
209
125
144
93
234
98
143
31
178
96
207
40
48
111
195
186
35
51
116
23
164
30
218
37
159
180
16
114
19
10
119
25

> <PUBCHEM_MMFF94_PARTIAL_CHARGES>
39
1 -0.02
10 0.45
13 0.27
14 0.06
15 0.41
18 0.3
19 0.37
2 -0.57
20 0.37
21 -0.14
22 0.41
23 0.57
24 0.46
25 -0.15
26 0.05
27 0.08
28 -0.15
29 -0.15
3 -0.36
30 -0.15
31 0.16
32 -0.15
33 -0.15
34 0.28
4 -0.81
5 -0.84
53 0.15
54 0.15
55 0.37
56 0.37
57 0.15
58 0.15
59 0.15
6 -0.57
60 0.15
61 0.15
7 -0.41
8 -0.62
9 -0.8

> <PUBCHEM_EFFECTIVE_ROTOR_COUNT>
9.2

> <PUBCHEM_PHARMACOPHORE_FEATURES>
11
1 2 acceptor
1 3 acceptor
1 4 cation
1 9 donor
3 5 8 22 cation
3 6 7 24 cation
5 1 6 7 18 24 rings
5 4 10 11 12 13 rings
6 21 27 28 30 32 33 rings
6 5 14 16 17 19 20 rings
6 8 22 25 26 29 31 rings

> <PUBCHEM_HEAVY_ATOM_COUNT>
34

> <PUBCHEM_ATOM_DEF_STEREO_COUNT>
1

> <PUBCHEM_ATOM_UDEF_STEREO_COUNT>
0

> <PUBCHEM_BOND_DEF_STEREO_COUNT>
0

> <PUBCHEM_BOND_UDEF_STEREO_COUNT>
0

> <PUBCHEM_ISOTOPIC_ATOM_COUNT>
0

> <PUBCHEM_COMPONENT_COUNT>
1

> <PUBCHEM_CACTVS_TAUTO_COUNT>
2

> <PUBCHEM_CONFORMER_ID>
02BA991800000001

> <PUBCHEM_MMFF94_ENERGY>
94.4491

> <PUBCHEM_FEATURE_SELFOVERLAP>
55.823

> <PUBCHEM_SHAPE_FINGERPRINT>
10622 236 17629750438958546743
11135926 11 18196087974978591020
11445158 3 18263374735922033740
11578080 2 16879915132574501359
11607047 141 16084220807642704291
11828532 37 15050299416208048583
12422481 6 17345494637936402679
12553582 1 18342739607376960004
12633257 1 18130239262403050895
131258 38 17194316458195624107
13782708 43 17385726915601647658
14910302 57 17458339783990209113
14950920 106 18337964505334051347
15274700 147 11951765684703785274
16110190 28 18131358518253773824
17809404 112 18049966095822752554
19319366 153 17691419923766532965
20554085 129 15410077079668496787
208703 8 18411985754377866258
21033650 10 15719385118603551036
21796203 349 18055103023196618872
21987440 362 15622604889682287371
392239 28 18268729336423229563
469060 322 18202274775776655167
484985 159 18412535505923096007
5951187 136 11956966215424682979
6431902 208 18408886213908597938
7064713 232 16486992690704433141

> <PUBCHEM_SHAPE_MULTIPOLES>
652.21
13.15
3.71
2.9
19.69
2.12
-1.57
-10.03
4.63
0.85
1.33
-4.77
-0.71
0.38

> <PUBCHEM_SHAPE_SELFOVERLAP>
1413.936

> <PUBCHEM_SHAPE_VOLUME>
355.5

> <PUBCHEM_COORDINATE_TYPE>
2
5
10

$$$$
