45783833
  -OEChem-12032416273D

 53 57  0     1  0  0  0  0  0999 V2000
   -1.0861    3.6235   -0.4248 O   0  0  0  0  0  0  0  0  0  0  0  0
   -3.1858    0.6026    0.1574 N   0  0  1  0  0  0  0  0  0  0  0  0
    3.8728   -1.1492    0.2392 N   0  0  0  0  0  0  0  0  0  0  0  0
   -0.4089    1.5129   -0.1030 N   0  0  0  0  0  0  0  0  0  0  0  0
    0.3139    3.6545   -0.4563 N   0  0  0  0  0  0  0  0  0  0  0  0
    4.6496    1.0377   -0.1239 N   0  0  0  0  0  0  0  0  0  0  0  0
   -2.9108    2.0232   -0.1368 C   0  0  1  0  0  0  0  0  0  0  0  0
   -3.6198    2.8000    0.9880 C   0  0  0  0  0  0  0  0  0  0  0  0
   -4.3147    1.7378    1.8279 C   0  0  0  0  0  0  0  0  0  0  0  0
   -4.4600    0.5683    0.8754 C   0  0  0  0  0  0  0  0  0  0  0  0
   -3.2044   -0.2374   -1.0332 C   0  0  0  0  0  0  0  0  0  0  0  0
   -1.4290    2.3259   -0.2122 C   0  0  0  0  0  0  0  0  0  0  0  0
    4.9858   -3.1313    0.8412 C   0  0  0  0  0  0  0  0  0  0  0  0
    3.6090   -3.4850    0.3065 C   0  0  0  0  0  0  0  0  0  0  0  0
    5.2155   -1.7211    0.3028 C   0  0  0  0  0  0  0  0  0  0  0  0
    2.8431   -2.1691    0.4222 C   0  0  0  0  0  0  0  0  0  0  0  0
   -2.9924   -1.6898   -0.6980 C   0  0  0  0  0  0  0  0  0  0  0  0
    3.6098    0.1877    0.0310 C   0  0  0  0  0  0  0  0  0  0  0  0
    0.6386    2.3733   -0.2595 C   0  0  0  0  0  0  0  0  0  0  0  0
    1.9988    1.9204   -0.2124 C   0  0  0  0  0  0  0  0  0  0  0  0
    2.2798    0.5746   -0.0046 C   0  0  0  0  0  0  0  0  0  0  0  0
   -1.7013   -2.2168   -0.6646 C   0  0  0  0  0  0  0  0  0  0  0  0
   -4.0872   -2.5085   -0.4209 C   0  0  0  0  0  0  0  0  0  0  0  0
    3.0418    2.8255   -0.3759 C   0  0  0  0  0  0  0  0  0  0  0  0
   -1.5050   -3.5625   -0.3542 C   0  0  0  0  0  0  0  0  0  0  0  0
   -3.8909   -3.8541   -0.1105 C   0  0  0  0  0  0  0  0  0  0  0  0
    4.3377    2.3379   -0.3238 C   0  0  0  0  0  0  0  0  0  0  0  0
   -2.5999   -4.3811   -0.0771 C   0  0  0  0  0  0  0  0  0  0  0  0
   -3.3678    2.3155   -1.0927 H   0  0  0  0  0  0  0  0  0  0  0  0
   -2.9469    3.4020    1.6082 H   0  0  0  0  0  0  0  0  0  0  0  0
   -4.3697    3.4728    0.5543 H   0  0  0  0  0  0  0  0  0  0  0  0
   -5.2764    2.0833    2.2185 H   0  0  0  0  0  0  0  0  0  0  0  0
   -3.6801    1.4618    2.6793 H   0  0  0  0  0  0  0  0  0  0  0  0
   -4.6097   -0.3623    1.4303 H   0  0  0  0  0  0  0  0  0  0  0  0
   -5.3162    0.7311    0.2086 H   0  0  0  0  0  0  0  0  0  0  0  0
   -2.3983    0.0567   -1.7195 H   0  0  0  0  0  0  0  0  0  0  0  0
   -4.1273   -0.1087   -1.6153 H   0  0  0  0  0  0  0  0  0  0  0  0
    5.7613   -3.8328    0.5215 H   0  0  0  0  0  0  0  0  0  0  0  0
    4.9672   -3.1161    1.9377 H   0  0  0  0  0  0  0  0  0  0  0  0
    3.1313   -4.2974    0.8612 H   0  0  0  0  0  0  0  0  0  0  0  0
    3.6841   -3.7857   -0.7457 H   0  0  0  0  0  0  0  0  0  0  0  0
    5.8791   -1.1579    0.9675 H   0  0  0  0  0  0  0  0  0  0  0  0
    5.6548   -1.7539   -0.7006 H   0  0  0  0  0  0  0  0  0  0  0  0
    2.0655   -2.1437   -0.3490 H   0  0  0  0  0  0  0  0  0  0  0  0
    2.3848   -2.0748    1.4133 H   0  0  0  0  0  0  0  0  0  0  0  0
    1.4640   -0.1255    0.1345 H   0  0  0  0  0  0  0  0  0  0  0  0
   -0.8391   -1.5897   -0.8759 H   0  0  0  0  0  0  0  0  0  0  0  0
   -5.0990   -2.1132   -0.4491 H   0  0  0  0  0  0  0  0  0  0  0  0
    2.8837    3.8861   -0.5411 H   0  0  0  0  0  0  0  0  0  0  0  0
   -0.4995   -3.9722   -0.3273 H   0  0  0  0  0  0  0  0  0  0  0  0
   -4.7434   -4.4919    0.1040 H   0  0  0  0  0  0  0  0  0  0  0  0
    5.1868    3.0024   -0.4455 H   0  0  0  0  0  0  0  0  0  0  0  0
   -2.4471   -5.4289    0.1645 H   0  0  0  0  0  0  0  0  0  0  0  0
  1  5  1  0  0  0  0
  1 12  1  0  0  0  0
  2  7  1  0  0  0  0
  2 10  1  0  0  0  0
  2 11  1  0  0  0  0
  3 15  1  0  0  0  0
  3 16  1  0  0  0  0
  3 18  1  0  0  0  0
  4 12  2  0  0  0  0
  4 19  1  0  0  0  0
  5 19  2  0  0  0  0
  6 18  2  0  0  0  0
  6 27  1  0  0  0  0
  7  8  1  0  0  0  0
  7 12  1  0  0  0  0
  7 29  1  0  0  0  0
  8  9  1  0  0  0  0
  8 30  1  0  0  0  0
  8 31  1  0  0  0  0
  9 10  1  0  0  0  0
  9 32  1  0  0  0  0
  9 33  1  0  0  0  0
 10 34  1  0  0  0  0
 10 35  1  0  0  0  0
 11 17  1  0  0  0  0
 11 36  1  0  0  0  0
 11 37  1  0  0  0  0
 13 14  1  0  0  0  0
 13 15  1  0  0  0  0
 13 38  1  0  0  0  0
 13 39  1  0  0  0  0
 14 16  1  0  0  0  0
 14 40  1  0  0  0  0
 14 41  1  0  0  0  0
 15 42  1  0  0  0  0
 15 43  1  0  0  0  0
 16 44  1  0  0  0  0
 16 45  1  0  0  0  0
 17 22  2  0  0  0  0
 17 23  1  0  0  0  0
 18 21  1  0  0  0  0
 19 20  1  0  0  0  0
 20 21  2  0  0  0  0
 20 24  1  0  0  0  0
 21 46  1  0  0  0  0
 22 25  1  0  0  0  0
 22 47  1  0  0  0  0
 23 26  2  0  0  0  0
 23 48  1  0  0  0  0
 24 27  2  0  0  0  0
 24 49  1  0  0  0  0
 25 28  2  0  0  0  0
 25 50  1  0  0  0  0
 26 28  1  0  0  0  0
 26 51  1  0  0  0  0
 27 52  1  0  0  0  0
 28 53  1  0  0  0  0
M  END
> <PUBCHEM_COMPOUND_CID>
45783833

> <PUBCHEM_CONFORMER_RMSD>
0.8

> <PUBCHEM_CONFORMER_DIVERSEORDER>
1
17
9
64
66
68
67
32
72
3
27
47
43
8
40
7
37
63
45
28
20
59
6
52
38
70
15
18
42
60
14
58
48
54
29
33
46
34
12
71
57
2
23
19
53
13
49
69
73
31
5
50
10
35
21
65
62
61
16
26
11
22
41
36
51
30
25
39
44
24
56
4
55

> <PUBCHEM_MMFF94_PARTIAL_CHARGES>
32
1 -0.02
10 0.27
11 0.41
12 0.3
15 0.37
16 0.37
17 -0.14
18 0.41
19 0.46
2 -0.81
20 0.05
21 -0.15
22 -0.15
23 -0.15
24 -0.15
25 -0.15
26 -0.15
27 0.16
28 -0.15
3 -0.84
4 -0.57
46 0.15
47 0.15
48 0.15
49 0.15
5 -0.41
50 0.15
51 0.15
52 0.15
53 0.15
6 -0.62
7 0.45

> <PUBCHEM_EFFECTIVE_ROTOR_COUNT>
7

> <PUBCHEM_PHARMACOPHORE_FEATURES>
8
1 2 cation
3 3 6 18 cation
3 4 5 19 cation
5 1 4 5 12 19 rings
5 2 7 8 9 10 rings
5 3 13 14 15 16 rings
6 17 22 23 25 26 28 rings
6 6 18 20 21 24 27 rings

> <PUBCHEM_HEAVY_ATOM_COUNT>
28

> <PUBCHEM_ATOM_DEF_STEREO_COUNT>
1

> <PUBCHEM_ATOM_UDEF_STEREO_COUNT>
0

> <PUBCHEM_BOND_DEF_STEREO_COUNT>
0

> <PUBCHEM_BOND_UDEF_STEREO_COUNT>
0

> <PUBCHEM_ISOTOPIC_ATOM_COUNT>
0

> <PUBCHEM_COMPONENT_COUNT>
1

> <PUBCHEM_CACTVS_TAUTO_COUNT>
1

> <PUBCHEM_CONFORMER_ID>
02BA9B1900000001

> <PUBCHEM_MMFF94_ENERGY>
68.716

> <PUBCHEM_FEATURE_SELFOVERLAP>
40.6

> <PUBCHEM_SHAPE_FINGERPRINT>
10616163 171 18341051929515221220
10622 236 18128515215502184879
1100329 8 18338796693606619914
11014199 57 18338231664894802418
11135926 11 18335136536032134924
11136131 41 18188758575049317714
11186622 123 18410296947525083486
11513181 2 18060703896521149006
11552529 35 18200879585979240025
12107183 9 18267869380310379082
12633257 1 18270121201688558462
12969540 37 18121773095646684356
12978246 48 18121497960173051730
13631057 29 18125442170459551484
14117953 113 17907576930464574940
14866123 147 18340484448635611619
15250474 111 18410853295823334348
15320467 1 17977664539206029126
15403338 16 16448125835331470659
15537594 2 18335718134337721332
16110190 28 18340206276599040754
16628084 112 18410566302515619591
16728300 4 17174892025769427611
17492 89 18409726309206129754
19319366 153 16898211435447135197
19930381 70 17688585387359198787
21133410 171 17477428457233212006
21344244 246 17184166363991135773
21796203 349 17905364782390379456
229767 44 18196372511512083731
3246872 21 17979632669351496022
338550 245 18262523572525622366
3882209 13 17906688740092847398
463206 1 18409452466601841664
5309563 4 17691690408264688087
56633871 153 18411423891040335611
6433294 58 18411417298212684590

> <PUBCHEM_SHAPE_MULTIPOLES>
545.45
11.37
6.54
0.95
6.67
3.28
-0.24
4.83
-2.24
-1.71
0.13
-0.8
-0.2
-2.68

> <PUBCHEM_SHAPE_SELFOVERLAP>
1188.699

> <PUBCHEM_SHAPE_VOLUME>
299.7

> <PUBCHEM_COORDINATE_TYPE>
2
5
10

$$$$
