45361209
  -OEChem-12032416293D

 67 70  0     1  0  0  0  0  0999 V2000
    0.7782   -0.6993    1.0301 O   0  0  0  0  0  0  0  0  0  0  0  0
   -5.3143    1.5638   -0.0025 O   0  0  0  0  0  0  0  0  0  0  0  0
   -5.6162   -4.4775    0.6167 O   0  0  0  0  0  0  0  0  0  0  0  0
   -0.5602    2.5340   -0.6264 N   0  0  1  0  0  0  0  0  0  0  0  0
    2.6720    0.9560    0.0472 N   0  0  1  0  0  0  0  0  0  0  0  0
   -0.5739    0.9774    1.8026 N   0  0  0  0  0  0  0  0  0  0  0  0
   -4.7008   -0.5950   -0.6036 N   0  0  0  0  0  0  0  0  0  0  0  0
    0.9019    2.5556   -0.3996 C   0  0  1  0  0  0  0  0  0  0  0  0
    1.5000    1.5976    0.6721 C   0  0  1  0  0  0  0  0  0  0  0  0
    1.7331    2.2005   -1.6466 C   0  0  0  0  0  0  0  0  0  0  0  0
    3.0754    1.7989   -1.0727 C   0  0  0  0  0  0  0  0  0  0  0  0
   -1.3723    2.9583    0.5481 C   0  0  2  0  0  0  0  0  0  0  0  0
    0.5541    0.5033    1.1602 C   0  0  0  0  0  0  0  0  0  0  0  0
   -0.9063    2.3848    1.9006 C   0  0  0  0  0  0  0  0  0  0  0  0
   -2.8494    2.5543    0.3570 C   0  0  0  0  0  0  0  0  0  0  0  0
    3.7674    0.7215    0.9795 C   0  0  0  0  0  0  0  0  0  0  0  0
   -0.9183    3.3340   -1.8100 C   0  0  0  0  0  0  0  0  0  0  0  0
   -2.9909    1.1040   -0.0626 C   0  0  0  0  0  0  0  0  0  0  0  0
    4.7008   -0.3532    0.4888 C   0  0  0  0  0  0  0  0  0  0  0  0
   -4.4406    0.7200   -0.2189 C   0  0  0  0  0  0  0  0  0  0  0  0
   -3.6823   -1.6199   -0.8676 C   0  0  0  0  0  0  0  0  0  0  0  0
   -6.0826   -1.0306   -0.8210 C   0  0  0  0  0  0  0  0  0  0  0  0
   -3.9546   -2.8766   -0.0460 C   0  0  0  0  0  0  0  0  0  0  0  0
   -6.3970   -2.2750    0.0025 C   0  0  0  0  0  0  0  0  0  0  0  0
   -5.3796   -3.3855   -0.2637 C   0  0  0  0  0  0  0  0  0  0  0  0
    4.3290   -1.6946    0.5802 C   0  0  0  0  0  0  0  0  0  0  0  0
    5.9382   -0.0077   -0.0542 C   0  0  0  0  0  0  0  0  0  0  0  0
    5.1949   -2.6904    0.1283 C   0  0  0  0  0  0  0  0  0  0  0  0
    6.8041   -1.0036   -0.5060 C   0  0  0  0  0  0  0  0  0  0  0  0
    6.4323   -2.3450   -0.4149 C   0  0  0  0  0  0  0  0  0  0  0  0
    7.3580   -3.4102   -0.8975 C   0  0  0  0  0  0  0  0  0  0  0  0
    1.1903    3.5793   -0.1141 H   0  0  0  0  0  0  0  0  0  0  0  0
    1.8173    2.1935    1.5383 H   0  0  0  0  0  0  0  0  0  0  0  0
    1.2882    1.3562   -2.1901 H   0  0  0  0  0  0  0  0  0  0  0  0
    1.8337    3.0441   -2.3373 H   0  0  0  0  0  0  0  0  0  0  0  0
    3.6284    2.6896   -0.7487 H   0  0  0  0  0  0  0  0  0  0  0  0
    3.6737    1.2563   -1.8110 H   0  0  0  0  0  0  0  0  0  0  0  0
   -1.3348    4.0522    0.6461 H   0  0  0  0  0  0  0  0  0  0  0  0
   -1.6808    2.4824    2.6695 H   0  0  0  0  0  0  0  0  0  0  0  0
   -0.0370    2.9359    2.2732 H   0  0  0  0  0  0  0  0  0  0  0  0
   -3.3237    3.2057   -0.3874 H   0  0  0  0  0  0  0  0  0  0  0  0
   -3.4090    2.7385    1.2839 H   0  0  0  0  0  0  0  0  0  0  0  0
    3.3751    0.3753    1.9463 H   0  0  0  0  0  0  0  0  0  0  0  0
    4.3150    1.6450    1.2112 H   0  0  0  0  0  0  0  0  0  0  0  0
   -1.2045    0.3000    2.2202 H   0  0  0  0  0  0  0  0  0  0  0  0
   -0.6281    4.3841   -1.6913 H   0  0  0  0  0  0  0  0  0  0  0  0
   -0.4476    2.9428   -2.7173 H   0  0  0  0  0  0  0  0  0  0  0  0
   -1.9897    3.2988   -2.0257 H   0  0  0  0  0  0  0  0  0  0  0  0
   -2.5926    0.4289    0.6921 H   0  0  0  0  0  0  0  0  0  0  0  0
   -2.4958    0.9189   -1.0210 H   0  0  0  0  0  0  0  0  0  0  0  0
   -2.6716   -1.2661   -0.6586 H   0  0  0  0  0  0  0  0  0  0  0  0
   -3.7274   -1.8491   -1.9390 H   0  0  0  0  0  0  0  0  0  0  0  0
   -6.1944   -1.2403   -1.8913 H   0  0  0  0  0  0  0  0  0  0  0  0
   -6.7879   -0.2325   -0.5688 H   0  0  0  0  0  0  0  0  0  0  0  0
   -3.8014   -2.6639    1.0203 H   0  0  0  0  0  0  0  0  0  0  0  0
   -3.2343   -3.6622   -0.3031 H   0  0  0  0  0  0  0  0  0  0  0  0
   -6.3934   -2.0261    1.0719 H   0  0  0  0  0  0  0  0  0  0  0  0
   -7.4092   -2.6322   -0.2209 H   0  0  0  0  0  0  0  0  0  0  0  0
   -5.4851   -3.7526   -1.2916 H   0  0  0  0  0  0  0  0  0  0  0  0
    3.3690   -1.9777    1.0029 H   0  0  0  0  0  0  0  0  0  0  0  0
    6.2392    1.0336   -0.1324 H   0  0  0  0  0  0  0  0  0  0  0  0
    4.8935   -3.7318    0.2036 H   0  0  0  0  0  0  0  0  0  0  0  0
    7.7647   -0.7218   -0.9290 H   0  0  0  0  0  0  0  0  0  0  0  0
   -6.5274   -4.7823    0.4667 H   0  0  0  0  0  0  0  0  0  0  0  0
    7.1624   -3.6281   -1.9521 H   0  0  0  0  0  0  0  0  0  0  0  0
    8.4040   -3.1032   -0.7908 H   0  0  0  0  0  0  0  0  0  0  0  0
    7.2345   -4.3324   -0.3196 H   0  0  0  0  0  0  0  0  0  0  0  0
  1 13  2  0  0  0  0
  2 20  2  0  0  0  0
  3 25  1  0  0  0  0
  3 64  1  0  0  0  0
  4  8  1  0  0  0  0
  4 12  1  0  0  0  0
  4 17  1  0  0  0  0
  5  9  1  0  0  0  0
  5 11  1  0  0  0  0
  5 16  1  0  0  0  0
  6 13  1  0  0  0  0
  6 14  1  0  0  0  0
  6 45  1  0  0  0  0
  7 20  1  0  0  0  0
  7 21  1  0  0  0  0
  7 22  1  0  0  0  0
  8  9  1  0  0  0  0
  8 10  1  0  0  0  0
  8 32  1  0  0  0  0
  9 13  1  0  0  0  0
  9 33  1  0  0  0  0
 10 11  1  0  0  0  0
 10 34  1  0  0  0  0
 10 35  1  0  0  0  0
 11 36  1  0  0  0  0
 11 37  1  0  0  0  0
 12 14  1  0  0  0  0
 12 15  1  0  0  0  0
 12 38  1  0  0  0  0
 14 39  1  0  0  0  0
 14 40  1  0  0  0  0
 15 18  1  0  0  0  0
 15 41  1  0  0  0  0
 15 42  1  0  0  0  0
 16 19  1  0  0  0  0
 16 43  1  0  0  0  0
 16 44  1  0  0  0  0
 17 46  1  0  0  0  0
 17 47  1  0  0  0  0
 17 48  1  0  0  0  0
 18 20  1  0  0  0  0
 18 49  1  0  0  0  0
 18 50  1  0  0  0  0
 19 26  2  0  0  0  0
 19 27  1  0  0  0  0
 21 23  1  0  0  0  0
 21 51  1  0  0  0  0
 21 52  1  0  0  0  0
 22 24  1  0  0  0  0
 22 53  1  0  0  0  0
 22 54  1  0  0  0  0
 23 25  1  0  0  0  0
 23 55  1  0  0  0  0
 23 56  1  0  0  0  0
 24 25  1  0  0  0  0
 24 57  1  0  0  0  0
 24 58  1  0  0  0  0
 25 59  1  0  0  0  0
 26 28  1  0  0  0  0
 26 60  1  0  0  0  0
 27 29  2  0  0  0  0
 27 61  1  0  0  0  0
 28 30  2  0  0  0  0
 28 62  1  0  0  0  0
 29 30  1  0  0  0  0
 29 63  1  0  0  0  0
 30 31  1  0  0  0  0
 31 65  1  0  0  0  0
 31 66  1  0  0  0  0
 31 67  1  0  0  0  0
M  END
> <PUBCHEM_COMPOUND_CID>
45361209

> <PUBCHEM_CONFORMER_RMSD>
1

> <PUBCHEM_CONFORMER_DIVERSEORDER>
1
54
164
140
143
137
199
37
160
25
66
8
248
186
235
132
109
187
221
222
219
92
245
112
157
48
167
216
68
105
51
168
3
177
174
256
215
220
59
170
28
93
115
38
243
77
15
180
95
139
246
116
232
153
156
117
151
96
100
149
188
154
83
162
120
34
123
85
150
183
102
229
226
147
192
142
73
111
250
234
4
205
127
236
210
27
203
6
97
228
194
86
126
30
190
169
181
242
224
64
230
67
36
107
122
49
197
57
173
110
239
39
136
135
13
146
103
184
80
9
98
240
200
129
101
41
78
196
91
172
130
62
138
44
124
191
255
206
119
52
19
165
69
251
185
238
163
106
155
158
53
175
202
125
218
31
70
182
178
63
43
128
201
237
231
189
114
45
227
198
161
217
144
134
16
209
90
20
244
193
121
32
176
84
104
247
23
87
214
204
17
99
10
94
225
249
74
195
152
29
18
76
42
207
211
252
241
141
65
12
159
223
213
145
47
21
40
171
58
82
113
75
108
254
24
72
79
212
60
131
88
208
26
46
89
7
233
55
5
2
11
148
35
179
50
166
56
61
253
22
71
81
14
133
118
33

> <PUBCHEM_MMFF94_PARTIAL_CHARGES>
33
1 -0.57
11 0.27
12 0.27
13 0.57
14 0.3
16 0.41
17 0.27
18 0.06
19 -0.14
2 -0.57
20 0.57
21 0.3
22 0.3
25 0.28
26 -0.15
27 -0.15
28 -0.15
29 -0.15
3 -0.68
30 -0.14
31 0.14
4 -0.81
45 0.37
5 -0.81
6 -0.73
60 0.15
61 0.15
62 0.15
63 0.15
64 0.4
7 -0.66
8 0.27
9 0.33

> <PUBCHEM_EFFECTIVE_ROTOR_COUNT>
8.6

> <PUBCHEM_PHARMACOPHORE_FEATURES>
11
1 1 acceptor
1 2 acceptor
1 3 acceptor
1 3 donor
1 4 cation
1 5 cation
1 6 donor
5 5 8 9 10 11 rings
6 19 26 27 28 29 30 rings
6 7 21 22 23 24 25 rings
7 4 6 8 9 12 13 14 rings

> <PUBCHEM_HEAVY_ATOM_COUNT>
31

> <PUBCHEM_ATOM_DEF_STEREO_COUNT>
3

> <PUBCHEM_ATOM_UDEF_STEREO_COUNT>
0

> <PUBCHEM_BOND_DEF_STEREO_COUNT>
0

> <PUBCHEM_BOND_UDEF_STEREO_COUNT>
0

> <PUBCHEM_ISOTOPIC_ATOM_COUNT>
0

> <PUBCHEM_COMPONENT_COUNT>
1

> <PUBCHEM_CACTVS_TAUTO_COUNT>
3

> <PUBCHEM_CONFORMER_ID>
02B4283900000001

> <PUBCHEM_MMFF94_ENERGY>
79.6088

> <PUBCHEM_FEATURE_SELFOVERLAP>
55.858

> <PUBCHEM_SHAPE_FINGERPRINT>
10042902 136 18409167688631977372
10391435 84 18339347622310518400
10554248 39 14707197774363768808
10677394 325 17605298314528084750
11135609 99 18272647948872664286
11285246 1 17822853203341249443
11315621 136 18261955249351809814
11315621 246 18336826373265007934
11497681 19 18411421705350271076
117089 54 18263931119324932027
12422481 6 17704348862243713838
12522641 68 17032175395241758540
12633257 1 15840984602413461893
1361 4 18413108347281216782
13690498 29 17967530121673836285
13782708 43 18130782339737647116
13911987 19 15285646447531900417
13947930 73 17775286083965989342
14068700 675 18409164394613665920
14211702 104 18130512946615041590
14251764 30 18410570729888280151
14289585 56 17168134607788142605
14420673 8 18412263956969162475
15001296 14 18334283292958605066
17492 89 18339360867615086701
17909252 39 18194683902322787681
20775438 99 17827914353810279522
20775530 9 18337656599276079619
21223535 225 15430026626399512197
21424621 283 9799401231493488324
21585480 29 17557399274925416910
21756936 100 8142079836553135968
23379529 103 18337388365551569923
23559900 14 18272077305984476424
2838139 119 8358255942971580736
32027 91 18270953670142018057
392239 28 15554154935055444644
437795 70 18333733524334337450
439807 62 18410295856693158183
4435113 14 17915469298413389022
44880168 125 17917982902163995527
463206 1 18408324362949618849
54039377 194 18336275582701696259
563151 248 18127432076421473817
7970288 3 18338232795003548423

> <PUBCHEM_SHAPE_MULTIPOLES>
600.43
18.31
5.11
1.33
8.62
2.72
-0.05
24.34
3.3
-3.88
0.68
0.16
-0.91
0.28

> <PUBCHEM_SHAPE_SELFOVERLAP>
1257.617

> <PUBCHEM_SHAPE_VOLUME>
338.4

> <PUBCHEM_COORDINATE_TYPE>
2
5
10

$$$$
