11941211
  -OEChem-12032416333D

 67 71  0     1  0  0  0  0  0999 V2000
    0.4941   -0.9541   -0.6720 O   0  0  0  0  0  0  0  0  0  0  0  0
    0.1103   -3.8324    0.3184 O   0  0  0  0  0  0  0  0  0  0  0  0
    3.0497   -1.8117   -0.0130 O   0  0  0  0  0  0  0  0  0  0  0  0
   -2.3260   -1.1132    0.6270 N   0  0  0  0  0  0  0  0  0  0  0  0
   -1.1006    0.8742    0.3954 N   0  0  0  0  0  0  0  0  0  0  0  0
   -1.9132    0.1657    2.5505 N   0  0  0  0  0  0  0  0  0  0  0  0
   -0.3966   -2.5747    0.8123 C   0  0  1  0  0  0  0  0  0  0  0  0
    0.7043   -1.5512    0.6180 C   0  0  1  0  0  0  0  0  0  0  0  0
   -1.5143   -2.0827   -0.0769 C   0  0  2  0  0  0  0  0  0  0  0  0
    1.9509   -2.4026    0.6435 C   0  0  1  0  0  0  0  0  0  0  0  0
   -0.7561   -1.4122   -1.2094 C   0  0  0  0  0  0  0  0  0  0  0  0
    1.4882   -3.6660   -0.0464 C   0  0  0  0  0  0  0  0  0  0  0  0
   -3.7654   -1.3506    0.7260 C   0  0  0  0  0  0  0  0  0  0  0  0
   -1.7564    0.0224    1.2153 C   0  0  0  0  0  0  0  0  0  0  0  0
    3.4835   -0.6210    0.6399 C   0  0  0  0  0  0  0  0  0  0  0  0
   -4.5043   -0.5491   -0.3095 C   0  0  0  0  0  0  0  0  0  0  0  0
   -0.5647    1.9575    0.9950 C   0  0  0  0  0  0  0  0  0  0  0  0
    0.1659    2.9176    0.1175 C   0  0  0  0  0  0  0  0  0  0  0  0
    4.6504   -0.0488   -0.1100 C   0  0  0  0  0  0  0  0  0  0  0  0
   -4.9383    0.7339   -0.0019 C   0  0  0  0  0  0  0  0  0  0  0  0
   -4.7435   -1.1011   -1.5615 C   0  0  0  0  0  0  0  0  0  0  0  0
   -1.3524    1.2708    3.0841 C   0  0  0  0  0  0  0  0  0  0  0  0
   -0.6599    2.2105    2.3483 C   0  0  0  0  0  0  0  0  0  0  0  0
    0.2138    2.5374   -1.3994 C   0  0  0  0  0  0  0  0  0  0  0  0
   -0.4808    4.3364    0.1699 C   0  0  0  0  0  0  0  0  0  0  0  0
    1.6560    3.0631    0.5565 C   0  0  0  0  0  0  0  0  0  0  0  0
    5.9424   -0.4361    0.2276 C   0  0  0  0  0  0  0  0  0  0  0  0
    4.4294    0.8633   -1.1360 C   0  0  0  0  0  0  0  0  0  0  0  0
   -5.6236    1.4777   -0.9625 C   0  0  0  0  0  0  0  0  0  0  0  0
   -5.4287   -0.3571   -2.5221 C   0  0  0  0  0  0  0  0  0  0  0  0
   -5.8687    0.9322   -2.2225 C   0  0  0  0  0  0  0  0  0  0  0  0
    7.0274    0.0956   -0.4695 C   0  0  0  0  0  0  0  0  0  0  0  0
    5.5143    1.3949   -1.8330 C   0  0  0  0  0  0  0  0  0  0  0  0
    6.8133    1.0110   -1.4998 C   0  0  0  0  0  0  0  0  0  0  0  0
   -0.6738   -2.7230    1.8611 H   0  0  0  0  0  0  0  0  0  0  0  0
    0.7342   -0.7690    1.3790 H   0  0  0  0  0  0  0  0  0  0  0  0
   -2.1245   -2.9023   -0.4724 H   0  0  0  0  0  0  0  0  0  0  0  0
    2.2154   -2.6483    1.6809 H   0  0  0  0  0  0  0  0  0  0  0  0
   -1.2864   -0.5900   -1.7001 H   0  0  0  0  0  0  0  0  0  0  0  0
   -0.5117   -2.1462   -1.9863 H   0  0  0  0  0  0  0  0  0  0  0  0
    2.0597   -4.5445    0.2679 H   0  0  0  0  0  0  0  0  0  0  0  0
    1.5598   -3.5948   -1.1376 H   0  0  0  0  0  0  0  0  0  0  0  0
   -4.1335   -1.1007    1.7300 H   0  0  0  0  0  0  0  0  0  0  0  0
   -3.9965   -2.4170    0.6049 H   0  0  0  0  0  0  0  0  0  0  0  0
    3.7738   -0.8474    1.6735 H   0  0  0  0  0  0  0  0  0  0  0  0
    2.6777    0.1116    0.6799 H   0  0  0  0  0  0  0  0  0  0  0  0
   -4.7539    1.1693    0.9762 H   0  0  0  0  0  0  0  0  0  0  0  0
   -4.4039   -2.1036   -1.8061 H   0  0  0  0  0  0  0  0  0  0  0  0
   -1.4793    1.3835    4.1554 H   0  0  0  0  0  0  0  0  0  0  0  0
   -0.2295    3.0791    2.8289 H   0  0  0  0  0  0  0  0  0  0  0  0
    0.7434    3.2950   -1.9884 H   0  0  0  0  0  0  0  0  0  0  0  0
    0.7294    1.5832   -1.5500 H   0  0  0  0  0  0  0  0  0  0  0  0
   -0.7972    2.4401   -1.8119 H   0  0  0  0  0  0  0  0  0  0  0  0
   -0.4473    4.7652    1.1775 H   0  0  0  0  0  0  0  0  0  0  0  0
    0.0378    5.0358   -0.4961 H   0  0  0  0  0  0  0  0  0  0  0  0
   -1.5325    4.2954   -0.1374 H   0  0  0  0  0  0  0  0  0  0  0  0
    2.2048    3.7343   -0.1143 H   0  0  0  0  0  0  0  0  0  0  0  0
    1.7443    3.4757    1.5676 H   0  0  0  0  0  0  0  0  0  0  0  0
    2.1608    2.0990    0.5520 H   0  0  0  0  0  0  0  0  0  0  0  0
    6.1206   -1.1502    1.0268 H   0  0  0  0  0  0  0  0  0  0  0  0
    3.4223    1.1635   -1.4105 H   0  0  0  0  0  0  0  0  0  0  0  0
   -5.9660    2.4817   -0.7294 H   0  0  0  0  0  0  0  0  0  0  0  0
   -5.6190   -0.7815   -3.5035 H   0  0  0  0  0  0  0  0  0  0  0  0
   -6.4019    1.5115   -2.9707 H   0  0  0  0  0  0  0  0  0  0  0  0
    8.0387   -0.2037   -0.2106 H   0  0  0  0  0  0  0  0  0  0  0  0
    5.3475    2.1063   -2.6366 H   0  0  0  0  0  0  0  0  0  0  0  0
    7.6580    1.4245   -2.0430 H   0  0  0  0  0  0  0  0  0  0  0  0
  1  8  1  0  0  0  0
  1 11  1  0  0  0  0
  2  7  1  0  0  0  0
  2 12  1  0  0  0  0
  3 10  1  0  0  0  0
  3 15  1  0  0  0  0
  4  9  1  0  0  0  0
  4 13  1  0  0  0  0
  4 14  1  0  0  0  0
  5 14  1  0  0  0  0
  5 17  2  0  0  0  0
  6 14  2  0  0  0  0
  6 22  1  0  0  0  0
  7  8  1  0  0  0  0
  7  9  1  0  0  0  0
  7 35  1  0  0  0  0
  8 10  1  0  0  0  0
  8 36  1  0  0  0  0
  9 11  1  0  0  0  0
  9 37  1  0  0  0  0
 10 12  1  0  0  0  0
 10 38  1  0  0  0  0
 11 39  1  0  0  0  0
 11 40  1  0  0  0  0
 12 41  1  0  0  0  0
 12 42  1  0  0  0  0
 13 16  1  0  0  0  0
 13 43  1  0  0  0  0
 13 44  1  0  0  0  0
 15 19  1  0  0  0  0
 15 45  1  0  0  0  0
 15 46  1  0  0  0  0
 16 20  2  0  0  0  0
 16 21  1  0  0  0  0
 17 18  1  0  0  0  0
 17 23  1  0  0  0  0
 18 24  1  0  0  0  0
 18 25  1  0  0  0  0
 18 26  1  0  0  0  0
 19 27  2  0  0  0  0
 19 28  1  0  0  0  0
 20 29  1  0  0  0  0
 20 47  1  0  0  0  0
 21 30  2  0  0  0  0
 21 48  1  0  0  0  0
 22 23  2  0  0  0  0
 22 49  1  0  0  0  0
 23 50  1  0  0  0  0
 24 51  1  0  0  0  0
 24 52  1  0  0  0  0
 24 53  1  0  0  0  0
 25 54  1  0  0  0  0
 25 55  1  0  0  0  0
 25 56  1  0  0  0  0
 26 57  1  0  0  0  0
 26 58  1  0  0  0  0
 26 59  1  0  0  0  0
 27 32  1  0  0  0  0
 27 60  1  0  0  0  0
 28 33  2  0  0  0  0
 28 61  1  0  0  0  0
 29 31  2  0  0  0  0
 29 62  1  0  0  0  0
 30 31  1  0  0  0  0
 30 63  1  0  0  0  0
 31 64  1  0  0  0  0
 32 34  2  0  0  0  0
 32 65  1  0  0  0  0
 33 34  1  0  0  0  0
 33 66  1  0  0  0  0
 34 67  1  0  0  0  0
M  END
> <PUBCHEM_COMPOUND_CID>
11941211

> <PUBCHEM_CONFORMER_RMSD>
1

> <PUBCHEM_CONFORMER_DIVERSEORDER>
1
109
313
167
41
303
322
177
76
298
179
142
219
267
316
40
314
229
262
290
110
50
91
238
228
223
310
33
23
188
19
170
136
138
296
273
99
21
222
124
284
245
197
254
257
70
146
173
79
312
305
57
207
2
306
154
311
97
119
183
68
144
281
5
234
24
208
114
209
151
77
299
216
210
206
204
137
162
309
265
157
30
323
35
277
63
294
293
259
141
135
59
195
317
182
122
237
236
283
147
324
155
120
308
140
164
15
54
52
250
225
321
260
190
289
186
285
36
240
319
295
199
192
44
132
244
39
16
96
253
231
304
134
159
18
218
131
261
107
75
230
213
171
95
69
93
116
81
34
302
150
255
318
291
92
100
246
165
152
125
193
242
27
49
86
280
315
263
327
202
232
82
101
102
264
121
98
84
274
248
108
56
278
198
217
201
20
169
301
126
239
106
161
6
72
83
94
270
158
31
176
189
258
178
307
163
215
12
149
115
128
172
66
166
4
181
90
74
286
156
112
266
187
276
241
168
38
282
47
247
123
203
251
71
8
78
11
297
111
249
32
62
275
180
48
184
221
174
243
127
200
26
320
212
133
271
61
46
287
160
226
55
269
233
89
58
60
205
43
325
139
42
153
214
22
292
268
220
130
288
3
300
88
13
211
129
113
143
37
148
118
80
256
252
117
224
14
7
145
175
51
191
279
326
196
73
85
87
17
67
104
9
65
194
272
227
53
235
105
64
10
45
28
103
25
29
185

> <PUBCHEM_MMFF94_PARTIAL_CHARGES>
43
1 -0.56
10 0.28
11 0.28
12 0.28
13 0.51
14 0.72
15 0.42
16 -0.14
17 0.17
18 0.14
19 -0.14
2 -0.56
20 -0.15
21 -0.15
22 0.16
23 -0.15
27 -0.15
28 -0.15
29 -0.15
3 -0.56
30 -0.15
31 -0.15
32 -0.15
33 -0.15
34 -0.15
4 -0.84
47 0.15
48 0.15
49 0.15
5 -0.62
50 0.15
6 -0.62
60 0.15
61 0.15
62 0.15
63 0.15
64 0.15
65 0.15
66 0.15
67 0.15
7 0.28
8 0.28
9 0.37

> <PUBCHEM_EFFECTIVE_ROTOR_COUNT>
9.2

> <PUBCHEM_PHARMACOPHORE_FEATURES>
11
1 1 acceptor
1 2 acceptor
1 3 acceptor
1 5 acceptor
4 18 24 25 26 hydrophobe
4 4 5 6 14 cation
5 1 7 8 9 11 rings
5 2 7 8 10 12 rings
6 16 20 21 29 30 31 rings
6 19 27 28 32 33 34 rings
6 5 6 14 17 22 23 rings

> <PUBCHEM_HEAVY_ATOM_COUNT>
34

> <PUBCHEM_ATOM_DEF_STEREO_COUNT>
4

> <PUBCHEM_ATOM_UDEF_STEREO_COUNT>
0

> <PUBCHEM_BOND_DEF_STEREO_COUNT>
0

> <PUBCHEM_BOND_UDEF_STEREO_COUNT>
0

> <PUBCHEM_ISOTOPIC_ATOM_COUNT>
0

> <PUBCHEM_COMPONENT_COUNT>
1

> <PUBCHEM_CACTVS_TAUTO_COUNT>
1

> <PUBCHEM_CONFORMER_ID>
00B6355B00000001

> <PUBCHEM_MMFF94_ENERGY>
130.3552

> <PUBCHEM_FEATURE_SELFOVERLAP>
56.551

> <PUBCHEM_SHAPE_FINGERPRINT>
10290309 65 18334585632887726131
10483366 6 18409442571050666757
10670039 82 18339943532581246246
10675989 125 17754728326573750251
10871710 139 18341062825826314648
10930396 42 18124846137042976128
1100329 8 18124610918172842314
11445158 3 17611507320260063089
11479125 193 16231425700143775364
11513181 2 17773046258283800262
11578080 2 13698449761444362135
11621639 179 18047173178462069749
12788726 201 18410288073948556976
13911987 19 18408324397277987958
14020679 6 14634873075956190324
14068700 675 17917708011108126136
14117953 113 18261674784040547964
14767858 380 18342451539172009679
14931854 50 18411991269453127628
15420108 30 17556322578074630521
16110190 28 8574417721901514798
17492 54 18408880728733914979
20642791 239 18337947991105274403
20771845 165 17973156515746805613
21304303 64 18261681376884431609
2132832 1 17829875556364149314
21814621 53 15430876484832524689
21987440 362 14202497709209375975
22122407 14 16661223558352902412
23559900 14 18128535058098325640
24180151 46 11891598071562231167
3493558 16 17749668472340376821
4058900 60 18040435455945172355
4353968 344 18199468758770156006
4394409 98 18187935001468028556
469060 322 18336561468683634272
484989 97 18122061164152587599
6036956 94 18042986418018120076
6371009 1 18410572852213807338
6608658 132 18060139803873648337
6669772 16 16839916312553129569

> <PUBCHEM_SHAPE_MULTIPOLES>
667.15
13.7
4.13
2.18
10.89
0.51
0.48
2.01
-10.46
0.52
0.73
-2.02
1.02
-0.97

> <PUBCHEM_SHAPE_SELFOVERLAP>
1447.755

> <PUBCHEM_SHAPE_VOLUME>
365.1

> <PUBCHEM_COORDINATE_TYPE>
2
5
10

$$$$
