45783469
  -OEChem-12032416263D

 57 60  0     1  0  0  0  0  0999 V2000
   -2.4919   -1.6249    1.8991 O   0  0  0  0  0  0  0  0  0  0  0  0
    0.4557    3.5662    0.7721 O   0  0  0  0  0  0  0  0  0  0  0  0
    7.3621    0.3201   -0.3702 O   0  0  0  0  0  0  0  0  0  0  0  0
   -4.2658   -0.2731   -1.0217 N   0  0  1  0  0  0  0  0  0  0  0  0
   -1.5609   -1.1036   -0.0703 N   0  0  0  0  0  0  0  0  0  0  0  0
   -1.1066   -1.6474    2.1050 N   0  0  0  0  0  0  0  0  0  0  0  0
    3.0521   -1.3881    1.4339 N   0  0  0  0  0  0  0  0  0  0  0  0
    4.8569   -0.9712   -0.0642 N   0  0  0  0  0  0  0  0  0  0  0  0
   -4.1060   -1.2047    0.1127 C   0  0  1  0  0  0  0  0  0  0  0  0
   -4.6465   -2.5498   -0.4067 C   0  0  0  0  0  0  0  0  0  0  0  0
   -5.1425   -2.2614   -1.8165 C   0  0  0  0  0  0  0  0  0  0  0  0
   -5.3971   -0.7676   -1.8065 C   0  0  0  0  0  0  0  0  0  0  0  0
   -4.4502    1.1115   -0.6063 C   0  0  0  0  0  0  0  0  0  0  0  0
   -2.6728   -1.2968    0.5930 C   0  0  0  0  0  0  0  0  0  0  0  0
   -3.1447    1.7654   -0.2391 C   0  0  0  0  0  0  0  0  0  0  0  0
   -2.9636    2.2932    1.0393 C   0  0  0  0  0  0  0  0  0  0  0  0
   -2.1158    1.8429   -1.1778 C   0  0  0  0  0  0  0  0  0  0  0  0
   -0.6272   -1.3299    0.8987 C   0  0  0  0  0  0  0  0  0  0  0  0
   -1.7538    2.8986    1.3790 C   0  0  0  0  0  0  0  0  0  0  0  0
   -0.9059    2.4484   -0.8382 C   0  0  0  0  0  0  0  0  0  0  0  0
    0.7781   -1.2319    0.6282 C   0  0  0  0  0  0  0  0  0  0  0  0
   -0.7250    2.9763    0.4402 C   0  0  0  0  0  0  0  0  0  0  0  0
    1.2423   -0.9006   -0.6399 C   0  0  0  0  0  0  0  0  0  0  0  0
    1.7154   -1.4640    1.6218 C   0  0  0  0  0  0  0  0  0  0  0  0
    2.6106   -0.8127   -0.8723 C   0  0  0  0  0  0  0  0  0  0  0  0
    3.4659   -1.0636    0.1885 C   0  0  0  0  0  0  0  0  0  0  0  0
    1.4647    3.6113   -0.2360 C   0  0  0  0  0  0  0  0  0  0  0  0
    5.3865   -0.6362   -1.3460 C   0  0  0  0  0  0  0  0  0  0  0  0
    6.9050   -0.6527   -1.3015 C   0  0  0  0  0  0  0  0  0  0  0  0
    8.7809    0.3462   -0.2983 C   0  0  0  0  0  0  0  0  0  0  0  0
   -4.7363   -0.8985    0.9595 H   0  0  0  0  0  0  0  0  0  0  0  0
   -3.9020   -3.3532   -0.4129 H   0  0  0  0  0  0  0  0  0  0  0  0
   -5.4872   -2.8751    0.2182 H   0  0  0  0  0  0  0  0  0  0  0  0
   -6.0378   -2.8382   -2.0663 H   0  0  0  0  0  0  0  0  0  0  0  0
   -4.3611   -2.5116   -2.5449 H   0  0  0  0  0  0  0  0  0  0  0  0
   -5.4079   -0.3549   -2.8200 H   0  0  0  0  0  0  0  0  0  0  0  0
   -6.3565   -0.5484   -1.3209 H   0  0  0  0  0  0  0  0  0  0  0  0
   -5.1864    1.1985    0.2036 H   0  0  0  0  0  0  0  0  0  0  0  0
   -4.8597    1.6995   -1.4399 H   0  0  0  0  0  0  0  0  0  0  0  0
   -3.7555    2.2379    1.7813 H   0  0  0  0  0  0  0  0  0  0  0  0
   -2.2442    1.4397   -2.1790 H   0  0  0  0  0  0  0  0  0  0  0  0
   -1.6181    3.3069    2.3767 H   0  0  0  0  0  0  0  0  0  0  0  0
   -0.1493    2.4736   -1.6149 H   0  0  0  0  0  0  0  0  0  0  0  0
    0.5612   -0.7048   -1.4642 H   0  0  0  0  0  0  0  0  0  0  0  0
    1.4360   -1.7270    2.6377 H   0  0  0  0  0  0  0  0  0  0  0  0
    2.9378   -0.5500   -1.8712 H   0  0  0  0  0  0  0  0  0  0  0  0
    5.4718   -1.1534    0.7207 H   0  0  0  0  0  0  0  0  0  0  0  0
    5.0605   -1.3539   -2.1078 H   0  0  0  0  0  0  0  0  0  0  0  0
    5.0595    0.3695   -1.6366 H   0  0  0  0  0  0  0  0  0  0  0  0
    1.7891    2.6060   -0.5255 H   0  0  0  0  0  0  0  0  0  0  0  0
    1.1472    4.2092   -1.0970 H   0  0  0  0  0  0  0  0  0  0  0  0
    2.3343    4.1143    0.1995 H   0  0  0  0  0  0  0  0  0  0  0  0
    7.2658   -1.6440   -1.0012 H   0  0  0  0  0  0  0  0  0  0  0  0
    7.3021   -0.4207   -2.2966 H   0  0  0  0  0  0  0  0  0  0  0  0
    9.1660   -0.6217    0.0367 H   0  0  0  0  0  0  0  0  0  0  0  0
    9.2099    0.6070   -1.2707 H   0  0  0  0  0  0  0  0  0  0  0  0
    9.0747    1.1086    0.4281 H   0  0  0  0  0  0  0  0  0  0  0  0
  1  6  1  0  0  0  0
  1 14  1  0  0  0  0
  2 22  1  0  0  0  0
  2 27  1  0  0  0  0
  3 29  1  0  0  0  0
  3 30  1  0  0  0  0
  4  9  1  0  0  0  0
  4 12  1  0  0  0  0
  4 13  1  0  0  0  0
  5 14  2  0  0  0  0
  5 18  1  0  0  0  0
  6 18  2  0  0  0  0
  7 24  1  0  0  0  0
  7 26  2  0  0  0  0
  8 26  1  0  0  0  0
  8 28  1  0  0  0  0
  8 47  1  0  0  0  0
  9 10  1  0  0  0  0
  9 14  1  0  0  0  0
  9 31  1  0  0  0  0
 10 11  1  0  0  0  0
 10 32  1  0  0  0  0
 10 33  1  0  0  0  0
 11 12  1  0  0  0  0
 11 34  1  0  0  0  0
 11 35  1  0  0  0  0
 12 36  1  0  0  0  0
 12 37  1  0  0  0  0
 13 15  1  0  0  0  0
 13 38  1  0  0  0  0
 13 39  1  0  0  0  0
 15 16  2  0  0  0  0
 15 17  1  0  0  0  0
 16 19  1  0  0  0  0
 16 40  1  0  0  0  0
 17 20  2  0  0  0  0
 17 41  1  0  0  0  0
 18 21  1  0  0  0  0
 19 22  2  0  0  0  0
 19 42  1  0  0  0  0
 20 22  1  0  0  0  0
 20 43  1  0  0  0  0
 21 23  1  0  0  0  0
 21 24  2  0  0  0  0
 23 25  2  0  0  0  0
 23 44  1  0  0  0  0
 24 45  1  0  0  0  0
 25 26  1  0  0  0  0
 25 46  1  0  0  0  0
 27 50  1  0  0  0  0
 27 51  1  0  0  0  0
 27 52  1  0  0  0  0
 28 29  1  0  0  0  0
 28 48  1  0  0  0  0
 28 49  1  0  0  0  0
 29 53  1  0  0  0  0
 29 54  1  0  0  0  0
 30 55  1  0  0  0  0
 30 56  1  0  0  0  0
 30 57  1  0  0  0  0
M  END
> <PUBCHEM_COMPOUND_CID>
45783469

> <PUBCHEM_CONFORMER_RMSD>
1

> <PUBCHEM_CONFORMER_DIVERSEORDER>
1
58
97
9
84
18
31
92
86
74
35
93
32
52
20
80
44
77
37
40
94
70
12
43
88
79
95
75
83
55
47
82
69
73
54
30
90
28
65
15
2
61
42
60
71
45
34
50
76
16
38
96
36
72
78
49
29
67
11
33
46
14
51
64
23
85
62
22
91
53
3
8
13
48
57
7
81
66
25
39
19
5
59
41
56
89
24
6
26
27
68
63
21
4
87
10
17

> <PUBCHEM_MMFF94_PARTIAL_CHARGES>
36
1 -0.02
12 0.27
13 0.41
14 0.3
15 -0.14
16 -0.15
17 -0.15
18 0.46
19 -0.15
2 -0.36
20 -0.15
21 0.05
22 0.08
23 -0.15
24 0.16
25 -0.15
26 0.41
27 0.28
28 0.37
29 0.28
3 -0.56
30 0.28
4 -0.81
40 0.15
41 0.15
42 0.15
43 0.15
44 0.15
45 0.15
46 0.15
47 0.4
5 -0.57
6 -0.41
7 -0.62
8 -0.87
9 0.45

> <PUBCHEM_EFFECTIVE_ROTOR_COUNT>
10

> <PUBCHEM_PHARMACOPHORE_FEATURES>
10
1 2 acceptor
1 3 acceptor
1 4 cation
1 8 donor
3 5 6 18 cation
3 7 8 26 cation
5 1 5 6 14 18 rings
5 4 9 10 11 12 rings
6 15 16 17 19 20 22 rings
6 7 21 23 24 25 26 rings

> <PUBCHEM_HEAVY_ATOM_COUNT>
30

> <PUBCHEM_ATOM_DEF_STEREO_COUNT>
1

> <PUBCHEM_ATOM_UDEF_STEREO_COUNT>
0

> <PUBCHEM_BOND_DEF_STEREO_COUNT>
0

> <PUBCHEM_BOND_UDEF_STEREO_COUNT>
0

> <PUBCHEM_ISOTOPIC_ATOM_COUNT>
0

> <PUBCHEM_COMPONENT_COUNT>
1

> <PUBCHEM_CACTVS_TAUTO_COUNT>
8

> <PUBCHEM_CONFORMER_ID>
02BA99AD00000001

> <PUBCHEM_MMFF94_ENERGY>
78.5227

> <PUBCHEM_FEATURE_SELFOVERLAP>
50.747

> <PUBCHEM_SHAPE_FINGERPRINT>
10454371 7 18340776966379110652
10670039 82 18408040694046290954
1100329 8 18339356376039774353
11477941 20 18271799138211367076
12107698 1 18341612642181110460
12156800 1 15218306823571153997
12788726 201 18262796259498157043
13782708 43 17561086861390787134
14931854 50 18187356606490463775
15183329 4 18041285353761066774
15876981 60 18411144627565568613
17492 54 18041832918734945237
18336668 15 18040444290962023188
20609170 92 18115581699143664148
20642791 239 18188476992350647529
20642791 35 18336529566030620845
20691752 17 17604690258553650425
20721686 56 18338517573042387264
20775438 99 17333621265826002375
20905425 154 18194957677050935493
21236236 1 18336272258449535550
21304303 64 17095805413494252189
21344244 246 17909823572381279151
22899556 105 17767689721750171615
23559900 14 18115303500519351509
255183 451 18054501685163778327
497634 4 17131840854147270410
5171179 24 18272082854908077841
531348 171 18057049008232958574
999808 66 14117524255137981782

> <PUBCHEM_SHAPE_MULTIPOLES>
574.87
15.4
3.81
1.67
35.31
4
0.25
-5.95
-7.96
-3.32
0.59
-0.85
-0.63
-0.88

> <PUBCHEM_SHAPE_SELFOVERLAP>
1227.571

> <PUBCHEM_SHAPE_VOLUME>
321.1

> <PUBCHEM_COORDINATE_TYPE>
2
5
10

$$$$
