11913161
  -OEChem-12032416153D

 58 60  0     1  0  0  0  0  0999 V2000
   -3.6680    3.6988    2.0779 Cl  0  0  0  0  0  0  0  0  0  0  0  0
   -4.8595   -1.5863   -0.5171 O   0  0  0  0  0  0  0  0  0  0  0  0
    2.6964   -3.0065    1.3905 O   0  0  0  0  0  0  0  0  0  0  0  0
    3.7267    3.7857    0.6521 O   0  0  0  0  0  0  0  0  0  0  0  0
   -2.7409   -1.6030    0.4751 N   0  0  0  0  0  0  0  0  0  0  0  0
    3.0502   -2.3428   -0.8086 N   0  0  0  0  0  0  0  0  0  0  0  0
   -3.8891    3.2466   -0.4650 N   0  0  0  0  0  0  0  0  0  0  0  0
   -0.1788   -2.9506    0.4086 C   0  0  1  0  0  0  0  0  0  0  0  0
   -0.2715   -1.4092    0.2741 C   0  0  2  0  0  0  0  0  0  0  0  0
   -1.4668   -3.6391   -0.0737 C   0  0  0  0  0  0  0  0  0  0  0  0
   -1.5484   -0.8982    0.9664 C   0  0  0  0  0  0  0  0  0  0  0  0
   -2.6969   -3.0570    0.6173 C   0  0  0  0  0  0  0  0  0  0  0  0
   -0.2128   -0.9058   -1.1736 C   0  0  0  0  0  0  0  0  0  0  0  0
    1.0436   -3.5425   -0.2928 C   0  0  0  0  0  0  0  0  0  0  0  0
   -0.2055    0.6072   -1.2259 C   0  0  0  0  0  0  0  0  0  0  0  0
   -3.8621   -1.0001   -0.0996 C   0  0  0  0  0  0  0  0  0  0  0  0
    2.3395   -2.9496    0.2168 C   0  0  0  0  0  0  0  0  0  0  0  0
   -3.8712    0.4617   -0.2249 C   0  0  0  0  0  0  0  0  0  0  0  0
    4.3246   -1.6915   -0.6083 C   0  0  0  0  0  0  0  0  0  0  0  0
   -3.7714    1.2607    0.9087 C   0  0  0  0  0  0  0  0  0  0  0  0
   -3.9801    1.0536   -1.4784 C   0  0  0  0  0  0  0  0  0  0  0  0
    4.1654   -0.2367   -0.2730 C   0  0  0  0  0  0  0  0  0  0  0  0
   -3.7850    2.6354    0.7364 C   0  0  0  0  0  0  0  0  0  0  0  0
   -3.9843    2.4376   -1.5439 C   0  0  0  0  0  0  0  0  0  0  0  0
    4.0477    0.1642    1.0579 C   0  0  0  0  0  0  0  0  0  0  0  0
    4.1358    0.7143   -1.2930 C   0  0  0  0  0  0  0  0  0  0  0  0
    3.9001    1.5159    1.3687 C   0  0  0  0  0  0  0  0  0  0  0  0
    3.9881    2.0660   -0.9822 C   0  0  0  0  0  0  0  0  0  0  0  0
    3.8702    2.4667    0.3487 C   0  0  0  0  0  0  0  0  0  0  0  0
    3.7041    4.7045   -0.4392 C   0  0  0  0  0  0  0  0  0  0  0  0
   -0.0795   -3.1686    1.4825 H   0  0  0  0  0  0  0  0  0  0  0  0
    0.5797   -0.9707    0.8130 H   0  0  0  0  0  0  0  0  0  0  0  0
   -1.5699   -3.5231   -1.1596 H   0  0  0  0  0  0  0  0  0  0  0  0
   -1.4156   -4.7157    0.1273 H   0  0  0  0  0  0  0  0  0  0  0  0
   -1.6110    0.1827    0.8977 H   0  0  0  0  0  0  0  0  0  0  0  0
   -1.4866   -1.1199    2.0403 H   0  0  0  0  0  0  0  0  0  0  0  0
   -3.6023   -3.5159    0.2074 H   0  0  0  0  0  0  0  0  0  0  0  0
   -2.6748   -3.2805    1.6905 H   0  0  0  0  0  0  0  0  0  0  0  0
   -1.0549   -1.2829   -1.7643 H   0  0  0  0  0  0  0  0  0  0  0  0
    0.6960   -1.2527   -1.6699 H   0  0  0  0  0  0  0  0  0  0  0  0
    1.0974   -4.6199   -0.0884 H   0  0  0  0  0  0  0  0  0  0  0  0
    0.9552   -3.4548   -1.3810 H   0  0  0  0  0  0  0  0  0  0  0  0
    0.5657    1.0263   -0.5712 H   0  0  0  0  0  0  0  0  0  0  0  0
    0.0200    0.9362   -2.2465 H   0  0  0  0  0  0  0  0  0  0  0  0
   -1.1623    1.0545   -0.9631 H   0  0  0  0  0  0  0  0  0  0  0  0
    2.6768   -2.3444   -1.7527 H   0  0  0  0  0  0  0  0  0  0  0  0
    4.8766   -2.2076    0.1861 H   0  0  0  0  0  0  0  0  0  0  0  0
    4.9055   -1.8129   -1.5297 H   0  0  0  0  0  0  0  0  0  0  0  0
   -3.7073    0.8256    1.9017 H   0  0  0  0  0  0  0  0  0  0  0  0
   -4.0561    0.4606   -2.3836 H   0  0  0  0  0  0  0  0  0  0  0  0
   -4.0656    2.9481   -2.4979 H   0  0  0  0  0  0  0  0  0  0  0  0
    4.0716   -0.5651    1.8629 H   0  0  0  0  0  0  0  0  0  0  0  0
    4.2241    0.4132   -2.3336 H   0  0  0  0  0  0  0  0  0  0  0  0
    3.8091    1.8221    2.4072 H   0  0  0  0  0  0  0  0  0  0  0  0
    3.9719    2.7511   -1.8229 H   0  0  0  0  0  0  0  0  0  0  0  0
    4.6522    4.7013   -0.9876 H   0  0  0  0  0  0  0  0  0  0  0  0
    2.8445    4.5291   -1.0949 H   0  0  0  0  0  0  0  0  0  0  0  0
    3.5834    5.7070   -0.0154 H   0  0  0  0  0  0  0  0  0  0  0  0
  1 23  1  0  0  0  0
  2 16  2  0  0  0  0
  3 17  2  0  0  0  0
  4 29  1  0  0  0  0
  4 30  1  0  0  0  0
  5 11  1  0  0  0  0
  5 12  1  0  0  0  0
  5 16  1  0  0  0  0
  6 17  1  0  0  0  0
  6 19  1  0  0  0  0
  6 46  1  0  0  0  0
  7 23  2  0  0  0  0
  7 24  1  0  0  0  0
  8  9  1  0  0  0  0
  8 10  1  0  0  0  0
  8 14  1  0  0  0  0
  8 31  1  0  0  0  0
  9 11  1  0  0  0  0
  9 13  1  0  0  0  0
  9 32  1  0  0  0  0
 10 12  1  0  0  0  0
 10 33  1  0  0  0  0
 10 34  1  0  0  0  0
 11 35  1  0  0  0  0
 11 36  1  0  0  0  0
 12 37  1  0  0  0  0
 12 38  1  0  0  0  0
 13 15  1  0  0  0  0
 13 39  1  0  0  0  0
 13 40  1  0  0  0  0
 14 17  1  0  0  0  0
 14 41  1  0  0  0  0
 14 42  1  0  0  0  0
 15 43  1  0  0  0  0
 15 44  1  0  0  0  0
 15 45  1  0  0  0  0
 16 18  1  0  0  0  0
 18 20  2  0  0  0  0
 18 21  1  0  0  0  0
 19 22  1  0  0  0  0
 19 47  1  0  0  0  0
 19 48  1  0  0  0  0
 20 23  1  0  0  0  0
 20 49  1  0  0  0  0
 21 24  2  0  0  0  0
 21 50  1  0  0  0  0
 22 25  2  0  0  0  0
 22 26  1  0  0  0  0
 24 51  1  0  0  0  0
 25 27  1  0  0  0  0
 25 52  1  0  0  0  0
 26 28  2  0  0  0  0
 26 53  1  0  0  0  0
 27 29  2  0  0  0  0
 27 54  1  0  0  0  0
 28 29  1  0  0  0  0
 28 55  1  0  0  0  0
 30 56  1  0  0  0  0
 30 57  1  0  0  0  0
 30 58  1  0  0  0  0
M  END
> <PUBCHEM_COMPOUND_CID>
11913161

> <PUBCHEM_CONFORMER_RMSD>
1.4

> <PUBCHEM_CONFORMER_DIVERSEORDER>
2
111
90
70
62
10
11
21
57
81
65
82
53
67
91
24
45
108
85
75
97
71
101
114
15
38
14
83
93
27
3
7
103
44
59
69
23
74
106
89
94
28
40
19
96
42
13
64
72
12
113
48
29
58
26
102
60
99
55
8
98
36
84
35
115
95
34
66
87
104
88
41
47
17
76
9
109
43
116
5
51
110
49
86
39
80
33
1
56
105
25
30
37
79
46
20
92
31
18
100
112
107
77
16
22
52
61
78
50
54
63
6
68
73
4
32

> <PUBCHEM_MMFF94_PARTIAL_CHARGES>
33
1 -0.18
11 0.3
12 0.3
14 0.06
16 0.54
17 0.57
18 0.09
19 0.44
2 -0.57
20 -0.15
21 -0.15
22 -0.14
23 0.49
24 0.16
25 -0.15
26 -0.15
27 -0.15
28 -0.15
29 0.08
3 -0.57
30 0.28
4 -0.36
46 0.37
49 0.15
5 -0.66
50 0.15
51 0.15
52 0.15
53 0.15
54 0.15
55 0.15
6 -0.73
7 -0.62

> <PUBCHEM_EFFECTIVE_ROTOR_COUNT>
10.2

> <PUBCHEM_PHARMACOPHORE_FEATURES>
9
1 15 hydrophobe
1 2 acceptor
1 3 acceptor
1 4 acceptor
1 6 donor
1 7 acceptor
6 22 25 26 27 28 29 rings
6 5 8 9 10 11 12 rings
6 7 18 20 21 23 24 rings

> <PUBCHEM_HEAVY_ATOM_COUNT>
30

> <PUBCHEM_ATOM_DEF_STEREO_COUNT>
2

> <PUBCHEM_ATOM_UDEF_STEREO_COUNT>
0

> <PUBCHEM_BOND_DEF_STEREO_COUNT>
0

> <PUBCHEM_BOND_UDEF_STEREO_COUNT>
0

> <PUBCHEM_ISOTOPIC_ATOM_COUNT>
0

> <PUBCHEM_COMPONENT_COUNT>
1

> <PUBCHEM_CACTVS_TAUTO_COUNT>
2

> <PUBCHEM_CONFORMER_ID>
00B5C7C900000002

> <PUBCHEM_MMFF94_ENERGY>
81.4557

> <PUBCHEM_FEATURE_SELFOVERLAP>
45.672

> <PUBCHEM_SHAPE_FINGERPRINT>
10439779 11 18339348696432118458
10842077 115 18267563849428214608
11059048 146 18341065054999172392
11595378 159 15647618834995791022
12633257 1 18046902680281647442
12788726 201 17832139794544956874
12925494 130 18266737970594225657
12969540 37 8252414200698029631
13590594 115 16320908912604082211
14040222 75 16036908344567576949
14251764 38 18413392029195682933
14289585 56 16326005182893481307
14848178 96 18337670806563443868
15320291 9 18411696577945084224
15322535 138 18266169716139649568
16992727 255 18189641431352212836
16992787 43 18266456698045194687
20764821 26 18193277395012467744
21133410 127 18042682987052554668
21388113 180 18337386157954476956
21458453 9 17974891369765792201
21860390 5 17984421837170057142
23398203 216 18268732536226236281
23559900 14 17984419633541155886
325973 47 18411419505525746632
4487111 67 17978510068048361760
5047190 48 17975133459259758668
6086070 43 18264480702991585134
6371009 1 18338779196120833218
7808743 9 17618786195084642032

> <PUBCHEM_SHAPE_MULTIPOLES>
586.7
11.44
6.18
1.45
0.93
2.12
0.1
8.43
-0.41
1.34
1.09
-0.5
0.91
-0.37

> <PUBCHEM_SHAPE_SELFOVERLAP>
1224.472

> <PUBCHEM_SHAPE_VOLUME>
332.7

> <PUBCHEM_COORDINATE_TYPE>
2
5
10

$$$$
