7673889
  -OEChem-12032416213D

 59 63  0     1  0  0  0  0  0999 V2000
   -2.2038   -1.0398    1.9214 O   0  0  0  0  0  0  0  0  0  0  0  0
    5.0484    3.9401    1.2403 O   0  0  0  0  0  0  0  0  0  0  0  0
    2.4053   -1.4539   -0.0105 N   0  0  2  0  0  0  0  0  0  0  0  0
   -0.6917   -2.0522    0.4632 N   0  0  0  0  0  0  0  0  0  0  0  0
    4.7674    2.0498   -0.0811 N   0  0  0  0  0  0  0  0  0  0  0  0
   -4.6111    4.8149    0.1582 N   0  0  0  0  0  0  0  0  0  0  0  0
    1.3697   -3.3378    1.2799 C   0  0  1  0  0  0  0  0  0  0  0  0
    0.9338   -3.1402   -1.1214 C   0  0  2  0  0  0  0  0  0  0  0  0
    1.1917   -4.1432   -0.0003 C   0  0  0  0  0  0  0  0  0  0  0  0
    2.5580   -2.3640    1.1313 C   0  0  0  0  0  0  0  0  0  0  0  0
    2.1478   -2.1927   -1.2558 C   0  0  0  0  0  0  0  0  0  0  0  0
    3.5722   -0.5862   -0.1489 C   0  0  0  0  0  0  0  0  0  0  0  0
    0.0529   -2.6169    1.5980 C   0  0  0  0  0  0  0  0  0  0  0  0
   -0.3316   -2.3465   -0.8539 C   0  0  0  0  0  0  0  0  0  0  0  0
    3.3424    0.4294   -1.2758 C   0  0  0  0  0  0  0  0  0  0  0  0
    3.8510    0.1366    1.1753 C   0  0  0  0  0  0  0  0  0  0  0  0
    4.5114    1.4091   -1.3771 C   0  0  0  0  0  0  0  0  0  0  0  0
    5.0091    1.1217    1.0254 C   0  0  0  0  0  0  0  0  0  0  0  0
   -1.0907   -1.9132   -1.8727 C   0  0  0  0  0  0  0  0  0  0  0  0
   -1.8363   -1.2914    0.7724 C   0  0  0  0  0  0  0  0  0  0  0  0
   -2.6485   -0.7903   -0.3916 C   0  0  0  0  0  0  0  0  0  0  0  0
   -2.2622   -1.1188   -1.6336 C   0  0  0  0  0  0  0  0  0  0  0  0
    4.8315    3.4252    0.1403 C   0  0  0  0  0  0  0  0  0  0  0  0
   -3.8400    0.0515   -0.1853 C   0  0  0  0  0  0  0  0  0  0  0  0
    4.6158    4.3134   -1.0589 C   0  0  0  0  0  0  0  0  0  0  0  0
   -3.7150    1.4404   -0.1342 C   0  0  0  0  0  0  0  0  0  0  0  0
   -5.0956   -0.5401   -0.0407 C   0  0  0  0  0  0  0  0  0  0  0  0
   -4.8438    2.2364    0.0611 C   0  0  0  0  0  0  0  0  0  0  0  0
   -6.2242    0.2559    0.1547 C   0  0  0  0  0  0  0  0  0  0  0  0
   -6.0984    1.6441    0.2056 C   0  0  0  0  0  0  0  0  0  0  0  0
   -4.7155    3.6586    0.1147 C   0  0  0  0  0  0  0  0  0  0  0  0
    1.5998   -4.0171    2.1104 H   0  0  0  0  0  0  0  0  0  0  0  0
    0.8269   -3.7000   -2.0601 H   0  0  0  0  0  0  0  0  0  0  0  0
    0.3582   -4.8502    0.0955 H   0  0  0  0  0  0  0  0  0  0  0  0
    2.0921   -4.7327   -0.2116 H   0  0  0  0  0  0  0  0  0  0  0  0
    2.5970   -1.8172    2.0784 H   0  0  0  0  0  0  0  0  0  0  0  0
    3.4855   -2.9454    1.0419 H   0  0  0  0  0  0  0  0  0  0  0  0
    3.0299   -2.7779   -1.5488 H   0  0  0  0  0  0  0  0  0  0  0  0
    1.9142   -1.5173   -2.0844 H   0  0  0  0  0  0  0  0  0  0  0  0
    4.4579   -1.1876   -0.4008 H   0  0  0  0  0  0  0  0  0  0  0  0
   -0.6315   -3.3344    2.0714 H   0  0  0  0  0  0  0  0  0  0  0  0
    0.2148   -1.8234    2.3384 H   0  0  0  0  0  0  0  0  0  0  0  0
    2.4152    0.9901   -1.0974 H   0  0  0  0  0  0  0  0  0  0  0  0
    3.2601   -0.0483   -2.2565 H   0  0  0  0  0  0  0  0  0  0  0  0
    4.1485   -0.5523    1.9720 H   0  0  0  0  0  0  0  0  0  0  0  0
    2.9565    0.6783    1.5102 H   0  0  0  0  0  0  0  0  0  0  0  0
    4.3021    2.1402   -2.1599 H   0  0  0  0  0  0  0  0  0  0  0  0
    5.4292    0.8815   -1.6636 H   0  0  0  0  0  0  0  0  0  0  0  0
    5.9420    0.5884    0.8064 H   0  0  0  0  0  0  0  0  0  0  0  0
    5.1564    1.6645    1.9645 H   0  0  0  0  0  0  0  0  0  0  0  0
   -0.8301   -2.1224   -2.9049 H   0  0  0  0  0  0  0  0  0  0  0  0
   -2.8116   -0.7821   -2.5080 H   0  0  0  0  0  0  0  0  0  0  0  0
    4.7153    5.3611   -0.7583 H   0  0  0  0  0  0  0  0  0  0  0  0
    3.6092    4.1678   -1.4599 H   0  0  0  0  0  0  0  0  0  0  0  0
    5.3684    4.1067   -1.8243 H   0  0  0  0  0  0  0  0  0  0  0  0
   -2.7356    1.9027   -0.2458 H   0  0  0  0  0  0  0  0  0  0  0  0
   -5.2099   -1.6208   -0.0770 H   0  0  0  0  0  0  0  0  0  0  0  0
   -7.2010   -0.2054    0.2675 H   0  0  0  0  0  0  0  0  0  0  0  0
   -6.9876    2.2510    0.3589 H   0  0  0  0  0  0  0  0  0  0  0  0
  1 20  2  0  0  0  0
  2 23  2  0  0  0  0
  3 10  1  0  0  0  0
  3 11  1  0  0  0  0
  3 12  1  0  0  0  0
  4 13  1  0  0  0  0
  4 14  1  0  0  0  0
  4 20  1  0  0  0  0
  5 17  1  0  0  0  0
  5 18  1  0  0  0  0
  5 23  1  0  0  0  0
  6 31  3  0  0  0  0
  7  9  1  0  0  0  0
  7 10  1  0  0  0  0
  7 13  1  0  0  0  0
  7 32  1  0  0  0  0
  8  9  1  0  0  0  0
  8 11  1  0  0  0  0
  8 14  1  0  0  0  0
  8 33  1  0  0  0  0
  9 34  1  0  0  0  0
  9 35  1  0  0  0  0
 10 36  1  0  0  0  0
 10 37  1  0  0  0  0
 11 38  1  0  0  0  0
 11 39  1  0  0  0  0
 12 15  1  0  0  0  0
 12 16  1  0  0  0  0
 12 40  1  0  0  0  0
 13 41  1  0  0  0  0
 13 42  1  0  0  0  0
 14 19  2  0  0  0  0
 15 17  1  0  0  0  0
 15 43  1  0  0  0  0
 15 44  1  0  0  0  0
 16 18  1  0  0  0  0
 16 45  1  0  0  0  0
 16 46  1  0  0  0  0
 17 47  1  0  0  0  0
 17 48  1  0  0  0  0
 18 49  1  0  0  0  0
 18 50  1  0  0  0  0
 19 22  1  0  0  0  0
 19 51  1  0  0  0  0
 20 21  1  0  0  0  0
 21 22  2  0  0  0  0
 21 24  1  0  0  0  0
 22 52  1  0  0  0  0
 23 25  1  0  0  0  0
 24 26  1  0  0  0  0
 24 27  2  0  0  0  0
 25 53  1  0  0  0  0
 25 54  1  0  0  0  0
 25 55  1  0  0  0  0
 26 28  2  0  0  0  0
 26 56  1  0  0  0  0
 27 29  1  0  0  0  0
 27 57  1  0  0  0  0
 28 30  1  0  0  0  0
 28 31  1  0  0  0  0
 29 30  2  0  0  0  0
 29 58  1  0  0  0  0
 30 59  1  0  0  0  0
M  END
> <PUBCHEM_COMPOUND_CID>
7673889

> <PUBCHEM_CONFORMER_RMSD>
0.8

> <PUBCHEM_CONFORMER_DIVERSEORDER>
1
32
19
23
25
33
8
5
31
18
16
26
22
24
13
6
12
7
4
15
21
30
14
9
17
27
3
20
2
29
28
10
11

> <PUBCHEM_MMFF94_PARTIAL_CHARGES>
33
1 -0.57
10 0.27
11 0.27
12 0.27
13 0.3
14 -0.03
17 0.3
18 0.3
19 -0.15
2 -0.57
20 0.62
21 -0.01
22 -0.15
23 0.57
24 0.03
25 0.06
26 -0.15
27 -0.15
28 0.07
29 -0.15
3 -0.81
30 -0.15
31 0.48
4 -0.47
5 -0.66
51 0.15
52 0.15
56 0.15
57 0.15
58 0.15
59 0.15
6 -0.56
8 0.14

> <PUBCHEM_EFFECTIVE_ROTOR_COUNT>
5.2

> <PUBCHEM_PHARMACOPHORE_FEATURES>
9
1 1 acceptor
1 2 acceptor
1 3 cation
1 6 acceptor
6 24 26 27 28 29 30 rings
6 3 7 8 9 10 11 rings
6 4 14 19 20 21 22 rings
6 4 7 8 9 13 14 rings
6 5 12 15 16 17 18 rings

> <PUBCHEM_HEAVY_ATOM_COUNT>
31

> <PUBCHEM_ATOM_DEF_STEREO_COUNT>
2

> <PUBCHEM_ATOM_UDEF_STEREO_COUNT>
0

> <PUBCHEM_BOND_DEF_STEREO_COUNT>
0

> <PUBCHEM_BOND_UDEF_STEREO_COUNT>
0

> <PUBCHEM_ISOTOPIC_ATOM_COUNT>
0

> <PUBCHEM_COMPONENT_COUNT>
1

> <PUBCHEM_CACTVS_TAUTO_COUNT>
1

> <PUBCHEM_CONFORMER_ID>
0075182100000001

> <PUBCHEM_MMFF94_ENERGY>
76.3756

> <PUBCHEM_FEATURE_SELFOVERLAP>
47.226

> <PUBCHEM_SHAPE_FINGERPRINT>
10673678 19 18342176652833393083
10928967 22 10086827916127121636
10937287 8 18339360863684317710
11386260 185 17765708028071038693
11477941 20 16759722448734274676
11621639 148 17187564382938235499
11720765 8 17773327751505802086
11796584 16 8141786336274755283
12104220 4 16618447818726608793
12633257 1 16226048946011406494
12925494 130 18192712250901016149
13944108 23 18196376922660358824
14251764 38 18265619780016074497
14251764 75 18342183284062652601
14429114 114 18411697682120736705
14739800 52 18335983073806140003
14790565 3 18411980277708540077
14848178 5 8646772174924336519
14849402 71 18261673667296959106
15142526 21 18333169479116659235
15320291 9 17979631243206796737
15475509 35 10882559827103210477
15513586 35 16159904714845208172
15979999 66 17768261111267318062
16112460 7 18408320012739241164
16988056 13 18053669071145049910
17844677 252 18122913023828838499
19438510 23 18337386171034090168
20982279 24 15361583141429340016
21223535 225 18343578543465832956
21388113 180 18411142445548478537
21792938 324 17545009647776900394
22122407 14 18335709299389176649
23559900 14 17625542281689492639
245318 6 17969235584177587372
2838139 119 18413386553355012790
3298306 158 18342454846286388609
34797466 226 18059016065227042191
376196 1 18410296921523567138
508180 173 17979375065966286854
5219985 13 18341332309449409638
5223283 242 16907519360075038935
550186 72 18267303330202829607
57091435 61 18410011013812981145
57724786 102 18334850658818998662
5776283 40 18339944674974294172
6036956 94 17254835793880188405
6201320 221 11243121649189083745
7288768 16 18042120023944458170
7808743 9 18270394026696398534
9849439 229 18337950203050263776

> <PUBCHEM_SHAPE_MULTIPOLES>
606.3
14.07
6.13
1.52
7.91
4.81
0.07
19.37
-1.07
-3.8
-0.32
-0.96
-0.76
-0.66

> <PUBCHEM_SHAPE_SELFOVERLAP>
1316.951

> <PUBCHEM_SHAPE_VOLUME>
321

> <PUBCHEM_COORDINATE_TYPE>
2
5
10

$$$$
