7051381
  -OEChem-12032416113D

 64 68  0     1  0  0  0  0  0999 V2000
   -0.8834   -3.6335    0.4102 S   0  0  0  0  0  0  0  0  0  0  0  0
    1.6917   -1.4259    2.6392 O   0  0  0  0  0  0  0  0  0  0  0  0
    0.9598    1.8406   -2.2377 O   0  0  0  0  0  0  0  0  0  0  0  0
   -0.6882   -3.9542   -0.9908 O   0  0  0  0  0  0  0  0  0  0  0  0
   -1.8370   -4.3649    1.2214 O   0  0  0  0  0  0  0  0  0  0  0  0
   -4.4815    3.2071    1.1039 O   0  0  0  0  0  0  0  0  0  0  0  0
    2.8683    1.9391   -0.9320 N   0  0  0  0  0  0  0  0  0  0  0  0
    3.0146   -0.7408    0.8308 N   0  0  0  0  0  0  0  0  0  0  0  0
    0.9099    3.0824   -0.2789 N   0  0  0  0  0  0  0  0  0  0  0  0
    0.6237   -3.5950    1.2069 N   0  0  0  0  0  0  0  0  0  0  0  0
    4.4894    1.3475    0.8907 C   0  0  1  0  0  0  0  0  0  0  0  0
    4.3977   -0.0185   -1.1482 C   0  0  2  0  0  0  0  0  0  0  0  0
    5.3449    0.6106   -0.1302 C   0  0  0  0  0  0  0  0  0  0  0  0
    3.6393    2.4422    0.2163 C   0  0  0  0  0  0  0  0  0  0  0  0
    3.6207    0.3264    1.6357 C   0  0  0  0  0  0  0  0  0  0  0  0
    3.6193    1.0948   -1.8696 C   0  0  0  0  0  0  0  0  0  0  0  0
    3.4287   -0.9801   -0.4861 C   0  0  0  0  0  0  0  0  0  0  0  0
    2.9487   -2.0348   -1.1703 C   0  0  0  0  0  0  0  0  0  0  0  0
    2.0801   -1.5737    1.4812 C   0  0  0  0  0  0  0  0  0  0  0  0
    1.5213    2.2549   -1.2204 C   0  0  0  0  0  0  0  0  0  0  0  0
    1.5694   -2.7055    0.6676 C   0  0  0  0  0  0  0  0  0  0  0  0
    1.9877   -2.9262   -0.5791 C   0  0  0  0  0  0  0  0  0  0  0  0
   -0.4623    3.1147    0.0721 C   0  0  0  0  0  0  0  0  0  0  0  0
   -1.3117   -1.9125    0.5009 C   0  0  0  0  0  0  0  0  0  0  0  0
   -1.3623    2.2502   -0.5512 C   0  0  0  0  0  0  0  0  0  0  0  0
   -0.9132    4.0102    1.0419 C   0  0  0  0  0  0  0  0  0  0  0  0
   -2.6420   -1.7380   -0.1642 C   0  0  0  0  0  0  0  0  0  0  0  0
   -2.7132    2.2813   -0.2047 C   0  0  0  0  0  0  0  0  0  0  0  0
   -2.2638    4.0414    1.3884 C   0  0  0  0  0  0  0  0  0  0  0  0
   -3.1638    3.1769    0.7652 C   0  0  0  0  0  0  0  0  0  0  0  0
   -3.8151   -1.8502    0.5823 C   0  0  0  0  0  0  0  0  0  0  0  0
   -2.7084   -1.4628   -1.5302 C   0  0  0  0  0  0  0  0  0  0  0  0
   -5.0542   -1.6874   -0.0370 C   0  0  0  0  0  0  0  0  0  0  0  0
   -3.9477   -1.3000   -2.1493 C   0  0  0  0  0  0  0  0  0  0  0  0
   -5.1206   -1.4124   -1.4027 C   0  0  0  0  0  0  0  0  0  0  0  0
   -5.3469    2.2961    0.4278 C   0  0  0  0  0  0  0  0  0  0  0  0
    5.1389    1.8411    1.6245 H   0  0  0  0  0  0  0  0  0  0  0  0
    5.0021   -0.5560   -1.8905 H   0  0  0  0  0  0  0  0  0  0  0  0
    6.0355    1.3049   -0.6243 H   0  0  0  0  0  0  0  0  0  0  0  0
    5.9566   -0.1576    0.3592 H   0  0  0  0  0  0  0  0  0  0  0  0
    3.0020    2.8991    0.9751 H   0  0  0  0  0  0  0  0  0  0  0  0
    4.2943    3.2303   -0.1745 H   0  0  0  0  0  0  0  0  0  0  0  0
    2.8273    0.8336    2.1990 H   0  0  0  0  0  0  0  0  0  0  0  0
    4.2416   -0.1846    2.3843 H   0  0  0  0  0  0  0  0  0  0  0  0
    2.9530    0.6652   -2.6257 H   0  0  0  0  0  0  0  0  0  0  0  0
    4.3148    1.7564   -2.4011 H   0  0  0  0  0  0  0  0  0  0  0  0
    3.2507   -2.2331   -2.1934 H   0  0  0  0  0  0  0  0  0  0  0  0
    1.6864   -3.7742   -1.1815 H   0  0  0  0  0  0  0  0  0  0  0  0
    1.4918    3.7335    0.2373 H   0  0  0  0  0  0  0  0  0  0  0  0
    0.5526   -3.5250    2.2312 H   0  0  0  0  0  0  0  0  0  0  0  0
   -0.5613   -1.3055   -0.0120 H   0  0  0  0  0  0  0  0  0  0  0  0
   -1.3517   -1.6142    1.5533 H   0  0  0  0  0  0  0  0  0  0  0  0
   -1.0681    1.5153   -1.2904 H   0  0  0  0  0  0  0  0  0  0  0  0
   -0.2222    4.6889    1.5356 H   0  0  0  0  0  0  0  0  0  0  0  0
   -3.3589    1.5829   -0.7244 H   0  0  0  0  0  0  0  0  0  0  0  0
   -2.6092    4.7410    2.1448 H   0  0  0  0  0  0  0  0  0  0  0  0
   -3.7775   -2.0623    1.6475 H   0  0  0  0  0  0  0  0  0  0  0  0
   -1.8022   -1.3703   -2.1230 H   0  0  0  0  0  0  0  0  0  0  0  0
   -5.9674   -1.7731    0.5445 H   0  0  0  0  0  0  0  0  0  0  0  0
   -3.9993   -1.0843   -3.2125 H   0  0  0  0  0  0  0  0  0  0  0  0
   -6.0854   -1.2841   -1.8846 H   0  0  0  0  0  0  0  0  0  0  0  0
   -5.3780    2.4907   -0.6495 H   0  0  0  0  0  0  0  0  0  0  0  0
   -5.0874    1.2585    0.6568 H   0  0  0  0  0  0  0  0  0  0  0  0
   -6.3581    2.4648    0.8122 H   0  0  0  0  0  0  0  0  0  0  0  0
  1  4  2  0  0  0  0
  1  5  2  0  0  0  0
  1 10  1  0  0  0  0
  1 24  1  0  0  0  0
  2 19  2  0  0  0  0
  3 20  2  0  0  0  0
  6 30  1  0  0  0  0
  6 36  1  0  0  0  0
  7 14  1  0  0  0  0
  7 16  1  0  0  0  0
  7 20  1  0  0  0  0
  8 15  1  0  0  0  0
  8 17  1  0  0  0  0
  8 19  1  0  0  0  0
  9 20  1  0  0  0  0
  9 23  1  0  0  0  0
  9 49  1  0  0  0  0
 10 21  1  0  0  0  0
 10 50  1  0  0  0  0
 11 13  1  0  0  0  0
 11 14  1  0  0  0  0
 11 15  1  0  0  0  0
 11 37  1  0  0  0  0
 12 13  1  0  0  0  0
 12 16  1  0  0  0  0
 12 17  1  0  0  0  0
 12 38  1  0  0  0  0
 13 39  1  0  0  0  0
 13 40  1  0  0  0  0
 14 41  1  0  0  0  0
 14 42  1  0  0  0  0
 15 43  1  0  0  0  0
 15 44  1  0  0  0  0
 16 45  1  0  0  0  0
 16 46  1  0  0  0  0
 17 18  2  0  0  0  0
 18 22  1  0  0  0  0
 18 47  1  0  0  0  0
 19 21  1  0  0  0  0
 21 22  2  0  0  0  0
 22 48  1  0  0  0  0
 23 25  2  0  0  0  0
 23 26  1  0  0  0  0
 24 27  1  0  0  0  0
 24 51  1  0  0  0  0
 24 52  1  0  0  0  0
 25 28  1  0  0  0  0
 25 53  1  0  0  0  0
 26 29  2  0  0  0  0
 26 54  1  0  0  0  0
 27 31  2  0  0  0  0
 27 32  1  0  0  0  0
 28 30  2  0  0  0  0
 28 55  1  0  0  0  0
 29 30  1  0  0  0  0
 29 56  1  0  0  0  0
 31 33  1  0  0  0  0
 31 57  1  0  0  0  0
 32 34  2  0  0  0  0
 32 58  1  0  0  0  0
 33 35  2  0  0  0  0
 33 59  1  0  0  0  0
 34 35  1  0  0  0  0
 34 60  1  0  0  0  0
 35 61  1  0  0  0  0
 36 62  1  0  0  0  0
 36 63  1  0  0  0  0
 36 64  1  0  0  0  0
M  END
> <PUBCHEM_COMPOUND_CID>
7051381

> <PUBCHEM_CONFORMER_RMSD>
1

> <PUBCHEM_CONFORMER_DIVERSEORDER>
1
266
93
287
269
243
262
24
221
73
134
302
175
81
316
248
15
87
317
325
253
194
115
193
291
169
136
53
7
280
304
209
114
231
184
251
298
265
292
170
295
233
255
225
181
277
311
264
249
105
229
308
142
200
226
216
256
198
213
246
299
116
331
271
132
70
215
162
281
67
234
83
293
79
82
65
205
35
212
268
239
202
44
127
247
52
166
206
315
272
25
120
296
230
107
69
204
85
289
192
285
324
22
43
261
2
329
5
330
257
236
185
294
60
322
32
300
182
203
64
123
163
297
148
113
131
159
56
165
237
220
4
141
260
55
240
245
196
242
95
323
250
232
314
146
92
284
307
279
197
320
227
103
303
235
276
156
111
222
21
312
57
28
258
19
223
270
201
310
153
186
305
63
267
178
121
133
177
62
74
126
152
84
110
238
106
49
210
138
48
34
86
151
8
30
94
122
140
150
188
47
327
90
167
144
14
195
10
3
29
125
168
199
290
137
147
244
171
282
207
13
72
173
6
91
118
214
190
263
318
36
46
328
174
286
145
275
18
143
228
219
180
96
124
119
31
208
154
112
42
77
68
88
117
259
288
176
278
23
98
100
301
135
76
16
241
129
161
313
191
71
54
139
306
211
155
61
224
274
39
283
273
109
58
319
33
108
11
179
218
37
102
254
183
9
50
97
158
80
89
321
104
309
40
128
17
217
45
172
187
38
189
59
164
252
12
99
157
160
101
26
78
20
66
149
326
27
51
41
130
75

> <PUBCHEM_MMFF94_PARTIAL_CHARGES>
47
1 1.33
10 -0.75
12 0.14
14 0.3
15 0.3
16 0.3
17 -0.03
18 -0.15
19 0.62
2 -0.57
20 0.69
21 0.21
22 -0.15
23 0.12
24 0.25
25 -0.15
26 -0.15
27 -0.14
28 -0.15
29 -0.15
3 -0.57
30 0.08
31 -0.15
32 -0.15
33 -0.15
34 -0.15
35 -0.15
36 0.28
4 -0.65
47 0.15
48 0.15
49 0.37
5 -0.65
50 0.42
53 0.15
54 0.15
55 0.15
56 0.15
57 0.15
58 0.15
59 0.15
6 -0.36
60 0.15
61 0.15
7 -0.66
8 -0.47
9 -0.55

> <PUBCHEM_EFFECTIVE_ROTOR_COUNT>
9

> <PUBCHEM_PHARMACOPHORE_FEATURES>
12
1 10 donor
1 2 acceptor
1 3 acceptor
1 4 acceptor
1 5 acceptor
1 6 acceptor
1 9 donor
6 23 25 26 28 29 30 rings
6 27 31 32 33 34 35 rings
6 7 11 12 13 14 16 rings
6 8 11 12 13 15 17 rings
6 8 17 18 19 21 22 rings

> <PUBCHEM_HEAVY_ATOM_COUNT>
36

> <PUBCHEM_ATOM_DEF_STEREO_COUNT>
2

> <PUBCHEM_ATOM_UDEF_STEREO_COUNT>
0

> <PUBCHEM_BOND_DEF_STEREO_COUNT>
0

> <PUBCHEM_BOND_UDEF_STEREO_COUNT>
0

> <PUBCHEM_ISOTOPIC_ATOM_COUNT>
0

> <PUBCHEM_COMPONENT_COUNT>
1

> <PUBCHEM_CACTVS_TAUTO_COUNT>
2

> <PUBCHEM_CONFORMER_ID>
006B987500000001

> <PUBCHEM_MMFF94_ENERGY>
109.4196

> <PUBCHEM_FEATURE_SELFOVERLAP>
62.473

> <PUBCHEM_SHAPE_FINGERPRINT>
10190206 1 17756458163650176228
11513181 2 18202002079745077911
11646440 116 18265899235862219050
12156800 1 14578392284634305132
12788726 201 18411696603750765409
13122387 1 17760645871640429068
13140716 1 18192988218974681518
13165054 235 18195221375221221661
1361 2 18192439558841912065
15001296 14 18408322177249582385
150020 26 16468385320362076579
15297060 5 18129946667629131241
15351339 4 18337379544121137313
15968369 153 18341622550844969753
15975801 100 17318189224892175486
161222 10 18263661596761359668
20567600 299 17692814109063041030
20764821 26 18337953368235354899
21133410 38 18272090453495722321
3027735 51 18411703201295435153
338550 245 18335432243939562101
45266715 3 17694471026569771821
463206 1 18194962078864834639
469060 322 16877950433912589183
5776283 40 18053968168552242662
6004065 56 17839444932794358543
6287921 2 17619913851084723121
653340 110 18413668015383699848

> <PUBCHEM_SHAPE_MULTIPOLES>
695.44
10.29
6.41
1.83
2.5
0.73
0.15
1.93
1.28
4.7
-1.86
-0.39
-0.27
-1.89

> <PUBCHEM_SHAPE_SELFOVERLAP>
1500.062

> <PUBCHEM_SHAPE_VOLUME>
381.5

> <PUBCHEM_COORDINATE_TYPE>
2
5
10

$$$$
