26742498
  -OEChem-12032416183D

 59 62  0     1  0  0  0  0  0999 V2000
    4.0247    2.4775   -1.3708 Br  0  0  0  0  0  0  0  0  0  0  0  0
   -6.4325    1.1827   -1.2993 S   0  0  0  0  0  0  0  0  0  0  0  0
   -4.6176    2.9108    0.5420 O   0  0  0  0  0  0  0  0  0  0  0  0
   -6.1502   -2.5773   -0.3569 O   0  0  0  0  0  0  0  0  0  0  0  0
   -7.8710   -1.3928   -1.2521 O   0  0  0  0  0  0  0  0  0  0  0  0
   -1.0557    0.7785    2.5364 N   0  0  2  0  0  0  0  0  0  0  0  0
   -2.8516    1.8878   -0.5740 N   0  0  0  0  0  0  0  0  0  0  0  0
    1.1984   -1.5955   -0.6423 N   0  0  0  0  0  0  0  0  0  0  0  0
    3.3792   -1.1501   -1.5661 N   0  0  0  0  0  0  0  0  0  0  0  0
   -0.8202   -1.5494    1.3927 C   0  0  2  0  0  0  0  0  0  0  0  0
    0.5783   -0.9127    1.6230 C   0  0  2  0  0  0  0  0  0  0  0  0
   -1.9596    0.6970    1.3589 C   0  0  2  0  0  0  0  0  0  0  0  0
   -1.6854   -0.5889    0.5497 C   0  0  0  0  0  0  0  0  0  0  0  0
   -1.4902   -1.6655    2.7786 C   0  0  0  0  0  0  0  0  0  0  0  0
    0.3485    0.5444    2.1167 C   0  0  0  0  0  0  0  0  0  0  0  0
   -1.4418   -0.2972    3.4809 C   0  0  0  0  0  0  0  0  0  0  0  0
   -1.8884    1.9488    0.4817 C   0  0  0  0  0  0  0  0  0  0  0  0
    1.5961   -0.9859    0.4937 C   0  0  0  0  0  0  0  0  0  0  0  0
    2.8515   -0.4418    0.6729 C   0  0  0  0  0  0  0  0  0  0  0  0
    3.7100   -0.5543   -0.4017 C   0  0  0  0  0  0  0  0  0  0  0  0
   -4.1518    2.3766   -0.4630 C   0  0  0  0  0  0  0  0  0  0  0  0
    2.1265   -1.6416   -1.6171 C   0  0  0  0  0  0  0  0  0  0  0  0
    5.0525   -0.0273   -0.3415 C   0  0  0  0  0  0  0  0  0  0  0  0
   -4.9784    2.1762   -1.7114 C   0  0  0  0  0  0  0  0  0  0  0  0
    1.7245   -2.3098   -2.8883 C   0  0  0  0  0  0  0  0  0  0  0  0
    5.3529    1.2781   -0.7302 C   0  0  0  0  0  0  0  0  0  0  0  0
    6.0648   -0.8678    0.1215 C   0  0  0  0  0  0  0  0  0  0  0  0
    6.6660    1.7431   -0.6557 C   0  0  0  0  0  0  0  0  0  0  0  0
    7.3778   -0.4027    0.1958 C   0  0  0  0  0  0  0  0  0  0  0  0
   -5.6536   -0.4493   -1.3035 C   0  0  0  0  0  0  0  0  0  0  0  0
    7.6784    0.9026   -0.1928 C   0  0  0  0  0  0  0  0  0  0  0  0
   -6.6820   -1.4940   -0.9779 C   0  0  0  0  0  0  0  0  0  0  0  0
   -0.7507   -2.5339    0.9182 H   0  0  0  0  0  0  0  0  0  0  0  0
    1.0426   -1.4766    2.4471 H   0  0  0  0  0  0  0  0  0  0  0  0
   -2.9921    0.6444    1.7357 H   0  0  0  0  0  0  0  0  0  0  0  0
   -1.1829   -0.3719   -0.3994 H   0  0  0  0  0  0  0  0  0  0  0  0
   -2.6366   -1.0761    0.3040 H   0  0  0  0  0  0  0  0  0  0  0  0
   -0.9767   -2.4162    3.3906 H   0  0  0  0  0  0  0  0  0  0  0  0
   -2.5298   -1.9957    2.6636 H   0  0  0  0  0  0  0  0  0  0  0  0
    1.0102    0.7434    2.9704 H   0  0  0  0  0  0  0  0  0  0  0  0
    0.6382    1.2823    1.3596 H   0  0  0  0  0  0  0  0  0  0  0  0
   -2.4188   -0.0722    3.9261 H   0  0  0  0  0  0  0  0  0  0  0  0
   -0.7360   -0.3254    4.3208 H   0  0  0  0  0  0  0  0  0  0  0  0
   -0.9086    2.0631    0.0074 H   0  0  0  0  0  0  0  0  0  0  0  0
   -2.0763    2.8451    1.0842 H   0  0  0  0  0  0  0  0  0  0  0  0
   -2.5627    1.4545   -1.4461 H   0  0  0  0  0  0  0  0  0  0  0  0
    3.1466    0.0367    1.5992 H   0  0  0  0  0  0  0  0  0  0  0  0
   -4.4111    1.7121   -2.5230 H   0  0  0  0  0  0  0  0  0  0  0  0
   -5.3053    3.1622   -2.0567 H   0  0  0  0  0  0  0  0  0  0  0  0
    2.0519   -3.3535   -2.8764 H   0  0  0  0  0  0  0  0  0  0  0  0
    0.6377   -2.2850   -3.0166 H   0  0  0  0  0  0  0  0  0  0  0  0
    2.1790   -1.8080   -3.7482 H   0  0  0  0  0  0  0  0  0  0  0  0
    5.8506   -1.8890    0.4285 H   0  0  0  0  0  0  0  0  0  0  0  0
    6.9208    2.7570   -0.9538 H   0  0  0  0  0  0  0  0  0  0  0  0
    8.1662   -1.0570    0.5561 H   0  0  0  0  0  0  0  0  0  0  0  0
   -4.8746   -0.4696   -0.5370 H   0  0  0  0  0  0  0  0  0  0  0  0
   -5.2235   -0.6748   -2.2830 H   0  0  0  0  0  0  0  0  0  0  0  0
    8.7008    1.2644   -0.1348 H   0  0  0  0  0  0  0  0  0  0  0  0
   -6.8308   -3.2547   -0.1559 H   0  0  0  0  0  0  0  0  0  0  0  0
  1 26  1  0  0  0  0
  2 24  1  0  0  0  0
  2 30  1  0  0  0  0
  3 21  2  0  0  0  0
  4 32  1  0  0  0  0
  4 59  1  0  0  0  0
  5 32  2  0  0  0  0
  6 12  1  0  0  0  0
  6 15  1  0  0  0  0
  6 16  1  0  0  0  0
  7 17  1  0  0  0  0
  7 21  1  0  0  0  0
  7 46  1  0  0  0  0
  8 18  2  0  0  0  0
  8 22  1  0  0  0  0
  9 20  1  0  0  0  0
  9 22  2  0  0  0  0
 10 11  1  0  0  0  0
 10 13  1  0  0  0  0
 10 14  1  0  0  0  0
 10 33  1  0  0  0  0
 11 15  1  0  0  0  0
 11 18  1  0  0  0  0
 11 34  1  0  0  0  0
 12 13  1  0  0  0  0
 12 17  1  0  0  0  0
 12 35  1  0  0  0  0
 13 36  1  0  0  0  0
 13 37  1  0  0  0  0
 14 16  1  0  0  0  0
 14 38  1  0  0  0  0
 14 39  1  0  0  0  0
 15 40  1  0  0  0  0
 15 41  1  0  0  0  0
 16 42  1  0  0  0  0
 16 43  1  0  0  0  0
 17 44  1  0  0  0  0
 17 45  1  0  0  0  0
 18 19  1  0  0  0  0
 19 20  2  0  0  0  0
 19 47  1  0  0  0  0
 20 23  1  0  0  0  0
 21 24  1  0  0  0  0
 22 25  1  0  0  0  0
 23 26  1  0  0  0  0
 23 27  2  0  0  0  0
 24 48  1  0  0  0  0
 24 49  1  0  0  0  0
 25 50  1  0  0  0  0
 25 51  1  0  0  0  0
 25 52  1  0  0  0  0
 26 28  2  0  0  0  0
 27 29  1  0  0  0  0
 27 53  1  0  0  0  0
 28 31  1  0  0  0  0
 28 54  1  0  0  0  0
 29 31  2  0  0  0  0
 29 55  1  0  0  0  0
 30 32  1  0  0  0  0
 30 56  1  0  0  0  0
 30 57  1  0  0  0  0
 31 58  1  0  0  0  0
M  END
> <PUBCHEM_COMPOUND_CID>
26742498

> <PUBCHEM_CONFORMER_RMSD>
1

> <PUBCHEM_CONFORMER_DIVERSEORDER>
1
68
75
31
82
67
20
89
17
111
99
56
113
62
34
69
70
54
105
108
81
85
88
114
112
30
40
101
72
41
103
57
19
65
87
66
76
13
80
96
102
24
86
97
107
95
9
83
33
48
22
47
37
14
52
23
110
7
63
10
104
64
100
106
35
55
109
42
58
26
91
27
4
44
53
115
60
39
78
6
16
94
84
38
73
5
15
51
50
21
36
98
92
61
43
59
93
71
49
12
77
79
28
46
11
32
90
45
8
25
3
18
74
2
29

> <PUBCHEM_MMFF94_PARTIAL_CHARGES>
35
1 -0.11
11 0.14
12 0.27
15 0.27
16 0.27
17 0.3
18 0.17
19 -0.15
2 -0.46
20 0.31
21 0.57
22 0.48
24 0.29
25 0.14
26 0.11
27 -0.15
28 -0.15
29 -0.15
3 -0.57
30 0.29
31 -0.15
32 0.66
4 -0.65
46 0.37
47 0.15
5 -0.57
53 0.15
54 0.15
55 0.15
58 0.15
59 0.5
6 -0.81
7 -0.73
8 -0.62
9 -0.62

> <PUBCHEM_EFFECTIVE_ROTOR_COUNT>
10.2

> <PUBCHEM_PHARMACOPHORE_FEATURES>
12
1 1 hydrophobe
1 3 acceptor
1 4 acceptor
1 5 acceptor
1 6 cation
1 7 donor
1 8 acceptor
3 4 5 32 anion
3 8 9 22 cation
6 23 26 27 28 29 31 rings
6 8 9 18 19 20 22 rings
8 6 10 11 12 13 14 15 16 rings

> <PUBCHEM_HEAVY_ATOM_COUNT>
32

> <PUBCHEM_ATOM_DEF_STEREO_COUNT>
3

> <PUBCHEM_ATOM_UDEF_STEREO_COUNT>
0

> <PUBCHEM_BOND_DEF_STEREO_COUNT>
0

> <PUBCHEM_BOND_UDEF_STEREO_COUNT>
0

> <PUBCHEM_ISOTOPIC_ATOM_COUNT>
0

> <PUBCHEM_COMPONENT_COUNT>
1

> <PUBCHEM_CACTVS_TAUTO_COUNT>
2

> <PUBCHEM_CONFORMER_ID>
01980EE200000001

> <PUBCHEM_MMFF94_ENERGY>
83.5623

> <PUBCHEM_FEATURE_SELFOVERLAP>
60.953

> <PUBCHEM_SHAPE_FINGERPRINT>
10076449 9 17561081449383398567
10577160 103 18190461743170399441
11135609 12 12319742466395436064
11374522 165 13552006903347706839
11672396 43 17702952431475355630
12128747 34 8574441936763385373
12633257 1 12974188279996065504
12788726 201 14835837301507332301
13103583 49 12396598320671738584
13583140 156 18261686951962790594
13726171 33 18265612088315424117
13911987 19 17846506941714246640
13914758 101 17894908538458429218
14040221 97 16983753311555490328
14295345 954 18186523198204537742
14767858 380 17132112429498286948
14932701 244 18260263036896579437
14950920 106 12397173386237525192
15142383 8 12107786303095370950
15361156 5 17845923054075072933
15461852 350 18343024389705244564
15537594 2 15913035487722848221
15669420 48 18341611542743322461
19304144 158 18129935672550263524
20567600 254 16660362541579360081
21033648 29 16733824354348419872
21403212 168 14490182804422735850
22440779 20 16415479321100710777
22889206 1 8574171456893507065
25269216 80 18336817655509831005
2838139 119 17749108850770486949
3737641 26 12679190370714888364
4098825 35 18341611477897047335
4366758 6 16370719340388547163
437815 12 12751222706371582969
5912855 24 15912501073453214619
6086070 43 12468642780788891511
6371009 1 16298387929147759997
6371380 46 10881405343651105189
6691757 9 17095532781190481120

> <PUBCHEM_SHAPE_MULTIPOLES>
630.8
19.77
2.87
2.61
1.39
1.16
0.57
8.2
8.21
2.38
-0.93
2.01
-1.39
-0.27

> <PUBCHEM_SHAPE_SELFOVERLAP>
1316.889

> <PUBCHEM_SHAPE_VOLUME>
366.2

> <PUBCHEM_COORDINATE_TYPE>
2
5
10

$$$$
