11912816
  -OEChem-12032416283D

 53 57  0     1  0  0  0  0  0999 V2000
   -2.3529   -2.9060   -1.4740 O   0  0  0  0  0  0  0  0  0  0  0  0
   -0.9314   -0.1895   -2.0541 O   0  0  0  0  0  0  0  0  0  0  0  0
   -5.7099   -0.5612   -0.2869 O   0  0  0  0  0  0  0  0  0  0  0  0
   -4.3253    2.4869    0.8098 O   0  0  0  0  0  0  0  0  0  0  0  0
    6.1464    3.2405   -1.0043 O   0  0  0  0  0  0  0  0  0  0  0  0
    0.2933   -2.8464    0.1299 N   0  0  0  0  0  0  0  0  0  0  0  0
   -3.6877    0.4232   -0.7549 N   0  0  0  0  0  0  0  0  0  0  0  0
    2.1158   -1.3883    0.3723 N   0  0  0  0  0  0  0  0  0  0  0  0
    1.6272   -3.0477    2.0500 N   0  0  0  0  0  0  0  0  0  0  0  0
   -0.9670   -1.0565   -0.9080 C   0  0  1  0  0  0  0  0  0  0  0  0
   -2.3691   -1.6269   -0.8188 C   0  0  1  0  0  0  0  0  0  0  0  0
   -0.0904   -2.2650   -1.1378 C   0  0  2  0  0  0  0  0  0  0  0  0
   -3.2151   -0.6471   -1.5993 C   0  0  2  0  0  0  0  0  0  0  0  0
   -1.0126   -3.2069   -1.8898 C   0  0  0  0  0  0  0  0  0  0  0  0
   -2.2390   -0.1345   -2.6433 C   0  0  0  0  0  0  0  0  0  0  0  0
    1.3776   -2.4145    0.8730 C   0  0  0  0  0  0  0  0  0  0  0  0
   -4.9390    0.3891   -0.1402 C   0  0  0  0  0  0  0  0  0  0  0  0
   -5.2638    1.5385    0.7160 C   0  0  0  0  0  0  0  0  0  0  0  0
    3.1653   -0.9930    1.1223 C   0  0  0  0  0  0  0  0  0  0  0  0
   -6.3713    1.7976    1.4339 C   0  0  0  0  0  0  0  0  0  0  0  0
    2.6917   -2.6013    2.7485 C   0  0  0  0  0  0  0  0  0  0  0  0
    3.5044   -1.5677    2.3302 C   0  0  0  0  0  0  0  0  0  0  0  0
    3.9345    0.0980    0.5732 C   0  0  0  0  0  0  0  0  0  0  0  0
   -6.1134    3.0441    2.0526 C   0  0  0  0  0  0  0  0  0  0  0  0
   -4.8563    3.4216    1.6411 C   0  0  0  0  0  0  0  0  0  0  0  0
    5.2999    0.2012    0.8481 C   0  0  0  0  0  0  0  0  0  0  0  0
    3.3157    1.0548   -0.2344 C   0  0  0  0  0  0  0  0  0  0  0  0
    6.0427    1.2563    0.3182 C   0  0  0  0  0  0  0  0  0  0  0  0
    4.0586    2.1097   -0.7644 C   0  0  0  0  0  0  0  0  0  0  0  0
    5.4221    2.2105   -0.4881 C   0  0  0  0  0  0  0  0  0  0  0  0
    5.4489    4.1803   -1.8204 C   0  0  0  0  0  0  0  0  0  0  0  0
   -0.6991   -0.4515   -0.0358 H   0  0  0  0  0  0  0  0  0  0  0  0
   -2.7003   -1.7904    0.2118 H   0  0  0  0  0  0  0  0  0  0  0  0
    0.7927   -2.0592   -1.7535 H   0  0  0  0  0  0  0  0  0  0  0  0
   -4.0743   -1.1223   -2.0849 H   0  0  0  0  0  0  0  0  0  0  0  0
   -0.9608   -3.0252   -2.9690 H   0  0  0  0  0  0  0  0  0  0  0  0
   -0.8077   -4.2671   -1.7114 H   0  0  0  0  0  0  0  0  0  0  0  0
   -2.4441    0.8873   -2.9771 H   0  0  0  0  0  0  0  0  0  0  0  0
   -2.2265   -0.7883   -3.5223 H   0  0  0  0  0  0  0  0  0  0  0  0
   -0.2802   -3.5763    0.5373 H   0  0  0  0  0  0  0  0  0  0  0  0
   -3.0648    1.2036   -0.5642 H   0  0  0  0  0  0  0  0  0  0  0  0
   -7.2622    1.1927    1.5225 H   0  0  0  0  0  0  0  0  0  0  0  0
    2.8757   -3.1110    3.6882 H   0  0  0  0  0  0  0  0  0  0  0  0
    4.3289   -1.2444    2.9524 H   0  0  0  0  0  0  0  0  0  0  0  0
   -6.7623    3.5982    2.7153 H   0  0  0  0  0  0  0  0  0  0  0  0
   -4.2309    4.2799    1.8396 H   0  0  0  0  0  0  0  0  0  0  0  0
    5.8287   -0.5328    1.4501 H   0  0  0  0  0  0  0  0  0  0  0  0
    2.2525    1.0109   -0.4600 H   0  0  0  0  0  0  0  0  0  0  0  0
    7.1057    1.3272    0.5322 H   0  0  0  0  0  0  0  0  0  0  0  0
    3.5135    2.8168   -1.3804 H   0  0  0  0  0  0  0  0  0  0  0  0
    4.6770    4.7111   -1.2530 H   0  0  0  0  0  0  0  0  0  0  0  0
    6.1782    4.9295   -2.1459 H   0  0  0  0  0  0  0  0  0  0  0  0
    5.0492    3.7093   -2.7249 H   0  0  0  0  0  0  0  0  0  0  0  0
  1 11  1  0  0  0  0
  1 14  1  0  0  0  0
  2 10  1  0  0  0  0
  2 15  1  0  0  0  0
  3 17  2  0  0  0  0
  4 18  1  0  0  0  0
  4 25  1  0  0  0  0
  5 30  1  0  0  0  0
  5 31  1  0  0  0  0
  6 12  1  0  0  0  0
  6 16  1  0  0  0  0
  6 40  1  0  0  0  0
  7 13  1  0  0  0  0
  7 17  1  0  0  0  0
  7 41  1  0  0  0  0
  8 16  1  0  0  0  0
  8 19  2  0  0  0  0
  9 16  2  0  0  0  0
  9 21  1  0  0  0  0
 10 11  1  0  0  0  0
 10 12  1  0  0  0  0
 10 32  1  0  0  0  0
 11 13  1  0  0  0  0
 11 33  1  0  0  0  0
 12 14  1  0  0  0  0
 12 34  1  0  0  0  0
 13 15  1  0  0  0  0
 13 35  1  0  0  0  0
 14 36  1  0  0  0  0
 14 37  1  0  0  0  0
 15 38  1  0  0  0  0
 15 39  1  0  0  0  0
 17 18  1  0  0  0  0
 18 20  2  0  0  0  0
 19 22  1  0  0  0  0
 19 23  1  0  0  0  0
 20 24  1  0  0  0  0
 20 42  1  0  0  0  0
 21 22  2  0  0  0  0
 21 43  1  0  0  0  0
 22 44  1  0  0  0  0
 23 26  2  0  0  0  0
 23 27  1  0  0  0  0
 24 25  2  0  0  0  0
 24 45  1  0  0  0  0
 25 46  1  0  0  0  0
 26 28  1  0  0  0  0
 26 47  1  0  0  0  0
 27 29  2  0  0  0  0
 27 48  1  0  0  0  0
 28 30  2  0  0  0  0
 28 49  1  0  0  0  0
 29 30  1  0  0  0  0
 29 50  1  0  0  0  0
 31 51  1  0  0  0  0
 31 52  1  0  0  0  0
 31 53  1  0  0  0  0
M  END
> <PUBCHEM_COMPOUND_CID>
11912816

> <PUBCHEM_CONFORMER_RMSD>
1

> <PUBCHEM_CONFORMER_DIVERSEORDER>
1
168
160
18
136
49
112
41
84
146
175
182
165
39
69
14
105
94
123
102
178
132
16
161
99
58
38
125
109
114
44
22
89
34
45
149
53
6
85
166
88
154
103
170
52
37
21
129
46
183
83
100
63
139
97
96
143
31
12
135
66
104
78
169
128
158
59
171
71
77
152
65
75
120
126
156
151
106
188
64
137
144
124
60
43
177
130
86
163
70
101
40
54
179
108
7
98
33
50
32
36
17
148
30
113
138
147
11
140
184
68
133
131
174
91
95
111
51
55
185
82
150
173
142
80
67
5
19
172
48
159
181
134
118
10
47
93
61
121
76
57
72
110
116
4
24
187
107
145
167
176
13
141
155
25
127
162
20
180
186
42
117
3
122
164
15
62
56
90
119
79
9
27
115
81
26
29
157
153
87
73
74
92
8
35
2
28
23

> <PUBCHEM_MMFF94_PARTIAL_CHARGES>
41
1 -0.56
10 0.28
11 0.28
12 0.37
13 0.3
14 0.28
15 0.28
16 0.72
17 0.71
18 0.05
19 0.31
2 -0.56
20 -0.15
21 0.16
22 -0.15
24 -0.15
25 -0.01
26 -0.15
27 -0.15
28 -0.15
29 -0.15
3 -0.57
30 0.08
31 0.28
4 -0.28
40 0.4
41 0.37
42 0.15
43 0.15
44 0.15
45 0.15
46 0.15
47 0.15
48 0.15
49 0.15
5 -0.36
50 0.15
6 -0.87
7 -0.73
8 -0.62
9 -0.62

> <PUBCHEM_EFFECTIVE_ROTOR_COUNT>
8.2

> <PUBCHEM_PHARMACOPHORE_FEATURES>
14
1 1 acceptor
1 2 acceptor
1 3 acceptor
1 4 acceptor
1 5 acceptor
1 6 donor
1 7 donor
1 8 acceptor
4 6 8 9 16 cation
5 1 10 11 12 14 rings
5 2 10 11 13 15 rings
5 4 18 20 24 25 rings
6 23 26 27 28 29 30 rings
6 8 9 16 19 21 22 rings

> <PUBCHEM_HEAVY_ATOM_COUNT>
31

> <PUBCHEM_ATOM_DEF_STEREO_COUNT>
4

> <PUBCHEM_ATOM_UDEF_STEREO_COUNT>
0

> <PUBCHEM_BOND_DEF_STEREO_COUNT>
0

> <PUBCHEM_BOND_UDEF_STEREO_COUNT>
0

> <PUBCHEM_ISOTOPIC_ATOM_COUNT>
0

> <PUBCHEM_COMPONENT_COUNT>
1

> <PUBCHEM_CACTVS_TAUTO_COUNT>
6

> <PUBCHEM_CONFORMER_ID>
00B5C67000000001

> <PUBCHEM_MMFF94_ENERGY>
90.1091

> <PUBCHEM_FEATURE_SELFOVERLAP>
71.757

> <PUBCHEM_SHAPE_FINGERPRINT>
100830 2 18341901749041192121
10674148 151 18271813402731089252
10917259 128 18128521851944543392
1200032 147 18340218422782442954
12422481 6 18048591526332058617
12975358 362 17555192263733257673
13383661 66 9792855860470591373
13583140 156 17243835888919296479
13782708 43 15431433924353670034
13828863 39 18335145314586006721
13885169 86 18188212125579960764
14251764 75 18409173228992394792
14765038 42 18261678189897574180
14790565 3 18272651233937200129
14848178 5 13912616992090408115
14950920 106 17823131216827358123
15163728 17 17989209209697601423
15297060 5 17632581521847541010
15510800 12 14273745019243965619
16067690 210 17774717666525104232
16112460 7 18262799704637714308
16120349 67 17988655085463707336
1768 23 18342462521282183281
19304671 126 15123495983453110595
21033650 10 17203314650492300455
21302155 148 18059292046719132689
21458453 9 16443928178655977240
21585480 29 17241342368709949963
21756936 100 17988633112690875503
21796203 349 17606384468327801410
23398203 216 17465394401082276036
3552219 110 18191860344253698383
38570 142 18334303084727242950
392239 28 17458057162273451067
437795 70 14261078627800828995
4408954 64 16310775847574884563
5252454 2 18190160451562257492
57035037 87 18115016417724127509
57634706 229 17606694771398989860
57724786 102 18339357457474766426
5911458 16 18412268341329282352
6034566 193 18342462543194486065
6058803 2 18266996480017184422
6608658 132 17845635024635117445
7808743 9 18130783460708592479
86090 222 15866054356738142467

> <PUBCHEM_SHAPE_MULTIPOLES>
588.69
16.62
4.95
2.52
5.19
1.84
-0.3
21.25
-4.51
-1.75
-0.11
0.37
-0.77
-7.9

> <PUBCHEM_SHAPE_SELFOVERLAP>
1297.99

> <PUBCHEM_SHAPE_VOLUME>
316.3

> <PUBCHEM_COORDINATE_TYPE>
2
5
10

$$$$
