51137074
  -OEChem-12032416293D

 36 39  0     1  0  0  0  0  0999 V2000
   -1.9218   -1.5829    1.0636 S   0  0  0  0  0  0  0  0  0  0  0  0
    2.8604   -0.4038   -0.1143 N   0  0  1  0  0  0  0  0  0  0  0  0
   -1.2414    0.3132   -0.5470 N   0  0  0  0  0  0  0  0  0  0  0  0
    3.7801    0.7393   -0.0818 C   0  0  0  0  0  0  0  0  0  0  0  0
    4.3400    0.9121    1.3456 C   0  0  0  0  0  0  0  0  0  0  0  0
    5.1926    0.2788   -0.4978 C   0  0  0  0  0  0  0  0  0  0  0  0
    1.6288   -0.1020    0.6204 C   0  0  0  0  0  0  0  0  0  0  0  0
    5.7274    1.0968    0.6961 C   0  0  0  0  0  0  0  0  0  0  0  0
    0.6567   -1.1739    0.1095 C   0  0  2  0  0  0  0  0  0  0  0  0
    2.4223   -0.6782   -1.4840 C   0  0  0  0  0  0  0  0  0  0  0  0
    1.1986   -1.5616   -1.2775 C   0  0  0  0  0  0  0  0  0  0  0  0
   -0.7841   -0.7184    0.1234 C   0  0  0  0  0  0  0  0  0  0  0  0
   -3.1584   -0.4979    0.5468 C   0  0  0  0  0  0  0  0  0  0  0  0
   -2.6019    0.4526   -0.3143 C   0  0  0  0  0  0  0  0  0  0  0  0
   -4.5224   -0.4885    0.8797 C   0  0  0  0  0  0  0  0  0  0  0  0
   -3.4427    1.4466   -0.8605 C   0  0  0  0  0  0  0  0  0  0  0  0
   -5.3324    0.5058    0.3256 C   0  0  0  0  0  0  0  0  0  0  0  0
   -4.8017    1.4618   -0.5334 C   0  0  0  0  0  0  0  0  0  0  0  0
    3.4392    1.6698   -0.5521 H   0  0  0  0  0  0  0  0  0  0  0  0
    4.2928    0.0290    1.9954 H   0  0  0  0  0  0  0  0  0  0  0  0
    3.9655    1.7770    1.9004 H   0  0  0  0  0  0  0  0  0  0  0  0
    5.3956   -0.7955   -0.4043 H   0  0  0  0  0  0  0  0  0  0  0  0
    5.5291    0.6150   -1.4825 H   0  0  0  0  0  0  0  0  0  0  0  0
    1.2624    0.9091    0.3967 H   0  0  0  0  0  0  0  0  0  0  0  0
    1.7636   -0.1817    1.7046 H   0  0  0  0  0  0  0  0  0  0  0  0
    6.5694    0.6574    1.2364 H   0  0  0  0  0  0  0  0  0  0  0  0
    5.9635    2.1379    0.4476 H   0  0  0  0  0  0  0  0  0  0  0  0
    0.7646   -2.0597    0.7526 H   0  0  0  0  0  0  0  0  0  0  0  0
    3.1902   -1.1901   -2.0725 H   0  0  0  0  0  0  0  0  0  0  0  0
    2.1311    0.2387   -2.0128 H   0  0  0  0  0  0  0  0  0  0  0  0
    0.4695   -1.4260   -2.0834 H   0  0  0  0  0  0  0  0  0  0  0  0
    1.4933   -2.6185   -1.2714 H   0  0  0  0  0  0  0  0  0  0  0  0
   -4.9438   -1.2317    1.5496 H   0  0  0  0  0  0  0  0  0  0  0  0
   -3.0385    2.1982   -1.5326 H   0  0  0  0  0  0  0  0  0  0  0  0
   -6.3911    0.5310    0.5703 H   0  0  0  0  0  0  0  0  0  0  0  0
   -5.4470    2.2277   -0.9548 H   0  0  0  0  0  0  0  0  0  0  0  0
  1 12  1  0  0  0  0
  1 13  1  0  0  0  0
  2  4  1  0  0  0  0
  2  7  1  0  0  0  0
  2 10  1  0  0  0  0
  3 12  2  0  0  0  0
  3 14  1  0  0  0  0
  4  5  1  0  0  0  0
  4  6  1  0  0  0  0
  4 19  1  0  0  0  0
  5  8  1  0  0  0  0
  5 20  1  0  0  0  0
  5 21  1  0  0  0  0
  6  8  1  0  0  0  0
  6 22  1  0  0  0  0
  6 23  1  0  0  0  0
  7  9  1  0  0  0  0
  7 24  1  0  0  0  0
  7 25  1  0  0  0  0
  8 26  1  0  0  0  0
  8 27  1  0  0  0  0
  9 11  1  0  0  0  0
  9 12  1  0  0  0  0
  9 28  1  0  0  0  0
 10 11  1  0  0  0  0
 10 29  1  0  0  0  0
 10 30  1  0  0  0  0
 11 31  1  0  0  0  0
 11 32  1  0  0  0  0
 13 14  1  0  0  0  0
 13 15  2  0  0  0  0
 14 16  2  0  0  0  0
 15 17  1  0  0  0  0
 15 33  1  0  0  0  0
 16 18  1  0  0  0  0
 16 34  1  0  0  0  0
 17 18  2  0  0  0  0
 17 35  1  0  0  0  0
 18 36  1  0  0  0  0
M  END
> <PUBCHEM_COMPOUND_CID>
51137074

> <PUBCHEM_CONFORMER_RMSD>
0.6

> <PUBCHEM_CONFORMER_DIVERSEORDER>
1
11
12
13
6
16
15
10
7
4
14
5
3
8
9
2

> <PUBCHEM_MMFF94_PARTIAL_CHARGES>
18
1 -0.08
10 0.27
12 0.2
13 0.04
14 0.23
15 -0.15
16 -0.15
17 -0.15
18 -0.15
2 -0.75
3 -0.57
33 0.15
34 0.15
35 0.15
36 0.15
4 0.21
7 0.27
9 0.18

> <PUBCHEM_EFFECTIVE_ROTOR_COUNT>
3.8

> <PUBCHEM_PHARMACOPHORE_FEATURES>
6
1 2 cation
1 3 acceptor
4 4 5 6 8 rings
5 1 3 12 13 14 rings
5 2 7 9 10 11 rings
6 13 14 15 16 17 18 rings

> <PUBCHEM_HEAVY_ATOM_COUNT>
18

> <PUBCHEM_ATOM_DEF_STEREO_COUNT>
1

> <PUBCHEM_ATOM_UDEF_STEREO_COUNT>
0

> <PUBCHEM_BOND_DEF_STEREO_COUNT>
0

> <PUBCHEM_BOND_UDEF_STEREO_COUNT>
0

> <PUBCHEM_ISOTOPIC_ATOM_COUNT>
0

> <PUBCHEM_COMPONENT_COUNT>
1

> <PUBCHEM_CACTVS_TAUTO_COUNT>
1

> <PUBCHEM_CONFORMER_ID>
030C4A3200000001

> <PUBCHEM_MMFF94_ENERGY>
42.2527

> <PUBCHEM_FEATURE_SELFOVERLAP>
30.519

> <PUBCHEM_SHAPE_FINGERPRINT>
10670039 82 18270136634266442428
11046707 91 11239995659634899919
11128504 68 15123505925985726280
11132069 177 17822298946680904111
11796584 16 9871754589379140716
12107183 9 16447819118521101400
12236239 1 16081370773390041834
12251169 10 17167864179293295182
12403259 118 18264201586125583880
12403259 415 18262806155308606775
12507557 5 18114180856314036525
12507560 40 18114178597292971106
12596602 18 16153710950612199168
12633257 1 17603302682794105372
12670546 177 14405185079660191168
12730499 353 18060426810773874742
12969540 114 17917421029914198365
13214271 11 18409166632249292671
13288520 33 10664103359169600619
13402501 40 18412821395630678368
13533116 47 18261389980190551754
13685833 64 8214138568926189133
13760787 5 16773803558320916903
13911852 28 13407613526013978904
13914758 101 14418120817546023599
13965767 371 16592520320551157941
14251751 18 9439393649105395480
14251764 18 17385438835344582288
14341114 176 17967816037762391696
14341114 328 17240202149144510952
14366163 111 15841831148877836794
14455015 7 10881399824565238936
14528608 73 16630521847424783784
15188451 53 15936697076968840211
15209294 21 17675920997433527810
15375358 24 18413109454733458311
15537594 2 13183022917305920845
17834072 33 14117796929457430408
17980427 23 17968098684827435519
1813 80 13984940676448023418
19050596 39 16515411771968641207
193927 3 11097850749156581802
19489759 90 17894347791675206257
19862831 5 15051731992862519347
200 152 15554450699308993979
204376 136 17988924482982254774
20612939 158 17131560453276127454
20645477 56 18409450293132293659
20645477 70 17631743668555391406
20871999 31 12391520788426787770
21033648 29 18271516602752085864
21150785 3 17203600481378128861
212916 134 18114174250727850802
22926399 37 17346882251680662819
231179 274 18272088305743172402
23402539 116 18187078485830476391
23402655 69 16988846059666302327
23557571 272 18336277802666921287
23559900 14 18115603534171509398
23622692 88 16081369656888741178
26918003 58 13045946802512837213
2838139 119 18272357690387399516
2916195 48 18411414024946685657
29717793 49 14476972177217096380
345986 75 14780086642084543388
351380 180 18335700559262753320
3545911 37 18410296904248193582
4325135 7 18060134384331848183
465052 167 12179846087392631136
474 4 17418374739939454792
5104073 3 17896324615145996417
542803 24 15841555171443382081
543368 44 16200145525902892569
573450 72 17167864192236147995
633830 44 17345206510461668703
9981440 41 17749392534066945603

> <PUBCHEM_SHAPE_MULTIPOLES>
364.32
12.82
1.51
1.21
4.22
0.08
0.1
-6.15
-2.16
-0.72
0.08
0.63
0.16
1.51

> <PUBCHEM_SHAPE_SELFOVERLAP>
778.495

> <PUBCHEM_SHAPE_VOLUME>
205.7

> <PUBCHEM_COORDINATE_TYPE>
2
5
10

$$$$
