45783473
  -OEChem-12032416263D

 54 57  0     1  0  0  0  0  0999 V2000
   -2.4919   -1.4787    1.9924 O   0  0  0  0  0  0  0  0  0  0  0  0
    7.3572    0.2403   -0.4719 O   0  0  0  0  0  0  0  0  0  0  0  0
   -4.2757   -0.3588   -1.0192 N   0  0  1  0  0  0  0  0  0  0  0  0
   -1.5690   -1.1207   -0.0168 N   0  0  0  0  0  0  0  0  0  0  0  0
   -1.1058   -1.4898    2.1929 N   0  0  0  0  0  0  0  0  0  0  0  0
    3.0505   -1.3010    1.4837 N   0  0  0  0  0  0  0  0  0  0  0  0
    4.8492   -1.0127   -0.0515 N   0  0  0  0  0  0  0  0  0  0  0  0
    1.5353    4.1472    0.6900 N   0  0  0  0  0  0  0  0  0  0  0  0
   -4.1135   -1.1969    0.1855 C   0  0  1  0  0  0  0  0  0  0  0  0
   -4.6612   -2.5774   -0.2217 C   0  0  0  0  0  0  0  0  0  0  0  0
   -5.1632   -2.4011   -1.6478 C   0  0  0  0  0  0  0  0  0  0  0  0
   -5.4125   -0.9104   -1.7566 C   0  0  0  0  0  0  0  0  0  0  0  0
   -4.4533    1.0553   -0.7155 C   0  0  0  0  0  0  0  0  0  0  0  0
   -2.6783   -1.2557    0.6650 C   0  0  0  0  0  0  0  0  0  0  0  0
   -3.1437    1.7316   -0.4082 C   0  0  0  0  0  0  0  0  0  0  0  0
   -2.9551    2.3594    0.8232 C   0  0  0  0  0  0  0  0  0  0  0  0
   -2.1191    1.7302   -1.3546 C   0  0  0  0  0  0  0  0  0  0  0  0
   -0.6312   -1.2720    0.9628 C   0  0  0  0  0  0  0  0  0  0  0  0
   -1.7419    2.9858    1.1078 C   0  0  0  0  0  0  0  0  0  0  0  0
   -0.9059    2.3567   -1.0699 C   0  0  0  0  0  0  0  0  0  0  0  0
    0.7729   -1.2014    0.6787 C   0  0  0  0  0  0  0  0  0  0  0  0
   -0.7171    2.9844    0.1614 C   0  0  0  0  0  0  0  0  0  0  0  0
    1.2321   -0.9746   -0.6141 C   0  0  0  0  0  0  0  0  0  0  0  0
    1.7145   -1.3565    1.6833 C   0  0  0  0  0  0  0  0  0  0  0  0
    2.5994   -0.9110   -0.8591 C   0  0  0  0  0  0  0  0  0  0  0  0
    3.4592   -1.0791    0.2143 C   0  0  0  0  0  0  0  0  0  0  0  0
    0.5258    3.6260    0.4531 C   0  0  0  0  0  0  0  0  0  0  0  0
    5.3736   -0.7837   -1.3585 C   0  0  0  0  0  0  0  0  0  0  0  0
    6.8922   -0.8023   -1.3198 C   0  0  0  0  0  0  0  0  0  0  0  0
    8.7764    0.2667   -0.4090 C   0  0  0  0  0  0  0  0  0  0  0  0
   -4.7385   -0.8214    1.0080 H   0  0  0  0  0  0  0  0  0  0  0  0
   -3.9194   -3.3815   -0.1669 H   0  0  0  0  0  0  0  0  0  0  0  0
   -5.4999   -2.8483    0.4313 H   0  0  0  0  0  0  0  0  0  0  0  0
   -6.0617   -2.9927   -1.8462 H   0  0  0  0  0  0  0  0  0  0  0  0
   -4.3863   -2.7120   -2.3574 H   0  0  0  0  0  0  0  0  0  0  0  0
   -6.3688   -0.6492   -1.2857 H   0  0  0  0  0  0  0  0  0  0  0  0
   -5.4269   -0.5803   -2.7999 H   0  0  0  0  0  0  0  0  0  0  0  0
   -5.1852    1.2099    0.0881 H   0  0  0  0  0  0  0  0  0  0  0  0
   -4.8648    1.5760   -1.5917 H   0  0  0  0  0  0  0  0  0  0  0  0
   -3.7438    2.3664    1.5706 H   0  0  0  0  0  0  0  0  0  0  0  0
   -2.2525    1.2491   -2.3200 H   0  0  0  0  0  0  0  0  0  0  0  0
   -1.6095    3.4700    2.0724 H   0  0  0  0  0  0  0  0  0  0  0  0
   -0.1164    2.3466   -1.8177 H   0  0  0  0  0  0  0  0  0  0  0  0
    0.5476   -0.8436   -1.4482 H   0  0  0  0  0  0  0  0  0  0  0  0
    1.4391   -1.5361    2.7183 H   0  0  0  0  0  0  0  0  0  0  0  0
    2.9226   -0.7309   -1.8775 H   0  0  0  0  0  0  0  0  0  0  0  0
    5.4673   -1.1336    0.7426 H   0  0  0  0  0  0  0  0  0  0  0  0
    5.0414   -1.5589   -2.0586 H   0  0  0  0  0  0  0  0  0  0  0  0
    5.0486    0.1967   -1.7274 H   0  0  0  0  0  0  0  0  0  0  0  0
    7.2511   -1.7678   -0.9425 H   0  0  0  0  0  0  0  0  0  0  0  0
    7.2852   -0.6527   -2.3322 H   0  0  0  0  0  0  0  0  0  0  0  0
    9.1599   -0.6726    0.0009 H   0  0  0  0  0  0  0  0  0  0  0  0
    9.2015    0.4469   -1.4012 H   0  0  0  0  0  0  0  0  0  0  0  0
    9.0764    1.0838    0.2524 H   0  0  0  0  0  0  0  0  0  0  0  0
  1  5  1  0  0  0  0
  1 14  1  0  0  0  0
  2 29  1  0  0  0  0
  2 30  1  0  0  0  0
  3  9  1  0  0  0  0
  3 12  1  0  0  0  0
  3 13  1  0  0  0  0
  4 14  2  0  0  0  0
  4 18  1  0  0  0  0
  5 18  2  0  0  0  0
  6 24  1  0  0  0  0
  6 26  2  0  0  0  0
  7 26  1  0  0  0  0
  7 28  1  0  0  0  0
  7 47  1  0  0  0  0
  8 27  3  0  0  0  0
  9 10  1  0  0  0  0
  9 14  1  0  0  0  0
  9 31  1  0  0  0  0
 10 11  1  0  0  0  0
 10 32  1  0  0  0  0
 10 33  1  0  0  0  0
 11 12  1  0  0  0  0
 11 34  1  0  0  0  0
 11 35  1  0  0  0  0
 12 36  1  0  0  0  0
 12 37  1  0  0  0  0
 13 15  1  0  0  0  0
 13 38  1  0  0  0  0
 13 39  1  0  0  0  0
 15 16  2  0  0  0  0
 15 17  1  0  0  0  0
 16 19  1  0  0  0  0
 16 40  1  0  0  0  0
 17 20  2  0  0  0  0
 17 41  1  0  0  0  0
 18 21  1  0  0  0  0
 19 22  2  0  0  0  0
 19 42  1  0  0  0  0
 20 22  1  0  0  0  0
 20 43  1  0  0  0  0
 21 23  1  0  0  0  0
 21 24  2  0  0  0  0
 22 27  1  0  0  0  0
 23 25  2  0  0  0  0
 23 44  1  0  0  0  0
 24 45  1  0  0  0  0
 25 26  1  0  0  0  0
 25 46  1  0  0  0  0
 28 29  1  0  0  0  0
 28 48  1  0  0  0  0
 28 49  1  0  0  0  0
 29 50  1  0  0  0  0
 29 51  1  0  0  0  0
 30 52  1  0  0  0  0
 30 53  1  0  0  0  0
 30 54  1  0  0  0  0
M  END
> <PUBCHEM_COMPOUND_CID>
45783473

> <PUBCHEM_CONFORMER_RMSD>
1

> <PUBCHEM_CONFORMER_DIVERSEORDER>
1
49
110
67
109
86
105
36
79
3
23
62
84
20
93
44
73
76
19
111
91
54
35
60
47
32
2
85
108
30
31
45
78
90
92
22
69
80
57
11
25
28
16
50
65
104
97
38
10
56
89
40
5
87
9
6
34
100
37
75
27
81
58
63
71
94
4
98
77
107
42
26
46
24
52
82
12
53
96
29
18
55
43
17
88
102
14
7
68
61
33
70
39
41
13
103
21
51
83
106
15
48
64
72
95
59
101
74
8
99
66

> <PUBCHEM_MMFF94_PARTIAL_CHARGES>
36
1 -0.02
12 0.27
13 0.41
14 0.3
15 -0.14
16 -0.15
17 -0.15
18 0.46
19 -0.15
2 -0.56
20 -0.15
21 0.05
22 0.07
23 -0.15
24 0.16
25 -0.15
26 0.41
27 0.48
28 0.37
29 0.28
3 -0.81
30 0.28
4 -0.57
40 0.15
41 0.15
42 0.15
43 0.15
44 0.15
45 0.15
46 0.15
47 0.4
5 -0.41
6 -0.62
7 -0.87
8 -0.56
9 0.45

> <PUBCHEM_EFFECTIVE_ROTOR_COUNT>
9

> <PUBCHEM_PHARMACOPHORE_FEATURES>
10
1 2 acceptor
1 3 cation
1 7 donor
1 8 acceptor
3 4 5 18 cation
3 6 7 26 cation
5 1 4 5 14 18 rings
5 3 9 10 11 12 rings
6 15 16 17 19 20 22 rings
6 6 21 23 24 25 26 rings

> <PUBCHEM_HEAVY_ATOM_COUNT>
30

> <PUBCHEM_ATOM_DEF_STEREO_COUNT>
1

> <PUBCHEM_ATOM_UDEF_STEREO_COUNT>
0

> <PUBCHEM_BOND_DEF_STEREO_COUNT>
0

> <PUBCHEM_BOND_UDEF_STEREO_COUNT>
0

> <PUBCHEM_ISOTOPIC_ATOM_COUNT>
0

> <PUBCHEM_COMPONENT_COUNT>
1

> <PUBCHEM_CACTVS_TAUTO_COUNT>
8

> <PUBCHEM_CONFORMER_ID>
02BA99B100000001

> <PUBCHEM_MMFF94_ENERGY>
65.6758

> <PUBCHEM_FEATURE_SELFOVERLAP>
50.747

> <PUBCHEM_SHAPE_FINGERPRINT>
10454371 7 18411145706251212460
10670039 82 18334858295318200338
1100329 8 18339354172747970705
11477941 20 18342730828084382436
11578080 2 17343805697829045407
12107698 1 18411981382163988524
12156800 1 14784551689763263437
12788726 201 18262515875421982097
13782708 43 17632580405947880662
14931854 50 18114454583274974295
15183329 4 17895762790801677094
15876981 60 18410582768460039429
17492 54 17968928700822673197
20028762 73 16175664131281961187
20642791 35 18335965516597220301
20691752 17 17459448071075135417
20721686 56 18338797944223078368
20775438 99 17403432566214233527
21304303 64 16950564325522018789
21344244 246 17909823572376004359
23559900 14 17968374670883362165
255183 451 18053939830437547463
484985 159 10735299953888533505
497634 4 17346606257119437418
5171179 24 18270958050233726385
531348 171 18128261073534172446

> <PUBCHEM_SHAPE_MULTIPOLES>
575.76
15.36
3.95
1.69
35.29
4.74
0.29
-6.94
-8.18
-3.25
0.68
-0.65
-0.66
-0.4

> <PUBCHEM_SHAPE_SELFOVERLAP>
1234.795

> <PUBCHEM_SHAPE_VOLUME>
317.6

> <PUBCHEM_COORDINATE_TYPE>
2
5
10

$$$$
