51137057
  -OEChem-12032416143D

 40 43  0     1  0  0  0  0  0999 V2000
    3.6119   -1.1228    0.6890 O   0  0  0  0  0  0  0  0  0  0  0  0
   -1.0174   -0.6153   -0.1025 N   0  0  1  0  0  0  0  0  0  0  0  0
    2.9838    0.8381   -0.2583 N   0  0  0  0  0  0  0  0  0  0  0  0
   -6.9353    2.5733    0.4632 N   0  0  0  0  0  0  0  0  0  0  0  0
    1.2041   -0.7469    0.6372 C   0  0  1  0  0  0  0  0  0  0  0  0
    0.4059    0.1827    1.5679 C   0  0  0  0  0  0  0  0  0  0  0  0
    0.3270   -0.8904   -0.6139 C   0  0  0  0  0  0  0  0  0  0  0  0
   -0.8543    0.5340    0.7877 C   0  0  0  0  0  0  0  0  0  0  0  0
   -1.9751   -0.3594   -1.1681 C   0  0  0  0  0  0  0  0  0  0  0  0
    2.6065   -0.2793    0.3232 C   0  0  0  0  0  0  0  0  0  0  0  0
   -3.3959   -0.5116   -0.6935 C   0  0  0  0  0  0  0  0  0  0  0  0
    4.7416   -0.4648    0.2951 C   0  0  0  0  0  0  0  0  0  0  0  0
    4.3534    0.7344   -0.2841 C   0  0  0  0  0  0  0  0  0  0  0  0
   -4.1735    0.6187   -0.4418 C   0  0  0  0  0  0  0  0  0  0  0  0
   -3.9349   -1.7846   -0.5070 C   0  0  0  0  0  0  0  0  0  0  0  0
    6.0579   -0.8881    0.4324 C   0  0  0  0  0  0  0  0  0  0  0  0
    5.3406    1.6009   -0.7747 C   0  0  0  0  0  0  0  0  0  0  0  0
   -5.4900    0.4762   -0.0034 C   0  0  0  0  0  0  0  0  0  0  0  0
   -5.2516   -1.9272   -0.0690 C   0  0  0  0  0  0  0  0  0  0  0  0
   -6.0291   -0.7969    0.1830 C   0  0  0  0  0  0  0  0  0  0  0  0
    7.0303   -0.0122   -0.0623 C   0  0  0  0  0  0  0  0  0  0  0  0
    6.6815    1.2080   -0.6540 C   0  0  0  0  0  0  0  0  0  0  0  0
   -6.2875    1.6335    0.2541 C   0  0  0  0  0  0  0  0  0  0  0  0
    1.2738   -1.7275    1.1293 H   0  0  0  0  0  0  0  0  0  0  0  0
    0.1424   -0.3595    2.4847 H   0  0  0  0  0  0  0  0  0  0  0  0
    0.9573    1.0825    1.8606 H   0  0  0  0  0  0  0  0  0  0  0  0
    0.6162   -0.1686   -1.3894 H   0  0  0  0  0  0  0  0  0  0  0  0
    0.4020   -1.8977   -1.0379 H   0  0  0  0  0  0  0  0  0  0  0  0
   -1.7066    0.6707    1.4606 H   0  0  0  0  0  0  0  0  0  0  0  0
   -0.6939    1.4657    0.2300 H   0  0  0  0  0  0  0  0  0  0  0  0
   -1.8200    0.6219   -1.6369 H   0  0  0  0  0  0  0  0  0  0  0  0
   -1.8333   -1.0885   -1.9786 H   0  0  0  0  0  0  0  0  0  0  0  0
   -3.7508    1.6108   -0.5867 H   0  0  0  0  0  0  0  0  0  0  0  0
   -3.3395   -2.6732   -0.7000 H   0  0  0  0  0  0  0  0  0  0  0  0
    6.3172   -1.8337    0.8917 H   0  0  0  0  0  0  0  0  0  0  0  0
    5.0817    2.5486   -1.2351 H   0  0  0  0  0  0  0  0  0  0  0  0
   -5.6712   -2.9184    0.0760 H   0  0  0  0  0  0  0  0  0  0  0  0
   -7.0537   -0.9244    0.5241 H   0  0  0  0  0  0  0  0  0  0  0  0
    8.0801   -0.2853    0.0148 H   0  0  0  0  0  0  0  0  0  0  0  0
    7.4642    1.8637   -1.0273 H   0  0  0  0  0  0  0  0  0  0  0  0
  1 10  1  0  0  0  0
  1 12  1  0  0  0  0
  2  7  1  0  0  0  0
  2  8  1  0  0  0  0
  2  9  1  0  0  0  0
  3 10  2  0  0  0  0
  3 13  1  0  0  0  0
  4 23  3  0  0  0  0
  5  6  1  0  0  0  0
  5  7  1  0  0  0  0
  5 10  1  0  0  0  0
  5 24  1  0  0  0  0
  6  8  1  0  0  0  0
  6 25  1  0  0  0  0
  6 26  1  0  0  0  0
  7 27  1  0  0  0  0
  7 28  1  0  0  0  0
  8 29  1  0  0  0  0
  8 30  1  0  0  0  0
  9 11  1  0  0  0  0
  9 31  1  0  0  0  0
  9 32  1  0  0  0  0
 11 14  2  0  0  0  0
 11 15  1  0  0  0  0
 12 13  1  0  0  0  0
 12 16  2  0  0  0  0
 13 17  2  0  0  0  0
 14 18  1  0  0  0  0
 14 33  1  0  0  0  0
 15 19  2  0  0  0  0
 15 34  1  0  0  0  0
 16 21  1  0  0  0  0
 16 35  1  0  0  0  0
 17 22  1  0  0  0  0
 17 36  1  0  0  0  0
 18 20  2  0  0  0  0
 18 23  1  0  0  0  0
 19 20  1  0  0  0  0
 19 37  1  0  0  0  0
 20 38  1  0  0  0  0
 21 22  2  0  0  0  0
 21 39  1  0  0  0  0
 22 40  1  0  0  0  0
M  END
> <PUBCHEM_COMPOUND_CID>
51137057

> <PUBCHEM_CONFORMER_RMSD>
0.8

> <PUBCHEM_CONFORMER_DIVERSEORDER>
1
68
44
76
35
55
51
80
24
56
47
75
20
34
86
63
57
73
17
82
64
62
48
88
72
58
23
59
28
33
46
27
79
9
37
19
60
5
26
77
70
16
87
54
83
21
31
65
90
2
25
71
49
3
6
89
32
40
81
29
78
12
66
45
53
43
7
18
4
38
10
74
61
8
84
36
41
14
50
67
15
30
11
42
52
13
39
69
85
22
91

> <PUBCHEM_MMFF94_PARTIAL_CHARGES>
30
1 -0.28
10 0.3
11 -0.14
12 0.14
13 0.23
14 -0.15
15 -0.15
16 -0.15
17 -0.15
18 0.07
19 -0.15
2 -0.81
20 -0.15
21 -0.15
22 -0.15
23 0.48
3 -0.57
33 0.15
34 0.15
35 0.15
36 0.15
37 0.15
38 0.15
39 0.15
4 -0.56
40 0.15
5 0.18
7 0.27
8 0.27
9 0.41

> <PUBCHEM_EFFECTIVE_ROTOR_COUNT>
4

> <PUBCHEM_PHARMACOPHORE_FEATURES>
6
1 2 cation
1 4 acceptor
5 1 3 10 12 13 rings
5 2 5 6 7 8 rings
6 11 14 15 18 19 20 rings
6 12 13 16 17 21 22 rings

> <PUBCHEM_HEAVY_ATOM_COUNT>
23

> <PUBCHEM_ATOM_DEF_STEREO_COUNT>
1

> <PUBCHEM_ATOM_UDEF_STEREO_COUNT>
0

> <PUBCHEM_BOND_DEF_STEREO_COUNT>
0

> <PUBCHEM_BOND_UDEF_STEREO_COUNT>
0

> <PUBCHEM_ISOTOPIC_ATOM_COUNT>
0

> <PUBCHEM_COMPONENT_COUNT>
1

> <PUBCHEM_CACTVS_TAUTO_COUNT>
1

> <PUBCHEM_CONFORMER_ID>
030C4A2100000001

> <PUBCHEM_MMFF94_ENERGY>
45.2861

> <PUBCHEM_FEATURE_SELFOVERLAP>
30.566

> <PUBCHEM_SHAPE_FINGERPRINT>
10 15 18336272276056711929
10066227 112 18272930514391422297
10299344 5 18335138704362650539
10595046 47 18333728026633266538
106641 1 12035738630474003900
11315181 36 18259703424433134471
11646440 116 15791734100739838732
11719270 70 17846498102397583158
12091667 2 18201998850562309535
12166972 35 17967252018510242460
12236239 1 18409729569101449622
12730499 353 16660360360257960434
12788726 201 17704075044935203051
12916748 109 15791443821449195676
13167372 99 18408604742973646596
13533116 47 16660631922544889810
1420 363 15574432111262058346
14251752 14 18201719548200519744
14849402 71 17823428256244037700
14856354 85 18341054111939298199
14933364 13 18409168822244705140
15048467 5 18410292497701457733
15183329 4 18335414673111848213
1577012 14 18408039619893062348
15778101 99 18412265026231039133
17093844 174 17704064114718142275
17844677 252 18271526506809409601
20281389 69 18342173379994440945
20621476 66 18410858737657746121
21792961 116 17847067662051990523
220451 1 17749105582511313026
2215653 11 14836404735427755332
22224240 67 16515406261894872625
23035841 295 18412261757096639395
23081809 10 18410565206249276502
23198884 109 18187364350400848699
23522609 53 18042425610646347749
23536379 177 18408602569614504898
23569914 152 14614917777610942349
23569943 247 16734653188020131434
23576562 1 17488445546737250901
29717793 49 18201443571752541502
3004659 81 18412825785883281038
314173 85 15554450716657687986
3545911 37 16588021321170916362
3663271 9 18187081758748582467
4073 2 17968100858170980010
4325135 7 18113335336351542191
4340502 62 15791728599250573578
445580 37 18202292385253520201
4463277 17 18343863333550322272
5265222 85 18200031896821345518
542803 24 18408317804782561846
5758199 1 17748828522681517098
59682541 35 14562822070577844533
59755656 215 16271935895939774806
59755656 520 17313101964393662483
6328613 192 18411418397840772753

> <PUBCHEM_SHAPE_MULTIPOLES>
452.52
20.85
1.75
0.98
2.93
0.48
0.09
6.07
-0.97
-2.6
-0.02
0.12
0.02
-1.47

> <PUBCHEM_SHAPE_SELFOVERLAP>
994.536

> <PUBCHEM_SHAPE_VOLUME>
244.4

> <PUBCHEM_COORDINATE_TYPE>
2
5
10

$$$$
