71694340
  -OEChem-12032416403D

 81 85  0     1  0  0  0  0  0999 V2000
   -0.1563    2.4032    2.7990 O   0  0  0  0  0  0  0  0  0  0  0  0
    4.3259   -0.3419   -1.6897 O   0  0  0  0  0  0  0  0  0  0  0  0
   -1.9509   -1.6597   -0.1039 O   0  0  0  0  0  0  0  0  0  0  0  0
   -9.6711    1.4016   -1.1913 O   0  0  0  0  0  0  0  0  0  0  0  0
    0.9511    0.4102    2.4002 N   0  0  0  0  0  0  0  0  0  0  0  0
    5.8290   -1.6451   -0.4974 N   0  0  0  0  0  0  0  0  0  0  0  0
   -2.1715   -0.1855    2.3943 N   0  0  0  0  0  0  0  0  0  0  0  0
   -7.0191    0.5219   -0.8879 N   0  0  0  0  0  0  0  0  0  0  0  0
    6.4347    1.3988    0.1470 N   0  0  0  0  0  0  0  0  0  0  0  0
    2.1757   -0.6926   -0.0039 C   0  0  1  0  0  0  0  0  0  0  0  0
    0.9400   -1.3306    0.6982 C   0  0  2  0  0  0  0  0  0  0  0  0
    2.2312    0.8148    0.3392 C   0  0  0  0  0  0  0  0  0  0  0  0
    0.9635   -1.0448    2.2117 C   0  0  0  0  0  0  0  0  0  0  0  0
    2.1280    1.0823    1.8432 C   0  0  0  0  0  0  0  0  0  0  0  0
    3.5143   -1.3682    0.3186 C   0  0  0  0  0  0  0  0  0  0  0  0
    0.7654   -2.8003    0.4220 C   0  0  0  0  0  0  0  0  0  0  0  0
   -0.1365    1.1671    2.8349 C   0  0  0  0  0  0  0  0  0  0  0  0
    4.5770   -1.0622   -0.7199 C   0  0  0  0  0  0  0  0  0  0  0  0
   -0.2749   -3.4320   -0.1482 C   0  0  0  0  0  0  0  0  0  0  0  0
   -1.3402    0.4473    3.4145 C   0  0  0  0  0  0  0  0  0  0  0  0
   -1.6062   -2.9292   -0.6459 C   0  0  0  0  0  0  0  0  0  0  0  0
    6.9574   -1.4478   -1.4044 C   0  0  0  0  0  0  0  0  0  0  0  0
   -2.6068    0.6976    1.3146 C   0  0  0  0  0  0  0  0  0  0  0  0
    6.1023   -2.4931    0.6564 C   0  0  0  0  0  0  0  0  0  0  0  0
   -3.5687    0.0000    0.3677 C   0  0  0  0  0  0  0  0  0  0  0  0
    7.8059   -0.2354   -1.0290 C   0  0  0  0  0  0  0  0  0  0  0  0
   -3.2116   -1.1710   -0.3400 C   0  0  0  0  0  0  0  0  0  0  0  0
   -5.7515   -0.0406   -0.7051 C   0  0  0  0  0  0  0  0  0  0  0  0
   -4.8449    0.5528    0.1714 C   0  0  0  0  0  0  0  0  0  0  0  0
   -7.7049    0.3767   -2.1764 C   0  0  0  0  0  0  0  0  0  0  0  0
   -7.9018    0.6373    0.2812 C   0  0  0  0  0  0  0  0  0  0  0  0
   -4.1285   -1.7540   -1.2228 C   0  0  0  0  0  0  0  0  0  0  0  0
   -5.3929   -1.1904   -1.4012 C   0  0  0  0  0  0  0  0  0  0  0  0
    7.0204    1.0530   -1.0213 C   0  0  0  0  0  0  0  0  0  0  0  0
   -8.7843    1.4453   -2.3089 C   0  0  0  0  0  0  0  0  0  0  0  0
   -8.9699    1.6925    0.0175 C   0  0  0  0  0  0  0  0  0  0  0  0
    6.9381    1.8044   -2.1825 C   0  0  0  0  0  0  0  0  0  0  0  0
    6.2080    2.9870   -2.1420 C   0  0  0  0  0  0  0  0  0  0  0  0
    5.7334    2.5545    0.1482 C   0  0  0  0  0  0  0  0  0  0  0  0
    5.5910    3.3763   -0.9582 C   0  0  0  0  0  0  0  0  0  0  0  0
    1.9973   -0.7766   -1.0854 H   0  0  0  0  0  0  0  0  0  0  0  0
    0.0858   -0.7880    0.2844 H   0  0  0  0  0  0  0  0  0  0  0  0
    1.3850    1.3083   -0.1577 H   0  0  0  0  0  0  0  0  0  0  0  0
    3.1349    1.2831   -0.0586 H   0  0  0  0  0  0  0  0  0  0  0  0
    0.1106   -1.5164    2.7034 H   0  0  0  0  0  0  0  0  0  0  0  0
    1.8677   -1.4426    2.6875 H   0  0  0  0  0  0  0  0  0  0  0  0
    3.0097    0.7124    2.3770 H   0  0  0  0  0  0  0  0  0  0  0  0
    2.0776    2.1617    2.0187 H   0  0  0  0  0  0  0  0  0  0  0  0
    3.3971   -2.4548    0.3151 H   0  0  0  0  0  0  0  0  0  0  0  0
    3.8723   -1.0551    1.3034 H   0  0  0  0  0  0  0  0  0  0  0  0
    1.5846   -3.4444    0.7360 H   0  0  0  0  0  0  0  0  0  0  0  0
   -0.1590   -4.5101   -0.2679 H   0  0  0  0  0  0  0  0  0  0  0  0
   -1.0008   -0.2975    4.1418 H   0  0  0  0  0  0  0  0  0  0  0  0
   -1.9370    1.1749    3.9781 H   0  0  0  0  0  0  0  0  0  0  0  0
   -1.5667   -2.8758   -1.7401 H   0  0  0  0  0  0  0  0  0  0  0  0
   -2.3593   -3.6678   -0.3437 H   0  0  0  0  0  0  0  0  0  0  0  0
    7.5704   -2.3560   -1.4178 H   0  0  0  0  0  0  0  0  0  0  0  0
    6.5588   -1.3122   -2.4172 H   0  0  0  0  0  0  0  0  0  0  0  0
   -2.9883   -0.5925    2.8505 H   0  0  0  0  0  0  0  0  0  0  0  0
   -1.7544    1.0444    0.7183 H   0  0  0  0  0  0  0  0  0  0  0  0
   -3.0867    1.5869    1.7412 H   0  0  0  0  0  0  0  0  0  0  0  0
    6.3796   -3.4876    0.2925 H   0  0  0  0  0  0  0  0  0  0  0  0
    5.2756   -2.6116    1.3540 H   0  0  0  0  0  0  0  0  0  0  0  0
    6.9478   -2.0696    1.2073 H   0  0  0  0  0  0  0  0  0  0  0  0
    8.2425   -0.3807   -0.0329 H   0  0  0  0  0  0  0  0  0  0  0  0
    8.6523   -0.1493   -1.7213 H   0  0  0  0  0  0  0  0  0  0  0  0
   -5.1190    1.4636    0.7001 H   0  0  0  0  0  0  0  0  0  0  0  0
   -8.1708   -0.6151   -2.2275 H   0  0  0  0  0  0  0  0  0  0  0  0
   -7.0051    0.4800   -3.0141 H   0  0  0  0  0  0  0  0  0  0  0  0
   -7.3541    0.9100    1.1898 H   0  0  0  0  0  0  0  0  0  0  0  0
   -8.3768   -0.3362    0.4554 H   0  0  0  0  0  0  0  0  0  0  0  0
   -3.8894   -2.6488   -1.7893 H   0  0  0  0  0  0  0  0  0  0  0  0
   -6.0775   -1.6851   -2.0846 H   0  0  0  0  0  0  0  0  0  0  0  0
   -8.3464    2.4478   -2.3873 H   0  0  0  0  0  0  0  0  0  0  0  0
   -9.3744    1.2699   -3.2140 H   0  0  0  0  0  0  0  0  0  0  0  0
   -9.6978    1.6992    0.8350 H   0  0  0  0  0  0  0  0  0  0  0  0
   -8.5328    2.6964   -0.0467 H   0  0  0  0  0  0  0  0  0  0  0  0
    7.4211    1.4908   -3.1017 H   0  0  0  0  0  0  0  0  0  0  0  0
    6.1188    3.6035   -3.0313 H   0  0  0  0  0  0  0  0  0  0  0  0
    5.2700    2.8119    1.0950 H   0  0  0  0  0  0  0  0  0  0  0  0
    5.0157    4.2933   -0.9036 H   0  0  0  0  0  0  0  0  0  0  0  0
  1 17  2  0  0  0  0
  2 18  2  0  0  0  0
  3 21  1  0  0  0  0
  3 27  1  0  0  0  0
  4 35  1  0  0  0  0
  4 36  1  0  0  0  0
  5 13  1  0  0  0  0
  5 14  1  0  0  0  0
  5 17  1  0  0  0  0
  6 18  1  0  0  0  0
  6 22  1  0  0  0  0
  6 24  1  0  0  0  0
  7 20  1  0  0  0  0
  7 23  1  0  0  0  0
  7 59  1  0  0  0  0
  8 28  1  0  0  0  0
  8 30  1  0  0  0  0
  8 31  1  0  0  0  0
  9 34  1  0  0  0  0
  9 39  2  0  0  0  0
 10 11  1  0  0  0  0
 10 12  1  0  0  0  0
 10 15  1  0  0  0  0
 10 41  1  0  0  0  0
 11 13  1  0  0  0  0
 11 16  1  0  0  0  0
 11 42  1  0  0  0  0
 12 14  1  0  0  0  0
 12 43  1  0  0  0  0
 12 44  1  0  0  0  0
 13 45  1  0  0  0  0
 13 46  1  0  0  0  0
 14 47  1  0  0  0  0
 14 48  1  0  0  0  0
 15 18  1  0  0  0  0
 15 49  1  0  0  0  0
 15 50  1  0  0  0  0
 16 19  2  0  0  0  0
 16 51  1  0  0  0  0
 17 20  1  0  0  0  0
 19 21  1  0  0  0  0
 19 52  1  0  0  0  0
 20 53  1  0  0  0  0
 20 54  1  0  0  0  0
 21 55  1  0  0  0  0
 21 56  1  0  0  0  0
 22 26  1  0  0  0  0
 22 57  1  0  0  0  0
 22 58  1  0  0  0  0
 23 25  1  0  0  0  0
 23 60  1  0  0  0  0
 23 61  1  0  0  0  0
 24 62  1  0  0  0  0
 24 63  1  0  0  0  0
 24 64  1  0  0  0  0
 25 27  2  0  0  0  0
 25 29  1  0  0  0  0
 26 34  1  0  0  0  0
 26 65  1  0  0  0  0
 26 66  1  0  0  0  0
 27 32  1  0  0  0  0
 28 29  2  0  0  0  0
 28 33  1  0  0  0  0
 29 67  1  0  0  0  0
 30 35  1  0  0  0  0
 30 68  1  0  0  0  0
 30 69  1  0  0  0  0
 31 36  1  0  0  0  0
 31 70  1  0  0  0  0
 31 71  1  0  0  0  0
 32 33  2  0  0  0  0
 32 72  1  0  0  0  0
 33 73  1  0  0  0  0
 34 37  2  0  0  0  0
 35 74  1  0  0  0  0
 35 75  1  0  0  0  0
 36 76  1  0  0  0  0
 36 77  1  0  0  0  0
 37 38  1  0  0  0  0
 37 78  1  0  0  0  0
 38 40  2  0  0  0  0
 38 79  1  0  0  0  0
 39 40  1  0  0  0  0
 39 80  1  0  0  0  0
 40 81  1  0  0  0  0
M  END
> <PUBCHEM_COMPOUND_CID>
71694340

> <PUBCHEM_CONFORMER_RMSD>
1.2

> <PUBCHEM_CONFORMER_DIVERSEORDER>
1
228
294
199
47
65
207
99
137
83
103
282
170
277
165
263
160
274
28
84
70
112
117
299
92
74
212
265
246
179
260
149
101
39
43
183
291
91
60
239
233
288
88
163
182
40
150
185
230
264
71
114
146
290
67
269
236
234
231
187
286
186
169
192
66
55
37
176
122
164
240
188
223
107
259
242
155
213
26
128
276
178
261
298
214
52
7
283
94
105
206
297
301
158
3
267
42
258
135
89
109
21
218
33
108
189
191
38
115
300
78
241
48
257
295
120
119
256
97
251
243
220
254
157
136
85
216
271
102
215
142
289
23
273
253
46
275
172
19
249
138
278
196
62
184
27
9
139
217
281
202
130
87
15
11
95
14
35
161
247
180
41
224
171
153
140
237
190
181
235
124
147
4
175
93
205
73
125
126
45
287
159
270
77
51
302
201
143
29
252
131
20
82
141
238
198
151
110
113
61
221
211
292
59
173
268
280
148
133
17
245
285
208
54
255
225
106
30
80
152
13
116
8
244
104
86
111
53
69
174
284
64
229
68
226
132
90
24
22
227
177
162
34
296
123
12
204
293
76
121
129
127
167
134
44
18
195
36
222
144
50
145
98
75
58
279
96
303
5
32
219
81
56
197
209
63
10
6
49
232
16
25
266
203
200
262
118
250
194
272
100
72
31
210
166
79
193
156
2
57
168
154
248

> <PUBCHEM_MMFF94_PARTIAL_CHARGES>
48
1 -0.57
11 0.14
13 0.3
14 0.3
15 0.06
16 -0.29
17 0.57
18 0.57
19 -0.29
2 -0.57
20 0.33
21 0.42
22 0.3
23 0.41
24 0.3
25 -0.14
26 0.14
27 0.08
28 0.1
29 -0.15
3 -0.36
30 0.37
31 0.37
32 -0.15
33 -0.15
34 0.17
35 0.28
36 0.28
37 -0.15
38 -0.15
39 0.16
4 -0.56
40 -0.15
5 -0.66
51 0.15
52 0.15
59 0.36
6 -0.66
67 0.15
7 -0.9
72 0.15
73 0.15
78 0.15
79 0.15
8 -0.84
80 0.15
81 0.15
9 -0.62

> <PUBCHEM_EFFECTIVE_ROTOR_COUNT>
10

> <PUBCHEM_PHARMACOPHORE_FEATURES>
12
1 1 acceptor
1 2 acceptor
1 3 acceptor
1 4 acceptor
1 7 cation
1 7 donor
1 8 cation
1 9 acceptor
6 25 27 28 29 32 33 rings
6 4 8 30 31 35 36 rings
6 5 10 11 12 13 14 rings
6 9 34 37 38 39 40 rings

> <PUBCHEM_HEAVY_ATOM_COUNT>
40

> <PUBCHEM_ATOM_DEF_STEREO_COUNT>
2

> <PUBCHEM_ATOM_UDEF_STEREO_COUNT>
0

> <PUBCHEM_BOND_DEF_STEREO_COUNT>
1

> <PUBCHEM_BOND_UDEF_STEREO_COUNT>
0

> <PUBCHEM_ISOTOPIC_ATOM_COUNT>
0

> <PUBCHEM_COMPONENT_COUNT>
1

> <PUBCHEM_CACTVS_TAUTO_COUNT>
4

> <PUBCHEM_CONFORMER_ID>
0445F80400000001

> <PUBCHEM_MMFF94_ENERGY>
126.9107

> <PUBCHEM_FEATURE_SELFOVERLAP>
60.899

> <PUBCHEM_SHAPE_FINGERPRINT>
10677394 325 18341342157747012201
10816530 90 18335131012593233752
11408170 132 18130503059395039665
1200032 147 18113896074517982441
12124843 1 17988364887551149508
13627175 23 18271537428963848193
13782708 43 13686308967209413832
13947947 74 18131632279458431219
14068700 675 16702302334404366969
14747281 78 17603866680666903657
14931854 50 17918274277129090865
15064981 194 18130508639116472887
15183329 4 18059859458610759190
15347590 135 13623526823625830509
15392192 104 13190346755468252320
15510800 12 14548739525701881597
15776043 110 8070032147326743782
15840311 113 18113058220877673526
16992727 255 18272093777183419360
16994733 274 17675920998214204037
17852330 53 13696690483211902165
19302320 297 13479144492304494542
20105231 36 8142096377611909632
21033648 29 16153433873713310594
23559900 14 17703495706019394251
23576562 1 17845358016461031917
24771293 8 13695589919907344803
249057 3 16916776393330218495
25269216 80 18114176493777380683
3633792 109 18411703184268592342
4093350 32 17240476975454124634
484989 97 18130782426144226695
57527306 92 17313386708008822767
9689198 14 17748827415017667951

> <PUBCHEM_SHAPE_MULTIPOLES>
774.8
27.02
3.29
2.69
28.64
0.08
2.03
-17.79
-20.78
-4.6
-1
0.9
-1.13
-0.86

> <PUBCHEM_SHAPE_SELFOVERLAP>
1631.619

> <PUBCHEM_SHAPE_VOLUME>
428.2

> <PUBCHEM_COORDINATE_TYPE>
2
5
10

$$$$
