25390041
  -OEChem-12032416293D

 51 53  0     1  0  0  0  0  0999 V2000
   -7.7478    1.7330   -0.4033 F   0  0  0  0  0  0  0  0  0  0  0  0
    4.7302    1.8162   -0.7514 O   0  0  0  0  0  0  0  0  0  0  0  0
    3.8779    0.1575    0.6331 N   0  0  0  0  0  0  0  0  0  0  0  0
   -2.7769   -0.6644   -0.1532 N   0  0  0  0  0  0  0  0  0  0  0  0
   -2.6240   -1.9283   -0.5837 N   0  0  0  0  0  0  0  0  0  0  0  0
    6.0332   -0.0122   -0.1665 N   0  0  0  0  0  0  0  0  0  0  0  0
    0.8053   -0.9533    0.5566 C   0  0  2  0  0  0  0  0  0  0  0  0
    1.5367    0.1945   -0.1699 C   0  0  0  0  0  0  0  0  0  0  0  0
    2.5721    0.7292    0.8271 C   0  0  1  0  0  0  0  0  0  0  0  0
   -0.6557   -1.0607    0.1849 C   0  0  0  0  0  0  0  0  0  0  0  0
    1.0640   -0.6368    2.0011 C   0  0  0  0  0  0  0  0  0  0  0  0
    2.0296    0.2772    2.1430 C   0  0  0  0  0  0  0  0  0  0  0  0
   -1.6278   -0.0994    0.3168 C   0  0  0  0  0  0  0  0  0  0  0  0
   -1.3261   -2.1648   -0.3747 C   0  0  0  0  0  0  0  0  0  0  0  0
   -1.5575    1.2805    0.8391 C   0  0  0  0  0  0  0  0  0  0  0  0
   -0.7627   -3.4789   -0.7312 C   0  0  0  0  0  0  0  0  0  0  0  0
    4.8689    0.7516   -0.1509 C   0  0  0  0  0  0  0  0  0  0  0  0
   -4.0324   -0.0590   -0.2164 C   0  0  0  0  0  0  0  0  0  0  0  0
    7.2137    0.3756   -0.9023 C   0  0  0  0  0  0  0  0  0  0  0  0
   -4.2099    1.1018   -0.9695 C   0  0  0  0  0  0  0  0  0  0  0  0
   -5.1101   -0.6144    0.4733 C   0  0  0  0  0  0  0  0  0  0  0  0
    7.9626   -0.8578   -1.3899 C   0  0  0  0  0  0  0  0  0  0  0  0
    8.1093    1.2631   -0.0469 C   0  0  0  0  0  0  0  0  0  0  0  0
   -5.4649    1.7071   -1.0326 C   0  0  0  0  0  0  0  0  0  0  0  0
   -6.3652   -0.0091    0.4103 C   0  0  0  0  0  0  0  0  0  0  0  0
   -6.5426    1.1517   -0.3427 C   0  0  0  0  0  0  0  0  0  0  0  0
    1.3073   -1.9026    0.3286 H   0  0  0  0  0  0  0  0  0  0  0  0
    1.9918   -0.1588   -1.1033 H   0  0  0  0  0  0  0  0  0  0  0  0
    0.8547    1.0060   -0.4498 H   0  0  0  0  0  0  0  0  0  0  0  0
    2.6327    1.8210    0.7690 H   0  0  0  0  0  0  0  0  0  0  0  0
    0.5580   -1.1150    2.8281 H   0  0  0  0  0  0  0  0  0  0  0  0
    2.3890    0.6342    3.0978 H   0  0  0  0  0  0  0  0  0  0  0  0
    4.0815   -0.7486    1.0458 H   0  0  0  0  0  0  0  0  0  0  0  0
   -1.4723    2.0001    0.0187 H   0  0  0  0  0  0  0  0  0  0  0  0
   -2.4413    1.5350    1.4336 H   0  0  0  0  0  0  0  0  0  0  0  0
   -0.6979    1.4307    1.4960 H   0  0  0  0  0  0  0  0  0  0  0  0
    0.0352   -3.3665   -1.4725 H   0  0  0  0  0  0  0  0  0  0  0  0
   -0.3435   -3.9696    0.1531 H   0  0  0  0  0  0  0  0  0  0  0  0
   -1.5201   -4.1467   -1.1554 H   0  0  0  0  0  0  0  0  0  0  0  0
    6.0770   -0.8377    0.4234 H   0  0  0  0  0  0  0  0  0  0  0  0
    6.8948    0.9535   -1.7781 H   0  0  0  0  0  0  0  0  0  0  0  0
   -3.3875    1.5428   -1.5271 H   0  0  0  0  0  0  0  0  0  0  0  0
   -4.9889   -1.5162    1.0686 H   0  0  0  0  0  0  0  0  0  0  0  0
    8.8406   -0.5753   -1.9798 H   0  0  0  0  0  0  0  0  0  0  0  0
    7.3171   -1.4800   -2.0196 H   0  0  0  0  0  0  0  0  0  0  0  0
    8.2998   -1.4768   -0.5510 H   0  0  0  0  0  0  0  0  0  0  0  0
    7.5763    2.1647    0.2742 H   0  0  0  0  0  0  0  0  0  0  0  0
    8.4413    0.7386    0.8561 H   0  0  0  0  0  0  0  0  0  0  0  0
    8.9973    1.5773   -0.6051 H   0  0  0  0  0  0  0  0  0  0  0  0
   -5.6043    2.6089   -1.6213 H   0  0  0  0  0  0  0  0  0  0  0  0
   -7.2043   -0.4405    0.9480 H   0  0  0  0  0  0  0  0  0  0  0  0
  1 26  1  0  0  0  0
  2 17  2  0  0  0  0
  3  9  1  0  0  0  0
  3 17  1  0  0  0  0
  3 33  1  0  0  0  0
  4  5  1  0  0  0  0
  4 13  1  0  0  0  0
  4 18  1  0  0  0  0
  5 14  2  0  0  0  0
  6 17  1  0  0  0  0
  6 19  1  0  0  0  0
  6 40  1  0  0  0  0
  7  8  1  0  0  0  0
  7 10  1  0  0  0  0
  7 11  1  0  0  0  0
  7 27  1  0  0  0  0
  8  9  1  0  0  0  0
  8 28  1  0  0  0  0
  8 29  1  0  0  0  0
  9 12  1  0  0  0  0
  9 30  1  0  0  0  0
 10 13  2  0  0  0  0
 10 14  1  0  0  0  0
 11 12  2  0  0  0  0
 11 31  1  0  0  0  0
 12 32  1  0  0  0  0
 13 15  1  0  0  0  0
 14 16  1  0  0  0  0
 15 34  1  0  0  0  0
 15 35  1  0  0  0  0
 15 36  1  0  0  0  0
 16 37  1  0  0  0  0
 16 38  1  0  0  0  0
 16 39  1  0  0  0  0
 18 20  2  0  0  0  0
 18 21  1  0  0  0  0
 19 22  1  0  0  0  0
 19 23  1  0  0  0  0
 19 41  1  0  0  0  0
 20 24  1  0  0  0  0
 20 42  1  0  0  0  0
 21 25  2  0  0  0  0
 21 43  1  0  0  0  0
 22 44  1  0  0  0  0
 22 45  1  0  0  0  0
 22 46  1  0  0  0  0
 23 47  1  0  0  0  0
 23 48  1  0  0  0  0
 23 49  1  0  0  0  0
 24 26  2  0  0  0  0
 24 50  1  0  0  0  0
 25 26  1  0  0  0  0
 25 51  1  0  0  0  0
M  END
> <PUBCHEM_COMPOUND_CID>
25390041

> <PUBCHEM_CONFORMER_RMSD>
0.8

> <PUBCHEM_CONFORMER_DIVERSEORDER>
1
53
26
66
29
63
31
21
64
37
13
42
9
52
46
61
24
28
35
27
10
54
39
40
25
15
49
45
32
51
55
22
41
17
8
7
50
33
30
2
60
11
67
38
68
34
57
58
59
5
20
4
6
14
43
62
65
56
36
3
12
23
19
44
47
16
18
48

> <PUBCHEM_MMFF94_PARTIAL_CHARGES>
31
1 -0.19
10 -0.18
11 -0.29
12 -0.29
13 -0.33
14 0.11
15 0.18
16 0.18
17 0.69
18 -0.02
19 0.3
2 -0.57
20 -0.15
21 -0.15
24 -0.15
25 -0.15
26 0.19
3 -0.73
31 0.15
32 0.15
33 0.37
4 0.59
40 0.37
42 0.15
43 0.15
5 -0.71
50 0.15
51 0.15
6 -0.73
7 0.32
9 0.44

> <PUBCHEM_EFFECTIVE_ROTOR_COUNT>
6.6

> <PUBCHEM_PHARMACOPHORE_FEATURES>
8
1 2 acceptor
1 3 donor
1 5 acceptor
1 6 donor
3 19 22 23 hydrophobe
5 4 5 10 13 14 rings
5 7 8 9 11 12 rings
6 18 20 21 24 25 26 rings

> <PUBCHEM_HEAVY_ATOM_COUNT>
26

> <PUBCHEM_ATOM_DEF_STEREO_COUNT>
2

> <PUBCHEM_ATOM_UDEF_STEREO_COUNT>
0

> <PUBCHEM_BOND_DEF_STEREO_COUNT>
0

> <PUBCHEM_BOND_UDEF_STEREO_COUNT>
0

> <PUBCHEM_ISOTOPIC_ATOM_COUNT>
0

> <PUBCHEM_COMPONENT_COUNT>
1

> <PUBCHEM_CACTVS_TAUTO_COUNT>
3

> <PUBCHEM_CONFORMER_ID>
01836BD900000001

> <PUBCHEM_MMFF94_ENERGY>
58.6028

> <PUBCHEM_FEATURE_SELFOVERLAP>
40.646

> <PUBCHEM_SHAPE_FINGERPRINT>
10 15 15719389521313982605
10165383 225 18343022182018298475
10369192 42 18335417950778472781
106641 1 13334744530975428777
10670039 82 18131352964856272921
10730089 173 18334857216495808805
107951 10 18334296500137105650
10835480 77 17775001362774821696
10883706 17 13613655489683783221
11135609 99 10879698910522129432
11315181 36 17131558340231261018
11796584 16 18201439229578112966
12236239 1 18040148522069822339
12895836 83 18338230569814642401
12954195 1 17703795773350639633
12977781 61 13612516429754649758
13177829 20 8574710192073195900
13540713 4 17415264307127707954
14251752 14 18412261727532612498
14341114 328 17458616797134254921
14849402 71 15864365682871005260
14856354 85 16515973652338458891
14933364 13 17967814942076330148
15119646 104 15984832489110276398
15183329 4 18131634465496674746
15188451 53 11600007648195325062
15230672 131 18410854348571493662
15475509 8 17967537857415935676
15706992 2 17603879858180643461
15728490 51 9151164347175574992
1577012 14 18041270019672220202
15849732 13 18114184142000512820
15927050 60 18411415133133728683
15961568 22 17967812704947353189
1813 80 12324804528157689019
18681886 176 18410287051656858209
19611394 137 17750530644766043355
19784866 240 13039189233786262521
19958102 18 18201451233831857382
20505436 4 18040427793781746699
20721686 146 17822846469196513517
21315764 119 18413112771186851886
21344244 246 15984829198643075822
21585482 111 18192431867115329453
21756936 100 17894908576569868035
21781055 127 17773878605755541339
22224240 67 14201119020143256576
23559900 14 17845929753827798744
23576562 1 18265886042556415429
249057 3 18413109489763454164
3004659 81 18343866628629125226
3009799 131 16988844995226472218
335352 9 18272087222947326717
38570 142 17821730533397155170
4058900 60 18337393726050635387
4149490 64 13470104350903534207
5265222 85 18268433619445384230
5758199 1 16298387963575985048
59682541 35 11097862908504474164
5969126 39 15051740759317987352
59755656 215 18202003196847582606
59755656 520 18410004455646353647
6438161 24 11815889064239454733
6669772 16 18059862731397438967
9689198 14 17822296786059198428

> <PUBCHEM_SHAPE_MULTIPOLES>
502
21.33
2.15
1.32
21.03
1.61
-0.52
-10.7
8.26
-1.54
0.7
0.92
-0.03
0.78

> <PUBCHEM_SHAPE_SELFOVERLAP>
1067.421

> <PUBCHEM_SHAPE_VOLUME>
283.4

> <PUBCHEM_COORDINATE_TYPE>
2
5
10

$$$$
