45361394
  -OEChem-12032416333D

 73 76  0     1  0  0  0  0  0999 V2000
    8.6780   -1.4661    0.1861 S   0  0  0  0  0  0  0  0  0  0  0  0
    1.3477    1.7670    1.6203 O   0  0  0  0  0  0  0  0  0  0  0  0
    5.8997    1.7053   -1.0769 O   0  0  0  0  0  0  0  0  0  0  0  0
   -4.1304   -2.2639    0.6835 O   0  0  0  0  0  0  0  0  0  0  0  0
   -9.6708    0.7735    0.3283 O   0  0  0  0  0  0  0  0  0  0  0  0
   -3.3994   -0.2038   -0.0892 N   0  0  0  0  0  0  0  0  0  0  0  0
    5.8805    1.1729    1.1805 N   0  0  0  0  0  0  0  0  0  0  0  0
    0.6529   -0.2543   -1.5431 C   0  0  1  0  0  0  0  0  0  0  0  0
    0.4228    0.3090   -0.1013 C   0  0  2  0  0  0  0  0  0  0  0  0
   -1.0868    0.6845    0.1179 C   0  0  1  0  0  0  0  0  0  0  0  0
    1.4464    1.4313    0.2355 C   0  0  2  0  0  0  0  0  0  0  0  0
    2.1215   -0.7186   -1.6874 C   0  0  0  0  0  0  0  0  0  0  0  0
   -0.2537   -1.4892   -1.7525 C   0  0  0  0  0  0  0  0  0  0  0  0
    2.9096    0.9949   -0.0103 C   0  0  1  0  0  0  0  0  0  0  0  0
   -1.9945   -0.5446   -0.1686 C   0  0  2  0  0  0  0  0  0  0  0  0
    3.1261    0.3886   -1.3967 C   0  0  0  0  0  0  0  0  0  0  0  0
   -1.7294   -1.1923   -1.5274 C   0  0  0  0  0  0  0  0  0  0  0  0
    0.3513    0.7928   -2.6451 C   0  0  0  0  0  0  0  0  0  0  0  0
    3.8920    2.1533    0.2014 C   0  0  2  0  0  0  0  0  0  0  0  0
   -1.3899    1.2195    1.5277 C   0  0  0  0  0  0  0  0  0  0  0  0
    3.5642    3.2998   -0.7486 C   0  0  0  0  0  0  0  0  0  0  0  0
    5.3236    1.6628    0.0081 C   0  0  0  0  0  0  0  0  0  0  0  0
   -4.3576   -1.1078    0.3363 C   0  0  0  0  0  0  0  0  0  0  0  0
   -5.7581   -0.6122    0.3358 C   0  0  0  0  0  0  0  0  0  0  0  0
    7.2255    0.6503    1.2479 C   0  0  0  0  0  0  0  0  0  0  0  0
   -6.8154   -1.5095    0.1858 C   0  0  0  0  0  0  0  0  0  0  0  0
   -6.0157    0.7508    0.4834 C   0  0  0  0  0  0  0  0  0  0  0  0
    7.2760   -0.8145    0.9227 C   0  0  0  0  0  0  0  0  0  0  0  0
   -8.1302   -1.0441    0.1830 C   0  0  0  0  0  0  0  0  0  0  0  0
   -7.3305    1.2164    0.4806 C   0  0  0  0  0  0  0  0  0  0  0  0
   -8.3877    0.3189    0.3304 C   0  0  0  0  0  0  0  0  0  0  0  0
    6.3113   -1.7742    1.1373 C   0  0  0  0  0  0  0  0  0  0  0  0
    6.7286   -3.0613    0.6911 C   0  0  0  0  0  0  0  0  0  0  0  0
    7.9962   -3.0365    0.1526 C   0  0  0  0  0  0  0  0  0  0  0  0
  -10.7035   -0.1984    0.1711 C   0  0  0  0  0  0  0  0  0  0  0  0
    0.6260   -0.5093    0.6082 H   0  0  0  0  0  0  0  0  0  0  0  0
   -1.3566    1.4889   -0.5782 H   0  0  0  0  0  0  0  0  0  0  0  0
    1.1702    2.3198   -0.3352 H   0  0  0  0  0  0  0  0  0  0  0  0
    2.3139   -1.5532   -0.9996 H   0  0  0  0  0  0  0  0  0  0  0  0
    2.2995   -1.1087   -2.6978 H   0  0  0  0  0  0  0  0  0  0  0  0
   -0.1201   -1.8916   -2.7648 H   0  0  0  0  0  0  0  0  0  0  0  0
    0.0475   -2.2891   -1.0627 H   0  0  0  0  0  0  0  0  0  0  0  0
    3.1557    0.2174    0.7284 H   0  0  0  0  0  0  0  0  0  0  0  0
   -1.7917   -1.2993    0.6040 H   0  0  0  0  0  0  0  0  0  0  0  0
    3.0670    1.1250   -2.2003 H   0  0  0  0  0  0  0  0  0  0  0  0
    4.1213   -0.0648   -1.4684 H   0  0  0  0  0  0  0  0  0  0  0  0
   -2.2944   -2.1299   -1.6088 H   0  0  0  0  0  0  0  0  0  0  0  0
   -2.1120   -0.5528   -2.3323 H   0  0  0  0  0  0  0  0  0  0  0  0
   -0.6942    1.1113   -2.6534 H   0  0  0  0  0  0  0  0  0  0  0  0
    0.5663    0.3798   -3.6377 H   0  0  0  0  0  0  0  0  0  0  0  0
    0.9505    1.7008   -2.5349 H   0  0  0  0  0  0  0  0  0  0  0  0
    3.8011    2.5365    1.2261 H   0  0  0  0  0  0  0  0  0  0  0  0
   -0.9991    0.5490    2.2999 H   0  0  0  0  0  0  0  0  0  0  0  0
   -2.4652    1.3319    1.6999 H   0  0  0  0  0  0  0  0  0  0  0  0
   -0.9666    2.2176    1.6707 H   0  0  0  0  0  0  0  0  0  0  0  0
   -3.6746    0.6958   -0.4694 H   0  0  0  0  0  0  0  0  0  0  0  0
    1.5419    0.9680    2.1394 H   0  0  0  0  0  0  0  0  0  0  0  0
    2.6048    3.7738   -0.5279 H   0  0  0  0  0  0  0  0  0  0  0  0
    4.3178    4.0889   -0.6261 H   0  0  0  0  0  0  0  0  0  0  0  0
    3.5940    3.0350   -1.8076 H   0  0  0  0  0  0  0  0  0  0  0  0
    5.3214    1.1521    2.0285 H   0  0  0  0  0  0  0  0  0  0  0  0
    7.5847    0.8105    2.2702 H   0  0  0  0  0  0  0  0  0  0  0  0
    7.8587    1.2307    0.5673 H   0  0  0  0  0  0  0  0  0  0  0  0
   -6.6339   -2.5743    0.0648 H   0  0  0  0  0  0  0  0  0  0  0  0
   -5.2239    1.4787    0.6336 H   0  0  0  0  0  0  0  0  0  0  0  0
   -8.9034   -1.7950    0.0611 H   0  0  0  0  0  0  0  0  0  0  0  0
   -7.5259    2.2783    0.6026 H   0  0  0  0  0  0  0  0  0  0  0  0
    5.3500   -1.5744    1.5935 H   0  0  0  0  0  0  0  0  0  0  0  0
    6.1296   -3.9599    0.7618 H   0  0  0  0  0  0  0  0  0  0  0  0
    8.5546   -3.8655   -0.2589 H   0  0  0  0  0  0  0  0  0  0  0  0
  -11.6580    0.3376    0.1929 H   0  0  0  0  0  0  0  0  0  0  0  0
  -10.7172   -0.9094    1.0042 H   0  0  0  0  0  0  0  0  0  0  0  0
  -10.6403   -0.6991   -0.8010 H   0  0  0  0  0  0  0  0  0  0  0  0
  1 28  1  0  0  0  0
  1 34  1  0  0  0  0
  2 11  1  0  0  0  0
  2 57  1  0  0  0  0
  3 22  2  0  0  0  0
  4 23  2  0  0  0  0
  5 31  1  0  0  0  0
  5 35  1  0  0  0  0
  6 15  1  0  0  0  0
  6 23  1  0  0  0  0
  6 56  1  0  0  0  0
  7 22  1  0  0  0  0
  7 25  1  0  0  0  0
  7 61  1  0  0  0  0
  8  9  1  0  0  0  0
  8 12  1  0  0  0  0
  8 13  1  0  0  0  0
  8 18  1  0  0  0  0
  9 10  1  0  0  0  0
  9 11  1  0  0  0  0
  9 36  1  0  0  0  0
 10 15  1  0  0  0  0
 10 20  1  0  0  0  0
 10 37  1  0  0  0  0
 11 14  1  0  0  0  0
 11 38  1  0  0  0  0
 12 16  1  0  0  0  0
 12 39  1  0  0  0  0
 12 40  1  0  0  0  0
 13 17  1  0  0  0  0
 13 41  1  0  0  0  0
 13 42  1  0  0  0  0
 14 16  1  0  0  0  0
 14 19  1  0  0  0  0
 14 43  1  0  0  0  0
 15 17  1  0  0  0  0
 15 44  1  0  0  0  0
 16 45  1  0  0  0  0
 16 46  1  0  0  0  0
 17 47  1  0  0  0  0
 17 48  1  0  0  0  0
 18 49  1  0  0  0  0
 18 50  1  0  0  0  0
 18 51  1  0  0  0  0
 19 21  1  0  0  0  0
 19 22  1  0  0  0  0
 19 52  1  0  0  0  0
 20 53  1  0  0  0  0
 20 54  1  0  0  0  0
 20 55  1  0  0  0  0
 21 58  1  0  0  0  0
 21 59  1  0  0  0  0
 21 60  1  0  0  0  0
 23 24  1  0  0  0  0
 24 26  2  0  0  0  0
 24 27  1  0  0  0  0
 25 28  1  0  0  0  0
 25 62  1  0  0  0  0
 25 63  1  0  0  0  0
 26 29  1  0  0  0  0
 26 64  1  0  0  0  0
 27 30  2  0  0  0  0
 27 65  1  0  0  0  0
 28 32  2  0  0  0  0
 29 31  2  0  0  0  0
 29 66  1  0  0  0  0
 30 31  1  0  0  0  0
 30 67  1  0  0  0  0
 32 33  1  0  0  0  0
 32 68  1  0  0  0  0
 33 34  2  0  0  0  0
 33 69  1  0  0  0  0
 34 70  1  0  0  0  0
 35 71  1  0  0  0  0
 35 72  1  0  0  0  0
 35 73  1  0  0  0  0
M  END
> <PUBCHEM_COMPOUND_CID>
45361394

> <PUBCHEM_CONFORMER_RMSD>
1.2

> <PUBCHEM_CONFORMER_DIVERSEORDER>
1
83
64
69
40
78
62
41
37
98
103
45
46
93
73
95
97
48
101
20
87
79
31
85
99
17
75
91
52
105
86
29
104
27
89
4
80
84
6
39
47
96
81
68
57
44
92
88
63
71
90
16
26
51
82
11
66
30
60
43
65
36
32
77
42
67
23
55
22
18
10
33
12
59
56
100
70
102
28
35
76
25
94
53
7
9
38
19
54
8
2
72
34
50
15
49
21
14
13
5
24
58
61
3
74

> <PUBCHEM_MMFF94_PARTIAL_CHARGES>
34
1 -0.08
11 0.28
15 0.3
19 0.06
2 -0.68
22 0.57
23 0.54
24 0.09
25 0.48
26 -0.15
27 -0.15
28 -0.14
29 -0.15
3 -0.57
30 -0.15
31 0.08
32 -0.15
33 -0.15
34 -0.11
35 0.28
4 -0.57
5 -0.36
56 0.37
57 0.4
6 -0.73
61 0.37
64 0.15
65 0.15
66 0.15
67 0.15
68 0.15
69 0.15
7 -0.73
70 0.15

> <PUBCHEM_EFFECTIVE_ROTOR_COUNT>
10.6

> <PUBCHEM_PHARMACOPHORE_FEATURES>
12
1 2 acceptor
1 2 donor
1 21 hydrophobe
1 3 acceptor
1 4 acceptor
1 5 acceptor
1 6 donor
1 7 donor
5 1 28 32 33 34 rings
6 24 26 27 29 30 31 rings
6 8 9 10 13 15 17 rings
6 8 9 11 12 14 16 rings

> <PUBCHEM_HEAVY_ATOM_COUNT>
35

> <PUBCHEM_ATOM_DEF_STEREO_COUNT>
6

> <PUBCHEM_ATOM_UDEF_STEREO_COUNT>
1

> <PUBCHEM_BOND_DEF_STEREO_COUNT>
0

> <PUBCHEM_BOND_UDEF_STEREO_COUNT>
0

> <PUBCHEM_ISOTOPIC_ATOM_COUNT>
0

> <PUBCHEM_COMPONENT_COUNT>
1

> <PUBCHEM_CACTVS_TAUTO_COUNT>
4

> <PUBCHEM_CONFORMER_ID>
02B428F200000001

> <PUBCHEM_MMFF94_ENERGY>
103.5251

> <PUBCHEM_FEATURE_SELFOVERLAP>
60.912

> <PUBCHEM_SHAPE_FINGERPRINT>
10 15 17703789249822609832
10076449 9 12757151273126287789
10533779 47 18260276231009836459
10580692 12 18334294258015691568
11181472 205 18187092758123430556
11331351 85 17312819394289637789
11409948 35 18187359879124193986
11443803 9 15482664680728150263
11456790 92 17703790314431109432
117089 54 17982739576739866262
11719270 70 17989492926409753390
12373685 5 18060695109397849703
12422481 6 17703225102132261382
12522641 24 18259982695833276512
12838862 33 17060333024961323897
13008946 113 17772178980440173080
13673619 4 17531241747751409364
13811026 1 18130792239594994975
14347424 109 18341610452017107016
14359421 15 17096360628602678698
15064986 96 18059860545533144630
15131766 46 17905328786085953036
15840311 113 17894912983855413629
16728300 4 18198897016760132118
16994733 274 12535355588079091818
19301679 30 18337950087925072912
19841028 212 18336261268056130434
20105231 36 14707205522258099505
20554085 129 15339115737056738278
20812841 46 18342455937503233970
21057603 238 17752762429700359286
21150785 3 9583522022761978739
21403212 168 17489587874276081574
21591340 7 17775279478680801303
21781055 127 15864355676040082445
21792934 111 17775005656966293350
24893992 56 17561360721405850771
34797466 226 16081089316637705844
3525247 94 18337106865718276231
474113 269 18341051835231954834
5381727 24 18113900490694305547
6081469 158 18114180830797252125
6201320 215 17988081077088702017

> <PUBCHEM_SHAPE_MULTIPOLES>
690.69
30.85
2.71
1.56
39.19
0.21
-0.77
11.56
10.91
-6.05
0.21
-1.25
-0.13
-1.13

> <PUBCHEM_SHAPE_SELFOVERLAP>
1445.115

> <PUBCHEM_SHAPE_VOLUME>
394

> <PUBCHEM_COORDINATE_TYPE>
2
5
10

$$$$
