51137886
  -OEChem-12032416243D

 51 54  0     1  0  0  0  0  0999 V2000
   -0.7597   -0.2237   -0.1375 N   0  0  1  0  0  0  0  0  0  0  0  0
    3.8064   -1.1436    0.2504 N   0  0  0  0  0  0  0  0  0  0  0  0
    3.3700    1.0344    0.3289 N   0  0  0  0  0  0  0  0  0  0  0  0
   -7.1286    0.0352    0.3356 N   0  0  0  0  0  0  0  0  0  0  0  0
    1.4113   -0.5022    0.7041 C   0  0  1  0  0  0  0  0  0  0  0  0
    0.6611    0.5409    1.5505 C   0  0  0  0  0  0  0  0  0  0  0  0
    0.5747   -0.6391   -0.5750 C   0  0  0  0  0  0  0  0  0  0  0  0
   -0.5324    0.9545    0.6993 C   0  0  0  0  0  0  0  0  0  0  0  0
    2.8602   -0.1729    0.4281 C   0  0  0  0  0  0  0  0  0  0  0  0
   -1.6493    0.0539   -1.2555 C   0  0  0  0  0  0  0  0  0  0  0  0
    5.0066   -0.5214    0.0211 C   0  0  0  0  0  0  0  0  0  0  0  0
   -3.0953    0.0486   -0.8361 C   0  0  0  0  0  0  0  0  0  0  0  0
    4.7079    0.8373    0.0751 C   0  0  0  0  0  0  0  0  0  0  0  0
    3.5854   -2.5715    0.2955 C   0  0  0  0  0  0  0  0  0  0  0  0
    6.2887   -1.0154   -0.2214 C   0  0  0  0  0  0  0  0  0  0  0  0
   -3.7513   -1.1612   -0.6081 C   0  0  0  0  0  0  0  0  0  0  0  0
   -3.7788    1.2537   -0.6748 C   0  0  0  0  0  0  0  0  0  0  0  0
    5.7374    1.7731   -0.1222 C   0  0  0  0  0  0  0  0  0  0  0  0
    7.3012   -0.0700   -0.4157 C   0  0  0  0  0  0  0  0  0  0  0  0
   -5.0909   -1.1658   -0.2192 C   0  0  0  0  0  0  0  0  0  0  0  0
   -5.1184    1.2493   -0.2860 C   0  0  0  0  0  0  0  0  0  0  0  0
    7.0326    1.2999   -0.3674 C   0  0  0  0  0  0  0  0  0  0  0  0
   -5.7743    0.0396   -0.0582 C   0  0  0  0  0  0  0  0  0  0  0  0
   -7.8193   -1.2162    0.5755 C   0  0  0  0  0  0  0  0  0  0  0  0
   -7.8454    1.2825    0.5131 C   0  0  0  0  0  0  0  0  0  0  0  0
    1.3614   -1.4469    1.2630 H   0  0  0  0  0  0  0  0  0  0  0  0
    0.3118    0.0703    2.4785 H   0  0  0  0  0  0  0  0  0  0  0  0
    1.2672    1.4077    1.8328 H   0  0  0  0  0  0  0  0  0  0  0  0
    0.9588    0.0143   -1.3701 H   0  0  0  0  0  0  0  0  0  0  0  0
    0.5754   -1.6695   -0.9461 H   0  0  0  0  0  0  0  0  0  0  0  0
   -1.3953    1.1992    1.3265 H   0  0  0  0  0  0  0  0  0  0  0  0
   -0.2698    1.8374    0.1022 H   0  0  0  0  0  0  0  0  0  0  0  0
   -1.3915    0.9916   -1.7663 H   0  0  0  0  0  0  0  0  0  0  0  0
   -1.5399   -0.7277   -2.0207 H   0  0  0  0  0  0  0  0  0  0  0  0
    3.3904   -2.8547    1.3328 H   0  0  0  0  0  0  0  0  0  0  0  0
    2.7320   -2.8178   -0.3406 H   0  0  0  0  0  0  0  0  0  0  0  0
    4.4636   -3.1042   -0.0738 H   0  0  0  0  0  0  0  0  0  0  0  0
    6.5065   -2.0764   -0.2586 H   0  0  0  0  0  0  0  0  0  0  0  0
   -3.2289   -2.1064   -0.7303 H   0  0  0  0  0  0  0  0  0  0  0  0
   -3.2783    2.2028   -0.8476 H   0  0  0  0  0  0  0  0  0  0  0  0
    5.5389    2.8395   -0.0866 H   0  0  0  0  0  0  0  0  0  0  0  0
   -5.5561   -2.1325   -0.0539 H   0  0  0  0  0  0  0  0  0  0  0  0
   -5.6055    2.2128   -0.1740 H   0  0  0  0  0  0  0  0  0  0  0  0
    8.3164   -0.4087   -0.6074 H   0  0  0  0  0  0  0  0  0  0  0  0
    7.8405    2.0106   -0.5222 H   0  0  0  0  0  0  0  0  0  0  0  0
   -7.8455   -1.8338   -0.3293 H   0  0  0  0  0  0  0  0  0  0  0  0
   -7.3492   -1.7779    1.3904 H   0  0  0  0  0  0  0  0  0  0  0  0
   -8.8618   -1.0532    0.8707 H   0  0  0  0  0  0  0  0  0  0  0  0
   -7.3849    1.8959    1.2956 H   0  0  0  0  0  0  0  0  0  0  0  0
   -7.8879    1.8513   -0.4225 H   0  0  0  0  0  0  0  0  0  0  0  0
   -8.8832    1.1128    0.8211 H   0  0  0  0  0  0  0  0  0  0  0  0
  1  7  1  0  0  0  0
  1  8  1  0  0  0  0
  1 10  1  0  0  0  0
  2  9  1  0  0  0  0
  2 11  1  0  0  0  0
  2 14  1  0  0  0  0
  3  9  2  0  0  0  0
  3 13  1  0  0  0  0
  4 23  1  0  0  0  0
  4 24  1  0  0  0  0
  4 25  1  0  0  0  0
  5  6  1  0  0  0  0
  5  7  1  0  0  0  0
  5  9  1  0  0  0  0
  5 26  1  0  0  0  0
  6  8  1  0  0  0  0
  6 27  1  0  0  0  0
  6 28  1  0  0  0  0
  7 29  1  0  0  0  0
  7 30  1  0  0  0  0
  8 31  1  0  0  0  0
  8 32  1  0  0  0  0
 10 12  1  0  0  0  0
 10 33  1  0  0  0  0
 10 34  1  0  0  0  0
 11 13  1  0  0  0  0
 11 15  2  0  0  0  0
 12 16  2  0  0  0  0
 12 17  1  0  0  0  0
 13 18  2  0  0  0  0
 14 35  1  0  0  0  0
 14 36  1  0  0  0  0
 14 37  1  0  0  0  0
 15 19  1  0  0  0  0
 15 38  1  0  0  0  0
 16 20  1  0  0  0  0
 16 39  1  0  0  0  0
 17 21  2  0  0  0  0
 17 40  1  0  0  0  0
 18 22  1  0  0  0  0
 18 41  1  0  0  0  0
 19 22  2  0  0  0  0
 19 44  1  0  0  0  0
 20 23  2  0  0  0  0
 20 42  1  0  0  0  0
 21 23  1  0  0  0  0
 21 43  1  0  0  0  0
 22 45  1  0  0  0  0
 24 46  1  0  0  0  0
 24 47  1  0  0  0  0
 24 48  1  0  0  0  0
 25 49  1  0  0  0  0
 25 50  1  0  0  0  0
 25 51  1  0  0  0  0
M  END
> <PUBCHEM_COMPOUND_CID>
51137886

> <PUBCHEM_CONFORMER_RMSD>
0.8

> <PUBCHEM_CONFORMER_DIVERSEORDER>
1
18
30
22
11
28
4
21
32
42
25
2
10
26
27
16
33
8
15
13
5
40
36
7
24
34
6
17
37
41
38
31
35
20
29
39
43
14
44
3
12
23
9
19

> <PUBCHEM_MMFF94_PARTIAL_CHARGES>
32
1 -0.81
10 0.41
11 -0.15
12 -0.14
13 0.23
14 0.26
15 -0.15
16 -0.15
17 -0.15
18 -0.15
19 -0.15
2 0.05
20 -0.15
21 -0.15
22 -0.15
23 0.1
24 0.37
25 0.37
3 -0.57
38 0.15
39 0.15
4 -0.84
40 0.15
41 0.15
42 0.15
43 0.15
44 0.15
45 0.15
5 0.18
7 0.27
8 0.27
9 0.01

> <PUBCHEM_EFFECTIVE_ROTOR_COUNT>
5

> <PUBCHEM_PHARMACOPHORE_FEATURES>
7
1 1 cation
1 4 cation
3 2 3 9 cation
5 1 5 6 7 8 rings
5 2 3 9 11 13 rings
6 11 13 15 18 19 22 rings
6 12 16 17 20 21 23 rings

> <PUBCHEM_HEAVY_ATOM_COUNT>
25

> <PUBCHEM_ATOM_DEF_STEREO_COUNT>
1

> <PUBCHEM_ATOM_UDEF_STEREO_COUNT>
0

> <PUBCHEM_BOND_DEF_STEREO_COUNT>
0

> <PUBCHEM_BOND_UDEF_STEREO_COUNT>
0

> <PUBCHEM_ISOTOPIC_ATOM_COUNT>
0

> <PUBCHEM_COMPONENT_COUNT>
1

> <PUBCHEM_CACTVS_TAUTO_COUNT>
1

> <PUBCHEM_CONFORMER_ID>
030C4D5E00000001

> <PUBCHEM_MMFF94_ENERGY>
71.8364

> <PUBCHEM_FEATURE_SELFOVERLAP>
35.631

> <PUBCHEM_SHAPE_FINGERPRINT>
10 15 18343867715171338143
10066227 112 18412820275076457949
10299344 5 18343019999747767631
10595046 47 18409164385707051080
11315181 36 18334858321446882081
11524674 6 16415478281486659407
11646440 116 16443067192606258868
11724838 91 17458345268832218622
11796584 16 13901900142348309052
12166972 35 18259704506470091908
12236239 1 18272368672660492804
12516196 113 17022902350316226653
12730499 353 18186518787779338330
12788726 201 17489590013454813930
14123256 10 15936127465199362601
14251752 14 17989486312281273960
14251764 18 18131348622765051327
14341114 176 18410011027067141757
14849402 71 17896045497373991764
14856354 85 17775287192605328917
14933364 13 18409729556074304893
15183329 4 16343705426067634617
15461852 350 8142077680943666793
15537594 2 17489581260311665998
17844677 252 18409169878801742565
18335252 98 18333454248681185643
19489759 90 10015586121003781607
21095086 128 18187364333068186947
21150785 3 17385445427170003922
21267235 1 18273217470057210150
21521721 280 18260268568175834594
21792961 116 17988642939269956980
220451 1 17917423233496483767
22224240 67 16515684459262910105
23035841 295 18413105061240461875
23424782 7 18114185258644718643
23516275 137 18129120960194147539
23522609 53 17916324855845952465
23536379 177 18410290302936142220
23559900 14 18339635754117298824
23569943 247 16880462676296104074
2747138 104 16877951537656426261
29717793 49 17632300065068771964
3004659 81 18343862204701884534
34797466 226 18342181068254731644
3545911 37 18334574646634363812
4073 2 18114466750717240530
4098825 35 18408885096742100225
4325135 7 18259704510099719181
4340502 62 17894627050581226322
5283156 175 17775568611979735326
5385378 56 15338852936687189927
5758199 1 17530684303503021217
59682541 35 15574719122589036541
59755656 215 13830139377310027157
6394761 36 14477247054548754601

> <PUBCHEM_SHAPE_MULTIPOLES>
494.56
23.65
1.69
0.95
12.45
0.36
0.06
-2.32
0.14
-0.88
0.06
0.32
-0.06
-0.17

> <PUBCHEM_SHAPE_SELFOVERLAP>
1070.683

> <PUBCHEM_SHAPE_VOLUME>
274

> <PUBCHEM_COORDINATE_TYPE>
2
5
10

$$$$
