51136676
  -OEChem-12032416143D

 59 61  0     1  0  0  0  0  0999 V2000
    0.1610    2.5901   -0.2905 S   0  0  0  0  0  0  0  0  0  0  0  0
    0.3403    3.1091   -1.6281 O   0  0  0  0  0  0  0  0  0  0  0  0
    1.2853    2.2290    0.5440 O   0  0  0  0  0  0  0  0  0  0  0  0
   -5.8886   -2.9274   -0.9073 O   0  0  0  0  0  0  0  0  0  0  0  0
   -5.9021   -0.6782   -0.5584 O   0  0  0  0  0  0  0  0  0  0  0  0
    5.4435   -0.3475   -1.3130 O   0  0  0  0  0  0  0  0  0  0  0  0
   -0.9228    1.2643   -0.3562 N   0  0  1  0  0  0  0  0  0  0  0  0
    0.3457   -2.3863    1.9833 N   0  0  0  0  0  0  0  0  0  0  0  0
   -1.7745   -0.8330    0.6690 C   0  0  2  0  0  0  0  0  0  0  0  0
   -3.1137   -0.6299   -0.0804 C   0  0  1  0  0  0  0  0  0  0  0  0
   -1.1098    0.5283    0.9295 C   0  0  0  0  0  0  0  0  0  0  0  0
   -2.9244    0.2168   -1.3483 C   0  0  0  0  0  0  0  0  0  0  0  0
   -2.2194    1.5339   -1.0404 C   0  0  0  0  0  0  0  0  0  0  0  0
   -0.7991   -1.7816   -0.0396 C   0  0  0  0  0  0  0  0  0  0  0  0
   -3.8236   -1.9428   -0.4097 C   0  0  0  0  0  0  0  0  0  0  0  0
    0.4601   -1.9280    0.7804 C   0  0  0  0  0  0  0  0  0  0  0  0
   -0.8486    3.7355    0.6127 C   0  0  0  0  0  0  0  0  0  0  0  0
   -5.2979   -1.7382   -0.6232 C   0  0  0  0  0  0  0  0  0  0  0  0
    1.7580   -1.5355    0.1744 C   0  0  0  0  0  0  0  0  0  0  0  0
   -0.1272    5.0546    0.8334 C   0  0  0  0  0  0  0  0  0  0  0  0
    2.8243   -1.3141    1.0553 C   0  0  0  0  0  0  0  0  0  0  0  0
    1.5750   -2.5857    2.7582 C   0  0  0  0  0  0  0  0  0  0  0  0
    2.5867   -1.4707    2.5279 C   0  0  0  0  0  0  0  0  0  0  0  0
    1.9307   -1.3734   -1.2015 C   0  0  0  0  0  0  0  0  0  0  0  0
   -0.9824    6.0305    1.6241 C   0  0  0  0  0  0  0  0  0  0  0  0
    4.0614   -0.9031    0.5515 C   0  0  0  0  0  0  0  0  0  0  0  0
    3.1741   -0.9780   -1.6964 C   0  0  0  0  0  0  0  0  0  0  0  0
    4.2357   -0.7406   -0.8229 C   0  0  0  0  0  0  0  0  0  0  0  0
    5.5523   -0.1983   -2.7277 C   0  0  0  0  0  0  0  0  0  0  0  0
   -2.0166   -1.2658    1.6500 H   0  0  0  0  0  0  0  0  0  0  0  0
   -3.7562   -0.0519    0.6005 H   0  0  0  0  0  0  0  0  0  0  0  0
   -0.1612    0.4144    1.4588 H   0  0  0  0  0  0  0  0  0  0  0  0
   -1.7635    1.1160    1.5859 H   0  0  0  0  0  0  0  0  0  0  0  0
   -3.8907    0.4385   -1.8148 H   0  0  0  0  0  0  0  0  0  0  0  0
   -2.3422   -0.3407   -2.0923 H   0  0  0  0  0  0  0  0  0  0  0  0
   -2.0483    2.0685   -1.9802 H   0  0  0  0  0  0  0  0  0  0  0  0
   -2.8712    2.1419   -0.4048 H   0  0  0  0  0  0  0  0  0  0  0  0
   -0.6197   -1.4299   -1.0527 H   0  0  0  0  0  0  0  0  0  0  0  0
   -1.2375   -2.7828   -0.1284 H   0  0  0  0  0  0  0  0  0  0  0  0
   -3.3983   -2.4057   -1.3069 H   0  0  0  0  0  0  0  0  0  0  0  0
   -3.7191   -2.6383    0.4316 H   0  0  0  0  0  0  0  0  0  0  0  0
   -1.7587    3.9278    0.0402 H   0  0  0  0  0  0  0  0  0  0  0  0
   -1.1042    3.2868    1.5760 H   0  0  0  0  0  0  0  0  0  0  0  0
    0.1380    5.5056   -0.1300 H   0  0  0  0  0  0  0  0  0  0  0  0
    0.8132    4.8848    1.3706 H   0  0  0  0  0  0  0  0  0  0  0  0
    2.0032   -3.5629    2.5020 H   0  0  0  0  0  0  0  0  0  0  0  0
    1.3155   -2.6201    3.8220 H   0  0  0  0  0  0  0  0  0  0  0  0
    3.5187   -1.7120    3.0510 H   0  0  0  0  0  0  0  0  0  0  0  0
    2.2085   -0.5214    2.9260 H   0  0  0  0  0  0  0  0  0  0  0  0
    1.1478   -1.5708   -1.9239 H   0  0  0  0  0  0  0  0  0  0  0  0
   -0.4446    6.9723    1.7718 H   0  0  0  0  0  0  0  0  0  0  0  0
   -1.2324    5.6243    2.6094 H   0  0  0  0  0  0  0  0  0  0  0  0
   -1.9156    6.2517    1.0963 H   0  0  0  0  0  0  0  0  0  0  0  0
    4.8904   -0.7105    1.2279 H   0  0  0  0  0  0  0  0  0  0  0  0
   -6.8538   -2.8306   -1.0531 H   0  0  0  0  0  0  0  0  0  0  0  0
    3.2468   -0.8767   -2.7741 H   0  0  0  0  0  0  0  0  0  0  0  0
    4.8886    0.5886   -3.1019 H   0  0  0  0  0  0  0  0  0  0  0  0
    6.5777    0.1210   -2.9409 H   0  0  0  0  0  0  0  0  0  0  0  0
    5.4004   -1.1513   -3.2459 H   0  0  0  0  0  0  0  0  0  0  0  0
  1  2  2  0  0  0  0
  1  3  2  0  0  0  0
  1  7  1  0  0  0  0
  1 17  1  0  0  0  0
  4 18  1  0  0  0  0
  4 55  1  0  0  0  0
  5 18  2  0  0  0  0
  6 28  1  0  0  0  0
  6 29  1  0  0  0  0
  7 11  1  0  0  0  0
  7 13  1  0  0  0  0
  8 16  2  0  0  0  0
  8 22  1  0  0  0  0
  9 10  1  0  0  0  0
  9 11  1  0  0  0  0
  9 14  1  0  0  0  0
  9 30  1  0  0  0  0
 10 12  1  0  0  0  0
 10 15  1  0  0  0  0
 10 31  1  0  0  0  0
 11 32  1  0  0  0  0
 11 33  1  0  0  0  0
 12 13  1  0  0  0  0
 12 34  1  0  0  0  0
 12 35  1  0  0  0  0
 13 36  1  0  0  0  0
 13 37  1  0  0  0  0
 14 16  1  0  0  0  0
 14 38  1  0  0  0  0
 14 39  1  0  0  0  0
 15 18  1  0  0  0  0
 15 40  1  0  0  0  0
 15 41  1  0  0  0  0
 16 19  1  0  0  0  0
 17 20  1  0  0  0  0
 17 42  1  0  0  0  0
 17 43  1  0  0  0  0
 19 21  2  0  0  0  0
 19 24  1  0  0  0  0
 20 25  1  0  0  0  0
 20 44  1  0  0  0  0
 20 45  1  0  0  0  0
 21 23  1  0  0  0  0
 21 26  1  0  0  0  0
 22 23  1  0  0  0  0
 22 46  1  0  0  0  0
 22 47  1  0  0  0  0
 23 48  1  0  0  0  0
 23 49  1  0  0  0  0
 24 27  2  0  0  0  0
 24 50  1  0  0  0  0
 25 51  1  0  0  0  0
 25 52  1  0  0  0  0
 25 53  1  0  0  0  0
 26 28  2  0  0  0  0
 26 54  1  0  0  0  0
 27 28  1  0  0  0  0
 27 56  1  0  0  0  0
 29 57  1  0  0  0  0
 29 58  1  0  0  0  0
 29 59  1  0  0  0  0
M  END
> <PUBCHEM_COMPOUND_CID>
51136676

> <PUBCHEM_CONFORMER_RMSD>
1

> <PUBCHEM_CONFORMER_DIVERSEORDER>
1
141
3
64
9
84
135
44
126
28
122
14
21
69
60
115
118
87
63
139
10
88
94
133
123
114
31
58
25
140
81
101
36
43
128
98
113
111
117
45
59
5
80
82
129
16
76
102
70
100
7
105
106
50
78
91
116
124
121
29
34
47
4
97
41
66
125
38
89
120
57
86
77
17
110
93
65
95
73
85
12
72
55
138
132
130
134
61
46
6
79
26
131
40
90
127
99
22
112
13
18
19
30
75
53
33
109
104
37
74
39
96
51
2
24
62
35
56
83
15
136
48
49
92
8
103
137
71
20
108
119
42
68
32
27
67
52
54
107
23
11

> <PUBCHEM_MMFF94_PARTIAL_CHARGES>
28
1 1.33
11 0.36
13 0.36
14 0.06
15 0.06
16 0.3
17 0.11
18 0.66
19 0.09
2 -0.65
21 -0.14
22 0.25
23 0.14
24 -0.15
26 -0.15
27 -0.15
28 0.08
29 0.28
3 -0.65
4 -0.65
5 -0.57
50 0.15
54 0.15
55 0.5
56 0.15
6 -0.36
7 -0.85
8 -0.7

> <PUBCHEM_EFFECTIVE_ROTOR_COUNT>
9.6

> <PUBCHEM_PHARMACOPHORE_FEATURES>
11
1 2 acceptor
1 25 hydrophobe
1 3 acceptor
1 4 acceptor
1 5 acceptor
1 6 acceptor
1 8 acceptor
3 4 5 18 anion
6 19 21 24 26 27 28 rings
6 7 9 10 11 12 13 rings
6 8 16 19 21 22 23 rings

> <PUBCHEM_HEAVY_ATOM_COUNT>
29

> <PUBCHEM_ATOM_DEF_STEREO_COUNT>
2

> <PUBCHEM_ATOM_UDEF_STEREO_COUNT>
0

> <PUBCHEM_BOND_DEF_STEREO_COUNT>
0

> <PUBCHEM_BOND_UDEF_STEREO_COUNT>
0

> <PUBCHEM_ISOTOPIC_ATOM_COUNT>
0

> <PUBCHEM_COMPONENT_COUNT>
1

> <PUBCHEM_CACTVS_TAUTO_COUNT>
1

> <PUBCHEM_CONFORMER_ID>
030C48A400000001

> <PUBCHEM_MMFF94_ENERGY>
67.9182

> <PUBCHEM_FEATURE_SELFOVERLAP>
55.923

> <PUBCHEM_SHAPE_FINGERPRINT>
10032420 55 17895740894382909311
10369192 42 16843009144472970706
11640471 11 17753618936278002610
12166972 35 17313930940785437794
12293681 160 18114753719294394890
12788726 201 18265896856803849353
13009979 54 17753869646156799994
13140716 1 18194376958396006081
13899415 154 18335425677424968947
14787075 74 18187087273270468430
14790565 3 17618499888038472381
14931854 50 18041005050745711990
15664445 248 18341891921997405667
17492 54 18041006180021390806
1813 80 18272359902284851623
18681886 176 18200311142736474687
20642791 239 17895485828874790733
20642791 35 18408881876017684103
20715895 44 16813737632095834045
20775438 99 17691671707787567487
21033648 29 17131536277143010683
2132832 1 17242992597786528594
23557571 272 18267855108292744867
23558518 356 17758395171634368835
23559900 14 18270394035945794159
238918 7 16821372069450314651
3298306 158 17832991920214813996
394222 165 16298382457892135522
484989 97 17461176610048323763
5171179 24 17758973901245024659
6442390 28 17334499302905954689
6443956 14 18339637953504836673

> <PUBCHEM_SHAPE_MULTIPOLES>
561.35
9.59
5.75
2.22
1.78
12.77
-0.49
-8.72
6.44
5.11
-3.12
-2.82
-0.66
-2.07

> <PUBCHEM_SHAPE_SELFOVERLAP>
1157.04

> <PUBCHEM_SHAPE_VOLUME>
324

> <PUBCHEM_COORDINATE_TYPE>
2
5
10

$$$$
