26741977
  -OEChem-12032416183D

 56 57  0     1  0  0  0  0  0999 V2000
   -2.6398   -3.0837    1.8695 O   0  0  0  0  0  0  0  0  0  0  0  0
   -1.8267    1.3823   -1.0501 O   0  0  0  0  0  0  0  0  0  0  0  0
    0.0477   -2.7567   -1.5127 O   0  0  0  0  0  0  0  0  0  0  0  0
    5.0399    0.3761    0.7923 O   0  0  0  0  0  0  0  0  0  0  0  0
    7.0235    2.1700    0.5357 O   0  0  0  0  0  0  0  0  0  0  0  0
   -3.7295    0.0615   -0.9066 N   0  0  0  0  0  0  0  0  0  0  0  0
   -1.0164   -1.4106    0.0462 N   0  0  0  0  0  0  0  0  0  0  0  0
   -3.7604    2.3309   -0.2505 N   0  0  0  0  0  0  0  0  0  0  0  0
    8.3332    0.7287   -0.6903 N   0  0  0  0  0  0  0  0  0  0  0  0
   -2.3583   -1.9122   -0.1909 C   0  0  1  0  0  0  0  0  0  0  0  0
   -3.1232   -1.9433    1.1458 C   0  0  1  0  0  0  0  0  0  0  0  0
   -4.6483   -2.0604    1.0385 C   0  0  0  0  0  0  0  0  0  0  0  0
   -3.0130   -1.1369   -1.3425 C   0  0  0  0  0  0  0  0  0  0  0  0
   -5.3459   -0.7159    0.8133 C   0  0  0  0  0  0  0  0  0  0  0  0
   -5.1456   -0.1396   -0.5818 C   0  0  0  0  0  0  0  0  0  0  0  0
   -3.0220    1.2686   -0.7602 C   0  0  0  0  0  0  0  0  0  0  0  0
    0.0820   -1.8859   -0.6473 C   0  0  0  0  0  0  0  0  0  0  0  0
   -3.1799    3.6356   -0.0264 C   0  0  0  0  0  0  0  0  0  0  0  0
    1.3888   -1.2892   -0.2693 C   0  0  0  0  0  0  0  0  0  0  0  0
   -2.5715    3.7121    1.3679 C   0  0  0  0  0  0  0  0  0  0  0  0
   -4.2222    4.7273   -0.2346 C   0  0  0  0  0  0  0  0  0  0  0  0
    2.5648   -2.0191   -0.4422 C   0  0  0  0  0  0  0  0  0  0  0  0
    1.4398    0.0003    0.2603 C   0  0  0  0  0  0  0  0  0  0  0  0
    3.7918   -1.4598   -0.0854 C   0  0  0  0  0  0  0  0  0  0  0  0
    2.6667    0.5597    0.6172 C   0  0  0  0  0  0  0  0  0  0  0  0
    3.8426   -0.1704    0.4443 C   0  0  0  0  0  0  0  0  0  0  0  0
    6.1848   -0.0448    0.0521 C   0  0  0  0  0  0  0  0  0  0  0  0
    7.1971    1.0753    0.0078 C   0  0  0  0  0  0  0  0  0  0  0  0
   -2.2364   -2.9468   -0.5403 H   0  0  0  0  0  0  0  0  0  0  0  0
   -2.8700   -1.0641    1.7517 H   0  0  0  0  0  0  0  0  0  0  0  0
   -5.0386   -2.4812    1.9746 H   0  0  0  0  0  0  0  0  0  0  0  0
   -4.9250   -2.7803    0.2585 H   0  0  0  0  0  0  0  0  0  0  0  0
   -2.2620   -0.8459   -2.0874 H   0  0  0  0  0  0  0  0  0  0  0  0
   -3.7221   -1.7883   -1.8673 H   0  0  0  0  0  0  0  0  0  0  0  0
   -6.4222   -0.8523    0.9750 H   0  0  0  0  0  0  0  0  0  0  0  0
   -5.0055    0.0046    1.5671 H   0  0  0  0  0  0  0  0  0  0  0  0
   -5.5782   -0.8128   -1.3321 H   0  0  0  0  0  0  0  0  0  0  0  0
   -5.7032    0.7952   -0.6821 H   0  0  0  0  0  0  0  0  0  0  0  0
   -0.9120   -0.6950    0.7568 H   0  0  0  0  0  0  0  0  0  0  0  0
   -3.0332   -3.0557    2.7584 H   0  0  0  0  0  0  0  0  0  0  0  0
   -4.6806    2.1717    0.1396 H   0  0  0  0  0  0  0  0  0  0  0  0
   -2.3780    3.7868   -0.7589 H   0  0  0  0  0  0  0  0  0  0  0  0
   -1.7981    2.9477    1.5012 H   0  0  0  0  0  0  0  0  0  0  0  0
   -3.3305    3.5493    2.1414 H   0  0  0  0  0  0  0  0  0  0  0  0
   -2.1116    4.6904    1.5415 H   0  0  0  0  0  0  0  0  0  0  0  0
   -5.0537    4.6238    0.4715 H   0  0  0  0  0  0  0  0  0  0  0  0
   -3.7818    5.7207   -0.0999 H   0  0  0  0  0  0  0  0  0  0  0  0
   -4.6407    4.6758   -1.2457 H   0  0  0  0  0  0  0  0  0  0  0  0
    2.5443   -3.0291   -0.8433 H   0  0  0  0  0  0  0  0  0  0  0  0
    0.5556    0.6178    0.3824 H   0  0  0  0  0  0  0  0  0  0  0  0
    4.6805   -2.0715   -0.2093 H   0  0  0  0  0  0  0  0  0  0  0  0
    2.7016    1.5674    1.0224 H   0  0  0  0  0  0  0  0  0  0  0  0
    6.6374   -0.9127    0.5442 H   0  0  0  0  0  0  0  0  0  0  0  0
    5.9350   -0.2819   -0.9903 H   0  0  0  0  0  0  0  0  0  0  0  0
    8.4507   -0.1850   -1.1168 H   0  0  0  0  0  0  0  0  0  0  0  0
    9.0986    1.3854   -0.8008 H   0  0  0  0  0  0  0  0  0  0  0  0
  1 11  1  0  0  0  0
  1 40  1  0  0  0  0
  2 16  2  0  0  0  0
  3 17  2  0  0  0  0
  4 26  1  0  0  0  0
  4 27  1  0  0  0  0
  5 28  2  0  0  0  0
  6 13  1  0  0  0  0
  6 15  1  0  0  0  0
  6 16  1  0  0  0  0
  7 10  1  0  0  0  0
  7 17  1  0  0  0  0
  7 39  1  0  0  0  0
  8 16  1  0  0  0  0
  8 18  1  0  0  0  0
  8 41  1  0  0  0  0
  9 28  1  0  0  0  0
  9 55  1  0  0  0  0
  9 56  1  0  0  0  0
 10 11  1  0  0  0  0
 10 13  1  0  0  0  0
 10 29  1  0  0  0  0
 11 12  1  0  0  0  0
 11 30  1  0  0  0  0
 12 14  1  0  0  0  0
 12 31  1  0  0  0  0
 12 32  1  0  0  0  0
 13 33  1  0  0  0  0
 13 34  1  0  0  0  0
 14 15  1  0  0  0  0
 14 35  1  0  0  0  0
 14 36  1  0  0  0  0
 15 37  1  0  0  0  0
 15 38  1  0  0  0  0
 17 19  1  0  0  0  0
 18 20  1  0  0  0  0
 18 21  1  0  0  0  0
 18 42  1  0  0  0  0
 19 22  2  0  0  0  0
 19 23  1  0  0  0  0
 20 43  1  0  0  0  0
 20 44  1  0  0  0  0
 20 45  1  0  0  0  0
 21 46  1  0  0  0  0
 21 47  1  0  0  0  0
 21 48  1  0  0  0  0
 22 24  1  0  0  0  0
 22 49  1  0  0  0  0
 23 25  2  0  0  0  0
 23 50  1  0  0  0  0
 24 26  2  0  0  0  0
 24 51  1  0  0  0  0
 25 26  1  0  0  0  0
 25 52  1  0  0  0  0
 27 28  1  0  0  0  0
 27 53  1  0  0  0  0
 27 54  1  0  0  0  0
M  END
> <PUBCHEM_COMPOUND_CID>
26741977

> <PUBCHEM_CONFORMER_RMSD>
1

> <PUBCHEM_CONFORMER_DIVERSEORDER>
3
2
55
21
36
11
20
52
23
53
54
51
48
16
39
18
22
38
26
58
9
17
35
42
10
25
19
40
34
37
30
60
29
32
59
47
56
46
27
8
57
44
14
28
49
31
13
41
7
50
1
6
43
33
5
12
24
4
15
45

> <PUBCHEM_MMFF94_PARTIAL_CHARGES>
33
1 -0.68
10 0.3
11 0.28
13 0.3
15 0.3
16 0.69
17 0.54
18 0.3
19 0.09
2 -0.57
22 -0.15
23 -0.15
24 -0.15
25 -0.15
26 0.08
27 0.34
28 0.57
3 -0.57
39 0.37
4 -0.36
40 0.4
41 0.37
49 0.15
5 -0.57
50 0.15
51 0.15
52 0.15
55 0.37
56 0.37
6 -0.66
7 -0.73
8 -0.73
9 -0.8

> <PUBCHEM_EFFECTIVE_ROTOR_COUNT>
10.4

> <PUBCHEM_PHARMACOPHORE_FEATURES>
12
1 1 acceptor
1 1 donor
1 2 acceptor
1 3 acceptor
1 4 acceptor
1 5 acceptor
1 7 donor
1 8 donor
1 9 donor
3 18 20 21 hydrophobe
6 19 22 23 24 25 26 rings
7 6 10 11 12 13 14 15 rings

> <PUBCHEM_HEAVY_ATOM_COUNT>
28

> <PUBCHEM_ATOM_DEF_STEREO_COUNT>
2

> <PUBCHEM_ATOM_UDEF_STEREO_COUNT>
0

> <PUBCHEM_BOND_DEF_STEREO_COUNT>
0

> <PUBCHEM_BOND_UDEF_STEREO_COUNT>
0

> <PUBCHEM_ISOTOPIC_ATOM_COUNT>
0

> <PUBCHEM_COMPONENT_COUNT>
1

> <PUBCHEM_CACTVS_TAUTO_COUNT>
8

> <PUBCHEM_CONFORMER_ID>
01980CD900000003

> <PUBCHEM_MMFF94_ENERGY>
68.5225

> <PUBCHEM_FEATURE_SELFOVERLAP>
60.907

> <PUBCHEM_SHAPE_FINGERPRINT>
10 15 18259703419257582474
10291535 26 18408324393388923283
11135609 149 16414091668807070868
12107183 9 17757258293827891746
12390115 104 18341619174768475140
12596602 18 17530955887054102234
12788726 201 18336536150051611553
13073987 5 18261672589085912618
13726171 33 18340208488138661432
14251764 75 17839185100142749177
14347329 18 18271235046170944688
14790565 3 18410854408842551148
14849402 71 16081941498231224262
15183329 4 16773805814154797414
15338160 23 18408327665911734165
15604295 49 18127687344315586264
21033648 29 18130492094348099786
21279426 13 18058172722528318662
21792961 116 18272376361248285338
22182937 141 18196093240497095857
22956985 138 16961274990268969499
23569914 152 16838267732696370100
23845131 108 17683813104100908457
24771293 8 18271537442582031427
283562 15 18334852776517508931
2838139 119 18272078414781526156
3418910 222 17823715229390563548
4073 2 18334860468234211042
4144715 1 18261401027094285178
445580 37 18408613569727441700
5104073 3 18187918440380226578
57527585 21 17985522495939164597
7288768 16 18190180079747637113
9981440 41 18269543958480186611

> <PUBCHEM_SHAPE_MULTIPOLES>
526.96
16.87
4.51
1.2
35.91
5.16
0.14
8.73
0.84
-7.39
0.64
-1.08
-0.44
1.32

> <PUBCHEM_SHAPE_SELFOVERLAP>
1080.827

> <PUBCHEM_SHAPE_VOLUME>
300

> <PUBCHEM_COORDINATE_TYPE>
2
5
10

$$$$
