7144117
  -OEChem-12032416113D

 62 66  0     1  0  0  0  0  0999 V2000
    1.2594    2.0663   -1.5490 S   0  0  0  0  0  0  0  0  0  0  0  0
    1.5396    3.4764   -1.7198 O   0  0  0  0  0  0  0  0  0  0  0  0
    0.7839    1.2625   -2.6554 O   0  0  0  0  0  0  0  0  0  0  0  0
   -4.2637    3.9890   -0.0006 O   0  0  0  0  0  0  0  0  0  0  0  0
   -2.4046   -5.5140   -0.3734 O   0  0  0  0  0  0  0  0  0  0  0  0
    5.9320   -2.7597   -0.0522 O   0  0  0  0  0  0  0  0  0  0  0  0
    0.2039    1.8621   -0.2181 N   0  0  2  0  0  0  0  0  0  0  0  0
   -2.8175    2.2418    0.5849 N   0  0  0  0  0  0  0  0  0  0  0  0
    6.1534   -0.5048    0.5993 N   0  0  0  0  0  0  0  0  0  0  0  0
   -0.6957    2.6590    1.9632 C   0  0  1  0  0  0  0  0  0  0  0  0
   -1.2270    0.3907    1.1889 C   0  0  2  0  0  0  0  0  0  0  0  0
   -0.8881    1.2234    2.4229 C   0  0  0  0  0  0  0  0  0  0  0  0
    0.4511    2.7585    0.9456 C   0  0  0  0  0  0  0  0  0  0  0  0
   -0.0526    0.4509    0.1924 C   0  0  0  0  0  0  0  0  0  0  0  0
   -2.0206    3.1720    1.3966 C   0  0  0  0  0  0  0  0  0  0  0  0
   -2.5245    0.8647    0.5279 C   0  0  0  0  0  0  0  0  0  0  0  0
   -3.3719    0.0191   -0.1146 C   0  0  0  0  0  0  0  0  0  0  0  0
   -3.9530    2.7978   -0.0311 C   0  0  0  0  0  0  0  0  0  0  0  0
   -4.5512    0.5571   -0.7657 C   0  0  0  0  0  0  0  0  0  0  0  0
   -4.8402    1.8581   -0.7534 C   0  0  0  0  0  0  0  0  0  0  0  0
    2.7163    1.3010   -0.9093 C   0  0  0  0  0  0  0  0  0  0  0  0
   -3.1174   -1.4365   -0.1834 C   0  0  0  0  0  0  0  0  0  0  0  0
    2.9147   -0.0546   -1.1126 C   0  0  0  0  0  0  0  0  0  0  0  0
    3.6363    2.0693   -0.2150 C   0  0  0  0  0  0  0  0  0  0  0  0
   -2.3653   -1.9580   -1.2313 C   0  0  0  0  0  0  0  0  0  0  0  0
   -3.6322   -2.2740    0.8014 C   0  0  0  0  0  0  0  0  0  0  0  0
    4.0655   -0.6593   -0.6072 C   0  0  0  0  0  0  0  0  0  0  0  0
    4.7872    1.4645    0.2903 C   0  0  0  0  0  0  0  0  0  0  0  0
   -2.1256   -3.3307   -1.2952 C   0  0  0  0  0  0  0  0  0  0  0  0
   -3.3925   -3.6467    0.7377 C   0  0  0  0  0  0  0  0  0  0  0  0
    5.0019    0.1002    0.0941 C   0  0  0  0  0  0  0  0  0  0  0  0
   -2.6391   -4.1751   -0.3107 C   0  0  0  0  0  0  0  0  0  0  0  0
    6.5377   -1.8487    0.5028 C   0  0  0  0  0  0  0  0  0  0  0  0
   -2.9588   -6.3199    0.6656 C   0  0  0  0  0  0  0  0  0  0  0  0
    7.8588   -2.1026    1.1845 C   0  0  0  0  0  0  0  0  0  0  0  0
   -0.4255    3.2843    2.8235 H   0  0  0  0  0  0  0  0  0  0  0  0
   -1.3283   -0.6455    1.5308 H   0  0  0  0  0  0  0  0  0  0  0  0
   -1.6899    1.1578    3.1691 H   0  0  0  0  0  0  0  0  0  0  0  0
    0.0254    0.8484    2.9006 H   0  0  0  0  0  0  0  0  0  0  0  0
    0.5374    3.7968    0.6085 H   0  0  0  0  0  0  0  0  0  0  0  0
    1.3876    2.4790    1.4396 H   0  0  0  0  0  0  0  0  0  0  0  0
    0.8336    0.0340    0.6828 H   0  0  0  0  0  0  0  0  0  0  0  0
   -0.2723   -0.1550   -0.6900 H   0  0  0  0  0  0  0  0  0  0  0  0
   -2.6697    3.4579    2.2361 H   0  0  0  0  0  0  0  0  0  0  0  0
   -1.8589    4.0909    0.8187 H   0  0  0  0  0  0  0  0  0  0  0  0
   -5.2089   -0.1311   -1.2885 H   0  0  0  0  0  0  0  0  0  0  0  0
   -5.7208    2.2519   -1.2469 H   0  0  0  0  0  0  0  0  0  0  0  0
    2.1971   -0.6635   -1.6541 H   0  0  0  0  0  0  0  0  0  0  0  0
    3.4868    3.1317   -0.0487 H   0  0  0  0  0  0  0  0  0  0  0  0
   -1.9653   -1.3145   -2.0107 H   0  0  0  0  0  0  0  0  0  0  0  0
   -4.2202   -1.8748    1.6242 H   0  0  0  0  0  0  0  0  0  0  0  0
    4.1615   -1.7190   -0.7980 H   0  0  0  0  0  0  0  0  0  0  0  0
    5.5081    2.0684    0.8357 H   0  0  0  0  0  0  0  0  0  0  0  0
   -1.5394   -3.7366   -2.1151 H   0  0  0  0  0  0  0  0  0  0  0  0
   -3.8204   -4.2446    1.5350 H   0  0  0  0  0  0  0  0  0  0  0  0
    6.7867    0.1162    1.0989 H   0  0  0  0  0  0  0  0  0  0  0  0
   -2.6743   -7.3565    0.4573 H   0  0  0  0  0  0  0  0  0  0  0  0
   -4.0534   -6.2822    0.6635 H   0  0  0  0  0  0  0  0  0  0  0  0
   -2.5366   -6.0626    1.6429 H   0  0  0  0  0  0  0  0  0  0  0  0
    8.6435   -1.5152    0.6995 H   0  0  0  0  0  0  0  0  0  0  0  0
    8.1141   -3.1636    1.1148 H   0  0  0  0  0  0  0  0  0  0  0  0
    7.7919   -1.8231    2.2397 H   0  0  0  0  0  0  0  0  0  0  0  0
  1  2  2  0  0  0  0
  1  3  2  0  0  0  0
  1  7  1  0  0  0  0
  1 21  1  0  0  0  0
  4 18  2  0  0  0  0
  5 32  1  0  0  0  0
  5 34  1  0  0  0  0
  6 33  2  0  0  0  0
  7 13  1  0  0  0  0
  7 14  1  0  0  0  0
  8 15  1  0  0  0  0
  8 16  1  0  0  0  0
  8 18  1  0  0  0  0
  9 31  1  0  0  0  0
  9 33  1  0  0  0  0
  9 56  1  0  0  0  0
 10 12  1  0  0  0  0
 10 13  1  0  0  0  0
 10 15  1  0  0  0  0
 10 36  1  0  0  0  0
 11 12  1  0  0  0  0
 11 14  1  0  0  0  0
 11 16  1  0  0  0  0
 11 37  1  0  0  0  0
 12 38  1  0  0  0  0
 12 39  1  0  0  0  0
 13 40  1  0  0  0  0
 13 41  1  0  0  0  0
 14 42  1  0  0  0  0
 14 43  1  0  0  0  0
 15 44  1  0  0  0  0
 15 45  1  0  0  0  0
 16 17  2  0  0  0  0
 17 19  1  0  0  0  0
 17 22  1  0  0  0  0
 18 20  1  0  0  0  0
 19 20  2  0  0  0  0
 19 46  1  0  0  0  0
 20 47  1  0  0  0  0
 21 23  2  0  0  0  0
 21 24  1  0  0  0  0
 22 25  2  0  0  0  0
 22 26  1  0  0  0  0
 23 27  1  0  0  0  0
 23 48  1  0  0  0  0
 24 28  2  0  0  0  0
 24 49  1  0  0  0  0
 25 29  1  0  0  0  0
 25 50  1  0  0  0  0
 26 30  2  0  0  0  0
 26 51  1  0  0  0  0
 27 31  2  0  0  0  0
 27 52  1  0  0  0  0
 28 31  1  0  0  0  0
 28 53  1  0  0  0  0
 29 32  2  0  0  0  0
 29 54  1  0  0  0  0
 30 32  1  0  0  0  0
 30 55  1  0  0  0  0
 33 35  1  0  0  0  0
 34 57  1  0  0  0  0
 34 58  1  0  0  0  0
 34 59  1  0  0  0  0
 35 60  1  0  0  0  0
 35 61  1  0  0  0  0
 35 62  1  0  0  0  0
M  END
> <PUBCHEM_COMPOUND_CID>
7144117

> <PUBCHEM_CONFORMER_RMSD>
1

> <PUBCHEM_CONFORMER_DIVERSEORDER>
2
1
3
4
7
5
6

> <PUBCHEM_MMFF94_PARTIAL_CHARGES>
44
1 1.45
11 0.14
13 0.36
14 0.36
15 0.3
16 -0.03
17 -0.03
18 0.62
19 -0.15
2 -0.65
20 -0.14
21 -0.01
22 0.03
23 -0.15
24 -0.15
25 -0.15
26 -0.15
27 -0.15
28 -0.15
29 -0.15
3 -0.65
30 -0.15
31 0.12
32 0.08
33 0.57
34 0.28
35 0.06
4 -0.57
46 0.15
47 0.15
48 0.15
49 0.15
5 -0.36
50 0.15
51 0.15
52 0.15
53 0.15
54 0.15
55 0.15
56 0.37
6 -0.57
7 -0.85
8 -0.47
9 -0.55

> <PUBCHEM_EFFECTIVE_ROTOR_COUNT>
7

> <PUBCHEM_PHARMACOPHORE_FEATURES>
11
1 2 acceptor
1 3 acceptor
1 4 acceptor
1 5 acceptor
1 6 acceptor
1 9 donor
6 21 23 24 27 28 31 rings
6 22 25 26 29 30 32 rings
6 7 10 11 12 13 14 rings
6 8 10 11 12 15 16 rings
6 8 16 17 18 19 20 rings

> <PUBCHEM_HEAVY_ATOM_COUNT>
35

> <PUBCHEM_ATOM_DEF_STEREO_COUNT>
2

> <PUBCHEM_ATOM_UDEF_STEREO_COUNT>
0

> <PUBCHEM_BOND_DEF_STEREO_COUNT>
0

> <PUBCHEM_BOND_UDEF_STEREO_COUNT>
0

> <PUBCHEM_ISOTOPIC_ATOM_COUNT>
0

> <PUBCHEM_COMPONENT_COUNT>
1

> <PUBCHEM_CACTVS_TAUTO_COUNT>
2

> <PUBCHEM_CONFORMER_ID>
006D02B500000002

> <PUBCHEM_MMFF94_ENERGY>
102.8629

> <PUBCHEM_FEATURE_SELFOVERLAP>
57.425

> <PUBCHEM_SHAPE_FINGERPRINT>
10622 236 18261950860180674042
10928967 22 17550399865238705895
11285246 1 17750793440081203170
11387372 6 18055638309703945606
11621639 148 15672105745210954849
11621639 208 14375925314926464854
12202916 173 17917701371468189653
12608794 3 18129965411320793601
12712778 12 18342454837564221270
12977781 61 17984397892758783593
13583140 156 17917425501165791352
14114207 22 17831574280654199159
14705955 166 16987716784205609008
14844126 61 18413670209943228843
15064981 113 18191584155611544301
15297060 5 18057882446440971467
15320294 125 18261395498943770102
15439362 3 17544474155512946045
15484559 13 14286341861659225244
15728490 83 18336270162026480562
15968369 26 17039486554881670667
16114785 44 15338576929156582243
17492 89 18191308384393027830
17909252 39 17833830856171350402
18603816 31 18187357676522941290
19958102 18 18337102363489549125
20511986 3 18261101946904203304
20764821 26 16251941641512781550
20775530 9 17624426667838381591
21049683 118 16051010865214082561
23559900 14 18343011220814263224
23572383 38 18131071494152962598
3383291 50 18412826859377510227
354706 109 18127103348125011538
3886686 26 18337959978370261718
4017518 198 18122908621049880550
437795 163 18338517577806437304
4394409 98 18191862327873967317
44062 13 18408605893776643831
463206 1 18341336694399963825
49967989 163 18341063973226356078
5081480 168 15068630413345846734
5085150 59 18129651994091578734
513202 73 18043541706118663171
70251023 43 17255402047501710475
77296 10 18411135879192329480
7970288 3 17616815878310873875
9961470 85 18124877863544936750
9981440 41 17346037745172467749

> <PUBCHEM_SHAPE_MULTIPOLES>
679.84
13.44
6.89
1.67
27.4
9.89
0.03
8.82
-1.82
-8.99
-0.77
0.06
-0.92
-1.31

> <PUBCHEM_SHAPE_SELFOVERLAP>
1472.532

> <PUBCHEM_SHAPE_VOLUME>
372.4

> <PUBCHEM_COORDINATE_TYPE>
2
5
10

$$$$
