45360772
  -OEChem-12032416403D

 61 64  0     1  0  0  0  0  0999 V2000
    2.3566   -4.4697   -1.0272 O   0  0  0  0  0  0  0  0  0  0  0  0
   -3.7783   -0.1089    2.3346 O   0  0  0  0  0  0  0  0  0  0  0  0
   -7.8847    2.1010   -1.5676 O   0  0  0  0  0  0  0  0  0  0  0  0
    0.0684   -1.7216   -0.2963 N   0  0  1  0  0  0  0  0  0  0  0  0
    0.7117   -4.3228    0.5363 N   0  0  0  0  0  0  0  0  0  0  0  0
    3.0446    0.3161    0.0573 N   0  0  0  0  0  0  0  0  0  0  0  0
   -4.3703    1.1238    0.4563 N   0  0  0  0  0  0  0  0  0  0  0  0
    0.9926   -2.4975   -1.1330 C   0  0  1  0  0  0  0  0  0  0  0  0
   -0.9470   -2.5222    0.3788 C   0  0  1  0  0  0  0  0  0  0  0  0
    1.8705   -0.3180   -0.5203 C   0  0  1  0  0  0  0  0  0  0  0  0
    2.2030   -1.5714   -1.3305 C   0  0  0  0  0  0  0  0  0  0  0  0
    0.8785   -0.8204    0.5198 C   0  0  0  0  0  0  0  0  0  0  0  0
   -0.3031   -3.5863    1.2538 C   0  0  0  0  0  0  0  0  0  0  0  0
   -1.9339   -1.6743    1.1822 C   0  0  0  0  0  0  0  0  0  0  0  0
    1.4269   -3.8293   -0.5278 C   0  0  0  0  0  0  0  0  0  0  0  0
   -2.6496   -0.6436    0.3214 C   0  0  0  0  0  0  0  0  0  0  0  0
    3.7477    1.1186   -0.9357 C   0  0  0  0  0  0  0  0  0  0  0  0
   -3.6464    0.1433    1.1342 C   0  0  0  0  0  0  0  0  0  0  0  0
   -5.3244    1.9612    1.1877 C   0  0  0  0  0  0  0  0  0  0  0  0
   -4.2346    1.4455   -0.9705 C   0  0  0  0  0  0  0  0  0  0  0  0
   -6.6999    1.9205    0.5305 C   0  0  0  0  0  0  0  0  0  0  0  0
   -5.5916    1.3976   -1.6667 C   0  0  0  0  0  0  0  0  0  0  0  0
   -6.6145    2.2817   -0.9532 C   0  0  0  0  0  0  0  0  0  0  0  0
    4.9756    1.7729   -0.3605 C   0  0  0  0  0  0  0  0  0  0  0  0
    4.8848    3.0391    0.2176 C   0  0  0  0  0  0  0  0  0  0  0  0
    6.2037    1.1133   -0.4054 C   0  0  0  0  0  0  0  0  0  0  0  0
    6.0223    3.6457    0.7508 C   0  0  0  0  0  0  0  0  0  0  0  0
    7.3411    1.7196    0.1276 C   0  0  0  0  0  0  0  0  0  0  0  0
    7.2505    2.9859    0.7057 C   0  0  0  0  0  0  0  0  0  0  0  0
    0.5167   -2.7204   -2.0952 H   0  0  0  0  0  0  0  0  0  0  0  0
   -1.5245   -3.0355   -0.4036 H   0  0  0  0  0  0  0  0  0  0  0  0
    1.3349    0.3959   -1.1646 H   0  0  0  0  0  0  0  0  0  0  0  0
    3.1330   -2.0324   -0.9759 H   0  0  0  0  0  0  0  0  0  0  0  0
    2.3414   -1.3157   -2.3873 H   0  0  0  0  0  0  0  0  0  0  0  0
    0.3041    0.0104    0.9414 H   0  0  0  0  0  0  0  0  0  0  0  0
    1.3912   -1.3448    1.3353 H   0  0  0  0  0  0  0  0  0  0  0  0
   -1.0479   -4.3123    1.5974 H   0  0  0  0  0  0  0  0  0  0  0  0
    0.1752   -3.1589    2.1420 H   0  0  0  0  0  0  0  0  0  0  0  0
   -2.6781   -2.3432    1.6360 H   0  0  0  0  0  0  0  0  0  0  0  0
   -1.4265   -1.1810    2.0216 H   0  0  0  0  0  0  0  0  0  0  0  0
    0.9970   -5.2199    0.9167 H   0  0  0  0  0  0  0  0  0  0  0  0
    2.7529    0.9223    0.8245 H   0  0  0  0  0  0  0  0  0  0  0  0
   -3.1833   -1.1558   -0.4871 H   0  0  0  0  0  0  0  0  0  0  0  0
   -1.9325    0.0608   -0.1124 H   0  0  0  0  0  0  0  0  0  0  0  0
    4.0507    0.5004   -1.7904 H   0  0  0  0  0  0  0  0  0  0  0  0
    3.0890    1.8982   -1.3412 H   0  0  0  0  0  0  0  0  0  0  0  0
   -5.4038    1.6421    2.2316 H   0  0  0  0  0  0  0  0  0  0  0  0
   -4.9289    2.9838    1.1870 H   0  0  0  0  0  0  0  0  0  0  0  0
   -3.8095    2.4544   -1.0339 H   0  0  0  0  0  0  0  0  0  0  0  0
   -3.5441    0.7734   -1.4821 H   0  0  0  0  0  0  0  0  0  0  0  0
   -7.1353    0.9182    0.6371 H   0  0  0  0  0  0  0  0  0  0  0  0
   -7.3862    2.6040    1.0441 H   0  0  0  0  0  0  0  0  0  0  0  0
   -5.4932    1.7103   -2.7129 H   0  0  0  0  0  0  0  0  0  0  0  0
   -5.9590    0.3632   -1.6942 H   0  0  0  0  0  0  0  0  0  0  0  0
   -6.3320    3.3351   -1.0673 H   0  0  0  0  0  0  0  0  0  0  0  0
    3.9335    3.5627    0.2605 H   0  0  0  0  0  0  0  0  0  0  0  0
    6.2872    0.1257   -0.8515 H   0  0  0  0  0  0  0  0  0  0  0  0
   -8.5206    2.6663   -1.0967 H   0  0  0  0  0  0  0  0  0  0  0  0
    5.9516    4.6313    1.2014 H   0  0  0  0  0  0  0  0  0  0  0  0
    8.2973    1.2058    0.0930 H   0  0  0  0  0  0  0  0  0  0  0  0
    8.1361    3.4579    1.1209 H   0  0  0  0  0  0  0  0  0  0  0  0
  1 15  2  0  0  0  0
  2 18  2  0  0  0  0
  3 23  1  0  0  0  0
  3 58  1  0  0  0  0
  4  8  1  0  0  0  0
  4  9  1  0  0  0  0
  4 12  1  0  0  0  0
  5 13  1  0  0  0  0
  5 15  1  0  0  0  0
  5 41  1  0  0  0  0
  6 10  1  0  0  0  0
  6 17  1  0  0  0  0
  6 42  1  0  0  0  0
  7 18  1  0  0  0  0
  7 19  1  0  0  0  0
  7 20  1  0  0  0  0
  8 11  1  0  0  0  0
  8 15  1  0  0  0  0
  8 30  1  0  0  0  0
  9 13  1  0  0  0  0
  9 14  1  0  0  0  0
  9 31  1  0  0  0  0
 10 11  1  0  0  0  0
 10 12  1  0  0  0  0
 10 32  1  0  0  0  0
 11 33  1  0  0  0  0
 11 34  1  0  0  0  0
 12 35  1  0  0  0  0
 12 36  1  0  0  0  0
 13 37  1  0  0  0  0
 13 38  1  0  0  0  0
 14 16  1  0  0  0  0
 14 39  1  0  0  0  0
 14 40  1  0  0  0  0
 16 18  1  0  0  0  0
 16 43  1  0  0  0  0
 16 44  1  0  0  0  0
 17 24  1  0  0  0  0
 17 45  1  0  0  0  0
 17 46  1  0  0  0  0
 19 21  1  0  0  0  0
 19 47  1  0  0  0  0
 19 48  1  0  0  0  0
 20 22  1  0  0  0  0
 20 49  1  0  0  0  0
 20 50  1  0  0  0  0
 21 23  1  0  0  0  0
 21 51  1  0  0  0  0
 21 52  1  0  0  0  0
 22 23  1  0  0  0  0
 22 53  1  0  0  0  0
 22 54  1  0  0  0  0
 23 55  1  0  0  0  0
 24 25  2  0  0  0  0
 24 26  1  0  0  0  0
 25 27  1  0  0  0  0
 25 56  1  0  0  0  0
 26 28  2  0  0  0  0
 26 57  1  0  0  0  0
 27 29  2  0  0  0  0
 27 59  1  0  0  0  0
 28 29  1  0  0  0  0
 28 60  1  0  0  0  0
 29 61  1  0  0  0  0
M  END
> <PUBCHEM_COMPOUND_CID>
45360772

> <PUBCHEM_CONFORMER_RMSD>
1

> <PUBCHEM_CONFORMER_DIVERSEORDER>
1
148
144
118
160
7
131
54
94
129
60
111
155
102
48
151
42
146
114
57
99
145
28
103
90
130
137
43
85
150
139
27
87
132
70
80
2
124
86
142
52
16
100
81
116
13
154
84
22
11
122
15
34
93
23
71
126
113
65
110
56
158
161
92
83
108
37
121
44
127
128
164
66
59
136
89
10
133
159
50
3
107
76
33
104
120
63
26
4
31
20
62
77
40
119
73
12
68
157
117
140
17
51
47
61
156
30
97
49
35
21
125
143
163
39
149
109
134
36
14
152
78
101
41
106
18
29
95
135
38
55
64
32
53
74
147
82
112
58
96
72
24
138
162
6
19
141
75
8
123
45
25
153
67
88
91
5
46
9
115
105
98
79
69

> <PUBCHEM_MMFF94_PARTIAL_CHARGES>
33
1 -0.57
10 0.27
12 0.27
13 0.3
15 0.57
16 0.06
17 0.41
18 0.57
19 0.3
2 -0.57
20 0.3
23 0.28
24 -0.14
25 -0.15
26 -0.15
27 -0.15
28 -0.15
29 -0.15
3 -0.68
4 -0.81
41 0.37
42 0.36
5 -0.73
56 0.15
57 0.15
58 0.4
59 0.15
6 -0.9
60 0.15
61 0.15
7 -0.66
8 0.33
9 0.27

> <PUBCHEM_EFFECTIVE_ROTOR_COUNT>
9.4

> <PUBCHEM_PHARMACOPHORE_FEATURES>
12
1 1 acceptor
1 2 acceptor
1 3 acceptor
1 3 donor
1 4 cation
1 5 donor
1 6 cation
1 6 donor
5 4 8 10 11 12 rings
6 24 25 26 27 28 29 rings
6 4 5 8 9 13 15 rings
6 7 19 20 21 22 23 rings

> <PUBCHEM_HEAVY_ATOM_COUNT>
29

> <PUBCHEM_ATOM_DEF_STEREO_COUNT>
3

> <PUBCHEM_ATOM_UDEF_STEREO_COUNT>
0

> <PUBCHEM_BOND_DEF_STEREO_COUNT>
0

> <PUBCHEM_BOND_UDEF_STEREO_COUNT>
0

> <PUBCHEM_ISOTOPIC_ATOM_COUNT>
0

> <PUBCHEM_COMPONENT_COUNT>
1

> <PUBCHEM_CACTVS_TAUTO_COUNT>
3

> <PUBCHEM_CONFORMER_ID>
02B4268400000001

> <PUBCHEM_MMFF94_ENERGY>
59.5229

> <PUBCHEM_FEATURE_SELFOVERLAP>
61.085

> <PUBCHEM_SHAPE_FINGERPRINT>
10675989 125 18268721515102439784
10904742 38 18340482386951271600
11112241 14 18409451367428259173
11135609 127 18119516649727664389
11227688 84 8934178969601683401
11273773 42 17917436402499605945
11476731 99 17463954775875302485
12107183 9 18410007776541738074
12422481 6 17821731671611338492
12925494 130 18410294748718190106
13103583 49 15430037711899869552
13540713 4 18263666016557812507
14251764 30 8935003663646878672
14415360 78 18268980046174879669
14950920 106 15647904888539897088
15324884 4 17898887628079628387
15350500 185 18187354433759660637
15669420 48 18261384595139812951
15803439 3 16917072191468623390
16120349 189 18337954596780955940
20554085 129 18130773565209100482
20715895 44 18341900714470726328
21033648 29 18114190747602120206
21133410 32 15409762786319208870
21304303 282 18269550718352905838
21859007 373 18260828185962913852
23522609 53 17344922828504985785
23559900 14 17098360609887663103
2748736 6 18341893004398015560
2838139 119 18341331210011745108
3388396 114 18130790006186589329
376196 1 18411706499714942994
393628 179 18201709691605134280
393628 194 18340778116988331953
397638 26 18334572473666411584
4112364 45 17895463744079180363
4330586 98 13973674100788515404
5219985 13 18337393837302741596
6201320 77 13985478350650660568
6327066 14 18409726287504024357
6371380 46 18339938060846224046
8217 86 9799419914580029144
9896288 288 17898295154658353402
9981440 41 18338248179313081442
999808 66 9151178649174201185

> <PUBCHEM_SHAPE_MULTIPOLES>
559.27
20.01
5.67
1.47
1.34
5.56
0.09
-33.1
-1.46
-4.12
0.03
1.97
0.02
3.02

> <PUBCHEM_SHAPE_SELFOVERLAP>
1173.171

> <PUBCHEM_SHAPE_VOLUME>
314.2

> <PUBCHEM_COORDINATE_TYPE>
2
5
10

$$$$
