75536148
  -OEChem-12032416343D

 71 73  0     1  0  0  0  0  0999 V2000
    8.5788    1.8537    0.1879 Cl  0  0  0  0  0  0  0  0  0  0  0  0
   -2.6489   -0.1327   -2.5027 O   0  0  0  0  0  0  0  0  0  0  0  0
   -3.0168    2.2355   -1.3517 O   0  0  0  0  0  0  0  0  0  0  0  0
   -3.9178    0.2905    1.5653 O   0  0  0  0  0  0  0  0  0  0  0  0
   -5.7095    0.9633   -1.4756 O   0  0  0  0  0  0  0  0  0  0  0  0
   -5.7794   -0.7890   -0.0344 O   0  0  0  0  0  0  0  0  0  0  0  0
   -2.0491    3.6136    0.2298 O   0  0  0  0  0  0  0  0  0  0  0  0
   -3.4457    2.2584    2.6795 O   0  0  0  0  0  0  0  0  0  0  0  0
   -2.4514   -1.2561   -0.4780 N   0  0  0  0  0  0  0  0  0  0  0  0
    3.9370   -0.0825    1.6036 N   0  0  0  0  0  0  0  0  0  0  0  0
    2.8910    0.7442   -0.1805 N   0  0  0  0  0  0  0  0  0  0  0  0
    4.8260    1.8050   -1.1924 N   0  0  0  0  0  0  0  0  0  0  0  0
    0.3448   -2.1808   -1.0858 C   0  0  1  0  0  0  0  0  0  0  0  0
   -0.8045   -3.0545   -0.5241 C   0  0  1  0  0  0  0  0  0  0  0  0
    1.6338   -2.4085   -0.2815 C   0  0  0  0  0  0  0  0  0  0  0  0
    1.4546   -2.0779    1.2123 C   0  0  2  0  0  0  0  0  0  0  0  0
    0.6021   -2.4643   -2.5690 C   0  0  0  0  0  0  0  0  0  0  0  0
    0.1880   -2.6893    1.7763 C   0  0  0  0  0  0  0  0  0  0  0  0
   -0.8048   -3.1323    0.9846 C   0  0  0  0  0  0  0  0  0  0  0  0
   -2.1691   -2.5525   -1.0097 C   0  0  0  0  0  0  0  0  0  0  0  0
    1.4865   -0.5641    1.4506 C   0  0  0  0  0  0  0  0  0  0  0  0
    1.4703   -3.7080   -2.7301 C   0  0  0  0  0  0  0  0  0  0  0  0
    1.2558   -1.2581   -3.2358 C   0  0  0  0  0  0  0  0  0  0  0  0
    0.1079   -2.8217    3.2717 C   0  0  0  0  0  0  0  0  0  0  0  0
    2.7542    0.0472    0.9264 C   0  0  0  0  0  0  0  0  0  0  0  0
   -2.6724   -0.1322   -1.2737 C   0  0  0  0  0  0  0  0  0  0  0  0
    4.8985    0.5744    0.8850 C   0  0  0  0  0  0  0  0  0  0  0  0
   -2.9292    1.1321   -0.4611 C   0  0  2  0  0  0  0  0  0  0  0  0
    4.2211    1.0790   -0.2193 C   0  0  0  0  0  0  0  0  0  0  0  0
   -4.2055    1.0186    0.3784 C   0  0  1  0  0  0  0  0  0  0  0  0
    6.2608    0.7815    1.0711 C   0  0  0  0  0  0  0  0  0  0  0  0
    6.8957    1.5254    0.0801 C   0  0  0  0  0  0  0  0  0  0  0  0
    6.1517    1.9976   -0.9960 C   0  0  0  0  0  0  0  0  0  0  0  0
   -5.2981    0.2839   -0.3742 C   0  0  0  0  0  0  0  0  0  0  0  0
   -2.5372    3.4251   -0.8763 C   0  0  0  0  0  0  0  0  0  0  0  0
   -3.5478    1.0395    2.6478 C   0  0  0  0  0  0  0  0  0  0  0  0
   -2.6942    4.4918   -1.9173 C   0  0  0  0  0  0  0  0  0  0  0  0
   -3.2771    0.1440    3.8187 C   0  0  0  0  0  0  0  0  0  0  0  0
    0.0697   -1.1242   -0.9814 H   0  0  0  0  0  0  0  0  0  0  0  0
   -0.6906   -4.0851   -0.8829 H   0  0  0  0  0  0  0  0  0  0  0  0
    2.4835   -1.8738   -0.7139 H   0  0  0  0  0  0  0  0  0  0  0  0
    1.9096   -3.4717   -0.3080 H   0  0  0  0  0  0  0  0  0  0  0  0
    2.3087   -2.5317    1.7353 H   0  0  0  0  0  0  0  0  0  0  0  0
   -0.3427   -2.6403   -3.0935 H   0  0  0  0  0  0  0  0  0  0  0  0
   -1.6712   -3.6050    1.4433 H   0  0  0  0  0  0  0  0  0  0  0  0
   -2.9651   -3.2169   -0.6519 H   0  0  0  0  0  0  0  0  0  0  0  0
   -2.2377   -2.5440   -2.1008 H   0  0  0  0  0  0  0  0  0  0  0  0
    1.4129   -0.3398    2.5221 H   0  0  0  0  0  0  0  0  0  0  0  0
    0.6297   -0.0695    0.9766 H   0  0  0  0  0  0  0  0  0  0  0  0
    1.0803   -4.5699   -2.1808 H   0  0  0  0  0  0  0  0  0  0  0  0
    1.4890   -3.9985   -3.7879 H   0  0  0  0  0  0  0  0  0  0  0  0
    2.5158   -3.5433   -2.4493 H   0  0  0  0  0  0  0  0  0  0  0  0
    1.4057   -1.4467   -4.3046 H   0  0  0  0  0  0  0  0  0  0  0  0
    2.2333   -1.0224   -2.8038 H   0  0  0  0  0  0  0  0  0  0  0  0
    0.6219   -0.3693   -3.1452 H   0  0  0  0  0  0  0  0  0  0  0  0
   -0.7980   -3.3481    3.5908 H   0  0  0  0  0  0  0  0  0  0  0  0
    0.0998   -1.8371    3.7485 H   0  0  0  0  0  0  0  0  0  0  0  0
    0.9665   -3.3860    3.6499 H   0  0  0  0  0  0  0  0  0  0  0  0
   -2.5389   -1.1608    0.5297 H   0  0  0  0  0  0  0  0  0  0  0  0
    4.0757   -0.5749    2.4761 H   0  0  0  0  0  0  0  0  0  0  0  0
   -2.0487    1.2389    0.1882 H   0  0  0  0  0  0  0  0  0  0  0  0
   -4.6222    2.0044    0.6228 H   0  0  0  0  0  0  0  0  0  0  0  0
    6.7852    0.3863    1.9332 H   0  0  0  0  0  0  0  0  0  0  0  0
    6.6278    2.5806   -1.7813 H   0  0  0  0  0  0  0  0  0  0  0  0
   -2.1236    4.2243   -2.8101 H   0  0  0  0  0  0  0  0  0  0  0  0
   -2.3092    5.4385   -1.5277 H   0  0  0  0  0  0  0  0  0  0  0  0
   -3.7521    4.6191   -2.1597 H   0  0  0  0  0  0  0  0  0  0  0  0
   -6.4214    0.4873   -1.9541 H   0  0  0  0  0  0  0  0  0  0  0  0
   -4.1861   -0.4003    4.0865 H   0  0  0  0  0  0  0  0  0  0  0  0
   -2.9665    0.7495    4.6749 H   0  0  0  0  0  0  0  0  0  0  0  0
   -2.4701   -0.5511    3.5732 H   0  0  0  0  0  0  0  0  0  0  0  0
  1 32  1  0  0  0  0
  2 26  2  0  0  0  0
  3 28  1  0  0  0  0
  3 35  1  0  0  0  0
  4 30  1  0  0  0  0
  4 36  1  0  0  0  0
  5 34  1  0  0  0  0
  5 68  1  0  0  0  0
  6 34  2  0  0  0  0
  7 35  2  0  0  0  0
  8 36  2  0  0  0  0
  9 20  1  0  0  0  0
  9 26  1  0  0  0  0
  9 59  1  0  0  0  0
 10 25  1  0  0  0  0
 10 27  1  0  0  0  0
 10 60  1  0  0  0  0
 11 25  2  0  0  0  0
 11 29  1  0  0  0  0
 12 29  1  0  0  0  0
 12 33  2  0  0  0  0
 13 14  1  0  0  0  0
 13 15  1  0  0  0  0
 13 17  1  0  0  0  0
 13 39  1  0  0  0  0
 14 19  1  0  0  0  0
 14 20  1  0  0  0  0
 14 40  1  0  0  0  0
 15 16  1  0  0  0  0
 15 41  1  0  0  0  0
 15 42  1  0  0  0  0
 16 18  1  0  0  0  0
 16 21  1  0  0  0  0
 16 43  1  0  0  0  0
 17 22  1  0  0  0  0
 17 23  1  0  0  0  0
 17 44  1  0  0  0  0
 18 19  2  0  0  0  0
 18 24  1  0  0  0  0
 19 45  1  0  0  0  0
 20 46  1  0  0  0  0
 20 47  1  0  0  0  0
 21 25  1  0  0  0  0
 21 48  1  0  0  0  0
 21 49  1  0  0  0  0
 22 50  1  0  0  0  0
 22 51  1  0  0  0  0
 22 52  1  0  0  0  0
 23 53  1  0  0  0  0
 23 54  1  0  0  0  0
 23 55  1  0  0  0  0
 24 56  1  0  0  0  0
 24 57  1  0  0  0  0
 24 58  1  0  0  0  0
 26 28  1  0  0  0  0
 27 29  2  0  0  0  0
 27 31  1  0  0  0  0
 28 30  1  0  0  0  0
 28 61  1  0  0  0  0
 30 34  1  0  0  0  0
 30 62  1  0  0  0  0
 31 32  2  0  0  0  0
 31 63  1  0  0  0  0
 32 33  1  0  0  0  0
 33 64  1  0  0  0  0
 35 37  1  0  0  0  0
 36 38  1  0  0  0  0
 37 65  1  0  0  0  0
 37 66  1  0  0  0  0
 37 67  1  0  0  0  0
 38 69  1  0  0  0  0
 38 70  1  0  0  0  0
 38 71  1  0  0  0  0
M  END
> <PUBCHEM_COMPOUND_CID>
75536148

> <PUBCHEM_CONFORMER_RMSD>
1.2

> <PUBCHEM_CONFORMER_DIVERSEORDER>
1
38
37
59
34
5
22
23
12
24
41
26
66
50
6
44
40
61
47
51
32
21
64
25
19
45
55
9
2
60
35
30
68
28
49
17
63
14
67
10
58
62
13
15
54
8
27
65
46
4
36
39
7
56
18
42
16
11
48
43
31
53
52
57
20
29
33
3

> <PUBCHEM_MMFF94_PARTIAL_CHARGES>
39
1 -0.18
10 0.03
11 -0.57
12 -0.57
14 0.14
16 0.14
18 -0.28
19 -0.29
2 -0.57
20 0.3
21 0.18
24 0.14
25 0.01
26 0.57
27 -0.15
28 0.34
29 0.48
3 -0.43
30 0.34
31 -0.15
32 0.18
33 0.16
34 0.66
35 0.66
36 0.66
37 0.06
38 0.06
4 -0.43
45 0.15
5 -0.65
59 0.37
6 -0.57
60 0.27
63 0.15
64 0.15
68 0.5
7 -0.57
8 -0.57
9 -0.73

> <PUBCHEM_EFFECTIVE_ROTOR_COUNT>
13.8

> <PUBCHEM_PHARMACOPHORE_FEATURES>
14
1 10 donor
1 12 acceptor
1 2 acceptor
1 5 acceptor
1 6 acceptor
1 7 acceptor
1 8 acceptor
1 9 donor
3 10 11 25 cation
3 17 22 23 hydrophobe
3 5 6 34 anion
5 10 11 25 27 29 rings
6 12 27 29 31 32 33 rings
6 13 14 15 16 18 19 rings

> <PUBCHEM_HEAVY_ATOM_COUNT>
38

> <PUBCHEM_ATOM_DEF_STEREO_COUNT>
5

> <PUBCHEM_ATOM_UDEF_STEREO_COUNT>
0

> <PUBCHEM_BOND_DEF_STEREO_COUNT>
0

> <PUBCHEM_BOND_UDEF_STEREO_COUNT>
0

> <PUBCHEM_ISOTOPIC_ATOM_COUNT>
0

> <PUBCHEM_COMPONENT_COUNT>
1

> <PUBCHEM_CACTVS_TAUTO_COUNT>
10

> <PUBCHEM_CONFORMER_ID>
0480971400000001

> <PUBCHEM_MMFF94_ENERGY>
61.0796

> <PUBCHEM_FEATURE_SELFOVERLAP>
71.235

> <PUBCHEM_SHAPE_FINGERPRINT>
10165383 225 17489594514839606623
105312 117 17845944034473089038
13761468 95 18201440242488774880
14279260 333 16558479595790804340
14400156 162 14925324349995987048
14675019 173 17193180658015392023
14705955 166 16009573695257881117
14713325 29 18130230487616494866
15163728 17 18059305317857087654
15183329 4 17561366184588219290
15219462 58 17534358751489144763
15876981 60 17899415578075373758
15975801 100 18338784659124236972
16112460 7 18269840972738556872
21033650 10 16415488137893505298
21458453 9 14418426528928513276
21756936 100 18187920746556150586
3610482 184 17823709736453815980
44802255 64 17986958651699112494
469060 322 18262246645977612779
50677037 204 18043805601668065980
5081480 168 17199118707814279382
550186 7 18410856607428223350
613672 6 11314308283323454056

> <PUBCHEM_SHAPE_MULTIPOLES>
722.88
14.55
4.76
3.3
24.49
0.66
1.06
14.89
1.6
-2.13
-1.98
-2.56
-1.52
0.48

> <PUBCHEM_SHAPE_SELFOVERLAP>
1509.455

> <PUBCHEM_SHAPE_VOLUME>
409.6

> <PUBCHEM_COORDINATE_TYPE>
2
5
10

$$$$
