75537131
  -OEChem-12032416313D

 50 53  0     1  0  0  0  0  0999 V2000
    2.5197    2.7358    0.0320 O   0  0  0  0  0  0  0  0  0  0  0  0
    2.3969    0.3873   -0.1505 N   0  0  0  0  0  0  0  0  0  0  0  0
    0.4887    1.5717   -0.1660 N   0  0  0  0  0  0  0  0  0  0  0  0
   -2.1814    0.8468    0.3399 N   0  0  2  0  0  0  0  0  0  0  0  0
   -4.9834   -0.3789   -0.5584 N   0  0  0  0  0  0  0  0  0  0  0  0
   -4.1533   -1.8889    0.8426 N   0  0  0  0  0  0  0  0  0  0  0  0
    0.0718    0.2080   -0.4172 C   0  0  1  0  0  0  0  0  0  0  0  0
    3.7893    0.0222   -0.0516 C   0  0  0  0  0  0  0  0  0  0  0  0
    1.3396   -0.6090   -0.1761 C   0  0  0  0  0  0  0  0  0  0  0  0
   -1.1101   -0.1605    0.4791 C   0  0  0  0  0  0  0  0  0  0  0  0
    4.2603   -0.6521   -1.3423 C   0  0  0  0  0  0  0  0  0  0  0  0
    4.0291   -0.8753    1.1654 C   0  0  0  0  0  0  0  0  0  0  0  0
    1.8820    1.6976   -0.0846 C   0  0  0  0  0  0  0  0  0  0  0  0
   -0.5071    2.6224   -0.1317 C   0  0  0  0  0  0  0  0  0  0  0  0
   -1.6973    2.1874    0.7270 C   0  0  0  0  0  0  0  0  0  0  0  0
    5.7173   -1.0968   -1.2458 C   0  0  0  0  0  0  0  0  0  0  0  0
    5.4870   -1.3181    1.2587 C   0  0  0  0  0  0  0  0  0  0  0  0
    5.9548   -1.9881   -0.0300 C   0  0  0  0  0  0  0  0  0  0  0  0
   -3.3414    0.4711    1.1477 C   0  0  0  0  0  0  0  0  0  0  0  0
   -4.1482   -0.6207    0.4966 C   0  0  0  0  0  0  0  0  0  0  0  0
   -5.5577   -1.5687   -0.9074 C   0  0  0  0  0  0  0  0  0  0  0  0
   -5.0301   -2.4854   -0.0287 C   0  0  0  0  0  0  0  0  0  0  0  0
   -5.2264    0.8922   -1.1987 C   0  0  0  0  0  0  0  0  0  0  0  0
   -0.2166    0.1513   -1.4752 H   0  0  0  0  0  0  0  0  0  0  0  0
    4.3680    0.9454    0.0814 H   0  0  0  0  0  0  0  0  0  0  0  0
    1.3076   -1.1209    0.7905 H   0  0  0  0  0  0  0  0  0  0  0  0
    1.5018   -1.3391   -0.9729 H   0  0  0  0  0  0  0  0  0  0  0  0
   -1.4639   -1.1549    0.1837 H   0  0  0  0  0  0  0  0  0  0  0  0
   -0.7864   -0.2242    1.5270 H   0  0  0  0  0  0  0  0  0  0  0  0
    4.1418    0.0349   -2.1892 H   0  0  0  0  0  0  0  0  0  0  0  0
    3.6452   -1.5313   -1.5690 H   0  0  0  0  0  0  0  0  0  0  0  0
    3.7441   -0.3489    2.0844 H   0  0  0  0  0  0  0  0  0  0  0  0
    3.4071   -1.7773    1.1147 H   0  0  0  0  0  0  0  0  0  0  0  0
   -0.8238    2.8042   -1.1651 H   0  0  0  0  0  0  0  0  0  0  0  0
   -0.0563    3.5431    0.2520 H   0  0  0  0  0  0  0  0  0  0  0  0
   -1.4038    2.1905    1.7853 H   0  0  0  0  0  0  0  0  0  0  0  0
   -2.4957    2.9289    0.6041 H   0  0  0  0  0  0  0  0  0  0  0  0
    6.3643   -0.2132   -1.1821 H   0  0  0  0  0  0  0  0  0  0  0  0
    6.0005   -1.6341   -2.1579 H   0  0  0  0  0  0  0  0  0  0  0  0
    5.6096   -2.0101    2.0995 H   0  0  0  0  0  0  0  0  0  0  0  0
    6.1197   -0.4467    1.4675 H   0  0  0  0  0  0  0  0  0  0  0  0
    7.0206   -2.2311    0.0465 H   0  0  0  0  0  0  0  0  0  0  0  0
    5.4194   -2.9363   -0.1631 H   0  0  0  0  0  0  0  0  0  0  0  0
   -4.0081    1.3317    1.2911 H   0  0  0  0  0  0  0  0  0  0  0  0
   -3.0440    0.1573    2.1570 H   0  0  0  0  0  0  0  0  0  0  0  0
   -6.2656   -1.6615   -1.7192 H   0  0  0  0  0  0  0  0  0  0  0  0
   -5.2367   -3.5445    0.0207 H   0  0  0  0  0  0  0  0  0  0  0  0
   -5.9617    0.7610   -1.9971 H   0  0  0  0  0  0  0  0  0  0  0  0
   -5.6172    1.5908   -0.4551 H   0  0  0  0  0  0  0  0  0  0  0  0
   -4.2881    1.2564   -1.6233 H   0  0  0  0  0  0  0  0  0  0  0  0
  1 13  2  0  0  0  0
  2  8  1  0  0  0  0
  2  9  1  0  0  0  0
  2 13  1  0  0  0  0
  3  7  1  0  0  0  0
  3 13  1  0  0  0  0
  3 14  1  0  0  0  0
  4 10  1  0  0  0  0
  4 15  1  0  0  0  0
  4 19  1  0  0  0  0
  5 20  1  0  0  0  0
  5 21  1  0  0  0  0
  5 23  1  0  0  0  0
  6 20  2  0  0  0  0
  6 22  1  0  0  0  0
  7  9  1  0  0  0  0
  7 10  1  0  0  0  0
  7 24  1  0  0  0  0
  8 11  1  0  0  0  0
  8 12  1  0  0  0  0
  8 25  1  0  0  0  0
  9 26  1  0  0  0  0
  9 27  1  0  0  0  0
 10 28  1  0  0  0  0
 10 29  1  0  0  0  0
 11 16  1  0  0  0  0
 11 30  1  0  0  0  0
 11 31  1  0  0  0  0
 12 17  1  0  0  0  0
 12 32  1  0  0  0  0
 12 33  1  0  0  0  0
 14 15  1  0  0  0  0
 14 34  1  0  0  0  0
 14 35  1  0  0  0  0
 15 36  1  0  0  0  0
 15 37  1  0  0  0  0
 16 18  1  0  0  0  0
 16 38  1  0  0  0  0
 16 39  1  0  0  0  0
 17 18  1  0  0  0  0
 17 40  1  0  0  0  0
 17 41  1  0  0  0  0
 18 42  1  0  0  0  0
 18 43  1  0  0  0  0
 19 20  1  0  0  0  0
 19 44  1  0  0  0  0
 19 45  1  0  0  0  0
 21 22  2  0  0  0  0
 21 46  1  0  0  0  0
 22 47  1  0  0  0  0
 23 48  1  0  0  0  0
 23 49  1  0  0  0  0
 23 50  1  0  0  0  0
M  END
> <PUBCHEM_COMPOUND_CID>
75537131

> <PUBCHEM_CONFORMER_RMSD>
0.8

> <PUBCHEM_CONFORMER_DIVERSEORDER>
1
37
22
54
74
62
46
67
31
47
57
53
4
42
55
69
70
38
43
68
32
40
35
6
44
52
49
11
59
36
29
50
75
45
19
18
20
2
39
24
3
14
28
60
64
26
30
72
41
63
58
25
76
66
48
56
15
16
71
65
27
13
9
5
61
12
7
73
17
23
34
51
10
21
8
33

> <PUBCHEM_MMFF94_PARTIAL_CHARGES>
20
1 -0.57
10 0.27
13 0.69
14 0.3
15 0.27
19 0.45
2 -0.66
20 0.01
21 -0.3
22 0.08
23 0.26
3 -0.66
4 -0.81
46 0.15
47 0.15
5 0.05
6 -0.57
7 0.3
8 0.3
9 0.3

> <PUBCHEM_EFFECTIVE_ROTOR_COUNT>
5.4

> <PUBCHEM_PHARMACOPHORE_FEATURES>
7
1 1 acceptor
1 4 cation
3 5 6 20 cation
5 2 3 7 9 13 rings
5 5 6 20 21 22 rings
6 3 4 7 10 14 15 rings
6 8 11 12 16 17 18 rings

> <PUBCHEM_HEAVY_ATOM_COUNT>
23

> <PUBCHEM_ATOM_DEF_STEREO_COUNT>
1

> <PUBCHEM_ATOM_UDEF_STEREO_COUNT>
0

> <PUBCHEM_BOND_DEF_STEREO_COUNT>
0

> <PUBCHEM_BOND_UDEF_STEREO_COUNT>
0

> <PUBCHEM_ISOTOPIC_ATOM_COUNT>
0

> <PUBCHEM_COMPONENT_COUNT>
1

> <PUBCHEM_CACTVS_TAUTO_COUNT>
1

> <PUBCHEM_CONFORMER_ID>
04809AEB00000001

> <PUBCHEM_MMFF94_ENERGY>
34.6359

> <PUBCHEM_FEATURE_SELFOVERLAP>
35.62

> <PUBCHEM_SHAPE_FINGERPRINT>
10 15 11887675100359001159
10493431 412 9655574110799682273
10622 236 17700114785016249631
10692045 39 11239730634784250132
11069576 57 17024014979091240506
11545043 162 17632295623339235210
12166972 35 17968100871356003455
12403259 118 12535348995773576723
12422481 6 17131838654960244870
12596602 18 17561363955268533002
12616971 3 18271540761948231601
12892183 10 16343147918117261456
12969540 114 13407079210174548032
13540713 5 18268171857978769761
13583140 156 15195007072619109585
13862211 1 18410856542845438510
14123256 34 18411991264383070026
14251752 14 17603862252613318589
14848178 5 18272368680823263395
15183329 4 15430032136842525698
15188451 53 17846774109569221235
17349148 13 18130518508233504291
17492 89 18193840573015919659
17857418 61 18334293145777443514
18222031 100 18411982451452608776
18927931 339 18342748390458596487
19377110 9 12175612967198542453
193927 3 18271816730201861951
200 152 18413105083000186881
20028762 73 18202281424550196534
20281389 69 8862939463933347358
20374829 77 18408322177022209369
20645477 56 8646763387463303913
20645477 70 18338518650298131916
21033650 10 16950554464087624821
21267235 1 18410865377851453963
21279426 13 18261384555714876101
21756936 100 8646480813143985065
22393880 68 18187074079684536951
23198884 109 15502376712574833007
23402539 116 18412262813869200969
23402655 69 11386365963038831096
23522609 53 18049761543763898148
23559900 14 18336823182088801129
25122255 55 18272092694888863663
25147074 1 18338255802595272592
2838139 119 10881689048164130962
293599 30 8286201655994946107
3004659 81 18259983790321767671
312425 54 17346047662146972259
314194 84 18260277321762477466
335352 9 18409449155546443101
44062 13 18334291003153115727
465052 167 18341900709822136486
5104073 3 18201446917031152649
543368 44 11025800907603682007
559249 180 18411980235676764971
5718773 13 18200587137999768559
59682541 52 14490459860395245890
59755656 215 18337952273214237063
76465 3 18409448093866360744
7970288 3 18410855426259858838
8863177 126 17898022458378270899
960060 61 17167861971938509322

> <PUBCHEM_SHAPE_MULTIPOLES>
442.55
15.16
2.63
1.15
1.58
0.88
-0.03
-11.76
-2.01
-0.99
0.11
0.4
-0.24
-0.16

> <PUBCHEM_SHAPE_SELFOVERLAP>
932.214

> <PUBCHEM_SHAPE_VOLUME>
248.7

> <PUBCHEM_COORDINATE_TYPE>
2
5
10

$$$$
