11886088
  -OEChem-12032416373D

 69 74  0     1  0  0  0  0  0999 V2000
    2.4595   -3.7900   -0.4085 O   0  0  0  0  0  0  0  0  0  0  0  0
    2.8292   -1.1330    1.8224 O   0  0  0  0  0  0  0  0  0  0  0  0
    0.4311   -2.3100    0.5642 O   0  0  0  0  0  0  0  0  0  0  0  0
   -1.3966   -2.8284    1.8373 O   0  0  0  0  0  0  0  0  0  0  0  0
   -3.4633    3.6053    0.6451 O   0  0  0  0  0  0  0  0  0  0  0  0
   -8.0007   -1.8155   -0.2860 O   0  0  0  0  0  0  0  0  0  0  0  0
    4.5371   -0.8067   -0.9351 N   0  0  0  0  0  0  0  0  0  0  0  0
    5.6500   -1.3812   -1.4124 N   0  0  0  0  0  0  0  0  0  0  0  0
    5.8711    0.8373   -1.4046 N   0  0  0  0  0  0  0  0  0  0  0  0
    6.4621   -0.3708   -1.6984 N   0  0  0  0  0  0  0  0  0  0  0  0
   -1.6038   -1.7431   -0.2266 N   0  0  0  0  0  0  0  0  0  0  0  0
   -0.6474    3.8928    0.3461 N   0  0  0  0  0  0  0  0  0  0  0  0
    3.4470   -2.0747    0.9394 C   0  0  1  0  0  0  0  0  0  0  0  0
    2.5946   -3.3305    0.9343 C   0  0  1  0  0  0  0  0  0  0  0  0
    3.4047   -1.6167   -0.5100 C   0  0  2  0  0  0  0  0  0  0  0  0
    1.2833   -2.8854    1.5489 C   0  0  1  0  0  0  0  0  0  0  0  0
    3.2354   -2.9326   -1.2610 C   0  0  0  0  0  0  0  0  0  0  0  0
    1.7467   -1.7994    2.4983 C   0  0  0  0  0  0  0  0  0  0  0  0
    4.6807    0.5442   -0.9342 C   0  0  0  0  0  0  0  0  0  0  0  0
    3.6743    1.4713   -0.4844 C   0  0  0  0  0  0  0  0  0  0  0  0
   -0.9245   -2.3376    0.8191 C   0  0  0  0  0  0  0  0  0  0  0  0
    2.7328    1.9699   -1.3849 C   0  0  0  0  0  0  0  0  0  0  0  0
    3.6408    1.8701    0.8518 C   0  0  0  0  0  0  0  0  0  0  0  0
    1.7246    3.2662    0.3871 C   0  0  0  0  0  0  0  0  0  0  0  0
    0.6822    4.2257    0.8532 C   0  0  0  0  0  0  0  0  0  0  0  0
    1.7580    2.8674   -0.9492 C   0  0  0  0  0  0  0  0  0  0  0  0
    2.6659    2.7676    1.2875 C   0  0  0  0  0  0  0  0  0  0  0  0
   -1.2299    2.7761    1.1031 C   0  0  0  0  0  0  0  0  0  0  0  0
   -1.5368    5.0611    0.4077 C   0  0  0  0  0  0  0  0  0  0  0  0
   -2.6209    2.4551    0.5637 C   0  0  0  0  0  0  0  0  0  0  0  0
   -2.9210    4.6863   -0.1143 C   0  0  0  0  0  0  0  0  0  0  0  0
   -2.9985   -1.5623   -0.3676 C   0  0  0  0  0  0  0  0  0  0  0  0
   -3.5091   -0.9339   -1.5035 C   0  0  0  0  0  0  0  0  0  0  0  0
   -3.8643   -2.0112    0.6297 C   0  0  0  0  0  0  0  0  0  0  0  0
   -4.8853   -0.7546   -1.6421 C   0  0  0  0  0  0  0  0  0  0  0  0
   -5.2406   -1.8318    0.4910 C   0  0  0  0  0  0  0  0  0  0  0  0
   -5.7512   -1.2036   -0.6449 C   0  0  0  0  0  0  0  0  0  0  0  0
   -7.1860   -1.0169   -0.7902 C   0  0  0  0  0  0  0  0  0  0  0  0
   -7.7311    0.1735   -1.5720 C   0  0  0  0  0  0  0  0  0  0  0  0
    4.4673   -2.2766    1.2843 H   0  0  0  0  0  0  0  0  0  0  0  0
    3.0631   -4.1126    1.5428 H   0  0  0  0  0  0  0  0  0  0  0  0
    2.5080   -1.0067   -0.6776 H   0  0  0  0  0  0  0  0  0  0  0  0
    0.7872   -3.7179    2.0589 H   0  0  0  0  0  0  0  0  0  0  0  0
    4.1821   -3.4474   -1.4553 H   0  0  0  0  0  0  0  0  0  0  0  0
    2.7154   -2.8030   -2.2151 H   0  0  0  0  0  0  0  0  0  0  0  0
    0.9756   -1.0609    2.7339 H   0  0  0  0  0  0  0  0  0  0  0  0
    2.1444   -2.2209    3.4277 H   0  0  0  0  0  0  0  0  0  0  0  0
    2.7470    1.6699   -2.4300 H   0  0  0  0  0  0  0  0  0  0  0  0
    4.3683    1.4913    1.5657 H   0  0  0  0  0  0  0  0  0  0  0  0
   -1.0328   -1.3901   -0.9907 H   0  0  0  0  0  0  0  0  0  0  0  0
    0.9918    5.2104    0.4759 H   0  0  0  0  0  0  0  0  0  0  0  0
    0.6743    4.3128    1.9480 H   0  0  0  0  0  0  0  0  0  0  0  0
    1.0420    3.2518   -1.6708 H   0  0  0  0  0  0  0  0  0  0  0  0
    2.6525    3.0695    2.3314 H   0  0  0  0  0  0  0  0  0  0  0  0
   -1.3071    3.0350    2.1673 H   0  0  0  0  0  0  0  0  0  0  0  0
   -0.6104    1.8761    1.0184 H   0  0  0  0  0  0  0  0  0  0  0  0
   -1.1389    5.8776   -0.2057 H   0  0  0  0  0  0  0  0  0  0  0  0
   -1.6202    5.4204    1.4416 H   0  0  0  0  0  0  0  0  0  0  0  0
   -3.0803    1.6630    1.1637 H   0  0  0  0  0  0  0  0  0  0  0  0
   -2.5804    2.1038   -0.4745 H   0  0  0  0  0  0  0  0  0  0  0  0
   -2.8921    4.4098   -1.1754 H   0  0  0  0  0  0  0  0  0  0  0  0
   -3.6009    5.5382   -0.0125 H   0  0  0  0  0  0  0  0  0  0  0  0
   -2.8451   -0.5808   -2.2884 H   0  0  0  0  0  0  0  0  0  0  0  0
   -3.5421   -2.5043    1.5364 H   0  0  0  0  0  0  0  0  0  0  0  0
   -5.2562   -0.2730   -2.5427 H   0  0  0  0  0  0  0  0  0  0  0  0
   -5.9006   -2.1841    1.2798 H   0  0  0  0  0  0  0  0  0  0  0  0
   -7.8378   -0.0982   -2.6249 H   0  0  0  0  0  0  0  0  0  0  0  0
   -7.0735    1.0407   -1.4672 H   0  0  0  0  0  0  0  0  0  0  0  0
   -8.7080    0.4509   -1.1645 H   0  0  0  0  0  0  0  0  0  0  0  0
  1 14  1  0  0  0  0
  1 17  1  0  0  0  0
  2 13  1  0  0  0  0
  2 18  1  0  0  0  0
  3 16  1  0  0  0  0
  3 21  1  0  0  0  0
  4 21  2  0  0  0  0
  5 30  1  0  0  0  0
  5 31  1  0  0  0  0
  6 38  2  0  0  0  0
  7  8  1  0  0  0  0
  7 15  1  0  0  0  0
  7 19  1  0  0  0  0
  8 10  2  0  0  0  0
  9 10  1  0  0  0  0
  9 19  2  0  0  0  0
 11 21  1  0  0  0  0
 11 32  1  0  0  0  0
 11 50  1  0  0  0  0
 12 25  1  0  0  0  0
 12 28  1  0  0  0  0
 12 29  1  0  0  0  0
 13 14  1  0  0  0  0
 13 15  1  0  0  0  0
 13 40  1  0  0  0  0
 14 16  1  0  0  0  0
 14 41  1  0  0  0  0
 15 17  1  0  0  0  0
 15 42  1  0  0  0  0
 16 18  1  0  0  0  0
 16 43  1  0  0  0  0
 17 44  1  0  0  0  0
 17 45  1  0  0  0  0
 18 46  1  0  0  0  0
 18 47  1  0  0  0  0
 19 20  1  0  0  0  0
 20 22  2  0  0  0  0
 20 23  1  0  0  0  0
 22 26  1  0  0  0  0
 22 48  1  0  0  0  0
 23 27  2  0  0  0  0
 23 49  1  0  0  0  0
 24 25  1  0  0  0  0
 24 26  2  0  0  0  0
 24 27  1  0  0  0  0
 25 51  1  0  0  0  0
 25 52  1  0  0  0  0
 26 53  1  0  0  0  0
 27 54  1  0  0  0  0
 28 30  1  0  0  0  0
 28 55  1  0  0  0  0
 28 56  1  0  0  0  0
 29 31  1  0  0  0  0
 29 57  1  0  0  0  0
 29 58  1  0  0  0  0
 30 59  1  0  0  0  0
 30 60  1  0  0  0  0
 31 61  1  0  0  0  0
 31 62  1  0  0  0  0
 32 33  2  0  0  0  0
 32 34  1  0  0  0  0
 33 35  1  0  0  0  0
 33 63  1  0  0  0  0
 34 36  2  0  0  0  0
 34 64  1  0  0  0  0
 35 37  2  0  0  0  0
 35 65  1  0  0  0  0
 36 37  1  0  0  0  0
 36 66  1  0  0  0  0
 37 38  1  0  0  0  0
 38 39  1  0  0  0  0
 39 67  1  0  0  0  0
 39 68  1  0  0  0  0
 39 69  1  0  0  0  0
M  END
> <PUBCHEM_COMPOUND_CID>
11886088

> <PUBCHEM_CONFORMER_RMSD>
1.2

> <PUBCHEM_CONFORMER_DIVERSEORDER>
4
14
13
26
31
28
32
25
3
8
5
6
34
12
18
30
2
27
22
11
10
33
20
1
19
24
29
23
7
16
15
21
9
17

> <PUBCHEM_MMFF94_PARTIAL_CHARGES>
47
1 -0.56
11 -0.55
12 -0.81
13 0.28
14 0.28
15 0.26
16 0.28
17 0.28
18 0.28
19 0.13
2 -0.56
20 0.05
21 0.78
22 -0.15
23 -0.15
24 -0.14
25 0.41
26 -0.15
27 -0.15
28 0.27
29 0.27
3 -0.43
30 0.28
31 0.28
32 0.12
33 -0.15
34 -0.15
35 -0.15
36 -0.15
37 0.09
38 0.42
39 0.06
4 -0.57
48 0.15
49 0.15
5 -0.56
50 0.37
53 0.15
54 0.15
6 -0.57
63 0.15
64 0.15
65 0.15
66 0.15
7 0.31
8 -0.42
9 -0.34

> <PUBCHEM_EFFECTIVE_ROTOR_COUNT>
11.4

> <PUBCHEM_PHARMACOPHORE_FEATURES>
14
1 1 acceptor
1 11 donor
1 12 cation
1 2 acceptor
1 4 acceptor
1 5 acceptor
1 6 acceptor
3 7 9 19 cation
5 1 13 14 15 17 rings
5 2 13 14 16 18 rings
5 7 8 9 10 19 rings
6 20 22 23 24 26 27 rings
6 32 33 34 35 36 37 rings
6 5 12 28 29 30 31 rings

> <PUBCHEM_HEAVY_ATOM_COUNT>
39

> <PUBCHEM_ATOM_DEF_STEREO_COUNT>
4

> <PUBCHEM_ATOM_UDEF_STEREO_COUNT>
0

> <PUBCHEM_BOND_DEF_STEREO_COUNT>
0

> <PUBCHEM_BOND_UDEF_STEREO_COUNT>
0

> <PUBCHEM_ISOTOPIC_ATOM_COUNT>
0

> <PUBCHEM_COMPONENT_COUNT>
1

> <PUBCHEM_CACTVS_TAUTO_COUNT>
9

> <PUBCHEM_CONFORMER_ID>
00B55E0800000004

> <PUBCHEM_MMFF94_ENERGY>
108.1515

> <PUBCHEM_FEATURE_SELFOVERLAP>
71.438

> <PUBCHEM_SHAPE_FINGERPRINT>
10190206 1 18335715948526474012
10675989 125 18265612276397459265
11513181 2 18125732179583739614
11828042 226 18335408051812934965
12156800 1 18268132198861785904
12788726 201 18409448059564670619
13165054 146 17389975540707550612
14040221 15 17982426486450075799
14681490 219 18412265051315151389
14725015 67 18339350951210769032
14931854 50 18335149695616276958
15001296 14 18335694005411932145
15160629 131 18130514063333088207
15264996 19 18265910059423080789
15274700 256 18412822496581845712
15351339 4 18334003970129917713
15781502 589 18200312091797614703
15968369 153 18129923629889109705
20764821 26 18263086517804541336
21133410 38 18058469731637030305
21133410 62 17822298959671249489
21703447 108 18271515485438849817
24893992 56 17968374658099343099
24941158 1 16486387972447500640
3298306 158 18118958337827076651
4066623 53 18411980235508050946
437795 51 18260832661255720723
44344687 77 18336840775139703987
5047190 2 18340775845355944145
513532 50 18200583830542049874
6422251 121 18410288147126323397

> <PUBCHEM_SHAPE_MULTIPOLES>
737.5
15.46
6.77
1.77
21.79
7.4
-0.19
-7.52
8.99
-0.03
-2.23
-1.1
-0.76
-0.51

> <PUBCHEM_SHAPE_SELFOVERLAP>
1603.796

> <PUBCHEM_SHAPE_VOLUME>
402.3

> <PUBCHEM_COORDINATE_TYPE>
2
5
10

$$$$
