7142743
  -OEChem-12032416113D

 51 54  0     1  0  0  0  0  0999 V2000
    5.1811    0.5042    1.3011 S   0  0  0  0  0  0  0  0  0  0  0  0
    0.7041    1.2571    2.0355 O   0  0  0  0  0  0  0  0  0  0  0  0
   -3.4910   -1.9844    1.2788 O   0  0  0  0  0  0  0  0  0  0  0  0
   -1.7203   -3.7383    0.3150 O   0  0  0  0  0  0  0  0  0  0  0  0
    3.1195   -0.5162   -1.7761 O   0  0  0  0  0  0  0  0  0  0  0  0
   -3.6742   -0.0772   -0.0357 N   0  0  0  0  0  0  0  0  0  0  0  0
   -1.0002    1.5999    0.4740 N   0  0  0  0  0  0  0  0  0  0  0  0
    2.5856    0.7562    0.0965 N   0  0  0  0  0  0  0  0  0  0  0  0
   -3.4168    2.1064    1.1500 C   0  0  1  0  0  0  0  0  0  0  0  0
   -2.8256    1.9338   -1.2306 C   0  0  2  0  0  0  0  0  0  0  0  0
   -3.4925    2.8298   -0.1890 C   0  0  0  0  0  0  0  0  0  0  0  0
   -4.1456    0.7535    1.0740 C   0  0  0  0  0  0  0  0  0  0  0  0
   -1.9439    1.9462    1.5451 C   0  0  0  0  0  0  0  0  0  0  0  0
   -3.5960    0.6032   -1.3370 C   0  0  0  0  0  0  0  0  0  0  0  0
   -1.3768    1.6626   -0.8714 C   0  0  0  0  0  0  0  0  0  0  0  0
   -0.4670    1.4552   -1.8382 C   0  0  0  0  0  0  0  0  0  0  0  0
    0.3216    1.3062    0.8655 C   0  0  0  0  0  0  0  0  0  0  0  0
   -3.4199   -1.4321    0.1779 C   0  0  0  0  0  0  0  0  0  0  0  0
    1.2990    1.0571   -0.2412 C   0  0  0  0  0  0  0  0  0  0  0  0
    0.8967    1.1452   -1.5134 C   0  0  0  0  0  0  0  0  0  0  0  0
   -3.0287   -2.2447   -1.0303 C   0  0  0  0  0  0  0  0  0  0  0  0
   -2.7920   -3.6818   -0.6182 C   0  0  0  0  0  0  0  0  0  0  0  0
    3.4237   -0.0168   -0.6956 C   0  0  0  0  0  0  0  0  0  0  0  0
    4.8000   -0.2178   -0.1723 C   0  0  0  0  0  0  0  0  0  0  0  0
   -1.4503   -5.0739    0.7177 C   0  0  0  0  0  0  0  0  0  0  0  0
    5.7864   -0.9198   -0.7498 C   0  0  0  0  0  0  0  0  0  0  0  0
    6.9570   -0.8771    0.0611 C   0  0  0  0  0  0  0  0  0  0  0  0
    6.7663   -0.1363    1.2066 C   0  0  0  0  0  0  0  0  0  0  0  0
   -3.9152    2.7073    1.9208 H   0  0  0  0  0  0  0  0  0  0  0  0
   -2.8772    2.4423   -2.2021 H   0  0  0  0  0  0  0  0  0  0  0  0
   -4.5370    3.0238   -0.4616 H   0  0  0  0  0  0  0  0  0  0  0  0
   -2.9888    3.8029   -0.1320 H   0  0  0  0  0  0  0  0  0  0  0  0
   -4.0508    0.2193    2.0254 H   0  0  0  0  0  0  0  0  0  0  0  0
   -5.2172    0.9193    0.9071 H   0  0  0  0  0  0  0  0  0  0  0  0
   -1.8401    1.2118    2.3538 H   0  0  0  0  0  0  0  0  0  0  0  0
   -1.5857    2.8998    1.9566 H   0  0  0  0  0  0  0  0  0  0  0  0
   -4.6288    0.7921   -1.6554 H   0  0  0  0  0  0  0  0  0  0  0  0
   -3.1430   -0.0317   -2.1017 H   0  0  0  0  0  0  0  0  0  0  0  0
   -0.7365    1.4915   -2.8886 H   0  0  0  0  0  0  0  0  0  0  0  0
    1.5528    1.0396   -2.3687 H   0  0  0  0  0  0  0  0  0  0  0  0
   -3.8245   -2.1966   -1.7799 H   0  0  0  0  0  0  0  0  0  0  0  0
   -2.1014   -1.8294   -1.4400 H   0  0  0  0  0  0  0  0  0  0  0  0
   -3.6958   -4.1149   -0.1719 H   0  0  0  0  0  0  0  0  0  0  0  0
   -2.5301   -4.2714   -1.5046 H   0  0  0  0  0  0  0  0  0  0  0  0
    2.8713    0.9545    1.0521 H   0  0  0  0  0  0  0  0  0  0  0  0
   -0.6218   -5.0574    1.4308 H   0  0  0  0  0  0  0  0  0  0  0  0
   -2.3250   -5.5106    1.2093 H   0  0  0  0  0  0  0  0  0  0  0  0
   -1.1578   -5.6830   -0.1431 H   0  0  0  0  0  0  0  0  0  0  0  0
    5.7167   -1.4463   -1.6929 H   0  0  0  0  0  0  0  0  0  0  0  0
    7.8916   -1.3651   -0.1831 H   0  0  0  0  0  0  0  0  0  0  0  0
    7.4821    0.0596    1.9925 H   0  0  0  0  0  0  0  0  0  0  0  0
  1 24  1  0  0  0  0
  1 28  1  0  0  0  0
  2 17  2  0  0  0  0
  3 18  2  0  0  0  0
  4 22  1  0  0  0  0
  4 25  1  0  0  0  0
  5 23  2  0  0  0  0
  6 12  1  0  0  0  0
  6 14  1  0  0  0  0
  6 18  1  0  0  0  0
  7 13  1  0  0  0  0
  7 15  1  0  0  0  0
  7 17  1  0  0  0  0
  8 19  1  0  0  0  0
  8 23  1  0  0  0  0
  8 45  1  0  0  0  0
  9 11  1  0  0  0  0
  9 12  1  0  0  0  0
  9 13  1  0  0  0  0
  9 29  1  0  0  0  0
 10 11  1  0  0  0  0
 10 14  1  0  0  0  0
 10 15  1  0  0  0  0
 10 30  1  0  0  0  0
 11 31  1  0  0  0  0
 11 32  1  0  0  0  0
 12 33  1  0  0  0  0
 12 34  1  0  0  0  0
 13 35  1  0  0  0  0
 13 36  1  0  0  0  0
 14 37  1  0  0  0  0
 14 38  1  0  0  0  0
 15 16  2  0  0  0  0
 16 20  1  0  0  0  0
 16 39  1  0  0  0  0
 17 19  1  0  0  0  0
 18 21  1  0  0  0  0
 19 20  2  0  0  0  0
 20 40  1  0  0  0  0
 21 22  1  0  0  0  0
 21 41  1  0  0  0  0
 21 42  1  0  0  0  0
 22 43  1  0  0  0  0
 22 44  1  0  0  0  0
 23 24  1  0  0  0  0
 24 26  2  0  0  0  0
 25 46  1  0  0  0  0
 25 47  1  0  0  0  0
 25 48  1  0  0  0  0
 26 27  1  0  0  0  0
 26 49  1  0  0  0  0
 27 28  2  0  0  0  0
 27 50  1  0  0  0  0
 28 51  1  0  0  0  0
M  END
> <PUBCHEM_COMPOUND_CID>
7142743

> <PUBCHEM_CONFORMER_RMSD>
1

> <PUBCHEM_CONFORMER_DIVERSEORDER>
1
15
12
9
14
18
8
16
3
13
10
17
21
7
19
11
6
20
4
2
5

> <PUBCHEM_MMFF94_PARTIAL_CHARGES>
32
1 -0.08
10 0.14
12 0.3
13 0.3
14 0.3
15 -0.03
16 -0.15
17 0.62
18 0.57
19 0.12
2 -0.57
20 -0.15
21 0.06
22 0.28
23 0.71
24 -0.05
25 0.28
26 -0.15
27 -0.15
28 -0.11
3 -0.57
39 0.15
4 -0.56
40 0.15
45 0.37
49 0.15
5 -0.57
50 0.15
51 0.15
6 -0.66
7 -0.47
8 -0.54

> <PUBCHEM_EFFECTIVE_ROTOR_COUNT>
8

> <PUBCHEM_PHARMACOPHORE_FEATURES>
9
1 2 acceptor
1 3 acceptor
1 4 acceptor
1 5 acceptor
1 8 donor
5 1 24 26 27 28 rings
6 6 9 10 11 12 14 rings
6 7 15 16 17 19 20 rings
6 7 9 10 11 13 15 rings

> <PUBCHEM_HEAVY_ATOM_COUNT>
28

> <PUBCHEM_ATOM_DEF_STEREO_COUNT>
2

> <PUBCHEM_ATOM_UDEF_STEREO_COUNT>
0

> <PUBCHEM_BOND_DEF_STEREO_COUNT>
0

> <PUBCHEM_BOND_UDEF_STEREO_COUNT>
0

> <PUBCHEM_ISOTOPIC_ATOM_COUNT>
0

> <PUBCHEM_COMPONENT_COUNT>
1

> <PUBCHEM_CACTVS_TAUTO_COUNT>
2

> <PUBCHEM_CONFORMER_ID>
006CFD5700000001

> <PUBCHEM_MMFF94_ENERGY>
71.584

> <PUBCHEM_FEATURE_SELFOVERLAP>
47.243

> <PUBCHEM_SHAPE_FINGERPRINT>
11014199 57 17975417133064909458
11045977 3 18060415803305295648
11524674 6 18271241630097300807
12523318 42 18410852174699862952
12633257 1 17273439342170039339
12712778 12 18411415154897780218
12990986 174 18266460004062275370
13994607 96 10519992551976360251
14020679 6 17631744772388133313
14114207 22 17970333825043747719
14251740 79 18408881858368712795
14251751 18 18410011065869455872
14251757 5 18337105765188420090
14659021 117 18265041625535716258
14844126 61 18410294739700948779
14866123 147 18339648953470288211
15183329 4 11891332041847318880
15348495 7 18201994439752235496
15484559 13 13635002198566890350
16120349 306 18263642870524938515
17349148 13 16443351940601353468
17627616 140 18264200314425790362
17780758 139 18342458140357382336
18927931 339 16878232956766789908
19315092 285 15766111283793854479
19611394 137 18130500947072061200
19958102 18 18336542716782930462
20775530 9 17690859168905169591
23402539 116 16371010659578356924
23466295 7 18263368160512083043
23516275 137 17829631478126680018
23559900 14 18341601672344773048
249057 3 18261107448456908909
3383291 50 18411704318267267227
397830 11 18200018664802235536
4015057 19 17417794158818859600
4073 2 18201719531901521090
445580 42 18335988669943324747
484985 159 18261666056514716527
5080951 261 17969761078158445804
5364581 5 18129088091294079024
602551 16 18409729569359906022

> <PUBCHEM_SHAPE_MULTIPOLES>
541.66
13.12
4.2
1.68
27.86
7.28
0.01
2.13
-1.97
-6.94
-0.64
-0.11
-0.58
0.29

> <PUBCHEM_SHAPE_SELFOVERLAP>
1156.667

> <PUBCHEM_SHAPE_VOLUME>
300.1

> <PUBCHEM_COORDINATE_TYPE>
2
5
10

$$$$
