45783527
  -OEChem-12032416363D

 60 64  0     1  0  0  0  0  0999 V2000
   -0.1149    3.9101   -0.2734 S   0  0  0  0  0  0  0  0  0  0  0  0
   -2.4579   -1.5921   -1.4125 O   0  0  0  0  0  0  0  0  0  0  0  0
    7.7072   -0.3479    0.6144 O   0  0  0  0  0  0  0  0  0  0  0  0
   -0.5306    4.8027   -1.3467 O   0  0  0  0  0  0  0  0  0  0  0  0
    0.4150    4.4654    0.9638 O   0  0  0  0  0  0  0  0  0  0  0  0
   -4.8065   -0.8743    0.2431 N   0  0  1  0  0  0  0  0  0  0  0  0
   -1.3112   -1.6261    0.5113 N   0  0  0  0  0  0  0  0  0  0  0  0
   -1.1146   -1.3942   -1.7563 N   0  0  0  0  0  0  0  0  0  0  0  0
    4.9871   -0.8011    0.0708 N   0  0  0  0  0  0  0  0  0  0  0  0
    2.8483   -1.1531    1.0209 N   0  0  0  0  0  0  0  0  0  0  0  0
   -3.8442   -1.9457    0.5692 C   0  0  1  0  0  0  0  0  0  0  0  0
   -4.5183   -3.2399    0.0776 C   0  0  0  0  0  0  0  0  0  0  0  0
   -5.8772   -2.8043   -0.4518 C   0  0  0  0  0  0  0  0  0  0  0  0
   -6.1331   -1.4912    0.2599 C   0  0  0  0  0  0  0  0  0  0  0  0
   -4.7216    0.2679    1.1441 C   0  0  0  0  0  0  0  0  0  0  0  0
   -2.4855   -1.7190   -0.0599 C   0  0  0  0  0  0  0  0  0  0  0  0
   -3.5741    1.1764    0.7910 C   0  0  0  0  0  0  0  0  0  0  0  0
   -2.5761    1.4367    1.7302 C   0  0  0  0  0  0  0  0  0  0  0  0
   -3.5087    1.7575   -0.4754 C   0  0  0  0  0  0  0  0  0  0  0  0
   -0.5018   -1.4270   -0.5692 C   0  0  0  0  0  0  0  0  0  0  0  0
   -1.5130    2.2783    1.4031 C   0  0  0  0  0  0  0  0  0  0  0  0
   -2.4456    2.5992   -0.8025 C   0  0  0  0  0  0  0  0  0  0  0  0
   -1.4478    2.8595    0.1367 C   0  0  0  0  0  0  0  0  0  0  0  0
    0.9162   -1.2631   -0.4281 C   0  0  0  0  0  0  0  0  0  0  0  0
    5.6418   -1.4770    1.1993 C   0  0  0  0  0  0  0  0  0  0  0  0
    5.6365    0.4352   -0.3786 C   0  0  0  0  0  0  0  0  0  0  0  0
    3.6057   -0.9587   -0.0819 C   0  0  0  0  0  0  0  0  0  0  0  0
    7.1335   -1.6189    0.9194 C   0  0  0  0  0  0  0  0  0  0  0  0
    7.1290    0.1917   -0.5737 C   0  0  0  0  0  0  0  0  0  0  0  0
    1.7283   -1.0611   -1.5385 C   0  0  0  0  0  0  0  0  0  0  0  0
    3.0998   -0.9052   -1.3707 C   0  0  0  0  0  0  0  0  0  0  0  0
    1.5198   -1.3007    0.8186 C   0  0  0  0  0  0  0  0  0  0  0  0
    1.1146    2.8198   -0.9541 C   0  0  0  0  0  0  0  0  0  0  0  0
   -3.7064   -2.0354    1.6557 H   0  0  0  0  0  0  0  0  0  0  0  0
   -3.9530   -3.7763   -0.6921 H   0  0  0  0  0  0  0  0  0  0  0  0
   -4.6598   -3.9233    0.9240 H   0  0  0  0  0  0  0  0  0  0  0  0
   -5.8215   -2.6472   -1.5362 H   0  0  0  0  0  0  0  0  0  0  0  0
   -6.6557   -3.5471   -0.2550 H   0  0  0  0  0  0  0  0  0  0  0  0
   -6.4837   -1.6752    1.2835 H   0  0  0  0  0  0  0  0  0  0  0  0
   -6.8763   -0.8858   -0.2681 H   0  0  0  0  0  0  0  0  0  0  0  0
   -5.6305    0.8799    1.0572 H   0  0  0  0  0  0  0  0  0  0  0  0
   -4.6785   -0.0461    2.1953 H   0  0  0  0  0  0  0  0  0  0  0  0
   -2.6120    0.9874    2.7190 H   0  0  0  0  0  0  0  0  0  0  0  0
   -4.2802    1.5665   -1.2167 H   0  0  0  0  0  0  0  0  0  0  0  0
   -0.7424    2.4595    2.1470 H   0  0  0  0  0  0  0  0  0  0  0  0
   -2.4110    3.0360   -1.7965 H   0  0  0  0  0  0  0  0  0  0  0  0
    5.4890   -0.8812    2.1076 H   0  0  0  0  0  0  0  0  0  0  0  0
    5.2163   -2.4741    1.3638 H   0  0  0  0  0  0  0  0  0  0  0  0
    5.2135    0.8083   -1.3174 H   0  0  0  0  0  0  0  0  0  0  0  0
    5.4831    1.2060    0.3868 H   0  0  0  0  0  0  0  0  0  0  0  0
    7.3204   -2.3114    0.0896 H   0  0  0  0  0  0  0  0  0  0  0  0
    7.6433   -2.0153    1.8032 H   0  0  0  0  0  0  0  0  0  0  0  0
    7.6353    1.1367   -0.7945 H   0  0  0  0  0  0  0  0  0  0  0  0
    7.3163   -0.4895   -1.4126 H   0  0  0  0  0  0  0  0  0  0  0  0
    1.3260   -1.0221   -2.5474 H   0  0  0  0  0  0  0  0  0  0  0  0
    3.7344   -0.7621   -2.2392 H   0  0  0  0  0  0  0  0  0  0  0  0
    0.9526   -1.4531    1.7321 H   0  0  0  0  0  0  0  0  0  0  0  0
    0.7004    2.3192   -1.8312 H   0  0  0  0  0  0  0  0  0  0  0  0
    1.4039    2.0940   -0.1920 H   0  0  0  0  0  0  0  0  0  0  0  0
    1.9797    3.4210   -1.2416 H   0  0  0  0  0  0  0  0  0  0  0  0
  1  4  2  0  0  0  0
  1  5  2  0  0  0  0
  1 23  1  0  0  0  0
  1 33  1  0  0  0  0
  2  8  1  0  0  0  0
  2 16  1  0  0  0  0
  3 28  1  0  0  0  0
  3 29  1  0  0  0  0
  6 11  1  0  0  0  0
  6 14  1  0  0  0  0
  6 15  1  0  0  0  0
  7 16  2  0  0  0  0
  7 20  1  0  0  0  0
  8 20  2  0  0  0  0
  9 25  1  0  0  0  0
  9 26  1  0  0  0  0
  9 27  1  0  0  0  0
 10 27  2  0  0  0  0
 10 32  1  0  0  0  0
 11 12  1  0  0  0  0
 11 16  1  0  0  0  0
 11 34  1  0  0  0  0
 12 13  1  0  0  0  0
 12 35  1  0  0  0  0
 12 36  1  0  0  0  0
 13 14  1  0  0  0  0
 13 37  1  0  0  0  0
 13 38  1  0  0  0  0
 14 39  1  0  0  0  0
 14 40  1  0  0  0  0
 15 17  1  0  0  0  0
 15 41  1  0  0  0  0
 15 42  1  0  0  0  0
 17 18  2  0  0  0  0
 17 19  1  0  0  0  0
 18 21  1  0  0  0  0
 18 43  1  0  0  0  0
 19 22  2  0  0  0  0
 19 44  1  0  0  0  0
 20 24  1  0  0  0  0
 21 23  2  0  0  0  0
 21 45  1  0  0  0  0
 22 23  1  0  0  0  0
 22 46  1  0  0  0  0
 24 30  1  0  0  0  0
 24 32  2  0  0  0  0
 25 28  1  0  0  0  0
 25 47  1  0  0  0  0
 25 48  1  0  0  0  0
 26 29  1  0  0  0  0
 26 49  1  0  0  0  0
 26 50  1  0  0  0  0
 27 31  1  0  0  0  0
 28 51  1  0  0  0  0
 28 52  1  0  0  0  0
 29 53  1  0  0  0  0
 29 54  1  0  0  0  0
 30 31  2  0  0  0  0
 30 55  1  0  0  0  0
 31 56  1  0  0  0  0
 32 57  1  0  0  0  0
 33 58  1  0  0  0  0
 33 59  1  0  0  0  0
 33 60  1  0  0  0  0
M  END
> <PUBCHEM_COMPOUND_CID>
45783527

> <PUBCHEM_CONFORMER_RMSD>
1

> <PUBCHEM_CONFORMER_DIVERSEORDER>
1
18
65
110
136
104
135
107
94
85
57
42
133
24
123
108
132
36
143
37
79
32
98
114
2
101
67
3
140
45
21
84
75
54
86
38
137
99
15
78
49
138
122
142
80
87
127
50
20
6
139
25
71
23
91
77
102
64
33
113
51
89
70
55
30
118
5
22
112
68
90
40
60
97
141
62
134
52
73
48
88
119
27
16
115
19
100
106
128
130
131
103
117
9
125
56
116
76
43
61
81
82
53
92
96
83
26
63
121
109
39
93
44
105
126
12
144
7
69
120
124
13
59
10
74
58
129
28
95
8
72
41
66
111
46
14
35
4
29
47
17
34
11
31

> <PUBCHEM_MMFF94_PARTIAL_CHARGES>
38
1 1.2
10 -0.62
11 0.45
14 0.27
15 0.41
16 0.3
17 -0.14
18 -0.15
19 -0.15
2 -0.02
20 0.46
21 -0.15
22 -0.15
23 -0.01
24 0.05
25 0.37
26 0.37
27 0.41
28 0.28
29 0.28
3 -0.56
30 -0.15
31 -0.15
32 0.16
33 0.11
4 -0.65
43 0.15
44 0.15
45 0.15
46 0.15
5 -0.65
55 0.15
56 0.15
57 0.15
6 -0.81
7 -0.57
8 -0.41
9 -0.84

> <PUBCHEM_EFFECTIVE_ROTOR_COUNT>
8.2

> <PUBCHEM_PHARMACOPHORE_FEATURES>
11
1 3 acceptor
1 4 acceptor
1 5 acceptor
1 6 cation
3 7 8 20 cation
3 9 10 27 cation
5 2 7 8 16 20 rings
5 6 11 12 13 14 rings
6 10 24 27 30 31 32 rings
6 17 18 19 21 22 23 rings
6 3 9 25 26 28 29 rings

> <PUBCHEM_HEAVY_ATOM_COUNT>
33

> <PUBCHEM_ATOM_DEF_STEREO_COUNT>
1

> <PUBCHEM_ATOM_UDEF_STEREO_COUNT>
0

> <PUBCHEM_BOND_DEF_STEREO_COUNT>
0

> <PUBCHEM_BOND_UDEF_STEREO_COUNT>
0

> <PUBCHEM_ISOTOPIC_ATOM_COUNT>
0

> <PUBCHEM_COMPONENT_COUNT>
1

> <PUBCHEM_CACTVS_TAUTO_COUNT>
1

> <PUBCHEM_CONFORMER_ID>
02BA99E700000001

> <PUBCHEM_MMFF94_ENERGY>
75.214

> <PUBCHEM_FEATURE_SELFOVERLAP>
55.841

> <PUBCHEM_SHAPE_FINGERPRINT>
10032420 55 17967521377035863089
100830 39 18337951165766367026
11595378 159 18263636286825052178
12104220 1 18260264140724298978
12107698 1 18411699923839879450
12156800 1 16300597977927485877
12166972 35 17822009852136831046
12596602 18 18040152903448427090
13782708 43 17488477282266276598
14068700 675 18270964647682573561
14394314 77 18334581192444513881
14395042 24 18271262573217679905
14856354 85 18337957886779340566
15419008 47 17917990577596796000
15876981 60 18334297573746054455
15968369 153 18059570339257270192
17627616 140 18044392740745384164
17686467 74 18199179779662789418
18336668 15 18187651314203676893
19611394 137 18117853306813645163
20721686 56 18264489670561013320
21033648 29 17346313778505372131
21716022 299 15977174635124723205
21927370 108 18336276716473128003
22956985 138 17471018446324560443
23559900 14 18191862538807717979
25019877 29 16773519957525481759
3504750 166 18341880871569435926
392239 28 18336555927833132040
4280585 95 18409164424767906313
469060 322 18339092522617183531
6057620 51 18261113028278691986

> <PUBCHEM_SHAPE_MULTIPOLES>
634.59
15.68
4.86
1.39
24.43
6.45
-0.05
-12.03
3.26
-4.53
-0.59
0.14
0.2
-1.17

> <PUBCHEM_SHAPE_SELFOVERLAP>
1359.071

> <PUBCHEM_SHAPE_VOLUME>
355.8

> <PUBCHEM_COORDINATE_TYPE>
2
5
10

$$$$
