38026982
  -OEChem-12032416243D

 72 74  0     1  0  0  0  0  0999 V2000
   -3.2740    2.5784    1.0211 S   0  0  0  0  0  0  0  0  0  0  0  0
    1.0572   -3.4908    0.2958 O   0  0  0  0  0  0  0  0  0  0  0  0
   -3.3439    2.7663    2.4576 O   0  0  0  0  0  0  0  0  0  0  0  0
   -4.0788    3.4006    0.1379 O   0  0  0  0  0  0  0  0  0  0  0  0
    7.0224    0.8556   -0.4477 O   0  0  0  0  0  0  0  0  0  0  0  0
   -3.5440    0.9366    0.6553 N   0  0  0  0  0  0  0  0  0  0  0  0
    1.3697   -1.6148    1.6313 N   0  0  0  0  0  0  0  0  0  0  0  0
    4.6217   -0.5517    0.1505 N   0  0  0  0  0  0  0  0  0  0  0  0
   -1.9732   -0.8381   -1.1786 C   0  0  1  0  0  0  0  0  0  0  0  0
   -3.5139   -0.8495   -1.0175 C   0  0  1  0  0  0  0  0  0  0  0  0
   -1.4152   -2.2672   -1.0989 C   0  0  0  0  0  0  0  0  0  0  0  0
   -1.7613   -2.9543    0.2356 C   0  0  2  0  0  0  0  0  0  0  0  0
   -1.5440   -0.1865   -2.4968 C   0  0  0  0  0  0  0  0  0  0  0  0
   -3.2219   -2.7770    0.5980 C   0  0  0  0  0  0  0  0  0  0  0  0
   -3.9927   -1.8401    0.0179 C   0  0  0  0  0  0  0  0  0  0  0  0
   -4.0444    0.5466   -0.6721 C   0  0  0  0  0  0  0  0  0  0  0  0
   -0.8516   -2.4576    1.3648 C   0  0  0  0  0  0  0  0  0  0  0  0
   -0.0234   -0.0950   -2.5749 C   0  0  0  0  0  0  0  0  0  0  0  0
   -2.1006   -0.9680   -3.6825 C   0  0  0  0  0  0  0  0  0  0  0  0
   -3.7888   -3.7324    1.6108 C   0  0  0  0  0  0  0  0  0  0  0  0
    0.6135   -2.6046    1.0208 C   0  0  0  0  0  0  0  0  0  0  0  0
    2.8029   -1.5107    1.4804 C   0  0  0  0  0  0  0  0  0  0  0  0
    3.1694   -0.6354    0.2910 C   0  0  0  0  0  0  0  0  0  0  0  0
   -1.5896    2.7849    0.5260 C   0  0  0  0  0  0  0  0  0  0  0  0
    4.9940   -0.2196   -1.2317 C   0  0  0  0  0  0  0  0  0  0  0  0
    5.1787    0.4454    1.0753 C   0  0  0  0  0  0  0  0  0  0  0  0
    6.5125   -0.1263   -1.3505 C   0  0  0  0  0  0  0  0  0  0  0  0
    6.6928    0.5241    0.9019 C   0  0  0  0  0  0  0  0  0  0  0  0
   -1.2893    3.1736   -0.7795 C   0  0  0  0  0  0  0  0  0  0  0  0
   -0.5610    2.5556    1.4397 C   0  0  0  0  0  0  0  0  0  0  0  0
    0.0400    3.3330   -1.1714 C   0  0  0  0  0  0  0  0  0  0  0  0
    0.7682    2.7151    1.0479 C   0  0  0  0  0  0  0  0  0  0  0  0
    1.0687    3.1037   -0.2577 C   0  0  0  0  0  0  0  0  0  0  0  0
   -1.5230   -0.2628   -0.3601 H   0  0  0  0  0  0  0  0  0  0  0  0
   -4.0073   -1.1635   -1.9406 H   0  0  0  0  0  0  0  0  0  0  0  0
   -0.3422   -2.2975   -1.2881 H   0  0  0  0  0  0  0  0  0  0  0  0
   -1.8686   -2.8887   -1.8816 H   0  0  0  0  0  0  0  0  0  0  0  0
   -1.5746   -4.0277    0.0900 H   0  0  0  0  0  0  0  0  0  0  0  0
   -1.9334    0.8352   -2.5478 H   0  0  0  0  0  0  0  0  0  0  0  0
   -5.0470   -1.7889    0.2836 H   0  0  0  0  0  0  0  0  0  0  0  0
   -5.1404    0.5386   -0.6337 H   0  0  0  0  0  0  0  0  0  0  0  0
   -3.7525    1.2733   -1.4342 H   0  0  0  0  0  0  0  0  0  0  0  0
   -1.0193   -3.0401    2.2789 H   0  0  0  0  0  0  0  0  0  0  0  0
   -1.0818   -1.4130    1.6079 H   0  0  0  0  0  0  0  0  0  0  0  0
    0.4477   -1.0519   -2.8202 H   0  0  0  0  0  0  0  0  0  0  0  0
    0.4096    0.2746   -1.6403 H   0  0  0  0  0  0  0  0  0  0  0  0
    0.2656    0.6038   -3.3686 H   0  0  0  0  0  0  0  0  0  0  0  0
   -1.7350   -1.9960   -3.7442 H   0  0  0  0  0  0  0  0  0  0  0  0
   -1.7701   -0.4825   -4.6101 H   0  0  0  0  0  0  0  0  0  0  0  0
   -3.1907   -0.9724   -3.7353 H   0  0  0  0  0  0  0  0  0  0  0  0
   -3.6359   -4.7664    1.2849 H   0  0  0  0  0  0  0  0  0  0  0  0
   -4.8649   -3.5889    1.7561 H   0  0  0  0  0  0  0  0  0  0  0  0
   -3.3051   -3.5977    2.5829 H   0  0  0  0  0  0  0  0  0  0  0  0
   -3.7554    0.3022    1.4350 H   0  0  0  0  0  0  0  0  0  0  0  0
    0.9110   -0.9205    2.2138 H   0  0  0  0  0  0  0  0  0  0  0  0
    3.2204   -2.5175    1.3628 H   0  0  0  0  0  0  0  0  0  0  0  0
    3.1788   -1.0964    2.4207 H   0  0  0  0  0  0  0  0  0  0  0  0
    2.7057    0.3557    0.3681 H   0  0  0  0  0  0  0  0  0  0  0  0
    2.7323   -1.1020   -0.6026 H   0  0  0  0  0  0  0  0  0  0  0  0
    4.5430    0.7372   -1.5261 H   0  0  0  0  0  0  0  0  0  0  0  0
    4.6347   -0.9922   -1.9212 H   0  0  0  0  0  0  0  0  0  0  0  0
    4.9668    0.1834    2.1168 H   0  0  0  0  0  0  0  0  0  0  0  0
    4.7417    1.4335    0.8790 H   0  0  0  0  0  0  0  0  0  0  0  0
    6.9942   -1.0915   -1.1521 H   0  0  0  0  0  0  0  0  0  0  0  0
    6.7886    0.1792   -2.3647 H   0  0  0  0  0  0  0  0  0  0  0  0
    7.1015    1.3093    1.5459 H   0  0  0  0  0  0  0  0  0  0  0  0
    7.1814   -0.4186    1.1772 H   0  0  0  0  0  0  0  0  0  0  0  0
   -2.0734    3.3513   -1.5097 H   0  0  0  0  0  0  0  0  0  0  0  0
   -0.7728    2.2435    2.4583 H   0  0  0  0  0  0  0  0  0  0  0  0
    0.2742    3.6316   -2.1890 H   0  0  0  0  0  0  0  0  0  0  0  0
    1.5696    2.5322    1.7578 H   0  0  0  0  0  0  0  0  0  0  0  0
    2.1039    3.2237   -0.5635 H   0  0  0  0  0  0  0  0  0  0  0  0
  1  3  2  0  0  0  0
  1  4  2  0  0  0  0
  1  6  1  0  0  0  0
  1 24  1  0  0  0  0
  2 21  2  0  0  0  0
  5 27  1  0  0  0  0
  5 28  1  0  0  0  0
  6 16  1  0  0  0  0
  6 54  1  0  0  0  0
  7 21  1  0  0  0  0
  7 22  1  0  0  0  0
  7 55  1  0  0  0  0
  8 23  1  0  0  0  0
  8 25  1  0  0  0  0
  8 26  1  0  0  0  0
  9 10  1  0  0  0  0
  9 11  1  0  0  0  0
  9 13  1  0  0  0  0
  9 34  1  0  0  0  0
 10 15  1  0  0  0  0
 10 16  1  0  0  0  0
 10 35  1  0  0  0  0
 11 12  1  0  0  0  0
 11 36  1  0  0  0  0
 11 37  1  0  0  0  0
 12 14  1  0  0  0  0
 12 17  1  0  0  0  0
 12 38  1  0  0  0  0
 13 18  1  0  0  0  0
 13 19  1  0  0  0  0
 13 39  1  0  0  0  0
 14 15  2  0  0  0  0
 14 20  1  0  0  0  0
 15 40  1  0  0  0  0
 16 41  1  0  0  0  0
 16 42  1  0  0  0  0
 17 21  1  0  0  0  0
 17 43  1  0  0  0  0
 17 44  1  0  0  0  0
 18 45  1  0  0  0  0
 18 46  1  0  0  0  0
 18 47  1  0  0  0  0
 19 48  1  0  0  0  0
 19 49  1  0  0  0  0
 19 50  1  0  0  0  0
 20 51  1  0  0  0  0
 20 52  1  0  0  0  0
 20 53  1  0  0  0  0
 22 23  1  0  0  0  0
 22 56  1  0  0  0  0
 22 57  1  0  0  0  0
 23 58  1  0  0  0  0
 23 59  1  0  0  0  0
 24 29  2  0  0  0  0
 24 30  1  0  0  0  0
 25 27  1  0  0  0  0
 25 60  1  0  0  0  0
 25 61  1  0  0  0  0
 26 28  1  0  0  0  0
 26 62  1  0  0  0  0
 26 63  1  0  0  0  0
 27 64  1  0  0  0  0
 27 65  1  0  0  0  0
 28 66  1  0  0  0  0
 28 67  1  0  0  0  0
 29 31  1  0  0  0  0
 29 68  1  0  0  0  0
 30 32  2  0  0  0  0
 30 69  1  0  0  0  0
 31 33  2  0  0  0  0
 31 70  1  0  0  0  0
 32 33  1  0  0  0  0
 32 71  1  0  0  0  0
 33 72  1  0  0  0  0
M  END
> <PUBCHEM_COMPOUND_CID>
38026982

> <PUBCHEM_CONFORMER_RMSD>
1.2

> <PUBCHEM_CONFORMER_DIVERSEORDER>
3
195
172
35
22
109
113
101
58
220
178
32
86
40
157
105
30
136
234
110
74
48
160
59
120
134
233
191
90
210
148
145
198
15
26
181
225
18
96
143
75
138
219
63
147
50
133
44
142
91
81
43
45
89
98
103
85
119
187
217
87
72
80
93
71
41
112
24
31
209
212
131
190
170
179
139
169
28
62
211
166
61
185
216
202
205
229
174
19
37
116
51
130
159
164
141
224
55
218
135
150
173
215
199
132
77
223
76
200
94
25
151
82
68
115
228
204
149
167
52
69
83
46
56
162
6
230
197
213
176
92
57
177
34
79
99
7
33
146
65
156
193
189
67
154
128
175
106
97
186
64
182
66
201
114
168
152
124
29
100
232
125
122
140
78
108
88
222
2
231
11
84
194
38
207
60
161
203
49
42
127
17
192
8
1
95
155
14
73
206
39
54
104
208
16
180
12
196
183
118
36
144
111
129
163
184
4
153
107
23
214
70
27
226
227
158
13
137
165
221
53
102
20
10
5
123
126
188
21
117
171
121
9
47

> <PUBCHEM_MMFF94_PARTIAL_CHARGES>
36
1 1.45
10 0.14
12 0.14
14 -0.28
15 -0.29
16 0.36
17 0.06
2 -0.57
20 0.14
21 0.57
22 0.3
23 0.27
24 -0.01
25 0.27
26 0.27
27 0.28
28 0.28
29 -0.15
3 -0.65
30 -0.15
31 -0.15
32 -0.15
33 -0.15
4 -0.65
40 0.15
5 -0.56
54 0.42
55 0.37
6 -0.91
68 0.15
69 0.15
7 -0.73
70 0.15
71 0.15
72 0.15
8 -0.81

> <PUBCHEM_EFFECTIVE_ROTOR_COUNT>
13

> <PUBCHEM_PHARMACOPHORE_FEATURES>
11
1 2 acceptor
1 3 acceptor
1 4 acceptor
1 5 acceptor
1 6 donor
1 7 donor
1 8 cation
3 13 18 19 hydrophobe
6 24 29 30 31 32 33 rings
6 5 8 25 26 27 28 rings
6 9 10 11 12 14 15 rings

> <PUBCHEM_HEAVY_ATOM_COUNT>
33

> <PUBCHEM_ATOM_DEF_STEREO_COUNT>
3

> <PUBCHEM_ATOM_UDEF_STEREO_COUNT>
0

> <PUBCHEM_BOND_DEF_STEREO_COUNT>
0

> <PUBCHEM_BOND_UDEF_STEREO_COUNT>
0

> <PUBCHEM_ISOTOPIC_ATOM_COUNT>
0

> <PUBCHEM_COMPONENT_COUNT>
1

> <PUBCHEM_CACTVS_TAUTO_COUNT>
2

> <PUBCHEM_CONFORMER_ID>
02443EE600000003

> <PUBCHEM_MMFF94_ENERGY>
51.1883

> <PUBCHEM_FEATURE_SELFOVERLAP>
55.839

> <PUBCHEM_SHAPE_FINGERPRINT>
10670039 82 18410012122705990306
10864689 126 18196371408439302752
10871710 139 18339634539010786305
12104220 1 18334286570968431908
12156800 1 17908186231900135783
12422481 6 17630073604934236347
12788726 201 18411410692600332890
13615921 28 18340199816825751141
13761468 95 18115018598776177486
14114206 34 18266435694578925228
14279260 333 18339641141030102706
14395042 70 15622027586765976897
14840074 17 18190470367396359361
15297060 5 18201162048877141274
15406563 42 18270418130833528046
15968369 153 18057883744064822448
20764821 26 18119243119717400736
35225 105 17771322202819157893
354706 132 18261398819734283476
469060 322 17458345243178524452
7288768 16 17968664813014672003

> <PUBCHEM_SHAPE_MULTIPOLES>
644.55
11.63
5.19
2.44
26.08
1.64
-1.75
-0.86
0.27
-5.7
2.29
-1.25
-0.29
-0.57

> <PUBCHEM_SHAPE_SELFOVERLAP>
1308.364

> <PUBCHEM_SHAPE_VOLUME>
376.2

> <PUBCHEM_COORDINATE_TYPE>
2
5
10

$$$$
