45783412
  -OEChem-12032416363D

 52 55  0     1  0  0  0  0  0999 V2000
   -3.3917    2.7755   -0.4581 F   0  0  0  0  0  0  0  0  0  0  0  0
   -0.8227    1.7615    1.7714 O   0  0  0  0  0  0  0  0  0  0  0  0
    2.0459   -1.0280   -0.5738 O   0  0  0  0  0  0  0  0  0  0  0  0
    0.8764   -3.5519   -0.8824 O   0  0  0  0  0  0  0  0  0  0  0  0
   -2.7317   -0.9264    0.5549 N   0  0  1  0  0  0  0  0  0  0  0  0
    0.2356   -0.1332    1.2174 N   0  0  0  0  0  0  0  0  0  0  0  0
    0.5112    2.1159    1.5329 N   0  0  0  0  0  0  0  0  0  0  0  0
    4.2240   -0.3035   -0.3331 N   0  0  0  0  0  0  0  0  0  0  0  0
   -2.2584   -0.2164    1.7600 C   0  0  1  0  0  0  0  0  0  0  0  0
   -2.2600   -1.2846    2.8692 C   0  0  0  0  0  0  0  0  0  0  0  0
   -2.8060   -2.5426    2.2090 C   0  0  0  0  0  0  0  0  0  0  0  0
   -3.5908   -2.0129    1.0259 C   0  0  0  0  0  0  0  0  0  0  0  0
   -3.4173   -0.0565   -0.3922 C   0  0  0  0  0  0  0  0  0  0  0  0
   -0.8987    0.4208    1.5639 C   0  0  0  0  0  0  0  0  0  0  0  0
   -2.4482    0.7374   -1.2272 C   0  0  0  0  0  0  0  0  0  0  0  0
   -2.4907    2.1314   -1.2131 C   0  0  0  0  0  0  0  0  0  0  0  0
   -1.5066    0.0763   -2.0159 C   0  0  0  0  0  0  0  0  0  0  0  0
    1.0710    0.9457    1.2115 C   0  0  0  0  0  0  0  0  0  0  0  0
   -1.5916    2.8646   -1.9876 C   0  0  0  0  0  0  0  0  0  0  0  0
   -0.6075    0.8093   -2.7905 C   0  0  0  0  0  0  0  0  0  0  0  0
    2.4611    0.8202    0.8812 C   0  0  0  0  0  0  0  0  0  0  0  0
   -0.6499    2.2035   -2.7764 C   0  0  0  0  0  0  0  0  0  0  0  0
    2.9245   -0.1493    0.0065 C   0  0  0  0  0  0  0  0  0  0  0  0
    3.3912    1.6874    1.4436 C   0  0  0  0  0  0  0  0  0  0  0  0
    4.7372    1.5603    1.1187 C   0  0  0  0  0  0  0  0  0  0  0  0
    5.0988    0.5576    0.2334 C   0  0  0  0  0  0  0  0  0  0  0  0
    2.5993   -1.9932   -1.4597 C   0  0  0  0  0  0  0  0  0  0  0  0
    1.4868   -2.8832   -1.9795 C   0  0  0  0  0  0  0  0  0  0  0  0
   -0.1914   -4.3858   -1.3098 C   0  0  0  0  0  0  0  0  0  0  0  0
   -2.9731    0.5640    2.0576 H   0  0  0  0  0  0  0  0  0  0  0  0
   -1.2744   -1.4720    3.3088 H   0  0  0  0  0  0  0  0  0  0  0  0
   -2.9335   -0.9744    3.6776 H   0  0  0  0  0  0  0  0  0  0  0  0
   -3.4232   -3.1339    2.8916 H   0  0  0  0  0  0  0  0  0  0  0  0
   -1.9763   -3.1732    1.8657 H   0  0  0  0  0  0  0  0  0  0  0  0
   -4.5711   -1.6443    1.3538 H   0  0  0  0  0  0  0  0  0  0  0  0
   -3.7363   -2.7837    0.2627 H   0  0  0  0  0  0  0  0  0  0  0  0
   -4.1502    0.5892    0.1082 H   0  0  0  0  0  0  0  0  0  0  0  0
   -3.9989   -0.6636   -1.1004 H   0  0  0  0  0  0  0  0  0  0  0  0
   -1.4653   -1.0092   -2.0409 H   0  0  0  0  0  0  0  0  0  0  0  0
   -1.6243    3.9500   -1.9755 H   0  0  0  0  0  0  0  0  0  0  0  0
    0.1262    0.2946   -3.4040 H   0  0  0  0  0  0  0  0  0  0  0  0
    0.0509    2.7743   -3.3786 H   0  0  0  0  0  0  0  0  0  0  0  0
    3.0978    2.4665    2.1428 H   0  0  0  0  0  0  0  0  0  0  0  0
    5.4802    2.2238    1.5461 H   0  0  0  0  0  0  0  0  0  0  0  0
    6.1359    0.4162   -0.0522 H   0  0  0  0  0  0  0  0  0  0  0  0
    3.3253   -2.6122   -0.9179 H   0  0  0  0  0  0  0  0  0  0  0  0
    3.0877   -1.4964   -2.3065 H   0  0  0  0  0  0  0  0  0  0  0  0
    0.7326   -2.2752   -2.4908 H   0  0  0  0  0  0  0  0  0  0  0  0
    1.8944   -3.6189   -2.6816 H   0  0  0  0  0  0  0  0  0  0  0  0
   -0.9737   -3.7907   -1.7910 H   0  0  0  0  0  0  0  0  0  0  0  0
    0.1734   -5.1561   -1.9961 H   0  0  0  0  0  0  0  0  0  0  0  0
   -0.6187   -4.8751   -0.4304 H   0  0  0  0  0  0  0  0  0  0  0  0
  1 16  1  0  0  0  0
  2  7  1  0  0  0  0
  2 14  1  0  0  0  0
  3 23  1  0  0  0  0
  3 27  1  0  0  0  0
  4 28  1  0  0  0  0
  4 29  1  0  0  0  0
  5  9  1  0  0  0  0
  5 12  1  0  0  0  0
  5 13  1  0  0  0  0
  6 14  2  0  0  0  0
  6 18  1  0  0  0  0
  7 18  2  0  0  0  0
  8 23  1  0  0  0  0
  8 26  2  0  0  0  0
  9 10  1  0  0  0  0
  9 14  1  0  0  0  0
  9 30  1  0  0  0  0
 10 11  1  0  0  0  0
 10 31  1  0  0  0  0
 10 32  1  0  0  0  0
 11 12  1  0  0  0  0
 11 33  1  0  0  0  0
 11 34  1  0  0  0  0
 12 35  1  0  0  0  0
 12 36  1  0  0  0  0
 13 15  1  0  0  0  0
 13 37  1  0  0  0  0
 13 38  1  0  0  0  0
 15 16  1  0  0  0  0
 15 17  2  0  0  0  0
 16 19  2  0  0  0  0
 17 20  1  0  0  0  0
 17 39  1  0  0  0  0
 18 21  1  0  0  0  0
 19 22  1  0  0  0  0
 19 40  1  0  0  0  0
 20 22  2  0  0  0  0
 20 41  1  0  0  0  0
 21 23  2  0  0  0  0
 21 24  1  0  0  0  0
 22 42  1  0  0  0  0
 24 25  2  0  0  0  0
 24 43  1  0  0  0  0
 25 26  1  0  0  0  0
 25 44  1  0  0  0  0
 26 45  1  0  0  0  0
 27 28  1  0  0  0  0
 27 46  1  0  0  0  0
 27 47  1  0  0  0  0
 28 48  1  0  0  0  0
 28 49  1  0  0  0  0
 29 50  1  0  0  0  0
 29 51  1  0  0  0  0
 29 52  1  0  0  0  0
M  END
> <PUBCHEM_COMPOUND_CID>
45783412

> <PUBCHEM_CONFORMER_RMSD>
1

> <PUBCHEM_CONFORMER_DIVERSEORDER>
1
94
59
41
110
118
58
7
138
139
156
148
50
147
92
100
15
134
44
60
24
82
77
162
2
155
61
81
130
23
12
32
85
76
98
125
142
64
101
126
143
137
99
136
164
159
95
63
35
146
154
30
75
51
22
47
74
112
161
117
151
113
62
54
79
25
153
123
70
48
34
38
157
87
107
108
111
33
43
103
45
127
145
19
158
97
105
17
121
71
84
11
116
89
135
29
150
42
104
69
83
115
106
66
27
6
120
86
163
91
49
4
78
132
88
124
160
36
140
129
21
80
40
128
144
57
96
39
90
46
5
102
65
26
52
55
152
119
3
131
68
16
73
93
53
133
114
141
122
67
8
149
9
13
37
14
18
109
28
10
20
56
31
72

> <PUBCHEM_MMFF94_PARTIAL_CHARGES>
34
1 -0.19
12 0.27
13 0.41
14 0.3
15 -0.14
16 0.19
17 -0.15
18 0.46
19 -0.15
2 -0.02
20 -0.15
21 0.05
22 -0.15
23 0.39
24 -0.15
25 -0.15
26 0.16
27 0.28
28 0.28
29 0.28
3 -0.36
39 0.15
4 -0.56
40 0.15
41 0.15
42 0.15
43 0.15
44 0.15
45 0.15
5 -0.81
6 -0.57
7 -0.41
8 -0.62
9 0.45

> <PUBCHEM_EFFECTIVE_ROTOR_COUNT>
9

> <PUBCHEM_PHARMACOPHORE_FEATURES>
9
1 3 acceptor
1 4 acceptor
1 5 cation
1 8 acceptor
3 6 7 18 cation
5 2 6 7 14 18 rings
5 5 9 10 11 12 rings
6 15 16 17 19 20 22 rings
6 8 21 23 24 25 26 rings

> <PUBCHEM_HEAVY_ATOM_COUNT>
29

> <PUBCHEM_ATOM_DEF_STEREO_COUNT>
1

> <PUBCHEM_ATOM_UDEF_STEREO_COUNT>
0

> <PUBCHEM_BOND_DEF_STEREO_COUNT>
0

> <PUBCHEM_BOND_UDEF_STEREO_COUNT>
0

> <PUBCHEM_ISOTOPIC_ATOM_COUNT>
0

> <PUBCHEM_COMPONENT_COUNT>
1

> <PUBCHEM_CACTVS_TAUTO_COUNT>
1

> <PUBCHEM_CONFORMER_ID>
02BA997400000001

> <PUBCHEM_MMFF94_ENERGY>
62.4929

> <PUBCHEM_FEATURE_SELFOVERLAP>
45.725

> <PUBCHEM_SHAPE_FINGERPRINT>
11578080 2 18121246214917817996
12539773 59 15141546695626508819
13911987 19 18129658729244149856
14468879 13 18337378353808528565
14910302 57 18113611262314753218
1813 80 17751951208982654563
20600515 1 17313097588364968967
23419403 2 17762082959877824073
23557571 272 17967535683276188672
238 59 17840546475429813543
35225 105 17245221436478105006
469060 322 17901927962287175142
550186 7 17822003186722075438

> <PUBCHEM_SHAPE_MULTIPOLES>
552
7.19
3.98
3.05
7.36
2.61
0.43
-0.61
-2.71
-2.05
2.59
-1.23
0.16
3.33

> <PUBCHEM_SHAPE_SELFOVERLAP>
1187.754

> <PUBCHEM_SHAPE_VOLUME>
306.8

> <PUBCHEM_COORDINATE_TYPE>
2
5
10

$$$$
