51137527
  -OEChem-12032416243D

 50 53  0     1  0  0  0  0  0999 V2000
   -6.4072    2.9147    1.0741 F   0  0  0  0  0  0  0  0  0  0  0  0
   -8.3991    1.1929    0.3367 F   0  0  0  0  0  0  0  0  0  0  0  0
    1.5484   -1.1958    0.1756 O   0  0  0  0  0  0  0  0  0  0  0  0
   -2.4757   -0.9345   -0.2667 N   0  0  1  0  0  0  0  0  0  0  0  0
    1.6333   -3.4309    0.1378 N   0  0  0  0  0  0  0  0  0  0  0  0
    2.9279   -2.9529    0.0579 N   0  0  0  0  0  0  0  0  0  0  0  0
    6.8215    2.3267   -0.1261 N   0  0  0  0  0  0  0  0  0  0  0  0
   -0.6430   -2.2805    0.3068 C   0  0  1  0  0  0  0  0  0  0  0  0
   -1.1637   -1.5581    1.5616 C   0  0  0  0  0  0  0  0  0  0  0  0
   -1.2780   -1.5247   -0.8682 C   0  0  0  0  0  0  0  0  0  0  0  0
   -2.0339   -0.4257    1.0317 C   0  0  0  0  0  0  0  0  0  0  0  0
   -3.0602    0.1060   -1.0998 C   0  0  0  0  0  0  0  0  0  0  0  0
    0.8621   -2.3709    0.2048 C   0  0  0  0  0  0  0  0  0  0  0  0
   -4.4868    0.3962   -0.7159 C   0  0  0  0  0  0  0  0  0  0  0  0
    2.8301   -1.6442    0.0831 C   0  0  0  0  0  0  0  0  0  0  0  0
   -4.7923    1.5438    0.0158 C   0  0  0  0  0  0  0  0  0  0  0  0
   -5.5029   -0.4824   -1.0917 C   0  0  0  0  0  0  0  0  0  0  0  0
    3.8461   -0.6334    0.0298 C   0  0  0  0  0  0  0  0  0  0  0  0
   -6.1139    1.8129    0.3715 C   0  0  0  0  0  0  0  0  0  0  0  0
   -6.8245   -0.2134   -0.7360 C   0  0  0  0  0  0  0  0  0  0  0  0
   -7.1300    0.9344   -0.0044 C   0  0  0  0  0  0  0  0  0  0  0  0
    5.1891   -0.9986   -0.0649 C   0  0  0  0  0  0  0  0  0  0  0  0
    3.4913    0.7149    0.0722 C   0  0  0  0  0  0  0  0  0  0  0  0
    5.8223    1.3329   -0.0746 C   0  0  0  0  0  0  0  0  0  0  0  0
    6.1771   -0.0155   -0.1171 C   0  0  0  0  0  0  0  0  0  0  0  0
    4.4793    1.6981    0.0200 C   0  0  0  0  0  0  0  0  0  0  0  0
    6.4630    3.7307   -0.0904 C   0  0  0  0  0  0  0  0  0  0  0  0
    8.2197    1.9573   -0.2234 C   0  0  0  0  0  0  0  0  0  0  0  0
   -1.0336   -3.3075    0.3223 H   0  0  0  0  0  0  0  0  0  0  0  0
   -1.7719   -2.2534    2.1538 H   0  0  0  0  0  0  0  0  0  0  0  0
   -0.3667   -1.1794    2.2101 H   0  0  0  0  0  0  0  0  0  0  0  0
   -1.5307   -2.2069   -1.6873 H   0  0  0  0  0  0  0  0  0  0  0  0
   -0.6059   -0.7509   -1.2623 H   0  0  0  0  0  0  0  0  0  0  0  0
   -1.4303    0.4856    0.9317 H   0  0  0  0  0  0  0  0  0  0  0  0
   -2.8676   -0.2213    1.7107 H   0  0  0  0  0  0  0  0  0  0  0  0
   -2.4579    1.0247   -1.0978 H   0  0  0  0  0  0  0  0  0  0  0  0
   -3.0763   -0.2227   -2.1487 H   0  0  0  0  0  0  0  0  0  0  0  0
   -4.0103    2.2358    0.3164 H   0  0  0  0  0  0  0  0  0  0  0  0
   -5.2778   -1.3799   -1.6618 H   0  0  0  0  0  0  0  0  0  0  0  0
   -7.6160   -0.8971   -1.0284 H   0  0  0  0  0  0  0  0  0  0  0  0
    5.4879   -2.0436   -0.0995 H   0  0  0  0  0  0  0  0  0  0  0  0
    2.4558    1.0379    0.1457 H   0  0  0  0  0  0  0  0  0  0  0  0
    7.2070   -0.3506   -0.1906 H   0  0  0  0  0  0  0  0  0  0  0  0
    4.1527    2.7327    0.0565 H   0  0  0  0  0  0  0  0  0  0  0  0
    5.8319    4.0001   -0.9446 H   0  0  0  0  0  0  0  0  0  0  0  0
    5.9468    3.9838    0.8424 H   0  0  0  0  0  0  0  0  0  0  0  0
    7.3473    4.3758   -0.1413 H   0  0  0  0  0  0  0  0  0  0  0  0
    8.5343    1.3657    0.6436 H   0  0  0  0  0  0  0  0  0  0  0  0
    8.4177    1.3957   -1.1432 H   0  0  0  0  0  0  0  0  0  0  0  0
    8.8704    2.8386   -0.2507 H   0  0  0  0  0  0  0  0  0  0  0  0
  1 19  1  0  0  0  0
  2 21  1  0  0  0  0
  3 13  1  0  0  0  0
  3 15  1  0  0  0  0
  4 10  1  0  0  0  0
  4 11  1  0  0  0  0
  4 12  1  0  0  0  0
  5  6  1  0  0  0  0
  5 13  2  0  0  0  0
  6 15  2  0  0  0  0
  7 24  1  0  0  0  0
  7 27  1  0  0  0  0
  7 28  1  0  0  0  0
  8  9  1  0  0  0  0
  8 10  1  0  0  0  0
  8 13  1  0  0  0  0
  8 29  1  0  0  0  0
  9 11  1  0  0  0  0
  9 30  1  0  0  0  0
  9 31  1  0  0  0  0
 10 32  1  0  0  0  0
 10 33  1  0  0  0  0
 11 34  1  0  0  0  0
 11 35  1  0  0  0  0
 12 14  1  0  0  0  0
 12 36  1  0  0  0  0
 12 37  1  0  0  0  0
 14 16  2  0  0  0  0
 14 17  1  0  0  0  0
 15 18  1  0  0  0  0
 16 19  1  0  0  0  0
 16 38  1  0  0  0  0
 17 20  2  0  0  0  0
 17 39  1  0  0  0  0
 18 22  2  0  0  0  0
 18 23  1  0  0  0  0
 19 21  2  0  0  0  0
 20 21  1  0  0  0  0
 20 40  1  0  0  0  0
 22 25  1  0  0  0  0
 22 41  1  0  0  0  0
 23 26  2  0  0  0  0
 23 42  1  0  0  0  0
 24 25  2  0  0  0  0
 24 26  1  0  0  0  0
 25 43  1  0  0  0  0
 26 44  1  0  0  0  0
 27 45  1  0  0  0  0
 27 46  1  0  0  0  0
 27 47  1  0  0  0  0
 28 48  1  0  0  0  0
 28 49  1  0  0  0  0
 28 50  1  0  0  0  0
M  END
> <PUBCHEM_COMPOUND_CID>
51137527

> <PUBCHEM_CONFORMER_RMSD>
0.8

> <PUBCHEM_CONFORMER_DIVERSEORDER>
1
124
135
112
98
31
70
73
71
140
117
93
5
62
122
145
152
151
95
87
139
156
25
115
51
138
120
82
41
131
130
40
110
65
72
168
39
166
113
15
142
61
46
33
106
137
44
146
99
21
18
114
90
169
104
4
60
26
165
167
101
29
45
157
155
37
16
86
11
30
148
102
160
170
64
17
109
134
49
67
75
8
89
141
24
54
94
14
13
149
154
80
63
52
12
32
84
2
118
132
119
48
10
143
153
23
22
19
144
57
50
78
3
88
27
69
20
68
85
126
74
53
147
133
43
59
158
83
76
121
42
136
111
123
103
9
7
35
47
125
58
108
36
107
161
159
150
128
66
164
81
6
28
116
127
162
100
77
38
56
92
97
79
105
34
163
129
91
55
96

> <PUBCHEM_MMFF94_PARTIAL_CHARGES>
34
1 -0.19
10 0.27
11 0.27
12 0.41
13 0.3
14 -0.14
15 0.43
16 -0.15
17 -0.15
18 0.05
19 0.19
2 -0.19
20 -0.15
21 0.19
22 -0.15
23 -0.15
24 0.1
25 -0.15
26 -0.15
27 0.37
28 0.37
3 -0.28
38 0.15
39 0.15
4 -0.81
40 0.15
41 0.15
42 0.15
43 0.15
44 0.15
5 -0.34
6 -0.34
7 -0.84
8 0.18

> <PUBCHEM_EFFECTIVE_ROTOR_COUNT>
6

> <PUBCHEM_PHARMACOPHORE_FEATURES>
6
1 4 cation
1 7 cation
5 3 5 6 13 15 rings
5 4 8 9 10 11 rings
6 14 16 17 19 20 21 rings
6 18 22 23 24 25 26 rings

> <PUBCHEM_HEAVY_ATOM_COUNT>
28

> <PUBCHEM_ATOM_DEF_STEREO_COUNT>
1

> <PUBCHEM_ATOM_UDEF_STEREO_COUNT>
0

> <PUBCHEM_BOND_DEF_STEREO_COUNT>
0

> <PUBCHEM_BOND_UDEF_STEREO_COUNT>
0

> <PUBCHEM_ISOTOPIC_ATOM_COUNT>
0

> <PUBCHEM_COMPONENT_COUNT>
1

> <PUBCHEM_CACTVS_TAUTO_COUNT>
1

> <PUBCHEM_CONFORMER_ID>
030C4BF700000001

> <PUBCHEM_MMFF94_ENERGY>
72.2167

> <PUBCHEM_FEATURE_SELFOVERLAP>
30.449

> <PUBCHEM_SHAPE_FINGERPRINT>
10 15 17676205779508578497
10074138 170 16298679385924054187
10319688 67 16370728149477124441
10411042 1 17833547895996583706
10595046 47 18341888568366386919
10673678 19 18342742901005400895
11135609 187 18412261740112137921
11273773 42 18342171198293310941
11374522 155 18115030813468488661
11828042 207 17631164363557191280
11828532 37 11815602146853904661
1200032 147 18260267465065428914
12035758 1 16877667855393111927
12592606 108 9079112255196202193
12788726 201 17203048465915116747
12821665 9 18412259576049864263
12895837 130 18270118053493309556
13248334 5 18265613170289214242
13540713 4 18263946435030830882
13690498 29 17416390169187291511
13885169 86 18334860558117606356
14251764 75 18408886265331907140
14294032 229 18198626725029564223
14394314 77 18340493275110598273
14565420 104 18113897135111732450
14617042 71 18411142416391244009
14849402 71 18411702106290375497
14931854 50 17917722322608796504
15064981 113 17060072445385734780
15183329 4 17131836464906789921
15510800 12 10881941880151813928
15519825 34 15430607280498206201
15685185 35 18338519771432886764
15840311 113 18266183821371217789
16126227 98 18411136978397553799
16993089 31 12966837010273565613
16994733 274 18410289173629100697
17899979 129 18343308046304269798
18393751 57 17894347787275250507
18608769 82 18336829809719139643
19302320 297 18187082893126915732
19438510 23 18186799214509391442
20691028 202 18265331901517795980
20715895 44 18410293645027262656
21033648 144 18260258638818465191
21033648 29 17822015345838300362
21298829 104 18411139151572371516
21304303 64 18334857221233933365
21307412 95 13038901162209375045
21521721 280 18336830802057123171
21585481 104 17131286670153593120
21585482 111 18263361408644639661
21641784 216 16271647776706861883
23522609 53 17702674250938157043
24771293 8 18186519917070647821
24893989 43 11748381223389543624
270888 7 18409728495628631426
2748736 6 18410569617687059312
2838139 119 18334286540001600326
3014063 24 8718826487591386933
306946 40 17168130215054801709
3246875 12 18334295409457505523
3472631 163 18343303673695181662
34797466 226 18130509626805820951
3711267 37 18130235857074714809
4073 2 18334016099218392523
4366758 26 18412833485842933928
437815 12 10807934873177483479
445580 126 18410845556519185570
474113 269 7925634376246474481
5104073 3 17894346687742719378
5385378 56 18260261924505369370
543368 44 18411134724172550837
5718773 13 9583523113916007956
57303763 176 17986681377316461136
5758199 1 18408322189801551487
5776283 40 18271242849821372064
5911458 16 18202287979018046705
59682541 35 17821734944787477985
59682541 52 17274834519599901062
6327066 14 18338516451934304926
6608658 132 17059507235767728969
6712543 237 15430029963647220649

> <PUBCHEM_SHAPE_MULTIPOLES>
535.89
24.07
3.56
0.94
5.95
0.24
-0.08
24.46
1.47
-4.07
-0.49
1.09
-0.09
-1.11

> <PUBCHEM_SHAPE_SELFOVERLAP>
1162.803

> <PUBCHEM_SHAPE_VOLUME>
298.2

> <PUBCHEM_COORDINATE_TYPE>
2
5
10

$$$$
