45783528
  -OEChem-12032416203D

 67 71  0     1  0  0  0  0  0999 V2000
    2.3156    2.5839    1.7851 O   0  0  0  0  0  0  0  0  0  0  0  0
    4.4260   -5.0129   -0.6479 O   0  0  0  0  0  0  0  0  0  0  0  0
   -7.4593   -2.2113    0.6621 O   0  0  0  0  0  0  0  0  0  0  0  0
    4.5538    1.1336   -0.7435 N   0  0  1  0  0  0  0  0  0  0  0  0
    4.5671   -2.9383    0.3882 N   0  0  0  0  0  0  0  0  0  0  0  0
    1.6708    1.5770   -0.1089 N   0  0  0  0  0  0  0  0  0  0  0  0
   -4.5796    0.2286   -0.4373 N   0  0  0  0  0  0  0  0  0  0  0  0
    0.9359    2.3750    1.9053 N   0  0  0  0  0  0  0  0  0  0  0  0
   -3.0338    1.2190    1.0580 N   0  0  0  0  0  0  0  0  0  0  0  0
   -9.0357   -0.5353    0.6528 N   0  0  0  0  0  0  0  0  0  0  0  0
    4.9455   -0.1059   -0.0769 C   0  0  0  0  0  0  0  0  0  0  0  0
    4.1307    2.1912    0.1962 C   0  0  1  0  0  0  0  0  0  0  0  0
    5.6437    1.6992   -1.5387 C   0  0  0  0  0  0  0  0  0  0  0  0
    4.4666    3.5107   -0.5230 C   0  0  0  0  0  0  0  0  0  0  0  0
    3.7872   -0.6313    0.7810 C   0  0  0  0  0  0  0  0  0  0  0  0
    5.3608   -1.1544   -1.1170 C   0  0  0  0  0  0  0  0  0  0  0  0
    5.1290    3.0947   -1.8287 C   0  0  0  0  0  0  0  0  0  0  0  0
    4.1401   -1.9776    1.4132 C   0  0  0  0  0  0  0  0  0  0  0  0
    5.6828   -2.4890   -0.4472 C   0  0  0  0  0  0  0  0  0  0  0  0
    2.6673    2.0856    0.5708 C   0  0  0  0  0  0  0  0  0  0  0  0
    4.0255   -4.2091    0.1980 C   0  0  0  0  0  0  0  0  0  0  0  0
   -7.3166   -0.5329   -1.0359 C   0  0  0  0  0  0  0  0  0  0  0  0
   -6.9270    0.9119   -0.7294 C   0  0  0  0  0  0  0  0  0  0  0  0
   -6.1241   -1.3295   -1.5611 C   0  0  0  0  0  0  0  0  0  0  0  0
   -5.6748    1.0172    0.1405 C   0  0  0  0  0  0  0  0  0  0  0  0
   -4.8675   -1.1841   -0.7003 C   0  0  0  0  0  0  0  0  0  0  0  0
    0.6296    1.7773    0.7500 C   0  0  0  0  0  0  0  0  0  0  0  0
    2.8776   -4.5957    1.0960 C   0  0  0  0  0  0  0  0  0  0  0  0
   -3.2711    0.6206   -0.1308 C   0  0  0  0  0  0  0  0  0  0  0  0
   -0.7060    1.3694    0.4226 C   0  0  0  0  0  0  0  0  0  0  0  0
   -7.9223   -1.1838    0.1730 C   0  0  0  0  0  0  0  0  0  0  0  0
   -2.2941    0.3665   -1.0800 C   0  0  0  0  0  0  0  0  0  0  0  0
   -0.9896    0.7511   -0.7903 C   0  0  0  0  0  0  0  0  0  0  0  0
   -1.7541    1.5787    1.3043 C   0  0  0  0  0  0  0  0  0  0  0  0
    5.8041    0.0796    0.5848 H   0  0  0  0  0  0  0  0  0  0  0  0
    4.7321    2.1555    1.1159 H   0  0  0  0  0  0  0  0  0  0  0  0
    5.8141    1.1636   -2.4773 H   0  0  0  0  0  0  0  0  0  0  0  0
    6.5837    1.7517   -0.9749 H   0  0  0  0  0  0  0  0  0  0  0  0
    3.5941    4.1449   -0.7143 H   0  0  0  0  0  0  0  0  0  0  0  0
    5.1768    4.0891    0.0805 H   0  0  0  0  0  0  0  0  0  0  0  0
    2.8855   -0.7644    0.1704 H   0  0  0  0  0  0  0  0  0  0  0  0
    3.5588    0.0337    1.6179 H   0  0  0  0  0  0  0  0  0  0  0  0
    6.2502   -0.8424   -1.6751 H   0  0  0  0  0  0  0  0  0  0  0  0
    4.5512   -1.3036   -1.8440 H   0  0  0  0  0  0  0  0  0  0  0  0
    4.3832    3.0689   -2.6329 H   0  0  0  0  0  0  0  0  0  0  0  0
    5.9259    3.7829   -2.1256 H   0  0  0  0  0  0  0  0  0  0  0  0
    4.9751   -1.8632    2.1149 H   0  0  0  0  0  0  0  0  0  0  0  0
    3.2865   -2.3434    1.9866 H   0  0  0  0  0  0  0  0  0  0  0  0
    5.9236   -3.2358   -1.2104 H   0  0  0  0  0  0  0  0  0  0  0  0
    6.5601   -2.3911    0.2034 H   0  0  0  0  0  0  0  0  0  0  0  0
   -8.0959   -0.5314   -1.8099 H   0  0  0  0  0  0  0  0  0  0  0  0
   -6.7211    1.4147   -1.6845 H   0  0  0  0  0  0  0  0  0  0  0  0
   -7.7374    1.4801   -0.2614 H   0  0  0  0  0  0  0  0  0  0  0  0
   -6.3738   -2.3919   -1.6684 H   0  0  0  0  0  0  0  0  0  0  0  0
   -5.8896   -0.9649   -2.5705 H   0  0  0  0  0  0  0  0  0  0  0  0
   -5.8845    0.6705    1.1599 H   0  0  0  0  0  0  0  0  0  0  0  0
   -5.3991    2.0777    0.2027 H   0  0  0  0  0  0  0  0  0  0  0  0
   -4.0412   -1.6757   -1.2269 H   0  0  0  0  0  0  0  0  0  0  0  0
   -4.9831   -1.7105    0.2541 H   0  0  0  0  0  0  0  0  0  0  0  0
    2.5401   -5.6051    0.8411 H   0  0  0  0  0  0  0  0  0  0  0  0
    3.1988   -4.5978    2.1409 H   0  0  0  0  0  0  0  0  0  0  0  0
    2.0381   -3.9101    0.9529 H   0  0  0  0  0  0  0  0  0  0  0  0
   -2.5166   -0.1013   -2.0334 H   0  0  0  0  0  0  0  0  0  0  0  0
   -0.2153    0.5597   -1.5288 H   0  0  0  0  0  0  0  0  0  0  0  0
   -1.6173    2.0543    2.2709 H   0  0  0  0  0  0  0  0  0  0  0  0
   -9.5267   -0.8852    1.4688 H   0  0  0  0  0  0  0  0  0  0  0  0
   -9.4405    0.2769    0.1990 H   0  0  0  0  0  0  0  0  0  0  0  0
  1  8  1  0  0  0  0
  1 20  1  0  0  0  0
  2 21  2  0  0  0  0
  3 31  2  0  0  0  0
  4 11  1  0  0  0  0
  4 12  1  0  0  0  0
  4 13  1  0  0  0  0
  5 18  1  0  0  0  0
  5 19  1  0  0  0  0
  5 21  1  0  0  0  0
  6 20  2  0  0  0  0
  6 27  1  0  0  0  0
  7 25  1  0  0  0  0
  7 26  1  0  0  0  0
  7 29  1  0  0  0  0
  8 27  2  0  0  0  0
  9 29  2  0  0  0  0
  9 34  1  0  0  0  0
 10 31  1  0  0  0  0
 10 66  1  0  0  0  0
 10 67  1  0  0  0  0
 11 15  1  0  0  0  0
 11 16  1  0  0  0  0
 11 35  1  0  0  0  0
 12 14  1  0  0  0  0
 12 20  1  0  0  0  0
 12 36  1  0  0  0  0
 13 17  1  0  0  0  0
 13 37  1  0  0  0  0
 13 38  1  0  0  0  0
 14 17  1  0  0  0  0
 14 39  1  0  0  0  0
 14 40  1  0  0  0  0
 15 18  1  0  0  0  0
 15 41  1  0  0  0  0
 15 42  1  0  0  0  0
 16 19  1  0  0  0  0
 16 43  1  0  0  0  0
 16 44  1  0  0  0  0
 17 45  1  0  0  0  0
 17 46  1  0  0  0  0
 18 47  1  0  0  0  0
 18 48  1  0  0  0  0
 19 49  1  0  0  0  0
 19 50  1  0  0  0  0
 21 28  1  0  0  0  0
 22 23  1  0  0  0  0
 22 24  1  0  0  0  0
 22 31  1  0  0  0  0
 22 51  1  0  0  0  0
 23 25  1  0  0  0  0
 23 52  1  0  0  0  0
 23 53  1  0  0  0  0
 24 26  1  0  0  0  0
 24 54  1  0  0  0  0
 24 55  1  0  0  0  0
 25 56  1  0  0  0  0
 25 57  1  0  0  0  0
 26 58  1  0  0  0  0
 26 59  1  0  0  0  0
 27 30  1  0  0  0  0
 28 60  1  0  0  0  0
 28 61  1  0  0  0  0
 28 62  1  0  0  0  0
 29 32  1  0  0  0  0
 30 33  1  0  0  0  0
 30 34  2  0  0  0  0
 32 33  2  0  0  0  0
 32 63  1  0  0  0  0
 33 64  1  0  0  0  0
 34 65  1  0  0  0  0
M  END
> <PUBCHEM_COMPOUND_CID>
45783528

> <PUBCHEM_CONFORMER_RMSD>
1

> <PUBCHEM_CONFORMER_DIVERSEORDER>
1
150
41
131
67
42
133
113
125
90
119
123
100
121
34
118
53
111
58
102
115
64
151
97
62
137
155
95
130
106
98
22
50
141
16
146
13
158
116
55
149
88
145
5
101
159
110
134
56
92
112
85
32
129
10
79
78
63
71
47
148
126
48
28
122
105
65
84
11
135
83
59
73
94
96
27
156
127
99
40
52
61
69
75
15
82
124
6
144
8
147
117
51
68
60
36
89
74
30
39
86
93
153
20
140
107
128
24
120
19
57
114
38
31
103
157
7
9
43
33
139
142
132
45
3
29
12
87
76
143
81
77
37
91
154
18
23
46
70
2
25
35
104
4
44
80
14
108
109
136
66
54
152
72
26
21
49
138
17

> <PUBCHEM_MMFF94_PARTIAL_CHARGES>
33
1 -0.02
10 -0.8
11 0.27
12 0.45
13 0.27
18 0.3
19 0.3
2 -0.57
20 0.3
21 0.57
22 0.06
25 0.37
26 0.37
27 0.46
28 0.06
29 0.41
3 -0.57
30 0.05
31 0.57
32 -0.15
33 -0.15
34 0.16
4 -0.81
5 -0.66
6 -0.57
63 0.15
64 0.15
65 0.15
66 0.37
67 0.37
7 -0.84
8 -0.41
9 -0.62

> <PUBCHEM_EFFECTIVE_ROTOR_COUNT>
9.4

> <PUBCHEM_PHARMACOPHORE_FEATURES>
11
1 10 donor
1 2 acceptor
1 3 acceptor
1 4 cation
3 6 8 27 cation
3 7 9 29 cation
5 1 6 8 20 27 rings
5 4 12 13 14 17 rings
6 5 11 15 16 18 19 rings
6 7 22 23 24 25 26 rings
6 9 29 30 32 33 34 rings

> <PUBCHEM_HEAVY_ATOM_COUNT>
34

> <PUBCHEM_ATOM_DEF_STEREO_COUNT>
1

> <PUBCHEM_ATOM_UDEF_STEREO_COUNT>
0

> <PUBCHEM_BOND_DEF_STEREO_COUNT>
0

> <PUBCHEM_BOND_UDEF_STEREO_COUNT>
0

> <PUBCHEM_ISOTOPIC_ATOM_COUNT>
0

> <PUBCHEM_COMPONENT_COUNT>
1

> <PUBCHEM_CACTVS_TAUTO_COUNT>
2

> <PUBCHEM_CONFORMER_ID>
02BA99E800000001

> <PUBCHEM_MMFF94_ENERGY>
78.7935

> <PUBCHEM_FEATURE_SELFOVERLAP>
55.823

> <PUBCHEM_SHAPE_FINGERPRINT>
10622 236 18124872361627591722
11103572 155 18409452518727661171
11181472 205 18408890603750854741
11227150 75 16591943103144115930
11409948 35 18411133603434552111
117089 54 17912932682112472070
11801155 225 18200587137414752207
12047536 79 16056871412440117969
13533116 47 18341608235117526593
1361 2 18334575754772992258
1361 4 18336545019080547131
13692114 37 18268141141289429882
13782708 43 18412256234396262677
13989917 61 18410573980915584627
14347332 77 18339356375396397281
14675020 138 18198326537824188528
15160630 1 18187936024319117505
15183329 4 17846502565005441445
15352257 5 18333731347355253435
15467298 65 18342728659427325527
15475509 35 18201709652891373280
16067689 302 18336553806858402923
16628084 112 18339360769500706471
17134984 74 18408888464476397566
17324776 126 17391900462691339186
19319366 153 18341327903366832588
19841028 212 18266175042015375378
208703 8 18058168328660951318
21133410 171 16738305680212857570
21304303 94 18334574659746178034
21360442 67 18189055455161342266
21599406 157 18040985268163152839
21641784 216 15502644963099736397
21792934 111 13038916521418308545
23522609 53 18128002808714054665
255183 451 18126008157630364214
27425 322 16226615237850395072
3004659 81 18411697669377720292
34797466 226 17240761826169667157
3534868 343 18335431174867992820
397830 11 10735585951950960733
4073 2 18124310760204314881
4093350 32 17822853207314891940
439807 62 18412546509586804693
4435113 14 18114751524709233363
45270241 37 18261961846169188021
46194498 28 18040708148193544228
54039377 194 18272938181372068486
54076057 255 9943527479584846616
54728670 133 16256979566107496808
6058803 2 18126586526347755016
6441014 3 17474666153332881610
6636735 143 12967117325218235263
6697151 62 17702075038001868513
70251023 43 18335981957389404528
9831232 110 18261948540507716783

> <PUBCHEM_SHAPE_MULTIPOLES>
647.23
22.81
5.08
1.48
46.49
6.02
0.05
9.41
-5.38
-12.51
0.43
-0.67
-0.54
-1.59

> <PUBCHEM_SHAPE_SELFOVERLAP>
1384.981

> <PUBCHEM_SHAPE_VOLUME>
355

> <PUBCHEM_COORDINATE_TYPE>
2
5
10

$$$$
