38029418
  -OEChem-12032416243D

 63 64  0     1  0  0  0  0  0999 V2000
    0.6057   -3.2386    1.2735 O   0  0  0  0  0  0  0  0  0  0  0  0
   -1.7138    3.2746   -0.9600 O   0  0  0  0  0  0  0  0  0  0  0  0
   -1.6546    4.2079    1.5645 O   0  0  0  0  0  0  0  0  0  0  0  0
   -3.2611    1.6180   -0.4314 N   0  0  0  0  0  0  0  0  0  0  0  0
    0.7736   -1.2053    2.3861 N   0  0  0  0  0  0  0  0  0  0  0  0
    5.9467    1.5655   -2.3503 N   0  0  0  0  0  0  0  0  0  0  0  0
   -1.4661   -0.5947   -1.3934 C   0  0  1  0  0  0  0  0  0  0  0  0
   -2.9731   -0.4356   -1.7152 C   0  0  1  0  0  0  0  0  0  0  0  0
   -1.1594   -2.0368   -0.9615 C   0  0  0  0  0  0  0  0  0  0  0  0
   -1.9705   -2.4587    0.2781 C   0  0  2  0  0  0  0  0  0  0  0  0
   -0.5860   -0.2126   -2.5875 C   0  0  0  0  0  0  0  0  0  0  0  0
   -3.4339   -2.0886    0.1463 C   0  0  0  0  0  0  0  0  0  0  0  0
   -3.8649   -1.1925   -0.7592 C   0  0  0  0  0  0  0  0  0  0  0  0
   -3.3817    1.0418   -1.7338 C   0  0  0  0  0  0  0  0  0  0  0  0
   -1.3687   -1.8696    1.5587 C   0  0  0  0  0  0  0  0  0  0  0  0
    0.8030    0.2029   -2.1135 C   0  0  0  0  0  0  0  0  0  0  0  0
   -0.4964   -1.3718   -3.5749 C   0  0  0  0  0  0  0  0  0  0  0  0
   -4.3979   -2.8065    1.0494 C   0  0  0  0  0  0  0  0  0  0  0  0
    0.0979   -2.2073    1.7053 C   0  0  0  0  0  0  0  0  0  0  0  0
   -2.4287    2.6994   -0.1439 C   0  0  0  0  0  0  0  0  0  0  0  0
    2.1887   -1.2618    2.6724 C   0  0  0  0  0  0  0  0  0  0  0  0
   -2.4980    3.1040    1.3132 C   0  0  0  0  0  0  0  0  0  0  0  0
    3.0089   -0.6452    1.5763 C   0  0  0  0  0  0  0  0  0  0  0  0
    3.9608   -1.4104    0.9026 C   0  0  0  0  0  0  0  0  0  0  0  0
    2.8190    0.6931    1.2322 C   0  0  0  0  0  0  0  0  0  0  0  0
   -1.6999    4.6109    2.9302 C   0  0  0  0  0  0  0  0  0  0  0  0
    4.7229   -0.8374   -0.1157 C   0  0  0  0  0  0  0  0  0  0  0  0
    3.5813    1.2662    0.2141 C   0  0  0  0  0  0  0  0  0  0  0  0
    4.5331    0.5010   -0.4598 C   0  0  0  0  0  0  0  0  0  0  0  0
    5.3132    1.0884   -1.5030 C   0  0  0  0  0  0  0  0  0  0  0  0
   -1.2112    0.0641   -0.5541 H   0  0  0  0  0  0  0  0  0  0  0  0
   -3.1799   -0.8429   -2.7129 H   0  0  0  0  0  0  0  0  0  0  0  0
   -0.0869   -2.1853   -0.8172 H   0  0  0  0  0  0  0  0  0  0  0  0
   -1.4555   -2.7394   -1.7523 H   0  0  0  0  0  0  0  0  0  0  0  0
   -1.9002   -3.5541    0.3375 H   0  0  0  0  0  0  0  0  0  0  0  0
   -1.0096    0.6488   -3.1140 H   0  0  0  0  0  0  0  0  0  0  0  0
   -4.9330   -1.0006   -0.8413 H   0  0  0  0  0  0  0  0  0  0  0  0
   -4.4353    1.1385   -2.0227 H   0  0  0  0  0  0  0  0  0  0  0  0
   -2.8048    1.6170   -2.4628 H   0  0  0  0  0  0  0  0  0  0  0  0
   -1.8740   -2.2753    2.4437 H   0  0  0  0  0  0  0  0  0  0  0  0
   -1.5125   -0.7824    1.5824 H   0  0  0  0  0  0  0  0  0  0  0  0
    1.3275   -0.6092   -1.6011 H   0  0  0  0  0  0  0  0  0  0  0  0
    0.7417    1.0551   -1.4285 H   0  0  0  0  0  0  0  0  0  0  0  0
    1.4226    0.5092   -2.9636 H   0  0  0  0  0  0  0  0  0  0  0  0
    0.1290   -2.1961   -3.2163 H   0  0  0  0  0  0  0  0  0  0  0  0
   -0.0226   -1.0201   -4.4998 H   0  0  0  0  0  0  0  0  0  0  0  0
   -1.4782   -1.7609   -3.8604 H   0  0  0  0  0  0  0  0  0  0  0  0
   -4.3021   -3.8898    0.9230 H   0  0  0  0  0  0  0  0  0  0  0  0
   -5.4388   -2.5411    0.8358 H   0  0  0  0  0  0  0  0  0  0  0  0
   -4.2039   -2.5589    2.0972 H   0  0  0  0  0  0  0  0  0  0  0  0
   -3.8533    1.2549    0.3103 H   0  0  0  0  0  0  0  0  0  0  0  0
    0.2658   -0.3847    2.7034 H   0  0  0  0  0  0  0  0  0  0  0  0
    2.4727   -2.3070    2.8396 H   0  0  0  0  0  0  0  0  0  0  0  0
    2.3615   -0.7204    3.6093 H   0  0  0  0  0  0  0  0  0  0  0  0
   -3.5357    3.3641    1.5522 H   0  0  0  0  0  0  0  0  0  0  0  0
   -2.1864    2.2482    1.9235 H   0  0  0  0  0  0  0  0  0  0  0  0
    4.1190   -2.4546    1.1591 H   0  0  0  0  0  0  0  0  0  0  0  0
    2.0830    1.3019    1.7505 H   0  0  0  0  0  0  0  0  0  0  0  0
   -1.0292    5.4645    3.0588 H   0  0  0  0  0  0  0  0  0  0  0  0
   -1.3613    3.7977    3.5795 H   0  0  0  0  0  0  0  0  0  0  0  0
   -2.7140    4.9167    3.2048 H   0  0  0  0  0  0  0  0  0  0  0  0
    5.4605   -1.4469   -0.6322 H   0  0  0  0  0  0  0  0  0  0  0  0
    3.4212    2.3106   -0.0431 H   0  0  0  0  0  0  0  0  0  0  0  0
  1 19  2  0  0  0  0
  2 20  2  0  0  0  0
  3 22  1  0  0  0  0
  3 26  1  0  0  0  0
  4 14  1  0  0  0  0
  4 20  1  0  0  0  0
  4 51  1  0  0  0  0
  5 19  1  0  0  0  0
  5 21  1  0  0  0  0
  5 52  1  0  0  0  0
  6 30  3  0  0  0  0
  7  8  1  0  0  0  0
  7  9  1  0  0  0  0
  7 11  1  0  0  0  0
  7 31  1  0  0  0  0
  8 13  1  0  0  0  0
  8 14  1  0  0  0  0
  8 32  1  0  0  0  0
  9 10  1  0  0  0  0
  9 33  1  0  0  0  0
  9 34  1  0  0  0  0
 10 12  1  0  0  0  0
 10 15  1  0  0  0  0
 10 35  1  0  0  0  0
 11 16  1  0  0  0  0
 11 17  1  0  0  0  0
 11 36  1  0  0  0  0
 12 13  2  0  0  0  0
 12 18  1  0  0  0  0
 13 37  1  0  0  0  0
 14 38  1  0  0  0  0
 14 39  1  0  0  0  0
 15 19  1  0  0  0  0
 15 40  1  0  0  0  0
 15 41  1  0  0  0  0
 16 42  1  0  0  0  0
 16 43  1  0  0  0  0
 16 44  1  0  0  0  0
 17 45  1  0  0  0  0
 17 46  1  0  0  0  0
 17 47  1  0  0  0  0
 18 48  1  0  0  0  0
 18 49  1  0  0  0  0
 18 50  1  0  0  0  0
 20 22  1  0  0  0  0
 21 23  1  0  0  0  0
 21 53  1  0  0  0  0
 21 54  1  0  0  0  0
 22 55  1  0  0  0  0
 22 56  1  0  0  0  0
 23 24  2  0  0  0  0
 23 25  1  0  0  0  0
 24 27  1  0  0  0  0
 24 57  1  0  0  0  0
 25 28  2  0  0  0  0
 25 58  1  0  0  0  0
 26 59  1  0  0  0  0
 26 60  1  0  0  0  0
 26 61  1  0  0  0  0
 27 29  2  0  0  0  0
 27 62  1  0  0  0  0
 28 29  1  0  0  0  0
 28 63  1  0  0  0  0
 29 30  1  0  0  0  0
M  END
> <PUBCHEM_COMPOUND_CID>
38029418

> <PUBCHEM_CONFORMER_RMSD>
1

> <PUBCHEM_CONFORMER_DIVERSEORDER>
1
54
62
87
28
81
60
86
41
15
58
95
13
94
61
59
10
90
66
52
21
26
73
20
85
40
67
57
17
46
83
31
78
14
43
51
74
79
82
68
33
55
44
8
16
29
75
45
9
12
97
63
32
84
48
71
64
2
91
18
23
93
80
70
27
35
49
88
76
65
5
37
69
38
7
72
47
39
56
89
3
24
96
77
30
4
50
42
11
92
19
34
36
25
22
6
53

> <PUBCHEM_MMFF94_PARTIAL_CHARGES>
32
1 -0.57
10 0.14
12 -0.28
13 -0.29
14 0.3
15 0.06
18 0.14
19 0.57
2 -0.57
20 0.57
21 0.44
22 0.34
23 -0.14
24 -0.15
25 -0.15
26 0.28
27 -0.15
28 -0.15
29 0.07
3 -0.56
30 0.48
37 0.15
4 -0.73
5 -0.73
51 0.37
52 0.37
57 0.15
58 0.15
6 -0.56
62 0.15
63 0.15
8 0.14

> <PUBCHEM_EFFECTIVE_ROTOR_COUNT>
11.8

> <PUBCHEM_PHARMACOPHORE_FEATURES>
9
1 1 acceptor
1 2 acceptor
1 3 acceptor
1 4 donor
1 5 donor
1 6 acceptor
3 11 16 17 hydrophobe
6 23 24 25 27 28 29 rings
6 7 8 9 10 12 13 rings

> <PUBCHEM_HEAVY_ATOM_COUNT>
30

> <PUBCHEM_ATOM_DEF_STEREO_COUNT>
3

> <PUBCHEM_ATOM_UDEF_STEREO_COUNT>
0

> <PUBCHEM_BOND_DEF_STEREO_COUNT>
0

> <PUBCHEM_BOND_UDEF_STEREO_COUNT>
0

> <PUBCHEM_ISOTOPIC_ATOM_COUNT>
0

> <PUBCHEM_COMPONENT_COUNT>
1

> <PUBCHEM_CACTVS_TAUTO_COUNT>
4

> <PUBCHEM_CONFORMER_ID>
0244486A00000001

> <PUBCHEM_MMFF94_ENERGY>
56.9143

> <PUBCHEM_FEATURE_SELFOVERLAP>
45.679

> <PUBCHEM_SHAPE_FINGERPRINT>
10498660 4 16588566687291396726
10708813 3 17748819709271482190
11578080 2 17559139604770190227
12156800 1 17395916042110285065
12788726 201 18411141367658977648
14251757 17 16199568196441135744
14279260 333 18338231545690584210
14840074 17 15285639941168163454
15664445 248 16762196198866306311
16067690 210 18343867697470015460
21623110 236 17240475927086322399
21987440 362 16047287816153510336
3459 83 18046337540828815978
35225 105 18267843039434454901
469060 322 15575290907316209160
50150288 127 18267329597527136448
5895379 119 18269260280406215002

> <PUBCHEM_SHAPE_MULTIPOLES>
584.83
9.5
4.64
3.3
12.15
6.19
-0.78
0.49
-2.87
-5.42
3.82
0.61
0.13
-1.77

> <PUBCHEM_SHAPE_SELFOVERLAP>
1197.458

> <PUBCHEM_SHAPE_VOLUME>
334.1

> <PUBCHEM_COORDINATE_TYPE>
2
5
10

$$$$
