11882471
  -OEChem-12032416123D

 61 64  0     1  0  0  0  0  0999 V2000
   -4.7077    5.6713   -0.2452 S   0  0  0  0  0  0  0  0  0  0  0  0
    6.9010   -0.4057    0.6676 S   0  0  0  0  0  0  0  0  0  0  0  0
    0.9040    1.9717   -1.0063 O   0  0  0  0  0  0  0  0  0  0  0  0
   -0.7629    3.9419    1.1800 O   0  0  0  0  0  0  0  0  0  0  0  0
    0.0325   -3.2650   -0.6116 O   0  0  0  0  0  0  0  0  0  0  0  0
    2.5846   -1.6348   -0.8642 O   0  0  0  0  0  0  0  0  0  0  0  0
   -1.4387    2.0010    0.1006 N   0  0  0  0  0  0  0  0  0  0  0  0
   -1.9604   -2.2258   -0.1372 N   0  0  0  0  0  0  0  0  0  0  0  0
    1.8676    0.5822    0.5937 N   0  0  0  0  0  0  0  0  0  0  0  0
   -4.0526    3.2021    0.1505 N   0  0  0  0  0  0  0  0  0  0  0  0
    3.9864   -0.2921   -2.0926 N   0  0  0  0  0  0  0  0  0  0  0  0
   -3.0760   -4.5849    0.3888 N   0  0  0  0  0  0  0  0  0  0  0  0
   -1.6662   -6.9999    0.1728 N   0  0  0  0  0  0  0  0  0  0  0  0
   -1.4653   -0.8883   -0.3620 C   0  0  2  0  0  0  0  0  0  0  0  0
   -0.4511    1.1561    0.7838 C   0  0  1  0  0  0  0  0  0  0  0  0
   -0.8793   -0.3036    0.9255 C   0  0  0  0  0  0  0  0  0  0  0  0
   -2.5750    0.0191   -0.8871 C   0  0  0  0  0  0  0  0  0  0  0  0
   -2.0702    1.4406   -1.1069 C   0  0  0  0  0  0  0  0  0  0  0  0
    0.8324    1.2996    0.0191 C   0  0  0  0  0  0  0  0  0  0  0  0
   -1.6293    3.3260    0.5563 C   0  0  0  0  0  0  0  0  0  0  0  0
    3.2009    0.5361    0.0381 C   0  0  1  0  0  0  0  0  0  0  0  0
   -1.1518   -3.3522   -0.2824 C   0  0  0  0  0  0  0  0  0  0  0  0
   -2.9080    3.9638    0.2616 C   0  0  0  0  0  0  0  0  0  0  0  0
    4.2708    0.3007    1.1114 C   0  0  0  0  0  0  0  0  0  0  0  0
    3.2195   -0.5898   -0.9856 C   0  0  0  0  0  0  0  0  0  0  0  0
   -1.7915   -4.6419    0.0135 C   0  0  0  0  0  0  0  0  0  0  0  0
   -3.0608    5.3202    0.0801 C   0  0  0  0  0  0  0  0  0  0  0  0
    5.6444    0.7351    0.6575 C   0  0  0  0  0  0  0  0  0  0  0  0
   -5.0645    3.9978   -0.1157 C   0  0  0  0  0  0  0  0  0  0  0  0
   -1.0907   -5.8112   -0.0964 C   0  0  0  0  0  0  0  0  0  0  0  0
    6.0206    1.9671    0.2264 C   0  0  0  0  0  0  0  0  0  0  0  0
   -6.4592    3.5431   -0.3051 C   0  0  0  0  0  0  0  0  0  0  0  0
    7.4036    1.9889   -0.1153 C   0  0  0  0  0  0  0  0  0  0  0  0
    8.0034    0.7638    0.0772 C   0  0  0  0  0  0  0  0  0  0  0  0
   -3.6515   -5.7735    0.6577 C   0  0  0  0  0  0  0  0  0  0  0  0
   -2.9591   -6.9597    0.5518 C   0  0  0  0  0  0  0  0  0  0  0  0
   -0.6713   -0.9428   -1.1179 H   0  0  0  0  0  0  0  0  0  0  0  0
   -0.2720    1.5675    1.7859 H   0  0  0  0  0  0  0  0  0  0  0  0
   -0.0724   -0.9475    1.2911 H   0  0  0  0  0  0  0  0  0  0  0  0
   -1.6559   -0.3482    1.7030 H   0  0  0  0  0  0  0  0  0  0  0  0
   -2.9724   -0.3790   -1.8286 H   0  0  0  0  0  0  0  0  0  0  0  0
   -3.4119    0.0370   -0.1766 H   0  0  0  0  0  0  0  0  0  0  0  0
   -1.3100    1.4303   -1.8963 H   0  0  0  0  0  0  0  0  0  0  0  0
   -2.8653    2.0769   -1.4967 H   0  0  0  0  0  0  0  0  0  0  0  0
   -2.9158   -2.3413    0.1898 H   0  0  0  0  0  0  0  0  0  0  0  0
    1.7053    0.0667    1.4530 H   0  0  0  0  0  0  0  0  0  0  0  0
    3.3623    1.4907   -0.4769 H   0  0  0  0  0  0  0  0  0  0  0  0
    4.0247    0.8882    2.0068 H   0  0  0  0  0  0  0  0  0  0  0  0
    4.2653   -0.7504    1.4286 H   0  0  0  0  0  0  0  0  0  0  0  0
   -2.3156    6.1025    0.1183 H   0  0  0  0  0  0  0  0  0  0  0  0
   -0.0520   -5.8583   -0.3998 H   0  0  0  0  0  0  0  0  0  0  0  0
    5.3617    2.8228    0.1552 H   0  0  0  0  0  0  0  0  0  0  0  0
    4.4977    0.5795   -2.1860 H   0  0  0  0  0  0  0  0  0  0  0  0
    4.0723   -0.9525   -2.8582 H   0  0  0  0  0  0  0  0  0  0  0  0
   -7.1238    3.9926    0.4396 H   0  0  0  0  0  0  0  0  0  0  0  0
   -6.8251    3.8022   -1.3039 H   0  0  0  0  0  0  0  0  0  0  0  0
   -6.5259    2.4554   -0.1980 H   0  0  0  0  0  0  0  0  0  0  0  0
    7.9320    2.8590   -0.4825 H   0  0  0  0  0  0  0  0  0  0  0  0
    9.0364    0.4999   -0.1005 H   0  0  0  0  0  0  0  0  0  0  0  0
   -4.6902   -5.7420    0.9622 H   0  0  0  0  0  0  0  0  0  0  0  0
   -3.4223   -7.9143    0.7683 H   0  0  0  0  0  0  0  0  0  0  0  0
  1 27  1  0  0  0  0
  1 29  1  0  0  0  0
  2 28  1  0  0  0  0
  2 34  1  0  0  0  0
  3 19  2  0  0  0  0
  4 20  2  0  0  0  0
  5 22  2  0  0  0  0
  6 25  2  0  0  0  0
  7 15  1  0  0  0  0
  7 18  1  0  0  0  0
  7 20  1  0  0  0  0
  8 14  1  0  0  0  0
  8 22  1  0  0  0  0
  8 45  1  0  0  0  0
  9 19  1  0  0  0  0
  9 21  1  0  0  0  0
  9 46  1  0  0  0  0
 10 23  1  0  0  0  0
 10 29  2  0  0  0  0
 11 25  1  0  0  0  0
 11 53  1  0  0  0  0
 11 54  1  0  0  0  0
 12 26  2  0  0  0  0
 12 35  1  0  0  0  0
 13 30  2  0  0  0  0
 13 36  1  0  0  0  0
 14 16  1  0  0  0  0
 14 17  1  0  0  0  0
 14 37  1  0  0  0  0
 15 16  1  0  0  0  0
 15 19  1  0  0  0  0
 15 38  1  0  0  0  0
 16 39  1  0  0  0  0
 16 40  1  0  0  0  0
 17 18  1  0  0  0  0
 17 41  1  0  0  0  0
 17 42  1  0  0  0  0
 18 43  1  0  0  0  0
 18 44  1  0  0  0  0
 20 23  1  0  0  0  0
 21 24  1  0  0  0  0
 21 25  1  0  0  0  0
 21 47  1  0  0  0  0
 22 26  1  0  0  0  0
 23 27  2  0  0  0  0
 24 28  1  0  0  0  0
 24 48  1  0  0  0  0
 24 49  1  0  0  0  0
 26 30  1  0  0  0  0
 27 50  1  0  0  0  0
 28 31  2  0  0  0  0
 29 32  1  0  0  0  0
 30 51  1  0  0  0  0
 31 33  1  0  0  0  0
 31 52  1  0  0  0  0
 32 55  1  0  0  0  0
 32 56  1  0  0  0  0
 32 57  1  0  0  0  0
 33 34  2  0  0  0  0
 33 58  1  0  0  0  0
 34 59  1  0  0  0  0
 35 36  2  0  0  0  0
 35 60  1  0  0  0  0
 36 61  1  0  0  0  0
M  END
> <PUBCHEM_COMPOUND_CID>
11882471

> <PUBCHEM_CONFORMER_RMSD>
1.2

> <PUBCHEM_CONFORMER_DIVERSEORDER>
1
76
26
7
68
72
48
40
70
10
38
42
61
8
46
25
9
29
5
35
73
39
28
66
55
44
33
12
30
74
75
51
23
32
59
11
67
60
43
57
14
24
22
52
41
19
49
16
45
15
53
4
20
77
6
58
64
3
62
54
63
13
50
27
36
21
56
47
18
34
37
17
65
69
2
31
71

> <PUBCHEM_MMFF94_PARTIAL_CHARGES>
45
1 -0.08
10 -0.57
11 -0.8
12 -0.62
13 -0.62
14 0.3
15 0.36
18 0.3
19 0.57
2 -0.08
20 0.72
21 0.36
22 0.54
23 0.14
24 0.18
25 0.57
26 0.4
27 -0.11
28 -0.14
29 0.2
3 -0.57
30 0.16
31 -0.15
32 0.18
33 -0.15
34 -0.11
35 0.16
36 0.16
4 -0.57
45 0.37
46 0.37
5 -0.57
50 0.15
51 0.15
52 0.15
53 0.37
54 0.37
58 0.15
59 0.15
6 -0.57
60 0.15
61 0.15
7 -0.66
8 -0.73
9 -0.73

> <PUBCHEM_EFFECTIVE_ROTOR_COUNT>
12.2

> <PUBCHEM_PHARMACOPHORE_FEATURES>
14
1 10 acceptor
1 11 donor
1 12 acceptor
1 13 acceptor
1 3 acceptor
1 4 acceptor
1 5 acceptor
1 6 acceptor
1 8 donor
1 9 donor
5 1 10 23 27 29 rings
5 2 28 31 33 34 rings
6 12 13 26 30 35 36 rings
6 7 14 15 16 17 18 rings

> <PUBCHEM_HEAVY_ATOM_COUNT>
36

> <PUBCHEM_ATOM_DEF_STEREO_COUNT>
3

> <PUBCHEM_ATOM_UDEF_STEREO_COUNT>
0

> <PUBCHEM_BOND_DEF_STEREO_COUNT>
0

> <PUBCHEM_BOND_UDEF_STEREO_COUNT>
0

> <PUBCHEM_ISOTOPIC_ATOM_COUNT>
0

> <PUBCHEM_COMPONENT_COUNT>
1

> <PUBCHEM_CACTVS_TAUTO_COUNT>
8

> <PUBCHEM_CONFORMER_ID>
00B54FE700000001

> <PUBCHEM_MMFF94_ENERGY>
79.9237

> <PUBCHEM_FEATURE_SELFOVERLAP>
71.057

> <PUBCHEM_SHAPE_FINGERPRINT>
10319688 45 18266743673814318715
10411042 1 17906171007623358914
10675989 125 17695068803949175048
11093857 51 17612912233995058988
11136131 41 17975406924586373963
11297750 10 17613421664678255879
11763715 3 17831033672899657284
12107183 9 17980495773569639731
12166972 35 17390497847073991486
12440610 7 18342183224423409588
12758862 56 17830445442890772683
13248334 5 17473823927034432817
14068700 675 17972876145124445470
15064981 194 18334862770426898556
15347591 1 18410574033910283128
15400415 2 18266456499696327848
15439362 3 17688871934993122353
15664445 248 16899360407838696279
15927050 60 18126557926112226471
16090146 7 18198920127315085824
16114785 44 18341895178051828769
16664035 1 17761212515319693803
16992752 21 18049734211382427660
18393751 57 18266183829281365225
19319366 153 18053372211437300757
20505436 4 17968093063295558752
20721686 124 17976535010225089154
21639891 77 18046897453702262679
21796203 349 17397015790178118674
3534868 343 17395864618815737628
3627633 1 18194117649460348211
4144715 1 18341897399151385264
44280117 145 18337111293918761492
504843 32 18336822013767707453
563151 97 18267009567193362349
6058803 2 18114460154681142992
6376802 90 18413113844960389406
6695519 79 18053691108611859153
6697151 62 17546981475362363231
6700243 42 17838655406378810884
6703917 75 18340211786731774177
77188 2 17689715680816384673
9961470 85 18268427945878339438

> <PUBCHEM_SHAPE_MULTIPOLES>
690.22
15.09
11.82
1.03
28.78
24.66
0.2
-21.01
-0.48
-24.37
-1.81
0.56
-0.08
1.01

> <PUBCHEM_SHAPE_SELFOVERLAP>
1451.567

> <PUBCHEM_SHAPE_VOLUME>
388.8

> <PUBCHEM_COORDINATE_TYPE>
2
5
10

$$$$
