75367099
  -OEChem-12032416393D

 52 54  0     1  0  0  0  0  0999 V2000
    3.5113    1.9693   -0.0931 S   0  0  0  0  0  0  0  0  0  0  0  0
   -0.7349    0.8390   -1.3422 O   0  0  0  0  0  0  0  0  0  0  0  0
   -1.4319    0.5676    2.1715 O   0  0  0  0  0  0  0  0  0  0  0  0
    3.4521    2.4930    1.2583 O   0  0  0  0  0  0  0  0  0  0  0  0
    4.1678    2.7274   -1.1409 O   0  0  0  0  0  0  0  0  0  0  0  0
   -3.5202   -0.8373    0.2897 N   0  0  0  0  0  0  0  0  0  0  0  0
   -7.7561   -0.4968    0.0821 N   0  0  0  0  0  0  0  0  0  0  0  0
    1.9426    1.5582   -0.6073 N   0  0  0  0  0  0  0  0  0  0  0  0
   -2.5711    0.2348    0.0380 C   0  0  1  0  0  0  0  0  0  0  0  0
   -1.2884    0.1133    0.8397 C   0  0  1  0  0  0  0  0  0  0  0  0
   -4.8419   -0.4918   -0.2283 C   0  0  0  0  0  0  0  0  0  0  0  0
   -0.3532    1.0045    0.0336 C   0  0  1  0  0  0  0  0  0  0  0  0
   -2.0377    0.2309   -1.3852 C   0  0  0  0  0  0  0  0  0  0  0  0
   -5.6816   -1.7581   -0.4265 C   0  0  0  0  0  0  0  0  0  0  0  0
   -5.5645    0.4784    0.7133 C   0  0  0  0  0  0  0  0  0  0  0  0
    1.1126    0.6481    0.2061 C   0  0  0  0  0  0  0  0  0  0  0  0
   -7.1039   -1.4053   -0.8643 C   0  0  0  0  0  0  0  0  0  0  0  0
   -6.9913    0.7439    0.2309 C   0  0  0  0  0  0  0  0  0  0  0  0
    4.2977    0.3874   -0.0304 C   0  0  0  0  0  0  0  0  0  0  0  0
    4.9522   -0.1107   -1.1570 C   0  0  0  0  0  0  0  0  0  0  0  0
    4.2613   -0.3638    1.1444 C   0  0  0  0  0  0  0  0  0  0  0  0
    5.5704   -1.3601   -1.1087 C   0  0  0  0  0  0  0  0  0  0  0  0
    4.8794   -1.6133    1.1925 C   0  0  0  0  0  0  0  0  0  0  0  0
    5.5342   -2.1114    0.0660 C   0  0  0  0  0  0  0  0  0  0  0  0
    6.1952   -3.4473    0.1175 C   0  0  0  0  0  0  0  0  0  0  0  0
   -3.0034    1.2164    0.2668 H   0  0  0  0  0  0  0  0  0  0  0  0
   -0.9300   -0.9235    0.8564 H   0  0  0  0  0  0  0  0  0  0  0  0
   -4.7507   -0.0208   -1.2162 H   0  0  0  0  0  0  0  0  0  0  0  0
   -0.5030    2.0617    0.2901 H   0  0  0  0  0  0  0  0  0  0  0  0
   -3.5802   -1.0245    1.2901 H   0  0  0  0  0  0  0  0  0  0  0  0
   -2.6728    0.7899   -2.0789 H   0  0  0  0  0  0  0  0  0  0  0  0
   -1.9069   -0.7840   -1.7782 H   0  0  0  0  0  0  0  0  0  0  0  0
   -5.7242   -2.3349    0.5074 H   0  0  0  0  0  0  0  0  0  0  0  0
   -5.2180   -2.4062   -1.1803 H   0  0  0  0  0  0  0  0  0  0  0  0
   -5.0434    1.4389    0.7835 H   0  0  0  0  0  0  0  0  0  0  0  0
   -5.6023    0.0633    1.7297 H   0  0  0  0  0  0  0  0  0  0  0  0
    1.2986   -0.3735   -0.1434 H   0  0  0  0  0  0  0  0  0  0  0  0
    1.3845    0.7205    1.2634 H   0  0  0  0  0  0  0  0  0  0  0  0
   -7.0922   -0.9592   -1.8664 H   0  0  0  0  0  0  0  0  0  0  0  0
   -7.6948   -2.3253   -0.9320 H   0  0  0  0  0  0  0  0  0  0  0  0
   -7.5010    1.3845    0.9590 H   0  0  0  0  0  0  0  0  0  0  0  0
   -6.9743    1.2916   -0.7195 H   0  0  0  0  0  0  0  0  0  0  0  0
   -8.6927   -0.2760   -0.2549 H   0  0  0  0  0  0  0  0  0  0  0  0
   -1.7513    1.4856    2.1490 H   0  0  0  0  0  0  0  0  0  0  0  0
    1.7406    1.5653   -1.6149 H   0  0  0  0  0  0  0  0  0  0  0  0
    4.9865    0.4539   -2.0843 H   0  0  0  0  0  0  0  0  0  0  0  0
    3.7552    0.0035    2.0326 H   0  0  0  0  0  0  0  0  0  0  0  0
    6.0773   -1.7375   -1.9929 H   0  0  0  0  0  0  0  0  0  0  0  0
    4.8451   -2.1888    2.1138 H   0  0  0  0  0  0  0  0  0  0  0  0
    7.2351   -3.3396    0.4413 H   0  0  0  0  0  0  0  0  0  0  0  0
    5.6785   -4.1173    0.8130 H   0  0  0  0  0  0  0  0  0  0  0  0
    6.1817   -3.9330   -0.8642 H   0  0  0  0  0  0  0  0  0  0  0  0
  1  4  2  0  0  0  0
  1  5  2  0  0  0  0
  1  8  1  0  0  0  0
  1 19  1  0  0  0  0
  2 12  1  0  0  0  0
  2 13  1  0  0  0  0
  3 10  1  0  0  0  0
  3 44  1  0  0  0  0
  6  9  1  0  0  0  0
  6 11  1  0  0  0  0
  6 30  1  0  0  0  0
  7 17  1  0  0  0  0
  7 18  1  0  0  0  0
  7 43  1  0  0  0  0
  8 16  1  0  0  0  0
  8 45  1  0  0  0  0
  9 10  1  0  0  0  0
  9 13  1  0  0  0  0
  9 26  1  0  0  0  0
 10 12  1  0  0  0  0
 10 27  1  0  0  0  0
 11 14  1  0  0  0  0
 11 15  1  0  0  0  0
 11 28  1  0  0  0  0
 12 16  1  0  0  0  0
 12 29  1  0  0  0  0
 13 31  1  0  0  0  0
 13 32  1  0  0  0  0
 14 17  1  0  0  0  0
 14 33  1  0  0  0  0
 14 34  1  0  0  0  0
 15 18  1  0  0  0  0
 15 35  1  0  0  0  0
 15 36  1  0  0  0  0
 16 37  1  0  0  0  0
 16 38  1  0  0  0  0
 17 39  1  0  0  0  0
 17 40  1  0  0  0  0
 18 41  1  0  0  0  0
 18 42  1  0  0  0  0
 19 20  2  0  0  0  0
 19 21  1  0  0  0  0
 20 22  1  0  0  0  0
 20 46  1  0  0  0  0
 21 23  2  0  0  0  0
 21 47  1  0  0  0  0
 22 24  2  0  0  0  0
 22 48  1  0  0  0  0
 23 24  1  0  0  0  0
 23 49  1  0  0  0  0
 24 25  1  0  0  0  0
 25 50  1  0  0  0  0
 25 51  1  0  0  0  0
 25 52  1  0  0  0  0
M  END
> <PUBCHEM_COMPOUND_CID>
75367099

> <PUBCHEM_CONFORMER_RMSD>
0.8

> <PUBCHEM_CONFORMER_DIVERSEORDER>
1
39
112
27
238
288
263
202
262
194
176
247
253
117
191
186
227
185
172
285
126
65
164
277
212
19
254
178
236
269
135
248
17
119
237
251
287
122
235
244
219
177
278
38
246
201
252
101
37
195
214
73
243
242
107
21
289
259
78
93
211
225
163
92
184
275
260
182
5
264
200
61
90
32
196
284
229
223
192
80
149
198
159
283
69
144
213
281
240
181
15
180
104
266
154
82
210
257
268
26
111
187
116
286
7
151
218
47
249
258
179
245
145
44
30
33
160
74
274
208
142
115
255
204
256
273
168
84
72
9
158
81
205
167
114
99
63
161
53
230
16
123
23
118
169
292
199
121
134
279
71
261
220
291
271
228
265
239
282
14
270
124
100
64
133
188
108
29
157
2
25
131
87
170
150
50
136
272
217
46
226
143
173
233
125
94
113
129
12
4
70
42
232
155
215
171
98
58
102
66
103
241
280
89
97
85
234
110
60
203
174
31
68
216
77
106
152
105
156
221
43
79
41
40
3
51
11
141
20
45
54
95
146
76
91
127
24
48
18
250
190
267
137
83
52
166
62
162
6
165
276
175
206
128
109
13
88
293
153
34
183
147
207
290
189
96
10
138
120
222
209
57
231
148
132
130
197
75
35
140
36
56
28
224
55
86
139
49
67
22
59
193
8

> <PUBCHEM_MMFF94_PARTIAL_CHARGES>
31
1 1.45
10 0.28
11 0.27
12 0.28
13 0.28
16 0.36
17 0.27
18 0.27
19 -0.01
2 -0.56
20 -0.15
21 -0.15
22 -0.15
23 -0.15
24 -0.14
25 0.14
3 -0.68
30 0.36
4 -0.65
43 0.36
44 0.4
45 0.42
46 0.15
47 0.15
48 0.15
49 0.15
5 -0.65
6 -0.9
7 -0.9
8 -0.91
9 0.27

> <PUBCHEM_EFFECTIVE_ROTOR_COUNT>
8.2

> <PUBCHEM_PHARMACOPHORE_FEATURES>
13
1 2 acceptor
1 3 acceptor
1 3 donor
1 4 acceptor
1 5 acceptor
1 6 cation
1 6 donor
1 7 cation
1 7 donor
1 8 donor
5 2 9 10 12 13 rings
6 19 20 21 22 23 24 rings
6 7 11 14 15 17 18 rings

> <PUBCHEM_HEAVY_ATOM_COUNT>
25

> <PUBCHEM_ATOM_DEF_STEREO_COUNT>
3

> <PUBCHEM_ATOM_UDEF_STEREO_COUNT>
0

> <PUBCHEM_BOND_DEF_STEREO_COUNT>
0

> <PUBCHEM_BOND_UDEF_STEREO_COUNT>
0

> <PUBCHEM_ISOTOPIC_ATOM_COUNT>
0

> <PUBCHEM_COMPONENT_COUNT>
1

> <PUBCHEM_CACTVS_TAUTO_COUNT>
1

> <PUBCHEM_CONFORMER_ID>
047E02BB00000001

> <PUBCHEM_MMFF94_ENERGY>
27.9774

> <PUBCHEM_FEATURE_SELFOVERLAP>
65.99

> <PUBCHEM_SHAPE_FINGERPRINT>
10 15 15697993059059434291
10670039 82 14779540137386357710
10906281 52 13046215023690023053
11719270 70 17561368374705400127
12236239 1 18272371997044372569
125118 31 9871483014803389079
12616971 3 17774994704604731181
13533116 47 18412262861098270592
1361 4 18267020746803595679
13617811 41 15502091955763099775
13685833 64 18409445865416527034
13782708 43 18412541046515121871
13914758 101 18341615880919027337
14251764 75 10447055370502133474
14347332 77 18260824852403582037
14347424 109 18201997737696424464
15183329 4 18334295370812842411
15188451 53 17846496994047600386
15419008 42 17700415776355553589
15475509 8 17240766147091149597
15685185 35 9294127264277585058
16994733 274 9079121051236834943
1979834 28 16773800256150495422
20028762 73 18273214175475384062
20567600 234 12391507602987829091
20645477 70 18260828211764151300
21130935 74 18340486768239542635
21150785 3 12757156775032154243
21344244 181 18040718086616486107
21344244 78 17346593059302005592
21521721 280 9511464446526711581
21641784 216 14923932428088279999
21792934 111 15195295183884652131
22061861 79 18187359943774965615
221357 26 17967251966906850148
2215653 11 17676209073753801971
2303208 19 17894344488903475557
23081809 10 18272092734039285301
23522609 53 18121813627237479261
23536379 177 18412263965337434121
23559900 14 16950575410262727924
23569943 247 18115021879962672659
255183 451 18336552617104021580
29717793 49 18409731776456280860
3004659 81 18342742931233240972
3014965 18 18409448089813928077
3472631 163 10953755386882249866
34797466 226 16298391287753890022
3886686 26 16408751219802140694
394071 54 16951131810238874284
397830 11 11239708734555785365
4072396 5 16845576421986873413
4073 2 18117842324454797730
4340502 62 13183021813008955460
46194498 28 17385446536068158660
465052 167 18342177752598215678
5085150 59 17060336353841041479
531348 171 18413105053410143823
5372103 7 14997434875754508814
54039377 194 18265054631746896790
59682541 52 18187081767079917503
59755656 215 17240759562874499603
7970288 3 18267303132698553350
960060 61 17749116591029022046
9965369 4 18343304756517199497

> <PUBCHEM_SHAPE_MULTIPOLES>
479.92
21.18
2.58
1.31
23.27
0.53
0.16
12.2
-1.25
-5.43
-0.1
-0.6
-0.2
-1.08

> <PUBCHEM_SHAPE_SELFOVERLAP>
980.65

> <PUBCHEM_SHAPE_VOLUME>
278.5

> <PUBCHEM_COORDINATE_TYPE>
2
5
10

$$$$
