11887584
  -OEChem-12032416173D

 69 71  0     1  0  0  0  0  0999 V2000
    2.2712    0.0509   -1.6714 O   0  0  0  0  0  0  0  0  0  0  0  0
    4.6982    0.5636    1.1360 O   0  0  0  0  0  0  0  0  0  0  0  0
   -0.3239   -4.2150   -1.2323 O   0  0  0  0  0  0  0  0  0  0  0  0
    6.9606   -0.5596    0.9290 O   0  0  0  0  0  0  0  0  0  0  0  0
    0.7443    4.9162   -1.4048 O   0  0  0  0  0  0  0  0  0  0  0  0
    1.2242    4.1154    0.6968 O   0  0  0  0  0  0  0  0  0  0  0  0
   -4.8261    2.3737    1.8841 O   0  0  0  0  0  0  0  0  0  0  0  0
    3.4355   -1.2452    0.3971 N   0  0  0  0  0  0  0  0  0  0  0  0
    0.8897   -2.5938   -0.1136 N   0  0  0  0  0  0  0  0  0  0  0  0
    1.2431    1.5019   -0.1692 N   0  0  0  0  0  0  0  0  0  0  0  0
   -1.3814   -2.9484    0.4100 N   0  0  0  0  0  0  0  0  0  0  0  0
    2.1669   -0.5581    0.6373 C   0  0  2  0  0  0  0  0  0  0  0  0
    0.9903   -1.5057    0.8708 C   0  0  0  0  0  0  0  0  0  0  0  0
    3.3674   -2.6306   -0.0808 C   0  0  0  0  0  0  0  0  0  0  0  0
    2.0984   -2.9182   -0.8697 C   0  0  0  0  0  0  0  0  0  0  0  0
    1.9044    0.3424   -0.5361 C   0  0  0  0  0  0  0  0  0  0  0  0
    4.6306   -0.6004    0.7335 C   0  0  0  0  0  0  0  0  0  0  0  0
   -0.2939   -3.3223   -0.3822 C   0  0  0  0  0  0  0  0  0  0  0  0
    0.8930    2.5431   -1.1081 C   0  0  1  0  0  0  0  0  0  0  0  0
    5.8956   -1.4071    0.5730 C   0  0  0  0  0  0  0  0  0  0  0  0
   -0.4800    2.2823   -1.7450 C   0  0  0  0  0  0  0  0  0  0  0  0
    0.9816    3.9330   -0.4919 C   0  0  0  0  0  0  0  0  0  0  0  0
   -1.6406    2.3061   -0.7761 C   0  0  0  0  0  0  0  0  0  0  0  0
   -2.7561   -2.9978    0.0703 C   0  0  0  0  0  0  0  0  0  0  0  0
   -2.3115    3.5023   -0.5216 C   0  0  0  0  0  0  0  0  0  0  0  0
   -2.0403    1.1327   -0.1365 C   0  0  0  0  0  0  0  0  0  0  0  0
   -3.7177   -2.5815    0.9909 C   0  0  0  0  0  0  0  0  0  0  0  0
   -3.1477   -3.4619   -1.1854 C   0  0  0  0  0  0  0  0  0  0  0  0
    8.2247   -1.2114    0.8183 C   0  0  0  0  0  0  0  0  0  0  0  0
   -3.3821    3.5251    0.3721 C   0  0  0  0  0  0  0  0  0  0  0  0
   -3.1108    1.1554    0.7572 C   0  0  0  0  0  0  0  0  0  0  0  0
   -3.7817    2.3516    1.0115 C   0  0  0  0  0  0  0  0  0  0  0  0
    0.7898    6.2552   -0.9019 C   0  0  0  0  0  0  0  0  0  0  0  0
   -5.0710   -2.6294    0.6559 C   0  0  0  0  0  0  0  0  0  0  0  0
   -4.5009   -3.5095   -1.5206 C   0  0  0  0  0  0  0  0  0  0  0  0
   -5.4625   -3.0933   -0.5998 C   0  0  0  0  0  0  0  0  0  0  0  0
   -5.1813    1.1381    2.5030 C   0  0  0  0  0  0  0  0  0  0  0  0
    2.2902    0.0660    1.5321 H   0  0  0  0  0  0  0  0  0  0  0  0
    0.0531   -0.9443    0.9019 H   0  0  0  0  0  0  0  0  0  0  0  0
    1.1086   -1.9977    1.8444 H   0  0  0  0  0  0  0  0  0  0  0  0
    4.2362   -2.8647   -0.7004 H   0  0  0  0  0  0  0  0  0  0  0  0
    3.4140   -3.2699    0.8091 H   0  0  0  0  0  0  0  0  0  0  0  0
    2.0812   -3.9780   -1.1481 H   0  0  0  0  0  0  0  0  0  0  0  0
    2.0662   -2.3530   -1.8057 H   0  0  0  0  0  0  0  0  0  0  0  0
    0.9671    1.6308    0.8001 H   0  0  0  0  0  0  0  0  0  0  0  0
    1.6494    2.5200   -1.9037 H   0  0  0  0  0  0  0  0  0  0  0  0
    5.8609   -2.2801    1.2326 H   0  0  0  0  0  0  0  0  0  0  0  0
    6.0103   -1.7085   -0.4723 H   0  0  0  0  0  0  0  0  0  0  0  0
   -0.4697    1.3093   -2.2550 H   0  0  0  0  0  0  0  0  0  0  0  0
   -0.6714    3.0174   -2.5381 H   0  0  0  0  0  0  0  0  0  0  0  0
   -1.1833   -2.5456    1.3213 H   0  0  0  0  0  0  0  0  0  0  0  0
   -2.0176    4.4233   -1.0170 H   0  0  0  0  0  0  0  0  0  0  0  0
   -1.5344    0.1937   -0.3384 H   0  0  0  0  0  0  0  0  0  0  0  0
   -3.4264   -2.2215    1.9743 H   0  0  0  0  0  0  0  0  0  0  0  0
   -2.4460   -3.7743   -1.9492 H   0  0  0  0  0  0  0  0  0  0  0  0
    9.0032   -0.5015    1.1098 H   0  0  0  0  0  0  0  0  0  0  0  0
    8.4027   -1.5243   -0.2149 H   0  0  0  0  0  0  0  0  0  0  0  0
    8.2674   -2.0755    1.4883 H   0  0  0  0  0  0  0  0  0  0  0  0
   -3.9018    4.4596    0.5651 H   0  0  0  0  0  0  0  0  0  0  0  0
   -3.3666    0.2144    1.2256 H   0  0  0  0  0  0  0  0  0  0  0  0
    0.5801    6.9367   -1.7306 H   0  0  0  0  0  0  0  0  0  0  0  0
    1.7857    6.4779   -0.5072 H   0  0  0  0  0  0  0  0  0  0  0  0
    0.0269    6.3960   -0.1303 H   0  0  0  0  0  0  0  0  0  0  0  0
   -5.8197   -2.3059    1.3731 H   0  0  0  0  0  0  0  0  0  0  0  0
   -4.8064   -3.8651   -2.5004 H   0  0  0  0  0  0  0  0  0  0  0  0
   -6.5160   -3.1291   -0.8613 H   0  0  0  0  0  0  0  0  0  0  0  0
   -5.5247    0.4053    1.7656 H   0  0  0  0  0  0  0  0  0  0  0  0
   -4.3691    0.7509    3.1274 H   0  0  0  0  0  0  0  0  0  0  0  0
   -6.0266    1.3413    3.1687 H   0  0  0  0  0  0  0  0  0  0  0  0
  1 16  2  0  0  0  0
  2 17  2  0  0  0  0
  3 18  2  0  0  0  0
  4 20  1  0  0  0  0
  4 29  1  0  0  0  0
  5 22  1  0  0  0  0
  5 33  1  0  0  0  0
  6 22  2  0  0  0  0
  7 32  1  0  0  0  0
  7 37  1  0  0  0  0
  8 12  1  0  0  0  0
  8 14  1  0  0  0  0
  8 17  1  0  0  0  0
  9 13  1  0  0  0  0
  9 15  1  0  0  0  0
  9 18  1  0  0  0  0
 10 16  1  0  0  0  0
 10 19  1  0  0  0  0
 10 45  1  0  0  0  0
 11 18  1  0  0  0  0
 11 24  1  0  0  0  0
 11 51  1  0  0  0  0
 12 13  1  0  0  0  0
 12 16  1  0  0  0  0
 12 38  1  0  0  0  0
 13 39  1  0  0  0  0
 13 40  1  0  0  0  0
 14 15  1  0  0  0  0
 14 41  1  0  0  0  0
 14 42  1  0  0  0  0
 15 43  1  0  0  0  0
 15 44  1  0  0  0  0
 17 20  1  0  0  0  0
 19 21  1  0  0  0  0
 19 22  1  0  0  0  0
 19 46  1  0  0  0  0
 20 47  1  0  0  0  0
 20 48  1  0  0  0  0
 21 23  1  0  0  0  0
 21 49  1  0  0  0  0
 21 50  1  0  0  0  0
 23 25  2  0  0  0  0
 23 26  1  0  0  0  0
 24 27  2  0  0  0  0
 24 28  1  0  0  0  0
 25 30  1  0  0  0  0
 25 52  1  0  0  0  0
 26 31  2  0  0  0  0
 26 53  1  0  0  0  0
 27 34  1  0  0  0  0
 27 54  1  0  0  0  0
 28 35  2  0  0  0  0
 28 55  1  0  0  0  0
 29 56  1  0  0  0  0
 29 57  1  0  0  0  0
 29 58  1  0  0  0  0
 30 32  2  0  0  0  0
 30 59  1  0  0  0  0
 31 32  1  0  0  0  0
 31 60  1  0  0  0  0
 33 61  1  0  0  0  0
 33 62  1  0  0  0  0
 33 63  1  0  0  0  0
 34 36  2  0  0  0  0
 34 64  1  0  0  0  0
 35 36  1  0  0  0  0
 35 65  1  0  0  0  0
 36 66  1  0  0  0  0
 37 67  1  0  0  0  0
 37 68  1  0  0  0  0
 37 69  1  0  0  0  0
M  END
> <PUBCHEM_COMPOUND_CID>
11887584

> <PUBCHEM_CONFORMER_RMSD>
1.2

> <PUBCHEM_CONFORMER_DIVERSEORDER>
1
2
68
61
83
63
17
48
29
51
74
84
80
73
25
93
85
100
43
18
37
55
7
22
105
94
101
3
5
36
59
86
11
15
103
81
66
38
72
57
90
50
98
108
21
6
20
16
40
109
4
12
62
28
87
106
58
88
30
33
70
47
75
8
77
23
104
89
76
56
45
71
35
52
92
95
34
78
32
102
44
24
14
42
49
107
64
13
53
9
31
91
99
79
54
19
46
67
96
69
39
60
27
26
82
97
41
10
65

> <PUBCHEM_MMFF94_PARTIAL_CHARGES>
48
1 -0.57
10 -0.73
11 -0.55
12 0.36
13 0.3
14 0.3
15 0.3
16 0.57
17 0.57
18 0.69
19 0.36
2 -0.57
20 0.34
21 0.14
22 0.66
23 -0.14
24 0.12
25 -0.15
26 -0.15
27 -0.15
28 -0.15
29 0.28
3 -0.57
30 -0.15
31 -0.15
32 0.08
33 0.28
34 -0.15
35 -0.15
36 -0.15
37 0.28
4 -0.56
45 0.37
5 -0.43
51 0.37
52 0.15
53 0.15
54 0.15
55 0.15
59 0.15
6 -0.57
60 0.15
64 0.15
65 0.15
66 0.15
7 -0.36
8 -0.66
9 -0.66

> <PUBCHEM_EFFECTIVE_ROTOR_COUNT>
15.2

> <PUBCHEM_PHARMACOPHORE_FEATURES>
11
1 1 acceptor
1 10 donor
1 11 donor
1 2 acceptor
1 3 acceptor
1 4 acceptor
1 6 acceptor
1 7 acceptor
6 23 25 26 30 31 32 rings
6 24 27 28 34 35 36 rings
6 8 9 12 13 14 15 rings

> <PUBCHEM_HEAVY_ATOM_COUNT>
37

> <PUBCHEM_ATOM_DEF_STEREO_COUNT>
2

> <PUBCHEM_ATOM_UDEF_STEREO_COUNT>
0

> <PUBCHEM_BOND_DEF_STEREO_COUNT>
0

> <PUBCHEM_BOND_UDEF_STEREO_COUNT>
0

> <PUBCHEM_ISOTOPIC_ATOM_COUNT>
0

> <PUBCHEM_COMPONENT_COUNT>
1

> <PUBCHEM_CACTVS_TAUTO_COUNT>
4

> <PUBCHEM_CONFORMER_ID>
00B563E000000001

> <PUBCHEM_MMFF94_ENERGY>
111.2375

> <PUBCHEM_FEATURE_SELFOVERLAP>
55.842

> <PUBCHEM_SHAPE_FINGERPRINT>
10290309 65 17688868640473345740
10815517 723 18412262856529366731
12677640 9 18272086081151327169
13140716 1 18265893549515955762
13383665 225 18334870446361034014
13383668 254 15912459404667459962
13590594 115 18336541733050614730
1361 2 17905883687945114829
140371 6 18337110193062474471
14068700 675 18270391827599316039
14117953 113 18410570674496797887
15264996 74 18201424862875292359
15276724 80 18340480197224364446
15351339 4 16969700573013971093
17627616 140 17544474614409093927
21796203 349 17900299443468567385
3380486 145 18264785289228890552
653340 110 18342451547683011299

> <PUBCHEM_SHAPE_MULTIPOLES>
700.43
12.85
8.12
1.55
16.73
7.83
0.2
-9.81
6.56
-5.42
-3.15
-1.32
0.44
-2.68

> <PUBCHEM_SHAPE_SELFOVERLAP>
1465.622

> <PUBCHEM_SHAPE_VOLUME>
391.5

> <PUBCHEM_COORDINATE_TYPE>
2
5
10

$$$$
