75537026
  -OEChem-12032416333D

 39 41  0     1  0  0  0  0  0999 V2000
   -3.3232    1.6576    0.9242 O   0  0  0  0  0  0  0  0  0  0  0  0
   -4.7392   -0.4159   -1.0654 O   0  0  0  0  0  0  0  0  0  0  0  0
    3.5079    2.1300   -0.4635 O   0  0  0  0  0  0  0  0  0  0  0  0
    3.4304   -0.9208    0.8337 O   0  0  0  0  0  0  0  0  0  0  0  0
   -1.0811    1.0101    0.6527 N   0  0  0  0  0  0  0  0  0  0  0  0
   -2.6348   -0.5973    0.8794 N   0  0  0  0  0  0  0  0  0  0  0  0
    1.4693    0.9877   -0.4512 N   0  0  0  0  0  0  0  0  0  0  0  0
    4.2551   -2.0377    0.7759 N   0  0  0  0  0  0  0  0  0  0  0  0
   -0.3227   -0.2285    0.7006 C   0  0  1  0  0  0  0  0  0  0  0  0
   -1.3945   -1.3135    0.6379 C   0  0  0  0  0  0  0  0  0  0  0  0
    0.6940   -0.2681   -0.4356 C   0  0  0  0  0  0  0  0  0  0  0  0
   -0.3850    2.2800    0.5373 C   0  0  0  0  0  0  0  0  0  0  0  0
    0.6576    2.2062   -0.5769 C   0  0  0  0  0  0  0  0  0  0  0  0
   -2.4550    0.7995    0.8340 C   0  0  0  0  0  0  0  0  0  0  0  0
   -3.9015   -1.2825    1.0095 C   0  0  0  0  0  0  0  0  0  0  0  0
    2.8610    1.0853   -0.4064 C   0  0  0  0  0  0  0  0  0  0  0  0
   -4.4960   -1.6178   -0.3461 C   0  0  0  0  0  0  0  0  0  0  0  0
    3.6370   -0.1537   -0.2672 C   0  0  0  0  0  0  0  0  0  0  0  0
    4.5870   -0.7366   -1.0636 C   0  0  0  0  0  0  0  0  0  0  0  0
   -5.3027   -0.6781   -2.3433 C   0  0  0  0  0  0  0  0  0  0  0  0
    4.9363   -1.9057   -0.3658 C   0  0  0  0  0  0  0  0  0  0  0  0
    0.1883   -0.2492    1.6716 H   0  0  0  0  0  0  0  0  0  0  0  0
   -1.4538   -1.7912   -0.3452 H   0  0  0  0  0  0  0  0  0  0  0  0
   -1.2479   -2.0777    1.4070 H   0  0  0  0  0  0  0  0  0  0  0  0
    1.3251   -1.1544   -0.3581 H   0  0  0  0  0  0  0  0  0  0  0  0
    0.1873   -0.3247   -1.4076 H   0  0  0  0  0  0  0  0  0  0  0  0
    0.1013    2.4643    1.5020 H   0  0  0  0  0  0  0  0  0  0  0  0
   -1.1051    3.0841    0.3582 H   0  0  0  0  0  0  0  0  0  0  0  0
    0.1650    2.1601   -1.5556 H   0  0  0  0  0  0  0  0  0  0  0  0
    1.2864    3.1017   -0.5634 H   0  0  0  0  0  0  0  0  0  0  0  0
   -4.5840   -0.6139    1.5463 H   0  0  0  0  0  0  0  0  0  0  0  0
   -3.7526   -2.1848    1.6108 H   0  0  0  0  0  0  0  0  0  0  0  0
   -5.4409   -2.1550   -0.2047 H   0  0  0  0  0  0  0  0  0  0  0  0
   -3.8130   -2.2558   -0.9187 H   0  0  0  0  0  0  0  0  0  0  0  0
    4.9700   -0.3735   -2.0056 H   0  0  0  0  0  0  0  0  0  0  0  0
   -5.4693    0.2772   -2.8483 H   0  0  0  0  0  0  0  0  0  0  0  0
   -6.2638   -1.1913   -2.2411 H   0  0  0  0  0  0  0  0  0  0  0  0
   -4.6168   -1.2780   -2.9491 H   0  0  0  0  0  0  0  0  0  0  0  0
    5.6546   -2.6652   -0.6373 H   0  0  0  0  0  0  0  0  0  0  0  0
  1 14  2  0  0  0  0
  2 17  1  0  0  0  0
  2 20  1  0  0  0  0
  3 16  2  0  0  0  0
  4  8  1  0  0  0  0
  4 18  1  0  0  0  0
  5  9  1  0  0  0  0
  5 12  1  0  0  0  0
  5 14  1  0  0  0  0
  6 10  1  0  0  0  0
  6 14  1  0  0  0  0
  6 15  1  0  0  0  0
  7 11  1  0  0  0  0
  7 13  1  0  0  0  0
  7 16  1  0  0  0  0
  8 21  2  0  0  0  0
  9 10  1  0  0  0  0
  9 11  1  0  0  0  0
  9 22  1  0  0  0  0
 10 23  1  0  0  0  0
 10 24  1  0  0  0  0
 11 25  1  0  0  0  0
 11 26  1  0  0  0  0
 12 13  1  0  0  0  0
 12 27  1  0  0  0  0
 12 28  1  0  0  0  0
 13 29  1  0  0  0  0
 13 30  1  0  0  0  0
 15 17  1  0  0  0  0
 15 31  1  0  0  0  0
 15 32  1  0  0  0  0
 16 18  1  0  0  0  0
 17 33  1  0  0  0  0
 17 34  1  0  0  0  0
 18 19  2  0  0  0  0
 19 21  1  0  0  0  0
 19 35  1  0  0  0  0
 20 36  1  0  0  0  0
 20 37  1  0  0  0  0
 20 38  1  0  0  0  0
 21 39  1  0  0  0  0
M  END
> <PUBCHEM_COMPOUND_CID>
75537026

> <PUBCHEM_CONFORMER_RMSD>
0.8

> <PUBCHEM_CONFORMER_DIVERSEORDER>
1
54
51
100
92
31
62
17
19
98
104
73
97
58
79
95
9
65
42
16
80
93
91
71
25
26
72
53
6
99
83
49
20
18
41
36
40
15
94
3
85
90
37
74
105
63
39
66
56
55
81
96
43
87
23
45
78
24
103
38
34
75
76
61
46
47
44
32
13
77
101
27
30
64
52
60
33
82
8
50
21
59
11
84
35
67
28
7
48
70
68
69
5
86
4
102
89
14
22
88
10
29
57
2
12

> <PUBCHEM_MMFF94_PARTIAL_CHARGES>
23
1 -0.57
10 0.3
11 0.3
12 0.3
13 0.3
14 0.69
15 0.3
16 0.71
17 0.28
18 0.05
19 -0.15
2 -0.56
20 0.28
21 0.14
3 -0.57
35 0.15
39 0.15
4 -0.02
5 -0.66
6 -0.66
7 -0.66
8 -0.41
9 0.3

> <PUBCHEM_EFFECTIVE_ROTOR_COUNT>
6.2

> <PUBCHEM_PHARMACOPHORE_FEATURES>
7
1 1 acceptor
1 2 acceptor
1 3 acceptor
1 8 acceptor
5 4 8 18 19 21 rings
5 5 6 9 10 14 rings
6 5 7 9 11 12 13 rings

> <PUBCHEM_HEAVY_ATOM_COUNT>
21

> <PUBCHEM_ATOM_DEF_STEREO_COUNT>
1

> <PUBCHEM_ATOM_UDEF_STEREO_COUNT>
0

> <PUBCHEM_BOND_DEF_STEREO_COUNT>
0

> <PUBCHEM_BOND_UDEF_STEREO_COUNT>
0

> <PUBCHEM_ISOTOPIC_ATOM_COUNT>
0

> <PUBCHEM_COMPONENT_COUNT>
1

> <PUBCHEM_CACTVS_TAUTO_COUNT>
1

> <PUBCHEM_CONFORMER_ID>
04809A8200000001

> <PUBCHEM_MMFF94_ENERGY>
43.6895

> <PUBCHEM_FEATURE_SELFOVERLAP>
35.621

> <PUBCHEM_SHAPE_FINGERPRINT>
10062212 137 18342465824412363385
10447042 23 18343298210237908972
10753850 27 17131258186864091991
11045977 3 12895085036784755887
12553582 1 18114472162908257202
12555020 224 18334012783218621115
12839892 36 17561082471090087886
13134695 92 18270400619666578157
13167823 11 18411990164802565274
13533116 47 18340491165679158435
14573314 32 17458340862064157639
14848178 5 17489298724631007575
15183329 4 18187355507495618591
15188451 53 17489013886278191934
15196674 1 18409740551375192584
15239154 128 8718830872742628555
15420108 30 17475518270348474481
15848700 24 18409167705969939636
16752209 62 18041553633743078352
17349148 13 18201727257788343279
17834072 8 17967248693799067759
18186145 218 17386012792281279568
18222031 100 18273211997836449438
200 152 18343582954054029111
20621476 91 14764049195503862799
20645477 70 18335990860508150446
21267235 1 18336847336900321954
22393880 68 17749097929132831587
23402539 116 18342461409133176833
23559900 14 18335140950957503288
2871803 45 18113903754141183498
3009799 131 18336250302286568157
3286 77 17561359582606404680
32948 21 17022613165535732686
458136 41 8214157260450008785
46194498 28 17024878297428740183
49207404 50 11959737100384229444
5104073 3 18341625818629254256
59682541 52 18042099039230434375
6034566 193 10734721752622288338
76465 3 17917708024213937077
8988823 20 17703214226315173512
960060 61 17821734940023311190
9709674 26 18262532488724754730

> <PUBCHEM_SHAPE_MULTIPOLES>
388.77
11.28
2.35
1.33
1.15
0.77
0.56
-6.85
3.9
-1.15
-0.16
1.72
-0.27
-0.91

> <PUBCHEM_SHAPE_SELFOVERLAP>
814.417

> <PUBCHEM_SHAPE_VOLUME>
220.8

> <PUBCHEM_COORDINATE_TYPE>
2
5
10

$$$$
