38030450
  -OEChem-12032416263D

 67 70  0     1  0  0  0  0  0999 V2000
   -3.2542   -0.2194   -0.7195 O   0  0  0  0  0  0  0  0  0  0  0  0
    4.9958    4.1523    0.5208 O   0  0  0  0  0  0  0  0  0  0  0  0
    3.0738   -0.0855   -0.7216 N   0  0  0  0  0  0  0  0  0  0  0  0
   -4.0624   -1.8195    0.6186 N   0  0  0  0  0  0  0  0  0  0  0  0
    6.9683    2.9792    0.6861 N   0  0  0  0  0  0  0  0  0  0  0  0
   -4.6984   -0.6343    0.9377 N   0  0  0  0  0  0  0  0  0  0  0  0
   -5.7353    3.5955    0.7682 N   0  0  0  0  0  0  0  0  0  0  0  0
    1.0234   -1.5705    0.7565 C   0  0  1  0  0  0  0  0  0  0  0  0
    1.9366   -2.2307   -0.3026 C   0  0  2  0  0  0  0  0  0  0  0  0
   -0.4028   -1.4095    0.2116 C   0  0  0  0  0  0  0  0  0  0  0  0
   -1.0338   -2.7393   -0.2533 C   0  0  2  0  0  0  0  0  0  0  0  0
    1.0290   -2.3620    2.0713 C   0  0  0  0  0  0  0  0  0  0  0  0
    2.4036   -1.2205   -1.3559 C   0  0  0  0  0  0  0  0  0  0  0  0
    1.2746   -3.3959   -0.9928 C   0  0  0  0  0  0  0  0  0  0  0  0
   -0.0474   -3.6471   -0.9727 C   0  0  0  0  0  0  0  0  0  0  0  0
    4.4550   -0.4380   -0.3649 C   0  0  0  0  0  0  0  0  0  0  0  0
    3.0369    1.0905   -1.6021 C   0  0  0  0  0  0  0  0  0  0  0  0
   -2.2768   -2.4238   -1.0948 C   0  0  0  0  0  0  0  0  0  0  0  0
    5.1172    1.9936   -0.4948 C   0  0  0  0  0  0  0  0  0  0  0  0
    5.1523    0.7211    0.3496 C   0  0  0  0  0  0  0  0  0  0  0  0
    3.6861    2.3023   -0.9315 C   0  0  0  0  0  0  0  0  0  0  0  0
    2.4563   -2.5416    2.5782 C   0  0  0  0  0  0  0  0  0  0  0  0
    0.1676   -1.6616    3.1174 C   0  0  0  0  0  0  0  0  0  0  0  0
   -0.5930   -4.8884   -1.6237 C   0  0  0  0  0  0  0  0  0  0  0  0
   -3.2289   -1.5300   -0.3531 C   0  0  0  0  0  0  0  0  0  0  0  0
    5.6639    3.1484    0.2859 C   0  0  0  0  0  0  0  0  0  0  0  0
   -4.1955    0.2718    0.1321 C   0  0  0  0  0  0  0  0  0  0  0  0
   -4.4798    1.6724    0.0130 C   0  0  0  0  0  0  0  0  0  0  0  0
   -3.8205    2.4612   -0.9232 C   0  0  0  0  0  0  0  0  0  0  0  0
   -5.4201    2.2822    0.8278 C   0  0  0  0  0  0  0  0  0  0  0  0
   -4.1174    3.8166   -1.0146 C   0  0  0  0  0  0  0  0  0  0  0  0
   -5.0739    4.3304   -0.1540 C   0  0  0  0  0  0  0  0  0  0  0  0
    1.3904   -0.5646    0.9964 H   0  0  0  0  0  0  0  0  0  0  0  0
    2.8369   -2.6425    0.1542 H   0  0  0  0  0  0  0  0  0  0  0  0
   -0.3582   -0.7167   -0.6406 H   0  0  0  0  0  0  0  0  0  0  0  0
   -1.0397   -0.9037    0.9437 H   0  0  0  0  0  0  0  0  0  0  0  0
   -1.3645   -3.2826    0.6435 H   0  0  0  0  0  0  0  0  0  0  0  0
    0.6142   -3.3667    1.9270 H   0  0  0  0  0  0  0  0  0  0  0  0
    1.5245   -0.8725   -1.9150 H   0  0  0  0  0  0  0  0  0  0  0  0
    3.0535   -1.6991   -2.1021 H   0  0  0  0  0  0  0  0  0  0  0  0
    1.9391   -4.0762   -1.5216 H   0  0  0  0  0  0  0  0  0  0  0  0
    5.0317   -0.7142   -1.2578 H   0  0  0  0  0  0  0  0  0  0  0  0
    4.4809   -1.2965    0.3137 H   0  0  0  0  0  0  0  0  0  0  0  0
    1.9969    1.3521   -1.8330 H   0  0  0  0  0  0  0  0  0  0  0  0
    3.5406    0.8807   -2.5550 H   0  0  0  0  0  0  0  0  0  0  0  0
   -2.8193   -3.3431   -1.3452 H   0  0  0  0  0  0  0  0  0  0  0  0
   -1.9934   -1.9529   -2.0446 H   0  0  0  0  0  0  0  0  0  0  0  0
    5.7428    1.8580   -1.3869 H   0  0  0  0  0  0  0  0  0  0  0  0
    4.6686    0.8976    1.3202 H   0  0  0  0  0  0  0  0  0  0  0  0
    6.1840    0.4232    0.5695 H   0  0  0  0  0  0  0  0  0  0  0  0
    3.6762    3.1508   -1.6269 H   0  0  0  0  0  0  0  0  0  0  0  0
    3.0736    2.5975   -0.0684 H   0  0  0  0  0  0  0  0  0  0  0  0
    3.0301   -1.6104    2.5217 H   0  0  0  0  0  0  0  0  0  0  0  0
    2.9951   -3.3261    2.0391 H   0  0  0  0  0  0  0  0  0  0  0  0
    2.4551   -2.8582    3.6279 H   0  0  0  0  0  0  0  0  0  0  0  0
    0.4360   -0.6049    3.2215 H   0  0  0  0  0  0  0  0  0  0  0  0
    0.2943   -2.1314    4.0996 H   0  0  0  0  0  0  0  0  0  0  0  0
   -0.8992   -1.7304    2.8857 H   0  0  0  0  0  0  0  0  0  0  0  0
   -1.2176   -5.4447   -0.9170 H   0  0  0  0  0  0  0  0  0  0  0  0
    0.2027   -5.5638   -1.9563 H   0  0  0  0  0  0  0  0  0  0  0  0
   -1.1943   -4.6331   -2.5016 H   0  0  0  0  0  0  0  0  0  0  0  0
    7.5171    2.1612    0.4430 H   0  0  0  0  0  0  0  0  0  0  0  0
    7.4437    3.6979    1.2219 H   0  0  0  0  0  0  0  0  0  0  0  0
   -3.0705    2.0535   -1.5959 H   0  0  0  0  0  0  0  0  0  0  0  0
   -5.9722    1.7267    1.5804 H   0  0  0  0  0  0  0  0  0  0  0  0
   -3.6161    4.4509   -1.7365 H   0  0  0  0  0  0  0  0  0  0  0  0
   -5.3417    5.3814   -0.1851 H   0  0  0  0  0  0  0  0  0  0  0  0
  1 25  1  0  0  0  0
  1 27  1  0  0  0  0
  2 26  2  0  0  0  0
  3 13  1  0  0  0  0
  3 16  1  0  0  0  0
  3 17  1  0  0  0  0
  4  6  1  0  0  0  0
  4 25  2  0  0  0  0
  5 26  1  0  0  0  0
  5 62  1  0  0  0  0
  5 63  1  0  0  0  0
  6 27  2  0  0  0  0
  7 30  1  0  0  0  0
  7 32  2  0  0  0  0
  8  9  1  0  0  0  0
  8 10  1  0  0  0  0
  8 12  1  0  0  0  0
  8 33  1  0  0  0  0
  9 13  1  0  0  0  0
  9 14  1  0  0  0  0
  9 34  1  0  0  0  0
 10 11  1  0  0  0  0
 10 35  1  0  0  0  0
 10 36  1  0  0  0  0
 11 15  1  0  0  0  0
 11 18  1  0  0  0  0
 11 37  1  0  0  0  0
 12 22  1  0  0  0  0
 12 23  1  0  0  0  0
 12 38  1  0  0  0  0
 13 39  1  0  0  0  0
 13 40  1  0  0  0  0
 14 15  2  0  0  0  0
 14 41  1  0  0  0  0
 15 24  1  0  0  0  0
 16 20  1  0  0  0  0
 16 42  1  0  0  0  0
 16 43  1  0  0  0  0
 17 21  1  0  0  0  0
 17 44  1  0  0  0  0
 17 45  1  0  0  0  0
 18 25  1  0  0  0  0
 18 46  1  0  0  0  0
 18 47  1  0  0  0  0
 19 20  1  0  0  0  0
 19 21  1  0  0  0  0
 19 26  1  0  0  0  0
 19 48  1  0  0  0  0
 20 49  1  0  0  0  0
 20 50  1  0  0  0  0
 21 51  1  0  0  0  0
 21 52  1  0  0  0  0
 22 53  1  0  0  0  0
 22 54  1  0  0  0  0
 22 55  1  0  0  0  0
 23 56  1  0  0  0  0
 23 57  1  0  0  0  0
 23 58  1  0  0  0  0
 24 59  1  0  0  0  0
 24 60  1  0  0  0  0
 24 61  1  0  0  0  0
 27 28  1  0  0  0  0
 28 29  1  0  0  0  0
 28 30  2  0  0  0  0
 29 31  2  0  0  0  0
 29 64  1  0  0  0  0
 30 65  1  0  0  0  0
 31 32  1  0  0  0  0
 31 66  1  0  0  0  0
 32 67  1  0  0  0  0
M  END
> <PUBCHEM_COMPOUND_CID>
38030450

> <PUBCHEM_CONFORMER_RMSD>
1

> <PUBCHEM_CONFORMER_DIVERSEORDER>
11
219
42
153
10
215
57
187
70
234
223
91
36
193
162
202
135
194
244
72
151
152
129
94
214
43
106
260
206
249
257
66
84
76
150
117
163
112
189
20
88
148
195
208
180
119
37
69
102
222
26
261
41
247
6
157
40
115
85
110
138
93
123
87
96
210
71
255
230
262
133
235
212
107
258
38
62
16
204
166
83
177
161
98
73
181
116
80
143
248
44
169
54
5
191
159
209
254
56
127
92
67
240
203
237
61
28
196
242
55
141
89
52
188
131
147
183
253
182
217
179
128
154
19
232
251
186
160
198
39
59
60
7
226
81
140
176
224
137
199
77
256
175
170
34
245
149
142
265
31
104
109
45
108
158
111
2
132
211
173
185
35
178
228
264
227
90
130
213
65
47
252
48
146
201
192
205
144
63
3
14
197
105
95
78
165
125
220
229
15
30
103
259
100
167
114
136
9
75
79
190
239
51
4
164
216
99
172
263
12
250
126
184
231
74
174
155
225
101
58
218
168
156
121
8
124
27
171
25
241
113
97
243
23
139
21
64
233
82
200
46
207
29
246
22
17
122
32
238
86
53
24
145
68
120
13
236
33
118
49
50
1
18
134
221

> <PUBCHEM_MMFF94_PARTIAL_CHARGES>
32
1 -0.28
11 0.14
13 0.27
14 -0.29
15 -0.28
16 0.27
17 0.27
18 0.18
19 0.06
2 -0.57
24 0.14
25 0.3
26 0.57
27 0.43
28 0.05
29 -0.15
3 -0.81
30 0.16
31 -0.15
32 0.16
4 -0.34
41 0.15
5 -0.8
6 -0.34
62 0.37
63 0.37
64 0.15
65 0.15
66 0.15
67 0.15
7 -0.62
9 0.14

> <PUBCHEM_EFFECTIVE_ROTOR_COUNT>
9

> <PUBCHEM_PHARMACOPHORE_FEATURES>
9
1 2 acceptor
1 3 cation
1 5 donor
1 7 acceptor
3 12 22 23 hydrophobe
5 1 4 6 25 27 rings
6 3 16 17 19 20 21 rings
6 7 28 29 30 31 32 rings
6 8 9 10 11 14 15 rings

> <PUBCHEM_HEAVY_ATOM_COUNT>
32

> <PUBCHEM_ATOM_DEF_STEREO_COUNT>
3

> <PUBCHEM_ATOM_UDEF_STEREO_COUNT>
0

> <PUBCHEM_BOND_DEF_STEREO_COUNT>
0

> <PUBCHEM_BOND_UDEF_STEREO_COUNT>
0

> <PUBCHEM_ISOTOPIC_ATOM_COUNT>
0

> <PUBCHEM_COMPONENT_COUNT>
1

> <PUBCHEM_CACTVS_TAUTO_COUNT>
2

> <PUBCHEM_CONFORMER_ID>
02444C720000000B

> <PUBCHEM_MMFF94_ENERGY>
61.3859

> <PUBCHEM_FEATURE_SELFOVERLAP>
45.671

> <PUBCHEM_SHAPE_FINGERPRINT>
10816530 23 18340769226599908759
10864689 126 18340212877948879868
10928967 22 8716817744863150809
10937287 8 18413390925542101535
11135609 201 18413671318709091515
11399510 152 17242759497596270161
11828422 8 17630580389737952546
12107183 9 18337659872621551018
12422481 6 18041552529978642244
12925494 130 18263651658824773373
13726171 33 18342465820186377817
13965767 371 17969786280710586959
14251764 75 18270971137510676129
14739800 52 18187642475229306603
14790565 3 18412546517612165396
15001296 14 18194407684671727953
15082195 135 18125423238923732263
15320291 9 17830732050226833701
15968369 153 17906465676454253108
16067690 210 17542483381940666768
16988056 13 17692535507230022319
19304671 126 17488757674315440708
19309040 13 17986673676050034541
19438510 23 18334017193854012019
20238998 120 17692255132398487566
20715895 44 18342740659433197510
21033650 10 18046928231864569814
21223535 225 18343301466503848652
21859007 373 18340778143310627684
21987440 362 18337390440115856532
21987483 16 17968673606178641281
23191077 185 18340195375761754966
23559900 14 17764593114902223767
2838139 119 18341330089283672422
3459 39 18270948133554646920
376196 1 18337677420818919555
508180 173 18122656906217789782
5219985 13 18342178864530495719
57724786 102 17839752465627602673
5776283 40 18122085121163212782
5951187 136 17914907438917203268
6371009 1 18265046010850215677
7808743 9 18270115863165970294
7970288 3 8827750156853310492

> <PUBCHEM_SHAPE_MULTIPOLES>
621.9
14.24
6.88
1.87
0.08
1.97
-1.36
23.8
-1.37
0.63
1.24
-0.81
-1.72
-0.26

> <PUBCHEM_SHAPE_SELFOVERLAP>
1314.377

> <PUBCHEM_SHAPE_VOLUME>
346.2

> <PUBCHEM_COORDINATE_TYPE>
2
5
10

$$$$
