45361464
  -OEChem-12032416393D

 77 80  0     1  0  0  0  0  0999 V2000
   -0.3532    2.4089   -1.2166 O   0  0  0  0  0  0  0  0  0  0  0  0
   -5.3883    2.1314    0.5561 O   0  0  0  0  0  0  0  0  0  0  0  0
    5.1626   -1.6747   -0.5165 O   0  0  0  0  0  0  0  0  0  0  0  0
    4.1987    0.1153    0.6169 N   0  0  0  0  0  0  0  0  0  0  0  0
   -4.6677    1.0889   -1.3865 N   0  0  0  0  0  0  0  0  0  0  0  0
   -6.9183   -0.9527   -0.0265 N   0  0  0  0  0  0  0  0  0  0  0  0
   -0.0072   -0.3247    1.4259 C   0  0  1  0  0  0  0  0  0  0  0  0
    0.3916    0.5787    0.2119 C   0  0  2  0  0  0  0  0  0  0  0  0
    1.8995    1.0088    0.3067 C   0  0  1  0  0  0  0  0  0  0  0  0
   -0.6239    1.7412    0.0167 C   0  0  2  0  0  0  0  0  0  0  0  0
   -1.4607   -0.8219    1.2436 C   0  0  0  0  0  0  0  0  0  0  0  0
    0.9145   -1.5658    1.4551 C   0  0  0  0  0  0  0  0  0  0  0  0
   -2.0870    1.2459   -0.0607 C   0  0  1  0  0  0  0  0  0  0  0  0
    2.8117   -0.2458    0.4112 C   0  0  2  0  0  0  0  0  0  0  0  0
   -2.4630    0.3146    1.0917 C   0  0  0  0  0  0  0  0  0  0  0  0
    2.3931   -1.2107    1.5202 C   0  0  0  0  0  0  0  0  0  0  0  0
    0.0977    0.4205    2.7807 C   0  0  0  0  0  0  0  0  0  0  0  0
   -3.0802    2.4129   -0.1213 C   0  0  2  0  0  0  0  0  0  0  0  0
    2.3675    1.8774   -0.8732 C   0  0  0  0  0  0  0  0  0  0  0  0
   -2.9331    3.2922    1.1155 C   0  0  0  0  0  0  0  0  0  0  0  0
   -4.5025    1.8784   -0.2578 C   0  0  0  0  0  0  0  0  0  0  0  0
    5.2538   -0.6356    0.1320 C   0  0  0  0  0  0  0  0  0  0  0  0
    6.5838   -0.0241    0.4652 C   0  0  0  0  0  0  0  0  0  0  0  0
    7.6537   -1.1022    0.6503 C   0  0  0  0  0  0  0  0  0  0  0  0
    6.9660    1.0137   -0.5922 C   0  0  0  0  0  0  0  0  0  0  0  0
    8.1510   -1.6977   -0.6665 C   0  0  0  0  0  0  0  0  0  0  0  0
    7.4538    0.3869   -1.8972 C   0  0  0  0  0  0  0  0  0  0  0  0
    8.5747   -0.6174   -1.6547 C   0  0  0  0  0  0  0  0  0  0  0  0
   -5.9266    0.4687   -1.7288 C   0  0  0  0  0  0  0  0  0  0  0  0
   -6.0820   -0.8793   -1.0862 C   0  0  0  0  0  0  0  0  0  0  0  0
   -5.3796   -1.9592   -1.5963 C   0  0  0  0  0  0  0  0  0  0  0  0
   -5.5465   -3.1940   -0.9793 C   0  0  0  0  0  0  0  0  0  0  0  0
   -7.0552   -2.1691    0.5472 C   0  0  0  0  0  0  0  0  0  0  0  0
   -6.3986   -3.3094    0.1135 C   0  0  0  0  0  0  0  0  0  0  0  0
    0.3215   -0.0410   -0.6965 H   0  0  0  0  0  0  0  0  0  0  0  0
    2.0382    1.6186    1.2084 H   0  0  0  0  0  0  0  0  0  0  0  0
   -0.4630    2.4626    0.8194 H   0  0  0  0  0  0  0  0  0  0  0  0
   -1.7570   -1.4501    2.0936 H   0  0  0  0  0  0  0  0  0  0  0  0
   -1.5234   -1.4631    0.3539 H   0  0  0  0  0  0  0  0  0  0  0  0
    0.6625   -2.2065    2.3097 H   0  0  0  0  0  0  0  0  0  0  0  0
    0.7437   -2.1731    0.5560 H   0  0  0  0  0  0  0  0  0  0  0  0
   -2.1665    0.6621   -0.9875 H   0  0  0  0  0  0  0  0  0  0  0  0
    2.7509   -0.7888   -0.5422 H   0  0  0  0  0  0  0  0  0  0  0  0
   -2.5358    0.8354    2.0487 H   0  0  0  0  0  0  0  0  0  0  0  0
   -3.4459   -0.1396    0.9212 H   0  0  0  0  0  0  0  0  0  0  0  0
    2.9817   -2.1347    1.4498 H   0  0  0  0  0  0  0  0  0  0  0  0
    2.6359   -0.7867    2.5022 H   0  0  0  0  0  0  0  0  0  0  0  0
    1.1183    0.7338    3.0149 H   0  0  0  0  0  0  0  0  0  0  0  0
   -0.2334   -0.2257    3.6022 H   0  0  0  0  0  0  0  0  0  0  0  0
   -0.5175    1.3241    2.8106 H   0  0  0  0  0  0  0  0  0  0  0  0
   -2.8861    3.0279   -1.0095 H   0  0  0  0  0  0  0  0  0  0  0  0
    2.1139    1.4147   -1.8326 H   0  0  0  0  0  0  0  0  0  0  0  0
    3.4502    2.0379   -0.8592 H   0  0  0  0  0  0  0  0  0  0  0  0
    1.9249    2.8763   -0.8280 H   0  0  0  0  0  0  0  0  0  0  0  0
    4.3915    0.9333    1.1876 H   0  0  0  0  0  0  0  0  0  0  0  0
   -0.4380    1.7608   -1.9365 H   0  0  0  0  0  0  0  0  0  0  0  0
   -3.1356    2.7785    2.0581 H   0  0  0  0  0  0  0  0  0  0  0  0
   -3.6674    4.1069    1.0648 H   0  0  0  0  0  0  0  0  0  0  0  0
   -1.9606    3.7852    1.1793 H   0  0  0  0  0  0  0  0  0  0  0  0
    6.4808    0.4926    1.4293 H   0  0  0  0  0  0  0  0  0  0  0  0
    7.2827   -1.9081    1.2952 H   0  0  0  0  0  0  0  0  0  0  0  0
    8.5107   -0.6556    1.1714 H   0  0  0  0  0  0  0  0  0  0  0  0
    7.7690    1.6442   -0.1887 H   0  0  0  0  0  0  0  0  0  0  0  0
    6.1238    1.6821   -0.8073 H   0  0  0  0  0  0  0  0  0  0  0  0
   -3.8997    0.9712   -2.0393 H   0  0  0  0  0  0  0  0  0  0  0  0
    9.0068   -2.3519   -0.4611 H   0  0  0  0  0  0  0  0  0  0  0  0
    7.3884   -2.3357   -1.1240 H   0  0  0  0  0  0  0  0  0  0  0  0
    6.6188   -0.1094   -2.4060 H   0  0  0  0  0  0  0  0  0  0  0  0
    7.8084    1.1758   -2.5704 H   0  0  0  0  0  0  0  0  0  0  0  0
    9.4580   -0.0939   -1.2687 H   0  0  0  0  0  0  0  0  0  0  0  0
    8.8678   -1.0801   -2.6037 H   0  0  0  0  0  0  0  0  0  0  0  0
   -6.7456    1.1292   -1.4214 H   0  0  0  0  0  0  0  0  0  0  0  0
   -5.9715    0.3773   -2.8197 H   0  0  0  0  0  0  0  0  0  0  0  0
   -4.7168   -1.8582   -2.4491 H   0  0  0  0  0  0  0  0  0  0  0  0
   -5.0133   -4.0647   -1.3491 H   0  0  0  0  0  0  0  0  0  0  0  0
   -7.7304   -2.2058    1.3957 H   0  0  0  0  0  0  0  0  0  0  0  0
   -6.5438   -4.2619    0.6101 H   0  0  0  0  0  0  0  0  0  0  0  0
  1 10  1  0  0  0  0
  1 56  1  0  0  0  0
  2 21  2  0  0  0  0
  3 22  2  0  0  0  0
  4 14  1  0  0  0  0
  4 22  1  0  0  0  0
  4 55  1  0  0  0  0
  5 21  1  0  0  0  0
  5 29  1  0  0  0  0
  5 65  1  0  0  0  0
  6 30  1  0  0  0  0
  6 33  2  0  0  0  0
  7  8  1  0  0  0  0
  7 11  1  0  0  0  0
  7 12  1  0  0  0  0
  7 17  1  0  0  0  0
  8  9  1  0  0  0  0
  8 10  1  0  0  0  0
  8 35  1  0  0  0  0
  9 14  1  0  0  0  0
  9 19  1  0  0  0  0
  9 36  1  0  0  0  0
 10 13  1  0  0  0  0
 10 37  1  0  0  0  0
 11 15  1  0  0  0  0
 11 38  1  0  0  0  0
 11 39  1  0  0  0  0
 12 16  1  0  0  0  0
 12 40  1  0  0  0  0
 12 41  1  0  0  0  0
 13 15  1  0  0  0  0
 13 18  1  0  0  0  0
 13 42  1  0  0  0  0
 14 16  1  0  0  0  0
 14 43  1  0  0  0  0
 15 44  1  0  0  0  0
 15 45  1  0  0  0  0
 16 46  1  0  0  0  0
 16 47  1  0  0  0  0
 17 48  1  0  0  0  0
 17 49  1  0  0  0  0
 17 50  1  0  0  0  0
 18 20  1  0  0  0  0
 18 21  1  0  0  0  0
 18 51  1  0  0  0  0
 19 52  1  0  0  0  0
 19 53  1  0  0  0  0
 19 54  1  0  0  0  0
 20 57  1  0  0  0  0
 20 58  1  0  0  0  0
 20 59  1  0  0  0  0
 22 23  1  0  0  0  0
 23 24  1  0  0  0  0
 23 25  1  0  0  0  0
 23 60  1  0  0  0  0
 24 26  1  0  0  0  0
 24 61  1  0  0  0  0
 24 62  1  0  0  0  0
 25 27  1  0  0  0  0
 25 63  1  0  0  0  0
 25 64  1  0  0  0  0
 26 28  1  0  0  0  0
 26 66  1  0  0  0  0
 26 67  1  0  0  0  0
 27 28  1  0  0  0  0
 27 68  1  0  0  0  0
 27 69  1  0  0  0  0
 28 70  1  0  0  0  0
 28 71  1  0  0  0  0
 29 30  1  0  0  0  0
 29 72  1  0  0  0  0
 29 73  1  0  0  0  0
 30 31  2  0  0  0  0
 31 32  1  0  0  0  0
 31 74  1  0  0  0  0
 32 34  2  0  0  0  0
 32 75  1  0  0  0  0
 33 34  1  0  0  0  0
 33 76  1  0  0  0  0
 34 77  1  0  0  0  0
M  END
> <PUBCHEM_COMPOUND_CID>
45361464

> <PUBCHEM_CONFORMER_RMSD>
1.2

> <PUBCHEM_CONFORMER_DIVERSEORDER>
1
45
24
107
133
79
71
140
46
129
95
50
52
115
72
42
66
122
109
60
2
144
76
137
75
104
65
96
123
124
64
73
16
121
54
53
82
108
70
102
141
101
26
139
87
84
69
106
20
43
18
40
138
127
15
134
35
27
86
116
126
36
132
68
17
119
19
31
81
117
91
118
23
83
131
39
110
3
114
59
21
128
7
29
51
99
125
37
142
14
143
48
103
111
11
147
63
90
10
49
146
93
47
136
120
13
4
94
89
32
62
105
61
98
135
58
44
5
55
57
67
112
80
149
25
9
74
30
12
22
6
34
100
145
92
38
88
28
8
41
77
33
148
113
78
56
150
97
130
85

> <PUBCHEM_MMFF94_PARTIAL_CHARGES>
25
1 -0.68
10 0.28
14 0.3
18 0.06
2 -0.57
21 0.57
22 0.57
23 0.06
29 0.44
3 -0.57
30 0.17
31 -0.15
32 -0.15
33 0.16
34 -0.15
4 -0.73
5 -0.73
55 0.37
56 0.4
6 -0.62
65 0.37
74 0.15
75 0.15
76 0.15
77 0.15

> <PUBCHEM_EFFECTIVE_ROTOR_COUNT>
10.8

> <PUBCHEM_PHARMACOPHORE_FEATURES>
12
1 1 acceptor
1 1 donor
1 2 acceptor
1 20 hydrophobe
1 3 acceptor
1 4 donor
1 5 donor
1 6 acceptor
6 23 24 25 26 27 28 rings
6 6 30 31 32 33 34 rings
6 7 8 10 11 13 15 rings
6 7 8 9 12 14 16 rings

> <PUBCHEM_HEAVY_ATOM_COUNT>
34

> <PUBCHEM_ATOM_DEF_STEREO_COUNT>
6

> <PUBCHEM_ATOM_UDEF_STEREO_COUNT>
1

> <PUBCHEM_BOND_DEF_STEREO_COUNT>
0

> <PUBCHEM_BOND_UDEF_STEREO_COUNT>
0

> <PUBCHEM_ISOTOPIC_ATOM_COUNT>
0

> <PUBCHEM_COMPONENT_COUNT>
1

> <PUBCHEM_CACTVS_TAUTO_COUNT>
4

> <PUBCHEM_CONFORMER_ID>
02B4293800000001

> <PUBCHEM_MMFF94_ENERGY>
84.4258

> <PUBCHEM_FEATURE_SELFOVERLAP>
60.912

> <PUBCHEM_SHAPE_FINGERPRINT>
10554248 39 16660640714269695450
11007060 377 17312824896063894705
11456790 92 10592040250916301046
11578821 258 13479428162447792190
117089 54 18047752891451326283
11973863 73 14189305807411982214
12082328 90 18272369745938119356
1361 4 18341891831919520550
13673619 4 17704068521122252401
13690498 29 18343297068029815413
13782708 43 17846211193780203818
13811026 1 18187083975505322202
14279260 333 18334003982867873603
14340393 91 18042410299177439427
14767858 380 17822007618437364454
14856354 85 17988924427601646085
15082195 135 17897170328466765732
15183329 4 17530682096164026824
15461852 350 18410017628727307494
15669420 48 13984662573579387595
16112460 7 12175319453439219530
17686467 74 18272923939176618936
21150785 3 17749106703365524950
21756936 100 7997973462414621363
21781051 124 17561083597326106662
21867018 265 18340491161748558742
21927370 108 16630535020442883464
22288116 15 18333450954135424703
23569914 2 12759119578970847807
23569943 247 17904480706655246650
23576562 1 16515979179924270582
3178227 256 13973677352246829252
354706 132 16732975424230203375
437795 160 18339626894591622514
4625314 4 18340767057314955100
484989 97 18188775071079834579
49967989 163 18114186388206053619
54039377 194 18334861658489109339
58083652 198 13901892406532109619
6086070 43 13118004439442305781
999808 66 17203889664887095447

> <PUBCHEM_SHAPE_MULTIPOLES>
667.15
24.58
3.14
1.78
27.14
0.09
-0.25
14.92
11.76
-6.49
0.23
0.27
0.09
-0.88

> <PUBCHEM_SHAPE_SELFOVERLAP>
1392.429

> <PUBCHEM_SHAPE_VOLUME>
372.3

> <PUBCHEM_COORDINATE_TYPE>
2
5
10

$$$$
