7143816
  -OEChem-12032416373D

 55 59  0     1  0  0  0  0  0999 V2000
    1.2337   -1.4163   -1.0472 S   0  0  0  0  0  0  0  0  0  0  0  0
    1.2425   -1.3516   -2.4934 O   0  0  0  0  0  0  0  0  0  0  0  0
    0.7458   -2.5919   -0.3573 O   0  0  0  0  0  0  0  0  0  0  0  0
   -4.2828    1.1414   -1.5345 O   0  0  0  0  0  0  0  0  0  0  0  0
   -6.5234   -0.2100   -0.9780 O   0  0  0  0  0  0  0  0  0  0  0  0
    7.7195    0.8821   -0.9146 O   0  0  0  0  0  0  0  0  0  0  0  0
    0.4333   -0.0359   -0.4296 N   0  0  2  0  0  0  0  0  0  0  0  0
   -2.4583    1.1892   -0.0826 N   0  0  0  0  0  0  0  0  0  0  0  0
    6.7515   -0.3503    0.8468 N   0  0  0  0  0  0  0  0  0  0  0  0
   -0.2542    2.3518   -0.6746 C   0  0  1  0  0  0  0  0  0  0  0  0
   -0.4966    1.2311    1.4971 C   0  0  2  0  0  0  0  0  0  0  0  0
   -0.1180    2.5501    0.8292 C   0  0  0  0  0  0  0  0  0  0  0  0
    0.6881    1.2383   -1.1605 C   0  0  0  0  0  0  0  0  0  0  0  0
    0.4835    0.1297    1.0539 C   0  0  0  0  0  0  0  0  0  0  0  0
   -1.7231    2.0629   -1.0075 C   0  0  0  0  0  0  0  0  0  0  0  0
   -1.9220    0.8366    1.1580 C   0  0  0  0  0  0  0  0  0  0  0  0
   -2.6579    0.1349    2.0347 C   0  0  0  0  0  0  0  0  0  0  0  0
   -3.7631    0.8194   -0.4645 C   0  0  0  0  0  0  0  0  0  0  0  0
   -4.5503    0.0022    0.5243 C   0  0  0  0  0  0  0  0  0  0  0  0
   -3.9886   -0.2917    1.7066 C   0  0  0  0  0  0  0  0  0  0  0  0
    2.8767   -1.0993   -0.4836 C   0  0  0  0  0  0  0  0  0  0  0  0
   -5.9069   -0.4783    0.2095 C   0  0  0  0  0  0  0  0  0  0  0  0
    3.7438   -0.3825   -1.2915 C   0  0  0  0  0  0  0  0  0  0  0  0
    3.2704   -1.5728    0.7569 C   0  0  0  0  0  0  0  0  0  0  0  0
    5.0417   -0.1319   -0.8459 C   0  0  0  0  0  0  0  0  0  0  0  0
    4.5682   -1.3222    1.2024 C   0  0  0  0  0  0  0  0  0  0  0  0
   -6.7398   -1.2383    1.0087 C   0  0  0  0  0  0  0  0  0  0  0  0
    5.4538   -0.6018    0.4010 C   0  0  0  0  0  0  0  0  0  0  0  0
   -7.9284   -1.4445    0.2685 C   0  0  0  0  0  0  0  0  0  0  0  0
   -7.7469   -0.7995   -0.9327 C   0  0  0  0  0  0  0  0  0  0  0  0
    7.7724    0.3489    0.1889 C   0  0  0  0  0  0  0  0  0  0  0  0
    9.0353    0.4002    1.0115 C   0  0  0  0  0  0  0  0  0  0  0  0
    0.0366    3.2752   -1.1911 H   0  0  0  0  0  0  0  0  0  0  0  0
   -0.3999    1.3611    2.5831 H   0  0  0  0  0  0  0  0  0  0  0  0
   -0.7702    3.3628    1.1730 H   0  0  0  0  0  0  0  0  0  0  0  0
    0.9098    2.8321    1.0881 H   0  0  0  0  0  0  0  0  0  0  0  0
    0.5372    1.0906   -2.2351 H   0  0  0  0  0  0  0  0  0  0  0  0
    1.7230    1.5580   -0.9999 H   0  0  0  0  0  0  0  0  0  0  0  0
    1.4912    0.4183    1.3699 H   0  0  0  0  0  0  0  0  0  0  0  0
    0.2213   -0.8145    1.5443 H   0  0  0  0  0  0  0  0  0  0  0  0
   -2.2735    3.0139   -1.0147 H   0  0  0  0  0  0  0  0  0  0  0  0
   -1.8155    1.6546   -2.0219 H   0  0  0  0  0  0  0  0  0  0  0  0
   -2.2625   -0.1576    3.0019 H   0  0  0  0  0  0  0  0  0  0  0  0
   -4.4871   -0.8750    2.4732 H   0  0  0  0  0  0  0  0  0  0  0  0
    3.4409   -0.0058   -2.2637 H   0  0  0  0  0  0  0  0  0  0  0  0
    2.5968   -2.1341    1.3970 H   0  0  0  0  0  0  0  0  0  0  0  0
    5.6691    0.4329   -1.5212 H   0  0  0  0  0  0  0  0  0  0  0  0
    4.8757   -1.6937    2.1767 H   0  0  0  0  0  0  0  0  0  0  0  0
   -6.5412   -1.6110    2.0034 H   0  0  0  0  0  0  0  0  0  0  0  0
   -8.8071   -1.9946    0.5723 H   0  0  0  0  0  0  0  0  0  0  0  0
   -8.3594   -0.6727   -1.8134 H   0  0  0  0  0  0  0  0  0  0  0  0
    6.9752   -0.7260    1.7660 H   0  0  0  0  0  0  0  0  0  0  0  0
    8.8440    0.9299    1.9490 H   0  0  0  0  0  0  0  0  0  0  0  0
    9.8171    0.9276    0.4580 H   0  0  0  0  0  0  0  0  0  0  0  0
    9.3785   -0.6153    1.2286 H   0  0  0  0  0  0  0  0  0  0  0  0
  1  2  2  0  0  0  0
  1  3  2  0  0  0  0
  1  7  1  0  0  0  0
  1 21  1  0  0  0  0
  4 18  2  0  0  0  0
  5 22  1  0  0  0  0
  5 30  1  0  0  0  0
  6 31  2  0  0  0  0
  7 13  1  0  0  0  0
  7 14  1  0  0  0  0
  8 15  1  0  0  0  0
  8 16  1  0  0  0  0
  8 18  1  0  0  0  0
  9 28  1  0  0  0  0
  9 31  1  0  0  0  0
  9 52  1  0  0  0  0
 10 12  1  0  0  0  0
 10 13  1  0  0  0  0
 10 15  1  0  0  0  0
 10 33  1  0  0  0  0
 11 12  1  0  0  0  0
 11 14  1  0  0  0  0
 11 16  1  0  0  0  0
 11 34  1  0  0  0  0
 12 35  1  0  0  0  0
 12 36  1  0  0  0  0
 13 37  1  0  0  0  0
 13 38  1  0  0  0  0
 14 39  1  0  0  0  0
 14 40  1  0  0  0  0
 15 41  1  0  0  0  0
 15 42  1  0  0  0  0
 16 17  2  0  0  0  0
 17 20  1  0  0  0  0
 17 43  1  0  0  0  0
 18 19  1  0  0  0  0
 19 20  2  0  0  0  0
 19 22  1  0  0  0  0
 20 44  1  0  0  0  0
 21 23  2  0  0  0  0
 21 24  1  0  0  0  0
 22 27  2  0  0  0  0
 23 25  1  0  0  0  0
 23 45  1  0  0  0  0
 24 26  2  0  0  0  0
 24 46  1  0  0  0  0
 25 28  2  0  0  0  0
 25 47  1  0  0  0  0
 26 28  1  0  0  0  0
 26 48  1  0  0  0  0
 27 29  1  0  0  0  0
 27 49  1  0  0  0  0
 29 30  2  0  0  0  0
 29 50  1  0  0  0  0
 30 51  1  0  0  0  0
 31 32  1  0  0  0  0
 32 53  1  0  0  0  0
 32 54  1  0  0  0  0
 32 55  1  0  0  0  0
M  END
> <PUBCHEM_COMPOUND_CID>
7143816

> <PUBCHEM_CONFORMER_RMSD>
0.8

> <PUBCHEM_CONFORMER_DIVERSEORDER>
2
17
16
25
12
7
9
22
11
13
27
24
28
20
18
4
8
14
1
23
21
15
3
26
6
19
5
10

> <PUBCHEM_MMFF94_PARTIAL_CHARGES>
40
1 1.45
11 0.14
13 0.36
14 0.36
15 0.3
16 -0.03
17 -0.15
18 0.62
19 0.06
2 -0.65
20 -0.15
21 -0.01
22 0.09
23 -0.15
24 -0.15
25 -0.15
26 -0.15
27 -0.15
28 0.12
29 -0.15
3 -0.65
30 -0.01
31 0.57
32 0.06
4 -0.57
43 0.15
44 0.15
45 0.15
46 0.15
47 0.15
48 0.15
49 0.15
5 -0.28
50 0.15
51 0.15
52 0.37
6 -0.57
7 -0.85
8 -0.47
9 -0.55

> <PUBCHEM_EFFECTIVE_ROTOR_COUNT>
6

> <PUBCHEM_PHARMACOPHORE_FEATURES>
11
1 2 acceptor
1 3 acceptor
1 4 acceptor
1 5 acceptor
1 6 acceptor
1 9 donor
5 5 22 27 29 30 rings
6 21 23 24 25 26 28 rings
6 7 10 11 12 13 14 rings
6 8 10 11 12 15 16 rings
6 8 16 17 18 19 20 rings

> <PUBCHEM_HEAVY_ATOM_COUNT>
32

> <PUBCHEM_ATOM_DEF_STEREO_COUNT>
2

> <PUBCHEM_ATOM_UDEF_STEREO_COUNT>
0

> <PUBCHEM_BOND_DEF_STEREO_COUNT>
0

> <PUBCHEM_BOND_UDEF_STEREO_COUNT>
0

> <PUBCHEM_ISOTOPIC_ATOM_COUNT>
0

> <PUBCHEM_COMPONENT_COUNT>
1

> <PUBCHEM_CACTVS_TAUTO_COUNT>
2

> <PUBCHEM_CONFORMER_ID>
006D018800000002

> <PUBCHEM_MMFF94_ENERGY>
70.9116

> <PUBCHEM_FEATURE_SELFOVERLAP>
57.433

> <PUBCHEM_SHAPE_FINGERPRINT>
10165383 225 11167944662840922361
10299344 5 14549018784417113464
106641 1 17918274276833730786
10674148 151 18040433279678524233
10930396 42 17896019088542949112
11135609 99 17488454356004929431
11828532 37 14852469752020109481
12120059 20 18127709316370863759
12202916 173 17894631460995720378
12596602 18 15267348401441167019
12857493 111 18113052744694904645
12977781 61 16590862587602632576
13811026 1 18187925045723461690
13914758 101 14995997731650473348
1454969 45 18412266146827262614
14856354 85 15697708290101517725
15183329 4 14345791647808308521
15274700 256 13479125810198959814
15728490 51 16988559139119700639
15840311 113 14117506675420049739
18335252 98 17775569728412880070
18608769 82 16415476069525539294
20105231 36 14476965597232286468
20511986 3 16588018009598014306
21057603 130 18130783508512343799
21223535 225 13912592837184124239
21365058 27 16056880234455775182
22224240 67 18060420222578768614
23559900 14 17023757843219357445
24771293 8 18202010910229246185
2747138 104 17632578270757738690
2838139 119 12540695921162394695
3009799 131 16877944940338207033
3633792 109 15430032145791195360
4017518 198 15574717972460481570
4258327 124 18269281326142000004
4280585 95 17822013138087531309
4325135 7 18201720660908253162
437795 51 17489298728983691984
439807 62 17604724395149372803
474113 269 14996548570487197840
5381727 24 18060136523769178882
563151 40 13758347886640401788
57035037 87 15936413377193769540
57724786 102 8934414308129507139
59682541 35 18202280333849250170
59755656 215 12685087082003035187
6009941 240 15502381148701089571
6081469 158 15936404534109222930
6394761 36 10953455228570675138
6523845 18 17918268741538810258
6669772 16 18043530718721803584
6703917 75 16271653373065020134
9689198 14 14117800223729144338

> <PUBCHEM_SHAPE_MULTIPOLES>
618.1
22.19
2.02
1.7
10.78
0.5
-0.06
-6.34
1.9
-0.49
-0.24
-0.28
-0.04
0.27

> <PUBCHEM_SHAPE_SELFOVERLAP>
1344.372

> <PUBCHEM_SHAPE_VOLUME>
336.6

> <PUBCHEM_COORDINATE_TYPE>
2
5
10

$$$$
