26744369
  -OEChem-12032416293D

 47 50  0     1  0  0  0  0  0999 V2000
   -5.8107   -1.7311    1.1887 F   0  0  0  0  0  0  0  0  0  0  0  0
    5.6644   -2.1818    1.1851 O   0  0  0  0  0  0  0  0  0  0  0  0
    1.0688   -1.3439   -2.0810 O   0  0  0  0  0  0  0  0  0  0  0  0
   -2.3275    3.3812   -0.3390 O   0  0  0  0  0  0  0  0  0  0  0  0
    3.1095    0.2319    0.5384 N   0  0  1  0  0  0  0  0  0  0  0  0
    0.4242   -0.9719    0.0315 N   0  0  0  0  0  0  0  0  0  0  0  0
   -0.3143   -1.5627   -2.0517 N   0  0  0  0  0  0  0  0  0  0  0  0
    2.8894   -0.7078   -0.5797 C   0  0  1  0  0  0  0  0  0  0  0  0
    3.6947   -1.9650   -0.2020 C   0  0  0  0  0  0  0  0  0  0  0  0
    4.3684   -1.6193    1.1202 C   0  0  2  0  0  0  0  0  0  0  0  0
    4.4123   -0.1031    1.1102 C   0  0  0  0  0  0  0  0  0  0  0  0
    3.0299    1.6304    0.1375 C   0  0  0  0  0  0  0  0  0  0  0  0
    1.4225   -1.0007   -0.8148 C   0  0  0  0  0  0  0  0  0  0  0  0
    1.6040    2.0969    0.0104 C   0  0  0  0  0  0  0  0  0  0  0  0
    1.1400    2.6003   -1.2050 C   0  0  0  0  0  0  0  0  0  0  0  0
    0.7466    2.0252    1.1084 C   0  0  0  0  0  0  0  0  0  0  0  0
   -0.6203   -1.3236   -0.7729 C   0  0  0  0  0  0  0  0  0  0  0  0
   -0.1810    3.0322   -1.3223 C   0  0  0  0  0  0  0  0  0  0  0  0
   -0.5743    2.4571    0.9912 C   0  0  0  0  0  0  0  0  0  0  0  0
   -1.9586   -1.4287   -0.2672 C   0  0  0  0  0  0  0  0  0  0  0  0
   -1.0382    2.9606   -0.2241 C   0  0  0  0  0  0  0  0  0  0  0  0
   -2.2181   -1.1685    1.0784 C   0  0  0  0  0  0  0  0  0  0  0  0
   -3.0004   -1.7908   -1.1210 C   0  0  0  0  0  0  0  0  0  0  0  0
   -3.5192   -1.2706    1.5703 C   0  0  0  0  0  0  0  0  0  0  0  0
   -4.3017   -1.8930   -0.6293 C   0  0  0  0  0  0  0  0  0  0  0  0
   -4.5610   -1.6330    0.7163 C   0  0  0  0  0  0  0  0  0  0  0  0
   -3.1493    3.2799    0.8232 C   0  0  0  0  0  0  0  0  0  0  0  0
    3.3170   -0.3096   -1.5108 H   0  0  0  0  0  0  0  0  0  0  0  0
    3.0734   -2.8608   -0.0885 H   0  0  0  0  0  0  0  0  0  0  0  0
    4.4413   -2.1840   -0.9756 H   0  0  0  0  0  0  0  0  0  0  0  0
    3.7740   -1.9859    1.9661 H   0  0  0  0  0  0  0  0  0  0  0  0
    4.5368    0.2973    2.1218 H   0  0  0  0  0  0  0  0  0  0  0  0
    5.2475    0.2596    0.4964 H   0  0  0  0  0  0  0  0  0  0  0  0
    3.6006    1.8236   -0.7804 H   0  0  0  0  0  0  0  0  0  0  0  0
    3.4890    2.2659    0.9080 H   0  0  0  0  0  0  0  0  0  0  0  0
    5.5682   -3.1466    1.1107 H   0  0  0  0  0  0  0  0  0  0  0  0
    1.7960    2.6599   -2.0692 H   0  0  0  0  0  0  0  0  0  0  0  0
    1.0955    1.6391    2.0626 H   0  0  0  0  0  0  0  0  0  0  0  0
   -0.5371    3.4223   -2.2718 H   0  0  0  0  0  0  0  0  0  0  0  0
   -1.1860    2.3725    1.8829 H   0  0  0  0  0  0  0  0  0  0  0  0
   -1.4280   -0.8835    1.7688 H   0  0  0  0  0  0  0  0  0  0  0  0
   -2.8367   -2.0007   -2.1751 H   0  0  0  0  0  0  0  0  0  0  0  0
   -3.7220   -1.0675    2.6176 H   0  0  0  0  0  0  0  0  0  0  0  0
   -5.1134   -2.1748   -1.2934 H   0  0  0  0  0  0  0  0  0  0  0  0
   -4.1404    3.6583    0.5523 H   0  0  0  0  0  0  0  0  0  0  0  0
   -2.7766    3.9123    1.6361 H   0  0  0  0  0  0  0  0  0  0  0  0
   -3.2793    2.2377    1.1341 H   0  0  0  0  0  0  0  0  0  0  0  0
  1 26  1  0  0  0  0
  2 10  1  0  0  0  0
  2 36  1  0  0  0  0
  3  7  1  0  0  0  0
  3 13  1  0  0  0  0
  4 21  1  0  0  0  0
  4 27  1  0  0  0  0
  5  8  1  0  0  0  0
  5 11  1  0  0  0  0
  5 12  1  0  0  0  0
  6 13  2  0  0  0  0
  6 17  1  0  0  0  0
  7 17  2  0  0  0  0
  8  9  1  0  0  0  0
  8 13  1  0  0  0  0
  8 28  1  0  0  0  0
  9 10  1  0  0  0  0
  9 29  1  0  0  0  0
  9 30  1  0  0  0  0
 10 11  1  0  0  0  0
 10 31  1  0  0  0  0
 11 32  1  0  0  0  0
 11 33  1  0  0  0  0
 12 14  1  0  0  0  0
 12 34  1  0  0  0  0
 12 35  1  0  0  0  0
 14 15  2  0  0  0  0
 14 16  1  0  0  0  0
 15 18  1  0  0  0  0
 15 37  1  0  0  0  0
 16 19  2  0  0  0  0
 16 38  1  0  0  0  0
 17 20  1  0  0  0  0
 18 21  2  0  0  0  0
 18 39  1  0  0  0  0
 19 21  1  0  0  0  0
 19 40  1  0  0  0  0
 20 22  2  0  0  0  0
 20 23  1  0  0  0  0
 22 24  1  0  0  0  0
 22 41  1  0  0  0  0
 23 25  2  0  0  0  0
 23 42  1  0  0  0  0
 24 26  2  0  0  0  0
 24 43  1  0  0  0  0
 25 26  1  0  0  0  0
 25 44  1  0  0  0  0
 27 45  1  0  0  0  0
 27 46  1  0  0  0  0
 27 47  1  0  0  0  0
M  END
> <PUBCHEM_COMPOUND_CID>
26744369

> <PUBCHEM_CONFORMER_RMSD>
0.8

> <PUBCHEM_CONFORMER_DIVERSEORDER>
1
13
35
56
49
41
20
39
2
60
26
43
6
47
28
19
37
9
29
36
18
21
44
7
45
38
51
17
33
14
8
16
42
10
27
52
24
15
58
30
32
59
25
3
22
46
50
40
34
11
4
54
31
5
53
23
48
55
57
12

> <PUBCHEM_MMFF94_PARTIAL_CHARGES>
35
1 -0.19
10 0.28
11 0.27
12 0.41
13 0.3
14 -0.14
15 -0.15
16 -0.15
17 0.46
18 -0.15
19 -0.15
2 -0.68
20 0.05
21 0.08
22 -0.15
23 -0.15
24 -0.15
25 -0.15
26 0.19
27 0.28
3 -0.02
36 0.4
37 0.15
38 0.15
39 0.15
4 -0.36
40 0.15
41 0.15
42 0.15
43 0.15
44 0.15
5 -0.81
6 -0.57
7 -0.41
8 0.45

> <PUBCHEM_EFFECTIVE_ROTOR_COUNT>
6

> <PUBCHEM_PHARMACOPHORE_FEATURES>
9
1 2 acceptor
1 2 donor
1 4 acceptor
1 5 cation
3 6 7 17 cation
5 3 6 7 13 17 rings
5 5 8 9 10 11 rings
6 14 15 16 18 19 21 rings
6 20 22 23 24 25 26 rings

> <PUBCHEM_HEAVY_ATOM_COUNT>
27

> <PUBCHEM_ATOM_DEF_STEREO_COUNT>
2

> <PUBCHEM_ATOM_UDEF_STEREO_COUNT>
0

> <PUBCHEM_BOND_DEF_STEREO_COUNT>
0

> <PUBCHEM_BOND_UDEF_STEREO_COUNT>
0

> <PUBCHEM_ISOTOPIC_ATOM_COUNT>
0

> <PUBCHEM_COMPONENT_COUNT>
1

> <PUBCHEM_CACTVS_TAUTO_COUNT>
1

> <PUBCHEM_CONFORMER_ID>
0198163100000001

> <PUBCHEM_MMFF94_ENERGY>
66.2965

> <PUBCHEM_FEATURE_SELFOVERLAP>
45.672

> <PUBCHEM_SHAPE_FINGERPRINT>
10382601 240 18053664952213533256
104564 63 18341339975744980652
10688039 33 18260826025061444741
108634 29 18196937669426699037
12035758 1 18196103140212467801
12422481 6 18200330826961378753
12788726 201 18409174307355915490
13134695 92 18266735973043451773
13140716 1 18340202982291046720
13965767 371 17773873276154410514
14790565 3 17544754994291236340
14840074 17 18051683636761282096
14866123 147 17612579030570300634
15420108 30 17342649295481210964
17357779 13 18270382954159738677
17980427 23 17417808517300464927
1813 80 18410863174311815126
20905425 154 18270696349586795661
21041028 32 18410288142282768925
21304304 249 17904480701621085820
22182313 1 17774165561674718470
23559900 14 16660639730331950543
24893992 56 18113612371466030013
3052486 1 18264506021675654068
469060 322 17241322461525514710
474 4 18052826029020553799
484985 159 17389925787220596362
5104073 3 18195223570192401610
513202 73 18267022757022454394
5283268 108 18411427227670566805
56638632 10 16626834206011823952
7064713 232 17417827140199409363

> <PUBCHEM_SHAPE_MULTIPOLES>
515.82
9.15
4.35
1.58
0.41
4.25
0.27
-8.17
-4.41
1.77
0.27
0.18
-0.37
-0.51

> <PUBCHEM_SHAPE_SELFOVERLAP>
1124.175

> <PUBCHEM_SHAPE_VOLUME>
284.4

> <PUBCHEM_COORDINATE_TYPE>
2
5
10

$$$$
