26743189
  -OEChem-12032416193D

 59 62  0     1  0  0  0  0  0999 V2000
    1.7462    1.6210    1.6293 O   0  0  0  0  0  0  0  0  0  0  0  0
    0.3718   -3.6227    0.1503 O   0  0  0  0  0  0  0  0  0  0  0  0
   -2.4517   -1.8455   -0.4706 O   0  0  0  0  0  0  0  0  0  0  0  0
    6.4405   -0.6106    0.0344 N   0  0  0  0  0  0  0  0  0  0  0  0
    1.6222    2.9064   -0.3029 N   0  0  0  0  0  0  0  0  0  0  0  0
    1.6584   -3.5688   -0.3722 N   0  0  0  0  0  0  0  0  0  0  0  0
   -2.5617    3.2832   -1.6294 N   0  0  0  0  0  0  0  0  0  0  0  0
    3.5588   -0.2029    0.5199 C   0  0  1  0  0  0  0  0  0  0  0  0
    4.1066   -1.3794   -0.3227 C   0  0  2  0  0  0  0  0  0  0  0  0
    4.6518    0.2689    1.4935 C   0  0  0  0  0  0  0  0  0  0  0  0
    5.4606   -1.0354   -0.9659 C   0  0  0  0  0  0  0  0  0  0  0  0
    5.9778    0.5523    0.7889 C   0  0  0  0  0  0  0  0  0  0  0  0
    3.1180   -1.8695   -1.3815 C   0  0  0  0  0  0  0  0  0  0  0  0
    3.0293    0.9691   -0.3152 C   0  0  0  0  0  0  0  0  0  0  0  0
    1.8208   -2.3008   -0.7606 C   0  0  0  0  0  0  0  0  0  0  0  0
    2.0716    1.8430    0.4663 C   0  0  0  0  0  0  0  0  0  0  0  0
    0.6817   -1.5161   -0.5112 C   0  0  0  0  0  0  0  0  0  0  0  0
   -0.1996   -2.3944    0.0619 C   0  0  0  0  0  0  0  0  0  0  0  0
    0.6957    3.9001    0.1893 C   0  0  0  0  0  0  0  0  0  0  0  0
   -1.5702   -2.2711    0.5723 C   0  0  0  0  0  0  0  0  0  0  0  0
   -0.7321    3.5124   -0.0659 C   0  0  0  0  0  0  0  0  0  0  0  0
   -1.5419    3.0422    0.9620 C   0  0  0  0  0  0  0  0  0  0  0  0
   -1.2849    3.6134   -1.3324 C   0  0  0  0  0  0  0  0  0  0  0  0
   -3.7532   -1.6264   -0.1163 C   0  0  0  0  0  0  0  0  0  0  0  0
   -2.8610    2.6923    0.6957 C   0  0  0  0  0  0  0  0  0  0  0  0
   -3.3185    2.8301   -0.6049 C   0  0  0  0  0  0  0  0  0  0  0  0
   -4.1587   -1.8198    1.2043 C   0  0  0  0  0  0  0  0  0  0  0  0
   -4.6763   -1.2095   -1.0752 C   0  0  0  0  0  0  0  0  0  0  0  0
   -5.4872   -1.5963    1.5660 C   0  0  0  0  0  0  0  0  0  0  0  0
   -6.0047   -0.9859   -0.7138 C   0  0  0  0  0  0  0  0  0  0  0  0
   -6.4103   -1.1793    0.6068 C   0  0  0  0  0  0  0  0  0  0  0  0
    2.7436   -0.5895    1.1445 H   0  0  0  0  0  0  0  0  0  0  0  0
    4.2861   -2.2130    0.3745 H   0  0  0  0  0  0  0  0  0  0  0  0
    4.8128   -0.5132    2.2480 H   0  0  0  0  0  0  0  0  0  0  0  0
    4.3343    1.1617    2.0435 H   0  0  0  0  0  0  0  0  0  0  0  0
    5.8560   -1.9205   -1.4775 H   0  0  0  0  0  0  0  0  0  0  0  0
    5.3420   -0.2558   -1.7285 H   0  0  0  0  0  0  0  0  0  0  0  0
    6.7321    0.7976    1.5450 H   0  0  0  0  0  0  0  0  0  0  0  0
    5.9011    1.4259    0.1324 H   0  0  0  0  0  0  0  0  0  0  0  0
    3.5548   -2.7315   -1.9050 H   0  0  0  0  0  0  0  0  0  0  0  0
    2.9381   -1.1251   -2.1641 H   0  0  0  0  0  0  0  0  0  0  0  0
    2.4780    0.6402   -1.1981 H   0  0  0  0  0  0  0  0  0  0  0  0
    3.8457    1.5988   -0.6849 H   0  0  0  0  0  0  0  0  0  0  0  0
    7.3196   -0.3839   -0.4297 H   0  0  0  0  0  0  0  0  0  0  0  0
    0.5038   -0.4732   -0.7228 H   0  0  0  0  0  0  0  0  0  0  0  0
    1.9390    2.9926   -1.2644 H   0  0  0  0  0  0  0  0  0  0  0  0
    0.9226    4.8457   -0.3159 H   0  0  0  0  0  0  0  0  0  0  0  0
    0.8706    4.0563    1.2602 H   0  0  0  0  0  0  0  0  0  0  0  0
   -1.5455   -1.5263    1.3783 H   0  0  0  0  0  0  0  0  0  0  0  0
   -1.8966   -3.2427    0.9646 H   0  0  0  0  0  0  0  0  0  0  0  0
   -1.1568    2.9419    1.9730 H   0  0  0  0  0  0  0  0  0  0  0  0
   -0.7027    3.9738   -2.1749 H   0  0  0  0  0  0  0  0  0  0  0  0
   -3.5100    2.3211    1.4806 H   0  0  0  0  0  0  0  0  0  0  0  0
   -4.3391    2.5688   -0.8649 H   0  0  0  0  0  0  0  0  0  0  0  0
   -3.5014   -2.1462    2.0025 H   0  0  0  0  0  0  0  0  0  0  0  0
   -4.3659   -1.0563   -2.1052 H   0  0  0  0  0  0  0  0  0  0  0  0
   -5.8044   -1.7472    2.5937 H   0  0  0  0  0  0  0  0  0  0  0  0
   -6.7233   -0.6607   -1.4604 H   0  0  0  0  0  0  0  0  0  0  0  0
   -7.4447   -1.0052    0.8883 H   0  0  0  0  0  0  0  0  0  0  0  0
  1 16  2  0  0  0  0
  2  6  1  0  0  0  0
  2 18  1  0  0  0  0
  3 20  1  0  0  0  0
  3 24  1  0  0  0  0
  4 11  1  0  0  0  0
  4 12  1  0  0  0  0
  4 44  1  0  0  0  0
  5 16  1  0  0  0  0
  5 19  1  0  0  0  0
  5 46  1  0  0  0  0
  6 15  2  0  0  0  0
  7 23  1  0  0  0  0
  7 26  2  0  0  0  0
  8  9  1  0  0  0  0
  8 10  1  0  0  0  0
  8 14  1  0  0  0  0
  8 32  1  0  0  0  0
  9 11  1  0  0  0  0
  9 13  1  0  0  0  0
  9 33  1  0  0  0  0
 10 12  1  0  0  0  0
 10 34  1  0  0  0  0
 10 35  1  0  0  0  0
 11 36  1  0  0  0  0
 11 37  1  0  0  0  0
 12 38  1  0  0  0  0
 12 39  1  0  0  0  0
 13 15  1  0  0  0  0
 13 40  1  0  0  0  0
 13 41  1  0  0  0  0
 14 16  1  0  0  0  0
 14 42  1  0  0  0  0
 14 43  1  0  0  0  0
 15 17  1  0  0  0  0
 17 18  2  0  0  0  0
 17 45  1  0  0  0  0
 18 20  1  0  0  0  0
 19 21  1  0  0  0  0
 19 47  1  0  0  0  0
 19 48  1  0  0  0  0
 20 49  1  0  0  0  0
 20 50  1  0  0  0  0
 21 22  1  0  0  0  0
 21 23  2  0  0  0  0
 22 25  2  0  0  0  0
 22 51  1  0  0  0  0
 23 52  1  0  0  0  0
 24 27  2  0  0  0  0
 24 28  1  0  0  0  0
 25 26  1  0  0  0  0
 25 53  1  0  0  0  0
 26 54  1  0  0  0  0
 27 29  1  0  0  0  0
 27 55  1  0  0  0  0
 28 30  2  0  0  0  0
 28 56  1  0  0  0  0
 29 31  2  0  0  0  0
 29 57  1  0  0  0  0
 30 31  1  0  0  0  0
 30 58  1  0  0  0  0
 31 59  1  0  0  0  0
M  END
> <PUBCHEM_COMPOUND_CID>
26743189

> <PUBCHEM_CONFORMER_RMSD>
1.4

> <PUBCHEM_CONFORMER_DIVERSEORDER>
2
18
60
41
38
129
16
99
71
139
27
49
156
9
115
79
146
87
10
21
57
142
30
80
5
98
1
125
141
24
23
128
56
97
164
20
123
68
131
144
103
111
130
6
107
140
94
84
91
136
158
159
83
43
37
46
92
151
19
66
11
100
33
70
162
152
109
118
90
22
132
31
121
88
35
61
106
137
13
45
157
120
63
69
93
39
160
32
96
143
47
75
147
44
14
114
126
148
59
54
3
29
161
86
85
117
51
127
65
8
105
40
166
124
116
42
167
119
134
155
15
133
135
53
48
25
110
36
163
122
58
55
26
34
12
73
4
101
77
150
64
74
52
17
62
50
145
7
102
95
138
89
78
104
108
113
72
28
67
165
81
153
112
149
154
82
76

> <PUBCHEM_MMFF94_PARTIAL_CHARGES>
40
1 -0.57
11 0.27
12 0.27
13 0.18
14 0.06
15 0.11
16 0.57
17 -0.15
18 -0.04
19 0.44
2 -0.02
20 0.46
21 -0.14
22 -0.15
23 0.16
24 0.08
25 -0.15
26 0.16
27 -0.15
28 -0.15
29 -0.15
3 -0.36
30 -0.15
31 -0.15
4 -0.9
44 0.36
45 0.15
46 0.37
5 -0.73
51 0.15
52 0.15
53 0.15
54 0.15
55 0.15
56 0.15
57 0.15
58 0.15
59 0.15
6 -0.41
7 -0.62

> <PUBCHEM_EFFECTIVE_ROTOR_COUNT>
11.2

> <PUBCHEM_PHARMACOPHORE_FEATURES>
11
1 1 acceptor
1 3 acceptor
1 4 cation
1 4 donor
1 5 donor
1 6 acceptor
1 7 acceptor
5 2 6 15 17 18 rings
6 24 27 28 29 30 31 rings
6 4 8 9 10 11 12 rings
6 7 21 22 23 25 26 rings

> <PUBCHEM_HEAVY_ATOM_COUNT>
31

> <PUBCHEM_ATOM_DEF_STEREO_COUNT>
2

> <PUBCHEM_ATOM_UDEF_STEREO_COUNT>
0

> <PUBCHEM_BOND_DEF_STEREO_COUNT>
0

> <PUBCHEM_BOND_UDEF_STEREO_COUNT>
0

> <PUBCHEM_ISOTOPIC_ATOM_COUNT>
0

> <PUBCHEM_COMPONENT_COUNT>
1

> <PUBCHEM_CACTVS_TAUTO_COUNT>
2

> <PUBCHEM_CONFORMER_ID>
0198119500000002

> <PUBCHEM_MMFF94_ENERGY>
62.4882

> <PUBCHEM_FEATURE_SELFOVERLAP>
55.823

> <PUBCHEM_SHAPE_FINGERPRINT>
10670039 82 18263945284073638622
10688039 33 18333452057830912228
11646440 116 18337117842736449203
11828532 37 17897449608894490467
12422481 6 18341349833443764705
12788726 201 18260544520236150266
13122387 1 17546725954856294757
13402501 40 18411979173986386523
13561361 72 18410289207619482656
14117953 113 18413108377240116271
14725015 67 18335127718046966625
150020 26 17832155192334938537
15483637 11 18194685860696349405
17627616 140 17899971634605985827
20764821 26 18266188244285380745
20775530 9 18411130347005355249
21360443 126 18189894227846246709
3052486 1 18336266748032777628
469060 322 18261690189803596553
484989 97 18270686338761846518
50150288 127 16126131711458251121
508706 21 18335985277008214299
550186 83 17897142810088684121
653340 110 18341331076640964256

> <PUBCHEM_SHAPE_MULTIPOLES>
600.43
13.55
5.58
1.33
1.04
4.31
-0.08
-7.11
-1.73
2.66
0.84
0.33
0.23
1.93

> <PUBCHEM_SHAPE_SELFOVERLAP>
1276.088

> <PUBCHEM_SHAPE_VOLUME>
331.1

> <PUBCHEM_COORDINATE_TYPE>
2
5
10

$$$$
