75536642
  -OEChem-12032416343D

 53 55  0     1  0  0  0  0  0999 V2000
   -3.0516    3.2365    1.5931 F   0  0  0  0  0  0  0  0  0  0  0  0
    4.5634    0.8941    0.6393 O   0  0  0  0  0  0  0  0  0  0  0  0
    5.3243   -2.0251   -0.4415 O   0  0  0  0  0  0  0  0  0  0  0  0
    1.0017    0.3864   -2.3076 O   0  0  0  0  0  0  0  0  0  0  0  0
   -4.7319   -1.2286   -1.9083 O   0  0  0  0  0  0  0  0  0  0  0  0
    2.1119   -0.9433    0.8802 N   0  0  0  0  0  0  0  0  0  0  0  0
    2.5102    1.4893   -0.9324 N   0  0  0  0  0  0  0  0  0  0  0  0
   -4.2460   -1.1327    0.3968 N   0  0  0  0  0  0  0  0  0  0  0  0
    3.5453   -1.2242    0.9244 C   0  0  1  0  0  0  0  0  0  0  0  0
    4.1661   -1.1873   -0.4610 C   0  0  1  0  0  0  0  0  0  0  0  0
    4.6033    0.2641   -0.6548 C   0  0  1  0  0  0  0  0  0  0  0  0
    4.2918   -0.1040    1.6303 C   0  0  0  0  0  0  0  0  0  0  0  0
    3.7033    1.0495   -1.5965 C   0  0  0  0  0  0  0  0  0  0  0  0
    1.3457   -2.1604    0.6407 C   0  0  0  0  0  0  0  0  0  0  0  0
   -0.1336   -1.8879    0.5758 C   0  0  0  0  0  0  0  0  0  0  0  0
    1.2355    1.1165   -1.3479 C   0  0  0  0  0  0  0  0  0  0  0  0
   -0.8525   -1.6600    1.7493 C   0  0  0  0  0  0  0  0  0  0  0  0
   -0.7854   -1.8638   -0.6572 C   0  0  0  0  0  0  0  0  0  0  0  0
    0.1013    1.6780   -0.5699 C   0  0  0  0  0  0  0  0  0  0  0  0
   -2.2232   -1.4083    1.6898 C   0  0  0  0  0  0  0  0  0  0  0  0
   -2.1561   -1.6121   -0.7167 C   0  0  0  0  0  0  0  0  0  0  0  0
   -2.8749   -1.3844    0.4568 C   0  0  0  0  0  0  0  0  0  0  0  0
   -1.1424    1.8518   -1.1770 C   0  0  0  0  0  0  0  0  0  0  0  0
    0.2797    2.0308    0.7678 C   0  0  0  0  0  0  0  0  0  0  0  0
   -2.2076    2.3786   -0.4468 C   0  0  0  0  0  0  0  0  0  0  0  0
   -0.7854    2.5576    1.4982 C   0  0  0  0  0  0  0  0  0  0  0  0
   -2.0290    2.7315    0.8909 C   0  0  0  0  0  0  0  0  0  0  0  0
   -5.0651   -1.0698   -0.7384 C   0  0  0  0  0  0  0  0  0  0  0  0
   -6.4990   -0.7730   -0.3773 C   0  0  0  0  0  0  0  0  0  0  0  0
    3.7359   -2.1603    1.4636 H   0  0  0  0  0  0  0  0  0  0  0  0
    3.5201   -1.5648   -1.2596 H   0  0  0  0  0  0  0  0  0  0  0  0
    5.6347    0.3138   -1.0234 H   0  0  0  0  0  0  0  0  0  0  0  0
    3.7462    0.3457    2.4658 H   0  0  0  0  0  0  0  0  0  0  0  0
    5.2553   -0.4602    2.0138 H   0  0  0  0  0  0  0  0  0  0  0  0
    3.4806    0.4885   -2.5096 H   0  0  0  0  0  0  0  0  0  0  0  0
    4.2198    1.9695   -1.8938 H   0  0  0  0  0  0  0  0  0  0  0  0
    1.8198   -0.5479    1.7742 H   0  0  0  0  0  0  0  0  0  0  0  0
    1.5252   -2.8946    1.4373 H   0  0  0  0  0  0  0  0  0  0  0  0
    1.6638   -2.6384   -0.2939 H   0  0  0  0  0  0  0  0  0  0  0  0
    5.7334   -1.9748   -1.3224 H   0  0  0  0  0  0  0  0  0  0  0  0
    2.6289    2.1613   -0.1818 H   0  0  0  0  0  0  0  0  0  0  0  0
   -0.3559   -1.6760    2.7158 H   0  0  0  0  0  0  0  0  0  0  0  0
   -0.2381   -2.0436   -1.5786 H   0  0  0  0  0  0  0  0  0  0  0  0
   -2.7706   -1.2313    2.6121 H   0  0  0  0  0  0  0  0  0  0  0  0
   -2.5899   -1.6087   -1.7068 H   0  0  0  0  0  0  0  0  0  0  0  0
   -1.3009    1.5854   -2.2187 H   0  0  0  0  0  0  0  0  0  0  0  0
    1.2232    1.8915    1.2865 H   0  0  0  0  0  0  0  0  0  0  0  0
   -4.6983   -0.9758    1.2951 H   0  0  0  0  0  0  0  0  0  0  0  0
   -3.1765    2.5126   -0.9186 H   0  0  0  0  0  0  0  0  0  0  0  0
   -0.6490    2.8270    2.5414 H   0  0  0  0  0  0  0  0  0  0  0  0
   -7.1045   -0.7093   -1.2856 H   0  0  0  0  0  0  0  0  0  0  0  0
   -6.8930   -1.5713    0.2577 H   0  0  0  0  0  0  0  0  0  0  0  0
   -6.5575    0.1806    0.1550 H   0  0  0  0  0  0  0  0  0  0  0  0
  1 27  1  0  0  0  0
  2 11  1  0  0  0  0
  2 12  1  0  0  0  0
  3 10  1  0  0  0  0
  3 40  1  0  0  0  0
  4 16  2  0  0  0  0
  5 28  2  0  0  0  0
  6  9  1  0  0  0  0
  6 14  1  0  0  0  0
  6 37  1  0  0  0  0
  7 13  1  0  0  0  0
  7 16  1  0  0  0  0
  7 41  1  0  0  0  0
  8 22  1  0  0  0  0
  8 28  1  0  0  0  0
  8 48  1  0  0  0  0
  9 10  1  0  0  0  0
  9 12  1  0  0  0  0
  9 30  1  0  0  0  0
 10 11  1  0  0  0  0
 10 31  1  0  0  0  0
 11 13  1  0  0  0  0
 11 32  1  0  0  0  0
 12 33  1  0  0  0  0
 12 34  1  0  0  0  0
 13 35  1  0  0  0  0
 13 36  1  0  0  0  0
 14 15  1  0  0  0  0
 14 38  1  0  0  0  0
 14 39  1  0  0  0  0
 15 17  2  0  0  0  0
 15 18  1  0  0  0  0
 16 19  1  0  0  0  0
 17 20  1  0  0  0  0
 17 42  1  0  0  0  0
 18 21  2  0  0  0  0
 18 43  1  0  0  0  0
 19 23  2  0  0  0  0
 19 24  1  0  0  0  0
 20 22  2  0  0  0  0
 20 44  1  0  0  0  0
 21 22  1  0  0  0  0
 21 45  1  0  0  0  0
 23 25  1  0  0  0  0
 23 46  1  0  0  0  0
 24 26  2  0  0  0  0
 24 47  1  0  0  0  0
 25 27  2  0  0  0  0
 25 49  1  0  0  0  0
 26 27  1  0  0  0  0
 26 50  1  0  0  0  0
 28 29  1  0  0  0  0
 29 51  1  0  0  0  0
 29 52  1  0  0  0  0
 29 53  1  0  0  0  0
M  END
> <PUBCHEM_COMPOUND_CID>
75536642

> <PUBCHEM_CONFORMER_RMSD>
1

> <PUBCHEM_CONFORMER_DIVERSEORDER>
3
49
100
68
9
197
208
164
32
185
157
93
103
10
14
97
194
119
89
150
81
122
196
50
191
190
34
200
126
86
78
65
109
148
48
131
13
202
177
94
43
95
153
84
74
27
63
182
57
4
62
179
151
188
41
23
120
187
168
155
145
112
20
175
25
212
51
129
184
37
30
160
16
161
7
162
210
166
173
137
28
108
147
125
118
87
1
61
205
128
26
104
143
60
64
88
116
207
163
186
123
90
35
136
91
169
72
158
139
176
22
92
133
167
165
183
203
121
132
144
204
99
152
142
76
117
98
105
24
42
79
66
211
69
17
141
181
172
138
73
113
47
114
146
19
174
15
38
135
21
149
124
192
127
189
71
5
46
85
44
193
107
134
31
180
178
140
77
75
171
201
199
53
206
130
58
70
111
195
209
40
96
102
106
54
83
156
36
45
159
12
6
110
170
82
33
154
80
56
101
2
8
52
18
67
29
39
55
59
11
198
115

> <PUBCHEM_MMFF94_PARTIAL_CHARGES>
41
1 -0.19
10 0.28
11 0.28
12 0.28
13 0.3
14 0.41
15 -0.14
16 0.54
17 -0.15
18 -0.15
19 0.09
2 -0.56
20 -0.15
21 -0.15
22 0.12
23 -0.15
24 -0.15
25 -0.15
26 -0.15
27 0.19
28 0.57
29 0.06
3 -0.68
37 0.36
4 -0.57
40 0.4
41 0.37
42 0.15
43 0.15
44 0.15
45 0.15
46 0.15
47 0.15
48 0.37
49 0.15
5 -0.57
50 0.15
6 -0.9
7 -0.73
8 -0.55
9 0.27

> <PUBCHEM_EFFECTIVE_ROTOR_COUNT>
10

> <PUBCHEM_PHARMACOPHORE_FEATURES>
12
1 2 acceptor
1 3 acceptor
1 3 donor
1 4 acceptor
1 5 acceptor
1 6 cation
1 6 donor
1 7 donor
1 8 donor
5 2 9 10 11 12 rings
6 15 17 18 20 21 22 rings
6 19 23 24 25 26 27 rings

> <PUBCHEM_HEAVY_ATOM_COUNT>
29

> <PUBCHEM_ATOM_DEF_STEREO_COUNT>
3

> <PUBCHEM_ATOM_UDEF_STEREO_COUNT>
0

> <PUBCHEM_BOND_DEF_STEREO_COUNT>
0

> <PUBCHEM_BOND_UDEF_STEREO_COUNT>
0

> <PUBCHEM_ISOTOPIC_ATOM_COUNT>
0

> <PUBCHEM_COMPONENT_COUNT>
1

> <PUBCHEM_CACTVS_TAUTO_COUNT>
6

> <PUBCHEM_CONFORMER_ID>
0480990200000003

> <PUBCHEM_MMFF94_ENERGY>
71.2516

> <PUBCHEM_FEATURE_SELFOVERLAP>
60.898

> <PUBCHEM_SHAPE_FINGERPRINT>
104564 63 18336840748530921728
11513181 2 18198633133168119894
11646440 116 18341339993531154131
12107698 1 18411980231160771414
12166972 35 18041000691464467911
12422481 6 18120685481541886537
12788726 201 18340784726636285348
14251757 17 17241026752631864815
14464042 87 18410293614382249275
16752209 62 18410020939756578884
17349148 13 18261398827458560709
17357779 13 18409722976110548027
23557571 272 18131071489362291635
23559900 14 18045222888987666748
24893992 56 18113335350391887323
2818148 4 17826512163733598018
3027735 51 18338239267176476123
469060 322 17385725746837474318
6287921 2 17263852377864323673

> <PUBCHEM_SHAPE_MULTIPOLES>
551.11
10.46
3.31
1.8
2.28
1.75
0.02
-4.26
2.11
1.51
-0.96
0.07
0.36
-1.23

> <PUBCHEM_SHAPE_SELFOVERLAP>
1170.915

> <PUBCHEM_SHAPE_VOLUME>
308.5

> <PUBCHEM_COORDINATE_TYPE>
2
5
10

$$$$
