45361421
  -OEChem-12032416313D

 81 83  0     1  0  0  0  0  0999 V2000
   -0.2767   -2.8638   -1.3458 O   0  0  0  0  0  0  0  0  0  0  0  0
    4.4769   -2.7640    1.0965 O   0  0  0  0  0  0  0  0  0  0  0  0
   -5.4545    1.6582   -1.8353 O   0  0  0  0  0  0  0  0  0  0  0  0
    6.1002    3.9149    0.5855 O   0  0  0  0  0  0  0  0  0  0  0  0
   -4.8192   -0.0646   -0.4117 N   0  0  0  0  0  0  0  0  0  0  0  0
    4.1189   -1.8849   -1.0199 N   0  0  0  0  0  0  0  0  0  0  0  0
   -0.7395    0.1536    0.9469 C   0  0  1  0  0  0  0  0  0  0  0  0
   -1.0469   -0.8427   -0.2200 C   0  0  2  0  0  0  0  0  0  0  0  0
   -2.5853   -1.1500   -0.3021 C   0  0  1  0  0  0  0  0  0  0  0  0
   -0.1187   -2.0898   -0.1558 C   0  0  2  0  0  0  0  0  0  0  0  0
    0.7628    0.5221    0.9285 C   0  0  0  0  0  0  0  0  0  0  0  0
   -1.5457    1.4542    0.7250 C   0  0  0  0  0  0  0  0  0  0  0  0
    1.3786   -1.7128   -0.0693 C   0  0  1  0  0  0  0  0  0  0  0  0
   -3.3912    0.1712   -0.4497 C   0  0  2  0  0  0  0  0  0  0  0  0
    1.6743   -0.6937    1.0310 C   0  0  0  0  0  0  0  0  0  0  0  0
   -3.0446    1.2160    0.6108 C   0  0  0  0  0  0  0  0  0  0  0  0
   -1.0909   -0.4335    2.3374 C   0  0  0  0  0  0  0  0  0  0  0  0
    2.2662   -2.9483    0.1248 C   0  0  2  0  0  0  0  0  0  0  0  0
   -2.9626   -2.1032   -1.4487 C   0  0  0  0  0  0  0  0  0  0  0  0
    1.8774   -3.6779    1.4058 C   0  0  0  0  0  0  0  0  0  0  0  0
    3.7348   -2.5357    0.1435 C   0  0  0  0  0  0  0  0  0  0  0  0
   -5.7314    0.7038   -1.1117 C   0  0  0  0  0  0  0  0  0  0  0  0
   -7.1689    0.2581   -0.8983 C   0  0  0  0  0  0  0  0  0  0  0  0
   -7.8692    0.8976    0.3241 C   0  0  0  0  0  0  0  0  0  0  0  0
    5.4615   -1.3975   -1.2355 C   0  0  0  0  0  0  0  0  0  0  0  0
   -9.3101    0.3802    0.4703 C   0  0  0  0  0  0  0  0  0  0  0  0
   -7.0793    0.5024    1.5874 C   0  0  0  0  0  0  0  0  0  0  0  0
   -7.8886    2.4315    0.2236 C   0  0  0  0  0  0  0  0  0  0  0  0
    5.6312    0.0138   -0.7523 C   0  0  0  0  0  0  0  0  0  0  0  0
    5.1060    1.0730   -1.4926 C   0  0  0  0  0  0  0  0  0  0  0  0
    6.3141    0.2658    0.4375 C   0  0  0  0  0  0  0  0  0  0  0  0
    5.2638    2.3840   -1.0432 C   0  0  0  0  0  0  0  0  0  0  0  0
    6.4721    1.5767    0.8870 C   0  0  0  0  0  0  0  0  0  0  0  0
    5.9470    2.6358    0.1466 C   0  0  0  0  0  0  0  0  0  0  0  0
    5.5373    4.9494   -0.2202 C   0  0  0  0  0  0  0  0  0  0  0  0
   -0.8010   -0.3300   -1.1639 H   0  0  0  0  0  0  0  0  0  0  0  0
   -2.8971   -1.6486    0.6244 H   0  0  0  0  0  0  0  0  0  0  0  0
   -0.4487   -2.7080    0.6807 H   0  0  0  0  0  0  0  0  0  0  0  0
    0.9946    1.2142    1.7484 H   0  0  0  0  0  0  0  0  0  0  0  0
    1.0007    1.0587    0.0000 H   0  0  0  0  0  0  0  0  0  0  0  0
   -1.3573    2.1623    1.5420 H   0  0  0  0  0  0  0  0  0  0  0  0
   -1.2029    1.9483   -0.1940 H   0  0  0  0  0  0  0  0  0  0  0  0
    1.6332   -1.2382   -1.0264 H   0  0  0  0  0  0  0  0  0  0  0  0
   -3.1547    0.6037   -1.4317 H   0  0  0  0  0  0  0  0  0  0  0  0
    2.7068   -0.3324    0.9607 H   0  0  0  0  0  0  0  0  0  0  0  0
    1.5716   -1.1134    2.0338 H   0  0  0  0  0  0  0  0  0  0  0  0
   -3.5370    2.1671    0.3699 H   0  0  0  0  0  0  0  0  0  0  0  0
   -3.4526    0.9168    1.5839 H   0  0  0  0  0  0  0  0  0  0  0  0
   -0.5659   -1.3708    2.5414 H   0  0  0  0  0  0  0  0  0  0  0  0
   -0.8196    0.2710    3.1325 H   0  0  0  0  0  0  0  0  0  0  0  0
   -2.1571   -0.6456    2.4515 H   0  0  0  0  0  0  0  0  0  0  0  0
    2.1417   -3.6388   -0.7193 H   0  0  0  0  0  0  0  0  0  0  0  0
   -2.6189   -3.1212   -1.2450 H   0  0  0  0  0  0  0  0  0  0  0  0
   -4.0471   -2.1820   -1.5755 H   0  0  0  0  0  0  0  0  0  0  0  0
   -2.5416   -1.7654   -2.4012 H   0  0  0  0  0  0  0  0  0  0  0  0
   -5.1565   -0.8106    0.1891 H   0  0  0  0  0  0  0  0  0  0  0  0
   -0.0393   -2.3039   -2.1046 H   0  0  0  0  0  0  0  0  0  0  0  0
    0.8662   -4.0897    1.3762 H   0  0  0  0  0  0  0  0  0  0  0  0
    2.5385   -4.5444    1.5389 H   0  0  0  0  0  0  0  0  0  0  0  0
    1.9941   -3.0827    2.3144 H   0  0  0  0  0  0  0  0  0  0  0  0
   -7.1913   -0.8368   -0.8188 H   0  0  0  0  0  0  0  0  0  0  0  0
   -7.7229    0.5032   -1.8139 H   0  0  0  0  0  0  0  0  0  0  0  0
    3.4593   -1.7815   -1.7841 H   0  0  0  0  0  0  0  0  0  0  0  0
    5.6659   -1.4514   -2.3110 H   0  0  0  0  0  0  0  0  0  0  0  0
    6.1734   -2.0690   -0.7415 H   0  0  0  0  0  0  0  0  0  0  0  0
   -9.8047    0.8124    1.3473 H   0  0  0  0  0  0  0  0  0  0  0  0
   -9.3282   -0.7100    0.5792 H   0  0  0  0  0  0  0  0  0  0  0  0
   -9.9078    0.6370   -0.4113 H   0  0  0  0  0  0  0  0  0  0  0  0
   -7.6139    0.8225    2.4902 H   0  0  0  0  0  0  0  0  0  0  0  0
   -6.9507   -0.5833    1.6589 H   0  0  0  0  0  0  0  0  0  0  0  0
   -6.0947    0.9775    1.6313 H   0  0  0  0  0  0  0  0  0  0  0  0
   -6.8785    2.8545    0.2136 H   0  0  0  0  0  0  0  0  0  0  0  0
   -8.4174    2.8757    1.0747 H   0  0  0  0  0  0  0  0  0  0  0  0
   -8.3979    2.7563   -0.6905 H   0  0  0  0  0  0  0  0  0  0  0  0
    4.5713    0.8875   -2.4206 H   0  0  0  0  0  0  0  0  0  0  0  0
    6.7267   -0.5498    1.0254 H   0  0  0  0  0  0  0  0  0  0  0  0
    4.8306    3.1586   -1.6668 H   0  0  0  0  0  0  0  0  0  0  0  0
    7.0044    1.7667    1.8150 H   0  0  0  0  0  0  0  0  0  0  0  0
    5.7529    5.9004    0.2779 H   0  0  0  0  0  0  0  0  0  0  0  0
    4.4474    4.8618   -0.2839 H   0  0  0  0  0  0  0  0  0  0  0  0
    6.0090    4.9919   -1.2079 H   0  0  0  0  0  0  0  0  0  0  0  0
  1 10  1  0  0  0  0
  1 57  1  0  0  0  0
  2 21  2  0  0  0  0
  3 22  2  0  0  0  0
  4 34  1  0  0  0  0
  4 35  1  0  0  0  0
  5 14  1  0  0  0  0
  5 22  1  0  0  0  0
  5 56  1  0  0  0  0
  6 21  1  0  0  0  0
  6 25  1  0  0  0  0
  6 63  1  0  0  0  0
  7  8  1  0  0  0  0
  7 11  1  0  0  0  0
  7 12  1  0  0  0  0
  7 17  1  0  0  0  0
  8  9  1  0  0  0  0
  8 10  1  0  0  0  0
  8 36  1  0  0  0  0
  9 14  1  0  0  0  0
  9 19  1  0  0  0  0
  9 37  1  0  0  0  0
 10 13  1  0  0  0  0
 10 38  1  0  0  0  0
 11 15  1  0  0  0  0
 11 39  1  0  0  0  0
 11 40  1  0  0  0  0
 12 16  1  0  0  0  0
 12 41  1  0  0  0  0
 12 42  1  0  0  0  0
 13 15  1  0  0  0  0
 13 18  1  0  0  0  0
 13 43  1  0  0  0  0
 14 16  1  0  0  0  0
 14 44  1  0  0  0  0
 15 45  1  0  0  0  0
 15 46  1  0  0  0  0
 16 47  1  0  0  0  0
 16 48  1  0  0  0  0
 17 49  1  0  0  0  0
 17 50  1  0  0  0  0
 17 51  1  0  0  0  0
 18 20  1  0  0  0  0
 18 21  1  0  0  0  0
 18 52  1  0  0  0  0
 19 53  1  0  0  0  0
 19 54  1  0  0  0  0
 19 55  1  0  0  0  0
 20 58  1  0  0  0  0
 20 59  1  0  0  0  0
 20 60  1  0  0  0  0
 22 23  1  0  0  0  0
 23 24  1  0  0  0  0
 23 61  1  0  0  0  0
 23 62  1  0  0  0  0
 24 26  1  0  0  0  0
 24 27  1  0  0  0  0
 24 28  1  0  0  0  0
 25 29  1  0  0  0  0
 25 64  1  0  0  0  0
 25 65  1  0  0  0  0
 26 66  1  0  0  0  0
 26 67  1  0  0  0  0
 26 68  1  0  0  0  0
 27 69  1  0  0  0  0
 27 70  1  0  0  0  0
 27 71  1  0  0  0  0
 28 72  1  0  0  0  0
 28 73  1  0  0  0  0
 28 74  1  0  0  0  0
 29 30  2  0  0  0  0
 29 31  1  0  0  0  0
 30 32  1  0  0  0  0
 30 75  1  0  0  0  0
 31 33  2  0  0  0  0
 31 76  1  0  0  0  0
 32 34  2  0  0  0  0
 32 77  1  0  0  0  0
 33 34  1  0  0  0  0
 33 78  1  0  0  0  0
 35 79  1  0  0  0  0
 35 80  1  0  0  0  0
 35 81  1  0  0  0  0
M  END
> <PUBCHEM_COMPOUND_CID>
45361421

> <PUBCHEM_CONFORMER_RMSD>
1.2

> <PUBCHEM_CONFORMER_DIVERSEORDER>
1
3
73
61
104
127
25
35
36
84
59
58
77
101
28
124
76
108
69
97
40
12
96
42
9
122
121
99
113
55
45
82
89
34
83
81
66
90
120
27
52
125
24
126
94
48
50
85
102
105
92
49
68
110
53
80
103
29
13
39
26
38
116
57
4
75
17
32
93
20
43
63
129
119
54
56
7
111
118
78
86
106
2
46
5
51
71
74
112
60
16
23
114
72
123
18
65
87
19
70
98
95
64
41
44
47
91
37
8
14
100
31
117
67
30
109
33
21
88
62
115
128
11
15
79
10
6
22
107

> <PUBCHEM_MMFF94_PARTIAL_CHARGES>
27
1 -0.68
10 0.28
14 0.3
18 0.06
2 -0.57
21 0.57
22 0.57
23 0.06
25 0.44
29 -0.14
3 -0.57
30 -0.15
31 -0.15
32 -0.15
33 -0.15
34 0.08
35 0.28
4 -0.36
5 -0.73
56 0.37
57 0.4
6 -0.73
63 0.37
75 0.15
76 0.15
77 0.15
78 0.15

> <PUBCHEM_EFFECTIVE_ROTOR_COUNT>
11.6

> <PUBCHEM_PHARMACOPHORE_FEATURES>
12
1 1 acceptor
1 1 donor
1 2 acceptor
1 20 hydrophobe
1 3 acceptor
1 4 acceptor
1 5 donor
1 6 donor
4 24 26 27 28 hydrophobe
6 29 30 31 32 33 34 rings
6 7 8 10 11 13 15 rings
6 7 8 9 12 14 16 rings

> <PUBCHEM_HEAVY_ATOM_COUNT>
35

> <PUBCHEM_ATOM_DEF_STEREO_COUNT>
6

> <PUBCHEM_ATOM_UDEF_STEREO_COUNT>
1

> <PUBCHEM_BOND_DEF_STEREO_COUNT>
0

> <PUBCHEM_BOND_UDEF_STEREO_COUNT>
0

> <PUBCHEM_ISOTOPIC_ATOM_COUNT>
0

> <PUBCHEM_COMPONENT_COUNT>
1

> <PUBCHEM_CACTVS_TAUTO_COUNT>
4

> <PUBCHEM_CONFORMER_ID>
02B4290D00000001

> <PUBCHEM_MMFF94_ENERGY>
108.4578

> <PUBCHEM_FEATURE_SELFOVERLAP>
60.911

> <PUBCHEM_SHAPE_FINGERPRINT>
10673678 19 18413111658078386598
10675989 125 18411980300065059432
11007060 377 18333455348630735019
11135609 187 18199187480834491784
11211813 74 18410291385627207693
11374522 174 17753060672572843452
11456790 92 17749941160457298282
12124843 1 17843697792743315468
13165053 371 18335985281515334901
13617811 41 18342168981779768352
14117953 113 18412547639865343548
14251757 52 18411418397571227707
14461889 52 16950575367471642299
14849402 71 18343584049788154817
15064981 194 18197514006941017806
15160630 1 18058452191655283361
15183329 4 18202006529383787253
15276724 80 18340204086266356077
15840311 113 18410860944848989143
16728300 4 10809605043923803424
16992787 43 18342179977301961361
19053607 189 17981597480315950896
19302320 297 18260824939026010580
19319366 153 18337383846993617827
20157964 124 18408885123034000454
20715895 44 18337667616399625532
21033648 29 17895478145932652926
21049683 118 17604142714516318554
21521721 280 18409451358653688867
21781055 127 15625959629720518515
21792964 463 17700997460971722201
21792965 270 18116447001867272577
23522609 53 17702963456518806233
23569914 2 16882396841508268085
3044373 193 17022908934564310118
34797466 226 18130510742837876518
3534868 343 17559686036073675998
3552219 110 17917722275596421297
3711267 37 17988368070792160017
4112364 45 18041828593876958352
4149490 64 18186800257807558674
4340502 62 17240204300522713370
44317340 157 18409451375559257830
474113 269 10737280273667565977
5109719 28 18333454261081044112
5265222 85 18272931648706049799
57634706 280 18040716986750943098
6328613 192 18273497866923380419
6898599 12 17986670570203052334
9831232 110 12247672777339498332

> <PUBCHEM_SHAPE_MULTIPOLES>
686.84
23.68
4.33
1.52
31.38
1.84
-0.12
19.86
1.55
-9.63
-0.12
0.41
-0.28
-0.46

> <PUBCHEM_SHAPE_SELFOVERLAP>
1416.94

> <PUBCHEM_SHAPE_VOLUME>
391.9

> <PUBCHEM_COORDINATE_TYPE>
2
5
10

$$$$
