75537033
  -OEChem-12032416413D

 46 49  0     1  0  0  0  0  0999 V2000
    5.9853    3.6544   -0.5356 Cl  0  0  0  0  0  0  0  0  0  0  0  0
   -2.9670   -2.6107   -0.8133 O   0  0  0  0  0  0  0  0  0  0  0  0
    3.8381   -2.4674    0.7619 O   0  0  0  0  0  0  0  0  0  0  0  0
   -0.7784   -1.7903   -0.5752 N   0  0  0  0  0  0  0  0  0  0  0  0
   -2.4225   -0.3262   -1.0250 N   0  0  0  0  0  0  0  0  0  0  0  0
    1.7333   -1.4705    0.5706 N   0  0  0  0  0  0  0  0  0  0  0  0
   -5.2431    1.7672    0.0485 N   0  0  0  0  0  0  0  0  0  0  0  0
   -4.2123    0.1716    1.1989 N   0  0  0  0  0  0  0  0  0  0  0  0
   -0.0979   -0.5191   -0.7556 C   0  0  1  0  0  0  0  0  0  0  0  0
   -1.2367    0.4931   -0.8456 C   0  0  0  0  0  0  0  0  0  0  0  0
    0.8818   -0.2789    0.3885 C   0  0  0  0  0  0  0  0  0  0  0  0
   -0.0078   -2.9893   -0.2940 C   0  0  0  0  0  0  0  0  0  0  0  0
    0.9961   -2.7161    0.8247 C   0  0  0  0  0  0  0  0  0  0  0  0
   -2.1571   -1.6930   -0.8087 C   0  0  0  0  0  0  0  0  0  0  0  0
   -3.7254    0.2544   -1.2625 C   0  0  0  0  0  0  0  0  0  0  0  0
    3.1291   -1.4814    0.5665 C   0  0  0  0  0  0  0  0  0  0  0  0
   -4.3788    0.7085    0.0107 C   0  0  0  0  0  0  0  0  0  0  0  0
    3.8298   -0.2195    0.2959 C   0  0  0  0  0  0  0  0  0  0  0  0
   -5.6537    1.9148    1.3435 C   0  0  0  0  0  0  0  0  0  0  0  0
    4.1583    0.1284   -1.0144 C   0  0  0  0  0  0  0  0  0  0  0  0
    4.1681    0.6305    1.3488 C   0  0  0  0  0  0  0  0  0  0  0  0
   -5.6572    2.5892   -1.0640 C   0  0  0  0  0  0  0  0  0  0  0  0
   -5.0043    0.9190    2.0343 C   0  0  0  0  0  0  0  0  0  0  0  0
    4.8248    1.3263   -1.2718 C   0  0  0  0  0  0  0  0  0  0  0  0
    4.8346    1.8284    1.0916 C   0  0  0  0  0  0  0  0  0  0  0  0
    5.1629    2.1764   -0.2187 C   0  0  0  0  0  0  0  0  0  0  0  0
    0.4379   -0.5807   -1.7114 H   0  0  0  0  0  0  0  0  0  0  0  0
   -1.3548    1.0800    0.0712 H   0  0  0  0  0  0  0  0  0  0  0  0
   -1.1161    1.1686   -1.6979 H   0  0  0  0  0  0  0  0  0  0  0  0
    1.4675    0.6224    0.1964 H   0  0  0  0  0  0  0  0  0  0  0  0
    0.3516   -0.1289    1.3372 H   0  0  0  0  0  0  0  0  0  0  0  0
    0.5163   -3.2542   -1.2193 H   0  0  0  0  0  0  0  0  0  0  0  0
   -0.6810   -3.8120   -0.0346 H   0  0  0  0  0  0  0  0  0  0  0  0
    0.4741   -2.5864    1.7804 H   0  0  0  0  0  0  0  0  0  0  0  0
    1.6798   -3.5638    0.9318 H   0  0  0  0  0  0  0  0  0  0  0  0
   -4.3645   -0.5096   -1.7193 H   0  0  0  0  0  0  0  0  0  0  0  0
   -3.6002    1.0705   -1.9806 H   0  0  0  0  0  0  0  0  0  0  0  0
   -6.3456    2.6852    1.6541 H   0  0  0  0  0  0  0  0  0  0  0  0
    3.8985   -0.5265   -1.8421 H   0  0  0  0  0  0  0  0  0  0  0  0
    3.9167    0.3689    2.3734 H   0  0  0  0  0  0  0  0  0  0  0  0
   -4.7935    3.1626   -1.4096 H   0  0  0  0  0  0  0  0  0  0  0  0
   -6.0373    1.9404   -1.8571 H   0  0  0  0  0  0  0  0  0  0  0  0
   -6.4478    3.2702   -0.7384 H   0  0  0  0  0  0  0  0  0  0  0  0
   -5.0664    0.7022    3.0907 H   0  0  0  0  0  0  0  0  0  0  0  0
    5.0741    1.5847   -2.2977 H   0  0  0  0  0  0  0  0  0  0  0  0
    5.0917    2.4810    1.9220 H   0  0  0  0  0  0  0  0  0  0  0  0
  1 26  1  0  0  0  0
  2 14  2  0  0  0  0
  3 16  2  0  0  0  0
  4  9  1  0  0  0  0
  4 12  1  0  0  0  0
  4 14  1  0  0  0  0
  5 10  1  0  0  0  0
  5 14  1  0  0  0  0
  5 15  1  0  0  0  0
  6 11  1  0  0  0  0
  6 13  1  0  0  0  0
  6 16  1  0  0  0  0
  7 17  1  0  0  0  0
  7 19  1  0  0  0  0
  7 22  1  0  0  0  0
  8 17  2  0  0  0  0
  8 23  1  0  0  0  0
  9 10  1  0  0  0  0
  9 11  1  0  0  0  0
  9 27  1  0  0  0  0
 10 28  1  0  0  0  0
 10 29  1  0  0  0  0
 11 30  1  0  0  0  0
 11 31  1  0  0  0  0
 12 13  1  0  0  0  0
 12 32  1  0  0  0  0
 12 33  1  0  0  0  0
 13 34  1  0  0  0  0
 13 35  1  0  0  0  0
 15 17  1  0  0  0  0
 15 36  1  0  0  0  0
 15 37  1  0  0  0  0
 16 18  1  0  0  0  0
 18 20  2  0  0  0  0
 18 21  1  0  0  0  0
 19 23  2  0  0  0  0
 19 38  1  0  0  0  0
 20 24  1  0  0  0  0
 20 39  1  0  0  0  0
 21 25  2  0  0  0  0
 21 40  1  0  0  0  0
 22 41  1  0  0  0  0
 22 42  1  0  0  0  0
 22 43  1  0  0  0  0
 23 44  1  0  0  0  0
 24 26  2  0  0  0  0
 24 45  1  0  0  0  0
 25 26  1  0  0  0  0
 25 46  1  0  0  0  0
M  END
> <PUBCHEM_COMPOUND_CID>
75537033

> <PUBCHEM_CONFORMER_RMSD>
0.8

> <PUBCHEM_CONFORMER_DIVERSEORDER>
1
101
55
95
45
81
73
83
27
102
11
84
54
52
41
31
18
92
10
60
78
48
99
72
75
62
32
66
13
93
37
85
5
34
94
38
20
58
30
77
89
68
74
23
29
61
71
19
64
90
88
96
26
6
87
98
100
36
56
28
44
103
33
59
42
97
8
40
70
4
57
50
80
65
14
91
22
16
53
86
43
82
47
12
9
76
63
79
15
39
35
2
51
69
17
21
25
24
3
49
67
46
7

> <PUBCHEM_MMFF94_PARTIAL_CHARGES>
32
1 -0.18
10 0.3
11 0.3
12 0.3
13 0.3
14 0.69
15 0.48
16 0.54
17 0.01
18 0.09
19 -0.3
2 -0.57
20 -0.15
21 -0.15
22 0.26
23 0.08
24 -0.15
25 -0.15
26 0.18
3 -0.57
38 0.15
39 0.15
4 -0.66
40 0.15
44 0.15
45 0.15
46 0.15
5 -0.66
6 -0.66
7 0.05
8 -0.57
9 0.3

> <PUBCHEM_EFFECTIVE_ROTOR_COUNT>
5.2

> <PUBCHEM_PHARMACOPHORE_FEATURES>
7
1 2 acceptor
1 3 acceptor
3 7 8 17 cation
5 4 5 9 10 14 rings
5 7 8 17 19 23 rings
6 18 20 21 24 25 26 rings
6 4 6 9 11 12 13 rings

> <PUBCHEM_HEAVY_ATOM_COUNT>
26

> <PUBCHEM_ATOM_DEF_STEREO_COUNT>
1

> <PUBCHEM_ATOM_UDEF_STEREO_COUNT>
0

> <PUBCHEM_BOND_DEF_STEREO_COUNT>
0

> <PUBCHEM_BOND_UDEF_STEREO_COUNT>
0

> <PUBCHEM_ISOTOPIC_ATOM_COUNT>
0

> <PUBCHEM_COMPONENT_COUNT>
1

> <PUBCHEM_CACTVS_TAUTO_COUNT>
1

> <PUBCHEM_CONFORMER_ID>
04809A8900000001

> <PUBCHEM_MMFF94_ENERGY>
58.6035

> <PUBCHEM_FEATURE_SELFOVERLAP>
35.62

> <PUBCHEM_SHAPE_FINGERPRINT>
10693767 8 8790306791382076665
11112241 14 17967532355383474921
11135609 201 18118969328616804000
11720765 8 17702955726094371406
12390115 104 18341618164976491231
12422481 6 17676205736749083205
12596602 18 18334864883718859945
12616971 3 18260537901612555434
12788726 201 17632303328474167480
12839892 36 12829481545620987497
13540713 5 18266437923772894550
13782708 43 11531022102953103944
13828863 39 18409738373963670257
13878862 14 18118943837563902685
13885169 86 18336553827425663396
14251764 75 18412267263371352456
14790565 3 18411136943700088333
14840074 17 18201450151231755657
14848178 5 9007059041286301452
14950920 106 16806155562671100265
15163728 17 17846506928080278351
15183329 4 12967131575629617689
15188451 53 11602810346010217304
15238133 3 17560231419130679258
15348495 7 17822295643518653521
15575132 122 18059019372115042113
16067690 210 17060350620878652512
17349148 13 8142083199486044161
18222031 100 9367349232411694664
19315092 285 11674875615566063260
20621476 91 15719680947819413897
21120745 212 17910389816844291703
21365058 113 17552374180206001686
22122407 14 18266744567721917433
22393880 68 12895065168498334901
23559900 14 16299514842567066083
312425 54 15574713547922148097
3178227 256 18115591414338302714
3472631 163 18343301483082317860
34797466 226 14692268669779604795
350125 39 18263359205863583502
3680242 22 18261099799752799928
38570 142 18201174181906518200
392239 28 15357695322643740224
4258327 124 18410569613787679293
437795 70 15338854031239563153
5085150 59 13623525767343593441
5104073 3 18260258677262200282
550186 72 18410291433135546653
57724786 102 18127138468219855081
59682541 52 13757794738055504425
6034566 193 18411419544343294079
6058803 2 18266998692141658654
633830 44 18272365360940566942
636775 72 17835517503558202248
7808743 9 18412822520826921288
7970288 3 9727363428454402828
960060 61 13973965419966788176

> <PUBCHEM_SHAPE_MULTIPOLES>
500.29
15.38
3.64
1.47
2.63
0.14
0.32
-16.68
1.79
-2.04
-0.2
0.97
-0.39
-1.51

> <PUBCHEM_SHAPE_SELFOVERLAP>
1070.327

> <PUBCHEM_SHAPE_VOLUME>
280.2

> <PUBCHEM_COORDINATE_TYPE>
2
5
10

$$$$
