75536591
  -OEChem-12032416303D

 39 40  0     1  0  0  0  0  0999 V2000
    5.0974    0.6909   -1.0746 S   0  0  0  0  0  0  0  0  0  0  0  0
   -0.8162   -1.0830    0.3206 O   0  0  0  0  0  0  0  0  0  0  0  0
   -2.1259    2.2499    0.0349 O   0  0  0  0  0  0  0  0  0  0  0  0
    2.4810    1.8587   -0.3729 O   0  0  0  0  0  0  0  0  0  0  0  0
   -4.2903   -0.0057    0.3575 N   0  0  0  0  0  0  0  0  0  0  0  0
    1.6928    0.1538    0.9891 N   0  0  0  0  0  0  0  0  0  0  0  0
   -2.9144   -0.0561   -0.1094 C   0  0  1  0  0  0  0  0  0  0  0  0
   -2.0028    0.9474    0.5723 C   0  0  1  0  0  0  0  0  0  0  0  0
   -0.6349    0.3424    0.2865 C   0  0  1  0  0  0  0  0  0  0  0  0
   -2.2231   -1.3673    0.2269 C   0  0  0  0  0  0  0  0  0  0  0  0
    0.4242    0.7494    1.2954 C   0  0  0  0  0  0  0  0  0  0  0  0
   -5.1776   -0.7313   -0.5437 C   0  0  0  0  0  0  0  0  0  0  0  0
   -6.4507   -1.1198    0.2013 C   0  0  0  0  0  0  0  0  0  0  0  0
   -5.4976    0.1194   -1.7695 C   0  0  0  0  0  0  0  0  0  0  0  0
    2.6338    0.7661    0.1668 C   0  0  0  0  0  0  0  0  0  0  0  0
    3.8881    0.0071   -0.0735 C   0  0  0  0  0  0  0  0  0  0  0  0
    4.2546   -1.2304    0.4081 C   0  0  0  0  0  0  0  0  0  0  0  0
    5.5454   -1.6221   -0.0505 C   0  0  0  0  0  0  0  0  0  0  0  0
    6.1161   -0.6694   -0.8653 C   0  0  0  0  0  0  0  0  0  0  0  0
   -2.8512    0.1282   -1.1889 H   0  0  0  0  0  0  0  0  0  0  0  0
   -2.1989    0.9898    1.6509 H   0  0  0  0  0  0  0  0  0  0  0  0
   -0.2980    0.6047   -0.7251 H   0  0  0  0  0  0  0  0  0  0  0  0
   -2.5367   -1.7663    1.1985 H   0  0  0  0  0  0  0  0  0  0  0  0
   -2.3845   -2.1396   -0.5311 H   0  0  0  0  0  0  0  0  0  0  0  0
   -4.5971    0.9630    0.4417 H   0  0  0  0  0  0  0  0  0  0  0  0
    0.1551    0.3997    2.2982 H   0  0  0  0  0  0  0  0  0  0  0  0
    0.5315    1.8390    1.3251 H   0  0  0  0  0  0  0  0  0  0  0  0
   -4.7155   -1.6685   -0.8774 H   0  0  0  0  0  0  0  0  0  0  0  0
   -1.9533    2.2042   -0.9207 H   0  0  0  0  0  0  0  0  0  0  0  0
    1.8819   -0.7583    1.3903 H   0  0  0  0  0  0  0  0  0  0  0  0
   -6.2211   -1.7479    1.0693 H   0  0  0  0  0  0  0  0  0  0  0  0
   -7.1235   -1.6876   -0.4505 H   0  0  0  0  0  0  0  0  0  0  0  0
   -6.9943   -0.2370    0.5567 H   0  0  0  0  0  0  0  0  0  0  0  0
   -6.2130   -0.4013   -2.4164 H   0  0  0  0  0  0  0  0  0  0  0  0
   -4.6140    0.3298   -2.3789 H   0  0  0  0  0  0  0  0  0  0  0  0
   -5.9502    1.0772   -1.4877 H   0  0  0  0  0  0  0  0  0  0  0  0
    3.6464   -1.8452    1.0584 H   0  0  0  0  0  0  0  0  0  0  0  0
    6.0307   -2.5554    0.2040 H   0  0  0  0  0  0  0  0  0  0  0  0
    7.0826   -0.7071   -1.3478 H   0  0  0  0  0  0  0  0  0  0  0  0
  1 16  1  0  0  0  0
  1 19  1  0  0  0  0
  2  9  1  0  0  0  0
  2 10  1  0  0  0  0
  3  8  1  0  0  0  0
  3 29  1  0  0  0  0
  4 15  2  0  0  0  0
  5  7  1  0  0  0  0
  5 12  1  0  0  0  0
  5 25  1  0  0  0  0
  6 11  1  0  0  0  0
  6 15  1  0  0  0  0
  6 30  1  0  0  0  0
  7  8  1  0  0  0  0
  7 10  1  0  0  0  0
  7 20  1  0  0  0  0
  8  9  1  0  0  0  0
  8 21  1  0  0  0  0
  9 11  1  0  0  0  0
  9 22  1  0  0  0  0
 10 23  1  0  0  0  0
 10 24  1  0  0  0  0
 11 26  1  0  0  0  0
 11 27  1  0  0  0  0
 12 13  1  0  0  0  0
 12 14  1  0  0  0  0
 12 28  1  0  0  0  0
 13 31  1  0  0  0  0
 13 32  1  0  0  0  0
 13 33  1  0  0  0  0
 14 34  1  0  0  0  0
 14 35  1  0  0  0  0
 14 36  1  0  0  0  0
 15 16  1  0  0  0  0
 16 17  2  0  0  0  0
 17 18  1  0  0  0  0
 17 37  1  0  0  0  0
 18 19  2  0  0  0  0
 18 38  1  0  0  0  0
 19 39  1  0  0  0  0
M  END
> <PUBCHEM_COMPOUND_CID>
75536591

> <PUBCHEM_CONFORMER_RMSD>
0.8

> <PUBCHEM_CONFORMER_DIVERSEORDER>
1
39
26
89
84
31
92
103
28
45
62
65
23
80
101
81
34
36
29
91
10
72
30
78
107
50
52
51
95
46
42
94
44
53
70
21
105
69
99
41
74
96
71
58
76
73
68
19
100
55
37
82
88
86
63
49
9
38
18
79
90
35
11
40
64
77
83
109
2
66
8
14
32
4
22
59
75
108
6
93
33
60
87
102
15
57
25
61
20
43
97
104
17
27
98
56
67
54
47
12
16
106
3
13
24
48
7
85
5

> <PUBCHEM_MMFF94_PARTIAL_CHARGES>
23
1 -0.08
10 0.28
11 0.3
12 0.27
15 0.71
16 -0.05
17 -0.15
18 -0.15
19 -0.11
2 -0.56
25 0.36
29 0.4
3 -0.68
30 0.37
37 0.15
38 0.15
39 0.15
4 -0.57
5 -0.9
6 -0.73
7 0.27
8 0.28
9 0.28

> <PUBCHEM_EFFECTIVE_ROTOR_COUNT>
7

> <PUBCHEM_PHARMACOPHORE_FEATURES>
10
1 2 acceptor
1 3 acceptor
1 3 donor
1 4 acceptor
1 5 cation
1 5 donor
1 6 donor
3 12 13 14 hydrophobe
5 1 16 17 18 19 rings
5 2 7 8 9 10 rings

> <PUBCHEM_HEAVY_ATOM_COUNT>
19

> <PUBCHEM_ATOM_DEF_STEREO_COUNT>
3

> <PUBCHEM_ATOM_UDEF_STEREO_COUNT>
0

> <PUBCHEM_BOND_DEF_STEREO_COUNT>
0

> <PUBCHEM_BOND_UDEF_STEREO_COUNT>
0

> <PUBCHEM_ISOTOPIC_ATOM_COUNT>
0

> <PUBCHEM_COMPONENT_COUNT>
1

> <PUBCHEM_CACTVS_TAUTO_COUNT>
2

> <PUBCHEM_CONFORMER_ID>
048098CF00000001

> <PUBCHEM_MMFF94_ENERGY>
24.6098

> <PUBCHEM_FEATURE_SELFOVERLAP>
50.746

> <PUBCHEM_SHAPE_FINGERPRINT>
10354089 29 10375870771589987038
106641 1 15123498234285062802
117890 112 10953454128837598643
12166972 35 18113622326261654421
12516196 113 17203608186216687456
12555020 224 18342733035903372071
12616971 3 16271923861415270869
12670543 26 18335133172834864813
12760667 363 17988926669479083427
12954195 1 18341328877971506657
13288520 33 18059858363836840153
13533116 47 18201437012826069816
13668630 136 17918000460195367318
13675066 3 12535353410947053337
13685833 64 17846499248551983242
13862211 1 17918269870524560119
14251752 14 18342173333082161893
14347332 77 18340764849485012593
14528608 73 16443061707647872795
15048467 5 12324238365083134647
15183329 4 18260545589260870477
15188451 53 14620216595086057877
15348495 7 13398619585033090847
15475509 35 15481837767244854038
17834072 8 18261110781113510102
18335252 98 18117284855064450915
19784866 240 17988650691849326794
200 152 17989488519583078529
20281389 69 10737281355277001815
20369508 70 17917426553764510552
20374829 77 17988923379402064383
20645477 70 18408889504133114562
20871999 31 18334857182088630176
21150785 3 16950285135024952951
21267235 1 18413114960871170835
21637258 2 16200138920617646605
221357 26 18113052736083097540
2215653 11 18410007745316657622
22224240 67 13182731538324327926
23035841 295 18412263952568661323
23198884 109 16226045579010006943
23402539 116 18272369746276060429
23522609 53 17985861260873168081
23559900 14 18340200916105621032
26918003 58 13398630562963873663
2767999 5 12757147991312545535
29717793 49 18412266112652049964
3004659 81 18334859403404133314
312425 54 14117526441070607255
3472631 163 13262693551430009138
34797466 226 17168151164950371583
351380 3 17917710197409587622
465052 167 18059860600887261974
542803 24 13551187788316801719
559249 180 18268710511406893506
59682541 52 18187358809967078318

> <PUBCHEM_SHAPE_MULTIPOLES>
367.29
16.28
1.6
1.1
2.1
0.27
0.25
-6.17
5.7
-0.48
-0.06
0.36
0.12
-0.17

> <PUBCHEM_SHAPE_SELFOVERLAP>
738.604

> <PUBCHEM_SHAPE_VOLUME>
217.6

> <PUBCHEM_COORDINATE_TYPE>
2
5
10

$$$$
