38027050
  -OEChem-12032416413D

 71 72  0     1  0  0  0  0  0999 V2000
    1.3102   -2.3732    0.3467 O   0  0  0  0  0  0  0  0  0  0  0  0
   -3.8132    2.8894   -1.0213 O   0  0  0  0  0  0  0  0  0  0  0  0
    7.5012    0.1524   -1.1624 O   0  0  0  0  0  0  0  0  0  0  0  0
   -1.0575    3.4150    0.4613 O   0  0  0  0  0  0  0  0  0  0  0  0
   -4.2363    1.1012    0.4030 N   0  0  0  0  0  0  0  0  0  0  0  0
    1.7013   -0.5080    1.6765 N   0  0  0  0  0  0  0  0  0  0  0  0
    5.0652    0.3216    0.3002 N   0  0  0  0  0  0  0  0  0  0  0  0
   -2.5073   -0.7781   -1.1852 C   0  0  1  0  0  0  0  0  0  0  0  0
   -3.9313   -1.0761   -0.6528 C   0  0  1  0  0  0  0  0  0  0  0  0
   -1.5608   -1.9456   -0.8674 C   0  0  0  0  0  0  0  0  0  0  0  0
   -1.4680   -2.2255    0.6445 C   0  0  2  0  0  0  0  0  0  0  0  0
   -2.5090   -0.5074   -2.6930 C   0  0  0  0  0  0  0  0  0  0  0  0
   -2.8361   -2.2673    1.2945 C   0  0  0  0  0  0  0  0  0  0  0  0
   -3.9276   -1.7608    0.6939 C   0  0  0  0  0  0  0  0  0  0  0  0
   -4.7710    0.2038   -0.5726 C   0  0  0  0  0  0  0  0  0  0  0  0
   -0.5609   -1.2046    1.3405 C   0  0  0  0  0  0  0  0  0  0  0  0
   -1.3012    0.3387   -3.0830 C   0  0  0  0  0  0  0  0  0  0  0  0
   -2.5232   -1.8203   -3.4691 C   0  0  0  0  0  0  0  0  0  0  0  0
   -2.9294   -2.9463    2.6325 C   0  0  0  0  0  0  0  0  0  0  0  0
    0.9020   -1.4518    1.0484 C   0  0  0  0  0  0  0  0  0  0  0  0
   -3.7934    2.3901    0.1005 C   0  0  0  0  0  0  0  0  0  0  0  0
    3.1425   -0.5008    1.5743 C   0  0  0  0  0  0  0  0  0  0  0  0
    3.6067    0.3357    0.3911 C   0  0  0  0  0  0  0  0  0  0  0  0
   -3.2775    3.1198    1.3306 C   0  0  0  0  0  0  0  0  0  0  0  0
    5.5478    1.4406   -0.5210 C   0  0  0  0  0  0  0  0  0  0  0  0
    5.5410   -0.9527   -0.2558 C   0  0  0  0  0  0  0  0  0  0  0  0
    7.0705    1.3977   -0.6118 C   0  0  0  0  0  0  0  0  0  0  0  0
    7.0638   -0.9391   -0.3519 C   0  0  0  0  0  0  0  0  0  0  0  0
   -1.7905    2.9057    1.5679 C   0  0  0  0  0  0  0  0  0  0  0  0
    0.3419    3.2459    0.6407 C   0  0  0  0  0  0  0  0  0  0  0  0
   -2.1230    0.1157   -0.6801 H   0  0  0  0  0  0  0  0  0  0  0  0
   -4.4445   -1.7593   -1.3412 H   0  0  0  0  0  0  0  0  0  0  0  0
   -0.5641   -1.7685   -1.2831 H   0  0  0  0  0  0  0  0  0  0  0  0
   -1.9286   -2.8765   -1.3182 H   0  0  0  0  0  0  0  0  0  0  0  0
   -1.0275   -3.2266    0.7524 H   0  0  0  0  0  0  0  0  0  0  0  0
   -3.3987    0.0638   -2.9774 H   0  0  0  0  0  0  0  0  0  0  0  0
   -4.8927   -1.8610    1.1868 H   0  0  0  0  0  0  0  0  0  0  0  0
   -5.7926   -0.0344   -0.2521 H   0  0  0  0  0  0  0  0  0  0  0  0
   -4.8568    0.6986   -1.5438 H   0  0  0  0  0  0  0  0  0  0  0  0
   -0.6738   -1.2579    2.4299 H   0  0  0  0  0  0  0  0  0  0  0  0
   -0.8057   -0.1815    1.0427 H   0  0  0  0  0  0  0  0  0  0  0  0
   -0.3533   -0.1658   -2.8714 H   0  0  0  0  0  0  0  0  0  0  0  0
   -1.3034    1.2943   -2.5475 H   0  0  0  0  0  0  0  0  0  0  0  0
   -1.3219    0.5633   -4.1552 H   0  0  0  0  0  0  0  0  0  0  0  0
   -1.5646   -2.3489   -3.4383 H   0  0  0  0  0  0  0  0  0  0  0  0
   -2.7121   -1.6091   -4.5290 H   0  0  0  0  0  0  0  0  0  0  0  0
   -3.3191   -2.4960   -3.1427 H   0  0  0  0  0  0  0  0  0  0  0  0
   -2.3687   -2.3953    3.3928 H   0  0  0  0  0  0  0  0  0  0  0  0
   -2.5280   -3.9631    2.5715 H   0  0  0  0  0  0  0  0  0  0  0  0
   -3.9646   -3.0242    2.9822 H   0  0  0  0  0  0  0  0  0  0  0  0
   -4.2243    0.7987    1.3727 H   0  0  0  0  0  0  0  0  0  0  0  0
    1.2648    0.2223    2.2319 H   0  0  0  0  0  0  0  0  0  0  0  0
    3.4734   -1.5408    1.5025 H   0  0  0  0  0  0  0  0  0  0  0  0
    3.5280   -0.0888    2.5138 H   0  0  0  0  0  0  0  0  0  0  0  0
    3.2509    1.3618    0.5570 H   0  0  0  0  0  0  0  0  0  0  0  0
    3.1375   -0.0014   -0.5428 H   0  0  0  0  0  0  0  0  0  0  0  0
   -3.8474    2.8076    2.2129 H   0  0  0  0  0  0  0  0  0  0  0  0
   -3.4816    4.1860    1.1739 H   0  0  0  0  0  0  0  0  0  0  0  0
    5.2485    2.3973   -0.0777 H   0  0  0  0  0  0  0  0  0  0  0  0
    5.1188    1.3832   -1.5299 H   0  0  0  0  0  0  0  0  0  0  0  0
    5.1174   -1.1139   -1.2559 H   0  0  0  0  0  0  0  0  0  0  0  0
    5.2548   -1.8009    0.3728 H   0  0  0  0  0  0  0  0  0  0  0  0
    7.5388    1.5459    0.3689 H   0  0  0  0  0  0  0  0  0  0  0  0
    7.4269    2.1944   -1.2726 H   0  0  0  0  0  0  0  0  0  0  0  0
    7.4161   -1.8631   -0.8215 H   0  0  0  0  0  0  0  0  0  0  0  0
    7.5316   -0.8710    0.6379 H   0  0  0  0  0  0  0  0  0  0  0  0
   -1.4884    3.4328    2.4801 H   0  0  0  0  0  0  0  0  0  0  0  0
   -1.5786    1.8395    1.6908 H   0  0  0  0  0  0  0  0  0  0  0  0
    0.8538    3.6655   -0.2294 H   0  0  0  0  0  0  0  0  0  0  0  0
    0.5914    2.1834    0.7114 H   0  0  0  0  0  0  0  0  0  0  0  0
    0.6828    3.7748    1.5359 H   0  0  0  0  0  0  0  0  0  0  0  0
  1 20  2  0  0  0  0
  2 21  2  0  0  0  0
  3 27  1  0  0  0  0
  3 28  1  0  0  0  0
  4 29  1  0  0  0  0
  4 30  1  0  0  0  0
  5 15  1  0  0  0  0
  5 21  1  0  0  0  0
  5 51  1  0  0  0  0
  6 20  1  0  0  0  0
  6 22  1  0  0  0  0
  6 52  1  0  0  0  0
  7 23  1  0  0  0  0
  7 25  1  0  0  0  0
  7 26  1  0  0  0  0
  8  9  1  0  0  0  0
  8 10  1  0  0  0  0
  8 12  1  0  0  0  0
  8 31  1  0  0  0  0
  9 14  1  0  0  0  0
  9 15  1  0  0  0  0
  9 32  1  0  0  0  0
 10 11  1  0  0  0  0
 10 33  1  0  0  0  0
 10 34  1  0  0  0  0
 11 13  1  0  0  0  0
 11 16  1  0  0  0  0
 11 35  1  0  0  0  0
 12 17  1  0  0  0  0
 12 18  1  0  0  0  0
 12 36  1  0  0  0  0
 13 14  2  0  0  0  0
 13 19  1  0  0  0  0
 14 37  1  0  0  0  0
 15 38  1  0  0  0  0
 15 39  1  0  0  0  0
 16 20  1  0  0  0  0
 16 40  1  0  0  0  0
 16 41  1  0  0  0  0
 17 42  1  0  0  0  0
 17 43  1  0  0  0  0
 17 44  1  0  0  0  0
 18 45  1  0  0  0  0
 18 46  1  0  0  0  0
 18 47  1  0  0  0  0
 19 48  1  0  0  0  0
 19 49  1  0  0  0  0
 19 50  1  0  0  0  0
 21 24  1  0  0  0  0
 22 23  1  0  0  0  0
 22 53  1  0  0  0  0
 22 54  1  0  0  0  0
 23 55  1  0  0  0  0
 23 56  1  0  0  0  0
 24 29  1  0  0  0  0
 24 57  1  0  0  0  0
 24 58  1  0  0  0  0
 25 27  1  0  0  0  0
 25 59  1  0  0  0  0
 25 60  1  0  0  0  0
 26 28  1  0  0  0  0
 26 61  1  0  0  0  0
 26 62  1  0  0  0  0
 27 63  1  0  0  0  0
 27 64  1  0  0  0  0
 28 65  1  0  0  0  0
 28 66  1  0  0  0  0
 29 67  1  0  0  0  0
 29 68  1  0  0  0  0
 30 69  1  0  0  0  0
 30 70  1  0  0  0  0
 30 71  1  0  0  0  0
M  END
> <PUBCHEM_COMPOUND_CID>
38027050

> <PUBCHEM_CONFORMER_RMSD>
1.2

> <PUBCHEM_CONFORMER_DIVERSEORDER>
1
101
104
78
76
22
134
14
93
57
92
33
20
125
53
7
30
77
97
40
120
80
137
10
119
122
87
123
84
79
99
91
136
13
64
143
103
61
106
36
95
21
27
131
129
74
117
71
47
105
126
90
11
148
138
108
100
3
26
124
72
52
147
132
67
142
44
34
81
24
59
43
73
145
58
45
8
19
102
4
17
113
70
50
63
116
56
18
88
96
69
49
62
114
118
127
112
38
115
51
107
98
41
130
133
2
42
39
85
12
29
5
144
60
111
37
146
15
54
94
25
109
140
32
28
6
35
68
9
141
82
121
75
135
55
65
16
86
46
48
31
23
139
128
83
89
66
110

> <PUBCHEM_MMFF94_PARTIAL_CHARGES>
28
1 -0.57
11 0.14
13 -0.28
14 -0.29
15 0.3
16 0.06
19 0.14
2 -0.57
20 0.57
21 0.57
22 0.3
23 0.27
24 0.06
25 0.27
26 0.27
27 0.28
28 0.28
29 0.28
3 -0.56
30 0.28
37 0.15
4 -0.56
5 -0.73
51 0.37
52 0.37
6 -0.73
7 -0.81
9 0.14

> <PUBCHEM_EFFECTIVE_ROTOR_COUNT>
15

> <PUBCHEM_PHARMACOPHORE_FEATURES>
10
1 1 acceptor
1 2 acceptor
1 3 acceptor
1 4 acceptor
1 5 donor
1 6 donor
1 7 cation
3 12 17 18 hydrophobe
6 3 7 25 26 27 28 rings
6 8 9 10 11 13 14 rings

> <PUBCHEM_HEAVY_ATOM_COUNT>
30

> <PUBCHEM_ATOM_DEF_STEREO_COUNT>
3

> <PUBCHEM_ATOM_UDEF_STEREO_COUNT>
0

> <PUBCHEM_BOND_DEF_STEREO_COUNT>
0

> <PUBCHEM_BOND_UDEF_STEREO_COUNT>
0

> <PUBCHEM_ISOTOPIC_ATOM_COUNT>
0

> <PUBCHEM_COMPONENT_COUNT>
1

> <PUBCHEM_CACTVS_TAUTO_COUNT>
4

> <PUBCHEM_CONFORMER_ID>
02443F2A00000001

> <PUBCHEM_MMFF94_ENERGY>
49.3289

> <PUBCHEM_FEATURE_SELFOVERLAP>
50.746

> <PUBCHEM_SHAPE_FINGERPRINT>
10429389 16 17914071815107913286
10670039 82 18410571773723380848
10816530 145 17458348567061192152
12156800 1 17833882340366086425
12788726 201 18270391690118190984
13761468 95 18188762826201699540
13994607 96 18339350891070612021
14114206 34 18265028315511349549
14251757 5 18409446985896771304
14279260 333 18338794495443480490
14347329 18 18411133615585841890
14856354 85 18339650052174826895
14931854 50 18337375085808161501
15183329 4 16630531743573044998
15297060 5 18059581213396773297
15876981 60 18339084903561348511
15968369 153 18200586024975342288
18603816 31 12390967661733563596
19930381 70 17186418683521496483
21236236 1 18411987949095364912
23198884 109 18407759239922340322
23419403 2 17611150009821559103
469060 322 16443351987175723438
497634 4 17967533497127655658
5171179 24 17845642789535438976
531348 171 17988925531307813198
7288768 16 17968098552100070059

> <PUBCHEM_SHAPE_MULTIPOLES>
578.97
14.71
3.96
2.6
38.29
3.3
-1.9
1.83
-3.71
-4.68
1.81
-2.91
-1.38
-0.41

> <PUBCHEM_SHAPE_SELFOVERLAP>
1151.061

> <PUBCHEM_SHAPE_VOLUME>
341.3

> <PUBCHEM_COORDINATE_TYPE>
2
5
10

$$$$
