11883077
  -OEChem-12032416133D

 73 77  0     1  0  0  0  0  0999 V2000
   -0.2015   -3.2165   -0.3177 S   0  0  0  0  0  0  0  0  0  0  0  0
   -7.1684    0.2840    0.5962 O   0  0  0  0  0  0  0  0  0  0  0  0
   -7.0867   -1.4202   -1.0871 O   0  0  0  0  0  0  0  0  0  0  0  0
    0.7136    1.6263    1.7446 O   0  0  0  0  0  0  0  0  0  0  0  0
    3.6001   -0.6869    0.3993 O   0  0  0  0  0  0  0  0  0  0  0  0
    4.6248   -4.0311   -0.1966 O   0  0  0  0  0  0  0  0  0  0  0  0
    0.6971   -0.8380    0.1598 N   0  0  0  0  0  0  0  0  0  0  0  0
    1.2351    3.2177    0.1330 N   0  0  0  0  0  0  0  0  0  0  0  0
    2.3307   -2.6004   -0.0275 N   0  0  0  0  0  0  0  0  0  0  0  0
   -2.9025    0.4707   -0.2850 C   0  0  2  0  0  0  0  0  0  0  0  0
   -3.5451   -0.8824    0.2552 C   0  0  1  0  0  0  0  0  0  0  0  0
   -5.1169   -1.0012    0.1981 C   0  0  1  0  0  0  0  0  0  0  0  0
   -1.4028    0.5561    0.2601 C   0  0  1  0  0  0  0  0  0  0  0  0
   -3.6963    1.6787    0.2767 C   0  0  0  0  0  0  0  0  0  0  0  0
   -5.7500    0.3062    0.7531 C   0  0  1  0  0  0  0  0  0  0  0  0
   -2.8013   -2.1292   -0.3063 C   0  0  0  0  0  0  0  0  0  0  0  0
   -5.2029    1.5665    0.0920 C   0  0  0  0  0  0  0  0  0  0  0  0
   -2.8942    0.5570   -1.8312 C   0  0  0  0  0  0  0  0  0  0  0  0
   -0.6794   -0.7514    0.0637 C   0  0  0  0  0  0  0  0  0  0  0  0
   -5.6837   -1.3375   -1.1990 C   0  0  0  0  0  0  0  0  0  0  0  0
   -5.5714   -2.1645    1.1245 C   0  0  0  0  0  0  0  0  0  0  0  0
   -1.3272   -1.9471   -0.1711 C   0  0  0  0  0  0  0  0  0  0  0  0
   -0.5902    1.7358   -0.2906 C   0  0  0  0  0  0  0  0  0  0  0  0
    0.5080    2.1589    0.6572 C   0  0  0  0  0  0  0  0  0  0  0  0
    1.0606   -2.0876   -0.0314 C   0  0  0  0  0  0  0  0  0  0  0  0
    2.3469    3.8318    0.8243 C   0  0  0  0  0  0  0  0  0  0  0  0
    3.6591    3.1051    0.5113 C   0  0  0  0  0  0  0  0  0  0  0  0
    2.4456    5.3245    0.4919 C   0  0  0  0  0  0  0  0  0  0  0  0
    4.1425    3.3592   -0.9165 C   0  0  0  0  0  0  0  0  0  0  0  0
    2.9308    5.5750   -0.9359 C   0  0  0  0  0  0  0  0  0  0  0  0
    4.2433    4.8510   -1.2197 C   0  0  0  0  0  0  0  0  0  0  0  0
    3.5365   -1.8950    0.1840 C   0  0  0  0  0  0  0  0  0  0  0  0
    4.7614   -2.7086    0.0837 C   0  0  0  0  0  0  0  0  0  0  0  0
    6.0894   -2.3791    0.2245 C   0  0  0  0  0  0  0  0  0  0  0  0
    6.8156   -3.5762    0.0175 C   0  0  0  0  0  0  0  0  0  0  0  0
    5.8795   -4.5518   -0.2352 C   0  0  0  0  0  0  0  0  0  0  0  0
   -3.3176   -0.8704    1.3355 H   0  0  0  0  0  0  0  0  0  0  0  0
   -1.4896    0.6725    1.3509 H   0  0  0  0  0  0  0  0  0  0  0  0
   -3.3668    2.6132   -0.1913 H   0  0  0  0  0  0  0  0  0  0  0  0
   -3.4914    1.7857    1.3502 H   0  0  0  0  0  0  0  0  0  0  0  0
   -5.5539    0.3666    1.8319 H   0  0  0  0  0  0  0  0  0  0  0  0
   -3.0460   -2.2888   -1.3617 H   0  0  0  0  0  0  0  0  0  0  0  0
   -3.1046   -3.0273    0.2420 H   0  0  0  0  0  0  0  0  0  0  0  0
   -5.4781    1.5995   -0.9679 H   0  0  0  0  0  0  0  0  0  0  0  0
   -5.6854    2.4465    0.5366 H   0  0  0  0  0  0  0  0  0  0  0  0
   -3.8931    0.5736   -2.2620 H   0  0  0  0  0  0  0  0  0  0  0  0
   -2.4206    1.4837   -2.1736 H   0  0  0  0  0  0  0  0  0  0  0  0
   -2.3457   -0.2675   -2.2951 H   0  0  0  0  0  0  0  0  0  0  0  0
   -5.4662   -0.5743   -1.9419 H   0  0  0  0  0  0  0  0  0  0  0  0
   -5.3124   -2.2981   -1.5686 H   0  0  0  0  0  0  0  0  0  0  0  0
   -5.2755   -3.1412    0.7275 H   0  0  0  0  0  0  0  0  0  0  0  0
   -5.1310   -2.0652    2.1233 H   0  0  0  0  0  0  0  0  0  0  0  0
   -6.6584   -2.1897    1.2609 H   0  0  0  0  0  0  0  0  0  0  0  0
   -0.1412    1.4898   -1.2611 H   0  0  0  0  0  0  0  0  0  0  0  0
   -1.2220    2.6186   -0.4318 H   0  0  0  0  0  0  0  0  0  0  0  0
   -7.5221    1.0961    0.9974 H   0  0  0  0  0  0  0  0  0  0  0  0
   -7.4352   -1.6416   -1.9673 H   0  0  0  0  0  0  0  0  0  0  0  0
    1.0137    3.5430   -0.8035 H   0  0  0  0  0  0  0  0  0  0  0  0
    2.1526    3.7337    1.8997 H   0  0  0  0  0  0  0  0  0  0  0  0
    2.3902   -3.6003   -0.2039 H   0  0  0  0  0  0  0  0  0  0  0  0
    4.4319    3.4504    1.2101 H   0  0  0  0  0  0  0  0  0  0  0  0
    3.5487    2.0270    0.6713 H   0  0  0  0  0  0  0  0  0  0  0  0
    1.4737    5.8118    0.6360 H   0  0  0  0  0  0  0  0  0  0  0  0
    3.1463    5.7995    1.1905 H   0  0  0  0  0  0  0  0  0  0  0  0
    5.1215    2.8882   -1.0607 H   0  0  0  0  0  0  0  0  0  0  0  0
    3.4558    2.8861   -1.6289 H   0  0  0  0  0  0  0  0  0  0  0  0
    2.1697    5.2508   -1.6551 H   0  0  0  0  0  0  0  0  0  0  0  0
    3.0677    6.6516   -1.0899 H   0  0  0  0  0  0  0  0  0  0  0  0
    5.0417    5.2928   -0.6108 H   0  0  0  0  0  0  0  0  0  0  0  0
    4.5255    4.9961   -2.2687 H   0  0  0  0  0  0  0  0  0  0  0  0
    6.4891   -1.4002    0.4482 H   0  0  0  0  0  0  0  0  0  0  0  0
    7.8870   -3.7110    0.0485 H   0  0  0  0  0  0  0  0  0  0  0  0
    5.9402   -5.6086   -0.4499 H   0  0  0  0  0  0  0  0  0  0  0  0
  1 22  1  0  0  0  0
  1 25  1  0  0  0  0
  2 15  1  0  0  0  0
  2 56  1  0  0  0  0
  3 20  1  0  0  0  0
  3 57  1  0  0  0  0
  4 24  2  0  0  0  0
  5 32  2  0  0  0  0
  6 33  1  0  0  0  0
  6 36  1  0  0  0  0
  7 19  1  0  0  0  0
  7 25  2  0  0  0  0
  8 24  1  0  0  0  0
  8 26  1  0  0  0  0
  8 58  1  0  0  0  0
  9 25  1  0  0  0  0
  9 32  1  0  0  0  0
  9 60  1  0  0  0  0
 10 11  1  0  0  0  0
 10 13  1  0  0  0  0
 10 14  1  0  0  0  0
 10 18  1  0  0  0  0
 11 12  1  0  0  0  0
 11 16  1  0  0  0  0
 11 37  1  0  0  0  0
 12 15  1  0  0  0  0
 12 20  1  0  0  0  0
 12 21  1  0  0  0  0
 13 19  1  0  0  0  0
 13 23  1  0  0  0  0
 13 38  1  0  0  0  0
 14 17  1  0  0  0  0
 14 39  1  0  0  0  0
 14 40  1  0  0  0  0
 15 17  1  0  0  0  0
 15 41  1  0  0  0  0
 16 22  1  0  0  0  0
 16 42  1  0  0  0  0
 16 43  1  0  0  0  0
 17 44  1  0  0  0  0
 17 45  1  0  0  0  0
 18 46  1  0  0  0  0
 18 47  1  0  0  0  0
 18 48  1  0  0  0  0
 19 22  2  0  0  0  0
 20 49  1  0  0  0  0
 20 50  1  0  0  0  0
 21 51  1  0  0  0  0
 21 52  1  0  0  0  0
 21 53  1  0  0  0  0
 23 24  1  0  0  0  0
 23 54  1  0  0  0  0
 23 55  1  0  0  0  0
 26 27  1  0  0  0  0
 26 28  1  0  0  0  0
 26 59  1  0  0  0  0
 27 29  1  0  0  0  0
 27 61  1  0  0  0  0
 27 62  1  0  0  0  0
 28 30  1  0  0  0  0
 28 63  1  0  0  0  0
 28 64  1  0  0  0  0
 29 31  1  0  0  0  0
 29 65  1  0  0  0  0
 29 66  1  0  0  0  0
 30 31  1  0  0  0  0
 30 67  1  0  0  0  0
 30 68  1  0  0  0  0
 31 69  1  0  0  0  0
 31 70  1  0  0  0  0
 32 33  1  0  0  0  0
 33 34  2  0  0  0  0
 34 35  1  0  0  0  0
 34 71  1  0  0  0  0
 35 36  2  0  0  0  0
 35 72  1  0  0  0  0
 36 73  1  0  0  0  0
M  END
> <PUBCHEM_COMPOUND_CID>
11883077

> <PUBCHEM_CONFORMER_RMSD>
1

> <PUBCHEM_CONFORMER_DIVERSEORDER>
1
30
42
17
18
27
37
28
5
36
12
24
26
33
23
31
39
32
16
29
19
40
2
35
15
13
41
44
43
20
25
22
3
21
34
9
11
6
14
10
7
38
8
4

> <PUBCHEM_MMFF94_PARTIAL_CHARGES>
31
1 -0.08
13 0.18
15 0.28
16 0.18
19 0.05
2 -0.68
20 0.28
22 -0.14
23 0.06
24 0.57
25 0.44
26 0.3
3 -0.68
32 0.71
33 0.05
34 -0.15
35 -0.15
36 -0.01
4 -0.57
5 -0.57
56 0.4
57 0.4
58 0.37
6 -0.28
60 0.37
7 -0.57
71 0.15
72 0.15
73 0.15
8 -0.73
9 -0.49

> <PUBCHEM_EFFECTIVE_ROTOR_COUNT>
10.4

> <PUBCHEM_PHARMACOPHORE_FEATURES>
14
1 2 acceptor
1 2 donor
1 3 acceptor
1 3 donor
1 4 acceptor
1 5 acceptor
1 6 acceptor
1 8 donor
1 9 donor
5 1 7 19 22 25 rings
5 6 33 34 35 36 rings
6 10 11 12 14 15 17 rings
6 10 11 13 16 19 22 rings
6 26 27 28 29 30 31 rings

> <PUBCHEM_HEAVY_ATOM_COUNT>
36

> <PUBCHEM_ATOM_DEF_STEREO_COUNT>
5

> <PUBCHEM_ATOM_UDEF_STEREO_COUNT>
0

> <PUBCHEM_BOND_DEF_STEREO_COUNT>
0

> <PUBCHEM_BOND_UDEF_STEREO_COUNT>
0

> <PUBCHEM_ISOTOPIC_ATOM_COUNT>
0

> <PUBCHEM_COMPONENT_COUNT>
1

> <PUBCHEM_CACTVS_TAUTO_COUNT>
6

> <PUBCHEM_CONFORMER_ID>
00B5524500000001

> <PUBCHEM_MMFF94_ENERGY>
84.3965

> <PUBCHEM_FEATURE_SELFOVERLAP>
71.195

> <PUBCHEM_SHAPE_FINGERPRINT>
10032420 55 17314222272300200763
10050765 1 18339081618281209643
10411042 1 18267304240572801194
11049842 53 18052238885827662704
11445158 3 18342730815035716951
11756154 67 18196375823628155394
11763715 3 17977688423914470190
12107183 9 18198914604440466649
12166972 35 18041569027264881990
12522641 126 18336543923093188694
12977781 61 17752222809613560107
13540713 4 18042125518009690923
13540713 5 18130786819931998847
14040222 275 18197238974674259790
14114211 68 17971777690074572628
14394314 77 18122629349406957307
14415361 192 17386550359779782464
14790565 3 17833835253996470681
14849402 71 18411143540806804248
14937079 2 18411422778532802209
14955137 171 18411420566187197595
15198563 99 17979073791422301500
15264996 151 18261394404475870936
15347591 1 18410576228390398195
15400415 2 17762056944724043572
15439362 3 18337389464931530225
15927050 60 17981047727683544062
17686467 74 18198050389034283626
18681886 176 18340198592876967210
19319366 153 18055351607076776020
19611394 137 18261971668891509739
21133665 82 17908152328563516636
21360443 120 18192439778006647572
21796203 349 17977424626400359370
21927370 108 18194982746137219922
22311459 1 18339361869092228455
23559900 14 18412254031062007675
24771750 20 18191033507166631380
3103668 31 17831864551645356092
3298306 158 18055358195598721556
4046055 25 18122065300194868822
469060 322 18053113826120299778
6700243 42 17555478141008215566

> <PUBCHEM_SHAPE_MULTIPOLES>
700.42
16.22
7.8
1.06
8.37
7.34
0.15
-11.63
0.64
-19.49
0.9
0.56
0.55
-0.92

> <PUBCHEM_SHAPE_SELFOVERLAP>
1483.049

> <PUBCHEM_SHAPE_VOLUME>
394.5

> <PUBCHEM_COORDINATE_TYPE>
2
5
10

$$$$
