11941514
  -OEChem-12032416363D

 59 62  0     1  0  0  0  0  0999 V2000
   -3.6736   -3.7377    0.7517 O   0  0  0  0  0  0  0  0  0  0  0  0
   -0.1367   -1.5699   -2.4963 O   0  0  0  0  0  0  0  0  0  0  0  0
   -6.5625    0.3527    0.2812 O   0  0  0  0  0  0  0  0  0  0  0  0
   -7.6021    5.2811    0.7706 O   0  0  0  0  0  0  0  0  0  0  0  0
   -5.3672    5.2327    0.3690 O   0  0  0  0  0  0  0  0  0  0  0  0
    9.1178    2.3966   -0.0914 O   0  0  0  0  0  0  0  0  0  0  0  0
   -2.0530   -1.6612   -1.2279 N   0  0  0  0  0  0  0  0  0  0  0  0
   -4.2844    0.2700   -0.1706 N   0  0  0  0  0  0  0  0  0  0  0  0
   -1.4245   -3.4776    0.9995 N   0  0  0  0  0  0  0  0  0  0  0  0
   -4.1660   -1.1654   -0.2886 C   0  0  2  0  0  0  0  0  0  0  0  0
   -2.7419   -1.6280    0.0488 C   0  0  1  0  0  0  0  0  0  0  0  0
   -4.3542   -1.6189   -1.7377 C   0  0  0  0  0  0  0  0  0  0  0  0
   -2.9681   -1.4527   -2.3407 C   0  0  0  0  0  0  0  0  0  0  0  0
   -2.6680   -3.0440    0.5893 C   0  0  0  0  0  0  0  0  0  0  0  0
   -0.6866   -1.7080   -1.4038 C   0  0  0  0  0  0  0  0  0  0  0  0
    0.1640   -1.9632   -0.2122 C   0  0  0  0  0  0  0  0  0  0  0  0
   -0.1723   -2.8492    0.8255 C   0  0  0  0  0  0  0  0  0  0  0  0
   -5.4828    0.9114    0.1065 C   0  0  0  0  0  0  0  0  0  0  0  0
    1.4495   -1.3924   -0.2445 C   0  0  0  0  0  0  0  0  0  0  0  0
   -5.3077    2.4181    0.1692 C   0  0  0  0  0  0  0  0  0  0  0  0
    0.8120   -3.1926    1.7690 C   0  0  0  0  0  0  0  0  0  0  0  0
    2.3973   -1.7087    0.7276 C   0  0  0  0  0  0  0  0  0  0  0  0
    2.0826   -2.6192    1.7279 C   0  0  0  0  0  0  0  0  0  0  0  0
   -6.6137    3.1449    0.4730 C   0  0  0  0  0  0  0  0  0  0  0  0
    3.7208   -1.1075    0.6802 C   0  0  0  0  0  0  0  0  0  0  0  0
   -6.4276    4.6433    0.5254 C   0  0  0  0  0  0  0  0  0  0  0  0
    4.0349    0.0374    0.0290 C   0  0  0  0  0  0  0  0  0  0  0  0
    5.3714    0.6574   -0.0031 C   0  0  0  0  0  0  0  0  0  0  0  0
    6.4838   -0.1127    0.2942 C   0  0  0  0  0  0  0  0  0  0  0  0
    5.4889    1.9986   -0.3296 C   0  0  0  0  0  0  0  0  0  0  0  0
    7.7487    0.4745    0.2643 C   0  0  0  0  0  0  0  0  0  0  0  0
    6.7538    2.5858   -0.3595 C   0  0  0  0  0  0  0  0  0  0  0  0
    7.8837    1.8238   -0.0626 C   0  0  0  0  0  0  0  0  0  0  0  0
    9.1839    3.7803   -0.4335 C   0  0  0  0  0  0  0  0  0  0  0  0
   -4.9247   -1.6162    0.3600 H   0  0  0  0  0  0  0  0  0  0  0  0
   -2.2393   -0.9487    0.7478 H   0  0  0  0  0  0  0  0  0  0  0  0
   -4.6342   -2.6793   -1.7578 H   0  0  0  0  0  0  0  0  0  0  0  0
   -5.1152   -1.0566   -2.2872 H   0  0  0  0  0  0  0  0  0  0  0  0
   -2.8115   -0.4364   -2.7195 H   0  0  0  0  0  0  0  0  0  0  0  0
   -2.7607   -2.1628   -3.1467 H   0  0  0  0  0  0  0  0  0  0  0  0
   -3.4588    0.8335   -0.3543 H   0  0  0  0  0  0  0  0  0  0  0  0
   -1.4232   -4.3190    1.5714 H   0  0  0  0  0  0  0  0  0  0  0  0
    1.6990   -0.7265   -1.0672 H   0  0  0  0  0  0  0  0  0  0  0  0
   -4.9030    2.7583   -0.7920 H   0  0  0  0  0  0  0  0  0  0  0  0
   -4.5615    2.6467    0.9400 H   0  0  0  0  0  0  0  0  0  0  0  0
    0.5871   -3.8961    2.5687 H   0  0  0  0  0  0  0  0  0  0  0  0
    2.8089   -2.8947    2.4886 H   0  0  0  0  0  0  0  0  0  0  0  0
   -7.3544    2.9190   -0.3027 H   0  0  0  0  0  0  0  0  0  0  0  0
   -7.0086    2.8148    1.4405 H   0  0  0  0  0  0  0  0  0  0  0  0
    4.4746   -1.6390    1.2544 H   0  0  0  0  0  0  0  0  0  0  0  0
    3.2715    0.6018   -0.4999 H   0  0  0  0  0  0  0  0  0  0  0  0
   -7.4888    6.2549    0.8051 H   0  0  0  0  0  0  0  0  0  0  0  0
    6.4291   -1.1703    0.5312 H   0  0  0  0  0  0  0  0  0  0  0  0
    4.6176    2.6055   -0.5618 H   0  0  0  0  0  0  0  0  0  0  0  0
    8.6261   -0.1248    0.4916 H   0  0  0  0  0  0  0  0  0  0  0  0
    6.7866    3.6380   -0.6208 H   0  0  0  0  0  0  0  0  0  0  0  0
    8.8278    3.9600   -1.4535 H   0  0  0  0  0  0  0  0  0  0  0  0
    8.6641    4.4022    0.3033 H   0  0  0  0  0  0  0  0  0  0  0  0
   10.2396    4.0695   -0.4078 H   0  0  0  0  0  0  0  0  0  0  0  0
  1 14  2  0  0  0  0
  2 15  2  0  0  0  0
  3 18  2  0  0  0  0
  4 26  1  0  0  0  0
  4 52  1  0  0  0  0
  5 26  2  0  0  0  0
  6 33  1  0  0  0  0
  6 34  1  0  0  0  0
  7 11  1  0  0  0  0
  7 13  1  0  0  0  0
  7 15  1  0  0  0  0
  8 10  1  0  0  0  0
  8 18  1  0  0  0  0
  8 41  1  0  0  0  0
  9 14  1  0  0  0  0
  9 17  1  0  0  0  0
  9 42  1  0  0  0  0
 10 11  1  0  0  0  0
 10 12  1  0  0  0  0
 10 35  1  0  0  0  0
 11 14  1  0  0  0  0
 11 36  1  0  0  0  0
 12 13  1  0  0  0  0
 12 37  1  0  0  0  0
 12 38  1  0  0  0  0
 13 39  1  0  0  0  0
 13 40  1  0  0  0  0
 15 16  1  0  0  0  0
 16 17  2  0  0  0  0
 16 19  1  0  0  0  0
 17 21  1  0  0  0  0
 18 20  1  0  0  0  0
 19 22  2  0  0  0  0
 19 43  1  0  0  0  0
 20 24  1  0  0  0  0
 20 44  1  0  0  0  0
 20 45  1  0  0  0  0
 21 23  2  0  0  0  0
 21 46  1  0  0  0  0
 22 23  1  0  0  0  0
 22 25  1  0  0  0  0
 23 47  1  0  0  0  0
 24 26  1  0  0  0  0
 24 48  1  0  0  0  0
 24 49  1  0  0  0  0
 25 27  2  0  0  0  0
 25 50  1  0  0  0  0
 27 28  1  0  0  0  0
 27 51  1  0  0  0  0
 28 29  2  0  0  0  0
 28 30  1  0  0  0  0
 29 31  1  0  0  0  0
 29 53  1  0  0  0  0
 30 32  2  0  0  0  0
 30 54  1  0  0  0  0
 31 33  2  0  0  0  0
 31 55  1  0  0  0  0
 32 33  1  0  0  0  0
 32 56  1  0  0  0  0
 34 57  1  0  0  0  0
 34 58  1  0  0  0  0
 34 59  1  0  0  0  0
M  END
> <PUBCHEM_COMPOUND_CID>
11941514

> <PUBCHEM_CONFORMER_RMSD>
1

> <PUBCHEM_CONFORMER_DIVERSEORDER>
1
17
8
6
15
2
7
11
10
3
5
12
16
9
14
13
4

> <PUBCHEM_MMFF94_PARTIAL_CHARGES>
45
1 -0.57
10 0.3
11 0.36
13 0.3
14 0.57
15 0.54
16 0.09
17 0.12
18 0.57
19 -0.15
2 -0.57
20 0.06
21 -0.15
22 0.03
23 -0.15
24 0.06
25 -0.18
26 0.66
27 -0.18
28 0.03
29 -0.15
3 -0.57
30 -0.15
31 -0.15
32 -0.15
33 0.08
34 0.28
4 -0.65
41 0.37
42 0.37
43 0.15
46 0.15
47 0.15
5 -0.57
50 0.15
51 0.15
52 0.5
53 0.15
54 0.15
55 0.15
56 0.15
6 -0.36
7 -0.66
8 -0.73
9 -0.55

> <PUBCHEM_EFFECTIVE_ROTOR_COUNT>
8.8

> <PUBCHEM_PHARMACOPHORE_FEATURES>
13
1 1 acceptor
1 2 acceptor
1 3 acceptor
1 4 acceptor
1 5 acceptor
1 6 acceptor
1 8 donor
1 9 donor
3 4 5 26 anion
5 7 10 11 12 13 rings
6 16 17 19 21 22 23 rings
6 28 29 30 31 32 33 rings
7 7 9 11 14 15 16 17 rings

> <PUBCHEM_HEAVY_ATOM_COUNT>
34

> <PUBCHEM_ATOM_DEF_STEREO_COUNT>
2

> <PUBCHEM_ATOM_UDEF_STEREO_COUNT>
0

> <PUBCHEM_BOND_DEF_STEREO_COUNT>
1

> <PUBCHEM_BOND_UDEF_STEREO_COUNT>
0

> <PUBCHEM_ISOTOPIC_ATOM_COUNT>
0

> <PUBCHEM_COMPONENT_COUNT>
1

> <PUBCHEM_CACTVS_TAUTO_COUNT>
6

> <PUBCHEM_CONFORMER_ID>
00B6368A00000001

> <PUBCHEM_MMFF94_ENERGY>
114.0624

> <PUBCHEM_FEATURE_SELFOVERLAP>
66.09

> <PUBCHEM_SHAPE_FINGERPRINT>
10280341 67 18200578246984839064
10917259 128 18340471336675315024
10917259 69 18409451346253752224
10939801 23 18338237042753169217
11181472 205 18260268586817303428
11505856 67 18340474622425684927
11828042 163 18267593395230280860
12013929 29 18410292493834089624
12390115 104 18040995198038428282
12895837 130 18343299271559048071
12975358 362 17625829267294289833
13726171 33 18200320910103828265
14068700 675 9223239559095771222
14150022 121 18187932845669213563
14394314 77 18407759231322493108
14705955 166 17895491327024008419
15183329 4 16558197124445179430
15198563 99 17843382224263254135
155225 6 18266460898037959009
15950262 2 18342459214125638727
16067689 134 18337116670279468924
16992727 255 18413390930201487960
18339144 43 17097800099418346876
19053607 189 18270106925175062505
19309040 13 18200588099518146031
20691028 202 18409163298901068368
20775438 99 11021810758172794311
21223535 225 18272365425808115944
21756936 100 18339077202200371614
21774942 28 18412542129184392904
21796203 349 15647066966506380278
23522609 53 17532107149544440988
23569914 152 17699306369529147070
2838139 119 18271240638102390274
406291 66 9006764398098747073
4366758 26 18124881153442575529
437795 171 17827069611454586085
4516262 110 18334001783907492999
4756326 101 17170104843639729501
5718773 13 9439403527804099522
57303763 176 18340768149512936816
636775 72 18339359768525926336
6673363 416 18269555116957682695
6698420 124 18259704510986404138

> <PUBCHEM_SHAPE_MULTIPOLES>
649.55
25.28
6.6
1.46
35.52
8.52
-0.66
43.45
0.75
-11.79
2.41
-1.13
-1.32
-3.95

> <PUBCHEM_SHAPE_SELFOVERLAP>
1404.633

> <PUBCHEM_SHAPE_VOLUME>
352.7

> <PUBCHEM_COORDINATE_TYPE>
2
5
10

$$$$
