75537102
  -OEChem-12032416313D

 41 44  0     1  0  0  0  0  0999 V2000
    5.2141    1.2859   -0.1377 O   0  0  0  0  0  0  0  0  0  0  0  0
    2.9382    0.7038   -0.1236 N   0  0  0  0  0  0  0  0  0  0  0  0
    0.2755    0.5422    0.7682 N   0  0  2  0  0  0  0  0  0  0  0  0
    4.4367   -0.8749   -0.6769 N   0  0  0  0  0  0  0  0  0  0  0  0
   -3.3938   -2.0067    0.4535 N   0  0  0  0  0  0  0  0  0  0  0  0
    2.1365   -0.4386   -0.5095 C   0  0  2  0  0  0  0  0  0  0  0  0
    1.0437   -0.6962    0.5275 C   0  0  0  0  0  0  0  0  0  0  0  0
    3.1580   -1.5644   -0.6588 C   0  0  0  0  0  0  0  0  0  0  0  0
    2.2790    1.9292    0.2773 C   0  0  0  0  0  0  0  0  0  0  0  0
    1.1547    1.6184    1.2685 C   0  0  0  0  0  0  0  0  0  0  0  0
    4.3100    0.4764   -0.2966 C   0  0  0  0  0  0  0  0  0  0  0  0
   -0.8114    0.2913    1.7142 C   0  0  0  0  0  0  0  0  0  0  0  0
   -1.9693   -0.4172    1.0628 C   0  0  0  0  0  0  0  0  0  0  0  0
    5.6808   -1.5732   -0.9141 C   0  0  0  0  0  0  0  0  0  0  0  0
   -2.9408    0.1630    0.2002 C   0  0  0  0  0  0  0  0  0  0  0  0
   -2.2744   -1.7518    1.1993 C   0  0  0  0  0  0  0  0  0  0  0  0
   -3.8226   -0.8554   -0.1678 C   0  0  0  0  0  0  0  0  0  0  0  0
   -3.1553    1.4610   -0.3045 C   0  0  0  0  0  0  0  0  0  0  0  0
   -4.9127   -0.6399   -1.0186 C   0  0  0  0  0  0  0  0  0  0  0  0
   -4.2416    1.6914   -1.1566 C   0  0  0  0  0  0  0  0  0  0  0  0
   -5.1054    0.6557   -1.5068 C   0  0  0  0  0  0  0  0  0  0  0  0
    1.6915   -0.2031   -1.4853 H   0  0  0  0  0  0  0  0  0  0  0  0
    0.3998   -1.4948    0.1432 H   0  0  0  0  0  0  0  0  0  0  0  0
    1.4877   -1.0538    1.4666 H   0  0  0  0  0  0  0  0  0  0  0  0
    3.0210   -2.1236   -1.5891 H   0  0  0  0  0  0  0  0  0  0  0  0
    3.1550   -2.2570    0.1892 H   0  0  0  0  0  0  0  0  0  0  0  0
    1.8752    2.3931   -0.6300 H   0  0  0  0  0  0  0  0  0  0  0  0
    3.0126    2.6156    0.7116 H   0  0  0  0  0  0  0  0  0  0  0  0
    1.5901    1.3300    2.2347 H   0  0  0  0  0  0  0  0  0  0  0  0
    0.5772    2.5367    1.4283 H   0  0  0  0  0  0  0  0  0  0  0  0
   -1.2051    1.2426    2.0982 H   0  0  0  0  0  0  0  0  0  0  0  0
   -0.4632   -0.2656    2.5945 H   0  0  0  0  0  0  0  0  0  0  0  0
    5.8178   -2.3226   -0.1300 H   0  0  0  0  0  0  0  0  0  0  0  0
    6.5184   -0.8715   -0.8960 H   0  0  0  0  0  0  0  0  0  0  0  0
    5.6308   -2.0629   -1.8900 H   0  0  0  0  0  0  0  0  0  0  0  0
   -1.7964   -2.5438    1.7590 H   0  0  0  0  0  0  0  0  0  0  0  0
   -3.8411   -2.9091    0.3702 H   0  0  0  0  0  0  0  0  0  0  0  0
   -2.4913    2.2795   -0.0417 H   0  0  0  0  0  0  0  0  0  0  0  0
   -5.5858   -1.4456   -1.2919 H   0  0  0  0  0  0  0  0  0  0  0  0
   -4.4118    2.6905   -1.5489 H   0  0  0  0  0  0  0  0  0  0  0  0
   -5.9428    0.8570   -2.1701 H   0  0  0  0  0  0  0  0  0  0  0  0
  1 11  2  0  0  0  0
  2  6  1  0  0  0  0
  2  9  1  0  0  0  0
  2 11  1  0  0  0  0
  3  7  1  0  0  0  0
  3 10  1  0  0  0  0
  3 12  1  0  0  0  0
  4  8  1  0  0  0  0
  4 11  1  0  0  0  0
  4 14  1  0  0  0  0
  5 16  1  0  0  0  0
  5 17  1  0  0  0  0
  5 37  1  0  0  0  0
  6  7  1  0  0  0  0
  6  8  1  0  0  0  0
  6 22  1  0  0  0  0
  7 23  1  0  0  0  0
  7 24  1  0  0  0  0
  8 25  1  0  0  0  0
  8 26  1  0  0  0  0
  9 10  1  0  0  0  0
  9 27  1  0  0  0  0
  9 28  1  0  0  0  0
 10 29  1  0  0  0  0
 10 30  1  0  0  0  0
 12 13  1  0  0  0  0
 12 31  1  0  0  0  0
 12 32  1  0  0  0  0
 13 15  1  0  0  0  0
 13 16  2  0  0  0  0
 14 33  1  0  0  0  0
 14 34  1  0  0  0  0
 14 35  1  0  0  0  0
 15 17  1  0  0  0  0
 15 18  2  0  0  0  0
 16 36  1  0  0  0  0
 17 19  2  0  0  0  0
 18 20  1  0  0  0  0
 18 38  1  0  0  0  0
 19 21  1  0  0  0  0
 19 39  1  0  0  0  0
 20 21  2  0  0  0  0
 20 40  1  0  0  0  0
 21 41  1  0  0  0  0
M  END
> <PUBCHEM_COMPOUND_CID>
75537102

> <PUBCHEM_CONFORMER_RMSD>
0.6

> <PUBCHEM_CONFORMER_DIVERSEORDER>
1
41
26
25
35
7
16
42
39
37
36
18
31
43
22
27
11
32
8
13
28
34
12
17
44
24
33
46
20
9
3
5
38
6
23
29
30
45
2
4
15
40
19
10
21
14

> <PUBCHEM_MMFF94_PARTIAL_CHARGES>
26
1 -0.57
10 0.27
11 0.69
12 0.45
13 -0.18
14 0.3
16 -0.3
17 -0.15
18 -0.15
19 -0.15
2 -0.66
20 -0.15
21 -0.15
3 -0.81
36 0.15
37 0.27
38 0.15
39 0.15
4 -0.66
40 0.15
41 0.15
5 0.03
6 0.3
7 0.27
8 0.3
9 0.3

> <PUBCHEM_EFFECTIVE_ROTOR_COUNT>
3.2

> <PUBCHEM_PHARMACOPHORE_FEATURES>
8
1 1 acceptor
1 3 cation
1 5 cation
1 5 donor
5 2 4 6 8 11 rings
5 5 13 15 16 17 rings
6 15 17 18 19 20 21 rings
6 2 3 6 7 9 10 rings

> <PUBCHEM_HEAVY_ATOM_COUNT>
21

> <PUBCHEM_ATOM_DEF_STEREO_COUNT>
1

> <PUBCHEM_ATOM_UDEF_STEREO_COUNT>
0

> <PUBCHEM_BOND_DEF_STEREO_COUNT>
0

> <PUBCHEM_BOND_UDEF_STEREO_COUNT>
0

> <PUBCHEM_ISOTOPIC_ATOM_COUNT>
0

> <PUBCHEM_COMPONENT_COUNT>
1

> <PUBCHEM_CACTVS_TAUTO_COUNT>
1

> <PUBCHEM_CONFORMER_ID>
04809ACE00000001

> <PUBCHEM_MMFF94_ENERGY>
42.1902

> <PUBCHEM_FEATURE_SELFOVERLAP>
40.784

> <PUBCHEM_SHAPE_FINGERPRINT>
10447042 23 17989486316860889676
10498660 4 17676474030961837485
10670039 82 17241038800115272701
10730089 88 18408604743094849133
11046707 91 15052013459634196441
11370993 70 18334857225085938335
11796584 16 17458348525061559962
12236239 1 16343707646423269472
12596602 18 14620786094332082646
12788726 201 17629482986802053345
12892183 10 10880000142078908568
13544653 18 17132121208263727522
14251764 38 17532379853354713308
14341114 328 11959722793948717898
14573314 32 18333731325273502212
15183329 4 18261107426765072931
15188451 53 13758061992453124541
15788980 27 17894635855031613138
16126227 98 9725334842940303178
17349148 13 16343986922466278598
17870717 6 18409454669820058527
1813 80 14764347167112340705
18186145 218 18409164420393772617
18222031 100 16773800286209899896
19433438 38 18409171047022005307
19784866 240 16558745720248236253
200 152 17489590069268061929
20645477 56 18114181952031376193
20645477 70 18131075918011462390
20871999 31 18409163299481414217
21065201 7 18041276663939135154
21756936 100 15213309620442385905
221357 26 18413100663531827317
22393880 68 18334853926556297306
22646028 1 17132117939598514178
22646028 28 16415480467266010481
23402539 116 17203334372855088050
23557571 272 17969502795968184547
23559900 14 18411412942678224200
23596394 208 18412260644836909114
3004659 81 18335702702957972622
3009799 131 18411415082151835378
32948 21 18040153994243246598
3472631 163 17312817195651380173
351380 3 15913607280982107733
4028521 119 17967525766766524893
46194498 28 18189340241336233789
4921388 177 17749678479893737715
5161694 15 18407478864478018577
5281201 14 18335144232017144157
5283173 99 18335699386752876100
59682541 52 18267570343576574119
633830 44 15575006091182099718
7471813 234 17132113546005603456
9709674 26 18265328581243584921

> <PUBCHEM_SHAPE_MULTIPOLES>
406.38
12.42
1.99
1.35
5.13
0.04
0.18
-1.21
-6.45
0.19
0.07
-0.91
0.03
1.64

> <PUBCHEM_SHAPE_SELFOVERLAP>
883.97

> <PUBCHEM_SHAPE_VOLUME>
224.7

> <PUBCHEM_COORDINATE_TYPE>
2
5
10

$$$$
