44716834
  -OEChem-12032416123D

 68 70  0     1  0  0  0  0  0999 V2000
    4.1758    2.4826   -0.4630 S   0  0  0  0  0  0  0  0  0  0  0  0
   -3.9071    2.5228   -1.6436 S   0  0  0  0  0  0  0  0  0  0  0  0
    0.1888    0.5790    2.0886 O   0  0  0  0  0  0  0  0  0  0  0  0
   -3.2430    3.7347    1.3878 O   0  0  0  0  0  0  0  0  0  0  0  0
    4.4794    2.9677    0.8699 O   0  0  0  0  0  0  0  0  0  0  0  0
    5.0478    2.8102   -1.5746 O   0  0  0  0  0  0  0  0  0  0  0  0
   -3.3453   -1.1298    2.7595 O   0  0  0  0  0  0  0  0  0  0  0  0
   -4.8668   -1.1154   -2.5901 O   0  0  0  0  0  0  0  0  0  0  0  0
   -3.0376    0.1222   -3.1264 O   0  0  0  0  0  0  0  0  0  0  0  0
   -1.3776    2.5430    0.6663 N   0  0  0  0  0  0  0  0  0  0  0  0
    2.5844    2.9105   -0.8719 N   0  0  0  0  0  0  0  0  0  0  0  0
   -1.2914   -0.8183    0.9588 N   0  0  0  0  0  0  0  0  0  0  0  0
    3.8997   -0.0493   -1.5144 N   0  0  0  0  0  0  0  0  0  0  0  0
    4.0152   -1.3443    0.2859 N   0  0  0  0  0  0  0  0  0  0  0  0
   -1.8907   -2.2004    4.1790 N   0  0  0  0  0  0  0  0  0  0  0  0
    1.4648    2.5350    0.0257 C   0  0  2  0  0  0  0  0  0  0  0  0
    0.4919    1.6312   -0.7326 C   0  0  0  0  0  0  0  0  0  0  0  0
   -0.7922    1.3414    0.0482 C   0  0  1  0  0  0  0  0  0  0  0  0
    0.7574    3.7965    0.5104 C   0  0  0  0  0  0  0  0  0  0  0  0
   -0.4504    3.4400    1.3672 C   0  0  0  0  0  0  0  0  0  0  0  0
   -0.5706    0.3479    1.1513 C   0  0  0  0  0  0  0  0  0  0  0  0
   -2.7514    2.7970    0.7539 C   0  0  0  0  0  0  0  0  0  0  0  0
   -1.2356   -1.9411    1.8668 C   0  0  2  0  0  0  0  0  0  0  0  0
   -3.6657    1.8560    0.0091 C   0  0  0  0  0  0  0  0  0  0  0  0
    4.0720    0.7195   -0.3906 C   0  0  0  0  0  0  0  0  0  0  0  0
   -1.5182   -3.2722    1.1608 C   0  0  0  0  0  0  0  0  0  0  0  0
   -2.2687   -1.6887    2.9553 C   0  0  0  0  0  0  0  0  0  0  0  0
    4.1463   -0.0618    0.7386 C   0  0  0  0  0  0  0  0  0  0  0  0
   -0.5396   -3.5629    0.0490 C   0  0  0  0  0  0  0  0  0  0  0  0
    3.8700   -1.2869   -1.0723 C   0  0  0  0  0  0  0  0  0  0  0  0
   -5.0055    1.2445   -2.3033 C   0  0  0  0  0  0  0  0  0  0  0  0
   -0.8092   -3.1279   -1.2485 C   0  0  0  0  0  0  0  0  0  0  0  0
    0.6343   -4.2661    0.3190 C   0  0  0  0  0  0  0  0  0  0  0  0
    4.0277   -2.5402    1.0927 C   0  0  0  0  0  0  0  0  0  0  0  0
    0.0950   -3.3963   -2.2762 C   0  0  0  0  0  0  0  0  0  0  0  0
    1.5385   -4.5346   -0.7085 C   0  0  0  0  0  0  0  0  0  0  0  0
   -4.1913    0.0543   -2.7219 C   0  0  0  0  0  0  0  0  0  0  0  0
    1.2688   -4.0997   -2.0062 C   0  0  0  0  0  0  0  0  0  0  0  0
    1.8612    2.0081    0.8995 H   0  0  0  0  0  0  0  0  0  0  0  0
    0.2150    2.1212   -1.6767 H   0  0  0  0  0  0  0  0  0  0  0  0
    0.9880    0.6925   -1.0086 H   0  0  0  0  0  0  0  0  0  0  0  0
   -1.4793    0.9248   -0.6893 H   0  0  0  0  0  0  0  0  0  0  0  0
    1.4493    4.4231    1.0855 H   0  0  0  0  0  0  0  0  0  0  0  0
    0.4316    4.3957   -0.3502 H   0  0  0  0  0  0  0  0  0  0  0  0
   -0.9654    4.3648    1.6494 H   0  0  0  0  0  0  0  0  0  0  0  0
   -0.1431    2.9642    2.3035 H   0  0  0  0  0  0  0  0  0  0  0  0
    2.3429    3.0283   -1.8639 H   0  0  0  0  0  0  0  0  0  0  0  0
   -1.9429   -0.8807    0.1829 H   0  0  0  0  0  0  0  0  0  0  0  0
   -0.2348   -1.9601    2.3171 H   0  0  0  0  0  0  0  0  0  0  0  0
   -4.6298    1.8635    0.5314 H   0  0  0  0  0  0  0  0  0  0  0  0
   -3.3342    0.8205    0.0116 H   0  0  0  0  0  0  0  0  0  0  0  0
   -2.5379   -3.2766    0.7511 H   0  0  0  0  0  0  0  0  0  0  0  0
   -1.4993   -4.0949    1.8878 H   0  0  0  0  0  0  0  0  0  0  0  0
    4.2738    0.1729    1.7864 H   0  0  0  0  0  0  0  0  0  0  0  0
    3.7517   -2.1701   -1.6843 H   0  0  0  0  0  0  0  0  0  0  0  0
   -5.7449    0.9636   -1.5478 H   0  0  0  0  0  0  0  0  0  0  0  0
   -5.5281    1.6296   -3.1833 H   0  0  0  0  0  0  0  0  0  0  0  0
   -1.0073   -2.6797    4.3205 H   0  0  0  0  0  0  0  0  0  0  0  0
   -2.4954   -2.1127    4.9890 H   0  0  0  0  0  0  0  0  0  0  0  0
   -1.7218   -2.5833   -1.4758 H   0  0  0  0  0  0  0  0  0  0  0  0
    0.8565   -4.6079    1.3264 H   0  0  0  0  0  0  0  0  0  0  0  0
    3.0436   -2.6501    1.5536 H   0  0  0  0  0  0  0  0  0  0  0  0
    4.2566   -3.4014    0.4608 H   0  0  0  0  0  0  0  0  0  0  0  0
    4.7976   -2.4357    1.8615 H   0  0  0  0  0  0  0  0  0  0  0  0
   -0.1152   -3.0579   -3.2866 H   0  0  0  0  0  0  0  0  0  0  0  0
    2.4520   -5.0832   -0.4989 H   0  0  0  0  0  0  0  0  0  0  0  0
    1.9732   -4.3084   -2.8060 H   0  0  0  0  0  0  0  0  0  0  0  0
   -4.3205   -1.8852   -2.8572 H   0  0  0  0  0  0  0  0  0  0  0  0
  1  5  2  0  0  0  0
  1  6  2  0  0  0  0
  1 11  1  0  0  0  0
  1 25  1  0  0  0  0
  2 24  1  0  0  0  0
  2 31  1  0  0  0  0
  3 21  2  0  0  0  0
  4 22  2  0  0  0  0
  7 27  2  0  0  0  0
  8 37  1  0  0  0  0
  8 68  1  0  0  0  0
  9 37  2  0  0  0  0
 10 18  1  0  0  0  0
 10 20  1  0  0  0  0
 10 22  1  0  0  0  0
 11 16  1  0  0  0  0
 11 47  1  0  0  0  0
 12 21  1  0  0  0  0
 12 23  1  0  0  0  0
 12 48  1  0  0  0  0
 13 25  1  0  0  0  0
 13 30  2  0  0  0  0
 14 28  1  0  0  0  0
 14 30  1  0  0  0  0
 14 34  1  0  0  0  0
 15 27  1  0  0  0  0
 15 58  1  0  0  0  0
 15 59  1  0  0  0  0
 16 17  1  0  0  0  0
 16 19  1  0  0  0  0
 16 39  1  0  0  0  0
 17 18  1  0  0  0  0
 17 40  1  0  0  0  0
 17 41  1  0  0  0  0
 18 21  1  0  0  0  0
 18 42  1  0  0  0  0
 19 20  1  0  0  0  0
 19 43  1  0  0  0  0
 19 44  1  0  0  0  0
 20 45  1  0  0  0  0
 20 46  1  0  0  0  0
 22 24  1  0  0  0  0
 23 26  1  0  0  0  0
 23 27  1  0  0  0  0
 23 49  1  0  0  0  0
 24 50  1  0  0  0  0
 24 51  1  0  0  0  0
 25 28  2  0  0  0  0
 26 29  1  0  0  0  0
 26 52  1  0  0  0  0
 26 53  1  0  0  0  0
 28 54  1  0  0  0  0
 29 32  2  0  0  0  0
 29 33  1  0  0  0  0
 30 55  1  0  0  0  0
 31 37  1  0  0  0  0
 31 56  1  0  0  0  0
 31 57  1  0  0  0  0
 32 35  1  0  0  0  0
 32 60  1  0  0  0  0
 33 36  2  0  0  0  0
 33 61  1  0  0  0  0
 34 62  1  0  0  0  0
 34 63  1  0  0  0  0
 34 64  1  0  0  0  0
 35 38  2  0  0  0  0
 35 65  1  0  0  0  0
 36 38  1  0  0  0  0
 36 66  1  0  0  0  0
 38 67  1  0  0  0  0
M  END
> <PUBCHEM_COMPOUND_CID>
44716834

> <PUBCHEM_CONFORMER_RMSD>
1.4

> <PUBCHEM_CONFORMER_DIVERSEORDER>
1
24
8
45
29
32
41
35
6
23
26
44
36
43
14
33
42
46
21
38
40
16
7
17
27
18
37
15
31
19
30
25
20
4
22
12
39
10
13
34
47
3
11
5
2
28
9

> <PUBCHEM_MMFF94_PARTIAL_CHARGES>
48
1 1.5
10 -0.66
11 -0.91
12 -0.73
13 -0.57
14 0.05
15 -0.8
16 0.36
18 0.36
2 -0.46
20 0.3
21 0.57
22 0.57
23 0.36
24 0.29
25 0.16
26 0.14
27 0.57
28 -0.3
29 -0.14
3 -0.57
30 0.04
31 0.29
32 -0.15
33 -0.15
34 0.26
35 -0.15
36 -0.15
37 0.66
38 -0.15
4 -0.57
47 0.42
48 0.37
5 -0.65
54 0.15
55 0.15
58 0.37
59 0.37
6 -0.65
60 0.15
61 0.15
65 0.15
66 0.15
67 0.15
68 0.5
7 -0.57
8 -0.65
9 -0.57

> <PUBCHEM_EFFECTIVE_ROTOR_COUNT>
15.2

> <PUBCHEM_PHARMACOPHORE_FEATURES>
15
1 11 donor
1 12 donor
1 15 donor
1 3 acceptor
1 4 acceptor
1 5 acceptor
1 6 acceptor
1 7 acceptor
1 8 acceptor
1 9 acceptor
3 13 14 30 cation
3 8 9 37 anion
5 13 14 25 28 30 rings
6 10 16 17 18 19 20 rings
6 29 32 33 35 36 38 rings

> <PUBCHEM_HEAVY_ATOM_COUNT>
38

> <PUBCHEM_ATOM_DEF_STEREO_COUNT>
3

> <PUBCHEM_ATOM_UDEF_STEREO_COUNT>
0

> <PUBCHEM_BOND_DEF_STEREO_COUNT>
0

> <PUBCHEM_BOND_UDEF_STEREO_COUNT>
0

> <PUBCHEM_ISOTOPIC_ATOM_COUNT>
0

> <PUBCHEM_COMPONENT_COUNT>
1

> <PUBCHEM_CACTVS_TAUTO_COUNT>
4

> <PUBCHEM_CONFORMER_ID>
02AA532200000001

> <PUBCHEM_MMFF94_ENERGY>
79.3405

> <PUBCHEM_FEATURE_SELFOVERLAP>
76.201

> <PUBCHEM_SHAPE_FINGERPRINT>
10675989 125 18340751664009689724
10721379 63 17392731706640216661
11285246 1 18202564012018096397
12788726 201 18131062779395365252
1361 2 18268983194516828118
13642711 20 17898855639178700483
13761468 95 17834700536041549854
15484559 13 17970884714486167885
18603816 31 16341769190882202044
20764821 26 18341902878516558518
3380486 145 17400926791861381241
3493558 16 18334283271669203895
354706 35 18270672199080350212
463206 1 17839739266554831134
66674814 147 18336812113968239372

> <PUBCHEM_SHAPE_MULTIPOLES>
718.75
8.97
6.9
3.15
0.87
2.51
-1.02
-5.3
4.88
3.11
0.11
-3.99
2.38
0.26

> <PUBCHEM_SHAPE_SELFOVERLAP>
1473.952

> <PUBCHEM_SHAPE_VOLUME>
414.4

> <PUBCHEM_COORDINATE_TYPE>
2
5
10

$$$$
