75537020
  -OEChem-12032416313D

 47 49  0     1  0  0  0  0  0999 V2000
    1.7286   -2.6352    0.5342 O   0  0  0  0  0  0  0  0  0  0  0  0
   -4.9061   -0.8133   -0.1515 O   0  0  0  0  0  0  0  0  0  0  0  0
    1.8748   -0.3092    0.1746 N   0  0  0  0  0  0  0  0  0  0  0  0
   -0.1595   -1.2544    0.3112 N   0  0  0  0  0  0  0  0  0  0  0  0
   -2.6613   -0.4329   -0.5835 N   0  0  0  0  0  0  0  0  0  0  0  0
   -4.1907    1.3555   -0.3571 N   0  0  0  0  0  0  0  0  0  0  0  0
   -0.4230    0.1719    0.2126 C   0  0  1  0  0  0  0  0  0  0  0  0
    3.3041   -0.1239    0.1051 C   0  0  0  0  0  0  0  0  0  0  0  0
    0.9449    0.7720   -0.1010 C   0  0  0  0  0  0  0  0  0  0  0  0
    3.7839    0.7797    1.2435 C   0  0  0  0  0  0  0  0  0  0  0  0
    3.7122    0.4358   -1.2602 C   0  0  0  0  0  0  0  0  0  0  0  0
   -1.4950    0.4370   -0.8400 C   0  0  0  0  0  0  0  0  0  0  0  0
    1.2125   -1.5382    0.3656 C   0  0  0  0  0  0  0  0  0  0  0  0
   -1.2648   -2.1881    0.4430 C   0  0  0  0  0  0  0  0  0  0  0  0
    5.2867    1.0359    1.1633 C   0  0  0  0  0  0  0  0  0  0  0  0
    5.2153    0.6908   -1.3366 C   0  0  0  0  0  0  0  0  0  0  0  0
    5.6917    1.5902   -0.1995 C   0  0  0  0  0  0  0  0  0  0  0  0
   -2.3448   -1.8704   -0.5906 C   0  0  0  0  0  0  0  0  0  0  0  0
   -3.9820   -0.0180   -0.3524 C   0  0  0  0  0  0  0  0  0  0  0  0
   -5.4952    1.9361   -0.1285 C   0  0  0  0  0  0  0  0  0  0  0  0
   -5.8322    1.9787    1.3477 C   0  0  0  0  0  0  0  0  0  0  0  0
   -0.7681    0.4980    1.2021 H   0  0  0  0  0  0  0  0  0  0  0  0
    3.7750   -1.1076    0.2291 H   0  0  0  0  0  0  0  0  0  0  0  0
    1.0254    1.0532   -1.1554 H   0  0  0  0  0  0  0  0  0  0  0  0
    1.1515    1.6422    0.5271 H   0  0  0  0  0  0  0  0  0  0  0  0
    3.5404    0.3249    2.2115 H   0  0  0  0  0  0  0  0  0  0  0  0
    3.2674    1.7467    1.2174 H   0  0  0  0  0  0  0  0  0  0  0  0
    3.2002    1.3844   -1.4629 H   0  0  0  0  0  0  0  0  0  0  0  0
    3.4149   -0.2575   -2.0563 H   0  0  0  0  0  0  0  0  0  0  0  0
   -1.7344    1.4987   -0.8628 H   0  0  0  0  0  0  0  0  0  0  0  0
   -1.1313    0.1733   -1.8414 H   0  0  0  0  0  0  0  0  0  0  0  0
   -1.6618   -2.0692    1.4575 H   0  0  0  0  0  0  0  0  0  0  0  0
   -0.8993   -3.2140    0.3367 H   0  0  0  0  0  0  0  0  0  0  0  0
    5.8262    0.0994    1.3511 H   0  0  0  0  0  0  0  0  0  0  0  0
    5.5838    1.7382    1.9503 H   0  0  0  0  0  0  0  0  0  0  0  0
    5.4631    1.1514   -2.2996 H   0  0  0  0  0  0  0  0  0  0  0  0
    5.7498   -0.2662   -1.2935 H   0  0  0  0  0  0  0  0  0  0  0  0
    6.7813    1.6966   -0.2454 H   0  0  0  0  0  0  0  0  0  0  0  0
    5.2667    2.5936   -0.3258 H   0  0  0  0  0  0  0  0  0  0  0  0
   -1.9894   -2.1135   -1.5992 H   0  0  0  0  0  0  0  0  0  0  0  0
   -3.2351   -2.4767   -0.3987 H   0  0  0  0  0  0  0  0  0  0  0  0
   -3.4306    2.0079   -0.4835 H   0  0  0  0  0  0  0  0  0  0  0  0
   -6.2464    1.3527   -0.6713 H   0  0  0  0  0  0  0  0  0  0  0  0
   -5.4807    2.9486   -0.5439 H   0  0  0  0  0  0  0  0  0  0  0  0
   -5.8649    0.9736    1.7803 H   0  0  0  0  0  0  0  0  0  0  0  0
   -5.0844    2.5547    1.9030 H   0  0  0  0  0  0  0  0  0  0  0  0
   -6.8090    2.4472    1.5021 H   0  0  0  0  0  0  0  0  0  0  0  0
  1 13  2  0  0  0  0
  2 19  2  0  0  0  0
  3  8  1  0  0  0  0
  3  9  1  0  0  0  0
  3 13  1  0  0  0  0
  4  7  1  0  0  0  0
  4 13  1  0  0  0  0
  4 14  1  0  0  0  0
  5 12  1  0  0  0  0
  5 18  1  0  0  0  0
  5 19  1  0  0  0  0
  6 19  1  0  0  0  0
  6 20  1  0  0  0  0
  6 42  1  0  0  0  0
  7  9  1  0  0  0  0
  7 12  1  0  0  0  0
  7 22  1  0  0  0  0
  8 10  1  0  0  0  0
  8 11  1  0  0  0  0
  8 23  1  0  0  0  0
  9 24  1  0  0  0  0
  9 25  1  0  0  0  0
 10 15  1  0  0  0  0
 10 26  1  0  0  0  0
 10 27  1  0  0  0  0
 11 16  1  0  0  0  0
 11 28  1  0  0  0  0
 11 29  1  0  0  0  0
 12 30  1  0  0  0  0
 12 31  1  0  0  0  0
 14 18  1  0  0  0  0
 14 32  1  0  0  0  0
 14 33  1  0  0  0  0
 15 17  1  0  0  0  0
 15 34  1  0  0  0  0
 15 35  1  0  0  0  0
 16 17  1  0  0  0  0
 16 36  1  0  0  0  0
 16 37  1  0  0  0  0
 17 38  1  0  0  0  0
 17 39  1  0  0  0  0
 18 40  1  0  0  0  0
 18 41  1  0  0  0  0
 20 21  1  0  0  0  0
 20 43  1  0  0  0  0
 20 44  1  0  0  0  0
 21 45  1  0  0  0  0
 21 46  1  0  0  0  0
 21 47  1  0  0  0  0
M  END
> <PUBCHEM_COMPOUND_CID>
75537020

> <PUBCHEM_CONFORMER_RMSD>
0.8

> <PUBCHEM_CONFORMER_DIVERSEORDER>
1
40
16
30
22
27
5
33
21
35
26
19
18
8
23
11
31
25
15
28
20
10
6
7
37
36
3
32
29
38
2
14
39
4
17
24
9
34
13
12

> <PUBCHEM_MMFF94_PARTIAL_CHARGES>
16
1 -0.57
12 0.3
13 0.69
14 0.3
18 0.3
19 0.69
2 -0.57
20 0.3
3 -0.66
4 -0.66
42 0.37
5 -0.66
6 -0.73
7 0.3
8 0.3
9 0.3

> <PUBCHEM_EFFECTIVE_ROTOR_COUNT>
6.4

> <PUBCHEM_PHARMACOPHORE_FEATURES>
6
1 1 acceptor
1 2 acceptor
1 6 donor
5 3 4 7 9 13 rings
6 4 5 7 12 14 18 rings
6 8 10 11 15 16 17 rings

> <PUBCHEM_HEAVY_ATOM_COUNT>
21

> <PUBCHEM_ATOM_DEF_STEREO_COUNT>
1

> <PUBCHEM_ATOM_UDEF_STEREO_COUNT>
0

> <PUBCHEM_BOND_DEF_STEREO_COUNT>
0

> <PUBCHEM_BOND_UDEF_STEREO_COUNT>
0

> <PUBCHEM_ISOTOPIC_ATOM_COUNT>
0

> <PUBCHEM_COMPONENT_COUNT>
1

> <PUBCHEM_CACTVS_TAUTO_COUNT>
2

> <PUBCHEM_CONFORMER_ID>
04809A7C00000001

> <PUBCHEM_MMFF94_ENERGY>
31.6223

> <PUBCHEM_FEATURE_SELFOVERLAP>
30.544

> <PUBCHEM_SHAPE_FINGERPRINT>
10 15 17822016389573323617
10378564 45 17703515402786899292
10493431 412 18335139787126627047
11089746 13 17846203449827665985
12236239 1 17458619073635641840
12390115 104 18342747303947746347
12403814 3 17168132460220098287
12555020 224 12247673868730780941
12596602 18 15719395018756538169
12616971 3 17167854292811193356
12788726 201 17488747765899099345
12892183 10 14201665443188869758
13540713 5 18266155306577547639
14341114 328 17168141269224291890
14790565 3 18334582377196448796
15183329 4 16056886792770861697
15196674 1 18409163286301204159
1601671 61 18335137587797767292
17857418 61 10952057744849358572
19784866 170 18186522089996953727
200 152 14261360171349452070
20281389 69 18335980887699863529
20621476 66 18335424595014232020
20645477 70 16630537232556638926
21033648 29 17703498991189360384
21421861 104 17823684292651128346
22224240 67 18114187419888819065
22289505 5 17418374705891440048
23402539 116 18340479088885106982
23402655 69 18272084989606413847
23559900 14 18340772628725606494
25147074 1 18263905726997970027
2916195 48 18200586003262738712
293599 30 18412546492227606957
312425 54 13623808289791728917
3472631 163 18411702118763541860
34797466 226 17203327878827710548
34934 24 18342170064005271359
350125 39 18263077713601541034
3680242 22 18187359922580002680
5104073 3 18334293128813924227
5283173 99 17989209235013867448
5385378 56 18261952956219491498
542803 24 17894909646369989828
59682541 35 18338812165524194097
59682541 52 16916791730099133476
633830 44 18271516606894026628
7495541 125 13912331199975025028
960060 61 14045738235992374480

> <PUBCHEM_SHAPE_MULTIPOLES>
400.51
13.9
2.25
1.12
2.78
0.8
0.03
-10.63
0.49
1.8
0.47
-0.77
-0.3
-0.69

> <PUBCHEM_SHAPE_SELFOVERLAP>
821.247

> <PUBCHEM_SHAPE_VOLUME>
229.2

> <PUBCHEM_COORDINATE_TYPE>
2
5
10

$$$$
