28960506
  -OEChem-12032416283D

 57 60  0     1  0  0  0  0  0999 V2000
    6.8774    0.0708   -1.2687 F   0  0  0  0  0  0  0  0  0  0  0  0
    4.7572    0.5983   -1.3180 F   0  0  0  0  0  0  0  0  0  0  0  0
    5.9938    1.1038    0.4425 F   0  0  0  0  0  0  0  0  0  0  0  0
   -3.0569   -1.1485   -1.7496 O   0  0  0  0  0  0  0  0  0  0  0  0
   -5.0712   -1.6131   -0.6988 O   0  0  0  0  0  0  0  0  0  0  0  0
   -3.8583   -2.0276    1.8720 O   0  0  0  0  0  0  0  0  0  0  0  0
    0.3972    4.4234   -0.9320 O   0  0  0  0  0  0  0  0  0  0  0  0
    5.4642   -1.0876    0.0564 O   0  0  0  0  0  0  0  0  0  0  0  0
   -2.5154    0.9156    0.1978 N   0  0  0  0  0  0  0  0  0  0  0  0
   -0.8033   -2.0387   -0.1326 N   0  0  0  0  0  0  0  0  0  0  0  0
   -0.4955    5.7612    0.7135 N   0  0  0  0  0  0  0  0  0  0  0  0
   -3.4923   -0.1540    0.4067 C   0  0  2  0  0  0  0  0  0  0  0  0
   -2.8371   -1.3634    1.1132 C   0  0  2  0  0  0  0  0  0  0  0  0
   -2.2013   -2.3878    0.1417 C   0  0  1  0  0  0  0  0  0  0  0  0
   -4.0986   -0.5834   -0.9423 C   0  0  1  0  0  0  0  0  0  0  0  0
   -2.9511   -2.4695   -1.2078 C   0  0  1  0  0  0  0  0  0  0  0  0
   -4.4196   -2.8334   -1.0825 C   0  0  0  0  0  0  0  0  0  0  0  0
   -2.9823    1.8418   -0.8431 C   0  0  0  0  0  0  0  0  0  0  0  0
   -2.2511    1.6236    1.4581 C   0  0  0  0  0  0  0  0  0  0  0  0
   -1.9467    2.9350   -1.1124 C   0  0  0  0  0  0  0  0  0  0  0  0
   -1.1912    2.7101    1.2686 C   0  0  0  0  0  0  0  0  0  0  0  0
   -1.5926    3.6899    0.1674 C   0  0  0  0  0  0  0  0  0  0  0  0
    0.0436   -2.4073    0.9887 C   0  0  0  0  0  0  0  0  0  0  0  0
   -0.4685    4.6452   -0.0889 C   0  0  0  0  0  0  0  0  0  0  0  0
    1.4866   -2.0565    0.7407 C   0  0  0  0  0  0  0  0  0  0  0  0
    2.2606   -2.8463   -0.1096 C   0  0  0  0  0  0  0  0  0  0  0  0
    2.0494   -0.9411    1.3610 C   0  0  0  0  0  0  0  0  0  0  0  0
    3.5974   -2.5209   -0.3393 C   0  0  0  0  0  0  0  0  0  0  0  0
    3.3862   -0.6157    1.1315 C   0  0  0  0  0  0  0  0  0  0  0  0
    4.1601   -1.4056    0.2813 C   0  0  0  0  0  0  0  0  0  0  0  0
    5.7595    0.1819   -0.5154 C   0  0  0  0  0  0  0  0  0  0  0  0
   -4.3271    0.2074    1.0252 H   0  0  0  0  0  0  0  0  0  0  0  0
   -2.1295   -1.0410    1.8771 H   0  0  0  0  0  0  0  0  0  0  0  0
   -2.2436   -3.3950    0.5783 H   0  0  0  0  0  0  0  0  0  0  0  0
   -4.6397    0.1960   -1.4839 H   0  0  0  0  0  0  0  0  0  0  0  0
   -2.4315   -3.1301   -1.9103 H   0  0  0  0  0  0  0  0  0  0  0  0
   -4.8339   -3.1254   -2.0535 H   0  0  0  0  0  0  0  0  0  0  0  0
   -4.6240   -3.6254   -0.3572 H   0  0  0  0  0  0  0  0  0  0  0  0
   -3.9425    2.3005   -0.5731 H   0  0  0  0  0  0  0  0  0  0  0  0
   -3.0817    1.3653   -1.8224 H   0  0  0  0  0  0  0  0  0  0  0  0
   -1.8781    0.9494    2.2344 H   0  0  0  0  0  0  0  0  0  0  0  0
   -3.1707    2.0812    1.8474 H   0  0  0  0  0  0  0  0  0  0  0  0
   -1.0514    2.4727   -1.5504 H   0  0  0  0  0  0  0  0  0  0  0  0
   -2.3334    3.6340   -1.8645 H   0  0  0  0  0  0  0  0  0  0  0  0
   -1.0449    3.2456    2.2148 H   0  0  0  0  0  0  0  0  0  0  0  0
   -0.2268    2.2421    1.0276 H   0  0  0  0  0  0  0  0  0  0  0  0
   -2.4775    4.2535    0.4924 H   0  0  0  0  0  0  0  0  0  0  0  0
   -0.7305   -1.0380   -0.3159 H   0  0  0  0  0  0  0  0  0  0  0  0
   -3.4345   -2.7518    2.3634 H   0  0  0  0  0  0  0  0  0  0  0  0
   -0.0108   -3.4898    1.1663 H   0  0  0  0  0  0  0  0  0  0  0  0
   -0.2704   -1.9348    1.9254 H   0  0  0  0  0  0  0  0  0  0  0  0
   -1.2161    5.9136    1.4118 H   0  0  0  0  0  0  0  0  0  0  0  0
    0.2189    6.4774    0.6341 H   0  0  0  0  0  0  0  0  0  0  0  0
    1.8334   -3.7179   -0.5986 H   0  0  0  0  0  0  0  0  0  0  0  0
    1.4574   -0.3154    2.0238 H   0  0  0  0  0  0  0  0  0  0  0  0
    4.1953   -3.1396   -1.0029 H   0  0  0  0  0  0  0  0  0  0  0  0
    3.8134    0.2525    1.6258 H   0  0  0  0  0  0  0  0  0  0  0  0
  1 31  1  0  0  0  0
  2 31  1  0  0  0  0
  3 31  1  0  0  0  0
  4 15  1  0  0  0  0
  4 16  1  0  0  0  0
  5 15  1  0  0  0  0
  5 17  1  0  0  0  0
  6 13  1  0  0  0  0
  6 49  1  0  0  0  0
  7 24  2  0  0  0  0
  8 30  1  0  0  0  0
  8 31  1  0  0  0  0
  9 12  1  0  0  0  0
  9 18  1  0  0  0  0
  9 19  1  0  0  0  0
 10 14  1  0  0  0  0
 10 23  1  0  0  0  0
 10 48  1  0  0  0  0
 11 24  1  0  0  0  0
 11 52  1  0  0  0  0
 11 53  1  0  0  0  0
 12 13  1  0  0  0  0
 12 15  1  0  0  0  0
 12 32  1  0  0  0  0
 13 14  1  0  0  0  0
 13 33  1  0  0  0  0
 14 16  1  0  0  0  0
 14 34  1  0  0  0  0
 15 35  1  0  0  0  0
 16 17  1  0  0  0  0
 16 36  1  0  0  0  0
 17 37  1  0  0  0  0
 17 38  1  0  0  0  0
 18 20  1  0  0  0  0
 18 39  1  0  0  0  0
 18 40  1  0  0  0  0
 19 21  1  0  0  0  0
 19 41  1  0  0  0  0
 19 42  1  0  0  0  0
 20 22  1  0  0  0  0
 20 43  1  0  0  0  0
 20 44  1  0  0  0  0
 21 22  1  0  0  0  0
 21 45  1  0  0  0  0
 21 46  1  0  0  0  0
 22 24  1  0  0  0  0
 22 47  1  0  0  0  0
 23 25  1  0  0  0  0
 23 50  1  0  0  0  0
 23 51  1  0  0  0  0
 25 26  2  0  0  0  0
 25 27  1  0  0  0  0
 26 28  1  0  0  0  0
 26 54  1  0  0  0  0
 27 29  2  0  0  0  0
 27 55  1  0  0  0  0
 28 30  2  0  0  0  0
 28 56  1  0  0  0  0
 29 30  1  0  0  0  0
 29 57  1  0  0  0  0
M  END
> <PUBCHEM_COMPOUND_CID>
28960506

> <PUBCHEM_CONFORMER_RMSD>
1

> <PUBCHEM_CONFORMER_DIVERSEORDER>
1
19
28
9
25
11
13
20
24
8
18
21
6
4
10
23
7
17
26
15
12
22
5
2
27
16
3
14

> <PUBCHEM_MMFF94_PARTIAL_CHARGES>
37
1 -0.34
10 -0.9
11 -0.8
12 0.27
13 0.28
14 0.27
15 0.56
16 0.28
17 0.28
18 0.27
19 0.27
2 -0.34
22 0.06
23 0.41
24 0.57
25 -0.14
26 -0.15
27 -0.15
28 -0.15
29 -0.15
3 -0.34
30 0.08
31 1.3
4 -0.56
48 0.36
49 0.4
5 -0.56
52 0.37
53 0.37
54 0.15
55 0.15
56 0.15
57 0.15
6 -0.68
7 -0.57
8 -0.36
9 -0.81

> <PUBCHEM_EFFECTIVE_ROTOR_COUNT>
9.4

> <PUBCHEM_PHARMACOPHORE_FEATURES>
13
1 10 cation
1 10 donor
1 11 donor
1 4 acceptor
1 5 acceptor
1 6 acceptor
1 6 donor
1 7 acceptor
1 8 acceptor
1 9 cation
6 25 26 27 28 29 30 rings
6 9 18 19 20 21 22 rings
8 4 5 12 13 14 15 16 17 rings

> <PUBCHEM_HEAVY_ATOM_COUNT>
31

> <PUBCHEM_ATOM_DEF_STEREO_COUNT>
5

> <PUBCHEM_ATOM_UDEF_STEREO_COUNT>
0

> <PUBCHEM_BOND_DEF_STEREO_COUNT>
0

> <PUBCHEM_BOND_UDEF_STEREO_COUNT>
0

> <PUBCHEM_ISOTOPIC_ATOM_COUNT>
0

> <PUBCHEM_COMPONENT_COUNT>
1

> <PUBCHEM_CACTVS_TAUTO_COUNT>
2

> <PUBCHEM_CONFORMER_ID>
01B9E6FA00000001

> <PUBCHEM_MMFF94_ENERGY>
88.2652

> <PUBCHEM_FEATURE_SELFOVERLAP>
66.022

> <PUBCHEM_SHAPE_FINGERPRINT>
10670039 82 18409735054402518630
10871710 139 18337954489554154443
11045515 52 18339066173499607503
11059048 146 17548983260929219608
11477941 20 18271796952346930212
12522641 126 17621305167756139207
12788726 201 18262786359957210043
13627167 48 18044401481235206292
13761468 95 17841454547965562224
14363568 33 17975709598798769945
14394314 77 18410580586854691673
14400156 266 18060425725312356029
14840074 17 18267029362634273993
151778 21 16826994361834375521
15183329 4 18334580132062760934
15575132 122 18334854970512503071
15961568 22 18412545435744877742
16992787 43 18265045839785201245
16994733 274 15575542546052076359
17627616 140 17545038668337876492
19611394 137 17898300647299117171
20642791 239 18263344989664200107
20764821 26 18264221364561251944
21033650 10 18193015737553210566
21344244 246 17691110961695161695
21641784 216 18411430518185234348
22907989 373 18194667182257911269
23516275 100 18125430072233868744
23559900 14 18195514021038667777
463206 1 18335707203345389449
469060 322 18265636384069524027
4756261 7 18052006661273116977
497634 4 17346884459347198163
5385378 56 8933906416168975079
6036956 94 18260559891745690236
6201320 215 18341043040120244712
6608658 132 18412543232363578862

> <PUBCHEM_SHAPE_MULTIPOLES>
571.85
11.72
6.24
1.45
20.35
10.2
0.1
-4.85
-3.5
-4.36
-0.17
-0.62
-0.16
-1

> <PUBCHEM_SHAPE_SELFOVERLAP>
1222.738

> <PUBCHEM_SHAPE_VOLUME>
315.2

> <PUBCHEM_COORDINATE_TYPE>
2
5
10

$$$$
