45783925
  -OEChem-12032416253D

 67 70  0     1  0  0  0  0  0999 V2000
   -3.7369   -0.5286   -0.7597 O   0  0  0  0  0  0  0  0  0  0  0  0
    7.2156    0.6594   -1.3477 O   0  0  0  0  0  0  0  0  0  0  0  0
    3.6760    0.1079   -0.1729 N   0  0  0  0  0  0  0  0  0  0  0  0
   -2.5257    0.7647   -2.1253 N   0  0  0  0  0  0  0  0  0  0  0  0
    8.3457    1.7654    0.3237 N   0  0  0  0  0  0  0  0  0  0  0  0
   -3.6249    1.4933   -1.7104 N   0  0  0  0  0  0  0  0  0  0  0  0
   -7.9094    1.3548    1.1954 N   0  0  0  0  0  0  0  0  0  0  0  0
    1.0223   -0.5400    0.8914 C   0  0  1  0  0  0  0  0  0  0  0  0
    2.0319   -1.6215    0.4412 C   0  0  2  0  0  0  0  0  0  0  0  0
   -0.1231   -0.4176   -0.1235 C   0  0  0  0  0  0  0  0  0  0  0  0
   -0.8691   -1.7470   -0.3671 C   0  0  2  0  0  0  0  0  0  0  0  0
    0.4865   -0.8267    2.3007 C   0  0  0  0  0  0  0  0  0  0  0  0
    2.9830   -1.0937   -0.6378 C   0  0  0  0  0  0  0  0  0  0  0  0
    1.3557   -2.8711   -0.0622 C   0  0  0  0  0  0  0  0  0  0  0  0
    0.0598   -2.9507   -0.4163 C   0  0  0  0  0  0  0  0  0  0  0  0
    4.7437   -0.2483    0.7700 C   0  0  0  0  0  0  0  0  0  0  0  0
    4.2130    0.8632   -1.3120 C   0  0  0  0  0  0  0  0  0  0  0  0
   -1.7263   -1.6029   -1.6307 C   0  0  0  0  0  0  0  0  0  0  0  0
    5.9432    1.9316    0.2288 C   0  0  0  0  0  0  0  0  0  0  0  0
    5.4277    1.0029    1.3274 C   0  0  0  0  0  0  0  0  0  0  0  0
    4.8878    2.1591   -0.8527 C   0  0  0  0  0  0  0  0  0  0  0  0
   -0.7926   -0.0358    2.5547 C   0  0  0  0  0  0  0  0  0  0  0  0
    1.5440   -0.4963    3.3493 C   0  0  0  0  0  0  0  0  0  0  0  0
   -0.5349   -4.2709   -0.8235 C   0  0  0  0  0  0  0  0  0  0  0  0
   -2.6324   -0.4082   -1.5459 C   0  0  0  0  0  0  0  0  0  0  0  0
    7.2132    1.3876   -0.3583 C   0  0  0  0  0  0  0  0  0  0  0  0
   -4.3033    0.6993   -0.9154 C   0  0  0  0  0  0  0  0  0  0  0  0
   -5.5257    0.9217   -0.1991 C   0  0  0  0  0  0  0  0  0  0  0  0
   -6.1781    2.1459   -0.2952 C   0  0  0  0  0  0  0  0  0  0  0  0
   -6.0637   -0.0862    0.5935 C   0  0  0  0  0  0  0  0  0  0  0  0
   -7.3562    2.3105    0.4153 C   0  0  0  0  0  0  0  0  0  0  0  0
   -7.2470    0.1782    1.2642 C   0  0  0  0  0  0  0  0  0  0  0  0
    1.5048    0.4446    0.9317 H   0  0  0  0  0  0  0  0  0  0  0  0
    2.6261   -1.9474    1.2999 H   0  0  0  0  0  0  0  0  0  0  0  0
   -0.8082    0.3939    0.1409 H   0  0  0  0  0  0  0  0  0  0  0  0
    0.3177   -0.0855   -1.0748 H   0  0  0  0  0  0  0  0  0  0  0  0
   -1.5491   -1.9265    0.4754 H   0  0  0  0  0  0  0  0  0  0  0  0
    0.2365   -1.8895    2.4093 H   0  0  0  0  0  0  0  0  0  0  0  0
    2.3973   -0.8627   -1.5377 H   0  0  0  0  0  0  0  0  0  0  0  0
    3.6994   -1.8696   -0.9428 H   0  0  0  0  0  0  0  0  0  0  0  0
    1.9790   -3.7614   -0.1147 H   0  0  0  0  0  0  0  0  0  0  0  0
    4.3488   -0.7977    1.6298 H   0  0  0  0  0  0  0  0  0  0  0  0
    5.4894   -0.8979    0.2932 H   0  0  0  0  0  0  0  0  0  0  0  0
    4.8981    0.2464   -1.9044 H   0  0  0  0  0  0  0  0  0  0  0  0
    3.3912    1.1452   -1.9827 H   0  0  0  0  0  0  0  0  0  0  0  0
   -2.3531   -2.4894   -1.7831 H   0  0  0  0  0  0  0  0  0  0  0  0
   -1.0913   -1.5051   -2.5202 H   0  0  0  0  0  0  0  0  0  0  0  0
    6.1776    2.9068    0.6765 H   0  0  0  0  0  0  0  0  0  0  0  0
    6.2413    0.7007    1.9979 H   0  0  0  0  0  0  0  0  0  0  0  0
    4.7035    1.5536    1.9426 H   0  0  0  0  0  0  0  0  0  0  0  0
    4.1163    2.8303   -0.4519 H   0  0  0  0  0  0  0  0  0  0  0  0
    5.3247    2.6687   -1.7203 H   0  0  0  0  0  0  0  0  0  0  0  0
   -1.6564   -0.4017    1.9955 H   0  0  0  0  0  0  0  0  0  0  0  0
   -1.0766   -0.1177    3.6111 H   0  0  0  0  0  0  0  0  0  0  0  0
   -0.6570    1.0319    2.3486 H   0  0  0  0  0  0  0  0  0  0  0  0
    1.1472   -0.6560    4.3583 H   0  0  0  0  0  0  0  0  0  0  0  0
    2.4324   -1.1260    3.2572 H   0  0  0  0  0  0  0  0  0  0  0  0
    1.8610    0.5502    3.2822 H   0  0  0  0  0  0  0  0  0  0  0  0
   -0.7928   -4.2681   -1.8870 H   0  0  0  0  0  0  0  0  0  0  0  0
    0.1563   -5.1040   -0.6559 H   0  0  0  0  0  0  0  0  0  0  0  0
   -1.4389   -4.4763   -0.2409 H   0  0  0  0  0  0  0  0  0  0  0  0
    9.2632    1.4543    0.0222 H   0  0  0  0  0  0  0  0  0  0  0  0
    8.3150    2.3571    1.1477 H   0  0  0  0  0  0  0  0  0  0  0  0
   -5.7945    2.9600   -0.9018 H   0  0  0  0  0  0  0  0  0  0  0  0
   -5.6004   -1.0606    0.7074 H   0  0  0  0  0  0  0  0  0  0  0  0
   -7.9037    3.2463    0.3740 H   0  0  0  0  0  0  0  0  0  0  0  0
   -7.7080   -0.5744    1.8954 H   0  0  0  0  0  0  0  0  0  0  0  0
  1 25  1  0  0  0  0
  1 27  1  0  0  0  0
  2 26  2  0  0  0  0
  3 13  1  0  0  0  0
  3 16  1  0  0  0  0
  3 17  1  0  0  0  0
  4  6  1  0  0  0  0
  4 25  2  0  0  0  0
  5 26  1  0  0  0  0
  5 62  1  0  0  0  0
  5 63  1  0  0  0  0
  6 27  2  0  0  0  0
  7 31  2  0  0  0  0
  7 32  1  0  0  0  0
  8  9  1  0  0  0  0
  8 10  1  0  0  0  0
  8 12  1  0  0  0  0
  8 33  1  0  0  0  0
  9 13  1  0  0  0  0
  9 14  1  0  0  0  0
  9 34  1  0  0  0  0
 10 11  1  0  0  0  0
 10 35  1  0  0  0  0
 10 36  1  0  0  0  0
 11 15  1  0  0  0  0
 11 18  1  0  0  0  0
 11 37  1  0  0  0  0
 12 22  1  0  0  0  0
 12 23  1  0  0  0  0
 12 38  1  0  0  0  0
 13 39  1  0  0  0  0
 13 40  1  0  0  0  0
 14 15  2  0  0  0  0
 14 41  1  0  0  0  0
 15 24  1  0  0  0  0
 16 20  1  0  0  0  0
 16 42  1  0  0  0  0
 16 43  1  0  0  0  0
 17 21  1  0  0  0  0
 17 44  1  0  0  0  0
 17 45  1  0  0  0  0
 18 25  1  0  0  0  0
 18 46  1  0  0  0  0
 18 47  1  0  0  0  0
 19 20  1  0  0  0  0
 19 21  1  0  0  0  0
 19 26  1  0  0  0  0
 19 48  1  0  0  0  0
 20 49  1  0  0  0  0
 20 50  1  0  0  0  0
 21 51  1  0  0  0  0
 21 52  1  0  0  0  0
 22 53  1  0  0  0  0
 22 54  1  0  0  0  0
 22 55  1  0  0  0  0
 23 56  1  0  0  0  0
 23 57  1  0  0  0  0
 23 58  1  0  0  0  0
 24 59  1  0  0  0  0
 24 60  1  0  0  0  0
 24 61  1  0  0  0  0
 27 28  1  0  0  0  0
 28 29  2  0  0  0  0
 28 30  1  0  0  0  0
 29 31  1  0  0  0  0
 29 64  1  0  0  0  0
 30 32  2  0  0  0  0
 30 65  1  0  0  0  0
 31 66  1  0  0  0  0
 32 67  1  0  0  0  0
M  END
> <PUBCHEM_COMPOUND_CID>
45783925

> <PUBCHEM_CONFORMER_RMSD>
1

> <PUBCHEM_CONFORMER_DIVERSEORDER>
9
26
173
17
135
121
132
41
163
111
214
143
109
68
187
168
144
96
148
100
196
84
32
205
156
198
73
189
151
116
122
133
36
63
162
62
5
86
88
127
175
31
118
186
106
92
2
90
206
200
154
98
152
19
60
67
194
75
14
159
82
188
147
150
48
120
108
50
201
10
174
37
78
208
176
89
113
165
85
149
13
164
191
7
117
202
129
28
16
25
130
182
54
138
125
126
145
170
61
203
22
136
66
155
180
158
197
30
105
72
74
45
167
18
43
160
123
199
23
70
211
42
195
169
11
153
29
178
161
71
172
183
101
146
213
4
192
57
210
104
79
12
110
157
76
99
179
52
80
139
119
55
204
181
124
38
65
142
137
97
34
8
112
56
140
64
166
51
6
20
131
103
27
102
185
207
114
59
94
21
91
177
95
193
93
53
3
15
87
40
115
190
81
171
77
184
212
69
35
128
44
49
46
141
58
39
83
33
209
47
134
107
24
1

> <PUBCHEM_MMFF94_PARTIAL_CHARGES>
32
1 -0.28
11 0.14
13 0.27
14 -0.29
15 -0.28
16 0.27
17 0.27
18 0.18
19 0.06
2 -0.57
24 0.14
25 0.3
26 0.57
27 0.43
28 0.05
29 -0.15
3 -0.81
30 -0.15
31 0.16
32 0.16
4 -0.34
41 0.15
5 -0.8
6 -0.34
62 0.37
63 0.37
64 0.15
65 0.15
66 0.15
67 0.15
7 -0.62
9 0.14

> <PUBCHEM_EFFECTIVE_ROTOR_COUNT>
9

> <PUBCHEM_PHARMACOPHORE_FEATURES>
9
1 2 acceptor
1 3 cation
1 5 donor
1 7 acceptor
3 12 22 23 hydrophobe
5 1 4 6 25 27 rings
6 3 16 17 19 20 21 rings
6 7 28 29 30 31 32 rings
6 8 9 10 11 14 15 rings

> <PUBCHEM_HEAVY_ATOM_COUNT>
32

> <PUBCHEM_ATOM_DEF_STEREO_COUNT>
3

> <PUBCHEM_ATOM_UDEF_STEREO_COUNT>
0

> <PUBCHEM_BOND_DEF_STEREO_COUNT>
0

> <PUBCHEM_BOND_UDEF_STEREO_COUNT>
0

> <PUBCHEM_ISOTOPIC_ATOM_COUNT>
0

> <PUBCHEM_COMPONENT_COUNT>
1

> <PUBCHEM_CACTVS_TAUTO_COUNT>
2

> <PUBCHEM_CONFORMER_ID>
02BA9B7500000009

> <PUBCHEM_MMFF94_ENERGY>
62.3951

> <PUBCHEM_FEATURE_SELFOVERLAP>
45.671

> <PUBCHEM_SHAPE_FINGERPRINT>
10 15 18113336405956543805
10165383 225 18342739633120662615
10369192 42 18410011035694006525
10483366 6 15482675662711332564
10673678 19 18342182133000763655
10674148 151 15913329074269904530
10904742 90 18342458140705275967
11115154 58 14548744997326966395
11135609 201 18410285913606153269
11479125 193 18121225539141226713
11578080 2 18053372486774591808
11796584 16 13038887929088030119
1200032 147 18335702724200616506
12293681 160 17704072901915515690
12788726 201 16343711997441704266
12838863 1 12468644954285612473
12895836 83 18412822516574411887
13782708 43 13190329158739229340
14068700 675 10231761084576291038
14114211 68 18059862726949100135
14294032 229 18410288155437092727
14400156 260 16701466645949885915
14747282 305 14707468280025894904
15183329 4 14836406913192543165
15188451 53 12035446142526004061
15297060 5 18272367589896139600
15320295 40 12035449471785099697
15357212 105 16155702261603641732
15475509 8 14979962445713032707
16126227 98 18339080496561119892
16992727 255 18202566206671979112
16994733 274 18408318899783243784
17349148 13 12974181622981333751
18222031 100 8070024493093934246
19319366 153 18059005078236962495
20105231 36 13118267150873289904
2026 5 8214136344867236553
21033648 29 18116427228206801664
21304304 249 11314312745530691801
21307412 95 13901908946398717781
21424621 283 18272369775950129720
21781055 127 17846496981706394634
22956985 138 13047319997962650496
23389318 12 9943521947619119352
25269216 80 16845277398469877653
2838139 119 18188759648311216988
3633792 109 18131354095133908046
38570 142 17632576050586732755
392239 28 16515405187942012557
397830 11 16732978700361335035
4093350 32 18408886201050076066
4098825 35 18131353011942469318
4340502 62 16950564359169522243
437795 70 15123793968299729425
437815 12 10663819671968325279
44426699 302 18271525291893574302
444735 79 14923942353562495177
465052 167 11386372525648820986
474113 269 8430324515025240121
50009960 94 16590301812057424947
5104073 3 16661477390967879729
5252454 2 18058711538918286775
5385378 56 18333729092513344590
54076057 255 17346877815491071305
5718773 13 8430314640932050725
57527295 17 17489009561462766902
6201320 82 18047764986401323636
9689198 14 18272377460000160669

> <PUBCHEM_SHAPE_MULTIPOLES>
621.9
20.92
3.11
2.15
3.75
2.73
1.44
-22.35
0.56
-0.11
-0.92
0.14
0.05
-0.78

> <PUBCHEM_SHAPE_SELFOVERLAP>
1315.546

> <PUBCHEM_SHAPE_VOLUME>
345.2

> <PUBCHEM_COORDINATE_TYPE>
2
5
10

$$$$
