75536575
  -OEChem-12032416413D

 50 51  0     1  0  0  0  0  0999 V2000
    1.7952    0.8182    1.0565 O   0  0  0  0  0  0  0  0  0  0  0  0
    0.8064    0.0682   -2.3147 O   0  0  0  0  0  0  0  0  0  0  0  0
   -6.8519   -1.9414   -0.5352 O   0  0  0  0  0  0  0  0  0  0  0  0
    5.2612   -0.8545   -1.2528 O   0  0  0  0  0  0  0  0  0  0  0  0
    7.3474   -1.3192    0.3840 O   0  0  0  0  0  0  0  0  0  0  0  0
   -1.5050    1.0932   -0.4483 N   0  0  0  0  0  0  0  0  0  0  0  0
   -5.3054   -0.5191    0.4562 N   0  0  0  0  0  0  0  0  0  0  0  0
    4.4897    0.9089    0.0546 N   0  0  0  0  0  0  0  0  0  0  0  0
   -0.2272    0.4720   -0.1401 C   0  0  1  0  0  0  0  0  0  0  0  0
   -2.5847    0.4590    0.3039 C   0  0  0  0  0  0  0  0  0  0  0  0
    0.8745    0.8254   -1.1220 C   0  0  1  0  0  0  0  0  0  0  0  0
    2.1146    0.4880   -0.3054 C   0  0  1  0  0  0  0  0  0  0  0  0
   -3.7772    1.4170    0.4223 C   0  0  0  0  0  0  0  0  0  0  0  0
   -3.0104   -0.8446   -0.3835 C   0  0  0  0  0  0  0  0  0  0  0  0
    0.3685    0.9623    1.1694 C   0  0  0  0  0  0  0  0  0  0  0  0
   -4.9556    0.7413    1.1235 C   0  0  0  0  0  0  0  0  0  0  0  0
   -4.2028   -1.4751    0.3338 C   0  0  0  0  0  0  0  0  0  0  0  0
    3.3492    1.2554   -0.7437 C   0  0  0  0  0  0  0  0  0  0  0  0
   -6.5746   -0.8602   -0.0096 C   0  0  0  0  0  0  0  0  0  0  0  0
   -7.6551    0.1792    0.1505 C   0  0  0  0  0  0  0  0  0  0  0  0
    5.3605   -0.1274   -0.2682 C   0  0  0  0  0  0  0  0  0  0  0  0
    6.4751   -0.2701    0.7463 C   0  0  0  0  0  0  0  0  0  0  0  0
    8.4077   -1.4765    1.3226 C   0  0  0  0  0  0  0  0  0  0  0  0
   -0.3081   -0.6220   -0.1216 H   0  0  0  0  0  0  0  0  0  0  0  0
   -2.2595    0.2320    1.3280 H   0  0  0  0  0  0  0  0  0  0  0  0
    0.8478    1.8919   -1.3782 H   0  0  0  0  0  0  0  0  0  0  0  0
    2.3212   -0.5899   -0.3403 H   0  0  0  0  0  0  0  0  0  0  0  0
   -1.6944    1.0312   -1.4481 H   0  0  0  0  0  0  0  0  0  0  0  0
   -4.0959    1.7421   -0.5772 H   0  0  0  0  0  0  0  0  0  0  0  0
   -3.4884    2.3173    0.9780 H   0  0  0  0  0  0  0  0  0  0  0  0
   -2.1966   -1.5766   -0.4084 H   0  0  0  0  0  0  0  0  0  0  0  0
   -3.2929   -0.6433   -1.4258 H   0  0  0  0  0  0  0  0  0  0  0  0
    0.1649    2.0245    1.3477 H   0  0  0  0  0  0  0  0  0  0  0  0
    0.0172    0.3940    2.0358 H   0  0  0  0  0  0  0  0  0  0  0  0
   -4.6936    0.4963    2.1597 H   0  0  0  0  0  0  0  0  0  0  0  0
   -5.7989    1.4330    1.1601 H   0  0  0  0  0  0  0  0  0  0  0  0
   -4.5236   -2.3729   -0.2041 H   0  0  0  0  0  0  0  0  0  0  0  0
   -3.9221   -1.7835    1.3479 H   0  0  0  0  0  0  0  0  0  0  0  0
    3.5722    1.0588   -1.7979 H   0  0  0  0  0  0  0  0  0  0  0  0
    3.1995    2.3329   -0.6143 H   0  0  0  0  0  0  0  0  0  0  0  0
    0.8275   -0.8750   -2.0800 H   0  0  0  0  0  0  0  0  0  0  0  0
    4.6561    1.4456    0.9011 H   0  0  0  0  0  0  0  0  0  0  0  0
   -7.3911    1.0868   -0.3988 H   0  0  0  0  0  0  0  0  0  0  0  0
   -7.8116    0.4022    1.2092 H   0  0  0  0  0  0  0  0  0  0  0  0
   -8.5941   -0.2058   -0.2592 H   0  0  0  0  0  0  0  0  0  0  0  0
    7.0268    0.6761    0.7907 H   0  0  0  0  0  0  0  0  0  0  0  0
    6.0272   -0.4774    1.7251 H   0  0  0  0  0  0  0  0  0  0  0  0
    9.0439   -2.2998    0.9870 H   0  0  0  0  0  0  0  0  0  0  0  0
    8.0089   -1.7219    2.3116 H   0  0  0  0  0  0  0  0  0  0  0  0
    9.0110   -0.5650    1.3735 H   0  0  0  0  0  0  0  0  0  0  0  0
  1 12  1  0  0  0  0
  1 15  1  0  0  0  0
  2 11  1  0  0  0  0
  2 41  1  0  0  0  0
  3 19  2  0  0  0  0
  4 21  2  0  0  0  0
  5 22  1  0  0  0  0
  5 23  1  0  0  0  0
  6  9  1  0  0  0  0
  6 10  1  0  0  0  0
  6 28  1  0  0  0  0
  7 16  1  0  0  0  0
  7 17  1  0  0  0  0
  7 19  1  0  0  0  0
  8 18  1  0  0  0  0
  8 21  1  0  0  0  0
  8 42  1  0  0  0  0
  9 11  1  0  0  0  0
  9 15  1  0  0  0  0
  9 24  1  0  0  0  0
 10 13  1  0  0  0  0
 10 14  1  0  0  0  0
 10 25  1  0  0  0  0
 11 12  1  0  0  0  0
 11 26  1  0  0  0  0
 12 18  1  0  0  0  0
 12 27  1  0  0  0  0
 13 16  1  0  0  0  0
 13 29  1  0  0  0  0
 13 30  1  0  0  0  0
 14 17  1  0  0  0  0
 14 31  1  0  0  0  0
 14 32  1  0  0  0  0
 15 33  1  0  0  0  0
 15 34  1  0  0  0  0
 16 35  1  0  0  0  0
 16 36  1  0  0  0  0
 17 37  1  0  0  0  0
 17 38  1  0  0  0  0
 18 39  1  0  0  0  0
 18 40  1  0  0  0  0
 19 20  1  0  0  0  0
 20 43  1  0  0  0  0
 20 44  1  0  0  0  0
 20 45  1  0  0  0  0
 21 22  1  0  0  0  0
 22 46  1  0  0  0  0
 22 47  1  0  0  0  0
 23 48  1  0  0  0  0
 23 49  1  0  0  0  0
 23 50  1  0  0  0  0
M  END
> <PUBCHEM_COMPOUND_CID>
75536575

> <PUBCHEM_CONFORMER_RMSD>
1

> <PUBCHEM_CONFORMER_DIVERSEORDER>
1
45
25
62
49
43
33
51
16
7
32
65
48
53
19
24
60
42
55
18
31
46
29
23
41
8
34
64
54
4
58
6
57
21
61
44
9
63
40
10
20
14
15
47
59
38
66
27
2
52
26
56
37
17
35
5
22
13
12
30
11
3
36
50
39
28

> <PUBCHEM_MMFF94_PARTIAL_CHARGES>
24
1 -0.56
10 0.27
11 0.28
12 0.28
15 0.28
16 0.3
17 0.3
18 0.3
19 0.57
2 -0.68
20 0.06
21 0.57
22 0.34
23 0.28
28 0.36
3 -0.57
4 -0.57
41 0.4
42 0.37
5 -0.56
6 -0.9
7 -0.66
8 -0.73
9 0.27

> <PUBCHEM_EFFECTIVE_ROTOR_COUNT>
10.2

> <PUBCHEM_PHARMACOPHORE_FEATURES>
11
1 1 acceptor
1 2 acceptor
1 2 donor
1 3 acceptor
1 4 acceptor
1 5 acceptor
1 6 cation
1 6 donor
1 8 donor
5 1 9 11 12 15 rings
6 7 10 13 14 16 17 rings

> <PUBCHEM_HEAVY_ATOM_COUNT>
23

> <PUBCHEM_ATOM_DEF_STEREO_COUNT>
3

> <PUBCHEM_ATOM_UDEF_STEREO_COUNT>
0

> <PUBCHEM_BOND_DEF_STEREO_COUNT>
0

> <PUBCHEM_BOND_UDEF_STEREO_COUNT>
0

> <PUBCHEM_ISOTOPIC_ATOM_COUNT>
0

> <PUBCHEM_COMPONENT_COUNT>
1

> <PUBCHEM_CACTVS_TAUTO_COUNT>
2

> <PUBCHEM_CONFORMER_ID>
048098BF00000001

> <PUBCHEM_MMFF94_ENERGY>
37.7849

> <PUBCHEM_FEATURE_SELFOVERLAP>
55.83

> <PUBCHEM_SHAPE_FINGERPRINT>
10 15 17060335249675151712
10299344 5 18334296465960963698
106641 1 15769770273316212798
10670039 82 13623803900519366446
11315181 36 18272939349550470601
11991303 11 14562824282401263082
12236239 1 17968099772081875605
12596602 18 13542198164485221151
13073987 5 16343434898804241113
13540713 4 16269977562689082540
13540713 5 14347452911489951340
13668630 136 16950565501456749643
13862211 1 18259987071977501056
13885169 127 18336826403477783689
14123256 10 13912321287596544302
14251764 18 18342458166564847652
14251764 46 17775286058317283009
14849402 71 12751226039039774402
15183329 4 17458062660158345362
15188451 53 18410292502228488128
15198563 99 14635142370865385054
15690457 1 18410006650137095714
15706992 2 11959728330551907242
15716309 27 18341893008576255972
1768 124 18339077091538868402
18222031 100 16515683364510889012
2026 5 18114176377096209690
20735858 18 17132115740796713988
21130935 74 16056332639147840215
21130983 4 11167942463548479146
21150785 3 12396301452674170194
21267235 1 16588027918193301173
21637258 2 18333447647252914108
21792961 116 13334732401898237544
22224240 67 15410892963770696188
23035841 295 18259704510416165259
23402539 116 18334859406971483821
23522609 53 17825983401699085636
23559900 14 18200308970194932857
23569943 247 17459462256940691346
23576562 1 13479715207838608131
28498 318 17894345566465558343
29717793 49 18113341937542241973
4340502 62 17131837555960124838
445580 37 13479123580499035719
5283156 175 18040715857179636449
559249 180 18335138683451913733
5758199 1 12823294602566041804
59682541 35 15051728711523485295
59682541 52 13912604923685766282
59755656 215 16008743606574901346

> <PUBCHEM_SHAPE_MULTIPOLES>
429.04
22.88
1.5
1.24
13.35
0.37
0.29
12.94
-4.51
-0.09
-0.05
0.84
-0.08
-1.45

> <PUBCHEM_SHAPE_SELFOVERLAP>
859.233

> <PUBCHEM_SHAPE_VOLUME>
252.3

> <PUBCHEM_COORDINATE_TYPE>
2
5
10

$$$$
