25314799
  -OEChem-12032416353D

 49 52  0     1  0  0  0  0  0999 V2000
    3.5033    1.5592    0.1357 O   0  0  0  0  0  0  0  0  0  0  0  0
    4.4611    0.3423   -1.5905 O   0  0  0  0  0  0  0  0  0  0  0  0
    3.9161   -2.1973   -0.3637 O   0  0  0  0  0  0  0  0  0  0  0  0
   -3.6080   -1.8355   -0.3659 O   0  0  0  0  0  0  0  0  0  0  0  0
    1.0571    0.0502   -0.1559 N   0  0  0  0  0  0  0  0  0  0  0  0
   -1.7889    0.2854   -0.0890 N   0  0  0  0  0  0  0  0  0  0  0  0
    3.1940   -0.0790    2.5247 N   0  0  0  0  0  0  0  0  0  0  0  0
    2.3486   -0.3987   -0.6780 C   0  0  2  0  0  0  0  0  0  0  0  0
    3.0818   -1.2802    0.3594 C   0  0  2  0  0  0  0  0  0  0  0  0
    3.9686   -0.4815    1.3458 C   0  0  1  0  0  0  0  0  0  0  0  0
    3.2139    0.8177   -1.0571 C   0  0  1  0  0  0  0  0  0  0  0  0
    4.5687    0.7914    0.7060 C   0  0  1  0  0  0  0  0  0  0  0  0
    5.4103    0.5289   -0.5298 C   0  0  0  0  0  0  0  0  0  0  0  0
    0.3566    0.8711   -1.1513 C   0  0  0  0  0  0  0  0  0  0  0  0
    0.2249   -1.0998    0.2178 C   0  0  0  0  0  0  0  0  0  0  0  0
   -0.9703    1.3939   -0.5961 C   0  0  0  0  0  0  0  0  0  0  0  0
   -1.1072   -0.6433    0.8180 C   0  0  0  0  0  0  0  0  0  0  0  0
   -3.1678    0.4889    0.0338 C   0  0  0  0  0  0  0  0  0  0  0  0
   -4.0582   -0.5758   -0.1051 C   0  0  0  0  0  0  0  0  0  0  0  0
   -3.6497    1.7709    0.2993 C   0  0  0  0  0  0  0  0  0  0  0  0
   -5.4303   -0.3588    0.0211 C   0  0  0  0  0  0  0  0  0  0  0  0
   -5.0218    1.9878    0.4259 C   0  0  0  0  0  0  0  0  0  0  0  0
   -5.9121    0.9232    0.2867 C   0  0  0  0  0  0  0  0  0  0  0  0
   -4.5908   -2.8610   -0.4918 C   0  0  0  0  0  0  0  0  0  0  0  0
    2.1989   -0.9981   -1.5883 H   0  0  0  0  0  0  0  0  0  0  0  0
    2.4535   -1.9613    0.9270 H   0  0  0  0  0  0  0  0  0  0  0  0
    2.7892    1.4747   -1.8165 H   0  0  0  0  0  0  0  0  0  0  0  0
    4.7972   -1.1120    1.6916 H   0  0  0  0  0  0  0  0  0  0  0  0
    5.1165    1.3877    1.4437 H   0  0  0  0  0  0  0  0  0  0  0  0
    6.0100    1.4083   -0.7885 H   0  0  0  0  0  0  0  0  0  0  0  0
    6.0707   -0.3383   -0.4449 H   0  0  0  0  0  0  0  0  0  0  0  0
    0.1736    0.3004   -2.0716 H   0  0  0  0  0  0  0  0  0  0  0  0
    0.9118    1.7720   -1.4214 H   0  0  0  0  0  0  0  0  0  0  0  0
    0.6516   -1.7207    1.0045 H   0  0  0  0  0  0  0  0  0  0  0  0
    0.0360   -1.7448   -0.6509 H   0  0  0  0  0  0  0  0  0  0  0  0
   -0.7700    2.1112    0.2106 H   0  0  0  0  0  0  0  0  0  0  0  0
   -1.4870    1.9235   -1.4068 H   0  0  0  0  0  0  0  0  0  0  0  0
   -1.7066   -1.5305    1.0437 H   0  0  0  0  0  0  0  0  0  0  0  0
   -0.9299   -0.1355    1.7756 H   0  0  0  0  0  0  0  0  0  0  0  0
    3.8033    0.3939    3.1910 H   0  0  0  0  0  0  0  0  0  0  0  0
    2.8383   -0.9078    2.9994 H   0  0  0  0  0  0  0  0  0  0  0  0
    4.3576   -2.7721    0.2846 H   0  0  0  0  0  0  0  0  0  0  0  0
   -2.9909    2.6237    0.4335 H   0  0  0  0  0  0  0  0  0  0  0  0
   -6.1818   -1.1349   -0.0738 H   0  0  0  0  0  0  0  0  0  0  0  0
   -5.3972    2.9848    0.6371 H   0  0  0  0  0  0  0  0  0  0  0  0
   -6.9802    1.0935    0.3863 H   0  0  0  0  0  0  0  0  0  0  0  0
   -4.0564   -3.7945   -0.6972 H   0  0  0  0  0  0  0  0  0  0  0  0
   -5.2548   -2.6823   -1.3445 H   0  0  0  0  0  0  0  0  0  0  0  0
   -5.1411   -3.0107    0.4433 H   0  0  0  0  0  0  0  0  0  0  0  0
  1 11  1  0  0  0  0
  1 12  1  0  0  0  0
  2 11  1  0  0  0  0
  2 13  1  0  0  0  0
  3  9  1  0  0  0  0
  3 42  1  0  0  0  0
  4 19  1  0  0  0  0
  4 24  1  0  0  0  0
  5  8  1  0  0  0  0
  5 14  1  0  0  0  0
  5 15  1  0  0  0  0
  6 16  1  0  0  0  0
  6 17  1  0  0  0  0
  6 18  1  0  0  0  0
  7 10  1  0  0  0  0
  7 40  1  0  0  0  0
  7 41  1  0  0  0  0
  8  9  1  0  0  0  0
  8 11  1  0  0  0  0
  8 25  1  0  0  0  0
  9 10  1  0  0  0  0
  9 26  1  0  0  0  0
 10 12  1  0  0  0  0
 10 28  1  0  0  0  0
 11 27  1  0  0  0  0
 12 13  1  0  0  0  0
 12 29  1  0  0  0  0
 13 30  1  0  0  0  0
 13 31  1  0  0  0  0
 14 16  1  0  0  0  0
 14 32  1  0  0  0  0
 14 33  1  0  0  0  0
 15 17  1  0  0  0  0
 15 34  1  0  0  0  0
 15 35  1  0  0  0  0
 16 36  1  0  0  0  0
 16 37  1  0  0  0  0
 17 38  1  0  0  0  0
 17 39  1  0  0  0  0
 18 19  1  0  0  0  0
 18 20  2  0  0  0  0
 19 21  2  0  0  0  0
 20 22  1  0  0  0  0
 20 43  1  0  0  0  0
 21 23  1  0  0  0  0
 21 44  1  0  0  0  0
 22 23  2  0  0  0  0
 22 45  1  0  0  0  0
 23 46  1  0  0  0  0
 24 47  1  0  0  0  0
 24 48  1  0  0  0  0
 24 49  1  0  0  0  0
M  END
> <PUBCHEM_COMPOUND_CID>
25314799

> <PUBCHEM_CONFORMER_RMSD>
0.8

> <PUBCHEM_CONFORMER_DIVERSEORDER>
3
38
25
32
22
14
35
15
1
16
39
40
18
10
8
30
31
12
34
7
37
23
4
20
19
21
2
9
24
27
28
13
17
11
33
26
6
36
5
29

> <PUBCHEM_MMFF94_PARTIAL_CHARGES>
31
1 -0.56
10 0.27
11 0.56
12 0.28
13 0.28
14 0.27
15 0.27
16 0.37
17 0.37
18 0.1
19 0.08
2 -0.56
20 -0.15
21 -0.15
22 -0.15
23 -0.15
24 0.28
3 -0.68
4 -0.36
40 0.36
41 0.36
42 0.4
43 0.15
44 0.15
45 0.15
46 0.15
5 -0.81
6 -0.84
7 -0.99
8 0.27
9 0.28

> <PUBCHEM_EFFECTIVE_ROTOR_COUNT>
5.4

> <PUBCHEM_PHARMACOPHORE_FEATURES>
12
1 1 acceptor
1 2 acceptor
1 3 acceptor
1 3 donor
1 4 acceptor
1 5 cation
1 6 cation
1 7 cation
1 7 donor
6 18 19 20 21 22 23 rings
6 5 6 14 15 16 17 rings
8 1 2 8 9 10 11 12 13 rings

> <PUBCHEM_HEAVY_ATOM_COUNT>
24

> <PUBCHEM_ATOM_DEF_STEREO_COUNT>
5

> <PUBCHEM_ATOM_UDEF_STEREO_COUNT>
0

> <PUBCHEM_BOND_DEF_STEREO_COUNT>
0

> <PUBCHEM_BOND_UDEF_STEREO_COUNT>
0

> <PUBCHEM_ISOTOPIC_ATOM_COUNT>
0

> <PUBCHEM_COMPONENT_COUNT>
1

> <PUBCHEM_CACTVS_TAUTO_COUNT>
1

> <PUBCHEM_CONFORMER_ID>
018245EF00000003

> <PUBCHEM_MMFF94_ENERGY>
96.2901

> <PUBCHEM_FEATURE_SELFOVERLAP>
60.948

> <PUBCHEM_SHAPE_FINGERPRINT>
10062212 137 18187645825736196787
10595046 47 18410294752385097991
10912923 1 18113897177992209513
11045977 3 17704068516843089547
11405975 8 18271526386181268019
12107183 9 17761211012227651481
12236239 1 18040715866165131857
12403259 415 17632295717701882402
12616971 3 17749103383424415971
12788726 201 18188495665961570168
13167823 11 18408323285171491351
13224815 77 18040150703918450750
13533116 47 17774161184681206151
13583140 156 17489860544749345659
13760787 5 17167579397217945511
14341114 176 18271812297948820641
14341114 328 18333448733468111881
14528608 73 18336831982481779588
15196674 1 18408888416973482943
15250474 111 18337098030010569331
15788980 27 18260551112863054675
17349148 13 17821728355542767703
17844677 252 18201443609621601425
17857418 61 18261386776149677629
1813 80 17095249081520717135
18681886 176 18340491174838961180
19489759 90 18060138730759675437
20511986 3 18114449120229528053
20645477 70 15502370110930472632
21033648 144 17024313130771157884
21033648 29 16845282826680902113
21623969 137 15357701881016532328
220451 1 18335427858962081837
22224240 67 16878225359787333792
23402539 116 18408321116260161663
23557571 272 17917441908204275005
23559900 14 18202287965895261302
239999 70 18060426828602129412
268830 7 17822290201705704221
300161 21 18260827103018971781
3004659 81 18336550409042723622
345986 75 17241868931336747312
34797466 226 17704078429580499629
3545911 37 18342743996232351029
4073 2 18260837028799552610
4214541 1 18412546505239115925
5104073 3 18408606937712205795
5374978 207 18187363207913349408
542803 24 18041002834141412941
573450 72 18335696152884621171
5924683 9 18271802467407016271
633830 44 17603873277668007107
67856867 119 18263364857655988653
7495541 125 17560516304274252522
90127 26 16487256560494172849

> <PUBCHEM_SHAPE_MULTIPOLES>
455.49
14.05
2.06
1.23
4.83
0.91
0.42
-0.88
0.58
2.27
-0.22
-1.65
-0.04
-0.95

> <PUBCHEM_SHAPE_SELFOVERLAP>
977.421

> <PUBCHEM_SHAPE_VOLUME>
248.9

> <PUBCHEM_COORDINATE_TYPE>
2
5
10

$$$$
