28962489
  -OEChem-12032416133D

 64 66  0     1  0  0  0  0  0999 V2000
   -0.9880   -2.3445   -1.3633 O   0  0  0  0  0  0  0  0  0  0  0  0
    3.8720   -2.2831    0.8609 O   0  0  0  0  0  0  0  0  0  0  0  0
   -6.2958    2.0617   -1.3059 O   0  0  0  0  0  0  0  0  0  0  0  0
   -5.5458    0.2631   -0.0330 N   0  0  0  0  0  0  0  0  0  0  0  0
    3.3939   -1.2731   -1.1716 N   0  0  0  0  0  0  0  0  0  0  0  0
    5.7737    2.0702    0.8872 N   0  0  0  0  0  0  0  0  0  0  0  0
   -1.4126    0.4978    1.1500 C   0  0  1  0  0  0  0  0  0  0  0  0
   -1.7514   -0.4253   -0.0674 C   0  0  2  0  0  0  0  0  0  0  0  0
   -3.2843   -0.7673   -0.1002 C   0  0  1  0  0  0  0  0  0  0  0  0
   -0.7922   -1.6487   -0.1314 C   0  0  2  0  0  0  0  0  0  0  0  0
    0.0781    0.9066    1.0885 C   0  0  0  0  0  0  0  0  0  0  0  0
   -2.2588    1.7884    1.0549 C   0  0  0  0  0  0  0  0  0  0  0  0
    0.6983   -1.2386   -0.0875 C   0  0  1  0  0  0  0  0  0  0  0  0
   -4.1271    0.5389   -0.1198 C   0  0  2  0  0  0  0  0  0  0  0  0
    1.0217   -0.2886    1.0656 C   0  0  0  0  0  0  0  0  0  0  0  0
   -3.7554    1.5186    0.9931 C   0  0  0  0  0  0  0  0  0  0  0  0
   -1.6841   -0.1911    2.5115 C   0  0  0  0  0  0  0  0  0  0  0  0
    1.6228   -2.4603   -0.0194 C   0  0  2  0  0  0  0  0  0  0  0  0
   -3.6929   -1.6506   -1.2912 C   0  0  0  0  0  0  0  0  0  0  0  0
    1.3122   -3.2848    1.2249 C   0  0  0  0  0  0  0  0  0  0  0  0
    3.0805   -2.0109   -0.0393 C   0  0  0  0  0  0  0  0  0  0  0  0
   -6.5065    1.0534   -0.6369 C   0  0  0  0  0  0  0  0  0  0  0  0
   -7.8987    0.5277   -0.4096 C   0  0  0  0  0  0  0  0  0  0  0  0
    4.7129   -0.7366   -1.4142 C   0  0  0  0  0  0  0  0  0  0  0  0
    4.8721    0.6430   -0.8434 C   0  0  0  0  0  0  0  0  0  0  0  0
    4.2986    1.7466   -1.4651 C   0  0  0  0  0  0  0  0  0  0  0  0
    5.5936    0.8562    0.3202 C   0  0  0  0  0  0  0  0  0  0  0  0
    4.4618    3.0119   -0.9120 C   0  0  0  0  0  0  0  0  0  0  0  0
    5.2015    3.1192    0.2547 C   0  0  0  0  0  0  0  0  0  0  0  0
   -1.5626    0.1563   -0.9841 H   0  0  0  0  0  0  0  0  0  0  0  0
   -3.5401   -1.3354    0.8031 H   0  0  0  0  0  0  0  0  0  0  0  0
   -1.0677   -2.3306    0.6748 H   0  0  0  0  0  0  0  0  0  0  0  0
    0.3320    1.5477    1.9426 H   0  0  0  0  0  0  0  0  0  0  0  0
    0.2590    1.5108    0.1891 H   0  0  0  0  0  0  0  0  0  0  0  0
   -1.9714    2.3524    0.1573 H   0  0  0  0  0  0  0  0  0  0  0  0
   -2.0486    2.4446    1.9091 H   0  0  0  0  0  0  0  0  0  0  0  0
    0.8960   -0.6939   -1.0204 H   0  0  0  0  0  0  0  0  0  0  0  0
   -3.9476    1.0431   -1.0796 H   0  0  0  0  0  0  0  0  0  0  0  0
    2.0409    0.1039    0.9733 H   0  0  0  0  0  0  0  0  0  0  0  0
    0.9763   -0.7777    2.0408 H   0  0  0  0  0  0  0  0  0  0  0  0
   -4.1111    1.1444    1.9609 H   0  0  0  0  0  0  0  0  0  0  0  0
   -4.2798    2.4708    0.8398 H   0  0  0  0  0  0  0  0  0  0  0  0
   -2.7384   -0.4386    2.6592 H   0  0  0  0  0  0  0  0  0  0  0  0
   -1.3919    0.4651    3.3398 H   0  0  0  0  0  0  0  0  0  0  0  0
   -1.1282   -1.1257    2.6263 H   0  0  0  0  0  0  0  0  0  0  0  0
    1.4748   -3.0953   -0.9024 H   0  0  0  0  0  0  0  0  0  0  0  0
   -3.3256   -1.2381   -2.2365 H   0  0  0  0  0  0  0  0  0  0  0  0
   -4.7802   -1.7496   -1.3734 H   0  0  0  0  0  0  0  0  0  0  0  0
   -3.3161   -2.6705   -1.1738 H   0  0  0  0  0  0  0  0  0  0  0  0
   -5.8441   -0.5157    0.5476 H   0  0  0  0  0  0  0  0  0  0  0  0
   -0.8001   -1.7286   -2.0919 H   0  0  0  0  0  0  0  0  0  0  0  0
    1.4578   -2.7495    2.1660 H   0  0  0  0  0  0  0  0  0  0  0  0
    1.9992   -4.1404    1.2678 H   0  0  0  0  0  0  0  0  0  0  0  0
    0.3108   -3.7205    1.2131 H   0  0  0  0  0  0  0  0  0  0  0  0
    2.6965   -1.1358   -1.8960 H   0  0  0  0  0  0  0  0  0  0  0  0
   -8.0853    0.4119    0.6619 H   0  0  0  0  0  0  0  0  0  0  0  0
   -8.6300    1.2292   -0.8205 H   0  0  0  0  0  0  0  0  0  0  0  0
   -8.0119   -0.4397   -0.9068 H   0  0  0  0  0  0  0  0  0  0  0  0
    4.8677   -0.7116   -2.4988 H   0  0  0  0  0  0  0  0  0  0  0  0
    5.4634   -1.4189   -0.9982 H   0  0  0  0  0  0  0  0  0  0  0  0
    3.7224    1.6317   -2.3790 H   0  0  0  0  0  0  0  0  0  0  0  0
    6.0634    0.0354    0.8531 H   0  0  0  0  0  0  0  0  0  0  0  0
    4.0233    3.8863   -1.3790 H   0  0  0  0  0  0  0  0  0  0  0  0
    5.3579    4.0838    0.7263 H   0  0  0  0  0  0  0  0  0  0  0  0
  1 10  1  0  0  0  0
  1 51  1  0  0  0  0
  2 21  2  0  0  0  0
  3 22  2  0  0  0  0
  4 14  1  0  0  0  0
  4 22  1  0  0  0  0
  4 50  1  0  0  0  0
  5 21  1  0  0  0  0
  5 24  1  0  0  0  0
  5 55  1  0  0  0  0
  6 27  1  0  0  0  0
  6 29  2  0  0  0  0
  7  8  1  0  0  0  0
  7 11  1  0  0  0  0
  7 12  1  0  0  0  0
  7 17  1  0  0  0  0
  8  9  1  0  0  0  0
  8 10  1  0  0  0  0
  8 30  1  0  0  0  0
  9 14  1  0  0  0  0
  9 19  1  0  0  0  0
  9 31  1  0  0  0  0
 10 13  1  0  0  0  0
 10 32  1  0  0  0  0
 11 15  1  0  0  0  0
 11 33  1  0  0  0  0
 11 34  1  0  0  0  0
 12 16  1  0  0  0  0
 12 35  1  0  0  0  0
 12 36  1  0  0  0  0
 13 15  1  0  0  0  0
 13 18  1  0  0  0  0
 13 37  1  0  0  0  0
 14 16  1  0  0  0  0
 14 38  1  0  0  0  0
 15 39  1  0  0  0  0
 15 40  1  0  0  0  0
 16 41  1  0  0  0  0
 16 42  1  0  0  0  0
 17 43  1  0  0  0  0
 17 44  1  0  0  0  0
 17 45  1  0  0  0  0
 18 20  1  0  0  0  0
 18 21  1  0  0  0  0
 18 46  1  0  0  0  0
 19 47  1  0  0  0  0
 19 48  1  0  0  0  0
 19 49  1  0  0  0  0
 20 52  1  0  0  0  0
 20 53  1  0  0  0  0
 20 54  1  0  0  0  0
 22 23  1  0  0  0  0
 23 56  1  0  0  0  0
 23 57  1  0  0  0  0
 23 58  1  0  0  0  0
 24 25  1  0  0  0  0
 24 59  1  0  0  0  0
 24 60  1  0  0  0  0
 25 26  1  0  0  0  0
 25 27  2  0  0  0  0
 26 28  2  0  0  0  0
 26 61  1  0  0  0  0
 27 62  1  0  0  0  0
 28 29  1  0  0  0  0
 28 63  1  0  0  0  0
 29 64  1  0  0  0  0
M  END
> <PUBCHEM_COMPOUND_CID>
28962489

> <PUBCHEM_CONFORMER_RMSD>
1

> <PUBCHEM_CONFORMER_DIVERSEORDER>
1
6
21
63
65
75
48
95
57
79
88
35
15
46
96
60
25
92
27
59
19
80
52
85
18
14
94
17
39
41
71
89
77
24
90
10
87
91
98
103
83
29
16
9
58
100
50
99
28
76
93
70
33
37
97
68
22
11
62
23
55
7
81
51
34
74
42
53
44
78
61
20
73
12
72
3
64
66
101
82
40
4
56
45
2
54
38
43
102
13
26
32
67
84
36
69
49
8
30
31
86
47
5

> <PUBCHEM_MMFF94_PARTIAL_CHARGES>
25
1 -0.68
10 0.28
14 0.3
18 0.06
2 -0.57
21 0.57
22 0.57
23 0.06
24 0.44
25 -0.14
26 -0.15
27 0.16
28 -0.15
29 0.16
3 -0.57
4 -0.73
5 -0.73
50 0.37
51 0.4
55 0.37
6 -0.62
61 0.15
62 0.15
63 0.15
64 0.15

> <PUBCHEM_EFFECTIVE_ROTOR_COUNT>
8.6

> <PUBCHEM_PHARMACOPHORE_FEATURES>
11
1 1 acceptor
1 1 donor
1 2 acceptor
1 20 hydrophobe
1 3 acceptor
1 4 donor
1 5 donor
1 6 acceptor
6 6 25 26 27 28 29 rings
6 7 8 10 11 13 15 rings
6 7 8 9 12 14 16 rings

> <PUBCHEM_HEAVY_ATOM_COUNT>
29

> <PUBCHEM_ATOM_DEF_STEREO_COUNT>
7

> <PUBCHEM_ATOM_UDEF_STEREO_COUNT>
0

> <PUBCHEM_BOND_DEF_STEREO_COUNT>
0

> <PUBCHEM_BOND_UDEF_STEREO_COUNT>
0

> <PUBCHEM_ISOTOPIC_ATOM_COUNT>
0

> <PUBCHEM_COMPONENT_COUNT>
1

> <PUBCHEM_CACTVS_TAUTO_COUNT>
4

> <PUBCHEM_CONFORMER_ID>
01B9EEB900000001

> <PUBCHEM_MMFF94_ENERGY>
80.2884

> <PUBCHEM_FEATURE_SELFOVERLAP>
55.836

> <PUBCHEM_SHAPE_FINGERPRINT>
10673678 19 18412263917776179239
10692045 39 14418403361030854272
10906281 52 17845947230266224299
10928967 22 9799150499988108556
11135609 127 18336815421198954805
11135609 187 18269273645891467112
11211813 74 18336261255134447709
117089 54 8573341343000172680
11961588 58 18411698790163607723
12166972 35 18127408952417992650
12788726 201 17703512091266965545
13150687 139 18059584590021562390
13617811 41 18342450461336380321
13690498 29 17701811310230692567
14420673 8 11387456640473189568
14528608 73 18412549794867423654
14767858 380 17989485212922731053
14790565 3 17843703079182918281
14931854 50 18059589022317489676
15082195 135 18124588687691260025
15183329 4 18201727262220941145
15840311 113 18408605834243103845
18681886 176 18126847097766017346
19319366 153 18411695457243346135
20157964 124 18408887325904090164
20511986 3 18271798051499959348
20715895 44 18409447025084278580
21033648 29 16732703822607209983
21049683 118 17894904179045603562
21344244 78 17973145263675724106
21521721 280 18410581665471076091
23522609 53 17631191727051504009
23559900 14 17488733597007769993
23569914 2 17027077183293806349
2838139 119 18186511116598651749
3117164 225 11025782211373633606
3472631 163 18342740732294635358
34797466 226 17988649566673455551
3886686 26 10884442138874366741
4072396 5 12685100267631677299
4149490 64 18259984868607239539
4340502 62 17386009455334712667
44317340 157 18411987961468635199
474 4 18334583460218673410
56633871 153 10881671438439891928
6034566 193 17681294461710410236
7237137 82 17988923431179263575
9981440 41 18196372744427151258

> <PUBCHEM_SHAPE_MULTIPOLES>
564.26
16.25
3.36
1.56
12.43
0.32
0.34
-12.23
-5.45
-4.2
-0.03
0.08
0.02
-0.37

> <PUBCHEM_SHAPE_SELFOVERLAP>
1171.826

> <PUBCHEM_SHAPE_VOLUME>
317.3

> <PUBCHEM_COORDINATE_TYPE>
2
5
10

$$$$
