56775848
  -OEChem-12032416293D

 32 34  0     1  0  0  0  0  0999 V2000
    6.5037   -0.8597    0.2787 Cl  0  0  0  0  0  0  0  0  0  0  0  0
   -4.8579   -1.1030   -0.8699 O   0  0  0  0  0  0  0  0  0  0  0  0
   -3.5558    0.3677    1.1948 N   0  0  0  0  0  0  0  0  0  0  0  0
   -0.2714   -0.3191    0.1281 N   0  0  0  0  0  0  0  0  0  0  0  0
   -1.2562    1.5532   -0.5474 N   0  0  0  0  0  0  0  0  0  0  0  0
   -2.7864   -0.3388    0.1559 C   0  0  1  0  0  0  0  0  0  0  0  0
   -3.6168   -0.4434   -1.1320 C   0  0  0  0  0  0  0  0  0  0  0  0
   -1.4514    0.3326   -0.1004 C   0  0  0  0  0  0  0  0  0  0  0  0
   -4.8505   -0.2822    1.4078 C   0  0  0  0  0  0  0  0  0  0  0  0
   -5.6201   -0.3803    0.0975 C   0  0  0  0  0  0  0  0  0  0  0  0
    0.7405    0.5410   -0.1937 C   0  0  0  0  0  0  0  0  0  0  0  0
    0.1081    1.6895   -0.6079 C   0  0  0  0  0  0  0  0  0  0  0  0
    2.1346    0.2021   -0.0795 C   0  0  0  0  0  0  0  0  0  0  0  0
    3.0736    1.1963    0.1951 C   0  0  0  0  0  0  0  0  0  0  0  0
    2.5466   -1.1205   -0.2430 C   0  0  0  0  0  0  0  0  0  0  0  0
    4.4247    0.8681    0.3060 C   0  0  0  0  0  0  0  0  0  0  0  0
    3.8978   -1.4488   -0.1323 C   0  0  0  0  0  0  0  0  0  0  0  0
    4.8368   -0.4545    0.1422 C   0  0  0  0  0  0  0  0  0  0  0  0
   -2.5962   -1.3556    0.5270 H   0  0  0  0  0  0  0  0  0  0  0  0
   -3.8143    0.5395   -1.5793 H   0  0  0  0  0  0  0  0  0  0  0  0
   -3.0812   -1.0368   -1.8817 H   0  0  0  0  0  0  0  0  0  0  0  0
   -3.7206    1.3272    0.8875 H   0  0  0  0  0  0  0  0  0  0  0  0
   -5.4282    0.2871    2.1431 H   0  0  0  0  0  0  0  0  0  0  0  0
   -4.6841   -1.2823    1.8254 H   0  0  0  0  0  0  0  0  0  0  0  0
   -6.5571   -0.9237    0.2556 H   0  0  0  0  0  0  0  0  0  0  0  0
   -5.8742    0.6097   -0.3003 H   0  0  0  0  0  0  0  0  0  0  0  0
   -0.1743   -1.2618    0.4822 H   0  0  0  0  0  0  0  0  0  0  0  0
    0.5566    2.6112   -0.9509 H   0  0  0  0  0  0  0  0  0  0  0  0
    2.7780    2.2335    0.3329 H   0  0  0  0  0  0  0  0  0  0  0  0
    1.8411   -1.9162   -0.4687 H   0  0  0  0  0  0  0  0  0  0  0  0
    5.1454    1.6528    0.5215 H   0  0  0  0  0  0  0  0  0  0  0  0
    4.2051   -2.4831   -0.2646 H   0  0  0  0  0  0  0  0  0  0  0  0
  1 18  1  0  0  0  0
  2  7  1  0  0  0  0
  2 10  1  0  0  0  0
  3  6  1  0  0  0  0
  3  9  1  0  0  0  0
  3 22  1  0  0  0  0
  4  8  1  0  0  0  0
  4 11  1  0  0  0  0
  4 27  1  0  0  0  0
  5  8  2  0  0  0  0
  5 12  1  0  0  0  0
  6  7  1  0  0  0  0
  6  8  1  0  0  0  0
  6 19  1  0  0  0  0
  7 20  1  0  0  0  0
  7 21  1  0  0  0  0
  9 10  1  0  0  0  0
  9 23  1  0  0  0  0
  9 24  1  0  0  0  0
 10 25  1  0  0  0  0
 10 26  1  0  0  0  0
 11 12  2  0  0  0  0
 11 13  1  0  0  0  0
 12 28  1  0  0  0  0
 13 14  2  0  0  0  0
 13 15  1  0  0  0  0
 14 16  1  0  0  0  0
 14 29  1  0  0  0  0
 15 17  2  0  0  0  0
 15 30  1  0  0  0  0
 16 18  2  0  0  0  0
 16 31  1  0  0  0  0
 17 18  1  0  0  0  0
 17 32  1  0  0  0  0
M  END
> <PUBCHEM_COMPOUND_CID>
56775848

> <PUBCHEM_CONFORMER_RMSD>
0.6

> <PUBCHEM_CONFORMER_DIVERSEORDER>
1
12
10
7
3
6
9
11
13
4
2
5
8
14

> <PUBCHEM_MMFF94_PARTIAL_CHARGES>
25
1 -0.18
10 0.28
11 -0.2
12 0.08
13 0.05
14 -0.15
15 -0.15
16 -0.15
17 -0.15
18 0.18
2 -0.56
22 0.36
27 0.27
28 0.15
29 0.15
3 -0.9
30 0.15
31 0.15
32 0.15
4 0.03
5 -0.57
6 0.45
7 0.28
8 0.01
9 0.27

> <PUBCHEM_EFFECTIVE_ROTOR_COUNT>
3.2

> <PUBCHEM_PHARMACOPHORE_FEATURES>
8
1 2 acceptor
1 3 cation
1 3 donor
1 4 donor
3 4 5 8 cation
5 4 5 8 11 12 rings
6 13 14 15 16 17 18 rings
6 2 3 6 7 9 10 rings

> <PUBCHEM_HEAVY_ATOM_COUNT>
18

> <PUBCHEM_ATOM_DEF_STEREO_COUNT>
1

> <PUBCHEM_ATOM_UDEF_STEREO_COUNT>
0

> <PUBCHEM_BOND_DEF_STEREO_COUNT>
0

> <PUBCHEM_BOND_UDEF_STEREO_COUNT>
0

> <PUBCHEM_ISOTOPIC_ATOM_COUNT>
0

> <PUBCHEM_COMPONENT_COUNT>
1

> <PUBCHEM_CACTVS_TAUTO_COUNT>
2

> <PUBCHEM_CONFORMER_ID>
036254A800000001

> <PUBCHEM_MMFF94_ENERGY>
29.4341

> <PUBCHEM_FEATURE_SELFOVERLAP>
40.598

> <PUBCHEM_SHAPE_FINGERPRINT>
10 15 13901897934534859350
10803635 8 16298382465991628323
10912923 1 17775006820828636089
11287383 113 16226052231508192764
11315181 36 17632294601284737411
11796584 16 16225765220281688883
12107183 9 17197438636951778739
12236239 1 18060138764955623711
12507557 5 14764347154422650099
12596602 18 16774076293345310978
12916748 109 10807941474304450850
13167823 11 17989487433114868023
13288520 33 18409729551979609325
13544653 18 18335422365482918349
13583140 156 16056588808103103185
13685833 64 18114186362983972819
13740256 8 17968104165453539923
13760787 5 18334298698901021517
13862211 1 18334290976629067802
1420 363 18186241723401497274
14252887 29 18409453574513545242
14350574 20 18260548914114092828
14386348 63 17894634763899014459
14848160 23 17603302661298007306
14849402 71 17488452144181369928
15788980 27 18187362138439774813
17834072 33 17989486350566630097
17844677 252 18335423464957967309
17870717 6 16515405162283128195
1813 80 18337405867337618853
18222031 100 18040430006222244284
19141452 34 18412826919280017119
19489759 90 16081083766716922095
200 152 18413102853316106836
20281389 69 12247676059274715490
20281475 54 18338800121153974701
20325693 3 14923942362917203779
20645477 70 18408318865671346870
21150785 3 15285365016142899430
21267235 1 18410579462057796862
22224240 67 18201994448516347178
2297311 6 15863790599972374007
23175994 123 17749111119214657629
23402539 116 18409726244564745021
23522609 53 18195277493106550772
23557571 272 17168135698657042756
23559900 14 17095528443442485524
26918003 58 18333734623781979331
2871803 45 18040995116391130674
2916195 48 11239993447389340218
300161 21 17632856417261238875
314173 85 18409174285480210821
34797466 226 15574726797653318726
351380 3 18410290311347040614
4047638 21 10303815389143621044
4214541 1 18342175536062891577
4340502 62 15554451799316325534
465052 167 18409171013269136118
5104073 3 18267576915335330088
5283173 99 17895741895036651077
542803 24 16773800307019916321
573450 72 17489590069621593515
7495541 125 16845287293246377851

> <PUBCHEM_SHAPE_MULTIPOLES>
351.49
14.1
1.38
0.94
0.5
0.26
0.1
-5.17
2.06
0.84
-0.19
-1.15
-0.04
-0.06

> <PUBCHEM_SHAPE_SELFOVERLAP>
748.668

> <PUBCHEM_SHAPE_VOLUME>
196.8

> <PUBCHEM_COORDINATE_TYPE>
2
5
10

$$$$
