40777982
  -OEChem-12032416173D

 65 68  0     1  0  0  0  0  0999 V2000
   -3.9497    0.7954    0.8804 O   0  0  0  0  0  0  0  0  0  0  0  0
   -5.7664    2.3698   -0.9837 O   0  0  0  0  0  0  0  0  0  0  0  0
   -6.1205   -0.2371   -1.7881 O   0  0  0  0  0  0  0  0  0  0  0  0
   -1.7266    2.6872    1.5392 O   0  0  0  0  0  0  0  0  0  0  0  0
   -2.1991   -1.2370    2.2183 O   0  0  0  0  0  0  0  0  0  0  0  0
    2.6456   -3.4728   -1.1838 O   0  0  0  0  0  0  0  0  0  0  0  0
    0.1206    1.9821    0.3183 N   0  0  0  0  0  0  0  0  0  0  0  0
    2.9669    1.5251    0.0537 N   0  0  0  0  0  0  0  0  0  0  0  0
   -3.3523   -1.9234    0.3255 N   0  0  0  0  0  0  0  0  0  0  0  0
   -3.6176    1.7962   -0.1091 C   0  0  2  0  0  0  0  0  0  0  0  0
   -4.5964    1.6016   -1.2619 C   0  0  1  0  0  0  0  0  0  0  0  0
   -4.9045    0.1216   -1.1675 C   0  0  1  0  0  0  0  0  0  0  0  0
   -4.9494   -0.0848    0.3372 C   0  0  1  0  0  0  0  0  0  0  0  0
   -2.1661    1.5842   -0.5172 C   0  0  0  0  0  0  0  0  0  0  0  0
   -4.6556   -1.5137    0.7579 C   0  0  0  0  0  0  0  0  0  0  0  0
   -1.2475    2.1360    0.5455 C   0  0  0  0  0  0  0  0  0  0  0  0
    0.6877    1.3270   -0.8626 C   0  0  0  0  0  0  0  0  0  0  0  0
    1.0748    2.4841    1.3037 C   0  0  0  0  0  0  0  0  0  0  0  0
    2.1342    1.7418   -1.1321 C   0  0  0  0  0  0  0  0  0  0  0  0
    2.3329    1.6210    1.3716 C   0  0  0  0  0  0  0  0  0  0  0  0
    4.3312    1.2703   -0.0622 C   0  0  0  0  0  0  0  0  0  0  0  0
   -2.2098   -1.7498    1.1022 C   0  0  0  0  0  0  0  0  0  0  0  0
    5.0512    1.8007   -1.1327 C   0  0  0  0  0  0  0  0  0  0  0  0
    4.9778    0.4854    0.8927 C   0  0  0  0  0  0  0  0  0  0  0  0
   -0.9301   -2.2041    0.5000 C   0  0  0  0  0  0  0  0  0  0  0  0
    6.4179    1.5463   -1.2484 C   0  0  0  0  0  0  0  0  0  0  0  0
    6.3444    0.2310    0.7770 C   0  0  0  0  0  0  0  0  0  0  0  0
    7.0645    0.7616   -0.2934 C   0  0  0  0  0  0  0  0  0  0  0  0
    0.1248   -2.6025    1.3211 C   0  0  0  0  0  0  0  0  0  0  0  0
   -0.7833   -2.2322   -0.8870 C   0  0  0  0  0  0  0  0  0  0  0  0
    1.3262   -3.0294    0.7555 C   0  0  0  0  0  0  0  0  0  0  0  0
    0.4183   -2.6588   -1.4526 C   0  0  0  0  0  0  0  0  0  0  0  0
    1.4730   -3.0574   -0.6315 C   0  0  0  0  0  0  0  0  0  0  0  0
    3.6828   -3.8653   -0.2859 C   0  0  0  0  0  0  0  0  0  0  0  0
   -3.7704    2.7788    0.3521 H   0  0  0  0  0  0  0  0  0  0  0  0
   -4.2223    1.9062   -2.2435 H   0  0  0  0  0  0  0  0  0  0  0  0
   -4.0932   -0.4457   -1.6368 H   0  0  0  0  0  0  0  0  0  0  0  0
   -5.9234    0.2117    0.7462 H   0  0  0  0  0  0  0  0  0  0  0  0
   -1.9723    2.1394   -1.4415 H   0  0  0  0  0  0  0  0  0  0  0  0
   -1.9433    0.5274   -0.6744 H   0  0  0  0  0  0  0  0  0  0  0  0
   -5.3860   -2.2062    0.3275 H   0  0  0  0  0  0  0  0  0  0  0  0
   -4.7020   -1.5973    1.8494 H   0  0  0  0  0  0  0  0  0  0  0  0
    0.0791    1.5321   -1.7467 H   0  0  0  0  0  0  0  0  0  0  0  0
    0.6441    0.2523   -0.6686 H   0  0  0  0  0  0  0  0  0  0  0  0
    0.6031    2.5383    2.2906 H   0  0  0  0  0  0  0  0  0  0  0  0
    1.3287    3.5089    1.0058 H   0  0  0  0  0  0  0  0  0  0  0  0
    2.4987    1.1519   -1.9821 H   0  0  0  0  0  0  0  0  0  0  0  0
    2.1723    2.8016   -1.4123 H   0  0  0  0  0  0  0  0  0  0  0  0
    3.0154    2.0730    2.1017 H   0  0  0  0  0  0  0  0  0  0  0  0
    2.0731    0.6147    1.7224 H   0  0  0  0  0  0  0  0  0  0  0  0
   -5.5162    3.3083   -1.0311 H   0  0  0  0  0  0  0  0  0  0  0  0
   -6.0653    0.0382   -2.7191 H   0  0  0  0  0  0  0  0  0  0  0  0
   -3.2968   -2.4046   -0.5658 H   0  0  0  0  0  0  0  0  0  0  0  0
    4.5810    2.4282   -1.8848 H   0  0  0  0  0  0  0  0  0  0  0  0
    4.4426    0.0453    1.7296 H   0  0  0  0  0  0  0  0  0  0  0  0
    6.9796    1.9618   -2.0800 H   0  0  0  0  0  0  0  0  0  0  0  0
    6.8475   -0.3832    1.5183 H   0  0  0  0  0  0  0  0  0  0  0  0
    8.1285    0.5635   -0.3835 H   0  0  0  0  0  0  0  0  0  0  0  0
    0.0271   -2.5902    2.4036 H   0  0  0  0  0  0  0  0  0  0  0  0
   -1.5684   -1.9026   -1.5608 H   0  0  0  0  0  0  0  0  0  0  0  0
    2.1043   -3.3246    1.4512 H   0  0  0  0  0  0  0  0  0  0  0  0
    0.5298   -2.6713   -2.5335 H   0  0  0  0  0  0  0  0  0  0  0  0
    4.5416   -4.1654   -0.8955 H   0  0  0  0  0  0  0  0  0  0  0  0
    3.3918   -4.7379    0.3086 H   0  0  0  0  0  0  0  0  0  0  0  0
    4.0118   -3.0279    0.3389 H   0  0  0  0  0  0  0  0  0  0  0  0
  1 10  1  0  0  0  0
  1 13  1  0  0  0  0
  2 11  1  0  0  0  0
  2 51  1  0  0  0  0
  3 12  1  0  0  0  0
  3 52  1  0  0  0  0
  4 16  2  0  0  0  0
  5 22  2  0  0  0  0
  6 33  1  0  0  0  0
  6 34  1  0  0  0  0
  7 16  1  0  0  0  0
  7 17  1  0  0  0  0
  7 18  1  0  0  0  0
  8 19  1  0  0  0  0
  8 20  1  0  0  0  0
  8 21  1  0  0  0  0
  9 15  1  0  0  0  0
  9 22  1  0  0  0  0
  9 53  1  0  0  0  0
 10 11  1  0  0  0  0
 10 14  1  0  0  0  0
 10 35  1  0  0  0  0
 11 12  1  0  0  0  0
 11 36  1  0  0  0  0
 12 13  1  0  0  0  0
 12 37  1  0  0  0  0
 13 15  1  0  0  0  0
 13 38  1  0  0  0  0
 14 16  1  0  0  0  0
 14 39  1  0  0  0  0
 14 40  1  0  0  0  0
 15 41  1  0  0  0  0
 15 42  1  0  0  0  0
 17 19  1  0  0  0  0
 17 43  1  0  0  0  0
 17 44  1  0  0  0  0
 18 20  1  0  0  0  0
 18 45  1  0  0  0  0
 18 46  1  0  0  0  0
 19 47  1  0  0  0  0
 19 48  1  0  0  0  0
 20 49  1  0  0  0  0
 20 50  1  0  0  0  0
 21 23  2  0  0  0  0
 21 24  1  0  0  0  0
 22 25  1  0  0  0  0
 23 26  1  0  0  0  0
 23 54  1  0  0  0  0
 24 27  2  0  0  0  0
 24 55  1  0  0  0  0
 25 29  2  0  0  0  0
 25 30  1  0  0  0  0
 26 28  2  0  0  0  0
 26 56  1  0  0  0  0
 27 28  1  0  0  0  0
 27 57  1  0  0  0  0
 28 58  1  0  0  0  0
 29 31  1  0  0  0  0
 29 59  1  0  0  0  0
 30 32  2  0  0  0  0
 30 60  1  0  0  0  0
 31 33  2  0  0  0  0
 31 61  1  0  0  0  0
 32 33  1  0  0  0  0
 32 62  1  0  0  0  0
 34 63  1  0  0  0  0
 34 64  1  0  0  0  0
 34 65  1  0  0  0  0
M  END
> <PUBCHEM_COMPOUND_CID>
40777982

> <PUBCHEM_CONFORMER_RMSD>
1.2

> <PUBCHEM_CONFORMER_DIVERSEORDER>
1
5
69
77
23
75
28
26
54
65
29
12
71
11
16
67
8
24
81
82
80
46
14
19
37
15
33
34
21
45
32
10
55
57
35
51
76
44
52
53
13
41
68
40
7
60
36
31
63
42
61
73
85
27
9
78
25
49
62
48
66
20
79
22
84
47
38
50
83
4
59
70
58
18
56
30
43
72
74
39
3
2
17
64
6

> <PUBCHEM_MMFF94_PARTIAL_CHARGES>
46
1 -0.56
10 0.28
11 0.28
12 0.28
13 0.28
14 0.06
15 0.3
16 0.57
17 0.3
18 0.3
19 0.37
2 -0.68
20 0.37
21 0.1
22 0.54
23 -0.15
24 -0.15
25 0.09
26 -0.15
27 -0.15
28 -0.15
29 -0.15
3 -0.68
30 -0.15
31 -0.15
32 -0.15
33 0.08
34 0.28
4 -0.57
5 -0.57
51 0.4
52 0.4
53 0.37
54 0.15
55 0.15
56 0.15
57 0.15
58 0.15
59 0.15
6 -0.36
60 0.15
61 0.15
62 0.15
7 -0.66
8 -0.84
9 -0.73

> <PUBCHEM_EFFECTIVE_ROTOR_COUNT>
11.2

> <PUBCHEM_PHARMACOPHORE_FEATURES>
14
1 1 acceptor
1 2 acceptor
1 2 donor
1 3 acceptor
1 3 donor
1 4 acceptor
1 5 acceptor
1 6 acceptor
1 8 cation
1 9 donor
5 1 10 11 12 13 rings
6 21 23 24 26 27 28 rings
6 25 29 30 31 32 33 rings
6 7 8 17 18 19 20 rings

> <PUBCHEM_HEAVY_ATOM_COUNT>
34

> <PUBCHEM_ATOM_DEF_STEREO_COUNT>
4

> <PUBCHEM_ATOM_UDEF_STEREO_COUNT>
0

> <PUBCHEM_BOND_DEF_STEREO_COUNT>
0

> <PUBCHEM_BOND_UDEF_STEREO_COUNT>
0

> <PUBCHEM_ISOTOPIC_ATOM_COUNT>
0

> <PUBCHEM_COMPONENT_COUNT>
1

> <PUBCHEM_CACTVS_TAUTO_COUNT>
2

> <PUBCHEM_CONFORMER_ID>
026E38FE00000001

> <PUBCHEM_MMFF94_ENERGY>
111.2942

> <PUBCHEM_FEATURE_SELFOVERLAP>
71.062

> <PUBCHEM_SHAPE_FINGERPRINT>
10675989 125 17325197438999183853
107951 10 17603866732026955419
11135926 11 18341330003163228693
11136131 41 18336539405680052658
11513181 2 17916308233968861878
11578080 2 17024565847427926951
12422481 6 18259697892182986722
13402501 40 18410013251411710578
14251757 5 18120666983333974160
14466204 15 18410013277461264700
15183329 4 17748819735315956096
15968369 153 18130776825442991018
20511986 3 17968934323125345872
20721686 56 18410012104729925747
20764821 26 18268159668750066954
21344244 246 18412819175422412143
3298306 158 18411978078701108800
3383291 50 18201437021358098894
338550 245 18335425686262498766
373842 8 18338516336091864498
4093350 32 17274273742440936567
5085150 59 18411129256426189986
5265222 85 18192159411131421564
59755656 215 18413106173420772406
7226269 152 18342461477716003688

> <PUBCHEM_SHAPE_MULTIPOLES>
649.55
14.33
4.52
1.58
7.49
3.73
-0.1
-6.83
3.66
1.41
0.2
-0.5
0.01
0.8

> <PUBCHEM_SHAPE_SELFOVERLAP>
1383.853

> <PUBCHEM_SHAPE_VOLUME>
359.4

> <PUBCHEM_COORDINATE_TYPE>
2
5
10

$$$$
