11886259
  -OEChem-12032416373D

 57 62  0     1  0  0  0  0  0999 V2000
    1.9988    3.2530    0.4965 O   0  0  0  0  0  0  0  0  0  0  0  0
    1.9089    1.0906   -1.7529 O   0  0  0  0  0  0  0  0  0  0  0  0
   -2.6342    0.7857   -0.3052 O   0  0  0  0  0  0  0  0  0  0  0  0
    6.5713    1.5686   -0.9746 O   0  0  0  0  0  0  0  0  0  0  0  0
   -0.6399    1.3320    0.8573 N   0  0  0  0  0  0  0  0  0  0  0  0
    4.5487    0.7067   -0.2364 N   0  0  0  0  0  0  0  0  0  0  0  0
   -0.1837    1.2705    2.1119 N   0  0  0  0  0  0  0  0  0  0  0  0
   -2.2699    0.4918    2.0012 N   0  0  0  0  0  0  0  0  0  0  0  0
   -1.1877    0.7545    2.8105 N   0  0  0  0  0  0  0  0  0  0  0  0
   -7.8007   -1.1963   -0.3344 N   0  0  0  0  0  0  0  0  0  0  0  0
   -8.0638   -2.5003   -0.5349 N   0  0  0  0  0  0  0  0  0  0  0  0
   -9.9874   -1.3021   -0.2242 N   0  0  0  0  0  0  0  0  0  0  0  0
    1.5001    1.0913   -0.3717 C   0  0  1  0  0  0  0  0  0  0  0  0
    2.5185    1.9171    0.3895 C   0  0  1  0  0  0  0  0  0  0  0  0
    0.1989    1.8564   -0.2233 C   0  0  2  0  0  0  0  0  0  0  0  0
    3.7489    1.9028   -0.4916 C   0  0  2  0  0  0  0  0  0  0  0  0
    0.6692    3.2956   -0.0405 C   0  0  0  0  0  0  0  0  0  0  0  0
    3.1362    1.8232   -1.8800 C   0  0  0  0  0  0  0  0  0  0  0  0
   -1.9065    0.8587    0.7939 C   0  0  0  0  0  0  0  0  0  0  0  0
    5.9089    0.6470   -0.5052 C   0  0  0  0  0  0  0  0  0  0  0  0
    6.5733   -0.6497   -0.2145 C   0  0  0  0  0  0  0  0  0  0  0  0
    7.7020   -0.9947   -0.9284 C   0  0  0  0  0  0  0  0  0  0  0  0
    6.0403   -1.4672    0.7606 C   0  0  0  0  0  0  0  0  0  0  0  0
   -3.9300    0.2883   -0.3121 C   0  0  0  0  0  0  0  0  0  0  0  0
    8.3257   -2.2121   -0.6551 C   0  0  0  0  0  0  0  0  0  0  0  0
    6.6642   -2.6845    1.0340 C   0  0  0  0  0  0  0  0  0  0  0  0
    7.8071   -3.0569    0.3261 C   0  0  0  0  0  0  0  0  0  0  0  0
   -4.9833    1.1587   -0.1066 C   0  0  0  0  0  0  0  0  0  0  0  0
   -4.1289   -1.0622   -0.5250 C   0  0  0  0  0  0  0  0  0  0  0  0
   -6.2856    0.6591   -0.1139 C   0  0  0  0  0  0  0  0  0  0  0  0
   -5.4314   -1.5617   -0.5323 C   0  0  0  0  0  0  0  0  0  0  0  0
    8.4738   -4.3590    0.6176 C   0  0  0  0  0  0  0  0  0  0  0  0
   -6.5096   -0.7010   -0.3267 C   0  0  0  0  0  0  0  0  0  0  0  0
   -8.9558   -0.4935   -0.1508 C   0  0  0  0  0  0  0  0  0  0  0  0
   -9.3963   -2.5104   -0.4590 C   0  0  0  0  0  0  0  0  0  0  0  0
    1.4572    0.0475   -0.0446 H   0  0  0  0  0  0  0  0  0  0  0  0
    2.6956    1.5507    1.4057 H   0  0  0  0  0  0  0  0  0  0  0  0
   -0.4124    1.7933   -1.1314 H   0  0  0  0  0  0  0  0  0  0  0  0
    4.3808    2.7904   -0.3872 H   0  0  0  0  0  0  0  0  0  0  0  0
    0.7285    3.8090   -1.0064 H   0  0  0  0  0  0  0  0  0  0  0  0
    0.0296    3.8854    0.6231 H   0  0  0  0  0  0  0  0  0  0  0  0
    2.8821    2.8218   -2.2525 H   0  0  0  0  0  0  0  0  0  0  0  0
    3.7750    1.3324   -2.6207 H   0  0  0  0  0  0  0  0  0  0  0  0
    4.0453   -0.1282    0.0444 H   0  0  0  0  0  0  0  0  0  0  0  0
    8.1152   -0.3511   -1.6992 H   0  0  0  0  0  0  0  0  0  0  0  0
    5.1740   -1.1991    1.3562 H   0  0  0  0  0  0  0  0  0  0  0  0
    9.2137   -2.4925   -1.2155 H   0  0  0  0  0  0  0  0  0  0  0  0
    6.2540   -3.3321    1.8045 H   0  0  0  0  0  0  0  0  0  0  0  0
   -4.8102    2.2178    0.0582 H   0  0  0  0  0  0  0  0  0  0  0  0
   -3.2906   -1.7333   -0.6862 H   0  0  0  0  0  0  0  0  0  0  0  0
   -7.0854    1.3734    0.0510 H   0  0  0  0  0  0  0  0  0  0  0  0
   -5.5636   -2.6272   -0.7018 H   0  0  0  0  0  0  0  0  0  0  0  0
    8.3440   -4.6429    1.6675 H   0  0  0  0  0  0  0  0  0  0  0  0
    8.0513   -5.1468   -0.0138 H   0  0  0  0  0  0  0  0  0  0  0  0
    9.5518   -4.3011    0.4327 H   0  0  0  0  0  0  0  0  0  0  0  0
   -9.0253    0.5699    0.0292 H   0  0  0  0  0  0  0  0  0  0  0  0
   -9.9541   -3.4272   -0.5781 H   0  0  0  0  0  0  0  0  0  0  0  0
  1 14  1  0  0  0  0
  1 17  1  0  0  0  0
  2 13  1  0  0  0  0
  2 18  1  0  0  0  0
  3 19  1  0  0  0  0
  3 24  1  0  0  0  0
  4 20  2  0  0  0  0
  5  7  1  0  0  0  0
  5 15  1  0  0  0  0
  5 19  1  0  0  0  0
  6 16  1  0  0  0  0
  6 20  1  0  0  0  0
  6 44  1  0  0  0  0
  7  9  2  0  0  0  0
  8  9  1  0  0  0  0
  8 19  2  0  0  0  0
 10 11  1  0  0  0  0
 10 33  1  0  0  0  0
 10 34  1  0  0  0  0
 11 35  2  0  0  0  0
 12 34  2  0  0  0  0
 12 35  1  0  0  0  0
 13 14  1  0  0  0  0
 13 15  1  0  0  0  0
 13 36  1  0  0  0  0
 14 16  1  0  0  0  0
 14 37  1  0  0  0  0
 15 17  1  0  0  0  0
 15 38  1  0  0  0  0
 16 18  1  0  0  0  0
 16 39  1  0  0  0  0
 17 40  1  0  0  0  0
 17 41  1  0  0  0  0
 18 42  1  0  0  0  0
 18 43  1  0  0  0  0
 20 21  1  0  0  0  0
 21 22  2  0  0  0  0
 21 23  1  0  0  0  0
 22 25  1  0  0  0  0
 22 45  1  0  0  0  0
 23 26  2  0  0  0  0
 23 46  1  0  0  0  0
 24 28  2  0  0  0  0
 24 29  1  0  0  0  0
 25 27  2  0  0  0  0
 25 47  1  0  0  0  0
 26 27  1  0  0  0  0
 26 48  1  0  0  0  0
 27 32  1  0  0  0  0
 28 30  1  0  0  0  0
 28 49  1  0  0  0  0
 29 31  2  0  0  0  0
 29 50  1  0  0  0  0
 30 33  2  0  0  0  0
 30 51  1  0  0  0  0
 31 33  1  0  0  0  0
 31 52  1  0  0  0  0
 32 53  1  0  0  0  0
 32 54  1  0  0  0  0
 32 55  1  0  0  0  0
 34 56  1  0  0  0  0
 35 57  1  0  0  0  0
M  END
> <PUBCHEM_COMPOUND_CID>
11886259

> <PUBCHEM_CONFORMER_RMSD>
1

> <PUBCHEM_CONFORMER_DIVERSEORDER>
1
167
94
85
38
145
152
118
68
171
69
200
3
162
105
198
96
21
180
111
25
186
60
110
188
194
112
30
78
205
8
121
211
154
166
109
89
156
204
124
29
62
44
87
126
35
49
129
187
151
58
213
5
113
178
192
80
130
179
46
108
43
50
128
26
76
95
158
138
199
15
19
40
197
203
70
160
212
132
140
41
174
155
14
215
131
27
81
170
52
20
123
137
45
216
143
63
102
177
88
11
28
115
82
2
206
117
148
107
209
125
195
83
149
64
214
18
66
185
202
190
91
31
56
42
182
142
163
165
39
164
57
208
13
75
116
32
184
7
9
172
22
210
183
93
136
181
176
12
73
201
196
10
114
139
153
100
59
133
34
51
120
72
122
207
33
146
189
92
61
135
191
104
150
193
119
144
4
141
47
103
106
127
157
173
23
55
168
77
36
71
24
90
161
97
169
16
134
48
17
67
37
175
53
147
159
65
98
6
101
79
84
86
54
74
99

> <PUBCHEM_MMFF94_PARTIAL_CHARGES>
45
1 -0.56
10 0.59
11 -0.71
12 -0.57
13 0.28
14 0.28
15 0.26
16 0.3
17 0.28
18 0.28
19 0.25
2 -0.56
20 0.54
21 0.09
22 -0.15
23 -0.15
24 0.08
25 -0.15
26 -0.15
27 -0.14
28 -0.15
29 -0.15
3 -0.15
30 -0.15
31 -0.15
32 0.14
33 -0.02
34 0.04
35 0.37
4 -0.57
44 0.37
45 0.15
46 0.15
47 0.15
48 0.15
49 0.15
5 0.31
50 0.15
51 0.15
52 0.15
56 0.15
57 0.15
6 -0.73
7 -0.42
8 -0.34

> <PUBCHEM_EFFECTIVE_ROTOR_COUNT>
8.2

> <PUBCHEM_PHARMACOPHORE_FEATURES>
13
1 1 acceptor
1 2 acceptor
1 4 acceptor
1 6 donor
3 10 12 34 cation
3 11 12 35 cation
3 5 8 19 cation
5 1 13 14 15 17 rings
5 10 11 12 34 35 rings
5 2 13 14 16 18 rings
5 5 7 8 9 19 rings
6 21 22 23 25 26 27 rings
6 24 28 29 30 31 33 rings

> <PUBCHEM_HEAVY_ATOM_COUNT>
35

> <PUBCHEM_ATOM_DEF_STEREO_COUNT>
4

> <PUBCHEM_ATOM_UDEF_STEREO_COUNT>
0

> <PUBCHEM_BOND_DEF_STEREO_COUNT>
0

> <PUBCHEM_BOND_UDEF_STEREO_COUNT>
0

> <PUBCHEM_ISOTOPIC_ATOM_COUNT>
0

> <PUBCHEM_COMPONENT_COUNT>
1

> <PUBCHEM_CACTVS_TAUTO_COUNT>
2

> <PUBCHEM_CONFORMER_ID>
00B55EB300000001

> <PUBCHEM_MMFF94_ENERGY>
92.8738

> <PUBCHEM_FEATURE_SELFOVERLAP>
69.408

> <PUBCHEM_SHAPE_FINGERPRINT>
10066227 49 18407759240033084119
10258705 36 18043540619366012691
10904742 90 8286197253769499402
10930396 42 14620790484105131115
11146346 178 18340206264146714463
11386260 185 16877947186749028996
11456790 92 17346047766222940395
12522641 68 11458718192061002216
12539765 74 10881394318433776448
12592606 108 18409448076818425215
12758862 56 17060341877221301787
12838862 33 15482670153149526525
12838863 1 18335136433206419602
13150687 139 17095522911851728019
13248334 5 18122343742609385020
13383665 225 14779810605105804495
14068700 675 18337954489960920984
14202775 3 18262802995305602891
14251757 52 9007059067419965862
14359421 15 17968089773119196666
14537116 161 13406793329184228542
14617042 71 9799687117016892522
15131766 46 8790589387355073382
15183329 4 16153427234116214528
15198563 99 16226322621127035973
15320294 125 17703788141103844092
15347590 135 15123512484527881422
15392192 104 17275109423550753828
16993427 108 18201432554502057240
16994733 274 9006764385714128582
18393751 57 11959731559945677900
19301676 85 18259990344996782986
19301679 30 18130512916655505924
19304671 126 15502664857519866820
19841028 212 18410853261886057042
20028762 73 18341332177092153998
20105231 36 18187932841996647547
2026 5 18412261718790496367
20691028 202 9078531704614579550
20771845 140 17203611476161870606
20982279 24 17895489102685012675
21307412 95 17241059716917065098
21792934 111 15339125641462098721
22224240 67 12031794664848620525
23569943 247 18336547118944781891
23576562 1 14780126310607801935
25025965 108 18059282267438023775
2835820 83 18337952282411482486
3383291 50 16845299375860060239
3711267 37 7997690939002414239
3986486 107 16153705384682457638
406291 66 18412543185192830078
439807 62 18411983589518800015
474113 269 18412265016987275606
4760202 70 18337685170353315348
5104073 3 14835581124194138748
54039377 194 18410855447839820103
54076057 255 11169912801476195206
5718773 13 18411418384886824820
6204607 403 7853575742674617103
6438161 24 18411978087380811673
6636798 310 17988358158144505226
96874 4 18412822465641647654
9689198 14 8142080983652275616
9953998 17 12607401096727674525

> <PUBCHEM_SHAPE_MULTIPOLES>
656.96
32.77
3.87
1.4
26.13
1.77
0.68
40.01
-6.05
-6.76
0.19
-0.58
-0.48
-2.86

> <PUBCHEM_SHAPE_SELFOVERLAP>
1456.755

> <PUBCHEM_SHAPE_VOLUME>
353.2

> <PUBCHEM_COORDINATE_TYPE>
2
5
10

$$$$
