45783260
  -OEChem-12032416403D

 51 54  0     1  0  0  0  0  0999 V2000
   -8.4364   -3.0600    0.4008 F   0  0  0  0  0  0  0  0  0  0  0  0
    2.2999    2.7446    0.8952 O   0  0  0  0  0  0  0  0  0  0  0  0
    7.5460   -2.7233   -0.1408 O   0  0  0  0  0  0  0  0  0  0  0  0
   -0.4076    2.0908   -1.2798 N   0  0  1  0  0  0  0  0  0  0  0  0
   -3.2364    0.5389    0.3899 N   0  0  0  0  0  0  0  0  0  0  0  0
    2.1305    0.7006   -0.0048 N   0  0  0  0  0  0  0  0  0  0  0  0
    3.5805    2.1813    0.9641 N   0  0  0  0  0  0  0  0  0  0  0  0
   -2.2246    1.5626    0.1924 C   0  0  1  0  0  0  0  0  0  0  0  0
    0.0541    2.1786    0.1204 C   0  0  1  0  0  0  0  0  0  0  0  0
   -0.8972    1.2320    0.8550 C   0  0  0  0  0  0  0  0  0  0  0  0
   -1.8486    1.7877   -1.2722 C   0  0  0  0  0  0  0  0  0  0  0  0
    1.5074    1.8074    0.3122 C   0  0  0  0  0  0  0  0  0  0  0  0
   -0.0910    3.2785   -2.0623 C   0  0  0  0  0  0  0  0  0  0  0  0
   -4.4840    0.8990   -0.2732 C   0  0  0  0  0  0  0  0  0  0  0  0
   -5.5402   -0.1588   -0.0930 C   0  0  0  0  0  0  0  0  0  0  0  0
    3.3994    0.9770    0.4141 C   0  0  0  0  0  0  0  0  0  0  0  0
   -5.6517   -1.1972   -1.0176 C   0  0  0  0  0  0  0  0  0  0  0  0
   -6.4071   -0.1005    0.9983 C   0  0  0  0  0  0  0  0  0  0  0  0
    4.4640    0.0266    0.2699 C   0  0  0  0  0  0  0  0  0  0  0  0
   -6.6301   -2.1772   -0.8511 C   0  0  0  0  0  0  0  0  0  0  0  0
   -7.3856   -1.0804    1.1647 C   0  0  0  0  0  0  0  0  0  0  0  0
    4.2159   -1.2173   -0.3108 C   0  0  0  0  0  0  0  0  0  0  0  0
    5.7477    0.3459    0.7126 C   0  0  0  0  0  0  0  0  0  0  0  0
   -7.4971   -2.1188    0.2401 C   0  0  0  0  0  0  0  0  0  0  0  0
    5.2512   -2.1417   -0.4488 C   0  0  0  0  0  0  0  0  0  0  0  0
    6.7831   -0.5785    0.5747 C   0  0  0  0  0  0  0  0  0  0  0  0
    6.5349   -1.8222   -0.0060 C   0  0  0  0  0  0  0  0  0  0  0  0
    7.2232   -3.9756   -0.7440 C   0  0  0  0  0  0  0  0  0  0  0  0
   -2.5790    2.5133    0.6174 H   0  0  0  0  0  0  0  0  0  0  0  0
   -0.1101    3.1949    0.5074 H   0  0  0  0  0  0  0  0  0  0  0  0
   -0.9145    1.4136    1.9352 H   0  0  0  0  0  0  0  0  0  0  0  0
   -0.6212    0.1810    0.6932 H   0  0  0  0  0  0  0  0  0  0  0  0
   -1.9976    0.8846   -1.8761 H   0  0  0  0  0  0  0  0  0  0  0  0
   -2.4636    2.5854   -1.7068 H   0  0  0  0  0  0  0  0  0  0  0  0
   -3.3997    0.4144    1.3890 H   0  0  0  0  0  0  0  0  0  0  0  0
    0.9905    3.4492   -2.0896 H   0  0  0  0  0  0  0  0  0  0  0  0
   -0.5714    4.1779   -1.6607 H   0  0  0  0  0  0  0  0  0  0  0  0
   -0.4164    3.1488   -3.1003 H   0  0  0  0  0  0  0  0  0  0  0  0
   -4.8643    1.8526    0.1167 H   0  0  0  0  0  0  0  0  0  0  0  0
   -4.3411    1.0464   -1.3505 H   0  0  0  0  0  0  0  0  0  0  0  0
   -4.9812   -1.2551   -1.8709 H   0  0  0  0  0  0  0  0  0  0  0  0
   -6.3292    0.7024    1.7265 H   0  0  0  0  0  0  0  0  0  0  0  0
   -6.7170   -2.9862   -1.5704 H   0  0  0  0  0  0  0  0  0  0  0  0
   -8.0604   -1.0356    2.0144 H   0  0  0  0  0  0  0  0  0  0  0  0
    3.2260   -1.4948   -0.6650 H   0  0  0  0  0  0  0  0  0  0  0  0
    5.9791    1.3045    1.1701 H   0  0  0  0  0  0  0  0  0  0  0  0
    4.9895   -3.0887   -0.9084 H   0  0  0  0  0  0  0  0  0  0  0  0
    7.7812   -0.3245    0.9213 H   0  0  0  0  0  0  0  0  0  0  0  0
    6.4996   -4.5369   -0.1432 H   0  0  0  0  0  0  0  0  0  0  0  0
    6.8932   -3.8497   -1.7808 H   0  0  0  0  0  0  0  0  0  0  0  0
    8.1437   -4.5680   -0.7713 H   0  0  0  0  0  0  0  0  0  0  0  0
  1 24  1  0  0  0  0
  2  7  1  0  0  0  0
  2 12  1  0  0  0  0
  3 27  1  0  0  0  0
  3 28  1  0  0  0  0
  4  9  1  0  0  0  0
  4 11  1  0  0  0  0
  4 13  1  0  0  0  0
  5  8  1  0  0  0  0
  5 14  1  0  0  0  0
  5 35  1  0  0  0  0
  6 12  2  0  0  0  0
  6 16  1  0  0  0  0
  7 16  2  0  0  0  0
  8 10  1  0  0  0  0
  8 11  1  0  0  0  0
  8 29  1  0  0  0  0
  9 10  1  0  0  0  0
  9 12  1  0  0  0  0
  9 30  1  0  0  0  0
 10 31  1  0  0  0  0
 10 32  1  0  0  0  0
 11 33  1  0  0  0  0
 11 34  1  0  0  0  0
 13 36  1  0  0  0  0
 13 37  1  0  0  0  0
 13 38  1  0  0  0  0
 14 15  1  0  0  0  0
 14 39  1  0  0  0  0
 14 40  1  0  0  0  0
 15 17  2  0  0  0  0
 15 18  1  0  0  0  0
 16 19  1  0  0  0  0
 17 20  1  0  0  0  0
 17 41  1  0  0  0  0
 18 21  2  0  0  0  0
 18 42  1  0  0  0  0
 19 22  2  0  0  0  0
 19 23  1  0  0  0  0
 20 24  2  0  0  0  0
 20 43  1  0  0  0  0
 21 24  1  0  0  0  0
 21 44  1  0  0  0  0
 22 25  1  0  0  0  0
 22 45  1  0  0  0  0
 23 26  2  0  0  0  0
 23 46  1  0  0  0  0
 25 27  2  0  0  0  0
 25 47  1  0  0  0  0
 26 27  1  0  0  0  0
 26 48  1  0  0  0  0
 28 49  1  0  0  0  0
 28 50  1  0  0  0  0
 28 51  1  0  0  0  0
M  END
> <PUBCHEM_COMPOUND_CID>
45783260

> <PUBCHEM_CONFORMER_RMSD>
0.8

> <PUBCHEM_CONFORMER_DIVERSEORDER>
1
83
144
102
107
100
61
125
8
54
47
129
119
35
113
134
108
126
138
33
88
65
101
80
117
110
28
43
146
121
6
123
143
72
77
95
24
15
17
86
131
89
79
16
106
50
85
120
41
112
3
64
105
71
98
132
109
91
27
12
135
39
82
104
30
99
137
5
147
141
111
140
10
115
84
46
42
116
48
122
73
70
139
67
52
13
97
19
124
9
103
136
128
81
21
34
40
114
25
66
145
142
68
133
148
51
37
4
36
45
149
49
94
118
56
58
63
38
92
127
78
130
31
55
22
2
62
29
90
18
74
75
14
26
20
7
59
44
11
57
76
96
87
32
53
93
60
23
69

> <PUBCHEM_MMFF94_PARTIAL_CHARGES>
36
1 -0.19
11 0.27
12 0.3
13 0.27
14 0.41
15 -0.14
16 0.46
17 -0.15
18 -0.15
19 0.05
2 -0.02
20 -0.15
21 -0.15
22 -0.15
23 -0.15
24 0.19
25 -0.15
26 -0.15
27 0.08
28 0.28
3 -0.36
35 0.36
4 -0.81
41 0.15
42 0.15
43 0.15
44 0.15
45 0.15
46 0.15
47 0.15
48 0.15
5 -0.9
6 -0.57
7 -0.41
8 0.27
9 0.45

> <PUBCHEM_EFFECTIVE_ROTOR_COUNT>
7

> <PUBCHEM_PHARMACOPHORE_FEATURES>
9
1 3 acceptor
1 4 cation
1 5 cation
1 5 donor
3 6 7 16 cation
5 2 6 7 12 16 rings
5 4 8 9 10 11 rings
6 15 17 18 20 21 24 rings
6 19 22 23 25 26 27 rings

> <PUBCHEM_HEAVY_ATOM_COUNT>
28

> <PUBCHEM_ATOM_DEF_STEREO_COUNT>
2

> <PUBCHEM_ATOM_UDEF_STEREO_COUNT>
0

> <PUBCHEM_BOND_DEF_STEREO_COUNT>
0

> <PUBCHEM_BOND_UDEF_STEREO_COUNT>
0

> <PUBCHEM_ISOTOPIC_ATOM_COUNT>
0

> <PUBCHEM_COMPONENT_COUNT>
1

> <PUBCHEM_CACTVS_TAUTO_COUNT>
1

> <PUBCHEM_CONFORMER_ID>
02BA98DC00000001

> <PUBCHEM_MMFF94_ENERGY>
65.8446

> <PUBCHEM_FEATURE_SELFOVERLAP>
45.672

> <PUBCHEM_SHAPE_FINGERPRINT>
10 15 15267345167035128233
10280341 67 11314893340006805270
10669705 251 18340772623624550375
10740516 88 18334869337411080867
11059845 2 17985844635793380081
11409948 8 18200860826854549010
11497681 19 18409169900936066172
12342043 65 18410847759474171168
12623949 98 18343309166900220796
12661589 4 18189325794063659562
13533116 47 18342175626115079209
1361 4 18267303325686738387
13668630 136 17968089893994510227
13673619 4 18409166593331336412
13685833 64 18411699893722412929
13782708 43 18335695022971027992
14123256 34 18408041792729776153
14178184 131 18059288863953759479
14428016 167 18411135809855888627
14556957 393 15140964998035067183
14565420 104 11743850157171825933
15152005 304 18340499918813185791
15152005 77 18272366452200305863
15347591 1 18413389817436167312
15352257 5 18412262856808597387
15475509 35 18131064961449735208
15510800 12 18260272975060544683
16992779 147 16772087350336922704
16994733 274 9007055738746588485
1768 124 18272652371876784230
1768 4 8646488562066860271
18335252 98 18411698782391123216
19246450 95 16773236167956984409
19438510 23 10375863074460012604
20028762 73 18201719552622782830
20165401 70 18271241742088801527
2026 5 18334293119813078458
20398071 356 18411984672040598947
20505436 4 16842753022705181208
20691028 202 8933842575717006282
20982279 24 17532384244198868443
21049683 271 18411702106686397576
21095086 4 18411422774106557366
21130935 74 18272369780187263608
21197605 99 18272370859084462758
21307412 95 17821736048335948491
21344244 181 18187646946285325331
21365058 113 17386007316957970949
21424621 283 10447928377832536637
21585482 310 18114189670082748195
21682296 61 18335423491534216865
22149856 69 18202005387571145248
23522609 53 18124349122526194625
23569943 247 18336828589801040467
255183 451 18187367644530657988
270888 7 9007051366438206372
2835820 40 10085907586546832138
3383291 50 18335136514204182723
3504750 166 18272367586598308365
3627633 1 18261952929902062165
3663271 9 17846502577795300905
3862424 121 17678198138055919611
393628 194 10159396726820919283
406291 66 18411980247681419955
44880568 143 17458617904635145781
465052 167 18273215300735125268
5385378 56 12607416476594475332
54039377 194 18341897343127010798
543368 44 9151181948520636049
5718773 13 18411417297780258882
5937810 71 11530476706509773471
636775 72 9438818583197107038
636775 8 18198630939584244950
6691757 9 15123211226699794973
6712543 237 15985107410014424959
9831232 110 18409730625589532406
999808 66 18412540985947639135

> <PUBCHEM_SHAPE_MULTIPOLES>
537.29
25.59
4.02
1.19
12.62
1.39
-0.34
33.19
2.84
-2.74
-1.22
0.69
-0.61
1.88

> <PUBCHEM_SHAPE_SELFOVERLAP>
1158.899

> <PUBCHEM_SHAPE_VOLUME>
299.9

> <PUBCHEM_COORDINATE_TYPE>
2
5
10

$$$$
