38027218
  -OEChem-12032416143D

 65 66  0     1  0  0  0  0  0999 V2000
   -1.8488    2.4903    0.6045 O   0  0  0  0  0  0  0  0  0  0  0  0
    3.1755   -2.6405   -1.3704 O   0  0  0  0  0  0  0  0  0  0  0  0
    2.2483   -4.3585    0.4834 O   0  0  0  0  0  0  0  0  0  0  0  0
    3.6364   -1.0009    0.2162 N   0  0  0  0  0  0  0  0  0  0  0  0
   -2.3714    0.5398    1.7456 N   0  0  0  0  0  0  0  0  0  0  0  0
    1.8864    1.0346   -1.1396 C   0  0  1  0  0  0  0  0  0  0  0  0
    3.3214    1.2733   -0.6069 C   0  0  1  0  0  0  0  0  0  0  0  0
    0.9512    2.1662   -0.6868 C   0  0  0  0  0  0  0  0  0  0  0  0
    0.8879    2.2910    0.8472 C   0  0  2  0  0  0  0  0  0  0  0  0
    1.8586    0.9185   -2.6668 C   0  0  0  0  0  0  0  0  0  0  0  0
    2.2681    2.2631    1.4718 C   0  0  0  0  0  0  0  0  0  0  0  0
    3.3460    1.8175    0.8022 C   0  0  0  0  0  0  0  0  0  0  0  0
    4.1567   -0.0104   -0.6732 C   0  0  0  0  0  0  0  0  0  0  0  0
   -0.0106    1.2071    1.4530 C   0  0  0  0  0  0  0  0  0  0  0  0
    0.6399    0.1196   -3.1177 C   0  0  0  0  0  0  0  0  0  0  0  0
    1.8642    2.3036   -3.3057 C   0  0  0  0  0  0  0  0  0  0  0  0
    2.3896    2.8024    2.8699 C   0  0  0  0  0  0  0  0  0  0  0  0
   -1.4841    1.4855    1.2207 C   0  0  0  0  0  0  0  0  0  0  0  0
    3.1823   -2.2500   -0.2061 C   0  0  0  0  0  0  0  0  0  0  0  0
   -3.8205    0.6636    1.6067 C   0  0  0  0  0  0  0  0  0  0  0  0
   -1.9168   -0.6405    2.4705 C   0  0  0  0  0  0  0  0  0  0  0  0
    2.6868   -3.0986    0.9454 C   0  0  0  0  0  0  0  0  0  0  0  0
   -4.3303   -0.0432    0.3842 C   0  0  0  0  0  0  0  0  0  0  0  0
   -4.4187    0.6388   -0.8294 C   0  0  0  0  0  0  0  0  0  0  0  0
   -4.7153   -1.3815    0.4617 C   0  0  0  0  0  0  0  0  0  0  0  0
   -4.8923   -0.0176   -1.9655 C   0  0  0  0  0  0  0  0  0  0  0  0
   -5.1889   -2.0379   -0.6743 C   0  0  0  0  0  0  0  0  0  0  0  0
    1.7758   -5.1794    1.5475 C   0  0  0  0  0  0  0  0  0  0  0  0
   -5.2774   -1.3559   -1.8880 C   0  0  0  0  0  0  0  0  0  0  0  0
    1.5078    0.0950   -0.7209 H   0  0  0  0  0  0  0  0  0  0  0  0
    3.8247    2.0217   -1.2319 H   0  0  0  0  0  0  0  0  0  0  0  0
   -0.0530    2.0343   -1.1009 H   0  0  0  0  0  0  0  0  0  0  0  0
    1.3149    3.1370   -1.0476 H   0  0  0  0  0  0  0  0  0  0  0  0
    0.4565    3.2783    1.0647 H   0  0  0  0  0  0  0  0  0  0  0  0
    2.7403    0.3770   -3.0248 H   0  0  0  0  0  0  0  0  0  0  0  0
    4.3205    1.8645    1.2844 H   0  0  0  0  0  0  0  0  0  0  0  0
    5.1853    0.1914   -0.3502 H   0  0  0  0  0  0  0  0  0  0  0  0
    4.2215   -0.4046   -1.6910 H   0  0  0  0  0  0  0  0  0  0  0  0
    0.1337    1.1902    2.5390 H   0  0  0  0  0  0  0  0  0  0  0  0
    0.2409    0.2186    1.0559 H   0  0  0  0  0  0  0  0  0  0  0  0
   -0.3016    0.6015   -2.8367 H   0  0  0  0  0  0  0  0  0  0  0  0
    0.6487   -0.8862   -2.6838 H   0  0  0  0  0  0  0  0  0  0  0  0
    0.6388    0.0066   -4.2075 H   0  0  0  0  0  0  0  0  0  0  0  0
    0.9087    2.8288   -3.2032 H   0  0  0  0  0  0  0  0  0  0  0  0
    2.0325    2.2007   -4.3850 H   0  0  0  0  0  0  0  0  0  0  0  0
    2.6692    2.9406   -2.9276 H   0  0  0  0  0  0  0  0  0  0  0  0
    1.9810    3.8168    2.9232 H   0  0  0  0  0  0  0  0  0  0  0  0
    3.4326    2.8533    3.2007 H   0  0  0  0  0  0  0  0  0  0  0  0
    1.8517    2.1719    3.5834 H   0  0  0  0  0  0  0  0  0  0  0  0
    3.6489   -0.8041    1.2130 H   0  0  0  0  0  0  0  0  0  0  0  0
   -4.0766    1.7285    1.5406 H   0  0  0  0  0  0  0  0  0  0  0  0
   -4.3134    0.2923    2.5133 H   0  0  0  0  0  0  0  0  0  0  0  0
   -0.8685   -0.6184    2.7639 H   0  0  0  0  0  0  0  0  0  0  0  0
   -2.0724   -1.5187    1.8372 H   0  0  0  0  0  0  0  0  0  0  0  0
   -2.5083   -0.7483    3.3853 H   0  0  0  0  0  0  0  0  0  0  0  0
    3.5080   -3.2274    1.6599 H   0  0  0  0  0  0  0  0  0  0  0  0
    1.8592   -2.5695    1.4323 H   0  0  0  0  0  0  0  0  0  0  0  0
   -4.1243    1.6819   -0.9051 H   0  0  0  0  0  0  0  0  0  0  0  0
   -4.6539   -1.9238    1.4014 H   0  0  0  0  0  0  0  0  0  0  0  0
   -4.9614    0.5135   -2.9104 H   0  0  0  0  0  0  0  0  0  0  0  0
   -5.4891   -3.0799   -0.6140 H   0  0  0  0  0  0  0  0  0  0  0  0
    1.4523   -6.1350    1.1264 H   0  0  0  0  0  0  0  0  0  0  0  0
    0.9220   -4.7076    2.0435 H   0  0  0  0  0  0  0  0  0  0  0  0
    2.5762   -5.3670    2.2696 H   0  0  0  0  0  0  0  0  0  0  0  0
   -5.6462   -1.8671   -2.7724 H   0  0  0  0  0  0  0  0  0  0  0  0
  1 18  2  0  0  0  0
  2 19  2  0  0  0  0
  3 22  1  0  0  0  0
  3 28  1  0  0  0  0
  4 13  1  0  0  0  0
  4 19  1  0  0  0  0
  4 50  1  0  0  0  0
  5 18  1  0  0  0  0
  5 20  1  0  0  0  0
  5 21  1  0  0  0  0
  6  7  1  0  0  0  0
  6  8  1  0  0  0  0
  6 10  1  0  0  0  0
  6 30  1  0  0  0  0
  7 12  1  0  0  0  0
  7 13  1  0  0  0  0
  7 31  1  0  0  0  0
  8  9  1  0  0  0  0
  8 32  1  0  0  0  0
  8 33  1  0  0  0  0
  9 11  1  0  0  0  0
  9 14  1  0  0  0  0
  9 34  1  0  0  0  0
 10 15  1  0  0  0  0
 10 16  1  0  0  0  0
 10 35  1  0  0  0  0
 11 12  2  0  0  0  0
 11 17  1  0  0  0  0
 12 36  1  0  0  0  0
 13 37  1  0  0  0  0
 13 38  1  0  0  0  0
 14 18  1  0  0  0  0
 14 39  1  0  0  0  0
 14 40  1  0  0  0  0
 15 41  1  0  0  0  0
 15 42  1  0  0  0  0
 15 43  1  0  0  0  0
 16 44  1  0  0  0  0
 16 45  1  0  0  0  0
 16 46  1  0  0  0  0
 17 47  1  0  0  0  0
 17 48  1  0  0  0  0
 17 49  1  0  0  0  0
 19 22  1  0  0  0  0
 20 23  1  0  0  0  0
 20 51  1  0  0  0  0
 20 52  1  0  0  0  0
 21 53  1  0  0  0  0
 21 54  1  0  0  0  0
 21 55  1  0  0  0  0
 22 56  1  0  0  0  0
 22 57  1  0  0  0  0
 23 24  2  0  0  0  0
 23 25  1  0  0  0  0
 24 26  1  0  0  0  0
 24 58  1  0  0  0  0
 25 27  2  0  0  0  0
 25 59  1  0  0  0  0
 26 29  2  0  0  0  0
 26 60  1  0  0  0  0
 27 29  1  0  0  0  0
 27 61  1  0  0  0  0
 28 62  1  0  0  0  0
 28 63  1  0  0  0  0
 28 64  1  0  0  0  0
 29 65  1  0  0  0  0
M  END
> <PUBCHEM_COMPOUND_CID>
38027218

> <PUBCHEM_CONFORMER_RMSD>
1

> <PUBCHEM_CONFORMER_DIVERSEORDER>
1
58
139
10
185
109
65
43
90
37
19
57
154
67
187
68
77
131
108
107
117
44
21
50
64
83
130
176
6
98
175
191
118
110
111
119
39
149
41
120
79
76
141
34
167
101
121
178
84
123
24
38
151
132
29
116
115
193
134
105
40
168
80
124
60
169
22
177
113
173
88
48
52
157
82
184
15
12
93
135
36
114
125
112
99
127
161
94
196
89
170
86
166
144
194
32
5
158
164
137
128
26
20
138
152
73
74
33
97
62
146
30
69
197
106
163
92
78
71
72
85
53
190
61
42
95
162
156
8
140
133
4
28
96
150
153
126
16
155
87
199
47
25
66
100
147
31
9
81
13
45
180
104
172
171
148
188
11
142
143
195
23
17
159
27
192
179
129
200
160
103
54
14
59
165
102
136
198
63
2
46
183
18
186
189
181
55
145
122
56
91
75
3
49
35
70
7
182
174
51

> <PUBCHEM_MMFF94_PARTIAL_CHARGES>
31
1 -0.57
11 -0.28
12 -0.29
13 0.3
14 0.06
17 0.14
18 0.57
19 0.57
2 -0.57
20 0.44
21 0.3
22 0.34
23 -0.14
24 -0.15
25 -0.15
26 -0.15
27 -0.15
28 0.28
29 -0.15
3 -0.56
36 0.15
4 -0.73
5 -0.66
50 0.37
58 0.15
59 0.15
60 0.15
61 0.15
65 0.15
7 0.14
9 0.14

> <PUBCHEM_EFFECTIVE_ROTOR_COUNT>
11.8

> <PUBCHEM_PHARMACOPHORE_FEATURES>
7
1 1 acceptor
1 2 acceptor
1 3 acceptor
1 4 donor
3 10 15 16 hydrophobe
6 23 24 25 26 27 29 rings
6 6 7 8 9 11 12 rings

> <PUBCHEM_HEAVY_ATOM_COUNT>
29

> <PUBCHEM_ATOM_DEF_STEREO_COUNT>
3

> <PUBCHEM_ATOM_UDEF_STEREO_COUNT>
0

> <PUBCHEM_BOND_DEF_STEREO_COUNT>
0

> <PUBCHEM_BOND_UDEF_STEREO_COUNT>
0

> <PUBCHEM_ISOTOPIC_ATOM_COUNT>
0

> <PUBCHEM_COMPONENT_COUNT>
1

> <PUBCHEM_CACTVS_TAUTO_COUNT>
2

> <PUBCHEM_CONFORMER_ID>
02443FD200000001

> <PUBCHEM_MMFF94_ENERGY>
66.6453

> <PUBCHEM_FEATURE_SELFOVERLAP>
35.528

> <PUBCHEM_SHAPE_FINGERPRINT>
11069576 57 18337395950501043502
11796584 16 17418102031302491345
12156800 1 15796757601821334834
14251757 17 17168434765904303507
14480069 147 18410582799269108819
14674994 50 16964069402985614406
14950920 106 11743847949869339589
15210252 30 12035447255323441214
19315092 285 18059845173438432323
20775530 9 17757001008302255282
25222932 49 17772177876532551735
392239 28 13542455436909599564
46194498 28 16807039698958261397
463206 1 18341344343774050755
513532 50 16950834911949570396
66674814 147 18114467773177939378

> <PUBCHEM_SHAPE_MULTIPOLES>
569.24
10.4
4.68
3.16
15.22
7.82
-1.38
3.41
-2.78
-5.74
2.17
-0.56
-1.69
-0.68

> <PUBCHEM_SHAPE_SELFOVERLAP>
1157.744

> <PUBCHEM_SHAPE_VOLUME>
329.8

> <PUBCHEM_COORDINATE_TYPE>
2
5
10

$$$$
