28990599
  -OEChem-12032416283D

 53 58  0     1  0  0  0  0  0999 V2000
   -3.0388    1.2688   -0.0224 S   0  0  0  0  0  0  0  0  0  0  0  0
   -0.9195   -0.2993    1.8817 O   0  0  0  0  0  0  0  0  0  0  0  0
    3.4746   -0.6804   -0.5060 N   0  0  2  0  0  0  0  0  0  0  0  0
    0.6389   -1.5432    0.6729 N   0  0  0  0  0  0  0  0  0  0  0  0
    5.2268    2.0584    0.2397 N   0  0  0  0  0  0  0  0  0  0  0  0
    2.9967   -2.0352    1.5489 C   0  0  1  0  0  0  0  0  0  0  0  0
    2.3123   -2.8879   -0.6420 C   0  0  2  0  0  0  0  0  0  0  0  0
    2.8835   -3.3021    0.7114 C   0  0  0  0  0  0  0  0  0  0  0  0
    3.9252   -1.0200    0.8492 C   0  0  0  0  0  0  0  0  0  0  0  0
    3.2728   -1.8863   -1.3231 C   0  0  0  0  0  0  0  0  0  0  0  0
    1.5887   -1.4758    1.7928 C   0  0  0  0  0  0  0  0  0  0  0  0
    0.9337   -2.2746   -0.4801 C   0  0  0  0  0  0  0  0  0  0  0  0
    4.4064    0.2400   -1.1531 C   0  0  0  0  0  0  0  0  0  0  0  0
    0.0091   -2.4163   -1.4429 C   0  0  0  0  0  0  0  0  0  0  0  0
   -0.6115   -0.9236    0.8648 C   0  0  0  0  0  0  0  0  0  0  0  0
   -1.6157   -1.0705   -0.2469 C   0  0  0  0  0  0  0  0  0  0  0  0
   -1.2810   -1.7984   -1.3230 C   0  0  0  0  0  0  0  0  0  0  0  0
    4.2707    1.6417   -0.6204 C   0  0  0  0  0  0  0  0  0  0  0  0
   -2.9386   -0.4264   -0.1711 C   0  0  0  0  0  0  0  0  0  0  0  0
    3.1996    2.4211   -1.0268 C   0  0  0  0  0  0  0  0  0  0  0  0
   -4.1802   -1.0155   -0.2026 C   0  0  0  0  0  0  0  0  0  0  0  0
   -5.2519   -0.0659   -0.1038 C   0  0  0  0  0  0  0  0  0  0  0  0
   -4.7628    1.2398    0.0020 C   0  0  0  0  0  0  0  0  0  0  0  0
    3.1038    3.7115   -0.5177 C   0  0  0  0  0  0  0  0  0  0  0  0
    5.1003    3.3182    0.7138 C   0  0  0  0  0  0  0  0  0  0  0  0
    4.0682    4.1763    0.3696 C   0  0  0  0  0  0  0  0  0  0  0  0
   -6.6548   -0.2577   -0.0990 C   0  0  0  0  0  0  0  0  0  0  0  0
   -5.6300    2.3446    0.1113 C   0  0  0  0  0  0  0  0  0  0  0  0
   -7.5178    0.8360    0.0094 C   0  0  0  0  0  0  0  0  0  0  0  0
   -7.0086    2.1227    0.1133 C   0  0  0  0  0  0  0  0  0  0  0  0
    3.4445   -2.2775    2.5208 H   0  0  0  0  0  0  0  0  0  0  0  0
    2.2457   -3.7844   -1.2724 H   0  0  0  0  0  0  0  0  0  0  0  0
    2.2366   -4.0392    1.2034 H   0  0  0  0  0  0  0  0  0  0  0  0
    3.8678   -3.7695    0.5864 H   0  0  0  0  0  0  0  0  0  0  0  0
    3.9688   -0.1200    1.4740 H   0  0  0  0  0  0  0  0  0  0  0  0
    4.9405   -1.4389    0.8207 H   0  0  0  0  0  0  0  0  0  0  0  0
    4.2337   -2.3834   -1.5144 H   0  0  0  0  0  0  0  0  0  0  0  0
    2.8587   -1.6037   -2.2997 H   0  0  0  0  0  0  0  0  0  0  0  0
    1.1234   -2.0456    2.6089 H   0  0  0  0  0  0  0  0  0  0  0  0
    1.6416   -0.4372    2.1432 H   0  0  0  0  0  0  0  0  0  0  0  0
    4.2103    0.2901   -2.2331 H   0  0  0  0  0  0  0  0  0  0  0  0
    5.4451   -0.1040   -1.0585 H   0  0  0  0  0  0  0  0  0  0  0  0
    0.2146   -2.9738   -2.3507 H   0  0  0  0  0  0  0  0  0  0  0  0
   -1.9649   -1.9335   -2.1558 H   0  0  0  0  0  0  0  0  0  0  0  0
    2.4517    2.0493   -1.7191 H   0  0  0  0  0  0  0  0  0  0  0  0
   -4.3305   -2.0852   -0.2913 H   0  0  0  0  0  0  0  0  0  0  0  0
    2.2790    4.3536   -0.8116 H   0  0  0  0  0  0  0  0  0  0  0  0
    5.8776    3.6324    1.4025 H   0  0  0  0  0  0  0  0  0  0  0  0
    4.0135    5.1784    0.7792 H   0  0  0  0  0  0  0  0  0  0  0  0
   -7.0688   -1.2598   -0.1798 H   0  0  0  0  0  0  0  0  0  0  0  0
   -5.2404    3.3554    0.1931 H   0  0  0  0  0  0  0  0  0  0  0  0
   -8.5923    0.6758    0.0120 H   0  0  0  0  0  0  0  0  0  0  0  0
   -7.6875    2.9670    0.1971 H   0  0  0  0  0  0  0  0  0  0  0  0
  1 19  1  0  0  0  0
  1 23  1  0  0  0  0
  2 15  2  0  0  0  0
  3  9  1  0  0  0  0
  3 10  1  0  0  0  0
  3 13  1  0  0  0  0
  4 11  1  0  0  0  0
  4 12  1  0  0  0  0
  4 15  1  0  0  0  0
  5 18  1  0  0  0  0
  5 25  2  0  0  0  0
  6  8  1  0  0  0  0
  6  9  1  0  0  0  0
  6 11  1  0  0  0  0
  6 31  1  0  0  0  0
  7  8  1  0  0  0  0
  7 10  1  0  0  0  0
  7 12  1  0  0  0  0
  7 32  1  0  0  0  0
  8 33  1  0  0  0  0
  8 34  1  0  0  0  0
  9 35  1  0  0  0  0
  9 36  1  0  0  0  0
 10 37  1  0  0  0  0
 10 38  1  0  0  0  0
 11 39  1  0  0  0  0
 11 40  1  0  0  0  0
 12 14  2  0  0  0  0
 13 18  1  0  0  0  0
 13 41  1  0  0  0  0
 13 42  1  0  0  0  0
 14 17  1  0  0  0  0
 14 43  1  0  0  0  0
 15 16  1  0  0  0  0
 16 17  2  0  0  0  0
 16 19  1  0  0  0  0
 17 44  1  0  0  0  0
 18 20  2  0  0  0  0
 19 21  2  0  0  0  0
 20 24  1  0  0  0  0
 20 45  1  0  0  0  0
 21 22  1  0  0  0  0
 21 46  1  0  0  0  0
 22 23  1  0  0  0  0
 22 27  2  0  0  0  0
 23 28  2  0  0  0  0
 24 26  2  0  0  0  0
 24 47  1  0  0  0  0
 25 26  1  0  0  0  0
 25 48  1  0  0  0  0
 26 49  1  0  0  0  0
 27 29  1  0  0  0  0
 27 50  1  0  0  0  0
 28 30  1  0  0  0  0
 28 51  1  0  0  0  0
 29 30  2  0  0  0  0
 29 52  1  0  0  0  0
 30 53  1  0  0  0  0
M  END
> <PUBCHEM_COMPOUND_CID>
28990599

> <PUBCHEM_CONFORMER_RMSD>
0.8

> <PUBCHEM_CONFORMER_DIVERSEORDER>
1
11
26
16
27
35
32
34
20
22
29
31
19
21
15
9
13
30
18
33
25
28
23
24
12
6
17
14
4
10
3
7
8
2
5

> <PUBCHEM_MMFF94_PARTIAL_CHARGES>
38
1 -0.08
10 0.27
11 0.3
12 -0.03
13 0.41
14 -0.15
15 0.62
16 0.06
17 -0.15
18 0.17
19 -0.01
2 -0.57
20 -0.15
21 -0.15
23 0.04
24 -0.15
25 0.16
26 -0.15
27 -0.15
28 -0.15
29 -0.15
3 -0.81
30 -0.15
4 -0.47
43 0.15
44 0.15
45 0.15
46 0.15
47 0.15
48 0.15
49 0.15
5 -0.62
50 0.15
51 0.15
52 0.15
53 0.15
7 0.14
9 0.27

> <PUBCHEM_EFFECTIVE_ROTOR_COUNT>
4

> <PUBCHEM_PHARMACOPHORE_FEATURES>
9
1 2 acceptor
1 3 cation
1 5 acceptor
5 1 19 21 22 23 rings
6 22 23 27 28 29 30 rings
6 3 6 7 8 9 10 rings
6 4 12 14 15 16 17 rings
6 4 6 7 8 11 12 rings
6 5 18 20 24 25 26 rings

> <PUBCHEM_HEAVY_ATOM_COUNT>
30

> <PUBCHEM_ATOM_DEF_STEREO_COUNT>
2

> <PUBCHEM_ATOM_UDEF_STEREO_COUNT>
0

> <PUBCHEM_BOND_DEF_STEREO_COUNT>
0

> <PUBCHEM_BOND_UDEF_STEREO_COUNT>
0

> <PUBCHEM_ISOTOPIC_ATOM_COUNT>
0

> <PUBCHEM_COMPONENT_COUNT>
1

> <PUBCHEM_CACTVS_TAUTO_COUNT>
3

> <PUBCHEM_CONFORMER_ID>
01BA5C8700000001

> <PUBCHEM_MMFF94_ENERGY>
79.9082

> <PUBCHEM_FEATURE_SELFOVERLAP>
47.287

> <PUBCHEM_SHAPE_FINGERPRINT>
10165383 225 16950575363620137014
10673678 19 18272092707963260143
10675989 125 18341898532226985416
10937287 8 18194965364767978246
11070050 100 16877939443064970392
11135609 127 18340476799514972885
11456790 92 17822007550171679680
11578080 2 17386591131118528826
11621639 179 18408041789332082804
11966995 178 18270413706911918789
1200032 147 17024042630391300772
12166972 35 18128535964193766058
12236239 1 17169281347683698899
12633257 1 15936968677631081494
12925494 130 18335983164016433489
13533116 47 17096370523378801939
1361 2 18410857689348732845
13944108 23 18334867078310933524
14251764 75 18265052616504921020
14739800 52 18333444339874810897
14790565 3 18340771455825001013
14849402 71 18114179736033849682
15001296 14 18411139143072276601
15082195 135 18201444623318058235
15142526 21 18188489193593048170
15439362 3 18340207514135249340
17844677 252 18265337210012302179
18335252 114 18340205202820404430
18681886 176 18270116791216854058
19053607 189 18123184864841314344
19438510 23 18335978791734263344
20715895 44 18342457075764610176
21298829 104 18339922722727023956
21315764 268 18189613844165203813
21344244 78 17973145259185636402
21475661 188 18188215406971456188
21641784 216 16845297077793827961
21716022 299 14690908449268467182
22122407 14 18337118882266013953
22149856 69 17703799068650995043
23522609 53 17560538222478938065
23559900 14 18197503926395019359
23569914 2 17463927438165564781
245318 6 18042982045150198941
25269216 80 15912182382980608181
2838139 119 18411979199671872604
3298306 158 18338519771385206352
3411729 13 18408041831595764293
3472631 163 18272090525792917534
34797466 226 18130796637937152471
376196 1 18127129904287149422
397830 11 18113911481135476819
4112364 45 18338784702574907616
5104073 3 18040719160700752955
5109719 28 18337681922519301961
513532 50 18270975574211322036
5372103 7 15911906440196309216
57091435 61 18335983159394561368
5951187 136 18272379697873561132
7288768 16 17825383248537387808

> <PUBCHEM_SHAPE_MULTIPOLES>
600.42
16.25
4.66
1.32
27.27
3.32
-0.21
13.55
-0.05
-7.84
0.07
-1.2
-0.7
-0.58

> <PUBCHEM_SHAPE_SELFOVERLAP>
1327.571

> <PUBCHEM_SHAPE_VOLUME>
322.5

> <PUBCHEM_COORDINATE_TYPE>
2
5
10

$$$$
