25390218
  -OEChem-12032416373D

 60 61  0     1  0  0  0  0  0999 V2000
    2.2072    0.1139   -0.4811 O   0  0  0  0  0  0  0  0  0  0  0  0
    5.0054    0.2481    1.7666 O   0  0  0  0  0  0  0  0  0  0  0  0
    5.0012    1.2784   -0.7842 O   0  0  0  0  0  0  0  0  0  0  0  0
    0.0826    1.2616   -1.7342 O   0  0  0  0  0  0  0  0  0  0  0  0
   -0.3356   -1.3445    0.2188 O   0  0  0  0  0  0  0  0  0  0  0  0
    1.6392   -2.4683    0.6798 N   0  0  0  0  0  0  0  0  0  0  0  0
   -0.9045    2.9061   -0.4299 N   0  0  0  0  0  0  0  0  0  0  0  0
    3.7758    0.6443    1.1976 C   0  0  2  0  0  0  0  0  0  0  0  0
    3.0845   -0.5018    0.4783 C   0  0  1  0  0  0  0  0  0  0  0  0
    3.9299    1.6551    0.0801 C   0  0  2  0  0  0  0  0  0  0  0  0
    2.6223    1.4840   -0.6852 C   0  0  2  0  0  0  0  0  0  0  0  0
    2.2811   -1.3968    1.4050 C   0  0  0  0  0  0  0  0  0  0  0  0
    1.5095    2.3889   -0.1740 C   0  0  0  0  0  0  0  0  0  0  0  0
    0.1742    2.1244   -0.8569 C   0  0  0  0  0  0  0  0  0  0  0  0
   -0.0925   -3.6309   -0.5646 C   0  0  0  0  0  0  0  0  0  0  0  0
    0.3666   -2.3503    0.1400 C   0  0  0  0  0  0  0  0  0  0  0  0
   -1.0382   -3.3392   -1.7428 C   0  0  0  0  0  0  0  0  0  0  0  0
   -0.7231   -4.6013    0.4551 C   0  0  0  0  0  0  0  0  0  0  0  0
   -2.2453    2.7652   -0.9931 C   0  0  0  0  0  0  0  0  0  0  0  0
   -0.7720    3.9201    0.6089 C   0  0  0  0  0  0  0  0  0  0  0  0
   -0.4028   -2.4274   -2.7860 C   0  0  0  0  0  0  0  0  0  0  0  0
   -1.9923   -4.0872    1.1234 C   0  0  0  0  0  0  0  0  0  0  0  0
   -3.0836    1.7948   -0.2122 C   0  0  0  0  0  0  0  0  0  0  0  0
   -3.0828    0.4419   -0.5521 C   0  0  0  0  0  0  0  0  0  0  0  0
   -3.8629    2.2457    0.8530 C   0  0  0  0  0  0  0  0  0  0  0  0
   -3.8615   -0.4599    0.1731 C   0  0  0  0  0  0  0  0  0  0  0  0
   -4.6415    1.3440    1.5784 C   0  0  0  0  0  0  0  0  0  0  0  0
   -4.6409   -0.0089    1.2384 C   0  0  0  0  0  0  0  0  0  0  0  0
    3.1347    1.0497    1.9893 H   0  0  0  0  0  0  0  0  0  0  0  0
    3.8090   -1.1113   -0.0775 H   0  0  0  0  0  0  0  0  0  0  0  0
    4.1251    2.6710    0.4352 H   0  0  0  0  0  0  0  0  0  0  0  0
    2.7569    1.6236   -1.7641 H   0  0  0  0  0  0  0  0  0  0  0  0
    1.5048   -0.8194    1.9199 H   0  0  0  0  0  0  0  0  0  0  0  0
    2.9287   -1.8559    2.1588 H   0  0  0  0  0  0  0  0  0  0  0  0
    1.8006    3.4298   -0.3515 H   0  0  0  0  0  0  0  0  0  0  0  0
    1.3623    2.2248    0.8998 H   0  0  0  0  0  0  0  0  0  0  0  0
    2.1516   -3.3382    0.5694 H   0  0  0  0  0  0  0  0  0  0  0  0
    5.4422    1.0489    2.1032 H   0  0  0  0  0  0  0  0  0  0  0  0
    5.0380    1.9322   -1.5032 H   0  0  0  0  0  0  0  0  0  0  0  0
    0.7987   -4.1236   -0.9778 H   0  0  0  0  0  0  0  0  0  0  0  0
   -1.9594   -2.8591   -1.3957 H   0  0  0  0  0  0  0  0  0  0  0  0
   -1.3259   -4.2825   -2.2219 H   0  0  0  0  0  0  0  0  0  0  0  0
    0.0103   -4.8258    1.2396 H   0  0  0  0  0  0  0  0  0  0  0  0
   -0.9473   -5.5520   -0.0438 H   0  0  0  0  0  0  0  0  0  0  0  0
   -2.1557    2.4125   -2.0283 H   0  0  0  0  0  0  0  0  0  0  0  0
   -2.7281    3.7482   -1.0511 H   0  0  0  0  0  0  0  0  0  0  0  0
   -1.2386    4.8482    0.2635 H   0  0  0  0  0  0  0  0  0  0  0  0
    0.2559    4.1535    0.8816 H   0  0  0  0  0  0  0  0  0  0  0  0
   -1.2892    3.5700    1.5067 H   0  0  0  0  0  0  0  0  0  0  0  0
   -0.1942   -1.4305   -2.3902 H   0  0  0  0  0  0  0  0  0  0  0  0
    0.5344   -2.8533   -3.1585 H   0  0  0  0  0  0  0  0  0  0  0  0
   -1.0800   -2.3078   -3.6380 H   0  0  0  0  0  0  0  0  0  0  0  0
   -2.3423   -4.8174    1.8608 H   0  0  0  0  0  0  0  0  0  0  0  0
   -2.8000   -3.9435    0.4005 H   0  0  0  0  0  0  0  0  0  0  0  0
   -1.8215   -3.1441    1.6501 H   0  0  0  0  0  0  0  0  0  0  0  0
   -2.4835    0.0760   -1.3813 H   0  0  0  0  0  0  0  0  0  0  0  0
   -3.8749    3.2974    1.1266 H   0  0  0  0  0  0  0  0  0  0  0  0
   -3.8623   -1.5128   -0.0922 H   0  0  0  0  0  0  0  0  0  0  0  0
   -5.2489    1.6951    2.4075 H   0  0  0  0  0  0  0  0  0  0  0  0
   -5.2472   -0.7111    1.8030 H   0  0  0  0  0  0  0  0  0  0  0  0
  1  9  1  0  0  0  0
  1 11  1  0  0  0  0
  2  8  1  0  0  0  0
  2 38  1  0  0  0  0
  3 10  1  0  0  0  0
  3 39  1  0  0  0  0
  4 14  2  0  0  0  0
  5 16  2  0  0  0  0
  6 12  1  0  0  0  0
  6 16  1  0  0  0  0
  6 37  1  0  0  0  0
  7 14  1  0  0  0  0
  7 19  1  0  0  0  0
  7 20  1  0  0  0  0
  8  9  1  0  0  0  0
  8 10  1  0  0  0  0
  8 29  1  0  0  0  0
  9 12  1  0  0  0  0
  9 30  1  0  0  0  0
 10 11  1  0  0  0  0
 10 31  1  0  0  0  0
 11 13  1  0  0  0  0
 11 32  1  0  0  0  0
 12 33  1  0  0  0  0
 12 34  1  0  0  0  0
 13 14  1  0  0  0  0
 13 35  1  0  0  0  0
 13 36  1  0  0  0  0
 15 16  1  0  0  0  0
 15 17  1  0  0  0  0
 15 18  1  0  0  0  0
 15 40  1  0  0  0  0
 17 21  1  0  0  0  0
 17 41  1  0  0  0  0
 17 42  1  0  0  0  0
 18 22  1  0  0  0  0
 18 43  1  0  0  0  0
 18 44  1  0  0  0  0
 19 23  1  0  0  0  0
 19 45  1  0  0  0  0
 19 46  1  0  0  0  0
 20 47  1  0  0  0  0
 20 48  1  0  0  0  0
 20 49  1  0  0  0  0
 21 50  1  0  0  0  0
 21 51  1  0  0  0  0
 21 52  1  0  0  0  0
 22 53  1  0  0  0  0
 22 54  1  0  0  0  0
 22 55  1  0  0  0  0
 23 24  2  0  0  0  0
 23 25  1  0  0  0  0
 24 26  1  0  0  0  0
 24 56  1  0  0  0  0
 25 27  2  0  0  0  0
 25 57  1  0  0  0  0
 26 28  2  0  0  0  0
 26 58  1  0  0  0  0
 27 28  1  0  0  0  0
 27 59  1  0  0  0  0
 28 60  1  0  0  0  0
M  END
> <PUBCHEM_COMPOUND_CID>
25390218

> <PUBCHEM_CONFORMER_RMSD>
1.4

> <PUBCHEM_CONFORMER_DIVERSEORDER>
4
63
27
57
70
109
20
84
104
96
12
72
6
36
108
94
103
56
43
41
93
101
21
65
80
83
14
107
22
46
98
31
88
73
34
37
95
38
111
47
44
110
68
61
10
17
23
87
112
48
82
35
25
64
40
28
29
55
106
113
77
9
51
102
18
49
58
26
8
42
116
7
76
24
13
99
1
15
66
53
117
30
11
32
115
33
97
60
16
90
52
54
69
85
2
89
91
81
67
39
92
3
71
45
79
62
105
78
86
114
75
19
59
5
50
74
100

> <PUBCHEM_MMFF94_PARTIAL_CHARGES>
32
1 -0.56
10 0.28
11 0.28
12 0.3
13 0.06
14 0.57
15 0.06
16 0.57
19 0.44
2 -0.68
20 0.3
23 -0.14
24 -0.15
25 -0.15
26 -0.15
27 -0.15
28 -0.15
3 -0.68
37 0.37
38 0.4
39 0.4
4 -0.57
5 -0.57
56 0.15
57 0.15
58 0.15
59 0.15
6 -0.73
60 0.15
7 -0.66
8 0.28
9 0.28

> <PUBCHEM_EFFECTIVE_ROTOR_COUNT>
12

> <PUBCHEM_PHARMACOPHORE_FEATURES>
12
1 1 acceptor
1 2 acceptor
1 2 donor
1 21 hydrophobe
1 22 hydrophobe
1 3 acceptor
1 3 donor
1 4 acceptor
1 5 acceptor
1 6 donor
5 1 8 9 10 11 rings
6 23 24 25 26 27 28 rings

> <PUBCHEM_HEAVY_ATOM_COUNT>
28

> <PUBCHEM_ATOM_DEF_STEREO_COUNT>
4

> <PUBCHEM_ATOM_UDEF_STEREO_COUNT>
0

> <PUBCHEM_BOND_DEF_STEREO_COUNT>
0

> <PUBCHEM_BOND_UDEF_STEREO_COUNT>
0

> <PUBCHEM_ISOTOPIC_ATOM_COUNT>
0

> <PUBCHEM_COMPONENT_COUNT>
1

> <PUBCHEM_CACTVS_TAUTO_COUNT>
2

> <PUBCHEM_CONFORMER_ID>
01836C8A00000004

> <PUBCHEM_MMFF94_ENERGY>
61.4806

> <PUBCHEM_FEATURE_SELFOVERLAP>
60.914

> <PUBCHEM_SHAPE_FINGERPRINT>
10616163 171 18263925436518332897
1100329 8 18193555803382340685
11115154 58 17051855983516869415
11513181 2 18272655618935624015
11578080 2 17416677154558809840
12156800 1 17757593915124818422
12422481 6 18191016803326595864
12788726 201 17616553081893076623
13122387 1 18409446960380135755
13140716 1 18192423302369246568
14223421 5 18048881788611513917
14363568 33 17767692650279758135
14863182 85 18191325813354672885
14866123 147 18336816555550394802
14932701 244 16329665474589075694
17138139 8 17625778934196793319
19591789 44 18265051332594035790
1979834 28 18265914479423787473
20028762 73 18129386063324277183
20764821 26 16823061413332083155
21344244 78 17259329502313531170
22113638 7 18263926712371338333
23559900 14 17831299398093922445
35225 105 17917416683629016055
392239 28 18271225184842228336
4403749 210 18190155967923271400
469060 322 16445299334133012598
57091435 65 18265620874763158743
6287921 2 18126853694386669855
6438718 38 18057879328437236382

> <PUBCHEM_SHAPE_MULTIPOLES>
536.92
8.21
5.94
1.72
1.58
5.2
0.62
-5.41
-4.04
-2.53
0.45
-0.09
0.88
-0.52

> <PUBCHEM_SHAPE_SELFOVERLAP>
1095.874

> <PUBCHEM_SHAPE_VOLUME>
311.1

> <PUBCHEM_COORDINATE_TYPE>
2
5
10

$$$$
