75537075
  -OEChem-12032416323D

 46 49  0     1  0  0  0  0  0999 V2000
    2.3313    2.8022   -0.0009 O   0  0  0  0  0  0  0  0  0  0  0  0
    0.2635    1.7044   -0.1955 N   0  0  0  0  0  0  0  0  0  0  0  0
   -2.2381    0.6650    0.5612 N   0  0  2  0  0  0  0  0  0  0  0  0
    2.0676    0.7489   -1.1317 N   0  0  0  0  0  0  0  0  0  0  0  0
   -5.2127   -0.2383   -0.1006 N   0  0  0  0  0  0  0  0  0  0  0  0
   -4.1580   -2.1476    0.3163 N   0  0  0  0  0  0  0  0  0  0  0  0
    4.3179   -1.6884   -0.8375 N   0  0  0  0  0  0  0  0  0  0  0  0
   -0.2596    0.5516   -0.8984 C   0  0  2  0  0  0  0  0  0  0  0  0
   -1.2088   -0.2360    0.0041 C   0  0  0  0  0  0  0  0  0  0  0  0
    0.9928   -0.2080   -1.3313 C   0  0  0  0  0  0  0  0  0  0  0  0
   -0.6493    2.5761    0.5142 C   0  0  0  0  0  0  0  0  0  0  0  0
   -1.6185    1.7437    1.3575 C   0  0  0  0  0  0  0  0  0  0  0  0
    1.6402    1.8726   -0.3959 C   0  0  0  0  0  0  0  0  0  0  0  0
   -3.1875   -0.0902    1.3784 C   0  0  0  0  0  0  0  0  0  0  0  0
    3.4296    0.4652   -1.5265 C   0  0  0  0  0  0  0  0  0  0  0  0
   -4.1708   -0.8519    0.5375 C   0  0  0  0  0  0  0  0  0  0  0  0
    4.1415   -0.3872   -0.5161 C   0  0  0  0  0  0  0  0  0  0  0  0
    4.5749    0.1847    0.6692 C   0  0  0  0  0  0  0  0  0  0  0  0
   -5.9083   -1.2043   -0.7715 C   0  0  0  0  0  0  0  0  0  0  0  0
   -5.5341    1.1692   -0.0808 C   0  0  0  0  0  0  0  0  0  0  0  0
   -5.2386   -2.3738   -0.4990 C   0  0  0  0  0  0  0  0  0  0  0  0
    5.2319   -0.6315    1.5833 C   0  0  0  0  0  0  0  0  0  0  0  0
    4.9606   -2.4507    0.0755 C   0  0  0  0  0  0  0  0  0  0  0  0
    5.4325   -1.9755    1.2884 C   0  0  0  0  0  0  0  0  0  0  0  0
   -0.7939    0.9290   -1.7802 H   0  0  0  0  0  0  0  0  0  0  0  0
   -1.6654   -1.0324   -0.5948 H   0  0  0  0  0  0  0  0  0  0  0  0
   -0.6474   -0.7165    0.8172 H   0  0  0  0  0  0  0  0  0  0  0  0
    0.9473   -0.5076   -2.3826 H   0  0  0  0  0  0  0  0  0  0  0  0
    1.1899   -1.0867   -0.7086 H   0  0  0  0  0  0  0  0  0  0  0  0
   -1.1949    3.1575   -0.2380 H   0  0  0  0  0  0  0  0  0  0  0  0
   -0.0809    3.2746    1.1364 H   0  0  0  0  0  0  0  0  0  0  0  0
   -1.0815    1.3174    2.2155 H   0  0  0  0  0  0  0  0  0  0  0  0
   -2.3905    2.4151    1.7522 H   0  0  0  0  0  0  0  0  0  0  0  0
   -2.6709   -0.7802    2.0587 H   0  0  0  0  0  0  0  0  0  0  0  0
   -3.7621    0.5851    2.0260 H   0  0  0  0  0  0  0  0  0  0  0  0
    3.9688    1.4129   -1.6412 H   0  0  0  0  0  0  0  0  0  0  0  0
    3.4118   -0.0219   -2.5079 H   0  0  0  0  0  0  0  0  0  0  0  0
    4.4222    1.2348    0.8912 H   0  0  0  0  0  0  0  0  0  0  0  0
   -6.7868   -0.9888   -1.3637 H   0  0  0  0  0  0  0  0  0  0  0  0
   -5.6960    1.4784    0.9546 H   0  0  0  0  0  0  0  0  0  0  0  0
   -4.7079    1.7242   -0.5308 H   0  0  0  0  0  0  0  0  0  0  0  0
   -6.4464    1.3406   -0.6584 H   0  0  0  0  0  0  0  0  0  0  0  0
   -5.4794   -3.3671   -0.8486 H   0  0  0  0  0  0  0  0  0  0  0  0
    5.5884   -0.2207    2.5231 H   0  0  0  0  0  0  0  0  0  0  0  0
    5.0916   -3.4914   -0.2022 H   0  0  0  0  0  0  0  0  0  0  0  0
    5.9423   -2.6301    1.9859 H   0  0  0  0  0  0  0  0  0  0  0  0
  1 13  2  0  0  0  0
  2  8  1  0  0  0  0
  2 11  1  0  0  0  0
  2 13  1  0  0  0  0
  3  9  1  0  0  0  0
  3 12  1  0  0  0  0
  3 14  1  0  0  0  0
  4 10  1  0  0  0  0
  4 13  1  0  0  0  0
  4 15  1  0  0  0  0
  5 16  1  0  0  0  0
  5 19  1  0  0  0  0
  5 20  1  0  0  0  0
  6 16  2  0  0  0  0
  6 21  1  0  0  0  0
  7 17  1  0  0  0  0
  7 23  2  0  0  0  0
  8  9  1  0  0  0  0
  8 10  1  0  0  0  0
  8 25  1  0  0  0  0
  9 26  1  0  0  0  0
  9 27  1  0  0  0  0
 10 28  1  0  0  0  0
 10 29  1  0  0  0  0
 11 12  1  0  0  0  0
 11 30  1  0  0  0  0
 11 31  1  0  0  0  0
 12 32  1  0  0  0  0
 12 33  1  0  0  0  0
 14 16  1  0  0  0  0
 14 34  1  0  0  0  0
 14 35  1  0  0  0  0
 15 17  1  0  0  0  0
 15 36  1  0  0  0  0
 15 37  1  0  0  0  0
 17 18  2  0  0  0  0
 18 22  1  0  0  0  0
 18 38  1  0  0  0  0
 19 21  2  0  0  0  0
 19 39  1  0  0  0  0
 20 40  1  0  0  0  0
 20 41  1  0  0  0  0
 20 42  1  0  0  0  0
 21 43  1  0  0  0  0
 22 24  2  0  0  0  0
 22 44  1  0  0  0  0
 23 24  1  0  0  0  0
 23 45  1  0  0  0  0
 24 46  1  0  0  0  0
M  END
> <PUBCHEM_COMPOUND_CID>
75537075

> <PUBCHEM_CONFORMER_RMSD>
0.8

> <PUBCHEM_CONFORMER_DIVERSEORDER>
1
79
175
128
166
189
186
110
116
195
105
67
154
157
49
163
82
158
145
24
77
35
93
197
87
169
15
156
160
167
194
134
206
23
76
84
120
144
141
125
182
100
202
55
103
140
143
147
127
94
151
26
8
164
196
183
112
173
40
69
80
122
199
66
118
89
176
159
192
177
75
135
172
201
126
131
46
33
181
54
58
204
16
179
37
109
146
171
25
188
130
38
102
22
121
193
34
136
170
19
104
185
17
28
142
41
152
10
191
51
101
13
96
86
83
43
65
61
155
180
133
27
73
21
174
178
162
92
124
150
3
98
48
117
184
138
149
42
129
59
207
119
45
47
88
70
95
153
203
30
2
190
148
198
114
14
161
50
111
205
63
115
81
44
85
168
200
187
64
99
6
71
108
91
68
97
53
32
29
62
20
52
18
90
165
123
132
137
139
39
78
113
60
107
74
7
72
56
5
57
106
12
36
31
11
4
9

> <PUBCHEM_MMFF94_PARTIAL_CHARGES>
30
1 -0.57
10 0.3
11 0.3
12 0.27
13 0.69
14 0.45
15 0.44
16 0.01
17 0.17
18 -0.15
19 -0.3
2 -0.66
20 0.26
21 0.08
22 -0.15
23 0.16
24 -0.15
3 -0.81
38 0.15
39 0.15
4 -0.66
43 0.15
44 0.15
45 0.15
46 0.15
5 0.05
6 -0.57
7 -0.62
8 0.3
9 0.27

> <PUBCHEM_EFFECTIVE_ROTOR_COUNT>
5.2

> <PUBCHEM_PHARMACOPHORE_FEATURES>
8
1 1 acceptor
1 3 cation
1 7 acceptor
3 5 6 16 cation
5 2 4 8 10 13 rings
5 5 6 16 19 21 rings
6 2 3 8 9 11 12 rings
6 7 17 18 22 23 24 rings

> <PUBCHEM_HEAVY_ATOM_COUNT>
24

> <PUBCHEM_ATOM_DEF_STEREO_COUNT>
1

> <PUBCHEM_ATOM_UDEF_STEREO_COUNT>
0

> <PUBCHEM_BOND_DEF_STEREO_COUNT>
0

> <PUBCHEM_BOND_UDEF_STEREO_COUNT>
0

> <PUBCHEM_ISOTOPIC_ATOM_COUNT>
0

> <PUBCHEM_COMPONENT_COUNT>
1

> <PUBCHEM_CACTVS_TAUTO_COUNT>
1

> <PUBCHEM_CONFORMER_ID>
04809AB300000001

> <PUBCHEM_MMFF94_ENERGY>
47.4139

> <PUBCHEM_FEATURE_SELFOVERLAP>
40.695

> <PUBCHEM_SHAPE_FINGERPRINT>
10447042 23 18334295387955782110
11796584 16 17458346368048635986
12422481 6 17418096490161371957
12596602 18 17846498115229341338
12839892 36 17918278631920442111
12892183 10 17703506580950291040
12895836 83 8646473133985059370
13533116 47 18408603682290531616
13782708 43 17895762923755714107
13885169 86 12534759700644223642
13911852 28 18264203626272356090
13914758 101 18334851694095858943
14251740 57 18130514042006048366
14251751 18 18408598167304506087
14347332 77 18340486789951931263
1454969 45 18335989748839446004
14848178 5 18335420170791644290
15163728 17 10375578339919628736
15183329 4 16081083766690710619
15188451 53 18338508660615840050
15210252 30 9511452326145449854
15342168 16 10015588289492774113
15420108 30 17616818734601172249
15475509 8 14996558439567871223
17349148 13 18272944842306895437
17857418 61 18408324393009160195
18222031 100 18342186552817257124
19377110 9 13326848968199305053
1979834 28 17632587041018121398
20028762 73 18343301461814073566
20567600 234 16056871472469289338
20621476 91 15841263857229580575
22061861 79 16587744243729267139
22079108 93 14333403450013313492
23559900 14 18335423529419250369
23572383 38 18273217473994085863
3004659 81 18187089459751518710
312425 54 17559968622929977906
339767 52 18343297063803855183
3472631 163 9367050178197457394
38570 142 11383831610760114136
3886686 26 17263851278453409890
392239 28 15697994154471448723
4325135 7 13542459865242486049
439807 62 18190463947449120619
463206 1 18187086173822274443
5085150 59 17989484113838781023
5104073 3 18130518538846772369
543368 44 9367053450772794899
559249 180 18409165485835967771
56616090 163 9151170978378207272
59682541 52 15647042755364554619
633830 44 8430309105025187576
6913067 236 17203607051976231349
76465 3 18409451388085203548
7808743 9 9007049150013503049
8988823 20 18337387240417896356
960060 61 16660371380906755694

> <PUBCHEM_SHAPE_MULTIPOLES>
458.15
14.92
2.73
1.35
4.52
0.2
-0.1
-10.98
-1.7
-0.21
-0.24
-1.02
-0.02
-1.29

> <PUBCHEM_SHAPE_SELFOVERLAP>
982.174

> <PUBCHEM_SHAPE_VOLUME>
253.5

> <PUBCHEM_COORDINATE_TYPE>
2
5
10

$$$$
