11883400
  -OEChem-12032416133D

 55 58  0     1  0  0  0  0  0999 V2000
   -9.5891    3.0241    0.2445 F   0  0  0  0  0  0  0  0  0  0  0  0
   -7.6201    3.8600    0.6032 F   0  0  0  0  0  0  0  0  0  0  0  0
   -8.2262    3.3417   -1.4199 F   0  0  0  0  0  0  0  0  0  0  0  0
    9.9021    2.4903   -0.4973 F   0  0  0  0  0  0  0  0  0  0  0  0
    9.7827    0.3567   -0.8685 F   0  0  0  0  0  0  0  0  0  0  0  0
    8.7765    1.7476   -2.2033 F   0  0  0  0  0  0  0  0  0  0  0  0
    0.5481   -1.5092   -1.3385 O   0  0  0  0  0  0  0  0  0  0  0  0
   -0.1704   -3.7659    0.6096 O   0  0  0  0  0  0  0  0  0  0  0  0
    2.8258   -1.8428    0.2131 O   0  0  0  0  0  0  0  0  0  0  0  0
   -4.3126   -2.5673    0.0178 O   0  0  0  0  0  0  0  0  0  0  0  0
    3.0461   -0.1827    1.7705 O   0  0  0  0  0  0  0  0  0  0  0  0
   -2.5325   -1.3532   -0.8204 N   0  0  0  0  0  0  0  0  0  0  0  0
   -4.5360   -0.2831   -0.4753 N   0  0  0  0  0  0  0  0  0  0  0  0
    4.6916   -0.5770    0.1528 N   0  0  0  0  0  0  0  0  0  0  0  0
   -0.7409   -2.4553    0.4127 C   0  0  1  0  0  0  0  0  0  0  0  0
    0.4076   -1.5200    0.0920 C   0  0  1  0  0  0  0  0  0  0  0  0
   -1.5828   -2.4389   -0.8418 C   0  0  2  0  0  0  0  0  0  0  0  0
    1.5776   -2.1974    0.7641 C   0  0  1  0  0  0  0  0  0  0  0  0
   -0.5393   -2.2391   -1.9274 C   0  0  0  0  0  0  0  0  0  0  0  0
    1.2600   -3.6614    0.5584 C   0  0  0  0  0  0  0  0  0  0  0  0
   -3.8548   -1.5000   -0.3831 C   0  0  0  0  0  0  0  0  0  0  0  0
    3.4948   -0.7932    0.8081 C   0  0  0  0  0  0  0  0  0  0  0  0
   -5.8817   -0.0136   -0.1333 C   0  0  0  0  0  0  0  0  0  0  0  0
    5.6762    0.3965    0.4374 C   0  0  0  0  0  0  0  0  0  0  0  0
   -6.3989    1.2719   -0.2932 C   0  0  0  0  0  0  0  0  0  0  0  0
   -6.6918   -1.0343    0.3644 C   0  0  0  0  0  0  0  0  0  0  0  0
    6.8330    0.4673   -0.3388 C   0  0  0  0  0  0  0  0  0  0  0  0
    5.4905    1.2866    1.4950 C   0  0  0  0  0  0  0  0  0  0  0  0
   -7.7260    1.5366    0.0447 C   0  0  0  0  0  0  0  0  0  0  0  0
   -8.0190   -0.7696    0.7021 C   0  0  0  0  0  0  0  0  0  0  0  0
    7.8040    1.4281   -0.0571 C   0  0  0  0  0  0  0  0  0  0  0  0
   -8.5360    0.5159    0.5423 C   0  0  0  0  0  0  0  0  0  0  0  0
    6.4615    2.2476    1.7767 C   0  0  0  0  0  0  0  0  0  0  0  0
    7.6182    2.3183    1.0005 C   0  0  0  0  0  0  0  0  0  0  0  0
   -8.2790    2.9109   -0.1257 C   0  0  0  0  0  0  0  0  0  0  0  0
    9.0409    1.5037   -0.8866 C   0  0  0  0  0  0  0  0  0  0  0  0
   -1.2772   -2.1856    1.3281 H   0  0  0  0  0  0  0  0  0  0  0  0
    0.2495   -0.4880    0.4182 H   0  0  0  0  0  0  0  0  0  0  0  0
   -2.1251   -3.3772   -1.0002 H   0  0  0  0  0  0  0  0  0  0  0  0
    1.5387   -2.0049    1.8452 H   0  0  0  0  0  0  0  0  0  0  0  0
   -0.9094   -1.6957   -2.8023 H   0  0  0  0  0  0  0  0  0  0  0  0
   -0.1367   -3.2008   -2.2643 H   0  0  0  0  0  0  0  0  0  0  0  0
    1.7025   -4.2961    1.3321 H   0  0  0  0  0  0  0  0  0  0  0  0
    1.6073   -4.0301   -0.4133 H   0  0  0  0  0  0  0  0  0  0  0  0
   -2.2100   -0.4239   -1.0733 H   0  0  0  0  0  0  0  0  0  0  0  0
   -4.0081    0.5096   -0.8318 H   0  0  0  0  0  0  0  0  0  0  0  0
    4.8922   -1.1924   -0.6317 H   0  0  0  0  0  0  0  0  0  0  0  0
   -5.7702    2.0705   -0.6808 H   0  0  0  0  0  0  0  0  0  0  0  0
   -6.3648   -2.0531    0.5164 H   0  0  0  0  0  0  0  0  0  0  0  0
    6.9813   -0.2252   -1.1644 H   0  0  0  0  0  0  0  0  0  0  0  0
    4.6219    1.2924    2.1387 H   0  0  0  0  0  0  0  0  0  0  0  0
   -8.6507   -1.5637    1.0898 H   0  0  0  0  0  0  0  0  0  0  0  0
   -9.5721    0.7025    0.8111 H   0  0  0  0  0  0  0  0  0  0  0  0
    6.3178    2.9412    2.6001 H   0  0  0  0  0  0  0  0  0  0  0  0
    8.3631    3.0737    1.2355 H   0  0  0  0  0  0  0  0  0  0  0  0
  1 35  1  0  0  0  0
  2 35  1  0  0  0  0
  3 35  1  0  0  0  0
  4 36  1  0  0  0  0
  5 36  1  0  0  0  0
  6 36  1  0  0  0  0
  7 16  1  0  0  0  0
  7 19  1  0  0  0  0
  8 15  1  0  0  0  0
  8 20  1  0  0  0  0
  9 18  1  0  0  0  0
  9 22  1  0  0  0  0
 10 21  2  0  0  0  0
 11 22  2  0  0  0  0
 12 17  1  0  0  0  0
 12 21  1  0  0  0  0
 12 45  1  0  0  0  0
 13 21  1  0  0  0  0
 13 23  1  0  0  0  0
 13 46  1  0  0  0  0
 14 22  1  0  0  0  0
 14 24  1  0  0  0  0
 14 47  1  0  0  0  0
 15 16  1  0  0  0  0
 15 17  1  0  0  0  0
 15 37  1  0  0  0  0
 16 18  1  0  0  0  0
 16 38  1  0  0  0  0
 17 19  1  0  0  0  0
 17 39  1  0  0  0  0
 18 20  1  0  0  0  0
 18 40  1  0  0  0  0
 19 41  1  0  0  0  0
 19 42  1  0  0  0  0
 20 43  1  0  0  0  0
 20 44  1  0  0  0  0
 23 25  1  0  0  0  0
 23 26  2  0  0  0  0
 24 27  1  0  0  0  0
 24 28  2  0  0  0  0
 25 29  2  0  0  0  0
 25 48  1  0  0  0  0
 26 30  1  0  0  0  0
 26 49  1  0  0  0  0
 27 31  2  0  0  0  0
 27 50  1  0  0  0  0
 28 33  1  0  0  0  0
 28 51  1  0  0  0  0
 29 32  1  0  0  0  0
 29 35  1  0  0  0  0
 30 32  2  0  0  0  0
 30 52  1  0  0  0  0
 31 34  1  0  0  0  0
 31 36  1  0  0  0  0
 32 53  1  0  0  0  0
 33 34  2  0  0  0  0
 33 54  1  0  0  0  0
 34 55  1  0  0  0  0
M  END
> <PUBCHEM_COMPOUND_CID>
11883400

> <PUBCHEM_CONFORMER_RMSD>
1.4

> <PUBCHEM_CONFORMER_DIVERSEORDER>
1
80
105
76
146
60
112
8
82
124
26
110
126
42
132
116
160
144
113
39
142
40
152
57
96
97
104
128
127
120
25
74
70
83
103
140
62
163
77
119
122
111
143
129
166
100
109
84
114
23
158
98
171
108
172
68
173
151
71
21
65
154
99
53
51
149
134
9
93
115
145
61
36
121
88
46
67
35
92
44
73
43
85
167
161
159
90
31
55
125
155
86
69
107
136
79
141
29
168
131
4
157
18
28
49
89
156
2
147
123
135
34
95
50
101
153
81
133
48
20
75
94
19
63
117
37
106
165
6
150
139
38
118
52
164
102
27
56
169
91
78
41
87
54
10
33
13
24
32
162
66
138
59
5
14
170
47
12
58
30
130
72
45
137
148
3
7
16
15
17
22
11
64

> <PUBCHEM_MMFF94_PARTIAL_CHARGES>
47
1 -0.34
10 -0.57
11 -0.57
12 -0.73
13 -0.55
14 -0.55
15 0.28
16 0.28
17 0.3
18 0.28
19 0.28
2 -0.34
20 0.28
21 0.69
22 0.78
23 0.12
24 0.12
25 -0.15
26 -0.15
27 -0.15
28 -0.15
29 -0.14
3 -0.34
30 -0.15
31 -0.14
32 -0.15
33 -0.15
34 -0.15
35 1.16
36 1.16
4 -0.34
45 0.37
46 0.37
47 0.37
48 0.15
49 0.15
5 -0.34
50 0.15
51 0.15
52 0.15
53 0.15
54 0.15
55 0.15
6 -0.34
7 -0.56
8 -0.56
9 -0.43

> <PUBCHEM_EFFECTIVE_ROTOR_COUNT>
11.2

> <PUBCHEM_PHARMACOPHORE_FEATURES>
11
1 10 acceptor
1 11 acceptor
1 12 donor
1 13 donor
1 14 donor
1 7 acceptor
1 8 acceptor
5 7 15 16 17 19 rings
5 8 15 16 18 20 rings
6 23 25 26 29 30 32 rings
6 24 27 28 31 33 34 rings

> <PUBCHEM_HEAVY_ATOM_COUNT>
36

> <PUBCHEM_ATOM_DEF_STEREO_COUNT>
4

> <PUBCHEM_ATOM_UDEF_STEREO_COUNT>
0

> <PUBCHEM_BOND_DEF_STEREO_COUNT>
0

> <PUBCHEM_BOND_UDEF_STEREO_COUNT>
0

> <PUBCHEM_ISOTOPIC_ATOM_COUNT>
0

> <PUBCHEM_COMPONENT_COUNT>
1

> <PUBCHEM_CACTVS_TAUTO_COUNT>
6

> <PUBCHEM_CONFORMER_ID>
00B5538800000001

> <PUBCHEM_MMFF94_ENERGY>
89.9023

> <PUBCHEM_FEATURE_SELFOVERLAP>
56.59

> <PUBCHEM_SHAPE_FINGERPRINT>
10 15 18187080663769558579
10190206 1 17704080568516191161
10280341 67 18129924754563919784
10625338 131 18339914944234705552
10883706 17 10231745712999043653
11061554 47 18202277048257837096
11409948 41 15482126981704932108
11621639 179 18201999920140905100
11828042 206 18340772655150590444
11973864 220 18341622524733450296
1200032 147 18260261963149643178
12098696 120 18060418040771955336
12120059 9 12319444490418372086
12133447 93 18412832399721662172
12202916 173 9655580725150174892
12522641 68 18273213118913656951
12539765 74 18343865498272895174
12838863 1 9511460021956320988
13974486 7 9222936046526125185
14040221 97 18334573504384709789
14201967 126 18335983142278859964
14359421 15 11600003237528540637
14664723 55 18201725075950537328
14747281 78 18410863132053764950
14919807 6 18272378568618512796
14931854 50 17561362885225129217
15347590 135 15719382932760180632
15350500 55 18410006612120323137
15706992 2 18335711571406179387
1577012 14 18341603845708948842
16992610 120 18334585672454034942
16994733 274 18334288769400707979
17686467 74 18335416916498878003
18738133 361 18408889542076905164
20105231 36 11239705428333203477
2026 5 9583524222155214021
20505436 4 18412538829811869990
20609170 45 18198632030680154710
20721686 146 18341613690079265133
21095123 293 18334015025275919980
212700 22 9079116648383977613
21360443 89 9799698078664313156
21585482 111 18410008806564294541
23528940 14 10303551477053815924
24203241 11 11675180192839887392
24771293 8 18261109690666740111
25242607 90 8718825379489844422
2851757 41 8718830920040555752
3711267 37 18335993042315146460
3918712 181 18342168951825442345
3986486 107 17989205975871745500
406291 66 9223227464319594129
4169191 19 18340481185103837001
4403749 210 18335135385571827171
44575985 210 12821922357218133900
44802255 64 17703791449083951151
44880568 143 18054786454564150320
474113 269 14189311335641410844
5718773 13 8862941693200786915
5758199 1 18333446568852795131
5937810 71 17988933241275062113
59682541 35 13479126917656715754
6201320 82 17986966163639702265
6289498 60 18261665966341697433
6673363 416 18272931661970103313
6698420 124 18261388997096721762
9689198 14 18342176682618764475
9962374 69 7997680979168004450
9980921 7 18187356620530666669

> <PUBCHEM_SHAPE_MULTIPOLES>
652.93
36.85
4.38
1.35
7.72
0.42
-0.24
46.5
-3.82
-5.34
0.11
2.15
0.2
0.25

> <PUBCHEM_SHAPE_SELFOVERLAP>
1418.119

> <PUBCHEM_SHAPE_VOLUME>
356.7

> <PUBCHEM_COORDINATE_TYPE>
2
5
10

$$$$
