7142869
  -OEChem-12032416213D

 53 57  0     1  0  0  0  0  0999 V2000
    3.4711   -1.5747   -0.5881 S   0  0  0  0  0  0  0  0  0  0  0  0
    3.5545   -1.8856   -1.9995 O   0  0  0  0  0  0  0  0  0  0  0  0
    2.9030   -2.5196    0.3501 O   0  0  0  0  0  0  0  0  0  0  0  0
   -1.9093    0.8933   -2.0361 O   0  0  0  0  0  0  0  0  0  0  0  0
   -4.5628    0.5707    1.9167 O   0  0  0  0  0  0  0  0  0  0  0  0
    2.6962   -0.0614   -0.3928 N   0  0  2  0  0  0  0  0  0  0  0  0
   -0.1578    1.2900   -0.5411 N   0  0  0  0  0  0  0  0  0  0  0  0
   -3.5731   -0.0613   -0.0680 N   0  0  0  0  0  0  0  0  0  0  0  0
   -5.9144   -0.9444   -0.9587 N   0  0  0  0  0  0  0  0  0  0  0  0
   -8.2583   -0.8241    0.5769 N   0  0  0  0  0  0  0  0  0  0  0  0
    2.1189    2.1994   -1.2813 C   0  0  1  0  0  0  0  0  0  0  0  0
    1.7238    1.6842    1.0876 C   0  0  2  0  0  0  0  0  0  0  0  0
    2.1879    2.7755    0.1269 C   0  0  0  0  0  0  0  0  0  0  0  0
    3.0387    0.9741   -1.4093 C   0  0  0  0  0  0  0  0  0  0  0  0
    2.6789    0.4799    0.9992 C   0  0  0  0  0  0  0  0  0  0  0  0
    0.6581    1.8722   -1.6150 C   0  0  0  0  0  0  0  0  0  0  0  0
    0.3014    1.2547    0.7794 C   0  0  0  0  0  0  0  0  0  0  0  0
   -0.5046    0.8227    1.7638 C   0  0  0  0  0  0  0  0  0  0  0  0
   -1.4559    0.8662   -0.8909 C   0  0  0  0  0  0  0  0  0  0  0  0
   -2.3142    0.3698    0.2312 C   0  0  0  0  0  0  0  0  0  0  0  0
   -1.8377    0.3705    1.4806 C   0  0  0  0  0  0  0  0  0  0  0  0
    5.0952   -1.1651   -0.0296 C   0  0  0  0  0  0  0  0  0  0  0  0
    5.4082   -1.3123    1.3118 C   0  0  0  0  0  0  0  0  0  0  0  0
    6.0291   -0.7025   -0.9420 C   0  0  0  0  0  0  0  0  0  0  0  0
    6.6911   -0.9881    1.7529 C   0  0  0  0  0  0  0  0  0  0  0  0
    7.3121   -0.3782   -0.5006 C   0  0  0  0  0  0  0  0  0  0  0  0
   -4.6600    0.0590    0.7997 C   0  0  0  0  0  0  0  0  0  0  0  0
    7.6431   -0.5210    0.8467 C   0  0  0  0  0  0  0  0  0  0  0  0
   -5.9433   -0.4383    0.2804 C   0  0  0  0  0  0  0  0  0  0  0  0
   -7.0767   -0.3722    1.0419 C   0  0  0  0  0  0  0  0  0  0  0  0
   -7.0960   -1.3964   -1.4235 C   0  0  0  0  0  0  0  0  0  0  0  0
   -8.2472   -1.3372   -0.6694 C   0  0  0  0  0  0  0  0  0  0  0  0
    2.4721    2.9502   -1.9993 H   0  0  0  0  0  0  0  0  0  0  0  0
    1.7725    2.0876    2.1076 H   0  0  0  0  0  0  0  0  0  0  0  0
    1.5527    3.6662    0.2121 H   0  0  0  0  0  0  0  0  0  0  0  0
    3.2121    3.0878    0.3645 H   0  0  0  0  0  0  0  0  0  0  0  0
    2.9365    0.5582   -2.4171 H   0  0  0  0  0  0  0  0  0  0  0  0
    4.0763    1.2975   -1.2750 H   0  0  0  0  0  0  0  0  0  0  0  0
    3.6805    0.8133    1.2896 H   0  0  0  0  0  0  0  0  0  0  0  0
    2.3541   -0.2986    1.6985 H   0  0  0  0  0  0  0  0  0  0  0  0
    0.1480    2.8025   -1.9007 H   0  0  0  0  0  0  0  0  0  0  0  0
    0.6003    1.2164   -2.4928 H   0  0  0  0  0  0  0  0  0  0  0  0
   -0.1676    0.7759    2.7942 H   0  0  0  0  0  0  0  0  0  0  0  0
   -2.3781   -0.0201    2.3348 H   0  0  0  0  0  0  0  0  0  0  0  0
   -3.7647   -0.2842   -1.0418 H   0  0  0  0  0  0  0  0  0  0  0  0
    4.6822   -1.6724    2.0342 H   0  0  0  0  0  0  0  0  0  0  0  0
    5.7913   -0.5812   -1.9943 H   0  0  0  0  0  0  0  0  0  0  0  0
    6.9487   -1.0984    2.8022 H   0  0  0  0  0  0  0  0  0  0  0  0
    8.0530   -0.0136   -1.2060 H   0  0  0  0  0  0  0  0  0  0  0  0
    8.6419   -0.2681    1.1904 H   0  0  0  0  0  0  0  0  0  0  0  0
   -7.1003    0.0370    2.0444 H   0  0  0  0  0  0  0  0  0  0  0  0
   -7.0879   -1.8088   -2.4248 H   0  0  0  0  0  0  0  0  0  0  0  0
   -9.1962   -1.7005   -1.0437 H   0  0  0  0  0  0  0  0  0  0  0  0
  1  2  2  0  0  0  0
  1  3  2  0  0  0  0
  1  6  1  0  0  0  0
  1 22  1  0  0  0  0
  4 19  2  0  0  0  0
  5 27  2  0  0  0  0
  6 14  1  0  0  0  0
  6 15  1  0  0  0  0
  7 16  1  0  0  0  0
  7 17  1  0  0  0  0
  7 19  1  0  0  0  0
  8 20  1  0  0  0  0
  8 27  1  0  0  0  0
  8 45  1  0  0  0  0
  9 29  2  0  0  0  0
  9 31  1  0  0  0  0
 10 30  2  0  0  0  0
 10 32  1  0  0  0  0
 11 13  1  0  0  0  0
 11 14  1  0  0  0  0
 11 16  1  0  0  0  0
 11 33  1  0  0  0  0
 12 13  1  0  0  0  0
 12 15  1  0  0  0  0
 12 17  1  0  0  0  0
 12 34  1  0  0  0  0
 13 35  1  0  0  0  0
 13 36  1  0  0  0  0
 14 37  1  0  0  0  0
 14 38  1  0  0  0  0
 15 39  1  0  0  0  0
 15 40  1  0  0  0  0
 16 41  1  0  0  0  0
 16 42  1  0  0  0  0
 17 18  2  0  0  0  0
 18 21  1  0  0  0  0
 18 43  1  0  0  0  0
 19 20  1  0  0  0  0
 20 21  2  0  0  0  0
 21 44  1  0  0  0  0
 22 23  2  0  0  0  0
 22 24  1  0  0  0  0
 23 25  1  0  0  0  0
 23 46  1  0  0  0  0
 24 26  2  0  0  0  0
 24 47  1  0  0  0  0
 25 28  2  0  0  0  0
 25 48  1  0  0  0  0
 26 28  1  0  0  0  0
 26 49  1  0  0  0  0
 27 29  1  0  0  0  0
 28 50  1  0  0  0  0
 29 30  1  0  0  0  0
 30 51  1  0  0  0  0
 31 32  2  0  0  0  0
 31 52  1  0  0  0  0
 32 53  1  0  0  0  0
M  END
> <PUBCHEM_COMPOUND_CID>
7142869

> <PUBCHEM_CONFORMER_RMSD>
0.8

> <PUBCHEM_CONFORMER_DIVERSEORDER>
1
39
12
17
30
36
31
28
21
23
7
38
24
18
33
15
3
37
29
35
9
34
40
32
11
25
26
10
19
6
5
14
16
13
27
4
2
22
20
8

> <PUBCHEM_MMFF94_PARTIAL_CHARGES>
41
1 1.45
10 -0.62
12 0.14
14 0.36
15 0.36
16 0.3
17 -0.03
18 -0.15
19 0.62
2 -0.65
20 0.12
21 -0.15
22 -0.01
23 -0.15
24 -0.15
25 -0.15
26 -0.15
27 0.54
28 -0.15
29 0.4
3 -0.65
30 0.16
31 0.16
32 0.16
4 -0.57
43 0.15
44 0.15
45 0.37
46 0.15
47 0.15
48 0.15
49 0.15
5 -0.57
50 0.15
51 0.15
52 0.15
53 0.15
6 -0.85
7 -0.47
8 -0.54
9 -0.62

> <PUBCHEM_EFFECTIVE_ROTOR_COUNT>
6

> <PUBCHEM_PHARMACOPHORE_FEATURES>
12
1 10 acceptor
1 2 acceptor
1 3 acceptor
1 4 acceptor
1 5 acceptor
1 8 donor
1 9 acceptor
6 22 23 24 25 26 28 rings
6 6 11 12 13 14 15 rings
6 7 11 12 13 16 17 rings
6 7 17 18 19 20 21 rings
6 9 10 29 30 31 32 rings

> <PUBCHEM_HEAVY_ATOM_COUNT>
32

> <PUBCHEM_ATOM_DEF_STEREO_COUNT>
2

> <PUBCHEM_ATOM_UDEF_STEREO_COUNT>
0

> <PUBCHEM_BOND_DEF_STEREO_COUNT>
0

> <PUBCHEM_BOND_UDEF_STEREO_COUNT>
0

> <PUBCHEM_ISOTOPIC_ATOM_COUNT>
0

> <PUBCHEM_COMPONENT_COUNT>
1

> <PUBCHEM_CACTVS_TAUTO_COUNT>
2

> <PUBCHEM_CONFORMER_ID>
006CFDD500000001

> <PUBCHEM_MMFF94_ENERGY>
83.2228

> <PUBCHEM_FEATURE_SELFOVERLAP>
62.506

> <PUBCHEM_SHAPE_FINGERPRINT>
10 15 14836404740012814323
106641 1 16486970713224956394
10670039 82 15430027735096848143
11135609 99 18059854029761612943
11297750 10 17894618258799541980
11828532 37 15213602129348153785
12107698 1 17894631443910556228
12202916 173 17676486138327173130
12516196 113 18202847626141221296
12522641 33 17896043329465104732
12596602 18 16702025231810306370
13533116 47 18343024423833107865
13540713 4 16372716165205964769
13673619 4 18334290968071028701
13685833 64 18408041809883336561
13914758 101 13262395544686066374
14068700 675 18413108351117436944
14251764 18 16415477173173846105
14347332 77 18342178843841882785
15183329 4 17022900142987963721
15301273 46 15051740780492246432
15510800 12 18339093643577975219
15728490 51 17489864956102765006
1577012 14 11747206979852392659
15840311 113 15554443029483853976
15849732 13 17346597465115277229
15961568 22 7781524724257602679
17980427 23 14189277279701677672
18335252 114 12179840615251023682
18365409 1 17631726201103019974
20554085 129 11671783797221684632
20771845 140 17489588957509946726
21057603 130 18412821417115577254
21315764 119 14490476374096034594
21344244 78 17847059982745918416
21781051 124 15213308542843783249
21792934 111 15338849651206058617
21792961 116 14996285799755697585
22224240 67 13470684845387071380
23559900 14 16588032354456804573
23576562 1 14563106904683282259
2838139 119 9151169822863095786
3004659 81 18413107281759672635
3383291 50 17989207083942627695
394071 54 11312056565198511339
4066623 53 16660082209306525204
4112364 45 15554152779430060960
4149490 64 18267585891701128843
439807 62 17313104137636278255
57035037 87 14707218764375398670
59682541 35 14620789427632769143
59682541 52 17022624182764831894
6004065 56 18335703862229689336
6126387 218 18342172237949956209
9962374 69 18337385058679940207

> <PUBCHEM_SHAPE_MULTIPOLES>
614.01
22.5
2.12
1.81
24.99
0.55
0.06
-15.57
-1
-1.87
0.49
-0.13
0.11
-1.04

> <PUBCHEM_SHAPE_SELFOVERLAP>
1339.994

> <PUBCHEM_SHAPE_VOLUME>
331.4

> <PUBCHEM_COORDINATE_TYPE>
2
5
10

$$$$
