75536198
  -OEChem-12032416343D

 34 36  0     1  0  0  0  0  0999 V2000
    4.2547   -0.8074   -1.4452 O   0  0  0  0  0  0  0  0  0  0  0  0
    3.1308    0.7562    0.6740 N   0  0  1  0  0  0  0  0  0  0  0  0
   -0.2493    0.1757   -0.3548 N   0  0  0  0  0  0  0  0  0  0  0  0
    0.6608   -1.1363    1.1886 N   0  0  0  0  0  0  0  0  0  0  0  0
   -5.3537    0.4685   -0.5302 N   0  0  0  0  0  0  0  0  0  0  0  0
    2.2697    0.0960   -0.3398 C   0  0  1  0  0  0  0  0  0  0  0  0
    2.9788   -1.1504   -0.9053 C   0  0  0  0  0  0  0  0  0  0  0  0
    4.4664    1.0247    0.1116 C   0  0  0  0  0  0  0  0  0  0  0  0
    0.9040   -0.3127    0.1933 C   0  0  0  0  0  0  0  0  0  0  0  0
    5.0908   -0.2531   -0.4324 C   0  0  0  0  0  0  0  0  0  0  0  0
    2.5507    2.0148    1.1567 C   0  0  0  0  0  0  0  0  0  0  0  0
   -1.2945   -0.3713    0.3349 C   0  0  0  0  0  0  0  0  0  0  0  0
   -0.7079   -1.1771    1.2821 C   0  0  0  0  0  0  0  0  0  0  0  0
   -2.6740   -0.0862    0.0402 C   0  0  0  0  0  0  0  0  0  0  0  0
   -3.6522   -1.0438    0.2838 C   0  0  0  0  0  0  0  0  0  0  0  0
   -3.0341    1.1486   -0.4883 C   0  0  0  0  0  0  0  0  0  0  0  0
   -4.9657   -0.7201   -0.0159 C   0  0  0  0  0  0  0  0  0  0  0  0
   -4.3752    1.3743   -0.7534 C   0  0  0  0  0  0  0  0  0  0  0  0
    2.1274    0.7990   -1.1741 H   0  0  0  0  0  0  0  0  0  0  0  0
    3.1051   -1.9329   -0.1453 H   0  0  0  0  0  0  0  0  0  0  0  0
    2.3867   -1.5863   -1.7183 H   0  0  0  0  0  0  0  0  0  0  0  0
    5.1247    1.4364    0.8854 H   0  0  0  0  0  0  0  0  0  0  0  0
    4.3923    1.7625   -0.6984 H   0  0  0  0  0  0  0  0  0  0  0  0
    6.0610   -0.0294   -0.8872 H   0  0  0  0  0  0  0  0  0  0  0  0
    5.2583   -0.9943    0.3586 H   0  0  0  0  0  0  0  0  0  0  0  0
    1.6025    1.8406    1.6759 H   0  0  0  0  0  0  0  0  0  0  0  0
    2.3752    2.7281    0.3433 H   0  0  0  0  0  0  0  0  0  0  0  0
    3.2152    2.4865    1.8897 H   0  0  0  0  0  0  0  0  0  0  0  0
   -0.3090    0.8169   -1.1350 H   0  0  0  0  0  0  0  0  0  0  0  0
   -1.1926   -1.7856    2.0326 H   0  0  0  0  0  0  0  0  0  0  0  0
   -3.4195   -2.0228    0.6902 H   0  0  0  0  0  0  0  0  0  0  0  0
   -2.3128    1.9343   -0.6874 H   0  0  0  0  0  0  0  0  0  0  0  0
   -5.7661   -1.4326    0.1543 H   0  0  0  0  0  0  0  0  0  0  0  0
   -4.7087    2.3219   -1.1636 H   0  0  0  0  0  0  0  0  0  0  0  0
  1  7  1  0  0  0  0
  1 10  1  0  0  0  0
  2  6  1  0  0  0  0
  2  8  1  0  0  0  0
  2 11  1  0  0  0  0
  3  9  1  0  0  0  0
  3 12  1  0  0  0  0
  3 29  1  0  0  0  0
  4  9  2  0  0  0  0
  4 13  1  0  0  0  0
  5 17  2  0  0  0  0
  5 18  1  0  0  0  0
  6  7  1  0  0  0  0
  6  9  1  0  0  0  0
  6 19  1  0  0  0  0
  7 20  1  0  0  0  0
  7 21  1  0  0  0  0
  8 10  1  0  0  0  0
  8 22  1  0  0  0  0
  8 23  1  0  0  0  0
 10 24  1  0  0  0  0
 10 25  1  0  0  0  0
 11 26  1  0  0  0  0
 11 27  1  0  0  0  0
 11 28  1  0  0  0  0
 12 13  2  0  0  0  0
 12 14  1  0  0  0  0
 13 30  1  0  0  0  0
 14 15  2  0  0  0  0
 14 16  1  0  0  0  0
 15 17  1  0  0  0  0
 15 31  1  0  0  0  0
 16 18  2  0  0  0  0
 16 32  1  0  0  0  0
 17 33  1  0  0  0  0
 18 34  1  0  0  0  0
M  END
> <PUBCHEM_COMPOUND_CID>
75536198

> <PUBCHEM_CONFORMER_RMSD>
0.6

> <PUBCHEM_CONFORMER_DIVERSEORDER>
1
21
22
18
7
19
8
26
24
17
16
9
23
15
2
10
12
5
25
6
13
4
3
11
14
20

> <PUBCHEM_MMFF94_PARTIAL_CHARGES>
24
1 -0.56
10 0.28
11 0.27
12 -0.2
13 0.08
14 0.05
15 -0.15
16 -0.15
17 0.16
18 0.16
2 -0.81
29 0.27
3 0.03
30 0.15
31 0.15
32 0.15
33 0.15
34 0.15
4 -0.57
5 -0.62
6 0.45
7 0.28
8 0.27
9 0.01

> <PUBCHEM_EFFECTIVE_ROTOR_COUNT>
3.2

> <PUBCHEM_PHARMACOPHORE_FEATURES>
8
1 1 acceptor
1 2 cation
1 3 donor
1 5 acceptor
3 3 4 9 cation
5 3 4 9 12 13 rings
6 1 2 6 7 8 10 rings
6 5 14 15 16 17 18 rings

> <PUBCHEM_HEAVY_ATOM_COUNT>
18

> <PUBCHEM_ATOM_DEF_STEREO_COUNT>
1

> <PUBCHEM_ATOM_UDEF_STEREO_COUNT>
0

> <PUBCHEM_BOND_DEF_STEREO_COUNT>
0

> <PUBCHEM_BOND_UDEF_STEREO_COUNT>
0

> <PUBCHEM_ISOTOPIC_ATOM_COUNT>
0

> <PUBCHEM_COMPONENT_COUNT>
1

> <PUBCHEM_CACTVS_TAUTO_COUNT>
3

> <PUBCHEM_CONFORMER_ID>
0480974600000001

> <PUBCHEM_MMFF94_ENERGY>
35.6871

> <PUBCHEM_FEATURE_SELFOVERLAP>
40.597

> <PUBCHEM_SHAPE_FINGERPRINT>
10354089 29 14201402681358268094
10498660 4 18040709226024905997
10646746 165 18261107482599725793
10670039 82 17458909223781815396
11287383 113 18201439207090043343
11471102 20 18059859476275606712
11543360 7 17774712160566051263
12107183 9 12760195743282502221
12236239 1 15791730823727049634
12390115 104 18263649455675212429
12403259 415 18409167744260934345
12596602 18 14707216521532388637
12670546 56 13551181186962656607
12730499 353 18410863165352732298
12892183 10 11746932066852461383
12916748 109 18113059341600022801
13081056 2 18410853287128229489
13533116 47 15554455059597683134
13760787 19 14346081952926563290
13760787 5 16200433580690255555
14573314 32 18409732841613295884
15242439 84 18411139129885986279
15788980 27 16056883511383887145
15961568 22 17969221308028523148
17844677 252 18059863865421291289
1813 80 13758357790670786547
18186145 218 18412827979904441089
19026448 4 18343302591262942419
200 152 16917072144023508834
20281475 54 13398636030341131967
20369508 70 18342736291757406226
204376 136 14923946747540691361
20645477 56 18407477769630642703
20645477 70 17846506911269628766
212847 35 17895188879415846664
221357 26 18201434757831420537
22224240 67 10665238089798437092
22289505 5 18271803497772042020
23402539 116 18260544541230945071
23402655 69 18343864402786188821
23536379 177 17632862997261925707
23557571 272 18409733993123460319
23559900 14 18335423474064314118
2916195 48 18334571386649132808
29717793 49 16343712006210804852
3060560 45 17988926669769253630
3268164 11 18113608006914250263
351380 180 18410007758243757400
351380 3 14405185058121869447
3545911 37 18187364316420762311
4028521 119 18408038490221945221
474 4 16732704934935251883
495365 180 17917140719564760624
4990 188 18411702071344554942
5104073 3 17749949939365384657
5281201 14 18202005421197686036
542803 24 15936410039687623207
633830 44 18334849554342432357
69090 78 18343020029469894263
7164475 11 16056055536494984464
7471813 234 16272209682856700904
7495541 125 16629956758830934443

> <PUBCHEM_SHAPE_MULTIPOLES>
344.64
11.66
1.49
1.09
2.42
0.42
-0.08
1.47
3.05
-0.13
-0.24
-0.6
-0.09
1.42

> <PUBCHEM_SHAPE_SELFOVERLAP>
740.062

> <PUBCHEM_SHAPE_VOLUME>
188.4

> <PUBCHEM_COORDINATE_TYPE>
2
5
10

$$$$
