51137060
  -OEChem-12032416243D

 39 42  0     1  0  0  0  0  0999 V2000
   -6.1149    2.0077    0.5289 F   0  0  0  0  0  0  0  0  0  0  0  0
   -7.3128   -0.4502    0.5196 F   0  0  0  0  0  0  0  0  0  0  0  0
    3.5635   -1.2606    0.5071 O   0  0  0  0  0  0  0  0  0  0  0  0
   -1.0281   -0.3823   -0.1714 N   0  0  1  0  0  0  0  0  0  0  0  0
    3.0483    0.8533   -0.1279 N   0  0  0  0  0  0  0  0  0  0  0  0
    1.1805   -0.7479    0.5269 C   0  0  1  0  0  0  0  0  0  0  0  0
    0.4329    0.0724    1.5925 C   0  0  0  0  0  0  0  0  0  0  0  0
    0.3002   -0.6508   -0.7264 C   0  0  0  0  0  0  0  0  0  0  0  0
   -0.8036    0.6076    0.8820 C   0  0  0  0  0  0  0  0  0  0  0  0
   -1.9672    0.0854   -1.1803 C   0  0  0  0  0  0  0  0  0  0  0  0
    2.6077   -0.3168    0.2794 C   0  0  0  0  0  0  0  0  0  0  0  0
   -3.3955   -0.0580   -0.7260 C   0  0  0  0  0  0  0  0  0  0  0  0
    4.7292   -0.6142    0.2111 C   0  0  0  0  0  0  0  0  0  0  0  0
    4.4101    0.6788   -0.1770 C   0  0  0  0  0  0  0  0  0  0  0  0
   -4.1076    1.0634   -0.3003 C   0  0  0  0  0  0  0  0  0  0  0  0
   -4.0067   -1.3118   -0.7312 C   0  0  0  0  0  0  0  0  0  0  0  0
    6.0194   -1.1259    0.2750 C   0  0  0  0  0  0  0  0  0  0  0  0
    5.4454    1.5536   -0.5360 C   0  0  0  0  0  0  0  0  0  0  0  0
   -5.4310    0.9309    0.1202 C   0  0  0  0  0  0  0  0  0  0  0  0
   -5.3301   -1.4442   -0.3105 C   0  0  0  0  0  0  0  0  0  0  0  0
    7.0406   -0.2405   -0.0866 C   0  0  0  0  0  0  0  0  0  0  0  0
    6.7619    1.0730   -0.4842 C   0  0  0  0  0  0  0  0  0  0  0  0
   -6.0423   -0.3229    0.1151 C   0  0  0  0  0  0  0  0  0  0  0  0
    1.1940   -1.7943    0.8640 H   0  0  0  0  0  0  0  0  0  0  0  0
    0.1371   -0.5873    2.4179 H   0  0  0  0  0  0  0  0  0  0  0  0
    1.0329    0.8852    2.0153 H   0  0  0  0  0  0  0  0  0  0  0  0
    0.6313    0.1633   -1.3850 H   0  0  0  0  0  0  0  0  0  0  0  0
    0.3200   -1.5846   -1.2989 H   0  0  0  0  0  0  0  0  0  0  0  0
   -0.5899    1.6029    0.4713 H   0  0  0  0  0  0  0  0  0  0  0  0
   -1.6487    0.6876    1.5728 H   0  0  0  0  0  0  0  0  0  0  0  0
   -1.7565    1.1164   -1.4953 H   0  0  0  0  0  0  0  0  0  0  0  0
   -1.8641   -0.5189   -2.0928 H   0  0  0  0  0  0  0  0  0  0  0  0
   -3.6431    2.0457   -0.2899 H   0  0  0  0  0  0  0  0  0  0  0  0
   -3.4626   -2.1931   -1.0606 H   0  0  0  0  0  0  0  0  0  0  0  0
    6.2243   -2.1433    0.5839 H   0  0  0  0  0  0  0  0  0  0  0  0
    5.2411    2.5731   -0.8457 H   0  0  0  0  0  0  0  0  0  0  0  0
   -5.8063   -2.4202   -0.3141 H   0  0  0  0  0  0  0  0  0  0  0  0
    8.0732   -0.5800   -0.0580 H   0  0  0  0  0  0  0  0  0  0  0  0
    7.5811    1.7333   -0.7582 H   0  0  0  0  0  0  0  0  0  0  0  0
  1 19  1  0  0  0  0
  2 23  1  0  0  0  0
  3 11  1  0  0  0  0
  3 13  1  0  0  0  0
  4  8  1  0  0  0  0
  4  9  1  0  0  0  0
  4 10  1  0  0  0  0
  5 11  2  0  0  0  0
  5 14  1  0  0  0  0
  6  7  1  0  0  0  0
  6  8  1  0  0  0  0
  6 11  1  0  0  0  0
  6 24  1  0  0  0  0
  7  9  1  0  0  0  0
  7 25  1  0  0  0  0
  7 26  1  0  0  0  0
  8 27  1  0  0  0  0
  8 28  1  0  0  0  0
  9 29  1  0  0  0  0
  9 30  1  0  0  0  0
 10 12  1  0  0  0  0
 10 31  1  0  0  0  0
 10 32  1  0  0  0  0
 12 15  2  0  0  0  0
 12 16  1  0  0  0  0
 13 14  1  0  0  0  0
 13 17  2  0  0  0  0
 14 18  2  0  0  0  0
 15 19  1  0  0  0  0
 15 33  1  0  0  0  0
 16 20  2  0  0  0  0
 16 34  1  0  0  0  0
 17 21  1  0  0  0  0
 17 35  1  0  0  0  0
 18 22  1  0  0  0  0
 18 36  1  0  0  0  0
 19 23  2  0  0  0  0
 20 23  1  0  0  0  0
 20 37  1  0  0  0  0
 21 22  2  0  0  0  0
 21 38  1  0  0  0  0
 22 39  1  0  0  0  0
M  END
> <PUBCHEM_COMPOUND_CID>
51137060

> <PUBCHEM_CONFORMER_RMSD>
0.8

> <PUBCHEM_CONFORMER_DIVERSEORDER>
1
17
62
51
31
53
38
47
73
4
19
57
64
41
37
78
23
65
61
50
44
48
77
71
32
68
58
63
46
66
43
36
74
13
20
56
24
45
5
70
9
15
11
67
21
52
42
28
39
60
3
34
72
7
2
29
59
8
33
54
26
16
10
25
30
69
40
22
55
35
6
49
27
12
14
18
75
76

> <PUBCHEM_MMFF94_PARTIAL_CHARGES>
29
1 -0.19
10 0.41
11 0.3
12 -0.14
13 0.14
14 0.23
15 -0.15
16 -0.15
17 -0.15
18 -0.15
19 0.19
2 -0.19
20 -0.15
21 -0.15
22 -0.15
23 0.19
3 -0.28
33 0.15
34 0.15
35 0.15
36 0.15
37 0.15
38 0.15
39 0.15
4 -0.81
5 -0.57
6 0.18
8 0.27
9 0.27

> <PUBCHEM_EFFECTIVE_ROTOR_COUNT>
4

> <PUBCHEM_PHARMACOPHORE_FEATURES>
5
1 4 cation
5 3 5 11 13 14 rings
5 4 6 7 8 9 rings
6 12 15 16 19 20 23 rings
6 13 14 17 18 21 22 rings

> <PUBCHEM_HEAVY_ATOM_COUNT>
23

> <PUBCHEM_ATOM_DEF_STEREO_COUNT>
1

> <PUBCHEM_ATOM_UDEF_STEREO_COUNT>
0

> <PUBCHEM_BOND_DEF_STEREO_COUNT>
0

> <PUBCHEM_BOND_UDEF_STEREO_COUNT>
0

> <PUBCHEM_ISOTOPIC_ATOM_COUNT>
0

> <PUBCHEM_COMPONENT_COUNT>
1

> <PUBCHEM_CACTVS_TAUTO_COUNT>
1

> <PUBCHEM_CONFORMER_ID>
030C4A2400000001

> <PUBCHEM_MMFF94_ENERGY>
44.1304

> <PUBCHEM_FEATURE_SELFOVERLAP>
25.492

> <PUBCHEM_SHAPE_FINGERPRINT>
10299344 5 18412544327553715655
10595046 47 18408038498489860122
106641 1 12901554563587757212
11315181 36 18333732429966268429
11524674 6 16343702166609717607
11646440 116 16370729223076835268
11719270 70 17703790284926079142
12091667 2 17988921176495382887
12166972 35 18113620092994971300
12236239 1 18413107260342728278
12516196 113 8935003676336647207
12730499 353 17458062647547931938
12788726 201 17417814985035825490
12916748 109 16443060587231120980
13167372 99 18410012100804009124
13533116 47 16805875200950385746
14123256 10 16370442259131679379
1420 363 16660363675249993311
14251752 14 18060700580673773040
14251764 18 18410292523144058119
14251764 46 17894348882317460859
14849402 71 18114752653948028644
14856354 85 18273217530176359111
14933364 13 18410575089021499252
15048467 5 18411699872490097965
15183329 4 18411976953419683780
15419008 47 14707203340156296239
15537594 2 16630524033610747270
15716309 27 18333167271788019527
17093844 174 16845282852640713295
17834072 8 15697998543906536495
18006028 8 13254799040424819218
20157964 124 18259704515354645626
20281389 69 18343299275321564113
21150785 3 18410579500907525660
21792961 116 17632300038259757319
220451 1 18130784568504316894
22224240 67 16225766332709821193
23035841 295 18343581850094654563
23081809 10 18342447149578367574
23198884 109 18333732424990845347
23516275 137 18198644175550708330
23522609 53 18267889274652446769
23536379 177 18410854352248210514
23569943 247 16952237717331151050
2747138 104 16588033411203479637
29717793 49 18059861649898181014
3004659 81 18343301453740245710
314173 85 15052015675610630650
347723 3 17203890764562331194
34797466 226 18341901805091180932
3545911 37 17530963588304931802
397830 11 15286222716110379996
4073 2 18041002885866111514
4325135 7 18260547835824100519
4340502 62 16153705415021418586
4463277 17 18060416928201397408
5265222 85 18058448875465848430
5283156 175 17632300052099551726
5385378 56 16343438219573967591
542803 24 18411978066122214150
559249 180 9583519811408144549
5758199 1 17967534584038867618
59682541 35 15936416675491638985
59755656 215 15410902838290945404
59755656 520 17821726156372514530
9996256 80 18259981565792426508

> <PUBCHEM_SHAPE_MULTIPOLES>
442.95
20.58
1.41
0.97
0.12
0.22
-0.1
1.96
0.74
0.35
0.03
0.23
0.02
-1.03

> <PUBCHEM_SHAPE_SELFOVERLAP>
977.253

> <PUBCHEM_SHAPE_VOLUME>
241.6

> <PUBCHEM_COORDINATE_TYPE>
2
5
10

$$$$
