45783687
  -OEChem-12032416263D

 48 51  0     1  0  0  0  0  0999 V2000
   -1.4584   -1.6374    1.9900 O   0  0  0  0  0  0  0  0  0  0  0  0
    2.1733    3.3994   -0.9500 O   0  0  0  0  0  0  0  0  0  0  0  0
    1.8900    4.0100    1.2211 O   0  0  0  0  0  0  0  0  0  0  0  0
    5.4802   -1.2445   -1.0471 O   0  0  0  0  0  0  0  0  0  0  0  0
   -3.6375   -0.3709   -0.6843 N   0  0  1  0  0  0  0  0  0  0  0  0
   -0.8326   -1.2224   -0.1202 N   0  0  0  0  0  0  0  0  0  0  0  0
   -0.0585   -1.6832    1.9828 N   0  0  0  0  0  0  0  0  0  0  0  0
    3.9518   -1.5470    0.6725 N   0  0  0  0  0  0  0  0  0  0  0  0
   -3.3207   -1.2567    0.4538 C   0  0  1  0  0  0  0  0  0  0  0  0
   -3.9564   -2.6099    0.0851 C   0  0  0  0  0  0  0  0  0  0  0  0
   -4.6583   -2.3706   -1.2442 C   0  0  0  0  0  0  0  0  0  0  0  0
   -4.8839   -0.8723   -1.2638 C   0  0  0  0  0  0  0  0  0  0  0  0
   -3.7334    1.0340   -0.3095 C   0  0  0  0  0  0  0  0  0  0  0  0
   -1.8325   -1.3613    0.7133 C   0  0  0  0  0  0  0  0  0  0  0  0
   -2.3765    1.6726   -0.1763 C   0  0  0  0  0  0  0  0  0  0  0  0
   -1.9936    2.2499    1.0345 C   0  0  0  0  0  0  0  0  0  0  0  0
   -1.5023    1.6871   -1.2633 C   0  0  0  0  0  0  0  0  0  0  0  0
    0.2351   -1.4286    0.7042 C   0  0  0  0  0  0  0  0  0  0  0  0
   -0.7366    2.8416    1.1582 C   0  0  0  0  0  0  0  0  0  0  0  0
   -0.2454    2.2789   -1.1394 C   0  0  0  0  0  0  0  0  0  0  0  0
    0.1376    2.8560    0.0713 C   0  0  0  0  0  0  0  0  0  0  0  0
    1.5836   -1.3748    0.2180 C   0  0  0  0  0  0  0  0  0  0  0  0
    1.8521   -1.1087   -1.1200 C   0  0  0  0  0  0  0  0  0  0  0  0
    2.6590   -1.5849    1.0660 C   0  0  0  0  0  0  0  0  0  0  0  0
    1.4487    3.4722    0.2001 C   0  0  0  0  0  0  0  0  0  0  0  0
    3.1694   -1.0616   -1.5629 C   0  0  0  0  0  0  0  0  0  0  0  0
    4.1739   -1.2856   -0.6352 C   0  0  0  0  0  0  0  0  0  0  0  0
    6.4718   -1.4814   -0.0545 C   0  0  0  0  0  0  0  0  0  0  0  0
   -3.8084   -0.9001    1.3720 H   0  0  0  0  0  0  0  0  0  0  0  0
   -3.2349   -3.4299    0.0020 H   0  0  0  0  0  0  0  0  0  0  0  0
   -4.6964   -2.8887    0.8453 H   0  0  0  0  0  0  0  0  0  0  0  0
   -5.5906   -2.9367   -1.3276 H   0  0  0  0  0  0  0  0  0  0  0  0
   -4.0023   -2.6697   -2.0711 H   0  0  0  0  0  0  0  0  0  0  0  0
   -5.7536   -0.6104   -0.6479 H   0  0  0  0  0  0  0  0  0  0  0  0
   -5.0435   -0.5030   -2.2816 H   0  0  0  0  0  0  0  0  0  0  0  0
   -4.2563    1.5951   -1.0969 H   0  0  0  0  0  0  0  0  0  0  0  0
   -4.3351    1.1725    0.5983 H   0  0  0  0  0  0  0  0  0  0  0  0
   -2.6636    2.2440    1.8900 H   0  0  0  0  0  0  0  0  0  0  0  0
   -1.7884    1.2452   -2.2142 H   0  0  0  0  0  0  0  0  0  0  0  0
   -0.4567    3.2849    2.1102 H   0  0  0  0  0  0  0  0  0  0  0  0
    0.4038    2.2673   -2.0104 H   0  0  0  0  0  0  0  0  0  0  0  0
    1.0560   -0.9338   -1.8392 H   0  0  0  0  0  0  0  0  0  0  0  0
    2.5352   -1.7977    2.1237 H   0  0  0  0  0  0  0  0  0  0  0  0
    3.3958   -0.8548   -2.6031 H   0  0  0  0  0  0  0  0  0  0  0  0
    3.0558    3.8165   -0.8524 H   0  0  0  0  0  0  0  0  0  0  0  0
    6.4301   -0.7203    0.7319 H   0  0  0  0  0  0  0  0  0  0  0  0
    6.3714   -2.4864    0.3690 H   0  0  0  0  0  0  0  0  0  0  0  0
    7.4521   -1.4151   -0.5358 H   0  0  0  0  0  0  0  0  0  0  0  0
  1  7  1  0  0  0  0
  1 14  1  0  0  0  0
  2 25  1  0  0  0  0
  2 45  1  0  0  0  0
  3 25  2  0  0  0  0
  4 27  1  0  0  0  0
  4 28  1  0  0  0  0
  5  9  1  0  0  0  0
  5 12  1  0  0  0  0
  5 13  1  0  0  0  0
  6 14  2  0  0  0  0
  6 18  1  0  0  0  0
  7 18  2  0  0  0  0
  8 24  1  0  0  0  0
  8 27  2  0  0  0  0
  9 10  1  0  0  0  0
  9 14  1  0  0  0  0
  9 29  1  0  0  0  0
 10 11  1  0  0  0  0
 10 30  1  0  0  0  0
 10 31  1  0  0  0  0
 11 12  1  0  0  0  0
 11 32  1  0  0  0  0
 11 33  1  0  0  0  0
 12 34  1  0  0  0  0
 12 35  1  0  0  0  0
 13 15  1  0  0  0  0
 13 36  1  0  0  0  0
 13 37  1  0  0  0  0
 15 16  2  0  0  0  0
 15 17  1  0  0  0  0
 16 19  1  0  0  0  0
 16 38  1  0  0  0  0
 17 20  2  0  0  0  0
 17 39  1  0  0  0  0
 18 22  1  0  0  0  0
 19 21  2  0  0  0  0
 19 40  1  0  0  0  0
 20 21  1  0  0  0  0
 20 41  1  0  0  0  0
 21 25  1  0  0  0  0
 22 23  1  0  0  0  0
 22 24  2  0  0  0  0
 23 26  2  0  0  0  0
 23 42  1  0  0  0  0
 24 43  1  0  0  0  0
 26 27  1  0  0  0  0
 26 44  1  0  0  0  0
 28 46  1  0  0  0  0
 28 47  1  0  0  0  0
 28 48  1  0  0  0  0
M  END
> <PUBCHEM_COMPOUND_CID>
45783687

> <PUBCHEM_CONFORMER_RMSD>
0.8

> <PUBCHEM_CONFORMER_DIVERSEORDER>
1
55
9
51
56
86
18
28
69
81
60
61
24
35
85
83
75
48
17
29
71
65
23
8
62
52
30
73
7
67
72
66
53
87
44
58
82
34
76
88
2
68
38
80
5
6
47
54
40
63
33
45
64
19
57
31
77
26
11
39
70
74
27
49
42
3
36
37
13
16
79
41
12
50
14
46
22
78
43
59
15
21
4
10
84
32
20
25

> <PUBCHEM_MMFF94_PARTIAL_CHARGES>
34
1 -0.02
12 0.27
13 0.41
14 0.3
15 -0.14
16 -0.15
17 -0.15
18 0.46
19 -0.15
2 -0.65
20 -0.15
21 0.09
22 0.05
23 -0.15
24 0.16
25 0.63
26 -0.15
27 0.39
28 0.28
3 -0.57
38 0.15
39 0.15
4 -0.36
40 0.15
41 0.15
42 0.15
43 0.15
44 0.15
45 0.5
5 -0.81
6 -0.57
7 -0.41
8 -0.62
9 0.45

> <PUBCHEM_EFFECTIVE_ROTOR_COUNT>
7

> <PUBCHEM_PHARMACOPHORE_FEATURES>
9
1 2 acceptor
1 3 acceptor
1 5 cation
3 2 3 25 anion
3 6 7 18 cation
5 1 6 7 14 18 rings
5 5 9 10 11 12 rings
6 15 16 17 19 20 21 rings
6 8 22 23 24 26 27 rings

> <PUBCHEM_HEAVY_ATOM_COUNT>
28

> <PUBCHEM_ATOM_DEF_STEREO_COUNT>
1

> <PUBCHEM_ATOM_UDEF_STEREO_COUNT>
0

> <PUBCHEM_BOND_DEF_STEREO_COUNT>
0

> <PUBCHEM_BOND_UDEF_STEREO_COUNT>
0

> <PUBCHEM_ISOTOPIC_ATOM_COUNT>
0

> <PUBCHEM_COMPONENT_COUNT>
1

> <PUBCHEM_CACTVS_TAUTO_COUNT>
1

> <PUBCHEM_CONFORMER_ID>
02BA9A8700000001

> <PUBCHEM_MMFF94_ENERGY>
66.3722

> <PUBCHEM_FEATURE_SELFOVERLAP>
45.729

> <PUBCHEM_SHAPE_FINGERPRINT>
1100329 8 18339646638208342761
12156800 1 15578043981511428364
12166972 35 17749395887940745502
12596599 1 18129388111427447853
12788726 201 18118121377149016370
133893 2 18122366810682312537
13402501 40 18263638644825706056
13761468 95 17395035153271710182
14784336 7 18113887252750953634
14787075 74 18333733494569648908
14790565 3 17619065036862213705
14910302 57 17844527691223432014
14955137 171 18124339137580630609
16090146 7 17846505808259715755
17492 54 18043236952218306029
17818456 19 17831003638272763818
19319366 153 17534906278235981931
20642791 239 18188479169688057025
20642791 35 18335687331412373653
20691752 17 17603854646627306589
20775438 99 17619326042051347751
20905425 154 18194967563733263637
21344244 246 17980751963693362215
21623110 236 18337122215192621344
23402539 116 18410293584112406182
23419403 2 18118095143452031453
23557571 272 18272369715810434350
23559900 14 18340194280565452913
238918 7 17616528901232370960
3298306 158 17905888437229319877
392239 28 18338238159639299440
4280585 95 18337662049278030060
5171179 24 18341323482991416640
59755656 215 17615959346432001831
7471813 234 18412263977789819686

> <PUBCHEM_SHAPE_MULTIPOLES>
532.83
9.77
4.55
1.52
8.21
5.12
0.19
-8.77
-3.3
0.2
0.66
-0.08
-0.23
-0.11

> <PUBCHEM_SHAPE_SELFOVERLAP>
1161.319

> <PUBCHEM_SHAPE_VOLUME>
291

> <PUBCHEM_COORDINATE_TYPE>
2
5
10

$$$$
