7155437
  -OEChem-12032416403D

 58 62  0     1  0  0  0  0  0999 V2000
    0.8858    1.7907   -1.5802 S   0  0  0  0  0  0  0  0  0  0  0  0
    0.9988    3.2199   -1.7817 O   0  0  0  0  0  0  0  0  0  0  0  0
    0.5058    0.9133   -2.6672 O   0  0  0  0  0  0  0  0  0  0  0  0
   -4.8210    3.0866   -0.0467 O   0  0  0  0  0  0  0  0  0  0  0  0
    6.0959   -2.4208   -0.0041 O   0  0  0  0  0  0  0  0  0  0  0  0
   -0.1358    1.4929   -0.2406 N   0  0  2  0  0  0  0  0  0  0  0  0
   -3.1791    1.5335    0.5684 N   0  0  0  0  0  0  0  0  0  0  0  0
    6.0529   -0.1417    0.5980 N   0  0  0  0  0  0  0  0  0  0  0  0
   -1.1179    2.2252    1.9278 C   0  0  1  0  0  0  0  0  0  0  0  0
   -1.3816   -0.1056    1.2035 C   0  0  2  0  0  0  0  0  0  0  0  0
   -1.1398    0.7870    2.4183 C   0  0  0  0  0  0  0  0  0  0  0  0
    0.0072    2.4366    0.9031 C   0  0  0  0  0  0  0  0  0  0  0  0
   -0.2246    0.0704    0.2006 C   0  0  0  0  0  0  0  0  0  0  0  0
   -2.4950    2.5676    1.3570 C   0  0  0  0  0  0  0  0  0  0  0  0
   -2.7270    0.1992    0.5387 C   0  0  0  0  0  0  0  0  0  0  0  0
   -3.4708   -0.7532   -0.0822 C   0  0  0  0  0  0  0  0  0  0  0  0
   -4.3730    1.9396   -0.0541 C   0  0  0  0  0  0  0  0  0  0  0  0
   -4.7062   -0.3707   -0.7394 C   0  0  0  0  0  0  0  0  0  0  0  0
   -5.1454    0.8876   -0.7529 C   0  0  0  0  0  0  0  0  0  0  0  0
    2.4236    1.2151   -0.9308 C   0  0  0  0  0  0  0  0  0  0  0  0
   -3.0477   -2.1702   -0.1219 C   0  0  0  0  0  0  0  0  0  0  0  0
    2.7791   -0.1120   -1.1063 C   0  0  0  0  0  0  0  0  0  0  0  0
    3.2488    2.1008   -0.2577 C   0  0  0  0  0  0  0  0  0  0  0  0
   -2.2415   -2.6217   -1.1622 C   0  0  0  0  0  0  0  0  0  0  0  0
   -3.4591   -3.0421    0.8816 C   0  0  0  0  0  0  0  0  0  0  0  0
    3.9945   -0.5663   -0.5944 C   0  0  0  0  0  0  0  0  0  0  0  0
    4.4641    1.6464    0.2543 C   0  0  0  0  0  0  0  0  0  0  0  0
   -1.8428   -3.9579   -1.1995 C   0  0  0  0  0  0  0  0  0  0  0  0
   -3.0604   -4.3782    0.8443 C   0  0  0  0  0  0  0  0  0  0  0  0
    4.8370    0.3129    0.0858 C   0  0  0  0  0  0  0  0  0  0  0  0
   -2.2522   -4.8361   -0.1962 C   0  0  0  0  0  0  0  0  0  0  0  0
    6.5920   -1.4332    0.5281 C   0  0  0  0  0  0  0  0  0  0  0  0
    7.9355   -1.5155    1.2084 C   0  0  0  0  0  0  0  0  0  0  0  0
   -0.9208    2.8959    2.7736 H   0  0  0  0  0  0  0  0  0  0  0  0
   -1.3602   -1.1390    1.5674 H   0  0  0  0  0  0  0  0  0  0  0  0
   -1.9267    0.6439    3.1694 H   0  0  0  0  0  0  0  0  0  0  0  0
   -0.1876    0.5318    2.8995 H   0  0  0  0  0  0  0  0  0  0  0  0
   -0.0294    3.4705    0.5441 H   0  0  0  0  0  0  0  0  0  0  0  0
    0.9710    2.2790    1.3986 H   0  0  0  0  0  0  0  0  0  0  0  0
    0.7054   -0.2294    0.6955 H   0  0  0  0  0  0  0  0  0  0  0  0
   -0.3735   -0.5756   -0.6681 H   0  0  0  0  0  0  0  0  0  0  0  0
   -3.1712    2.7930    2.1934 H   0  0  0  0  0  0  0  0  0  0  0  0
   -2.4433    3.4867    0.7595 H   0  0  0  0  0  0  0  0  0  0  0  0
   -5.2798   -1.1421   -1.2448 H   0  0  0  0  0  0  0  0  0  0  0  0
   -6.0669    1.1651   -1.2505 H   0  0  0  0  0  0  0  0  0  0  0  0
    2.1367   -0.8124   -1.6312 H   0  0  0  0  0  0  0  0  0  0  0  0
    2.9761    3.1417   -0.1133 H   0  0  0  0  0  0  0  0  0  0  0  0
   -1.9210   -1.9519   -1.9562 H   0  0  0  0  0  0  0  0  0  0  0  0
   -4.0885   -2.6991    1.6990 H   0  0  0  0  0  0  0  0  0  0  0  0
    4.2138   -1.6113   -0.7633 H   0  0  0  0  0  0  0  0  0  0  0  0
    5.1105    2.3424    0.7831 H   0  0  0  0  0  0  0  0  0  0  0  0
   -1.2149   -4.3148   -2.0106 H   0  0  0  0  0  0  0  0  0  0  0  0
   -3.3790   -5.0621    1.6256 H   0  0  0  0  0  0  0  0  0  0  0  0
   -1.9420   -5.8765   -0.2254 H   0  0  0  0  0  0  0  0  0  0  0  0
    6.6101    0.5600    1.0809 H   0  0  0  0  0  0  0  0  0  0  0  0
    8.6445   -0.8505    0.7074 H   0  0  0  0  0  0  0  0  0  0  0  0
    8.3136   -2.5404    1.1596 H   0  0  0  0  0  0  0  0  0  0  0  0
    7.8388   -1.2233    2.2580 H   0  0  0  0  0  0  0  0  0  0  0  0
  1  2  2  0  0  0  0
  1  3  2  0  0  0  0
  1  6  1  0  0  0  0
  1 20  1  0  0  0  0
  4 17  2  0  0  0  0
  5 32  2  0  0  0  0
  6 12  1  0  0  0  0
  6 13  1  0  0  0  0
  7 14  1  0  0  0  0
  7 15  1  0  0  0  0
  7 17  1  0  0  0  0
  8 30  1  0  0  0  0
  8 32  1  0  0  0  0
  8 55  1  0  0  0  0
  9 11  1  0  0  0  0
  9 12  1  0  0  0  0
  9 14  1  0  0  0  0
  9 34  1  0  0  0  0
 10 11  1  0  0  0  0
 10 13  1  0  0  0  0
 10 15  1  0  0  0  0
 10 35  1  0  0  0  0
 11 36  1  0  0  0  0
 11 37  1  0  0  0  0
 12 38  1  0  0  0  0
 12 39  1  0  0  0  0
 13 40  1  0  0  0  0
 13 41  1  0  0  0  0
 14 42  1  0  0  0  0
 14 43  1  0  0  0  0
 15 16  2  0  0  0  0
 16 18  1  0  0  0  0
 16 21  1  0  0  0  0
 17 19  1  0  0  0  0
 18 19  2  0  0  0  0
 18 44  1  0  0  0  0
 19 45  1  0  0  0  0
 20 22  2  0  0  0  0
 20 23  1  0  0  0  0
 21 24  2  0  0  0  0
 21 25  1  0  0  0  0
 22 26  1  0  0  0  0
 22 46  1  0  0  0  0
 23 27  2  0  0  0  0
 23 47  1  0  0  0  0
 24 28  1  0  0  0  0
 24 48  1  0  0  0  0
 25 29  2  0  0  0  0
 25 49  1  0  0  0  0
 26 30  2  0  0  0  0
 26 50  1  0  0  0  0
 27 30  1  0  0  0  0
 27 51  1  0  0  0  0
 28 31  2  0  0  0  0
 28 52  1  0  0  0  0
 29 31  1  0  0  0  0
 29 53  1  0  0  0  0
 31 54  1  0  0  0  0
 32 33  1  0  0  0  0
 33 56  1  0  0  0  0
 33 57  1  0  0  0  0
 33 58  1  0  0  0  0
M  END
> <PUBCHEM_COMPOUND_CID>
7155437

> <PUBCHEM_CONFORMER_RMSD>
0.8

> <PUBCHEM_CONFORMER_DIVERSEORDER>
1
2
8
11
10
9
6
4
3
7
5

> <PUBCHEM_MMFF94_PARTIAL_CHARGES>
43
1 1.45
10 0.14
12 0.36
13 0.36
14 0.3
15 -0.03
16 -0.03
17 0.62
18 -0.15
19 -0.14
2 -0.65
20 -0.01
21 0.03
22 -0.15
23 -0.15
24 -0.15
25 -0.15
26 -0.15
27 -0.15
28 -0.15
29 -0.15
3 -0.65
30 0.12
31 -0.15
32 0.57
33 0.06
4 -0.57
44 0.15
45 0.15
46 0.15
47 0.15
48 0.15
49 0.15
5 -0.57
50 0.15
51 0.15
52 0.15
53 0.15
54 0.15
55 0.37
6 -0.85
7 -0.47
8 -0.55

> <PUBCHEM_EFFECTIVE_ROTOR_COUNT>
6

> <PUBCHEM_PHARMACOPHORE_FEATURES>
10
1 2 acceptor
1 3 acceptor
1 4 acceptor
1 5 acceptor
1 8 donor
6 20 22 23 26 27 30 rings
6 21 24 25 28 29 31 rings
6 6 9 10 11 12 13 rings
6 7 15 16 17 18 19 rings
6 7 9 10 11 14 15 rings

> <PUBCHEM_HEAVY_ATOM_COUNT>
33

> <PUBCHEM_ATOM_DEF_STEREO_COUNT>
2

> <PUBCHEM_ATOM_UDEF_STEREO_COUNT>
0

> <PUBCHEM_BOND_DEF_STEREO_COUNT>
0

> <PUBCHEM_BOND_UDEF_STEREO_COUNT>
0

> <PUBCHEM_ISOTOPIC_ATOM_COUNT>
0

> <PUBCHEM_COMPONENT_COUNT>
1

> <PUBCHEM_CACTVS_TAUTO_COUNT>
2

> <PUBCHEM_CONFORMER_ID>
006D2EED00000001

> <PUBCHEM_MMFF94_ENERGY>
88.5252

> <PUBCHEM_FEATURE_SELFOVERLAP>
52.349

> <PUBCHEM_SHAPE_FINGERPRINT>
10622 236 18262512736339634210
10675989 125 17838341779145474633
10928967 22 17549278371978929719
11285246 1 17388253708674652706
11387372 6 18127415549746397838
11621639 208 13871519979160088006
12202916 173 17846207839838104989
12608794 3 18199770101764931737
12712778 12 18342455962787896903
12977781 61 17555987510864771339
13583140 156 17845088661054361712
13994607 96 7925091191653765915
14114207 22 18045210540877465639
14705955 166 17059777702426709888
14844126 61 18343018925621387267
15064981 113 18263641771287631157
15297060 5 18058729100543792387
15439362 3 17616249183742140941
15484559 13 14431017817739530062
17492 89 18046068417228222347
18603816 31 18114736054463204266
19319366 153 17041484388914981622
19958102 18 18337102385074889045
20511986 3 18260819406643565512
20775530 9 17694797615360817543
21049683 118 16123356561436994963
21304303 282 17843128000442735345
23559900 14 18270955855732311208
23572383 38 18130792243906189614
3383291 50 18342176674609507355
340366 18 18260272979656192269
354706 109 18199726112545861570
3633792 109 18125998257239759253
4017518 198 18197780999225365638
44062 13 18335985371355336391
463206 1 18339366360846473641
484985 159 18188758449862185158
5080951 261 18190717822648767934
5081480 168 14924227174624802326
5085150 59 18201430342283241495
513202 73 17970640803858093483
559249 180 18335700516144113051
77296 10 18338516468940373560
9961470 85 18196938760243858222
9981440 41 17203051777050201471

> <PUBCHEM_SHAPE_MULTIPOLES>
644.55
13.78
5.13
1.71
27.02
5.39
0.06
6.38
-2.4
-5.59
-0.05
-0.07
-0.71
-1.32

> <PUBCHEM_SHAPE_SELFOVERLAP>
1400.005

> <PUBCHEM_SHAPE_VOLUME>
350.7

> <PUBCHEM_COORDINATE_TYPE>
2
5
10

$$$$
