75537118
  -OEChem-12032416333D

 39 41  0     1  0  0  0  0  0999 V2000
    4.9281    0.7641    0.0415 O   0  0  0  0  0  0  0  0  0  0  0  0
    2.5978    0.6045   -0.2092 N   0  0  0  0  0  0  0  0  0  0  0  0
   -0.1319    1.1050    0.2486 N   0  0  2  0  0  0  0  0  0  0  0  0
    3.7997   -1.2926   -0.2049 N   0  0  0  0  0  0  0  0  0  0  0  0
   -2.9699   -0.5523    0.8249 N   0  0  0  0  0  0  0  0  0  0  0  0
    1.6345   -0.4364   -0.5011 C   0  0  2  0  0  0  0  0  0  0  0  0
    0.3913   -0.2707    0.3724 C   0  0  0  0  0  0  0  0  0  0  0  0
    2.4152   -1.7283   -0.2682 C   0  0  0  0  0  0  0  0  0  0  0  0
    2.1578    1.9832   -0.1576 C   0  0  0  0  0  0  0  0  0  0  0  0
    0.8789    2.0933    0.6764 C   0  0  0  0  0  0  0  0  0  0  0  0
    3.9050    0.1097   -0.1095 C   0  0  0  0  0  0  0  0  0  0  0  0
   -1.3567    1.2566    1.0337 C   0  0  0  0  0  0  0  0  0  0  0  0
    4.8947   -2.2316   -0.1005 C   0  0  0  0  0  0  0  0  0  0  0  0
   -2.5441    0.6378    0.3452 C   0  0  0  0  0  0  0  0  0  0  0  0
   -3.1316    1.2994   -0.7211 C   0  0  0  0  0  0  0  0  0  0  0  0
   -4.0367   -1.1032    0.2035 C   0  0  0  0  0  0  0  0  0  0  0  0
   -4.2267    0.7012   -1.3343 C   0  0  0  0  0  0  0  0  0  0  0  0
   -4.6942   -0.5230   -0.8692 C   0  0  0  0  0  0  0  0  0  0  0  0
   -4.5111   -2.4167    0.7294 C   0  0  0  0  0  0  0  0  0  0  0  0
    1.3724   -0.3419   -1.5631 H   0  0  0  0  0  0  0  0  0  0  0  0
    0.6322   -0.4903    1.4216 H   0  0  0  0  0  0  0  0  0  0  0  0
   -0.3506   -1.0073    0.0443 H   0  0  0  0  0  0  0  0  0  0  0  0
    2.1650   -2.2114    0.6820 H   0  0  0  0  0  0  0  0  0  0  0  0
    2.2842   -2.4416   -1.0874 H   0  0  0  0  0  0  0  0  0  0  0  0
    1.9739    2.3047   -1.1892 H   0  0  0  0  0  0  0  0  0  0  0  0
    2.9559    2.6081    0.2553 H   0  0  0  0  0  0  0  0  0  0  0  0
    1.1221    1.9476    1.7375 H   0  0  0  0  0  0  0  0  0  0  0  0
    0.4856    3.1109    0.5654 H   0  0  0  0  0  0  0  0  0  0  0  0
   -1.5933    2.3200    1.1775 H   0  0  0  0  0  0  0  0  0  0  0  0
   -1.2433    0.8413    2.0442 H   0  0  0  0  0  0  0  0  0  0  0  0
    4.7768   -2.8074    0.8213 H   0  0  0  0  0  0  0  0  0  0  0  0
    5.8489   -1.6995   -0.0766 H   0  0  0  0  0  0  0  0  0  0  0  0
    4.8682   -2.9029   -0.9626 H   0  0  0  0  0  0  0  0  0  0  0  0
   -2.7597    2.2543   -1.0768 H   0  0  0  0  0  0  0  0  0  0  0  0
   -4.7149    1.1880   -2.1732 H   0  0  0  0  0  0  0  0  0  0  0  0
   -5.5477   -0.9993   -1.3395 H   0  0  0  0  0  0  0  0  0  0  0  0
   -4.4547   -3.1821   -0.0512 H   0  0  0  0  0  0  0  0  0  0  0  0
   -3.8957   -2.7484    1.5722 H   0  0  0  0  0  0  0  0  0  0  0  0
   -5.5456   -2.3361    1.0779 H   0  0  0  0  0  0  0  0  0  0  0  0
  1 11  2  0  0  0  0
  2  6  1  0  0  0  0
  2  9  1  0  0  0  0
  2 11  1  0  0  0  0
  3  7  1  0  0  0  0
  3 10  1  0  0  0  0
  3 12  1  0  0  0  0
  4  8  1  0  0  0  0
  4 11  1  0  0  0  0
  4 13  1  0  0  0  0
  5 14  1  0  0  0  0
  5 16  2  0  0  0  0
  6  7  1  0  0  0  0
  6  8  1  0  0  0  0
  6 20  1  0  0  0  0
  7 21  1  0  0  0  0
  7 22  1  0  0  0  0
  8 23  1  0  0  0  0
  8 24  1  0  0  0  0
  9 10  1  0  0  0  0
  9 25  1  0  0  0  0
  9 26  1  0  0  0  0
 10 27  1  0  0  0  0
 10 28  1  0  0  0  0
 12 14  1  0  0  0  0
 12 29  1  0  0  0  0
 12 30  1  0  0  0  0
 13 31  1  0  0  0  0
 13 32  1  0  0  0  0
 13 33  1  0  0  0  0
 14 15  2  0  0  0  0
 15 17  1  0  0  0  0
 15 34  1  0  0  0  0
 16 18  1  0  0  0  0
 16 19  1  0  0  0  0
 17 18  2  0  0  0  0
 17 35  1  0  0  0  0
 18 36  1  0  0  0  0
 19 37  1  0  0  0  0
 19 38  1  0  0  0  0
 19 39  1  0  0  0  0
M  END
> <PUBCHEM_COMPOUND_CID>
75537118

> <PUBCHEM_CONFORMER_RMSD>
0.6

> <PUBCHEM_CONFORMER_DIVERSEORDER>
1
31
34
19
22
30
32
39
14
21
35
26
24
36
25
2
28
8
12
3
37
6
15
33
20
38
27
13
18
17
29
16
5
4
7
9
10
11
23

> <PUBCHEM_MMFF94_PARTIAL_CHARGES>
22
1 -0.57
10 0.27
11 0.69
12 0.41
13 0.3
14 0.17
15 -0.15
16 0.17
17 -0.15
18 -0.15
19 0.14
2 -0.66
3 -0.81
34 0.15
35 0.15
36 0.15
4 -0.66
5 -0.62
6 0.3
7 0.27
8 0.3
9 0.3

> <PUBCHEM_EFFECTIVE_ROTOR_COUNT>
3.2

> <PUBCHEM_PHARMACOPHORE_FEATURES>
6
1 1 acceptor
1 3 cation
1 5 acceptor
5 2 4 6 8 11 rings
6 2 3 6 7 9 10 rings
6 5 14 15 16 17 18 rings

> <PUBCHEM_HEAVY_ATOM_COUNT>
19

> <PUBCHEM_ATOM_DEF_STEREO_COUNT>
1

> <PUBCHEM_ATOM_UDEF_STEREO_COUNT>
0

> <PUBCHEM_BOND_DEF_STEREO_COUNT>
0

> <PUBCHEM_BOND_UDEF_STEREO_COUNT>
0

> <PUBCHEM_ISOTOPIC_ATOM_COUNT>
0

> <PUBCHEM_COMPONENT_COUNT>
1

> <PUBCHEM_CACTVS_TAUTO_COUNT>
1

> <PUBCHEM_CONFORMER_ID>
04809ADE00000001

> <PUBCHEM_MMFF94_ENERGY>
43.7653

> <PUBCHEM_FEATURE_SELFOVERLAP>
30.542

> <PUBCHEM_SHAPE_FINGERPRINT>
10447042 23 18342731910516016726
11089746 13 14345790595636312380
11796584 16 18114454587343185562
11806522 49 18413109467871762784
12670546 177 17968097555277500885
12892183 10 12031789175806173381
12916754 54 18408890667768246785
13544653 18 18130787841121378408
14123255 352 9079115553272214635
14252887 29 17275395300125397268
14341114 328 14333118693840149482
14576447 43 18272929449012341852
15196674 1 18411984637316668850
15239154 128 9007051366348607074
15352361 1 18411982446704136211
15375462 189 17703230723368992241
15788980 27 17676209052284194635
15961568 22 16951406714042307468
17870717 6 18260270711828881663
18186145 218 17967248689662349473
193927 3 17988090993355233102
19433438 38 18187362147119431933
19784866 170 10375871883084430363
200 152 18131347510194539133
20261772 1 17704351091120750062
20281475 54 18412271622589058673
20645477 70 18336546105026368856
20671657 53 18341898484781248001
21065201 7 17822282496713606249
21250096 35 18272367559694374377
21267235 1 18343029865456601110
21713013 43 18113894983759845575
221490 88 18337113470248238531
22393880 68 18040708143603242411
22646028 1 17989485208168554959
22646028 28 18131351908082710277
23402539 116 18270679741021796290
23403322 49 18411136931316463267
23557571 272 17822286933710462477
23559900 14 18335975441596780273
27216 239 9943804491747300287
2871803 45 18335417945877018675
3004659 81 18260546671951558894
314194 84 18060134353607797822
3268164 11 16588014732712112223
46194498 28 17749953379111981669
4921388 177 17168151161061534427
5104073 3 18272934882240839538
5281201 14 18041000669652086341
5283173 99 18116143381390259420
57724786 102 11170453696735764119
633830 44 12540693674092281690
9709674 26 18188776174955040123

> <PUBCHEM_SHAPE_MULTIPOLES>
365.22
11.18
2.35
0.95
0.51
0.54
0.06
5.57
1.71
0.58
-0.31
-0.95
-0.1
0.92

> <PUBCHEM_SHAPE_SELFOVERLAP>
769.093

> <PUBCHEM_SHAPE_VOLUME>
207.2

> <PUBCHEM_COORDINATE_TYPE>
2
5
10

$$$$
