7135440
  -OEChem-12032416123D

 66 68  0     1  0  0  0  0  0999 V2000
    3.8141   -0.7356    0.4878 O   0  0  0  0  0  0  0  0  0  0  0  0
   -3.3797    0.7538   -2.4214 O   0  0  0  0  0  0  0  0  0  0  0  0
    4.6338   -2.2185   -1.7205 O   0  0  0  0  0  0  0  0  0  0  0  0
   -1.2378   -4.5752    1.3893 O   0  0  0  0  0  0  0  0  0  0  0  0
   -3.7985    1.0109   -0.1545 N   0  0  0  0  0  0  0  0  0  0  0  0
   -1.3251    2.6149   -0.3391 C   0  0  2  0  0  0  0  0  0  0  0  0
   -0.5839    3.9513   -0.2384 C   0  0  0  0  0  0  0  0  0  0  0  0
   -0.3538    1.5162   -0.7965 C   0  0  0  0  0  0  0  0  0  0  0  0
   -2.5105    2.7179   -1.2964 C   0  0  2  0  0  0  0  0  0  0  0  0
    0.5214    3.8733    0.8139 C   0  0  0  0  0  0  0  0  0  0  0  0
    0.9517    1.5167   -0.0397 C   0  0  0  0  0  0  0  0  0  0  0  0
    1.3818    2.6421    0.6859 C   0  0  0  0  0  0  0  0  0  0  0  0
    1.7798    0.3859   -0.1110 C   0  0  0  0  0  0  0  0  0  0  0  0
    2.6145    2.6003    1.3554 C   0  0  0  0  0  0  0  0  0  0  0  0
   -3.4529    3.8374   -0.8592 C   0  0  0  0  0  0  0  0  0  0  0  0
   -3.2679    1.3938   -1.3779 C   0  0  0  0  0  0  0  0  0  0  0  0
    3.0071    0.3606    0.5502 C   0  0  0  0  0  0  0  0  0  0  0  0
    3.4233    1.4667    1.2851 C   0  0  0  0  0  0  0  0  0  0  0  0
    1.3710   -0.8162   -0.9067 C   0  0  0  0  0  0  0  0  0  0  0  0
    3.1013    3.7557    2.1713 C   0  0  0  0  0  0  0  0  0  0  0  0
   -4.5542   -0.2073    0.0221 C   0  0  0  0  0  0  0  0  0  0  0  0
    5.1138   -0.5523   -0.0699 C   0  0  0  0  0  0  0  0  0  0  0  0
   -3.6732   -1.3674    0.3857 C   0  0  0  0  0  0  0  0  0  0  0  0
    5.5651   -1.8510   -0.7101 C   0  0  0  0  0  0  0  0  0  0  0  0
   -3.4064   -1.6482    1.7258 C   0  0  0  0  0  0  0  0  0  0  0  0
   -3.1213   -2.1645   -0.6171 C   0  0  0  0  0  0  0  0  0  0  0  0
   -2.5879   -2.7261    2.0630 C   0  0  0  0  0  0  0  0  0  0  0  0
   -2.3028   -3.2425   -0.2800 C   0  0  0  0  0  0  0  0  0  0  0  0
   -2.0360   -3.5232    1.0601 C   0  0  0  0  0  0  0  0  0  0  0  0
    5.0197   -3.4209   -2.3715 C   0  0  0  0  0  0  0  0  0  0  0  0
   -0.7066   -5.3487    0.3143 C   0  0  0  0  0  0  0  0  0  0  0  0
   -1.6740    2.3583    0.6709 H   0  0  0  0  0  0  0  0  0  0  0  0
   -0.1506    4.2113   -1.2133 H   0  0  0  0  0  0  0  0  0  0  0  0
   -1.2448    4.7746    0.0492 H   0  0  0  0  0  0  0  0  0  0  0  0
   -0.1252    1.6411   -1.8630 H   0  0  0  0  0  0  0  0  0  0  0  0
   -0.8502    0.5483   -0.6679 H   0  0  0  0  0  0  0  0  0  0  0  0
   -2.1590    2.9434   -2.3120 H   0  0  0  0  0  0  0  0  0  0  0  0
    1.1276    4.7814    0.7204 H   0  0  0  0  0  0  0  0  0  0  0  0
    0.0668    3.8727    1.8126 H   0  0  0  0  0  0  0  0  0  0  0  0
   -4.4291    3.7349   -1.3477 H   0  0  0  0  0  0  0  0  0  0  0  0
   -3.0638    4.8204   -1.1434 H   0  0  0  0  0  0  0  0  0  0  0  0
   -3.6293    3.8374    0.2221 H   0  0  0  0  0  0  0  0  0  0  0  0
    4.3747    1.4403    1.8108 H   0  0  0  0  0  0  0  0  0  0  0  0
    1.1308   -0.5329   -1.9369 H   0  0  0  0  0  0  0  0  0  0  0  0
    2.1471   -1.5827   -0.9711 H   0  0  0  0  0  0  0  0  0  0  0  0
    0.4981   -1.2926   -0.4480 H   0  0  0  0  0  0  0  0  0  0  0  0
    3.3430    4.6049    1.5241 H   0  0  0  0  0  0  0  0  0  0  0  0
    2.3487    4.0584    2.9067 H   0  0  0  0  0  0  0  0  0  0  0  0
    4.0077    3.5055    2.7338 H   0  0  0  0  0  0  0  0  0  0  0  0
   -3.6652    1.5956    0.6641 H   0  0  0  0  0  0  0  0  0  0  0  0
   -5.2936   -0.0247    0.8103 H   0  0  0  0  0  0  0  0  0  0  0  0
   -5.1153   -0.4265   -0.8941 H   0  0  0  0  0  0  0  0  0  0  0  0
    5.8107   -0.2619    0.7235 H   0  0  0  0  0  0  0  0  0  0  0  0
    5.0886    0.2351   -0.8342 H   0  0  0  0  0  0  0  0  0  0  0  0
    5.5955   -2.6445    0.0456 H   0  0  0  0  0  0  0  0  0  0  0  0
    6.5627   -1.7265   -1.1454 H   0  0  0  0  0  0  0  0  0  0  0  0
   -3.8288   -1.0333    2.5161 H   0  0  0  0  0  0  0  0  0  0  0  0
   -3.3229   -1.9588   -1.6648 H   0  0  0  0  0  0  0  0  0  0  0  0
   -2.3831   -2.9395    3.1085 H   0  0  0  0  0  0  0  0  0  0  0  0
   -1.9070   -3.8200   -1.1084 H   0  0  0  0  0  0  0  0  0  0  0  0
    5.9895   -3.2971   -2.8630 H   0  0  0  0  0  0  0  0  0  0  0  0
    5.0618   -4.2482   -1.6564 H   0  0  0  0  0  0  0  0  0  0  0  0
    4.2705   -3.6556   -3.1325 H   0  0  0  0  0  0  0  0  0  0  0  0
   -0.0431   -4.7519   -0.3208 H   0  0  0  0  0  0  0  0  0  0  0  0
   -0.0960   -6.1420    0.7578 H   0  0  0  0  0  0  0  0  0  0  0  0
   -1.5004   -5.8389   -0.2594 H   0  0  0  0  0  0  0  0  0  0  0  0
  1 17  1  0  0  0  0
  1 22  1  0  0  0  0
  2 16  2  0  0  0  0
  3 24  1  0  0  0  0
  3 30  1  0  0  0  0
  4 29  1  0  0  0  0
  4 31  1  0  0  0  0
  5 16  1  0  0  0  0
  5 21  1  0  0  0  0
  5 50  1  0  0  0  0
  6  7  1  0  0  0  0
  6  8  1  0  0  0  0
  6  9  1  0  0  0  0
  6 32  1  0  0  0  0
  7 10  1  0  0  0  0
  7 33  1  0  0  0  0
  7 34  1  0  0  0  0
  8 11  1  0  0  0  0
  8 35  1  0  0  0  0
  8 36  1  0  0  0  0
  9 15  1  0  0  0  0
  9 16  1  0  0  0  0
  9 37  1  0  0  0  0
 10 12  1  0  0  0  0
 10 38  1  0  0  0  0
 10 39  1  0  0  0  0
 11 12  2  0  0  0  0
 11 13  1  0  0  0  0
 12 14  1  0  0  0  0
 13 17  2  0  0  0  0
 13 19  1  0  0  0  0
 14 18  2  0  0  0  0
 14 20  1  0  0  0  0
 15 40  1  0  0  0  0
 15 41  1  0  0  0  0
 15 42  1  0  0  0  0
 17 18  1  0  0  0  0
 18 43  1  0  0  0  0
 19 44  1  0  0  0  0
 19 45  1  0  0  0  0
 19 46  1  0  0  0  0
 20 47  1  0  0  0  0
 20 48  1  0  0  0  0
 20 49  1  0  0  0  0
 21 23  1  0  0  0  0
 21 51  1  0  0  0  0
 21 52  1  0  0  0  0
 22 24  1  0  0  0  0
 22 53  1  0  0  0  0
 22 54  1  0  0  0  0
 23 25  2  0  0  0  0
 23 26  1  0  0  0  0
 24 55  1  0  0  0  0
 24 56  1  0  0  0  0
 25 27  1  0  0  0  0
 25 57  1  0  0  0  0
 26 28  2  0  0  0  0
 26 58  1  0  0  0  0
 27 29  2  0  0  0  0
 27 59  1  0  0  0  0
 28 29  1  0  0  0  0
 28 60  1  0  0  0  0
 30 61  1  0  0  0  0
 30 62  1  0  0  0  0
 30 63  1  0  0  0  0
 31 64  1  0  0  0  0
 31 65  1  0  0  0  0
 31 66  1  0  0  0  0
M  END
> <PUBCHEM_COMPOUND_CID>
7135440

> <PUBCHEM_CONFORMER_RMSD>
1

> <PUBCHEM_CONFORMER_DIVERSEORDER>
3
51
93
114
84
38
42
74
85
70
72
43
27
52
59
39
106
73
107
35
119
65
100
68
110
101
77
14
33
26
25
76
4
99
118
92
88
120
86
69
19
79
71
98
47
89
36
66
49
48
125
95
8
2
115
112
90
10
91
111
56
23
40
30
113
75
82
83
28
54
97
87
55
96
50
80
126
103
67
21
121
64
104
29
123
78
94
5
62
24
9
81
37
7
32
58
127
22
15
53
18
63
61
117
105
6
16
122
108
46
45
102
109
116
12
20
34
17
41
11
60
13
44
31
124
57
1

> <PUBCHEM_MMFF94_PARTIAL_CHARGES>
34
1 -0.36
10 0.14
11 -0.14
12 -0.14
13 -0.14
14 -0.14
16 0.57
17 0.08
18 -0.15
19 0.14
2 -0.57
20 0.14
21 0.44
22 0.28
23 -0.14
24 0.28
25 -0.15
26 -0.15
27 -0.15
28 -0.15
29 0.08
3 -0.56
30 0.28
31 0.28
4 -0.36
43 0.15
5 -0.73
50 0.37
57 0.15
58 0.15
59 0.15
60 0.15
8 0.14
9 0.06

> <PUBCHEM_EFFECTIVE_ROTOR_COUNT>
10.8

> <PUBCHEM_PHARMACOPHORE_FEATURES>
9
1 1 acceptor
1 15 hydrophobe
1 2 acceptor
1 3 acceptor
1 4 acceptor
1 5 donor
6 11 12 13 14 17 18 rings
6 23 25 26 27 28 29 rings
6 6 7 8 10 11 12 rings

> <PUBCHEM_HEAVY_ATOM_COUNT>
31

> <PUBCHEM_ATOM_DEF_STEREO_COUNT>
2

> <PUBCHEM_ATOM_UDEF_STEREO_COUNT>
0

> <PUBCHEM_BOND_DEF_STEREO_COUNT>
0

> <PUBCHEM_BOND_UDEF_STEREO_COUNT>
0

> <PUBCHEM_ISOTOPIC_ATOM_COUNT>
0

> <PUBCHEM_COMPONENT_COUNT>
1

> <PUBCHEM_CACTVS_TAUTO_COUNT>
2

> <PUBCHEM_CONFORMER_ID>
006CE0D000000003

> <PUBCHEM_MMFF94_ENERGY>
97.4627

> <PUBCHEM_FEATURE_SELFOVERLAP>
45.697

> <PUBCHEM_SHAPE_FINGERPRINT>
10462674 296 17693940005171796038
11370993 144 18271811267309657209
12712778 12 18188758471316292978
12788726 201 18122639253707627718
13402501 40 18410578357829403615
14020679 6 18127700322688383129
14251757 5 18261123962716697526
14415361 192 15151085736307379699
14725015 67 18409443679357379047
15351339 4 17903637380455974610
15775530 1 18268697463576109120
15927050 60 17978222761122897501
16067689 391 17482279201829084574
17627616 140 17543634127885045746
17913733 40 17629466760753310128
19315092 285 15623652934785462021
19611394 137 18342164550506778874
20739085 24 17110995496785724744
20764821 26 17760925143394402106
23559900 14 18334849520025652084
4058900 60 17543355951364487268
437795 96 18268422615644213282
5265222 85 18116447950385047965
54324442 115 18341056207445917358
57307002 85 17986127214222602046
6371380 46 18338795594733886897
70634741 139 18118996653689806902

> <PUBCHEM_SHAPE_MULTIPOLES>
609.51
9.96
7.37
1.91
7.9
3.38
0.1
5.75
2.01
-1.21
-0.86
0.38
0.45
6.07

> <PUBCHEM_SHAPE_SELFOVERLAP>
1278.513

> <PUBCHEM_SHAPE_VOLUME>
345.7

> <PUBCHEM_COORDINATE_TYPE>
2
5
10

$$$$
