75368651
  -OEChem-12032416393D

 53 56  0     1  0  0  0  0  0999 V2000
    2.8750   -2.7187   -0.0120 O   0  0  0  0  0  0  0  0  0  0  0  0
    2.6394   -0.3779    0.1582 N   0  0  0  0  0  0  0  0  0  0  0  0
    0.7896   -1.6517    0.1663 N   0  0  0  0  0  0  0  0  0  0  0  0
   -1.9082   -1.0569   -0.3618 N   0  0  2  0  0  0  0  0  0  0  0  0
    0.3065   -0.3082    0.4078 C   0  0  1  0  0  0  0  0  0  0  0  0
    4.0136    0.0526    0.0671 C   0  0  0  0  0  0  0  0  0  0  0  0
    1.5358    0.5670    0.1715 C   0  0  0  0  0  0  0  0  0  0  0  0
   -0.8850   -0.0005   -0.4984 C   0  0  0  0  0  0  0  0  0  0  0  0
    4.4427    0.7544    1.3578 C   0  0  0  0  0  0  0  0  0  0  0  0
    4.2192    0.9549   -1.1525 C   0  0  0  0  0  0  0  0  0  0  0  0
    2.1879   -1.7116    0.0951 C   0  0  0  0  0  0  0  0  0  0  0  0
   -0.1548   -2.7488    0.1301 C   0  0  0  0  0  0  0  0  0  0  0  0
   -1.3582   -2.3747   -0.7389 C   0  0  0  0  0  0  0  0  0  0  0  0
    5.8776    1.2674    1.2692 C   0  0  0  0  0  0  0  0  0  0  0  0
    5.6549    1.4661   -1.2378 C   0  0  0  0  0  0  0  0  0  0  0  0
    6.0811    2.1635    0.0508 C   0  0  0  0  0  0  0  0  0  0  0  0
   -3.0790   -0.7406   -1.1794 C   0  0  0  0  0  0  0  0  0  0  0  0
   -3.9414    0.3145   -0.5394 C   0  0  0  0  0  0  0  0  0  0  0  0
   -4.7795    0.0041    0.5315 C   0  0  0  0  0  0  0  0  0  0  0  0
   -3.8936    1.6185   -1.0324 C   0  0  0  0  0  0  0  0  0  0  0  0
   -5.5699    0.9976    1.1092 C   0  0  0  0  0  0  0  0  0  0  0  0
   -4.8477   -1.3846    1.0764 C   0  0  0  0  0  0  0  0  0  0  0  0
   -4.6840    2.6121   -0.4546 C   0  0  0  0  0  0  0  0  0  0  0  0
   -5.5221    2.3016    0.6163 C   0  0  0  0  0  0  0  0  0  0  0  0
    0.0083   -0.2606    1.4635 H   0  0  0  0  0  0  0  0  0  0  0  0
    4.6365   -0.8426   -0.0573 H   0  0  0  0  0  0  0  0  0  0  0  0
    1.4864    1.0724   -0.7977 H   0  0  0  0  0  0  0  0  0  0  0  0
    1.6574    1.3076    0.9659 H   0  0  0  0  0  0  0  0  0  0  0  0
   -1.2800    0.9776   -0.2038 H   0  0  0  0  0  0  0  0  0  0  0  0
   -0.5580    0.0759   -1.5444 H   0  0  0  0  0  0  0  0  0  0  0  0
    3.7849    1.6043    1.5759 H   0  0  0  0  0  0  0  0  0  0  0  0
    4.3509    0.0664    2.2072 H   0  0  0  0  0  0  0  0  0  0  0  0
    3.9661    0.4113   -2.0709 H   0  0  0  0  0  0  0  0  0  0  0  0
    3.5546    1.8264   -1.1106 H   0  0  0  0  0  0  0  0  0  0  0  0
   -0.4700   -2.9406    1.1622 H   0  0  0  0  0  0  0  0  0  0  0  0
    0.3420   -3.6487   -0.2458 H   0  0  0  0  0  0  0  0  0  0  0  0
   -1.0571   -2.3687   -1.7951 H   0  0  0  0  0  0  0  0  0  0  0  0
   -2.1214   -3.1528   -0.6181 H   0  0  0  0  0  0  0  0  0  0  0  0
    6.5663    0.4153    1.2143 H   0  0  0  0  0  0  0  0  0  0  0  0
    6.1283    1.8217    2.1807 H   0  0  0  0  0  0  0  0  0  0  0  0
    5.7505    2.1593   -2.0812 H   0  0  0  0  0  0  0  0  0  0  0  0
    6.3299    0.6249   -1.4380 H   0  0  0  0  0  0  0  0  0  0  0  0
    7.1347    2.4565   -0.0195 H   0  0  0  0  0  0  0  0  0  0  0  0
    5.5003    3.0857    0.1755 H   0  0  0  0  0  0  0  0  0  0  0  0
   -3.7014   -1.6312   -1.3366 H   0  0  0  0  0  0  0  0  0  0  0  0
   -2.7842   -0.4373   -2.1941 H   0  0  0  0  0  0  0  0  0  0  0  0
   -3.2457    1.8764   -1.8660 H   0  0  0  0  0  0  0  0  0  0  0  0
   -6.2285    0.7734    1.9442 H   0  0  0  0  0  0  0  0  0  0  0  0
   -5.5643   -1.4552    1.9028 H   0  0  0  0  0  0  0  0  0  0  0  0
   -5.1824   -2.0909    0.3102 H   0  0  0  0  0  0  0  0  0  0  0  0
   -3.8782   -1.7002    1.4733 H   0  0  0  0  0  0  0  0  0  0  0  0
   -4.6467    3.6275   -0.8382 H   0  0  0  0  0  0  0  0  0  0  0  0
   -6.1374    3.0753    1.0662 H   0  0  0  0  0  0  0  0  0  0  0  0
  1 11  2  0  0  0  0
  2  6  1  0  0  0  0
  2  7  1  0  0  0  0
  2 11  1  0  0  0  0
  3  5  1  0  0  0  0
  3 11  1  0  0  0  0
  3 12  1  0  0  0  0
  4  8  1  0  0  0  0
  4 13  1  0  0  0  0
  4 17  1  0  0  0  0
  5  7  1  0  0  0  0
  5  8  1  0  0  0  0
  5 25  1  0  0  0  0
  6  9  1  0  0  0  0
  6 10  1  0  0  0  0
  6 26  1  0  0  0  0
  7 27  1  0  0  0  0
  7 28  1  0  0  0  0
  8 29  1  0  0  0  0
  8 30  1  0  0  0  0
  9 14  1  0  0  0  0
  9 31  1  0  0  0  0
  9 32  1  0  0  0  0
 10 15  1  0  0  0  0
 10 33  1  0  0  0  0
 10 34  1  0  0  0  0
 12 13  1  0  0  0  0
 12 35  1  0  0  0  0
 12 36  1  0  0  0  0
 13 37  1  0  0  0  0
 13 38  1  0  0  0  0
 14 16  1  0  0  0  0
 14 39  1  0  0  0  0
 14 40  1  0  0  0  0
 15 16  1  0  0  0  0
 15 41  1  0  0  0  0
 15 42  1  0  0  0  0
 16 43  1  0  0  0  0
 16 44  1  0  0  0  0
 17 18  1  0  0  0  0
 17 45  1  0  0  0  0
 17 46  1  0  0  0  0
 18 19  1  0  0  0  0
 18 20  2  0  0  0  0
 19 21  2  0  0  0  0
 19 22  1  0  0  0  0
 20 23  1  0  0  0  0
 20 47  1  0  0  0  0
 21 24  1  0  0  0  0
 21 48  1  0  0  0  0
 22 49  1  0  0  0  0
 22 50  1  0  0  0  0
 22 51  1  0  0  0  0
 23 24  2  0  0  0  0
 23 52  1  0  0  0  0
 24 53  1  0  0  0  0
M  END
> <PUBCHEM_COMPOUND_CID>
75368651

> <PUBCHEM_CONFORMER_RMSD>
0.8

> <PUBCHEM_CONFORMER_DIVERSEORDER>
1
9
42
43
39
44
45
32
28
55
29
36
53
26
30
49
54
51
57
58
50
37
5
40
21
59
23
27
46
8
24
15
2
41
48
56
10
20
6
25
34
12
18
47
31
33
7
17
35
4
3
16
14
38
11
22
52
19
13

> <PUBCHEM_MMFF94_PARTIAL_CHARGES>
23
1 -0.57
11 0.69
12 0.3
13 0.27
17 0.41
18 -0.14
19 -0.14
2 -0.66
20 -0.15
21 -0.15
22 0.14
23 -0.15
24 -0.15
3 -0.66
4 -0.81
47 0.15
48 0.15
5 0.3
52 0.15
53 0.15
6 0.3
7 0.3
8 0.27

> <PUBCHEM_EFFECTIVE_ROTOR_COUNT>
5.4

> <PUBCHEM_PHARMACOPHORE_FEATURES>
6
1 1 acceptor
1 4 cation
5 2 3 5 7 11 rings
6 18 19 20 21 23 24 rings
6 3 4 5 8 12 13 rings
6 6 9 10 14 15 16 rings

> <PUBCHEM_HEAVY_ATOM_COUNT>
24

> <PUBCHEM_ATOM_DEF_STEREO_COUNT>
1

> <PUBCHEM_ATOM_UDEF_STEREO_COUNT>
0

> <PUBCHEM_BOND_DEF_STEREO_COUNT>
0

> <PUBCHEM_BOND_UDEF_STEREO_COUNT>
0

> <PUBCHEM_ISOTOPIC_ATOM_COUNT>
0

> <PUBCHEM_COMPONENT_COUNT>
1

> <PUBCHEM_CACTVS_TAUTO_COUNT>
1

> <PUBCHEM_CONFORMER_ID>
047E08CB00000001

> <PUBCHEM_MMFF94_ENERGY>
50.9883

> <PUBCHEM_FEATURE_SELFOVERLAP>
30.543

> <PUBCHEM_SHAPE_FINGERPRINT>
10 15 18040439884684039393
10493431 412 18409448102640937599
105312 117 17775003513640593207
10622 236 11820434505333293913
10692045 39 18114451268156476890
10721379 63 18200321996799385302
12293681 160 17847064380575554050
12390115 104 18342746221368119715
12403259 118 17822008709702144357
12422481 6 17676477312084593812
12596602 18 16877938356116984320
12633257 1 16370738023548882443
12788726 201 17346324739092671672
13540713 5 18268406019395320135
13785724 45 17831008036773150530
13885169 86 18335427918955299108
14123256 34 8718826522088645656
14341114 176 18188783743082813985
14341114 328 17458068161816278697
14790565 3 18411702062622926860
14848178 5 10737285748917587301
15081414 286 18412267207658161980
15183329 4 15913335680008876004
15188451 53 12324238390694747653
1601671 61 18410008840902687044
17349148 13 11386373595185153461
17857418 61 10375878467607074220
18222031 100 8862946078483409942
18927931 339 7925638838416892193
19377110 9 17603303782115562641
200 152 8214139647231953695
20281389 69 18412541024507561424
21033648 29 18272361005611431945
21302155 148 18407760326564981461
21756936 100 18341327885459229295
23198884 109 15985389997355911653
23559900 14 18126279744737823082
25122255 55 7853574629828947065
2838139 119 18200583796208503140
2916195 48 18272646887208490696
293599 30 18342740719114067406
312425 54 13407058267845869965
3459 39 18268690818923923344
350125 39 18340768247605971007
3680242 22 18260260846473787896
392239 28 16008752437228452869
44062 13 10375867468601770561
465052 167 8214140776813712128
5104073 3 18261391101129225131
5718773 13 10737587041718135457
57724786 102 17841720608631675385
59682541 52 16702030729863999284
59755656 520 15123521341288510023
633830 44 18338792300193115471
636775 72 18125996320727129928
7226269 152 18060419135778145392
76465 3 9439403527524570254
7808743 9 18410852191742569067
7970288 3 9223242840477152288
960060 61 13901906713410907236

> <PUBCHEM_SHAPE_MULTIPOLES>
473.1
15.89
2.91
1.19
5.08
0.76
-0.03
-12.83
-2.52
-0.92
0.16
0.22
-0.3
-0.02

> <PUBCHEM_SHAPE_SELFOVERLAP>
999.948

> <PUBCHEM_SHAPE_VOLUME>
265.1

> <PUBCHEM_COORDINATE_TYPE>
2
5
10

$$$$
