75536881
  -OEChem-12032416343D

 33 34  0     1  0  0  0  0  0999 V2000
    3.6318   -0.4868    0.2558 O   0  0  0  0  0  0  0  0  0  0  0  0
    1.4099    2.4256    0.4456 O   0  0  0  0  0  0  0  0  0  0  0  0
   -0.7806   -2.6016   -0.8371 O   0  0  0  0  0  0  0  0  0  0  0  0
    0.6646   -1.1549    0.3095 N   0  0  0  0  0  0  0  0  0  0  0  0
   -3.6205    0.1502    1.1018 N   0  0  0  0  0  0  0  0  0  0  0  0
    1.6852    1.0802    0.0592 C   0  0  2  0  0  0  0  0  0  0  0  0
    0.9074    0.1358    0.9736 C   0  0  0  0  0  0  0  0  0  0  0  0
    1.8110   -2.0616    0.2092 C   0  0  0  0  0  0  0  0  0  0  0  0
    3.2003    0.8572    0.0832 C   0  0  0  0  0  0  0  0  0  0  0  0
    2.9744   -1.4474   -0.5630 C   0  0  0  0  0  0  0  0  0  0  0  0
   -0.5598   -1.5433   -0.2503 C   0  0  0  0  0  0  0  0  0  0  0  0
   -1.6953   -0.6192   -0.1417 C   0  0  0  0  0  0  0  0  0  0  0  0
    1.7108    3.3339   -0.6018 C   0  0  0  0  0  0  0  0  0  0  0  0
   -1.9371    0.3368   -1.1220 C   0  0  0  0  0  0  0  0  0  0  0  0
   -2.5586   -0.6710    0.9408 C   0  0  0  0  0  0  0  0  0  0  0  0
   -3.0196    1.1997   -0.9916 C   0  0  0  0  0  0  0  0  0  0  0  0
   -3.8239    1.0666    0.1288 C   0  0  0  0  0  0  0  0  0  0  0  0
    1.3166    0.9268   -0.9646 H   0  0  0  0  0  0  0  0  0  0  0  0
    1.4465   -0.0493    1.9107 H   0  0  0  0  0  0  0  0  0  0  0  0
   -0.0378    0.6011    1.2650 H   0  0  0  0  0  0  0  0  0  0  0  0
    1.5067   -2.9908   -0.2827 H   0  0  0  0  0  0  0  0  0  0  0  0
    2.1134   -2.3085    1.2336 H   0  0  0  0  0  0  0  0  0  0  0  0
    3.6503    1.2376   -0.8416 H   0  0  0  0  0  0  0  0  0  0  0  0
    3.6525    1.4395    0.8948 H   0  0  0  0  0  0  0  0  0  0  0  0
    3.7086   -2.2344   -0.7656 H   0  0  0  0  0  0  0  0  0  0  0  0
    2.6721   -1.0228   -1.5273 H   0  0  0  0  0  0  0  0  0  0  0  0
    1.4099    4.3341   -0.2767 H   0  0  0  0  0  0  0  0  0  0  0  0
    1.1484    3.0902   -1.5087 H   0  0  0  0  0  0  0  0  0  0  0  0
    2.7831    3.3609   -0.8135 H   0  0  0  0  0  0  0  0  0  0  0  0
   -1.2878    0.4182   -1.9895 H   0  0  0  0  0  0  0  0  0  0  0  0
   -2.4204   -1.3952    1.7379 H   0  0  0  0  0  0  0  0  0  0  0  0
   -3.2269    1.9529   -1.7430 H   0  0  0  0  0  0  0  0  0  0  0  0
   -4.6808    1.7154    0.2776 H   0  0  0  0  0  0  0  0  0  0  0  0
  1  9  1  0  0  0  0
  1 10  1  0  0  0  0
  2  6  1  0  0  0  0
  2 13  1  0  0  0  0
  3 11  2  0  0  0  0
  4  7  1  0  0  0  0
  4  8  1  0  0  0  0
  4 11  1  0  0  0  0
  5 15  1  0  0  0  0
  5 17  2  0  0  0  0
  6  7  1  0  0  0  0
  6  9  1  0  0  0  0
  6 18  1  0  0  0  0
  7 19  1  0  0  0  0
  7 20  1  0  0  0  0
  8 10  1  0  0  0  0
  8 21  1  0  0  0  0
  8 22  1  0  0  0  0
  9 23  1  0  0  0  0
  9 24  1  0  0  0  0
 10 25  1  0  0  0  0
 10 26  1  0  0  0  0
 11 12  1  0  0  0  0
 12 14  1  0  0  0  0
 12 15  2  0  0  0  0
 13 27  1  0  0  0  0
 13 28  1  0  0  0  0
 13 29  1  0  0  0  0
 14 16  2  0  0  0  0
 14 30  1  0  0  0  0
 15 31  1  0  0  0  0
 16 17  1  0  0  0  0
 16 32  1  0  0  0  0
 17 33  1  0  0  0  0
M  END
> <PUBCHEM_COMPOUND_CID>
75536881

> <PUBCHEM_CONFORMER_RMSD>
0.6

> <PUBCHEM_CONFORMER_DIVERSEORDER>
6
53
23
13
17
86
24
65
60
42
31
98
104
75
97
39
87
14
80
78
66
21
18
96
26
40
82
11
50
25
34
44
58
76
89
15
46
4
48
94
19
16
103
37
88
67
45
57
62
56
51
83
93
22
100
102
29
3
47
68
92
54
12
64
81
33
95
74
35
101
63
59
84
27
32
55
99
9
73
38
5
71
90
85
77
91
36
10
43
79
61
28
41
72
49
52
69
8
30
70
20
1
7
2

> <PUBCHEM_MMFF94_PARTIAL_CHARGES>
21
1 -0.56
10 0.28
11 0.54
12 0.09
13 0.28
14 -0.15
15 0.16
16 -0.15
17 0.16
2 -0.56
3 -0.57
30 0.15
31 0.15
32 0.15
33 0.15
4 -0.66
5 -0.62
6 0.28
7 0.3
8 0.3
9 0.28

> <PUBCHEM_EFFECTIVE_ROTOR_COUNT>
4.4

> <PUBCHEM_PHARMACOPHORE_FEATURES>
6
1 1 acceptor
1 2 acceptor
1 3 acceptor
1 5 acceptor
6 5 12 14 15 16 17 rings
7 1 4 6 7 8 9 10 rings

> <PUBCHEM_HEAVY_ATOM_COUNT>
17

> <PUBCHEM_ATOM_DEF_STEREO_COUNT>
1

> <PUBCHEM_ATOM_UDEF_STEREO_COUNT>
0

> <PUBCHEM_BOND_DEF_STEREO_COUNT>
0

> <PUBCHEM_BOND_UDEF_STEREO_COUNT>
0

> <PUBCHEM_ISOTOPIC_ATOM_COUNT>
0

> <PUBCHEM_COMPONENT_COUNT>
1

> <PUBCHEM_CACTVS_TAUTO_COUNT>
1

> <PUBCHEM_CONFORMER_ID>
048099F100000006

> <PUBCHEM_MMFF94_ENERGY>
57.3952

> <PUBCHEM_FEATURE_SELFOVERLAP>
30.449

> <PUBCHEM_SHAPE_FINGERPRINT>
10366900 7 17749115491148402203
104564 63 17909833132899468856
10608611 8 18333730221567185617
10922523 26 18410292544777208424
10980938 120 18410008823559203106
11471102 20 18411416176714445922
12633257 1 18114751443077584729
12654215 9 18337103467596453710
128993 33 18189896602788951117
13140716 1 18266734877906003800
14026960 21 18263370338117933019
14178342 30 18126265657698260010
14250199 8 18338506547359801973
14386348 128 18263368160132157861
14648413 74 18336545031447932272
14713325 29 17032770716716603376
15219456 202 18261395503465239739
15309172 13 18413107230267777931
15653759 3 17749394732610061467
15775835 57 18410296942602095543
16945 1 18411693301100431742
18186145 218 18201725015710023614
18219364 16 18334850598193571517
18981168 100 18268413810491465737
20233049 118 18187926106411254036
20671657 1 18339647853145822372
21041028 32 17759517777068965554
21501502 16 18124031488466673254
21524375 3 18049718821891931792
22094290 62 18411979191271867760
23175994 123 18193845842312882022
2334 1 17906165509964596864
23402539 116 18129087953770397686
23558518 356 18120646096259531074
238 59 17830410043642841645
25 1 18336827502778252482
2748010 2 18122894348662033052
3060560 45 18200302213441074087
350125 39 18195810901567352978
3524813 1 18114454570205585981
5939293 188 18410567388514597428
74978 22 18342734165025713198
7832392 63 18413102888013507342
81228 2 16610538541660037272

> <PUBCHEM_SHAPE_MULTIPOLES>
322.28
6.19
2.86
1.01
1.89
1.39
0.01
1.18
-0.38
-1.89
0.58
0.53
0
0.24

> <PUBCHEM_SHAPE_SELFOVERLAP>
666.755

> <PUBCHEM_SHAPE_VOLUME>
181

> <PUBCHEM_COORDINATE_TYPE>
2
5
10

$$$$
