45783443
  -OEChem-12032416263D

 53 56  0     1  0  0  0  0  0999 V2000
   -2.7394    2.1846   -0.8651 O   0  0  0  0  0  0  0  0  0  0  0  0
   -1.1350   -2.1311   -0.3301 O   0  0  0  0  0  0  0  0  0  0  0  0
    1.6826   -3.6052   -1.0987 O   0  0  0  0  0  0  0  0  0  0  0  0
    3.6962    0.6994    1.2679 O   0  0  0  0  0  0  0  0  0  0  0  0
    4.6225   -1.8895    0.8312 O   0  0  0  0  0  0  0  0  0  0  0  0
   -3.5368   -0.9511    0.8774 N   0  0  1  0  0  0  0  0  0  0  0  0
   -1.3116    0.9708    0.3616 N   0  0  0  0  0  0  0  0  0  0  0  0
   -1.4634    2.6969   -1.1322 N   0  0  0  0  0  0  0  0  0  0  0  0
    1.2493    3.0827   -1.0989 N   0  0  0  0  0  0  0  0  0  0  0  0
   -3.8077    0.4443    0.4777 C   0  0  1  0  0  0  0  0  0  0  0  0
   -4.4534    1.0882    1.7185 C   0  0  0  0  0  0  0  0  0  0  0  0
   -4.5596   -0.0352    2.7399 C   0  0  0  0  0  0  0  0  0  0  0  0
   -4.5338   -1.2913    1.8926 C   0  0  0  0  0  0  0  0  0  0  0  0
   -3.5547   -1.8833   -0.2426 C   0  0  0  0  0  0  0  0  0  0  0  0
   -2.5601    1.1724    0.0235 C   0  0  0  0  0  0  0  0  0  0  0  0
   -2.2682   -1.8459   -1.0238 C   0  0  0  0  0  0  0  0  0  0  0  0
   -1.9737   -1.5752   -2.3400 C   0  0  0  0  0  0  0  0  0  0  0  0
   -0.6761    1.9296   -0.3724 C   0  0  0  0  0  0  0  0  0  0  0  0
   -0.1058   -2.0415   -1.2131 C   0  0  0  0  0  0  0  0  0  0  0  0
   -0.5695   -1.7025   -2.4629 C   0  0  0  0  0  0  0  0  0  0  0  0
    0.7478    2.0958   -0.3228 C   0  0  0  0  0  0  0  0  0  0  0  0
    1.2357   -2.3141   -0.6779 C   0  0  0  0  0  0  0  0  0  0  0  0
    1.5199    1.2745    0.4830 C   0  0  0  0  0  0  0  0  0  0  0  0
    2.8951    1.4793    0.4930 C   0  0  0  0  0  0  0  0  0  0  0  0
    2.5902    3.2519   -1.0632 C   0  0  0  0  0  0  0  0  0  0  0  0
    3.4485    2.4847   -0.2921 C   0  0  0  0  0  0  0  0  0  0  0  0
    5.0261    0.4700    0.8030 C   0  0  0  0  0  0  0  0  0  0  0  0
    5.5015   -0.8783    1.3088 C   0  0  0  0  0  0  0  0  0  0  0  0
    5.0337   -3.1807    1.2578 C   0  0  0  0  0  0  0  0  0  0  0  0
   -4.5454    0.4795   -0.3364 H   0  0  0  0  0  0  0  0  0  0  0  0
   -3.8853    1.9317    2.1256 H   0  0  0  0  0  0  0  0  0  0  0  0
   -5.4576    1.4498    1.4656 H   0  0  0  0  0  0  0  0  0  0  0  0
   -5.4657    0.0426    3.3478 H   0  0  0  0  0  0  0  0  0  0  0  0
   -3.6937   -0.0099    3.4132 H   0  0  0  0  0  0  0  0  0  0  0  0
   -5.5214   -1.4714    1.4490 H   0  0  0  0  0  0  0  0  0  0  0  0
   -4.2420   -2.1669    2.4807 H   0  0  0  0  0  0  0  0  0  0  0  0
   -4.4127   -1.7185   -0.9063 H   0  0  0  0  0  0  0  0  0  0  0  0
   -3.6491   -2.9109    0.1343 H   0  0  0  0  0  0  0  0  0  0  0  0
   -2.6810   -1.3168   -3.1150 H   0  0  0  0  0  0  0  0  0  0  0  0
    0.0279   -1.5628   -3.3524 H   0  0  0  0  0  0  0  0  0  0  0  0
    1.9510   -1.5706   -1.0437 H   0  0  0  0  0  0  0  0  0  0  0  0
    1.2421   -2.2894    0.4165 H   0  0  0  0  0  0  0  0  0  0  0  0
    1.0891    0.4896    1.0968 H   0  0  0  0  0  0  0  0  0  0  0  0
    2.9705    4.0530   -1.6884 H   0  0  0  0  0  0  0  0  0  0  0  0
    4.5085    2.7105   -0.3087 H   0  0  0  0  0  0  0  0  0  0  0  0
    2.5809   -3.7228   -0.7460 H   0  0  0  0  0  0  0  0  0  0  0  0
    5.6843    1.2632    1.1736 H   0  0  0  0  0  0  0  0  0  0  0  0
    5.0577    0.4399   -0.2939 H   0  0  0  0  0  0  0  0  0  0  0  0
    6.5218   -1.0712    0.9594 H   0  0  0  0  0  0  0  0  0  0  0  0
    5.4859   -0.8880    2.4049 H   0  0  0  0  0  0  0  0  0  0  0  0
    4.3224   -3.9155    0.8722 H   0  0  0  0  0  0  0  0  0  0  0  0
    5.0379   -3.2408    2.3505 H   0  0  0  0  0  0  0  0  0  0  0  0
    6.0269   -3.4165    0.8634 H   0  0  0  0  0  0  0  0  0  0  0  0
  1  8  1  0  0  0  0
  1 15  1  0  0  0  0
  2 16  1  0  0  0  0
  2 19  1  0  0  0  0
  3 22  1  0  0  0  0
  3 46  1  0  0  0  0
  4 24  1  0  0  0  0
  4 27  1  0  0  0  0
  5 28  1  0  0  0  0
  5 29  1  0  0  0  0
  6 10  1  0  0  0  0
  6 13  1  0  0  0  0
  6 14  1  0  0  0  0
  7 15  2  0  0  0  0
  7 18  1  0  0  0  0
  8 18  2  0  0  0  0
  9 21  2  0  0  0  0
  9 25  1  0  0  0  0
 10 11  1  0  0  0  0
 10 15  1  0  0  0  0
 10 30  1  0  0  0  0
 11 12  1  0  0  0  0
 11 31  1  0  0  0  0
 11 32  1  0  0  0  0
 12 13  1  0  0  0  0
 12 33  1  0  0  0  0
 12 34  1  0  0  0  0
 13 35  1  0  0  0  0
 13 36  1  0  0  0  0
 14 16  1  0  0  0  0
 14 37  1  0  0  0  0
 14 38  1  0  0  0  0
 16 17  2  0  0  0  0
 17 20  1  0  0  0  0
 17 39  1  0  0  0  0
 18 21  1  0  0  0  0
 19 20  2  0  0  0  0
 19 22  1  0  0  0  0
 20 40  1  0  0  0  0
 21 23  1  0  0  0  0
 22 41  1  0  0  0  0
 22 42  1  0  0  0  0
 23 24  2  0  0  0  0
 23 43  1  0  0  0  0
 24 26  1  0  0  0  0
 25 26  2  0  0  0  0
 25 44  1  0  0  0  0
 26 45  1  0  0  0  0
 27 28  1  0  0  0  0
 27 47  1  0  0  0  0
 27 48  1  0  0  0  0
 28 49  1  0  0  0  0
 28 50  1  0  0  0  0
 29 51  1  0  0  0  0
 29 52  1  0  0  0  0
 29 53  1  0  0  0  0
M  END
> <PUBCHEM_COMPOUND_CID>
45783443

> <PUBCHEM_CONFORMER_RMSD>
1

> <PUBCHEM_CONFORMER_DIVERSEORDER>
1
61
49
58
21
84
106
42
93
72
3
40
77
98
69
120
47
57
59
27
110
36
74
29
87
31
104
19
83
116
68
97
38
66
92
114
14
103
2
89
4
54
56
85
76
75
41
81
113
112
73
96
100
78
25
67
111
94
121
101
7
86
82
12
105
22
39
102
119
65
13
64
70
51
11
91
32
43
8
48
15
107
9
108
63
90
5
52
53
118
10
71
55
45
6
18
115
24
30
117
80
34
16
79
46
60
44
62
88
23
99
20
37
95
35
109
50
17
28
33
26

> <PUBCHEM_MMFF94_PARTIAL_CHARGES>
33
1 -0.02
10 0.45
13 0.27
14 0.45
15 0.3
16 -0.04
17 -0.15
18 0.46
19 -0.04
2 -0.28
20 -0.15
21 0.36
22 0.46
23 -0.15
24 0.08
25 0.16
26 -0.15
27 0.28
28 0.28
29 0.28
3 -0.68
39 0.15
4 -0.36
40 0.15
43 0.15
44 0.15
45 0.15
46 0.4
5 -0.56
6 -0.81
7 -0.57
8 -0.41
9 -0.62

> <PUBCHEM_EFFECTIVE_ROTOR_COUNT>
10

> <PUBCHEM_PHARMACOPHORE_FEATURES>
12
1 2 acceptor
1 3 acceptor
1 3 donor
1 4 acceptor
1 5 acceptor
1 6 cation
1 9 acceptor
3 7 8 18 cation
5 1 7 8 15 18 rings
5 2 16 17 19 20 rings
5 6 10 11 12 13 rings
6 9 21 23 24 25 26 rings

> <PUBCHEM_HEAVY_ATOM_COUNT>
29

> <PUBCHEM_ATOM_DEF_STEREO_COUNT>
1

> <PUBCHEM_ATOM_UDEF_STEREO_COUNT>
0

> <PUBCHEM_BOND_DEF_STEREO_COUNT>
0

> <PUBCHEM_BOND_UDEF_STEREO_COUNT>
0

> <PUBCHEM_ISOTOPIC_ATOM_COUNT>
0

> <PUBCHEM_COMPONENT_COUNT>
1

> <PUBCHEM_CACTVS_TAUTO_COUNT>
1

> <PUBCHEM_CONFORMER_ID>
02BA999300000001

> <PUBCHEM_MMFF94_ENERGY>
50.3924

> <PUBCHEM_FEATURE_SELFOVERLAP>
60.903

> <PUBCHEM_SHAPE_FINGERPRINT>
11135926 11 18043243751420989676
12035758 1 17903095343489361777
12422481 6 18271527494383044298
12633257 1 17703514405648027193
12788726 201 17123124171154868581
13004483 165 15837316760767262573
14395042 24 18055339495728541327
14784336 7 17410756374052629623
15274700 242 17969759974990363010
16110190 28 18412822500132910720
16120349 306 18127413568821630809
19319366 153 16606612177179566589
20554085 129 16988291889454326841
21796203 349 18192457305752339416
7064713 232 17988929993440827385
9862522 239 18272091630243350189

> <PUBCHEM_SHAPE_MULTIPOLES>
547.54
10.51
4.31
2.11
5.95
0.47
-0.12
2.81
-8.5
3.54
1.68
-1.75
0.86
-1.78

> <PUBCHEM_SHAPE_SELFOVERLAP>
1171.019

> <PUBCHEM_SHAPE_VOLUME>
305.8

> <PUBCHEM_COORDINATE_TYPE>
2
5
10

$$$$
