40780421
  -OEChem-12032416313D

 50 52  0     1  0  0  0  0  0999 V2000
    5.5079   -1.6499    0.4350 O   0  0  0  0  0  0  0  0  0  0  0  0
   -4.9180    2.1276    0.1900 O   0  5  0  0  0  0  0  0  0  0  0  0
   -4.3346    1.4663   -1.8203 O   0  0  0  0  0  0  0  0  0  0  0  0
    4.4477    0.2026   -0.4811 N   0  0  0  0  0  0  0  0  0  0  0  0
   -2.2367    0.0493    0.4547 N   0  0  0  0  0  0  0  0  0  0  0  0
   -2.2124    1.1697    1.1965 N   0  0  0  0  0  0  0  0  0  0  0  0
    6.5899    0.4007    0.3468 N   0  0  0  0  0  0  0  0  0  0  0  0
   -4.6129    1.2247   -0.6231 N   0  3  0  0  0  0  0  0  0  0  0  0
    1.2750    0.9074   -0.1379 C   0  0  2  0  0  0  0  0  0  0  0  0
    2.1439   -0.2993    0.2729 C   0  0  0  0  0  0  0  0  0  0  0  0
    3.2078   -0.4421   -0.8225 C   0  0  1  0  0  0  0  0  0  0  0  0
   -0.1799    0.7526    0.2412 C   0  0  0  0  0  0  0  0  0  0  0  0
    1.5326    1.0023   -1.6137 C   0  0  0  0  0  0  0  0  0  0  0  0
    2.5885    0.2685   -1.9808 C   0  0  0  0  0  0  0  0  0  0  0  0
   -1.0443   -0.2449   -0.1387 C   0  0  0  0  0  0  0  0  0  0  0  0
   -0.9533    1.5948    1.0623 C   0  0  0  0  0  0  0  0  0  0  0  0
   -0.8363   -1.4282   -0.9979 C   0  0  0  0  0  0  0  0  0  0  0  0
   -0.5282    2.8281    1.7477 C   0  0  0  0  0  0  0  0  0  0  0  0
   -3.4169   -0.6881    0.3533 C   0  0  0  0  0  0  0  0  0  0  0  0
    5.5157   -0.4583    0.1290 C   0  0  0  0  0  0  0  0  0  0  0  0
   -4.5809   -0.1250   -0.1697 C   0  0  0  0  0  0  0  0  0  0  0  0
   -3.4183   -2.0128    0.7898 C   0  0  0  0  0  0  0  0  0  0  0  0
   -5.7461   -0.8866   -0.2564 C   0  0  0  0  0  0  0  0  0  0  0  0
   -4.5836   -2.7746    0.7034 C   0  0  0  0  0  0  0  0  0  0  0  0
    7.8225   -0.0287    0.9644 C   0  0  0  0  0  0  0  0  0  0  0  0
   -5.7476   -2.2115    0.1802 C   0  0  0  0  0  0  0  0  0  0  0  0
    8.7184   -0.7446   -0.0251 C   0  0  0  0  0  0  0  0  0  0  0  0
    1.6757    1.8165    0.3292 H   0  0  0  0  0  0  0  0  0  0  0  0
    2.5795   -0.1487    1.2682 H   0  0  0  0  0  0  0  0  0  0  0  0
    1.5612   -1.2261    0.3309 H   0  0  0  0  0  0  0  0  0  0  0  0
    3.3882   -1.4985   -1.0469 H   0  0  0  0  0  0  0  0  0  0  0  0
    0.9581    1.6168   -2.2926 H   0  0  0  0  0  0  0  0  0  0  0  0
    2.9621    0.2103   -2.9934 H   0  0  0  0  0  0  0  0  0  0  0  0
    4.5422    1.2006   -0.6472 H   0  0  0  0  0  0  0  0  0  0  0  0
   -0.6433   -2.3183   -0.3906 H   0  0  0  0  0  0  0  0  0  0  0  0
   -1.7040   -1.6246   -1.6364 H   0  0  0  0  0  0  0  0  0  0  0  0
    0.0130   -1.3035   -1.6733 H   0  0  0  0  0  0  0  0  0  0  0  0
   -0.1836    3.5716    1.0217 H   0  0  0  0  0  0  0  0  0  0  0  0
   -1.3445    3.2775    2.3230 H   0  0  0  0  0  0  0  0  0  0  0  0
    0.2926    2.6186    2.4414 H   0  0  0  0  0  0  0  0  0  0  0  0
   -2.5288   -2.4685    1.2179 H   0  0  0  0  0  0  0  0  0  0  0  0
    6.5097    1.3682    0.0497 H   0  0  0  0  0  0  0  0  0  0  0  0
   -6.6615   -0.4619   -0.6615 H   0  0  0  0  0  0  0  0  0  0  0  0
   -4.5859   -3.8048    1.0471 H   0  0  0  0  0  0  0  0  0  0  0  0
    8.3224    0.8629    1.3553 H   0  0  0  0  0  0  0  0  0  0  0  0
    7.5859   -0.6896    1.8049 H   0  0  0  0  0  0  0  0  0  0  0  0
   -6.6552   -2.8043    0.1138 H   0  0  0  0  0  0  0  0  0  0  0  0
    8.2386   -1.6469   -0.4178 H   0  0  0  0  0  0  0  0  0  0  0  0
    8.9567   -0.0980   -0.8762 H   0  0  0  0  0  0  0  0  0  0  0  0
    9.6569   -1.0395    0.4543 H   0  0  0  0  0  0  0  0  0  0  0  0
  1 20  2  0  0  0  0
  2  8  1  0  0  0  0
  3  8  2  0  0  0  0
  4 11  1  0  0  0  0
  4 20  1  0  0  0  0
  4 34  1  0  0  0  0
  5  6  1  0  0  0  0
  5 15  1  0  0  0  0
  5 19  1  0  0  0  0
  6 16  2  0  0  0  0
  7 20  1  0  0  0  0
  7 25  1  0  0  0  0
  7 42  1  0  0  0  0
  8 21  1  0  0  0  0
  9 10  1  0  0  0  0
  9 12  1  0  0  0  0
  9 13  1  0  0  0  0
  9 28  1  0  0  0  0
 10 11  1  0  0  0  0
 10 29  1  0  0  0  0
 10 30  1  0  0  0  0
 11 14  1  0  0  0  0
 11 31  1  0  0  0  0
 12 15  2  0  0  0  0
 12 16  1  0  0  0  0
 13 14  2  0  0  0  0
 13 32  1  0  0  0  0
 14 33  1  0  0  0  0
 15 17  1  0  0  0  0
 16 18  1  0  0  0  0
 17 35  1  0  0  0  0
 17 36  1  0  0  0  0
 17 37  1  0  0  0  0
 18 38  1  0  0  0  0
 18 39  1  0  0  0  0
 18 40  1  0  0  0  0
 19 21  1  0  0  0  0
 19 22  2  0  0  0  0
 21 23  2  0  0  0  0
 22 24  1  0  0  0  0
 22 41  1  0  0  0  0
 23 26  1  0  0  0  0
 23 43  1  0  0  0  0
 24 26  2  0  0  0  0
 24 44  1  0  0  0  0
 25 27  1  0  0  0  0
 25 45  1  0  0  0  0
 25 46  1  0  0  0  0
 26 47  1  0  0  0  0
 27 48  1  0  0  0  0
 27 49  1  0  0  0  0
 27 50  1  0  0  0  0
M  CHG  2   2  -1   8   1
M  END
> <PUBCHEM_COMPOUND_CID>
40780421

> <PUBCHEM_CONFORMER_RMSD>
0.8

> <PUBCHEM_CONFORMER_DIVERSEORDER>
1
76
47
137
70
74
68
13
112
5
122
100
147
59
25
126
91
99
95
44
117
103
31
41
77
119
97
109
11
18
52
145
92
128
105
67
42
38
12
84
58
111
22
93
69
60
53
61
90
118
107
83
32
144
23
28
17
94
75
24
115
40
30
102
141
104
29
51
16
7
132
63
123
140
78
121
88
143
33
129
82
110
79
48
55
89
34
73
87
21
148
96
43
50
106
138
142
139
81
20
116
57
135
15
45
133
4
131
85
10
113
56
98
86
8
134
62
9
6
108
3
146
127
19
37
136
80
46
124
64
27
101
39
71
2
125
35
36
120
65
54
49
66
72
26
14
114
130

> <PUBCHEM_MMFF94_PARTIAL_CHARGES>
33
1 -0.57
11 0.44
12 -0.18
13 -0.29
14 -0.29
15 -0.33
16 0.11
17 0.18
18 0.18
19 -0.02
2 -0.52
20 0.69
21 0.13
22 -0.15
23 -0.15
24 -0.15
25 0.3
26 -0.15
3 -0.52
32 0.15
33 0.15
34 0.37
4 -0.73
41 0.15
42 0.37
43 0.15
44 0.15
47 0.15
5 0.59
6 -0.71
7 -0.73
8 0.91
9 0.32

> <PUBCHEM_EFFECTIVE_ROTOR_COUNT>
7.6

> <PUBCHEM_PHARMACOPHORE_FEATURES>
10
1 1 acceptor
1 2 acceptor
1 2 anion
1 3 acceptor
1 4 donor
1 6 acceptor
1 7 donor
5 5 6 12 15 16 rings
5 9 10 11 13 14 rings
6 19 21 22 23 24 26 rings

> <PUBCHEM_HEAVY_ATOM_COUNT>
27

> <PUBCHEM_ATOM_DEF_STEREO_COUNT>
2

> <PUBCHEM_ATOM_UDEF_STEREO_COUNT>
0

> <PUBCHEM_BOND_DEF_STEREO_COUNT>
0

> <PUBCHEM_BOND_UDEF_STEREO_COUNT>
0

> <PUBCHEM_ISOTOPIC_ATOM_COUNT>
0

> <PUBCHEM_COMPONENT_COUNT>
1

> <PUBCHEM_CACTVS_TAUTO_COUNT>
3

> <PUBCHEM_CONFORMER_ID>
026E428500000001

> <PUBCHEM_MMFF94_ENERGY>
69.8384

> <PUBCHEM_FEATURE_SELFOVERLAP>
50.879

> <PUBCHEM_SHAPE_FINGERPRINT>
10 15 17846777443191531562
10165383 225 12035443931282516981
10670039 82 12396565343496368822
11135609 99 18337112388587023158
11315181 36 18334860532157495560
12166972 35 18187930624717343228
12236239 1 18260550030768705374
12596602 18 18408039615993831682
12741549 16 17775289404877854145
14068700 675 18040715879319637708
14251751 18 18335423512392160599
15021287 119 16805327699197820975
15119646 104 16515953788815984666
15183329 4 14418128522405986120
1813 80 16772976794882056693
18681886 176 18261107521665829994
19489759 90 18187364341969084943
20511986 3 18187633683594697330
21304303 282 17980480062447200065
22224240 67 15985104132928029622
23198884 109 16660645180549859943
23402539 116 17775563122114946805
23559900 14 18412819196691520408
3004659 81 18040433326073715042
32027 91 17909840838124319158
559249 180 18186518804331511835
5758199 1 13973967614932395022
59682541 35 17917426575756220898
7226269 152 18342455890132311553
9862886 166 18410855468902855633

> <PUBCHEM_SHAPE_MULTIPOLES>
513.13
18.71
2.31
1.36
33.88
0.24
-0.39
-8.14
2.3
-3.69
0.85
0.1
0.54
0.52

> <PUBCHEM_SHAPE_SELFOVERLAP>
1095.925

> <PUBCHEM_SHAPE_VOLUME>
287.8

> <PUBCHEM_COORDINATE_TYPE>
2
5
10

$$$$
