11911724
  -OEChem-12032416383D

 68 72  0     1  0  0  0  0  0999 V2000
   -0.0565    1.5189    1.8871 O   0  0  0  0  0  0  0  0  0  0  0  0
   -0.7824    4.3340    0.7537 O   0  0  0  0  0  0  0  0  0  0  0  0
   -4.8216    1.6358    2.1277 O   0  0  0  0  0  0  0  0  0  0  0  0
   -2.9553    1.3910    0.7728 N   0  0  0  0  0  0  0  0  0  0  0  0
    1.6559    3.2644   -0.8239 N   0  0  0  0  0  0  0  0  0  0  0  0
    3.0334    1.3656   -0.7660 N   0  0  0  0  0  0  0  0  0  0  0  0
    2.8724    2.7171   -2.7545 N   0  0  0  0  0  0  0  0  0  0  0  0
   -6.7478   -3.2443   -1.4414 N   0  0  0  0  0  0  0  0  0  0  0  0
    5.8657   -3.8085    1.5561 N   0  0  0  0  0  0  0  0  0  0  0  0
   -1.1617    2.9972    0.3865 C   0  0  1  0  0  0  0  0  0  0  0  0
    0.0544    2.1131    0.5828 C   0  0  1  0  0  0  0  0  0  0  0  0
   -2.1757    2.4508    1.3654 C   0  0  2  0  0  0  0  0  0  0  0  0
    1.2197    3.0733    0.5420 C   0  0  2  0  0  0  0  0  0  0  0  0
   -1.2956    1.9263    2.4860 C   0  0  0  0  0  0  0  0  0  0  0  0
    0.6141    4.3550    1.0839 C   0  0  0  0  0  0  0  0  0  0  0  0
   -4.2316    1.0691    1.2116 C   0  0  0  0  0  0  0  0  0  0  0  0
    2.5469    2.4239   -1.4674 C   0  0  0  0  0  0  0  0  0  0  0  0
   -4.8917   -0.0651    0.5151 C   0  0  0  0  0  0  0  0  0  0  0  0
    3.8997    0.5673   -1.4236 C   0  0  0  0  0  0  0  0  0  0  0  0
   -5.8434   -0.7994    1.1919 C   0  0  0  0  0  0  0  0  0  0  0  0
   -4.5330   -0.3471   -0.7869 C   0  0  0  0  0  0  0  0  0  0  0  0
    3.7436    1.8773   -3.3512 C   0  0  0  0  0  0  0  0  0  0  0  0
    4.2948    0.7758   -2.7293 C   0  0  0  0  0  0  0  0  0  0  0  0
   -6.4641   -1.8635    0.5375 C   0  0  0  0  0  0  0  0  0  0  0  0
   -5.1538   -1.4111   -1.4412 C   0  0  0  0  0  0  0  0  0  0  0  0
    4.4028   -0.5504   -0.6614 C   0  0  0  0  0  0  0  0  0  0  0  0
   -6.1192   -2.1693   -0.7789 C   0  0  0  0  0  0  0  0  0  0  0  0
    3.6155   -1.1292    0.3365 C   0  0  0  0  0  0  0  0  0  0  0  0
    5.6778   -1.0583   -0.9200 C   0  0  0  0  0  0  0  0  0  0  0  0
    4.1008   -2.2104    1.0722 C   0  0  0  0  0  0  0  0  0  0  0  0
    6.1630   -2.1396   -0.1844 C   0  0  0  0  0  0  0  0  0  0  0  0
    5.3746   -2.7156    0.8117 C   0  0  0  0  0  0  0  0  0  0  0  0
   -8.1073   -3.6187   -1.1063 C   0  0  0  0  0  0  0  0  0  0  0  0
   -6.0473   -3.9796   -2.4755 C   0  0  0  0  0  0  0  0  0  0  0  0
    6.8033   -4.7396    0.9609 C   0  0  0  0  0  0  0  0  0  0  0  0
    5.4498   -4.0063    2.9303 C   0  0  0  0  0  0  0  0  0  0  0  0
   -1.5080    3.0275   -0.6517 H   0  0  0  0  0  0  0  0  0  0  0  0
    0.1057    1.2949   -0.1426 H   0  0  0  0  0  0  0  0  0  0  0  0
   -2.8575    3.2193    1.7456 H   0  0  0  0  0  0  0  0  0  0  0  0
    2.0600    2.7753    1.1796 H   0  0  0  0  0  0  0  0  0  0  0  0
   -1.0630    2.7195    3.2049 H   0  0  0  0  0  0  0  0  0  0  0  0
   -1.7275    1.0825    3.0327 H   0  0  0  0  0  0  0  0  0  0  0  0
    0.6872    4.3898    2.1766 H   0  0  0  0  0  0  0  0  0  0  0  0
    1.0675    5.2663    0.6817 H   0  0  0  0  0  0  0  0  0  0  0  0
   -2.4875    0.8053    0.0890 H   0  0  0  0  0  0  0  0  0  0  0  0
    1.2598    4.0193   -1.3725 H   0  0  0  0  0  0  0  0  0  0  0  0
   -6.1175   -0.5787    2.2193 H   0  0  0  0  0  0  0  0  0  0  0  0
   -3.8145    0.2411   -1.3482 H   0  0  0  0  0  0  0  0  0  0  0  0
    3.9897    2.1193   -4.3795 H   0  0  0  0  0  0  0  0  0  0  0  0
    4.9702    0.1300   -3.2755 H   0  0  0  0  0  0  0  0  0  0  0  0
   -7.2023   -2.4419    1.0859 H   0  0  0  0  0  0  0  0  0  0  0  0
   -4.8769   -1.6103   -2.4726 H   0  0  0  0  0  0  0  0  0  0  0  0
    2.6132   -0.7682    0.5557 H   0  0  0  0  0  0  0  0  0  0  0  0
    6.3359   -0.6228   -1.6673 H   0  0  0  0  0  0  0  0  0  0  0  0
    3.4565   -2.6451    1.8311 H   0  0  0  0  0  0  0  0  0  0  0  0
    7.1657   -2.4981   -0.3999 H   0  0  0  0  0  0  0  0  0  0  0  0
   -8.1304   -4.2161   -0.1889 H   0  0  0  0  0  0  0  0  0  0  0  0
   -8.5593   -4.2211   -1.9024 H   0  0  0  0  0  0  0  0  0  0  0  0
   -8.7460   -2.7375   -0.9776 H   0  0  0  0  0  0  0  0  0  0  0  0
   -6.5117   -4.9569   -2.6486 H   0  0  0  0  0  0  0  0  0  0  0  0
   -5.0053   -4.1723   -2.1957 H   0  0  0  0  0  0  0  0  0  0  0  0
   -6.0692   -3.4323   -3.4237 H   0  0  0  0  0  0  0  0  0  0  0  0
    6.5259   -4.9848   -0.0706 H   0  0  0  0  0  0  0  0  0  0  0  0
    6.8250   -5.6856    1.5137 H   0  0  0  0  0  0  0  0  0  0  0  0
    7.8183   -4.3286    0.9716 H   0  0  0  0  0  0  0  0  0  0  0  0
    4.4594   -4.4714    2.9728 H   0  0  0  0  0  0  0  0  0  0  0  0
    5.4260   -3.0600    3.4825 H   0  0  0  0  0  0  0  0  0  0  0  0
    6.1454   -4.6642    3.4631 H   0  0  0  0  0  0  0  0  0  0  0  0
  1 11  1  0  0  0  0
  1 14  1  0  0  0  0
  2 10  1  0  0  0  0
  2 15  1  0  0  0  0
  3 16  2  0  0  0  0
  4 12  1  0  0  0  0
  4 16  1  0  0  0  0
  4 45  1  0  0  0  0
  5 13  1  0  0  0  0
  5 17  1  0  0  0  0
  5 46  1  0  0  0  0
  6 17  1  0  0  0  0
  6 19  2  0  0  0  0
  7 17  2  0  0  0  0
  7 22  1  0  0  0  0
  8 27  1  0  0  0  0
  8 33  1  0  0  0  0
  8 34  1  0  0  0  0
  9 32  1  0  0  0  0
  9 35  1  0  0  0  0
  9 36  1  0  0  0  0
 10 11  1  0  0  0  0
 10 12  1  0  0  0  0
 10 37  1  0  0  0  0
 11 13  1  0  0  0  0
 11 38  1  0  0  0  0
 12 14  1  0  0  0  0
 12 39  1  0  0  0  0
 13 15  1  0  0  0  0
 13 40  1  0  0  0  0
 14 41  1  0  0  0  0
 14 42  1  0  0  0  0
 15 43  1  0  0  0  0
 15 44  1  0  0  0  0
 16 18  1  0  0  0  0
 18 20  2  0  0  0  0
 18 21  1  0  0  0  0
 19 23  1  0  0  0  0
 19 26  1  0  0  0  0
 20 24  1  0  0  0  0
 20 47  1  0  0  0  0
 21 25  2  0  0  0  0
 21 48  1  0  0  0  0
 22 23  2  0  0  0  0
 22 49  1  0  0  0  0
 23 50  1  0  0  0  0
 24 27  2  0  0  0  0
 24 51  1  0  0  0  0
 25 27  1  0  0  0  0
 25 52  1  0  0  0  0
 26 28  2  0  0  0  0
 26 29  1  0  0  0  0
 28 30  1  0  0  0  0
 28 53  1  0  0  0  0
 29 31  2  0  0  0  0
 29 54  1  0  0  0  0
 30 32  2  0  0  0  0
 30 55  1  0  0  0  0
 31 32  1  0  0  0  0
 31 56  1  0  0  0  0
 33 57  1  0  0  0  0
 33 58  1  0  0  0  0
 33 59  1  0  0  0  0
 34 60  1  0  0  0  0
 34 61  1  0  0  0  0
 34 62  1  0  0  0  0
 35 63  1  0  0  0  0
 35 64  1  0  0  0  0
 35 65  1  0  0  0  0
 36 66  1  0  0  0  0
 36 67  1  0  0  0  0
 36 68  1  0  0  0  0
M  END
> <PUBCHEM_COMPOUND_CID>
11911724

> <PUBCHEM_CONFORMER_RMSD>
1

> <PUBCHEM_CONFORMER_DIVERSEORDER>
1
17
31
5
9
23
4
16
35
13
30
36
7
32
8
15
29
25
20
14
33
26
27
34
28
38
24
22
11
39
3
21
19
12
18
10
37
2
6

> <PUBCHEM_MMFF94_PARTIAL_CHARGES>
47
1 -0.56
10 0.28
11 0.28
12 0.3
13 0.37
14 0.28
15 0.28
16 0.54
17 0.72
18 0.09
19 0.31
2 -0.56
20 -0.15
21 -0.15
22 0.16
23 -0.15
24 -0.15
25 -0.15
27 0.1
28 -0.15
29 -0.15
3 -0.57
30 -0.15
31 -0.15
32 0.1
33 0.37
34 0.37
35 0.37
36 0.37
4 -0.73
45 0.37
46 0.4
47 0.15
48 0.15
49 0.15
5 -0.87
50 0.15
51 0.15
52 0.15
53 0.15
54 0.15
55 0.15
56 0.15
6 -0.62
7 -0.62
8 -0.84
9 -0.84

> <PUBCHEM_EFFECTIVE_ROTOR_COUNT>
9.2

> <PUBCHEM_PHARMACOPHORE_FEATURES>
14
1 1 acceptor
1 2 acceptor
1 3 acceptor
1 4 donor
1 5 donor
1 6 acceptor
1 8 cation
1 9 cation
4 5 6 7 17 cation
5 1 10 11 12 14 rings
5 2 10 11 13 15 rings
6 18 20 21 24 25 27 rings
6 26 28 29 30 31 32 rings
6 6 7 17 19 22 23 rings

> <PUBCHEM_HEAVY_ATOM_COUNT>
36

> <PUBCHEM_ATOM_DEF_STEREO_COUNT>
4

> <PUBCHEM_ATOM_UDEF_STEREO_COUNT>
0

> <PUBCHEM_BOND_DEF_STEREO_COUNT>
0

> <PUBCHEM_BOND_UDEF_STEREO_COUNT>
0

> <PUBCHEM_ISOTOPIC_ATOM_COUNT>
0

> <PUBCHEM_COMPONENT_COUNT>
1

> <PUBCHEM_CACTVS_TAUTO_COUNT>
6

> <PUBCHEM_CONFORMER_ID>
00B5C22C00000001

> <PUBCHEM_MMFF94_ENERGY>
141.4036

> <PUBCHEM_FEATURE_SELFOVERLAP>
71.754

> <PUBCHEM_SHAPE_FINGERPRINT>
10622 236 18188213074798894248
10908659 184 18199487548819909699
11069576 57 18114480989219232700
11135609 149 18186513302663503236
11135926 11 17171845507541950404
11227150 75 18189038855239597450
11478447 58 18051962907697927639
11497681 19 18191591849063573558
11607047 403 18198609125149839344
11828042 38 17749679583674843555
131258 38 18266731570923623854
14040221 275 15984810512142866630
14068700 675 18337390418704056864
14340393 91 17677316222424268383
15320294 125 18270689645469569293
15419009 47 17606393246692483941
15968369 26 17827076513397484824
17324776 126 18262792948306427194
19303781 99 18042129769309792290
19315092 285 18334579044496519228
19319366 153 18191317180955737588
19841028 212 17772752921826444095
20156587 161 18262785264404154514
20775438 99 18190736642594261546
208703 8 18272937128202968455
21458453 9 15625923357856949204
21585483 132 18410853295808374035
21599406 157 17313950869644648515
21792938 131 18200027478239215579
24204213 148 18338232786672167648
25025965 108 17245259705724046474
25222932 49 18200880685665227148
4112364 45 10087654714727403939
50009960 94 18130208419999934426
57527295 17 18339099171032366001
59025328 239 17676494908829915052
6058803 2 18047219400488717020
6201460 15 18338516309536642363
636783 263 17841409730368029567
6636735 143 14692576499066118119
6677587 24 16664312206384578636
6691757 9 17694786220523249736
96874 4 18410854339147537555
9831354 38 18261946474708180187

> <PUBCHEM_SHAPE_MULTIPOLES>
693.37
21.14
6.92
2.86
18.19
1.92
-1.05
35.37
-3.51
-3.33
1.56
-1.89
-0.11
-10.54

> <PUBCHEM_SHAPE_SELFOVERLAP>
1505.593

> <PUBCHEM_SHAPE_VOLUME>
379.6

> <PUBCHEM_COORDINATE_TYPE>
2
5
10

$$$$
