75367805
  -OEChem-12032416403D

 51 52  0     1  0  0  0  0  0999 V2000
    2.5678    0.3240   -0.9001 O   0  0  0  0  0  0  0  0  0  0  0  0
    1.7887    3.8360   -0.7766 O   0  0  0  0  0  0  0  0  0  0  0  0
   -4.7510   -2.3116   -0.9961 O   0  0  0  0  0  0  0  0  0  0  0  0
   -0.4066    2.0545    0.5396 N   0  0  2  0  0  0  0  0  0  0  0  0
    1.9509    1.4670   -0.3058 C   0  0  2  0  0  0  0  0  0  0  0  0
    0.6107    1.0245    0.3026 C   0  0  0  0  0  0  0  0  0  0  0  0
    0.1295    3.3410    0.9866 C   0  0  0  0  0  0  0  0  0  0  0  0
    1.8300    2.5448   -1.3747 C   0  0  0  0  0  0  0  0  0  0  0  0
   -1.4275    1.5508    1.4592 C   0  0  0  0  0  0  0  0  0  0  0  0
    0.5287    4.1881   -0.2224 C   0  0  0  0  0  0  0  0  0  0  0  0
    3.2100   -0.4805    0.0761 C   0  0  0  0  0  0  0  0  0  0  0  0
    3.8600   -1.6694   -0.6214 C   0  0  0  0  0  0  0  0  0  0  0  0
    4.5759   -2.6341    0.3378 C   0  0  0  0  0  0  0  0  0  0  0  0
   -2.3127    0.5230    0.8057 C   0  0  0  0  0  0  0  0  0  0  0  0
    3.5760   -3.1982    1.3499 C   0  0  0  0  0  0  0  0  0  0  0  0
    5.2678   -3.7815   -0.3992 C   0  0  0  0  0  0  0  0  0  0  0  0
   -3.3073    0.9242   -0.0862 C   0  0  0  0  0  0  0  0  0  0  0  0
   -2.1376   -0.8308    1.0922 C   0  0  0  0  0  0  0  0  0  0  0  0
   -4.1268   -0.0282   -0.6915 C   0  0  0  0  0  0  0  0  0  0  0  0
   -2.9572   -1.7835    0.4870 C   0  0  0  0  0  0  0  0  0  0  0  0
   -3.9518   -1.3821   -0.4048 C   0  0  0  0  0  0  0  0  0  0  0  0
   -4.5174   -3.6781   -0.6580 C   0  0  0  0  0  0  0  0  0  0  0  0
    2.5953    1.8622    0.4922 H   0  0  0  0  0  0  0  0  0  0  0  0
    0.1819    0.2563   -0.3541 H   0  0  0  0  0  0  0  0  0  0  0  0
    0.8421    0.5148    1.2474 H   0  0  0  0  0  0  0  0  0  0  0  0
    0.9599    3.2133    1.6911 H   0  0  0  0  0  0  0  0  0  0  0  0
   -0.6479    3.9122    1.5096 H   0  0  0  0  0  0  0  0  0  0  0  0
    2.7202    2.5261   -2.0141 H   0  0  0  0  0  0  0  0  0  0  0  0
    0.9720    2.3861   -2.0393 H   0  0  0  0  0  0  0  0  0  0  0  0
   -2.0951    2.3634    1.7789 H   0  0  0  0  0  0  0  0  0  0  0  0
   -0.9870    1.1641    2.3883 H   0  0  0  0  0  0  0  0  0  0  0  0
   -0.2408    4.1757   -1.0045 H   0  0  0  0  0  0  0  0  0  0  0  0
    0.6208    5.2302    0.1039 H   0  0  0  0  0  0  0  0  0  0  0  0
    2.4718   -0.8296    0.8010 H   0  0  0  0  0  0  0  0  0  0  0  0
    3.9769    0.1035    0.5983 H   0  0  0  0  0  0  0  0  0  0  0  0
    3.0982   -2.2081   -1.2006 H   0  0  0  0  0  0  0  0  0  0  0  0
    4.5755   -1.2939   -1.3646 H   0  0  0  0  0  0  0  0  0  0  0  0
    5.3456   -2.0777    0.8875 H   0  0  0  0  0  0  0  0  0  0  0  0
    2.7065   -3.6405    0.8517 H   0  0  0  0  0  0  0  0  0  0  0  0
    3.2246   -2.4304    2.0454 H   0  0  0  0  0  0  0  0  0  0  0  0
    4.0441   -3.9793    1.9595 H   0  0  0  0  0  0  0  0  0  0  0  0
    4.5445   -4.3906   -0.9519 H   0  0  0  0  0  0  0  0  0  0  0  0
    5.7979   -4.4345    0.3021 H   0  0  0  0  0  0  0  0  0  0  0  0
    6.0003   -3.3936   -1.1148 H   0  0  0  0  0  0  0  0  0  0  0  0
   -3.4531    1.9760   -0.3180 H   0  0  0  0  0  0  0  0  0  0  0  0
   -1.3655   -1.1562    1.7847 H   0  0  0  0  0  0  0  0  0  0  0  0
   -4.8997    0.2902   -1.3856 H   0  0  0  0  0  0  0  0  0  0  0  0
   -2.7665   -2.8173    0.7540 H   0  0  0  0  0  0  0  0  0  0  0  0
   -5.2422   -4.2780   -1.2181 H   0  0  0  0  0  0  0  0  0  0  0  0
   -4.7004   -3.8665    0.4053 H   0  0  0  0  0  0  0  0  0  0  0  0
   -3.5206   -4.0056   -0.9723 H   0  0  0  0  0  0  0  0  0  0  0  0
  1  5  1  0  0  0  0
  1 11  1  0  0  0  0
  2  8  1  0  0  0  0
  2 10  1  0  0  0  0
  3 21  1  0  0  0  0
  3 22  1  0  0  0  0
  4  6  1  0  0  0  0
  4  7  1  0  0  0  0
  4  9  1  0  0  0  0
  5  6  1  0  0  0  0
  5  8  1  0  0  0  0
  5 23  1  0  0  0  0
  6 24  1  0  0  0  0
  6 25  1  0  0  0  0
  7 10  1  0  0  0  0
  7 26  1  0  0  0  0
  7 27  1  0  0  0  0
  8 28  1  0  0  0  0
  8 29  1  0  0  0  0
  9 14  1  0  0  0  0
  9 30  1  0  0  0  0
  9 31  1  0  0  0  0
 10 32  1  0  0  0  0
 10 33  1  0  0  0  0
 11 12  1  0  0  0  0
 11 34  1  0  0  0  0
 11 35  1  0  0  0  0
 12 13  1  0  0  0  0
 12 36  1  0  0  0  0
 12 37  1  0  0  0  0
 13 15  1  0  0  0  0
 13 16  1  0  0  0  0
 13 38  1  0  0  0  0
 14 17  2  0  0  0  0
 14 18  1  0  0  0  0
 15 39  1  0  0  0  0
 15 40  1  0  0  0  0
 15 41  1  0  0  0  0
 16 42  1  0  0  0  0
 16 43  1  0  0  0  0
 16 44  1  0  0  0  0
 17 19  1  0  0  0  0
 17 45  1  0  0  0  0
 18 20  2  0  0  0  0
 18 46  1  0  0  0  0
 19 21  2  0  0  0  0
 19 47  1  0  0  0  0
 20 21  1  0  0  0  0
 20 48  1  0  0  0  0
 22 49  1  0  0  0  0
 22 50  1  0  0  0  0
 22 51  1  0  0  0  0
M  END
> <PUBCHEM_COMPOUND_CID>
75367805

> <PUBCHEM_CONFORMER_RMSD>
1

> <PUBCHEM_CONFORMER_DIVERSEORDER>
1
69
122
138
118
21
87
113
129
49
120
44
64
124
83
70
23
77
111
68
81
101
106
88
59
72
52
65
142
97
13
56
46
99
10
133
108
36
74
73
29
132
53
37
15
137
5
116
58
76
92
20
63
80
38
112
35
85
60
31
50
107
114
71
61
86
102
134
103
43
128
131
66
67
41
27
24
105
16
45
130
55
119
30
42
135
139
78
3
40
7
51
104
90
117
22
34
100
95
110
25
33
4
115
123
141
79
48
127
14
57
2
39
94
47
93
75
140
98
19
121
12
11
109
84
96
82
32
26
18
9
17
91
62
126
136
6
8
125
89
28
54

> <PUBCHEM_MMFF94_PARTIAL_CHARGES>
22
1 -0.56
10 0.28
11 0.28
14 -0.14
17 -0.15
18 -0.15
19 -0.15
2 -0.56
20 -0.15
21 0.08
22 0.28
3 -0.36
4 -0.81
45 0.15
46 0.15
47 0.15
48 0.15
5 0.28
6 0.27
7 0.27
8 0.28
9 0.41

> <PUBCHEM_EFFECTIVE_ROTOR_COUNT>
8.4

> <PUBCHEM_PHARMACOPHORE_FEATURES>
7
1 1 acceptor
1 2 acceptor
1 3 acceptor
1 4 cation
3 13 15 16 hydrophobe
6 14 17 18 19 20 21 rings
7 2 4 5 6 7 8 10 rings

> <PUBCHEM_HEAVY_ATOM_COUNT>
22

> <PUBCHEM_ATOM_DEF_STEREO_COUNT>
1

> <PUBCHEM_ATOM_UDEF_STEREO_COUNT>
0

> <PUBCHEM_BOND_DEF_STEREO_COUNT>
0

> <PUBCHEM_BOND_UDEF_STEREO_COUNT>
0

> <PUBCHEM_ISOTOPIC_ATOM_COUNT>
0

> <PUBCHEM_COMPONENT_COUNT>
1

> <PUBCHEM_CACTVS_TAUTO_COUNT>
1

> <PUBCHEM_CONFORMER_ID>
047E057D00000001

> <PUBCHEM_MMFF94_ENERGY>
68.3452

> <PUBCHEM_FEATURE_SELFOVERLAP>
35.522

> <PUBCHEM_SHAPE_FINGERPRINT>
10042902 136 18270407075345296182
10483366 6 17830721072685537821
10871710 139 17756993298313394690
11069576 57 18196084662877876110
11315621 246 18052271605046922078
11552529 35 17981324487613734800
12107183 9 18270698489123886193
12390115 104 9150589353964686890
12553582 1 18192172437571395200
12788726 201 17828762846396292066
13004483 165 18191865622150832384
14100547 121 17472413253959173594
14844126 61 17830460484002249784
15342168 16 7925648691267210531
17492 89 18339642355867550663
19032999 76 18191008037783972618
19319366 153 17622160591204972173
20621476 51 17975970969529933690
20626108 58 18413665807786178098
20775530 9 18408608045571518722
21452121 199 18412261748781018168
235170 7 17608349561830766407
23559900 14 18340475764364200307
255183 313 17695078703516711105
3027735 51 17691674594036095237
312425 83 17603583066954586061
397830 11 17909810070039050370
4017518 198 16969140337791416662
4280585 95 18335973169685662130
44062 13 18336263453719418031
463206 1 18334579014342518603
484985 159 17830445086349685038
556388 4 18197217160007433063
5924683 9 17977943489226513106
59682541 52 18054203687695397471
6433294 58 17979355588063070895
6438754 60 18334286544296782155
88748 71 18410298046899801171
9709674 26 18262801903407151643

> <PUBCHEM_SHAPE_MULTIPOLES>
430.16
10.3
6
1.21
3.46
1.63
0.14
-16.19
-1.91
2.59
-0.73
-0.03
0.11
-2.01

> <PUBCHEM_SHAPE_SELFOVERLAP>
865.819

> <PUBCHEM_SHAPE_VOLUME>
250.8

> <PUBCHEM_COORDINATE_TYPE>
2
5
10

$$$$
