7143719
  -OEChem-12032416213D

 58 63  0     1  0  0  0  0  0999 V2000
    0.5671   -1.1412   -2.0045 O   0  0  0  0  0  0  0  0  0  0  0  0
   -3.0502    0.8600    2.0537 O   0  0  0  0  0  0  0  0  0  0  0  0
   -1.1216   -2.0228   -0.6590 N   0  0  0  0  0  0  0  0  0  0  0  0
   -3.7793   -0.6493    0.4583 N   0  0  0  0  0  0  0  0  0  0  0  0
   -3.5485    1.6374   -0.0739 N   0  0  0  0  0  0  0  0  0  0  0  0
   -3.5424   -2.2473   -1.4575 C   0  0  2  0  0  0  0  0  0  0  0  0
   -2.9361   -2.9647    0.8123 C   0  0  2  0  0  0  0  0  0  0  0  0
   -3.6170   -3.4115   -0.4788 C   0  0  0  0  0  0  0  0  0  0  0  0
   -2.0687   -1.9708   -1.7807 C   0  0  0  0  0  0  0  0  0  0  0  0
   -4.2504   -1.0000   -0.8912 C   0  0  0  0  0  0  0  0  0  0  0  0
   -3.7078   -1.7714    1.4025 C   0  0  0  0  0  0  0  0  0  0  0  0
   -1.4905   -2.5735    0.5703 C   0  0  0  0  0  0  0  0  0  0  0  0
   -0.5767   -2.7233    1.5423 C   0  0  0  0  0  0  0  0  0  0  0  0
    0.1951   -1.5964   -0.9215 C   0  0  0  0  0  0  0  0  0  0  0  0
   -3.4217    0.6449    0.8971 C   0  0  0  0  0  0  0  0  0  0  0  0
    1.1871   -1.7386    0.2013 C   0  0  0  0  0  0  0  0  0  0  0  0
    0.7795   -2.2929    1.3529 C   0  0  0  0  0  0  0  0  0  0  0  0
    2.5774   -1.2735    0.0548 C   0  0  0  0  0  0  0  0  0  0  0  0
    2.9162    0.0365    0.3966 C   0  0  0  0  0  0  0  0  0  0  0  0
   -2.8466    2.8663   -0.1393 C   0  0  0  0  0  0  0  0  0  0  0  0
    3.5547   -2.1417   -0.4245 C   0  0  0  0  0  0  0  0  0  0  0  0
    4.2371    0.4943    0.2627 C   0  0  0  0  0  0  0  0  0  0  0  0
    4.8721   -1.7041   -0.5635 C   0  0  0  0  0  0  0  0  0  0  0  0
    5.2298   -0.3890   -0.2244 C   0  0  0  0  0  0  0  0  0  0  0  0
   -3.1622    3.7916   -1.1302 C   0  0  0  0  0  0  0  0  0  0  0  0
   -1.8461    3.1413    0.7885 C   0  0  0  0  0  0  0  0  0  0  0  0
    4.5947    1.8093    0.6023 C   0  0  0  0  0  0  0  0  0  0  0  0
    6.5507    0.0689   -0.3582 C   0  0  0  0  0  0  0  0  0  0  0  0
   -2.4717    5.0019   -1.1937 C   0  0  0  0  0  0  0  0  0  0  0  0
   -1.1556    4.3517    0.7251 C   0  0  0  0  0  0  0  0  0  0  0  0
    5.9121    2.2473    0.4629 C   0  0  0  0  0  0  0  0  0  0  0  0
    6.8880    1.3789   -0.0166 C   0  0  0  0  0  0  0  0  0  0  0  0
   -1.4684    5.2819   -0.2661 C   0  0  0  0  0  0  0  0  0  0  0  0
   -4.0513   -2.5200   -2.3905 H   0  0  0  0  0  0  0  0  0  0  0  0
   -2.9807   -3.7958    1.5282 H   0  0  0  0  0  0  0  0  0  0  0  0
   -3.1219   -4.2985   -0.8933 H   0  0  0  0  0  0  0  0  0  0  0  0
   -4.6617   -3.6859   -0.2884 H   0  0  0  0  0  0  0  0  0  0  0  0
   -1.7183   -2.7249   -2.4988 H   0  0  0  0  0  0  0  0  0  0  0  0
   -1.9617   -1.0022   -2.2852 H   0  0  0  0  0  0  0  0  0  0  0  0
   -4.1274   -0.1819   -1.6024 H   0  0  0  0  0  0  0  0  0  0  0  0
   -5.3262   -1.1939   -0.8024 H   0  0  0  0  0  0  0  0  0  0  0  0
   -4.7414   -2.0638    1.6254 H   0  0  0  0  0  0  0  0  0  0  0  0
   -3.2572   -1.4566    2.3499 H   0  0  0  0  0  0  0  0  0  0  0  0
   -0.8392   -3.1377    2.5101 H   0  0  0  0  0  0  0  0  0  0  0  0
    1.4544   -2.4172    2.1947 H   0  0  0  0  0  0  0  0  0  0  0  0
   -4.2367    1.5065   -0.8073 H   0  0  0  0  0  0  0  0  0  0  0  0
    2.1469    0.7114    0.7701 H   0  0  0  0  0  0  0  0  0  0  0  0
    3.3066   -3.1651   -0.6959 H   0  0  0  0  0  0  0  0  0  0  0  0
    5.6186   -2.4002   -0.9401 H   0  0  0  0  0  0  0  0  0  0  0  0
   -3.9418    3.5852   -1.8588 H   0  0  0  0  0  0  0  0  0  0  0  0
   -1.5326    2.4467    1.5577 H   0  0  0  0  0  0  0  0  0  0  0  0
    3.8483    2.5056    0.9790 H   0  0  0  0  0  0  0  0  0  0  0  0
    7.3301   -0.5926   -0.7307 H   0  0  0  0  0  0  0  0  0  0  0  0
   -2.7148    5.7261   -1.9658 H   0  0  0  0  0  0  0  0  0  0  0  0
   -0.3682    4.5671    1.4418 H   0  0  0  0  0  0  0  0  0  0  0  0
    6.1754    3.2669    0.7289 H   0  0  0  0  0  0  0  0  0  0  0  0
    7.9134    1.7205   -0.1249 H   0  0  0  0  0  0  0  0  0  0  0  0
   -0.9294    6.2234   -0.3168 H   0  0  0  0  0  0  0  0  0  0  0  0
  1 14  2  0  0  0  0
  2 15  2  0  0  0  0
  3  9  1  0  0  0  0
  3 12  1  0  0  0  0
  3 14  1  0  0  0  0
  4 10  1  0  0  0  0
  4 11  1  0  0  0  0
  4 15  1  0  0  0  0
  5 15  1  0  0  0  0
  5 20  1  0  0  0  0
  5 46  1  0  0  0  0
  6  8  1  0  0  0  0
  6  9  1  0  0  0  0
  6 10  1  0  0  0  0
  6 34  1  0  0  0  0
  7  8  1  0  0  0  0
  7 11  1  0  0  0  0
  7 12  1  0  0  0  0
  7 35  1  0  0  0  0
  8 36  1  0  0  0  0
  8 37  1  0  0  0  0
  9 38  1  0  0  0  0
  9 39  1  0  0  0  0
 10 40  1  0  0  0  0
 10 41  1  0  0  0  0
 11 42  1  0  0  0  0
 11 43  1  0  0  0  0
 12 13  2  0  0  0  0
 13 17  1  0  0  0  0
 13 44  1  0  0  0  0
 14 16  1  0  0  0  0
 16 17  2  0  0  0  0
 16 18  1  0  0  0  0
 17 45  1  0  0  0  0
 18 19  2  0  0  0  0
 18 21  1  0  0  0  0
 19 22  1  0  0  0  0
 19 47  1  0  0  0  0
 20 25  2  0  0  0  0
 20 26  1  0  0  0  0
 21 23  2  0  0  0  0
 21 48  1  0  0  0  0
 22 24  1  0  0  0  0
 22 27  2  0  0  0  0
 23 24  1  0  0  0  0
 23 49  1  0  0  0  0
 24 28  2  0  0  0  0
 25 29  1  0  0  0  0
 25 50  1  0  0  0  0
 26 30  2  0  0  0  0
 26 51  1  0  0  0  0
 27 31  1  0  0  0  0
 27 52  1  0  0  0  0
 28 32  1  0  0  0  0
 28 53  1  0  0  0  0
 29 33  2  0  0  0  0
 29 54  1  0  0  0  0
 30 33  1  0  0  0  0
 30 55  1  0  0  0  0
 31 32  2  0  0  0  0
 31 56  1  0  0  0  0
 32 57  1  0  0  0  0
 33 58  1  0  0  0  0
M  END
> <PUBCHEM_COMPOUND_CID>
7143719

> <PUBCHEM_CONFORMER_RMSD>
0.8

> <PUBCHEM_CONFORMER_DIVERSEORDER>
1
41
32
17
8
31
35
29
34
27
12
42
24
9
20
33
36
23
37
18
25
26
10
30
22
6
21
40
14
38
13
28
39
15
11
19
5
4
7
16
2
3

> <PUBCHEM_MMFF94_PARTIAL_CHARGES>
44
1 -0.57
10 0.3
11 0.3
12 -0.03
13 -0.15
14 0.62
15 0.69
16 -0.01
17 -0.15
18 0.03
19 -0.15
2 -0.57
20 0.12
21 -0.15
23 -0.15
25 -0.15
26 -0.15
27 -0.15
28 -0.15
29 -0.15
3 -0.47
30 -0.15
31 -0.15
32 -0.15
33 -0.15
4 -0.66
44 0.15
45 0.15
46 0.37
47 0.15
48 0.15
49 0.15
5 -0.55
50 0.15
51 0.15
52 0.15
53 0.15
54 0.15
55 0.15
56 0.15
57 0.15
58 0.15
7 0.14
9 0.3

> <PUBCHEM_EFFECTIVE_ROTOR_COUNT>
5

> <PUBCHEM_PHARMACOPHORE_FEATURES>
9
1 1 acceptor
1 2 acceptor
1 5 donor
6 18 19 21 22 23 24 rings
6 20 25 26 29 30 33 rings
6 22 24 27 28 31 32 rings
6 3 12 13 14 16 17 rings
6 3 6 7 8 9 12 rings
6 4 6 7 8 10 11 rings

> <PUBCHEM_HEAVY_ATOM_COUNT>
33

> <PUBCHEM_ATOM_DEF_STEREO_COUNT>
2

> <PUBCHEM_ATOM_UDEF_STEREO_COUNT>
0

> <PUBCHEM_BOND_DEF_STEREO_COUNT>
0

> <PUBCHEM_BOND_UDEF_STEREO_COUNT>
0

> <PUBCHEM_ISOTOPIC_ATOM_COUNT>
0

> <PUBCHEM_COMPONENT_COUNT>
1

> <PUBCHEM_CACTVS_TAUTO_COUNT>
2

> <PUBCHEM_CONFORMER_ID>
006D012700000001

> <PUBCHEM_MMFF94_ENERGY>
103.8679

> <PUBCHEM_FEATURE_SELFOVERLAP>
47.269

> <PUBCHEM_SHAPE_FINGERPRINT>
100830 39 18410012131375169552
10670039 82 18339372980314665212
10864689 126 17832710072145563556
10871710 139 18410849946081152779
10937287 8 17976254634702055477
12104220 1 18262514914098660180
12107183 9 17829318091537678194
12128747 34 18340773654991084590
12236239 1 17059788835726368422
12788726 201 18335126631509943960
13561361 72 18339633560033232224
13761468 95 18057903345857419296
14394314 77 18410578375526601209
15320467 1 18338234865094045096
15347590 135 17823422780223928850
15400415 2 17905325126889984180
15419008 145 18337940269735427288
15961568 22 18268713973002620276
16067690 210 18115295800117926200
16992787 43 18265327314962501853
16993438 75 18337673009892859544
19309040 13 16126427523125609161
19315092 285 13772209434222094601
21033648 144 18343588417226081794
21716022 299 15831950112952366951
21927370 108 18193007130285957139
22956985 138 16963243124424716187
23516275 100 17980469380927358288
25019877 29 16988019309286905759
3383291 50 9079110047514966581
3493558 16 18334864952285836076
376196 1 17321827453018326569
469060 322 18193576655643911419
508706 21 18409727365804494992
550186 7 18343029865139960822
550186 72 18337674217227387404
6036956 94 18334017181207688797
6201320 215 18343295960809890912
6608658 132 18341321309822179350
6695519 79 12903557882421496606

> <PUBCHEM_SHAPE_MULTIPOLES>
652.44
12.87
6.59
1.45
24.09
9.88
-0.05
2.4
-0.55
-8.28
-0.61
-1.34
-0.49
0.8

> <PUBCHEM_SHAPE_SELFOVERLAP>
1458.3

> <PUBCHEM_SHAPE_VOLUME>
338.6

> <PUBCHEM_COORDINATE_TYPE>
2
5
10

$$$$
