7113406
  -OEChem-12032416333D

 75 78  0     1  0  0  0  0  0999 V2000
    2.2789   -4.0307   -2.2387 S   0  0  0  0  0  0  0  0  0  0  0  0
    0.0080    1.9387    0.0451 O   0  0  0  0  0  0  0  0  0  0  0  0
    2.9449    4.4133   -1.0644 O   0  0  0  0  0  0  0  0  0  0  0  0
    2.8052   -0.8743   -2.3315 O   0  0  0  0  0  0  0  0  0  0  0  0
   -2.9707    2.6258   -1.4087 O   0  0  0  0  0  0  0  0  0  0  0  0
    2.2368    1.7591   -0.6025 N   0  0  0  0  0  0  0  0  0  0  0  0
    0.6374   -0.6909   -1.5254 N   0  0  0  0  0  0  0  0  0  0  0  0
   -1.9114    0.5626   -1.6908 N   0  0  0  0  0  0  0  0  0  0  0  0
    2.5845    4.8406    1.1631 N   0  0  0  0  0  0  0  0  0  0  0  0
   -7.1195   -0.8540    1.8312 N   0  0  0  0  0  0  0  0  0  0  0  0
    4.3006    0.5672    1.2004 C   0  0  0  0  0  0  0  0  0  0  0  0
    5.7317    0.0408    1.0266 C   0  0  0  0  0  0  0  0  0  0  0  0
    3.8021    0.3318    2.6325 C   0  0  0  0  0  0  0  0  0  0  0  0
    4.2233    2.0493    0.8390 C   0  0  0  0  0  0  0  0  0  0  0  0
    5.8458   -1.4266    1.4329 C   0  0  0  0  0  0  0  0  0  0  0  0
    3.9196   -1.1361    3.0364 C   0  0  0  0  0  0  0  0  0  0  0  0
    5.3414   -1.6581    2.8538 C   0  0  0  0  0  0  0  0  0  0  0  0
    2.8175    2.5335    0.4705 C   0  0  1  0  0  0  0  0  0  0  0  0
    0.5410    0.7176   -1.9380 C   0  0  1  0  0  0  0  0  0  0  0  0
   -0.8252    1.0964   -2.5081 C   0  0  0  0  0  0  0  0  0  0  0  0
    0.8768    1.5294   -0.7205 C   0  0  0  0  0  0  0  0  0  0  0  0
   -0.5232   -1.2512   -0.8046 C   0  0  0  0  0  0  0  0  0  0  0  0
   -1.8397   -0.8836   -1.4777 C   0  0  0  0  0  0  0  0  0  0  0  0
    2.7832    4.0062    0.0837 C   0  0  0  0  0  0  0  0  0  0  0  0
    1.8574   -1.3755   -1.7237 C   0  0  0  0  0  0  0  0  0  0  0  0
   -2.9171    1.4107   -1.2256 C   0  0  0  0  0  0  0  0  0  0  0  0
    1.9707   -2.7234   -1.1763 C   0  0  0  0  0  0  0  0  0  0  0  0
   -4.0055    0.8234   -0.4336 C   0  0  0  0  0  0  0  0  0  0  0  0
   -5.1538    0.3510   -1.0690 C   0  0  0  0  0  0  0  0  0  0  0  0
   -3.8911    0.7385    0.9540 C   0  0  0  0  0  0  0  0  0  0  0  0
    1.8634   -3.1360    0.1336 C   0  0  0  0  0  0  0  0  0  0  0  0
   -6.1878   -0.2065   -0.3168 C   0  0  0  0  0  0  0  0  0  0  0  0
   -4.9250    0.1811    1.7062 C   0  0  0  0  0  0  0  0  0  0  0  0
    2.0368   -4.5440    0.2669 C   0  0  0  0  0  0  0  0  0  0  0  0
   -6.0733   -0.2914    1.0708 C   0  0  0  0  0  0  0  0  0  0  0  0
    2.2698   -5.1538   -0.9461 C   0  0  0  0  0  0  0  0  0  0  0  0
   -8.3226   -1.3350    1.1816 C   0  0  0  0  0  0  0  0  0  0  0  0
   -7.0111   -0.9458    3.2736 C   0  0  0  0  0  0  0  0  0  0  0  0
    3.6669   -0.0152    0.5203 H   0  0  0  0  0  0  0  0  0  0  0  0
    6.4249    0.6388    1.6321 H   0  0  0  0  0  0  0  0  0  0  0  0
    6.0471    0.1479   -0.0182 H   0  0  0  0  0  0  0  0  0  0  0  0
    2.7548    0.6394    2.7280 H   0  0  0  0  0  0  0  0  0  0  0  0
    4.3797    0.9443    3.3366 H   0  0  0  0  0  0  0  0  0  0  0  0
    4.8747    2.2391   -0.0258 H   0  0  0  0  0  0  0  0  0  0  0  0
    4.6296    2.6656    1.6515 H   0  0  0  0  0  0  0  0  0  0  0  0
    6.8899   -1.7502    1.3552 H   0  0  0  0  0  0  0  0  0  0  0  0
    5.2671   -2.0443    0.7349 H   0  0  0  0  0  0  0  0  0  0  0  0
    3.2304   -1.7386    2.4379 H   0  0  0  0  0  0  0  0  0  0  0  0
    3.6170   -1.2540    4.0831 H   0  0  0  0  0  0  0  0  0  0  0  0
    6.0088   -1.1550    3.5644 H   0  0  0  0  0  0  0  0  0  0  0  0
    5.3741   -2.7283    3.0871 H   0  0  0  0  0  0  0  0  0  0  0  0
    2.1643    2.4084    1.3434 H   0  0  0  0  0  0  0  0  0  0  0  0
    1.2866    0.9267   -2.7147 H   0  0  0  0  0  0  0  0  0  0  0  0
    2.8606    1.4275   -1.3327 H   0  0  0  0  0  0  0  0  0  0  0  0
   -0.9159    2.1828   -2.6151 H   0  0  0  0  0  0  0  0  0  0  0  0
   -0.9442    0.6594   -3.5072 H   0  0  0  0  0  0  0  0  0  0  0  0
   -0.4890   -0.8562    0.2173 H   0  0  0  0  0  0  0  0  0  0  0  0
   -0.4694   -2.3396   -0.7475 H   0  0  0  0  0  0  0  0  0  0  0  0
   -1.9105   -1.3587   -2.4637 H   0  0  0  0  0  0  0  0  0  0  0  0
   -2.6738   -1.2526   -0.8777 H   0  0  0  0  0  0  0  0  0  0  0  0
    2.5495    5.8475    1.0429 H   0  0  0  0  0  0  0  0  0  0  0  0
    2.4713    4.4918    2.1095 H   0  0  0  0  0  0  0  0  0  0  0  0
   -5.2521    0.4124   -2.1497 H   0  0  0  0  0  0  0  0  0  0  0  0
   -2.9995    1.1030    1.4579 H   0  0  0  0  0  0  0  0  0  0  0  0
    1.6608   -2.4662    0.9585 H   0  0  0  0  0  0  0  0  0  0  0  0
   -7.0599   -0.5598   -0.8579 H   0  0  0  0  0  0  0  0  0  0  0  0
   -4.7880    0.1378    2.7821 H   0  0  0  0  0  0  0  0  0  0  0  0
    1.9907   -5.0821    1.2047 H   0  0  0  0  0  0  0  0  0  0  0  0
    2.4344   -6.2051   -1.1352 H   0  0  0  0  0  0  0  0  0  0  0  0
   -9.0398   -1.7384    1.9051 H   0  0  0  0  0  0  0  0  0  0  0  0
   -8.0969   -2.1474    0.4818 H   0  0  0  0  0  0  0  0  0  0  0  0
   -8.8370   -0.5257    0.6515 H   0  0  0  0  0  0  0  0  0  0  0  0
   -7.8994   -1.4086    3.7178 H   0  0  0  0  0  0  0  0  0  0  0  0
   -6.9172    0.0472    3.7274 H   0  0  0  0  0  0  0  0  0  0  0  0
   -6.1575   -1.5665    3.5680 H   0  0  0  0  0  0  0  0  0  0  0  0
  1 27  1  0  0  0  0
  1 36  1  0  0  0  0
  2 21  2  0  0  0  0
  3 24  2  0  0  0  0
  4 25  2  0  0  0  0
  5 26  2  0  0  0  0
  6 18  1  0  0  0  0
  6 21  1  0  0  0  0
  6 54  1  0  0  0  0
  7 19  1  0  0  0  0
  7 22  1  0  0  0  0
  7 25  1  0  0  0  0
  8 20  1  0  0  0  0
  8 23  1  0  0  0  0
  8 26  1  0  0  0  0
  9 24  1  0  0  0  0
  9 61  1  0  0  0  0
  9 62  1  0  0  0  0
 10 35  1  0  0  0  0
 10 37  1  0  0  0  0
 10 38  1  0  0  0  0
 11 12  1  0  0  0  0
 11 13  1  0  0  0  0
 11 14  1  0  0  0  0
 11 39  1  0  0  0  0
 12 15  1  0  0  0  0
 12 40  1  0  0  0  0
 12 41  1  0  0  0  0
 13 16  1  0  0  0  0
 13 42  1  0  0  0  0
 13 43  1  0  0  0  0
 14 18  1  0  0  0  0
 14 44  1  0  0  0  0
 14 45  1  0  0  0  0
 15 17  1  0  0  0  0
 15 46  1  0  0  0  0
 15 47  1  0  0  0  0
 16 17  1  0  0  0  0
 16 48  1  0  0  0  0
 16 49  1  0  0  0  0
 17 50  1  0  0  0  0
 17 51  1  0  0  0  0
 18 24  1  0  0  0  0
 18 52  1  0  0  0  0
 19 20  1  0  0  0  0
 19 21  1  0  0  0  0
 19 53  1  0  0  0  0
 20 55  1  0  0  0  0
 20 56  1  0  0  0  0
 22 23  1  0  0  0  0
 22 57  1  0  0  0  0
 22 58  1  0  0  0  0
 23 59  1  0  0  0  0
 23 60  1  0  0  0  0
 25 27  1  0  0  0  0
 26 28  1  0  0  0  0
 27 31  2  0  0  0  0
 28 29  2  0  0  0  0
 28 30  1  0  0  0  0
 29 32  1  0  0  0  0
 29 63  1  0  0  0  0
 30 33  2  0  0  0  0
 30 64  1  0  0  0  0
 31 34  1  0  0  0  0
 31 65  1  0  0  0  0
 32 35  2  0  0  0  0
 32 66  1  0  0  0  0
 33 35  1  0  0  0  0
 33 67  1  0  0  0  0
 34 36  2  0  0  0  0
 34 68  1  0  0  0  0
 36 69  1  0  0  0  0
 37 70  1  0  0  0  0
 37 71  1  0  0  0  0
 37 72  1  0  0  0  0
 38 73  1  0  0  0  0
 38 74  1  0  0  0  0
 38 75  1  0  0  0  0
M  END
> <PUBCHEM_COMPOUND_CID>
7113406

> <PUBCHEM_CONFORMER_RMSD>
1.2

> <PUBCHEM_CONFORMER_DIVERSEORDER>
1
35
16
68
39
49
17
42
18
56
45
58
37
40
57
55
75
43
30
14
65
74
29
23
51
13
27
73
60
71
44
33
66
70
31
63
9
2
7
21
19
72
61
47
38
69
41
46
76
6
4
24
50
36
78
28
64
34
48
22
8
54
20
62
26
67
12
11
52
25
10
59
53
77
32
3
15
5

> <PUBCHEM_MMFF94_PARTIAL_CHARGES>
41
1 -0.08
10 -0.84
18 0.36
19 0.36
2 -0.57
20 0.3
21 0.57
22 0.3
23 0.3
24 0.57
25 0.71
26 0.54
27 -0.05
28 0.09
29 -0.15
3 -0.57
30 -0.15
31 -0.15
32 -0.15
33 -0.15
34 -0.15
35 0.1
36 -0.11
37 0.37
38 0.37
4 -0.57
5 -0.57
54 0.37
6 -0.73
61 0.37
62 0.37
63 0.15
64 0.15
65 0.15
66 0.15
67 0.15
68 0.15
69 0.15
7 -0.66
8 -0.66
9 -0.8

> <PUBCHEM_EFFECTIVE_ROTOR_COUNT>
13.4

> <PUBCHEM_PHARMACOPHORE_FEATURES>
11
1 10 cation
1 2 acceptor
1 3 acceptor
1 4 acceptor
1 5 acceptor
1 6 donor
1 9 donor
5 1 27 31 34 36 rings
6 11 12 13 15 16 17 rings
6 28 29 30 32 33 35 rings
6 7 8 19 20 22 23 rings

> <PUBCHEM_HEAVY_ATOM_COUNT>
38

> <PUBCHEM_ATOM_DEF_STEREO_COUNT>
2

> <PUBCHEM_ATOM_UDEF_STEREO_COUNT>
0

> <PUBCHEM_BOND_DEF_STEREO_COUNT>
0

> <PUBCHEM_BOND_UDEF_STEREO_COUNT>
0

> <PUBCHEM_ISOTOPIC_ATOM_COUNT>
0

> <PUBCHEM_COMPONENT_COUNT>
1

> <PUBCHEM_CACTVS_TAUTO_COUNT>
4

> <PUBCHEM_CONFORMER_ID>
006C8ABE00000001

> <PUBCHEM_MMFF94_ENERGY>
107.419

> <PUBCHEM_FEATURE_SELFOVERLAP>
55.823

> <PUBCHEM_SHAPE_FINGERPRINT>
10169797 241 17823157725312956251
11445158 3 18115291363648908972
117089 54 17971461906662082274
12373685 5 18342726435345389615
12422481 6 18335408084785367263
12758862 65 18113908155886869218
13627167 48 10951785049524909627
13636023 51 17750237065733390960
13751561 76 18334583403704442266
13782708 43 17894622626294879993
15328829 1 17201609286814931557
15950262 2 14977954853619242538
16096371 109 18343298189142880577
16989378 47 13045947897724178051
21796203 349 18265028329197689608
21987483 16 17976256056974898195
23559900 14 17895487917094015077
3178227 256 18411704305091610756
392239 28 18343017826694613645
42626532 9 17619352004669222314
44426701 97 18187378597145194542
86090 222 17968675847128761099
9896288 288 17260736869350895632

> <PUBCHEM_SHAPE_MULTIPOLES>
737.49
16.28
5.46
3.06
31.55
1.04
1.46
3.42
15.79
-9.32
-1.79
-0.2
1.05
2.01

> <PUBCHEM_SHAPE_SELFOVERLAP>
1540.847

> <PUBCHEM_SHAPE_VOLUME>
418.4

> <PUBCHEM_COORDINATE_TYPE>
2
5
10

$$$$
