45783635
  -OEChem-12032416363D

 54 57  0     1  0  0  0  0  0999 V2000
   -2.8099   -1.5003    2.0101 O   0  0  0  0  0  0  0  0  0  0  0  0
    0.1236    4.2710    1.4580 O   0  5  0  0  0  0  0  0  0  0  0  0
    1.0969    3.6010   -0.3921 O   0  0  0  0  0  0  0  0  0  0  0  0
    7.5627   -0.4020   -1.4804 O   0  0  0  0  0  0  0  0  0  0  0  0
    4.9690   -0.5688   -1.6771 O   0  0  0  0  0  0  0  0  0  0  0  0
   -4.3385   -0.6868   -1.2313 N   0  0  1  0  0  0  0  0  0  0  0  0
   -1.7118   -1.2374    0.0757 N   0  0  0  0  0  0  0  0  0  0  0  0
   -1.4508   -1.4267    2.3407 N   0  0  0  0  0  0  0  0  0  0  0  0
    0.1087    3.6281    0.3806 N   0  3  0  0  0  0  0  0  0  0  0  0
    2.7425   -1.0763    2.0142 N   0  0  0  0  0  0  0  0  0  0  0  0
    4.6517   -0.8052    0.6449 N   0  0  0  0  0  0  0  0  0  0  0  0
   -4.2580   -1.4291    0.0426 C   0  0  1  0  0  0  0  0  0  0  0  0
   -4.7020   -2.8607   -0.3102 C   0  0  0  0  0  0  0  0  0  0  0  0
   -5.0695   -2.8108   -1.7865 C   0  0  0  0  0  0  0  0  0  0  0  0
   -5.3725   -1.3460   -2.0293 C   0  0  0  0  0  0  0  0  0  0  0  0
   -4.6071    0.7343   -1.0521 C   0  0  0  0  0  0  0  0  0  0  0  0
   -2.8753   -1.3808    0.6582 C   0  0  0  0  0  0  0  0  0  0  0  0
   -3.3648    1.4963   -0.6741 C   0  0  0  0  0  0  0  0  0  0  0  0
   -3.3245    2.2179    0.5191 C   0  0  0  0  0  0  0  0  0  0  0  0
   -2.2539    1.4807   -1.5175 C   0  0  0  0  0  0  0  0  0  0  0  0
   -0.8685   -1.2717    1.1479 C   0  0  0  0  0  0  0  0  0  0  0  0
   -2.1736    2.9241    0.8685 C   0  0  0  0  0  0  0  0  0  0  0  0
   -1.1029    2.1870   -1.1681 C   0  0  0  0  0  0  0  0  0  0  0  0
   -1.0628    2.9087    0.0248 C   0  0  0  0  0  0  0  0  0  0  0  0
    0.5524   -1.1497    0.9930 C   0  0  0  0  0  0  0  0  0  0  0  0
    1.1251   -0.9910   -0.2641 C   0  0  0  0  0  0  0  0  0  0  0  0
    1.3971   -1.1858    2.0907 C   0  0  0  0  0  0  0  0  0  0  0  0
    2.5057   -0.8750   -0.3833 C   0  0  0  0  0  0  0  0  0  0  0  0
    3.2630   -0.9234    0.7760 C   0  0  0  0  0  0  0  0  0  0  0  0
    5.3947   -0.6413   -0.5283 C   0  0  0  0  0  0  0  0  0  0  0  0
    6.8807   -0.5612   -0.2537 C   0  0  0  0  0  0  0  0  0  0  0  0
    8.9728   -0.3191   -1.2965 C   0  0  0  0  0  0  0  0  0  0  0  0
   -4.9764   -1.0292    0.7721 H   0  0  0  0  0  0  0  0  0  0  0  0
   -3.9345   -3.6203   -0.1259 H   0  0  0  0  0  0  0  0  0  0  0  0
   -5.5877   -3.1276    0.2791 H   0  0  0  0  0  0  0  0  0  0  0  0
   -4.2141   -3.1306   -2.3945 H   0  0  0  0  0  0  0  0  0  0  0  0
   -5.9175   -3.4598   -2.0239 H   0  0  0  0  0  0  0  0  0  0  0  0
   -6.3807   -1.1016   -1.6713 H   0  0  0  0  0  0  0  0  0  0  0  0
   -5.2995   -1.0910   -3.0910 H   0  0  0  0  0  0  0  0  0  0  0  0
   -4.9536    1.1706   -1.9996 H   0  0  0  0  0  0  0  0  0  0  0  0
   -5.4200    0.9072   -0.3348 H   0  0  0  0  0  0  0  0  0  0  0  0
   -4.1819    2.2368    1.1865 H   0  0  0  0  0  0  0  0  0  0  0  0
   -2.2719    0.9266   -2.4524 H   0  0  0  0  0  0  0  0  0  0  0  0
   -2.1778    3.4742    1.8059 H   0  0  0  0  0  0  0  0  0  0  0  0
   -0.2566    2.1517   -1.8493 H   0  0  0  0  0  0  0  0  0  0  0  0
    0.5194   -0.9540   -1.1661 H   0  0  0  0  0  0  0  0  0  0  0  0
    1.0301   -1.3062    3.1056 H   0  0  0  0  0  0  0  0  0  0  0  0
    2.8766   -0.7541   -1.3878 H   0  0  0  0  0  0  0  0  0  0  0  0
    5.1617   -0.8471    1.5239 H   0  0  0  0  0  0  0  0  0  0  0  0
    7.1993   -1.4862    0.2397 H   0  0  0  0  0  0  0  0  0  0  0  0
    7.0732    0.2961    0.4010 H   0  0  0  0  0  0  0  0  0  0  0  0
    9.2266    0.5461   -0.6766 H   0  0  0  0  0  0  0  0  0  0  0  0
    9.3526   -1.2372   -0.8381 H   0  0  0  0  0  0  0  0  0  0  0  0
    9.4405   -0.1972   -2.2771 H   0  0  0  0  0  0  0  0  0  0  0  0
  1  8  1  0  0  0  0
  1 17  1  0  0  0  0
  2  9  1  0  0  0  0
  3  9  2  0  0  0  0
  4 31  1  0  0  0  0
  4 32  1  0  0  0  0
  5 30  2  0  0  0  0
  6 12  1  0  0  0  0
  6 15  1  0  0  0  0
  6 16  1  0  0  0  0
  7 17  2  0  0  0  0
  7 21  1  0  0  0  0
  8 21  2  0  0  0  0
  9 24  1  0  0  0  0
 10 27  1  0  0  0  0
 10 29  2  0  0  0  0
 11 29  1  0  0  0  0
 11 30  1  0  0  0  0
 11 49  1  0  0  0  0
 12 13  1  0  0  0  0
 12 17  1  0  0  0  0
 12 33  1  0  0  0  0
 13 14  1  0  0  0  0
 13 34  1  0  0  0  0
 13 35  1  0  0  0  0
 14 15  1  0  0  0  0
 14 36  1  0  0  0  0
 14 37  1  0  0  0  0
 15 38  1  0  0  0  0
 15 39  1  0  0  0  0
 16 18  1  0  0  0  0
 16 40  1  0  0  0  0
 16 41  1  0  0  0  0
 18 19  2  0  0  0  0
 18 20  1  0  0  0  0
 19 22  1  0  0  0  0
 19 42  1  0  0  0  0
 20 23  2  0  0  0  0
 20 43  1  0  0  0  0
 21 25  1  0  0  0  0
 22 24  2  0  0  0  0
 22 44  1  0  0  0  0
 23 24  1  0  0  0  0
 23 45  1  0  0  0  0
 25 26  1  0  0  0  0
 25 27  2  0  0  0  0
 26 28  2  0  0  0  0
 26 46  1  0  0  0  0
 27 47  1  0  0  0  0
 28 29  1  0  0  0  0
 28 48  1  0  0  0  0
 30 31  1  0  0  0  0
 31 50  1  0  0  0  0
 31 51  1  0  0  0  0
 32 52  1  0  0  0  0
 32 53  1  0  0  0  0
 32 54  1  0  0  0  0
M  CHG  2   2  -1   9   1
M  END
> <PUBCHEM_COMPOUND_CID>
45783635

> <PUBCHEM_CONFORMER_RMSD>
1

> <PUBCHEM_CONFORMER_DIVERSEORDER>
1
40
39
18
46
4
22
14
44
12
13
35
48
9
7
11
32
27
38
50
47
26
15
49
6
21
10
2
17
43
19
8
31
16
5
24
30
42
20
25
23
41
37
33
3
28
45
34
29
36

> <PUBCHEM_MMFF94_PARTIAL_CHARGES>
38
1 -0.02
10 -0.62
11 -0.55
12 0.45
15 0.27
16 0.41
17 0.3
18 -0.14
19 -0.15
2 -0.52
20 -0.15
21 0.46
22 -0.15
23 -0.15
24 0.13
25 0.05
26 -0.15
27 0.16
28 -0.15
29 0.43
3 -0.52
30 0.57
31 0.34
32 0.28
4 -0.56
42 0.15
43 0.15
44 0.15
45 0.15
46 0.15
47 0.15
48 0.15
49 0.37
5 -0.57
6 -0.81
7 -0.57
8 -0.41
9 0.91

> <PUBCHEM_EFFECTIVE_ROTOR_COUNT>
10

> <PUBCHEM_PHARMACOPHORE_FEATURES>
12
1 11 donor
1 2 acceptor
1 2 anion
1 3 acceptor
1 4 acceptor
1 5 acceptor
1 6 cation
3 7 8 21 cation
5 1 7 8 17 21 rings
5 6 12 13 14 15 rings
6 10 25 26 27 28 29 rings
6 18 19 20 22 23 24 rings

> <PUBCHEM_HEAVY_ATOM_COUNT>
32

> <PUBCHEM_ATOM_DEF_STEREO_COUNT>
1

> <PUBCHEM_ATOM_UDEF_STEREO_COUNT>
0

> <PUBCHEM_BOND_DEF_STEREO_COUNT>
0

> <PUBCHEM_BOND_UDEF_STEREO_COUNT>
0

> <PUBCHEM_ISOTOPIC_ATOM_COUNT>
0

> <PUBCHEM_COMPONENT_COUNT>
1

> <PUBCHEM_CACTVS_TAUTO_COUNT>
11

> <PUBCHEM_CONFORMER_ID>
02BA9A5300000001

> <PUBCHEM_MMFF94_ENERGY>
77.7746

> <PUBCHEM_FEATURE_SELFOVERLAP>
60.989

> <PUBCHEM_SHAPE_FINGERPRINT>
10454371 7 18409175385783084188
10670039 82 18333732399653674866
1100329 8 18338221693019724313
11445158 3 16056593305198022120
11477941 20 18412539925164758556
11578080 2 17701274524568814327
12788726 201 18262511473233575593
13761468 95 17828203190492785452
13782708 43 17703789198478713934
14931854 50 18041268902928021470
15183329 4 17749672888469109010
15876981 60 18409737248276323701
17492 54 17968927596826394745
19438510 23 13407616794658184175
20609170 92 17968938742573101084
20642791 35 18263058013003305285
20721686 56 18337673139559263336
20775438 99 17404273679465955039
21057603 43 17914053368461162811
21304303 64 16660640705747696477
21344244 246 17908132536488273423
255183 451 18052812839545740487
484985 159 12463275961433909209
5171179 24 18270394013764342593
531348 171 18199189482025825606
6608658 132 18334572408866770878
999808 66 15123797288315159014

> <PUBCHEM_SHAPE_MULTIPOLES>
599.31
15.76
4.02
1.97
38.07
4.91
0.36
-9.04
-11.1
-4.72
0.61
-0.24
-0.74
-0.85

> <PUBCHEM_SHAPE_SELFOVERLAP>
1292.329

> <PUBCHEM_SHAPE_VOLUME>
330

> <PUBCHEM_COORDINATE_TYPE>
2
5
10

$$$$
