26742911
  -OEChem-12032416193D

 56 59  0     1  0  0  0  0  0999 V2000
   -5.9333    2.0392   -1.0282 F   0  0  0  0  0  0  0  0  0  0  0  0
    1.2146   -1.5318   -1.6964 O   0  0  0  0  0  0  0  0  0  0  0  0
   -0.0221    3.5010    0.4754 O   0  0  0  0  0  0  0  0  0  0  0  0
    6.0337    0.5558   -0.2897 N   0  0  0  0  0  0  0  0  0  0  0  0
    1.2649   -3.0245    0.0842 N   0  0  0  0  0  0  0  0  0  0  0  0
    1.3069    3.4031    0.8692 N   0  0  0  0  0  0  0  0  0  0  0  0
    3.1199    0.1758   -0.5577 C   0  0  1  0  0  0  0  0  0  0  0  0
    3.7414    1.2572    0.3580 C   0  0  2  0  0  0  0  0  0  0  0  0
    4.1208   -0.1743   -1.6716 C   0  0  0  0  0  0  0  0  0  0  0  0
    5.1478    0.8575    0.8352 C   0  0  0  0  0  0  0  0  0  0  0  0
    5.5048   -0.5209   -1.1244 C   0  0  0  0  0  0  0  0  0  0  0  0
    2.8522    1.6172    1.5489 C   0  0  0  0  0  0  0  0  0  0  0  0
    2.6676   -1.0866    0.1859 C   0  0  0  0  0  0  0  0  0  0  0  0
    1.5045    2.1017    1.0984 C   0  0  0  0  0  0  0  0  0  0  0  0
    1.6434   -1.8781   -0.5991 C   0  0  0  0  0  0  0  0  0  0  0  0
    0.3474    1.3376    0.8684 C   0  0  0  0  0  0  0  0  0  0  0  0
   -0.5829    2.2646    0.4789 C   0  0  0  0  0  0  0  0  0  0  0  0
    0.2978   -3.9667   -0.4305 C   0  0  0  0  0  0  0  0  0  0  0  0
   -1.9624    2.2070    0.0913 C   0  0  0  0  0  0  0  0  0  0  0  0
   -1.1012   -3.6238   -0.0071 C   0  0  0  0  0  0  0  0  0  0  0  0
   -2.7941    1.2186    0.6175 C   0  0  0  0  0  0  0  0  0  0  0  0
   -2.4722    3.1389   -0.8128 C   0  0  0  0  0  0  0  0  0  0  0  0
   -1.6180   -4.1425    1.1801 C   0  0  0  0  0  0  0  0  0  0  0  0
   -1.8843   -2.7863   -0.8014 C   0  0  0  0  0  0  0  0  0  0  0  0
   -4.1355    1.1618    0.2396 C   0  0  0  0  0  0  0  0  0  0  0  0
   -3.8135    3.0822   -1.1909 C   0  0  0  0  0  0  0  0  0  0  0  0
   -2.9180   -3.8238    1.5731 C   0  0  0  0  0  0  0  0  0  0  0  0
   -3.1841   -2.4674   -0.4084 C   0  0  0  0  0  0  0  0  0  0  0  0
   -4.6453    2.0937   -0.6647 C   0  0  0  0  0  0  0  0  0  0  0  0
   -3.7009   -2.9863    0.7788 C   0  0  0  0  0  0  0  0  0  0  0  0
    2.2517    0.6211   -1.0600 H   0  0  0  0  0  0  0  0  0  0  0  0
    3.8575    2.1646   -0.2554 H   0  0  0  0  0  0  0  0  0  0  0  0
    4.2133    0.6881   -2.3458 H   0  0  0  0  0  0  0  0  0  0  0  0
    3.7549   -1.0038   -2.2868 H   0  0  0  0  0  0  0  0  0  0  0  0
    5.5877    1.6844    1.4046 H   0  0  0  0  0  0  0  0  0  0  0  0
    5.0983   -0.0029    1.5140 H   0  0  0  0  0  0  0  0  0  0  0  0
    5.4874   -1.4625   -0.5650 H   0  0  0  0  0  0  0  0  0  0  0  0
    6.1879   -0.6735   -1.9675 H   0  0  0  0  0  0  0  0  0  0  0  0
    3.3343    2.4202    2.1237 H   0  0  0  0  0  0  0  0  0  0  0  0
    2.7435    0.7891    2.2569 H   0  0  0  0  0  0  0  0  0  0  0  0
    3.5140   -1.7453    0.4084 H   0  0  0  0  0  0  0  0  0  0  0  0
    2.1986   -0.8633    1.1458 H   0  0  0  0  0  0  0  0  0  0  0  0
    6.9509    0.2878    0.0658 H   0  0  0  0  0  0  0  0  0  0  0  0
    0.1966    0.2747    0.9792 H   0  0  0  0  0  0  0  0  0  0  0  0
    1.6659   -3.2129    0.9985 H   0  0  0  0  0  0  0  0  0  0  0  0
    0.3679   -4.0002   -1.5242 H   0  0  0  0  0  0  0  0  0  0  0  0
    0.5783   -4.9605   -0.0634 H   0  0  0  0  0  0  0  0  0  0  0  0
   -2.4209    0.4838    1.3268 H   0  0  0  0  0  0  0  0  0  0  0  0
   -1.8451    3.9151   -1.2448 H   0  0  0  0  0  0  0  0  0  0  0  0
   -1.0171   -4.7946    1.8085 H   0  0  0  0  0  0  0  0  0  0  0  0
   -1.4965   -2.3770   -1.7301 H   0  0  0  0  0  0  0  0  0  0  0  0
   -4.7843    0.3940    0.6503 H   0  0  0  0  0  0  0  0  0  0  0  0
   -4.2106    3.8063   -1.8962 H   0  0  0  0  0  0  0  0  0  0  0  0
   -3.3203   -4.2272    2.4978 H   0  0  0  0  0  0  0  0  0  0  0  0
   -3.7948   -1.8184   -1.0290 H   0  0  0  0  0  0  0  0  0  0  0  0
   -4.7130   -2.7377    1.0844 H   0  0  0  0  0  0  0  0  0  0  0  0
  1 29  1  0  0  0  0
  2 15  2  0  0  0  0
  3  6  1  0  0  0  0
  3 17  1  0  0  0  0
  4 10  1  0  0  0  0
  4 11  1  0  0  0  0
  4 43  1  0  0  0  0
  5 15  1  0  0  0  0
  5 18  1  0  0  0  0
  5 45  1  0  0  0  0
  6 14  2  0  0  0  0
  7  8  1  0  0  0  0
  7  9  1  0  0  0  0
  7 13  1  0  0  0  0
  7 31  1  0  0  0  0
  8 10  1  0  0  0  0
  8 12  1  0  0  0  0
  8 32  1  0  0  0  0
  9 11  1  0  0  0  0
  9 33  1  0  0  0  0
  9 34  1  0  0  0  0
 10 35  1  0  0  0  0
 10 36  1  0  0  0  0
 11 37  1  0  0  0  0
 11 38  1  0  0  0  0
 12 14  1  0  0  0  0
 12 39  1  0  0  0  0
 12 40  1  0  0  0  0
 13 15  1  0  0  0  0
 13 41  1  0  0  0  0
 13 42  1  0  0  0  0
 14 16  1  0  0  0  0
 16 17  2  0  0  0  0
 16 44  1  0  0  0  0
 17 19  1  0  0  0  0
 18 20  1  0  0  0  0
 18 46  1  0  0  0  0
 18 47  1  0  0  0  0
 19 21  2  0  0  0  0
 19 22  1  0  0  0  0
 20 23  2  0  0  0  0
 20 24  1  0  0  0  0
 21 25  1  0  0  0  0
 21 48  1  0  0  0  0
 22 26  2  0  0  0  0
 22 49  1  0  0  0  0
 23 27  1  0  0  0  0
 23 50  1  0  0  0  0
 24 28  2  0  0  0  0
 24 51  1  0  0  0  0
 25 29  2  0  0  0  0
 25 52  1  0  0  0  0
 26 29  1  0  0  0  0
 26 53  1  0  0  0  0
 27 30  2  0  0  0  0
 27 54  1  0  0  0  0
 28 30  1  0  0  0  0
 28 55  1  0  0  0  0
 30 56  1  0  0  0  0
M  END
> <PUBCHEM_COMPOUND_CID>
26742911

> <PUBCHEM_CONFORMER_RMSD>
1.2

> <PUBCHEM_CONFORMER_DIVERSEORDER>
2
85
16
46
79
67
72
48
12
64
47
63
40
8
62
76
84
80
31
15
51
4
86
37
38
73
89
53
21
44
54
5
33
23
70
35
57
17
69
58
87
83
20
24
65
59
66
78
42
32
60
29
45
1
68
55
10
18
61
49
6
82
36
34
77
74
43
88
30
26
27
25
50
19
90
81
9
28
39
41
71
52
11
3
22
14
13
56
7
75

> <PUBCHEM_MMFF94_PARTIAL_CHARGES>
39
1 -0.19
10 0.27
11 0.27
12 0.18
13 0.06
14 0.11
15 0.57
16 -0.15
17 0.09
18 0.44
19 0.05
2 -0.57
20 -0.14
21 -0.15
22 -0.15
23 -0.15
24 -0.15
25 -0.15
26 -0.15
27 -0.15
28 -0.15
29 0.19
3 -0.02
30 -0.15
4 -0.9
43 0.36
44 0.15
45 0.37
48 0.15
49 0.15
5 -0.73
50 0.15
51 0.15
52 0.15
53 0.15
54 0.15
55 0.15
56 0.15
6 -0.41

> <PUBCHEM_EFFECTIVE_ROTOR_COUNT>
9.2

> <PUBCHEM_PHARMACOPHORE_FEATURES>
9
1 2 acceptor
1 4 cation
1 4 donor
1 5 donor
1 6 acceptor
5 3 6 14 16 17 rings
6 19 21 22 25 26 29 rings
6 20 23 24 27 28 30 rings
6 4 7 8 9 10 11 rings

> <PUBCHEM_HEAVY_ATOM_COUNT>
30

> <PUBCHEM_ATOM_DEF_STEREO_COUNT>
2

> <PUBCHEM_ATOM_UDEF_STEREO_COUNT>
0

> <PUBCHEM_BOND_DEF_STEREO_COUNT>
0

> <PUBCHEM_BOND_UDEF_STEREO_COUNT>
0

> <PUBCHEM_ISOTOPIC_ATOM_COUNT>
0

> <PUBCHEM_COMPONENT_COUNT>
1

> <PUBCHEM_CACTVS_TAUTO_COUNT>
2

> <PUBCHEM_CONFORMER_ID>
0198107F00000002

> <PUBCHEM_MMFF94_ENERGY>
52.7945

> <PUBCHEM_FEATURE_SELFOVERLAP>
45.672

> <PUBCHEM_SHAPE_FINGERPRINT>
10316853 100 18410854365623859181
10675989 125 17688868631841433997
10688039 33 18120097444378715226
108634 29 18272661112720437094
11135609 187 18268424634453331537
11513181 2 17340986850600075958
12422481 6 18054813911773551515
12645989 146 18057611065018045862
12788726 201 18046078309302542998
13122387 1 18124036724195330891
13402501 40 18342742935654945167
13561361 72 18337954622692950595
14251757 5 18408890662945784677
14725015 67 18193829573356989123
150020 26 17115799267561696699
15276724 80 17909554192692389532
15927050 60 18341322298629625015
15968369 26 17904456551420757649
16067689 391 17341843048547698518
16112460 7 18199761249836373049
16993438 75 18335147504798015915
17627616 140 18192144906715632803
19930381 70 17907291058085054425
20739085 24 17042322212443780616
20764821 26 18411980269466849707
23516275 137 17059793117412442719
23559900 14 17474093307404681145
24771750 20 17615960016563315365
3052486 1 18409729603767091250
3298306 158 18266449907142340517
4058900 60 18050010991074153965
463206 1 18413107247099805796
508706 21 18339077193720732399
6376802 137 16697510483139191906

> <PUBCHEM_SHAPE_MULTIPOLES>
583.43
10.58
6.42
1.38
6.09
3.77
0.05
-3.82
2.22
-7.71
-0.77
0.33
0.09
3.02

> <PUBCHEM_SHAPE_SELFOVERLAP>
1252.515

> <PUBCHEM_SHAPE_VOLUME>
321.4

> <PUBCHEM_COORDINATE_TYPE>
2
5
10

$$$$
