26763048
  -OEChem-12032416183D

 57 59  0     1  0  0  0  0  0999 V2000
    8.0122    2.4784    1.3584 S   0  0  0  0  0  0  0  0  0  0  0  0
    0.5045   -4.4568    0.7444 O   0  0  0  0  0  0  0  0  0  0  0  0
    4.5121   -0.3300   -1.5917 O   0  0  0  0  0  0  0  0  0  0  0  0
   -3.9213    2.4939    0.2588 O   0  0  0  0  0  0  0  0  0  0  0  0
   -0.3783   -1.1793   -0.2485 N   0  0  2  0  0  0  0  0  0  0  0  0
   -1.4884   -3.3455    0.9975 N   0  0  0  0  0  0  0  0  0  0  0  0
    2.5718   -0.0013   -0.3782 N   0  0  0  0  0  0  0  0  0  0  0  0
   -6.0218    1.5263    0.0826 N   0  0  0  0  0  0  0  0  0  0  0  0
    4.5177    0.9672    0.3648 N   0  0  0  0  0  0  0  0  0  0  0  0
    0.1432   -2.5017   -0.6056 C   0  0  1  0  0  0  0  0  0  0  0  0
   -1.8421   -1.1967   -0.2584 C   0  0  1  0  0  0  0  0  0  0  0  0
    1.7062   -0.7778   -1.2307 C   0  0  1  0  0  0  0  0  0  0  0  0
    1.6326   -2.2365   -0.7639 C   0  0  0  0  0  0  0  0  0  0  0  0
    0.2626   -0.2668   -1.1950 C   0  0  0  0  0  0  0  0  0  0  0  0
   -2.2822   -2.1316    0.8769 C   0  0  0  0  0  0  0  0  0  0  0  0
   -2.4598    0.1878   -0.0500 C   0  0  0  0  0  0  0  0  0  0  0  0
   -0.2249   -3.5073    0.4610 C   0  0  0  0  0  0  0  0  0  0  0  0
   -3.9830    0.1223   -0.0855 C   0  0  0  0  0  0  0  0  0  0  0  0
    3.9392    0.1693   -0.6262 C   0  0  0  0  0  0  0  0  0  0  0  0
   -4.6233    1.4915    0.1015 C   0  0  0  0  0  0  0  0  0  0  0  0
   -6.8936    0.3683   -0.1002 C   0  0  0  0  0  0  0  0  0  0  0  0
   -6.7108    2.7978    0.2651 C   0  0  0  0  0  0  0  0  0  0  0  0
    5.8688    1.3710    0.4751 C   0  0  0  0  0  0  0  0  0  0  0  0
   -7.2483   -0.2734    1.2252 C   0  0  0  0  0  0  0  0  0  0  0  0
   -6.9487    3.4946   -1.0585 C   0  0  0  0  0  0  0  0  0  0  0  0
    6.9019    1.0188   -0.4407 C   0  0  0  0  0  0  0  0  0  0  0  0
    6.3353    2.1626    1.5015 C   0  0  0  0  0  0  0  0  0  0  0  0
    8.1184    1.5548   -0.0796 C   0  0  0  0  0  0  0  0  0  0  0  0
   -0.2707   -2.8553   -1.5608 H   0  0  0  0  0  0  0  0  0  0  0  0
   -2.1995   -1.5999   -1.2166 H   0  0  0  0  0  0  0  0  0  0  0  0
    2.0928   -0.7283   -2.2554 H   0  0  0  0  0  0  0  0  0  0  0  0
    2.1779   -2.3924    0.1755 H   0  0  0  0  0  0  0  0  0  0  0  0
    2.0699   -2.9088   -1.5106 H   0  0  0  0  0  0  0  0  0  0  0  0
    0.2000    0.7786   -0.8758 H   0  0  0  0  0  0  0  0  0  0  0  0
   -0.1871   -0.3590   -2.1922 H   0  0  0  0  0  0  0  0  0  0  0  0
   -2.2126   -1.6329    1.8511 H   0  0  0  0  0  0  0  0  0  0  0  0
   -3.3164   -2.4631    0.7397 H   0  0  0  0  0  0  0  0  0  0  0  0
   -2.1235    0.6197    0.9019 H   0  0  0  0  0  0  0  0  0  0  0  0
   -2.1272    0.8742   -0.8385 H   0  0  0  0  0  0  0  0  0  0  0  0
   -1.8052   -4.0431    1.6639 H   0  0  0  0  0  0  0  0  0  0  0  0
    2.1875    0.3801    0.4810 H   0  0  0  0  0  0  0  0  0  0  0  0
   -4.3577   -0.5241    0.7110 H   0  0  0  0  0  0  0  0  0  0  0  0
   -4.2972   -0.2807   -1.0542 H   0  0  0  0  0  0  0  0  0  0  0  0
    3.9097    1.3087    1.1047 H   0  0  0  0  0  0  0  0  0  0  0  0
   -6.4052   -0.3722   -0.7383 H   0  0  0  0  0  0  0  0  0  0  0  0
   -7.8024    0.6813   -0.6266 H   0  0  0  0  0  0  0  0  0  0  0  0
   -6.1007    3.4473    0.9032 H   0  0  0  0  0  0  0  0  0  0  0  0
   -7.6575    2.6307    0.7902 H   0  0  0  0  0  0  0  0  0  0  0  0
   -6.3591   -0.5985    1.7728 H   0  0  0  0  0  0  0  0  0  0  0  0
   -7.7921    0.4254    1.8694 H   0  0  0  0  0  0  0  0  0  0  0  0
   -7.8860   -1.1482    1.0641 H   0  0  0  0  0  0  0  0  0  0  0  0
   -6.0047    3.6902   -1.5778 H   0  0  0  0  0  0  0  0  0  0  0  0
   -7.5724    2.8866   -1.7217 H   0  0  0  0  0  0  0  0  0  0  0  0
   -7.4546    4.4520   -0.8995 H   0  0  0  0  0  0  0  0  0  0  0  0
    6.7944    0.4078   -1.3260 H   0  0  0  0  0  0  0  0  0  0  0  0
    5.7768    2.5736    2.3313 H   0  0  0  0  0  0  0  0  0  0  0  0
    9.0646    1.4483   -0.5914 H   0  0  0  0  0  0  0  0  0  0  0  0
  1 27  1  0  0  0  0
  1 28  1  0  0  0  0
  2 17  2  0  0  0  0
  3 19  2  0  0  0  0
  4 20  2  0  0  0  0
  5 10  1  0  0  0  0
  5 11  1  0  0  0  0
  5 14  1  0  0  0  0
  6 15  1  0  0  0  0
  6 17  1  0  0  0  0
  6 40  1  0  0  0  0
  7 12  1  0  0  0  0
  7 19  1  0  0  0  0
  7 41  1  0  0  0  0
  8 20  1  0  0  0  0
  8 21  1  0  0  0  0
  8 22  1  0  0  0  0
  9 19  1  0  0  0  0
  9 23  1  0  0  0  0
  9 44  1  0  0  0  0
 10 13  1  0  0  0  0
 10 17  1  0  0  0  0
 10 29  1  0  0  0  0
 11 15  1  0  0  0  0
 11 16  1  0  0  0  0
 11 30  1  0  0  0  0
 12 13  1  0  0  0  0
 12 14  1  0  0  0  0
 12 31  1  0  0  0  0
 13 32  1  0  0  0  0
 13 33  1  0  0  0  0
 14 34  1  0  0  0  0
 14 35  1  0  0  0  0
 15 36  1  0  0  0  0
 15 37  1  0  0  0  0
 16 18  1  0  0  0  0
 16 38  1  0  0  0  0
 16 39  1  0  0  0  0
 18 20  1  0  0  0  0
 18 42  1  0  0  0  0
 18 43  1  0  0  0  0
 21 24  1  0  0  0  0
 21 45  1  0  0  0  0
 21 46  1  0  0  0  0
 22 25  1  0  0  0  0
 22 47  1  0  0  0  0
 22 48  1  0  0  0  0
 23 26  1  0  0  0  0
 23 27  2  0  0  0  0
 24 49  1  0  0  0  0
 24 50  1  0  0  0  0
 24 51  1  0  0  0  0
 25 52  1  0  0  0  0
 25 53  1  0  0  0  0
 25 54  1  0  0  0  0
 26 28  2  0  0  0  0
 26 55  1  0  0  0  0
 27 56  1  0  0  0  0
 28 57  1  0  0  0  0
M  END
> <PUBCHEM_COMPOUND_CID>
26763048

> <PUBCHEM_CONFORMER_RMSD>
1.2

> <PUBCHEM_CONFORMER_DIVERSEORDER>
1
45
67
50
80
8
23
5
51
41
60
57
43
22
35
11
69
44
47
13
61
75
21
15
63
82
27
70
42
34
62
4
19
77
36
56
9
18
76
7
78
6
31
3
2
66
30
59
10
71
52
14
65
68
29
17
53
64
39
54
38
49
16
79
73
46
40
74
20
28
58
25
55
72
48
32
12
81
24
26
33
37

> <PUBCHEM_MMFF94_PARTIAL_CHARGES>
30
1 -0.08
10 0.33
11 0.27
12 0.3
14 0.27
15 0.3
17 0.57
18 0.06
19 0.69
2 -0.57
20 0.57
21 0.3
22 0.3
23 0.06
26 -0.15
27 -0.11
28 -0.11
3 -0.57
4 -0.57
40 0.37
41 0.37
44 0.37
5 -0.81
55 0.15
56 0.15
57 0.15
6 -0.73
7 -0.73
8 -0.66
9 -0.49

> <PUBCHEM_EFFECTIVE_ROTOR_COUNT>
11.2

> <PUBCHEM_PHARMACOPHORE_FEATURES>
10
1 2 acceptor
1 3 acceptor
1 4 acceptor
1 5 cation
1 6 donor
1 7 donor
1 9 donor
5 1 23 26 27 28 rings
5 5 10 12 13 14 rings
6 5 6 10 11 15 17 rings

> <PUBCHEM_HEAVY_ATOM_COUNT>
28

> <PUBCHEM_ATOM_DEF_STEREO_COUNT>
3

> <PUBCHEM_ATOM_UDEF_STEREO_COUNT>
0

> <PUBCHEM_BOND_DEF_STEREO_COUNT>
0

> <PUBCHEM_BOND_UDEF_STEREO_COUNT>
0

> <PUBCHEM_ISOTOPIC_ATOM_COUNT>
0

> <PUBCHEM_COMPONENT_COUNT>
1

> <PUBCHEM_CACTVS_TAUTO_COUNT>
9

> <PUBCHEM_CONFORMER_ID>
01985F2800000001

> <PUBCHEM_MMFF94_ENERGY>
51.9237

> <PUBCHEM_FEATURE_SELFOVERLAP>
50.889

> <PUBCHEM_SHAPE_FINGERPRINT>
10 15 18408324401562132825
10190206 1 18199736098687924559
10319688 67 18334292106184127690
11135609 127 17976248046950672229
12107183 9 18114461262355619548
12895837 130 18059571450925403877
12925494 130 18411697716954689738
12988421 55 18114167640599303830
13540713 4 18267888158071947262
13540713 5 17243873551771956214
14190465 44 18263928911484440340
14347332 77 10159437400772375036
15289351 153 18200309914823746712
16120349 21 8430322355294792231
18643901 69 8790615817935005744
19053607 189 17823712871179250557
19438510 23 18411982451167844154
20501277 279 18341342154316201985
20554085 129 18130211697487542154
20567600 254 18411416198527087477
21033648 29 18336274504485550310
21307412 95 9223230716074113489
21365058 113 11311760792312537179
21424621 283 18411135827008584838
21585481 104 15051194297380479376
22224240 67 18409448094093051781
23522609 53 17241902076448125284
24771293 8 18409730656061109069
2851757 15 18413389834768016470
3246875 12 18411140242920793507
3627633 1 17692244553440499638
3918712 181 18341325596289913017
393628 179 18131056152414555576
5470011 282 12103846787388220800
57307002 19 18261105249787133101
59682541 35 18337402612749109195
6058803 2 17027704098342268382
6327066 14 18341890792373248484
6695519 79 18194431960217035675
9896288 288 18042408109040121938
9981440 41 18334863826719776115

> <PUBCHEM_SHAPE_MULTIPOLES>
537.56
23.81
4.45
1.21
13.12
2.63
-0.03
-31.33
-4.9
-3.3
-1.01
0.8
-0.02
3.07

> <PUBCHEM_SHAPE_SELFOVERLAP>
1096.819

> <PUBCHEM_SHAPE_VOLUME>
313.5

> <PUBCHEM_COORDINATE_TYPE>
2
5
10

$$$$
