11883170
  -OEChem-12032416133D

 61 64  0     1  0  0  0  0  0999 V2000
    1.0665    2.5125   -0.1169 S   0  0  0  0  0  0  0  0  0  0  0  0
   -6.2961   -0.1231   -0.8034 O   0  0  0  0  0  0  0  0  0  0  0  0
   -6.0629    2.0108    0.2628 O   0  0  0  0  0  0  0  0  0  0  0  0
    2.2211   -2.4574    1.6129 O   0  0  0  0  0  0  0  0  0  0  0  0
    1.5843    0.0107    0.2900 N   0  0  0  0  0  0  0  0  0  0  0  0
    1.1496   -3.2047   -0.3093 N   0  0  0  0  0  0  0  0  0  0  0  0
   -2.2092   -0.5833    0.6433 C   0  0  2  0  0  0  0  0  0  0  0  0
   -2.5672    0.5919   -0.3697 C   0  0  1  0  0  0  0  0  0  0  0  0
   -4.0955    0.9332   -0.5588 C   0  0  1  0  0  0  0  0  0  0  0  0
   -0.7066   -1.0435    0.3534 C   0  0  1  0  0  0  0  0  0  0  0  0
   -3.1482   -1.7903    0.3856 C   0  0  0  0  0  0  0  0  0  0  0  0
   -4.8941   -0.3860   -0.7583 C   0  0  1  0  0  0  0  0  0  0  0  0
   -1.6705    1.8416   -0.1307 C   0  0  0  0  0  0  0  0  0  0  0  0
   -4.6240   -1.4220    0.3272 C   0  0  0  0  0  0  0  0  0  0  0  0
   -2.3405   -0.1593    2.1269 C   0  0  0  0  0  0  0  0  0  0  0  0
    0.2098    0.1464    0.2269 C   0  0  0  0  0  0  0  0  0  0  0  0
   -4.7079    1.7812    0.5778 C   0  0  0  0  0  0  0  0  0  0  0  0
   -4.2697    1.7792   -1.8519 C   0  0  0  0  0  0  0  0  0  0  0  0
   -0.2426    1.4287   -0.0083 C   0  0  0  0  0  0  0  0  0  0  0  0
   -0.1531   -2.0760    1.3447 C   0  0  0  0  0  0  0  0  0  0  0  0
    1.2080   -2.5854    0.9307 C   0  0  0  0  0  0  0  0  0  0  0  0
    2.1379    1.1930    0.1295 C   0  0  0  0  0  0  0  0  0  0  0  0
    3.5585    1.4502    0.1445 C   0  0  0  0  0  0  0  0  0  0  0  0
    2.3036   -3.7849   -0.9573 C   0  0  0  0  0  0  0  0  0  0  0  0
    4.4258    0.5342    0.7387 C   0  0  0  0  0  0  0  0  0  0  0  0
    4.0618    2.6139   -0.4356 C   0  0  0  0  0  0  0  0  0  0  0  0
    5.7983    0.7824    0.7527 C   0  0  0  0  0  0  0  0  0  0  0  0
    5.4343    2.8620   -0.4215 C   0  0  0  0  0  0  0  0  0  0  0  0
    2.9830   -2.8028   -1.8019 C   0  0  0  0  0  0  0  0  0  0  0  0
    6.3026    1.9463    0.1726 C   0  0  0  0  0  0  0  0  0  0  0  0
    3.5432   -1.9997   -2.4965 C   0  0  0  0  0  0  0  0  0  0  0  0
   -2.2587    0.1965   -1.3532 H   0  0  0  0  0  0  0  0  0  0  0  0
   -0.7195   -1.4872   -0.6520 H   0  0  0  0  0  0  0  0  0  0  0  0
   -3.0148   -2.5546    1.1602 H   0  0  0  0  0  0  0  0  0  0  0  0
   -2.8781   -2.2688   -0.5651 H   0  0  0  0  0  0  0  0  0  0  0  0
   -4.6239   -0.8351   -1.7237 H   0  0  0  0  0  0  0  0  0  0  0  0
   -1.9685    2.3671    0.7827 H   0  0  0  0  0  0  0  0  0  0  0  0
   -1.7716    2.5442   -0.9646 H   0  0  0  0  0  0  0  0  0  0  0  0
   -5.2146   -2.3232    0.1179 H   0  0  0  0  0  0  0  0  0  0  0  0
   -4.9837   -1.0685    1.2998 H   0  0  0  0  0  0  0  0  0  0  0  0
   -1.6621    0.6563    2.3923 H   0  0  0  0  0  0  0  0  0  0  0  0
   -3.3480    0.1501    2.3943 H   0  0  0  0  0  0  0  0  0  0  0  0
   -2.1157   -0.9953    2.7984 H   0  0  0  0  0  0  0  0  0  0  0  0
   -4.2070    2.7462    0.7037 H   0  0  0  0  0  0  0  0  0  0  0  0
   -4.7003    1.2726    1.5376 H   0  0  0  0  0  0  0  0  0  0  0  0
   -3.8347    2.7783   -1.7425 H   0  0  0  0  0  0  0  0  0  0  0  0
   -3.7743    1.2963   -2.7024 H   0  0  0  0  0  0  0  0  0  0  0  0
   -5.3154    1.9216   -2.1414 H   0  0  0  0  0  0  0  0  0  0  0  0
   -0.8169   -2.9419    1.4361 H   0  0  0  0  0  0  0  0  0  0  0  0
   -0.0355   -1.6408    2.3441 H   0  0  0  0  0  0  0  0  0  0  0  0
   -6.5024    0.2611   -1.6714 H   0  0  0  0  0  0  0  0  0  0  0  0
   -6.1134    2.8105   -0.2874 H   0  0  0  0  0  0  0  0  0  0  0  0
    0.2560   -3.3085   -0.7799 H   0  0  0  0  0  0  0  0  0  0  0  0
    2.9867   -4.1727   -0.1944 H   0  0  0  0  0  0  0  0  0  0  0  0
    1.9489   -4.6290   -1.5569 H   0  0  0  0  0  0  0  0  0  0  0  0
    4.0577   -0.3780    1.2002 H   0  0  0  0  0  0  0  0  0  0  0  0
    3.4452    3.3532   -0.9375 H   0  0  0  0  0  0  0  0  0  0  0  0
    6.4745    0.0695    1.2155 H   0  0  0  0  0  0  0  0  0  0  0  0
    5.8287    3.7651   -0.8783 H   0  0  0  0  0  0  0  0  0  0  0  0
    7.3715    2.1388    0.1822 H   0  0  0  0  0  0  0  0  0  0  0  0
    4.0398   -1.2848   -3.1100 H   0  0  0  0  0  0  0  0  0  0  0  0
  1 19  1  0  0  0  0
  1 22  1  0  0  0  0
  2 12  1  0  0  0  0
  2 51  1  0  0  0  0
  3 17  1  0  0  0  0
  3 52  1  0  0  0  0
  4 21  2  0  0  0  0
  5 16  1  0  0  0  0
  5 22  2  0  0  0  0
  6 21  1  0  0  0  0
  6 24  1  0  0  0  0
  6 53  1  0  0  0  0
  7  8  1  0  0  0  0
  7 10  1  0  0  0  0
  7 11  1  0  0  0  0
  7 15  1  0  0  0  0
  8  9  1  0  0  0  0
  8 13  1  0  0  0  0
  8 32  1  0  0  0  0
  9 12  1  0  0  0  0
  9 17  1  0  0  0  0
  9 18  1  0  0  0  0
 10 16  1  0  0  0  0
 10 20  1  0  0  0  0
 10 33  1  0  0  0  0
 11 14  1  0  0  0  0
 11 34  1  0  0  0  0
 11 35  1  0  0  0  0
 12 14  1  0  0  0  0
 12 36  1  0  0  0  0
 13 19  1  0  0  0  0
 13 37  1  0  0  0  0
 13 38  1  0  0  0  0
 14 39  1  0  0  0  0
 14 40  1  0  0  0  0
 15 41  1  0  0  0  0
 15 42  1  0  0  0  0
 15 43  1  0  0  0  0
 16 19  2  0  0  0  0
 17 44  1  0  0  0  0
 17 45  1  0  0  0  0
 18 46  1  0  0  0  0
 18 47  1  0  0  0  0
 18 48  1  0  0  0  0
 20 21  1  0  0  0  0
 20 49  1  0  0  0  0
 20 50  1  0  0  0  0
 22 23  1  0  0  0  0
 23 25  2  0  0  0  0
 23 26  1  0  0  0  0
 24 29  1  0  0  0  0
 24 54  1  0  0  0  0
 24 55  1  0  0  0  0
 25 27  1  0  0  0  0
 25 56  1  0  0  0  0
 26 28  2  0  0  0  0
 26 57  1  0  0  0  0
 27 30  2  0  0  0  0
 27 58  1  0  0  0  0
 28 30  1  0  0  0  0
 28 59  1  0  0  0  0
 29 31  3  0  0  0  0
 30 60  1  0  0  0  0
 31 61  1  0  0  0  0
M  END
> <PUBCHEM_COMPOUND_CID>
11883170

> <PUBCHEM_CONFORMER_RMSD>
1

> <PUBCHEM_CONFORMER_DIVERSEORDER>
2
7
6
5
1
4
3

> <PUBCHEM_MMFF94_PARTIAL_CHARGES>
33
1 -0.08
10 0.18
12 0.28
13 0.18
16 0.05
17 0.28
19 -0.14
2 -0.68
20 0.06
21 0.57
22 0.33
23 0.05
24 0.5
25 -0.15
26 -0.15
27 -0.15
28 -0.15
29 -0.2
3 -0.68
30 -0.15
31 -0.18
4 -0.57
5 -0.57
51 0.4
52 0.4
53 0.37
56 0.15
57 0.15
58 0.15
59 0.15
6 -0.73
60 0.15
61 0.18

> <PUBCHEM_EFFECTIVE_ROTOR_COUNT>
7.2

> <PUBCHEM_PHARMACOPHORE_FEATURES>
12
1 2 acceptor
1 2 donor
1 3 acceptor
1 3 donor
1 31 hydrophobe
1 4 acceptor
1 5 acceptor
1 6 donor
5 1 5 16 19 22 rings
6 23 25 26 27 28 30 rings
6 7 8 10 13 16 19 rings
6 7 8 9 11 12 14 rings

> <PUBCHEM_HEAVY_ATOM_COUNT>
31

> <PUBCHEM_ATOM_DEF_STEREO_COUNT>
5

> <PUBCHEM_ATOM_UDEF_STEREO_COUNT>
0

> <PUBCHEM_BOND_DEF_STEREO_COUNT>
0

> <PUBCHEM_BOND_UDEF_STEREO_COUNT>
0

> <PUBCHEM_ISOTOPIC_ATOM_COUNT>
0

> <PUBCHEM_COMPONENT_COUNT>
1

> <PUBCHEM_CACTVS_TAUTO_COUNT>
2

> <PUBCHEM_CONFORMER_ID>
00B552A200000002

> <PUBCHEM_MMFF94_ENERGY>
99.9292

> <PUBCHEM_FEATURE_SELFOVERLAP>
61.044

> <PUBCHEM_SHAPE_FINGERPRINT>
10906281 52 18188221969291510128
11421498 54 17704077282839868104
11488393 25 18341058406811914778
11578080 2 16590246642252882911
12597179 24 18412548747333454974
12788726 201 17632015222553482433
13140716 1 18188772730723695387
13402501 40 18408604790429062504
13631057 29 18198053876030392455
13911987 19 18197508517635690332
14466204 15 18334851748986961232
14790565 3 18261673782928824984
15131766 46 14998820372074675468
15183329 4 18113611318065516392
15664445 248 18054796074389690526
15840311 113 18194975033283674385
17980427 23 17458909356667319092
18608769 82 18188492510204437243
18681886 176 18191017001254469304
19315092 285 14332310489002455476
20554085 129 17916851522336962016
20642791 35 18193845842665978529
21033648 29 16951122856080718661
21236236 1 18261671584084566849
22182313 1 18189075181703572515
23559900 14 18340207380305584438
266924 87 18341615875869984664
3004659 81 18040991874197724696
3298306 158 18340490058083952838
335352 9 18261388980132785396
3411729 13 18408882914977913042
350125 39 18189616219166463441
38695281 34 18342173401406253342
4017518 198 18130797811017262150
4093350 32 17560523898055941647
4280585 95 17979351954884852286
5085150 59 18340758351932574240
5104073 3 18114184082514510345
5265222 85 18050859007388132364
532947 4 18341057354296494158
59755656 215 18412829079848689422
6138700 20 18335135389317460538
6669772 16 18343024410785040070
7495541 125 8646774387323253772

> <PUBCHEM_SHAPE_MULTIPOLES>
614.24
13.32
4.04
1.52
1.39
2.6
-0.37
-8.53
-1.8
-3.95
-0.97
-0.23
0.95
1.53

> <PUBCHEM_SHAPE_SELFOVERLAP>
1303.225

> <PUBCHEM_SHAPE_VOLUME>
344.7

> <PUBCHEM_COORDINATE_TYPE>
2
5
10

$$$$
