75537145
  -OEChem-12032416333D

 40 42  0     1  0  0  0  0  0999 V2000
   -4.7915   -1.3720    1.2031 S   0  0  0  0  0  0  0  0  0  0  0  0
    3.3482    1.8523   -0.1563 O   0  0  0  0  0  0  0  0  0  0  0  0
    4.5734   -0.8943    0.9614 O   0  0  0  0  0  0  0  0  0  0  0  0
    1.0880    1.2337   -0.3223 N   0  0  0  0  0  0  0  0  0  0  0  0
   -1.6006    0.8876    0.4277 N   0  0  2  0  0  0  0  0  0  0  0  0
    2.6432   -0.2128   -1.0522 N   0  0  0  0  0  0  0  0  0  0  0  0
   -4.1344    0.1843   -0.7536 N   0  0  0  0  0  0  0  0  0  0  0  0
    0.3287    0.1504   -0.9110 C   0  0  2  0  0  0  0  0  0  0  0  0
   -0.7946   -0.2844    0.0298 C   0  0  0  0  0  0  0  0  0  0  0  0
    1.3817   -0.9199   -1.1912 C   0  0  0  0  0  0  0  0  0  0  0  0
    0.3854    2.3701    0.2361 C   0  0  0  0  0  0  0  0  0  0  0  0
   -0.7664    1.8892    1.1223 C   0  0  0  0  0  0  0  0  0  0  0  0
    2.4703    1.0608   -0.4737 C   0  0  0  0  0  0  0  0  0  0  0  0
    3.9115   -0.8432   -1.3447 C   0  0  0  0  0  0  0  0  0  0  0  0
   -2.7149    0.4736    1.2800 C   0  0  0  0  0  0  0  0  0  0  0  0
    4.3844   -1.7071   -0.1898 C   0  0  0  0  0  0  0  0  0  0  0  0
   -3.8309   -0.1464    0.4818 C   0  0  0  0  0  0  0  0  0  0  0  0
   -5.6986   -1.4808   -0.2483 C   0  0  0  0  0  0  0  0  0  0  0  0
   -5.2053   -0.5819   -1.1706 C   0  0  0  0  0  0  0  0  0  0  0  0
    5.0225   -1.6592    2.0716 C   0  0  0  0  0  0  0  0  0  0  0  0
   -0.0862    0.5260   -1.8557 H   0  0  0  0  0  0  0  0  0  0  0  0
   -1.4100   -1.0270   -0.4915 H   0  0  0  0  0  0  0  0  0  0  0  0
   -0.3753   -0.7730    0.9201 H   0  0  0  0  0  0  0  0  0  0  0  0
    1.3580   -1.7355   -0.4616 H   0  0  0  0  0  0  0  0  0  0  0  0
    1.2906   -1.3298   -2.2015 H   0  0  0  0  0  0  0  0  0  0  0  0
    0.0040    2.9616   -0.6042 H   0  0  0  0  0  0  0  0  0  0  0  0
    1.0861    2.9940    0.7998 H   0  0  0  0  0  0  0  0  0  0  0  0
   -0.3592    1.4626    2.0489 H   0  0  0  0  0  0  0  0  0  0  0  0
   -1.3710    2.7611    1.3991 H   0  0  0  0  0  0  0  0  0  0  0  0
    4.6426   -0.0462   -1.5212 H   0  0  0  0  0  0  0  0  0  0  0  0
    3.8077   -1.4310   -2.2621 H   0  0  0  0  0  0  0  0  0  0  0  0
   -3.1561    1.3544    1.7665 H   0  0  0  0  0  0  0  0  0  0  0  0
   -2.3734   -0.1895    2.0855 H   0  0  0  0  0  0  0  0  0  0  0  0
    5.3341   -2.1836   -0.4587 H   0  0  0  0  0  0  0  0  0  0  0  0
    3.6502   -2.4905    0.0311 H   0  0  0  0  0  0  0  0  0  0  0  0
   -6.5210   -2.1736   -0.3548 H   0  0  0  0  0  0  0  0  0  0  0  0
   -5.5942   -0.4443   -2.1705 H   0  0  0  0  0  0  0  0  0  0  0  0
    5.1519   -0.9860    2.9232 H   0  0  0  0  0  0  0  0  0  0  0  0
    5.9849   -2.1301    1.8492 H   0  0  0  0  0  0  0  0  0  0  0  0
    4.2824   -2.4201    2.3376 H   0  0  0  0  0  0  0  0  0  0  0  0
  1 17  1  0  0  0  0
  1 18  1  0  0  0  0
  2 13  2  0  0  0  0
  3 16  1  0  0  0  0
  3 20  1  0  0  0  0
  4  8  1  0  0  0  0
  4 11  1  0  0  0  0
  4 13  1  0  0  0  0
  5  9  1  0  0  0  0
  5 12  1  0  0  0  0
  5 15  1  0  0  0  0
  6 10  1  0  0  0  0
  6 13  1  0  0  0  0
  6 14  1  0  0  0  0
  7 17  2  0  0  0  0
  7 19  1  0  0  0  0
  8  9  1  0  0  0  0
  8 10  1  0  0  0  0
  8 21  1  0  0  0  0
  9 22  1  0  0  0  0
  9 23  1  0  0  0  0
 10 24  1  0  0  0  0
 10 25  1  0  0  0  0
 11 12  1  0  0  0  0
 11 26  1  0  0  0  0
 11 27  1  0  0  0  0
 12 28  1  0  0  0  0
 12 29  1  0  0  0  0
 14 16  1  0  0  0  0
 14 30  1  0  0  0  0
 14 31  1  0  0  0  0
 15 17  1  0  0  0  0
 15 32  1  0  0  0  0
 15 33  1  0  0  0  0
 16 34  1  0  0  0  0
 16 35  1  0  0  0  0
 18 19  2  0  0  0  0
 18 36  1  0  0  0  0
 19 37  1  0  0  0  0
 20 38  1  0  0  0  0
 20 39  1  0  0  0  0
 20 40  1  0  0  0  0
M  END
> <PUBCHEM_COMPOUND_CID>
75537145

> <PUBCHEM_CONFORMER_RMSD>
0.8

> <PUBCHEM_CONFORMER_DIVERSEORDER>
1
85
91
74
12
65
71
42
96
87
49
18
51
100
46
99
29
68
24
94
72
90
3
69
67
44
32
16
75
55
98
61
79
84
48
97
77
93
73
27
70
83
81
50
54
40
53
41
89
64
76
88
62
36
47
35
66
45
21
82
23
92
78
10
20
19
15
14
34
80
8
33
28
31
30
63
9
59
25
56
6
2
86
22
11
101
4
57
52
60
26
5
17
39
38
13
43
58
7
37
95

> <PUBCHEM_MMFF94_PARTIAL_CHARGES>
22
1 -0.08
10 0.3
11 0.3
12 0.27
13 0.69
14 0.3
15 0.45
16 0.28
17 0.2
18 -0.11
19 0.08
2 -0.57
20 0.28
3 -0.56
36 0.15
37 0.15
4 -0.66
5 -0.81
6 -0.66
7 -0.57
8 0.3
9 0.27

> <PUBCHEM_EFFECTIVE_ROTOR_COUNT>
6.2

> <PUBCHEM_PHARMACOPHORE_FEATURES>
7
1 2 acceptor
1 3 acceptor
1 5 cation
1 7 acceptor
5 1 7 17 18 19 rings
5 4 6 8 10 13 rings
6 4 5 8 9 11 12 rings

> <PUBCHEM_HEAVY_ATOM_COUNT>
20

> <PUBCHEM_ATOM_DEF_STEREO_COUNT>
1

> <PUBCHEM_ATOM_UDEF_STEREO_COUNT>
0

> <PUBCHEM_BOND_DEF_STEREO_COUNT>
0

> <PUBCHEM_BOND_UDEF_STEREO_COUNT>
0

> <PUBCHEM_ISOTOPIC_ATOM_COUNT>
0

> <PUBCHEM_COMPONENT_COUNT>
1

> <PUBCHEM_CACTVS_TAUTO_COUNT>
1

> <PUBCHEM_CONFORMER_ID>
04809AF900000001

> <PUBCHEM_MMFF94_ENERGY>
35.2421

> <PUBCHEM_FEATURE_SELFOVERLAP>
35.618

> <PUBCHEM_SHAPE_FINGERPRINT>
10378564 45 14201389470033947930
10447042 23 18412544331526618076
10670039 82 10665217121278150022
11796584 16 17822011990819956931
12892183 10 16630530570582327400
12895836 83 10014995704893095994
13083527 12 18413385423974019880
13899415 180 18409439293927102245
14178342 30 17772487689196948752
1420 369 18130795550856706631
14251751 18 17822284686851827170
14251752 14 18260828160440802085
14251764 75 13037464143509680634
14341114 328 14045736023847028507
14573314 32 16732983128414595143
14848178 5 18187925036848853178
15183329 4 14562525150545121378
17349148 13 18343312469661349451
17834072 8 14129058105974198099
17857418 61 18114178618498775922
17862501 102 18201725032995140871
18222031 100 18272376347577133998
19377110 9 17203613721938934579
19784866 170 10231761089255918815
200 152 18272093790395239101
20028762 73 17989209260926518855
20369508 70 18260830410470694276
20621476 91 17274805987662927343
20645477 70 18335991934149611446
21267235 1 17987817274793884671
21304303 282 17541637440750188741
21501925 9 18272655619214613436
22079108 93 15410601589126716846
23253445 4 15985098613536143643
23402539 116 18201164260774657679
23559900 14 17894915169386774056
3004659 81 18410582789892476135
32948 21 16877660141183429503
34797466 226 16226624003751656071
4990 188 14057011528706518114
5104073 3 18343592849695869521
56616090 89 18131351895219154689
59682541 52 16298931109720508867
602551 16 13973683962291403149
7064713 232 16486988275668048087
76465 3 18261392213388298784
8988823 20 18186795903253207136
960060 61 16081372938518075082

> <PUBCHEM_SHAPE_MULTIPOLES>
383.78
12.49
2.07
1.51
5.48
0.7
-0.4
-8.73
-1.35
-1.2
-0.53
-0.8
-0.53
-0.82

> <PUBCHEM_SHAPE_SELFOVERLAP>
782.577

> <PUBCHEM_SHAPE_VOLUME>
226.2

> <PUBCHEM_COORDINATE_TYPE>
2
5
10

$$$$
