71694321
  -OEChem-12032416273D

 41 43  0     1  0  0  0  0  0999 V2000
   -6.7466    0.9442    0.0041 F   0  0  0  0  0  0  0  0  0  0  0  0
   -7.1298   -1.1426    0.5278 F   0  0  0  0  0  0  0  0  0  0  0  0
   -5.5276   -0.0624    1.5485 F   0  0  0  0  0  0  0  0  0  0  0  0
    5.2937    1.8162    0.3721 O   0  0  0  0  0  0  0  0  0  0  0  0
    3.0774   -2.6082    0.9224 O   0  0  0  0  0  0  0  0  0  0  0  0
   -5.2576   -0.6681   -0.6405 O   0  0  0  0  0  0  0  0  0  0  0  0
    4.1972   -0.7741    0.0302 N   0  0  0  0  0  0  0  0  0  0  0  0
    1.0561    0.0844    0.4069 N   0  0  0  0  0  0  0  0  0  0  0  0
    2.1292    1.8535   -0.3993 N   0  0  0  0  0  0  0  0  0  0  0  0
    3.5233    0.1910    0.9228 C   0  0  1  0  0  0  0  0  0  0  0  0
    4.5083    1.2599    1.4273 C   0  0  0  0  0  0  0  0  0  0  0  0
    5.1210   -0.1970   -0.9547 C   0  0  0  0  0  0  0  0  0  0  0  0
    2.2489    0.7429    0.2936 C   0  0  0  0  0  0  0  0  0  0  0  0
    6.0511    0.8086   -0.2949 C   0  0  0  0  0  0  0  0  0  0  0  0
    3.8542   -2.1281    0.0928 C   0  0  0  0  0  0  0  0  0  0  0  0
    0.1161    0.8221   -0.2558 C   0  0  0  0  0  0  0  0  0  0  0  0
    0.8021    1.9088   -0.7447 C   0  0  0  0  0  0  0  0  0  0  0  0
   -1.2676    0.4386   -0.3537 C   0  0  0  0  0  0  0  0  0  0  0  0
    4.4924   -3.0356   -0.9286 C   0  0  0  0  0  0  0  0  0  0  0  0
   -2.2570    1.4166   -0.4556 C   0  0  0  0  0  0  0  0  0  0  0  0
   -1.6192   -0.9113   -0.3472 C   0  0  0  0  0  0  0  0  0  0  0  0
   -3.5979    1.0448   -0.5511 C   0  0  0  0  0  0  0  0  0  0  0  0
   -2.9602   -1.2831   -0.4426 C   0  0  0  0  0  0  0  0  0  0  0  0
   -3.9495   -0.3051   -0.5444 C   0  0  0  0  0  0  0  0  0  0  0  0
   -6.1582   -0.2161    0.3647 C   0  0  0  0  0  0  0  0  0  0  0  0
    3.1929   -0.3560    1.8171 H   0  0  0  0  0  0  0  0  0  0  0  0
    5.1920    0.8243    2.1669 H   0  0  0  0  0  0  0  0  0  0  0  0
    3.9764    2.0804    1.9211 H   0  0  0  0  0  0  0  0  0  0  0  0
    4.4985    0.3008   -1.7072 H   0  0  0  0  0  0  0  0  0  0  0  0
    5.7117   -0.9625   -1.4604 H   0  0  0  0  0  0  0  0  0  0  0  0
    6.7235    0.3225    0.4221 H   0  0  0  0  0  0  0  0  0  0  0  0
    6.6693    1.2999   -1.0526 H   0  0  0  0  0  0  0  0  0  0  0  0
    0.9052   -0.7851    0.9015 H   0  0  0  0  0  0  0  0  0  0  0  0
    0.4179    2.7312   -1.3316 H   0  0  0  0  0  0  0  0  0  0  0  0
    5.5705   -3.0937   -0.7574 H   0  0  0  0  0  0  0  0  0  0  0  0
    4.2823   -2.6793   -1.9405 H   0  0  0  0  0  0  0  0  0  0  0  0
    4.0748   -4.0425   -0.8313 H   0  0  0  0  0  0  0  0  0  0  0  0
   -2.0100    2.4754   -0.4588 H   0  0  0  0  0  0  0  0  0  0  0  0
   -0.8713   -1.6975   -0.2806 H   0  0  0  0  0  0  0  0  0  0  0  0
   -4.3579    1.8165   -0.6362 H   0  0  0  0  0  0  0  0  0  0  0  0
   -3.2283   -2.3361   -0.4397 H   0  0  0  0  0  0  0  0  0  0  0  0
  1 25  1  0  0  0  0
  2 25  1  0  0  0  0
  3 25  1  0  0  0  0
  4 11  1  0  0  0  0
  4 14  1  0  0  0  0
  5 15  2  0  0  0  0
  6 24  1  0  0  0  0
  6 25  1  0  0  0  0
  7 10  1  0  0  0  0
  7 12  1  0  0  0  0
  7 15  1  0  0  0  0
  8 13  1  0  0  0  0
  8 16  1  0  0  0  0
  8 33  1  0  0  0  0
  9 13  2  0  0  0  0
  9 17  1  0  0  0  0
 10 11  1  0  0  0  0
 10 13  1  0  0  0  0
 10 26  1  0  0  0  0
 11 27  1  0  0  0  0
 11 28  1  0  0  0  0
 12 14  1  0  0  0  0
 12 29  1  0  0  0  0
 12 30  1  0  0  0  0
 14 31  1  0  0  0  0
 14 32  1  0  0  0  0
 15 19  1  0  0  0  0
 16 17  2  0  0  0  0
 16 18  1  0  0  0  0
 17 34  1  0  0  0  0
 18 20  2  0  0  0  0
 18 21  1  0  0  0  0
 19 35  1  0  0  0  0
 19 36  1  0  0  0  0
 19 37  1  0  0  0  0
 20 22  1  0  0  0  0
 20 38  1  0  0  0  0
 21 23  2  0  0  0  0
 21 39  1  0  0  0  0
 22 24  2  0  0  0  0
 22 40  1  0  0  0  0
 23 24  1  0  0  0  0
 23 41  1  0  0  0  0
M  END
> <PUBCHEM_COMPOUND_CID>
71694321

> <PUBCHEM_CONFORMER_RMSD>
0.8

> <PUBCHEM_CONFORMER_DIVERSEORDER>
1
83
97
34
30
42
62
79
64
56
14
10
93
45
38
58
27
21
87
91
18
59
17
77
80
69
63
88
60
31
16
92
85
89
24
53
81
71
29
70
96
43
11
39
76
20
37
95
26
36
5
66
61
28
74
84
9
6
41
47
78
54
44
67
90
50
23
33
7
75
68
8
25
94
82
57
52
65
46
22
40
12
98
35
13
49
2
72
15
51
32
86
48
3
19
55
73
4

> <PUBCHEM_MMFF94_PARTIAL_CHARGES>
31
1 -0.34
10 0.48
11 0.28
12 0.3
13 0.01
14 0.28
15 0.57
16 -0.2
17 0.08
18 0.05
19 0.06
2 -0.34
20 -0.15
21 -0.15
22 -0.15
23 -0.15
24 0.08
25 1.3
3 -0.34
33 0.27
34 0.15
38 0.15
39 0.15
4 -0.56
40 0.15
41 0.15
5 -0.57
6 -0.36
7 -0.66
8 0.03
9 -0.57

> <PUBCHEM_EFFECTIVE_ROTOR_COUNT>
6.2

> <PUBCHEM_PHARMACOPHORE_FEATURES>
8
1 4 acceptor
1 5 acceptor
1 6 acceptor
1 8 donor
3 8 9 13 cation
5 8 9 13 16 17 rings
6 18 20 21 22 23 24 rings
6 4 7 10 11 12 14 rings

> <PUBCHEM_HEAVY_ATOM_COUNT>
25

> <PUBCHEM_ATOM_DEF_STEREO_COUNT>
1

> <PUBCHEM_ATOM_UDEF_STEREO_COUNT>
0

> <PUBCHEM_BOND_DEF_STEREO_COUNT>
0

> <PUBCHEM_BOND_UDEF_STEREO_COUNT>
0

> <PUBCHEM_ISOTOPIC_ATOM_COUNT>
0

> <PUBCHEM_COMPONENT_COUNT>
1

> <PUBCHEM_CACTVS_TAUTO_COUNT>
2

> <PUBCHEM_CONFORMER_ID>
0445F7F100000001

> <PUBCHEM_MMFF94_ENERGY>
58.9802

> <PUBCHEM_FEATURE_SELFOVERLAP>
40.597

> <PUBCHEM_SHAPE_FINGERPRINT>
10319688 140 18201443507249814190
11089746 13 9655581807112083684
11796584 16 17417813984424470478
12107183 9 17696762060044393480
12236239 1 18131070446201800689
12516196 113 18411135861447905713
12596602 18 17417529232271570683
12730499 353 18410855473851801506
12788726 201 17203615852052809739
13073987 5 18340768148004305616
13150687 139 17969806219103627860
13533116 47 18059855047673928658
13551218 46 18413107247684991719
13685833 64 18334295374812417045
13955234 65 18272922822595248650
14211702 104 18338521962631306727
14251764 18 18060138778188730871
14341114 176 18411420600894738231
14617045 38 18410295817748263310
14863182 85 18407761452442252414
15081414 286 18409445886601505604
15183329 4 17346881139658555899
15537594 2 18413105073914692374
15664445 248 18336274509408616460
17844677 252 18413390912589010712
1813 80 17240483585076133140
18608769 82 18261958560550646843
20645477 70 18341327800161237550
21033650 10 16444473356498867252
21130935 74 18343866611164835171
21267235 1 18334860527894423620
21279426 13 18263919943687282237
21623969 137 18113903779362484955
21682296 61 18340211769999862607
220451 1 17917709132257445055
22224240 67 18269260422425244856
23516275 137 17559702627295652886
23522609 53 18126875809163435681
23559900 14 18266732661402484217
239999 70 18202002145123751748
2838139 119 9583524200769489683
345986 75 18059286544306643338
34797466 226 17095251319188206638
350125 39 18410575059495110221
3545911 37 18410853282849014948
4073 2 18336828718106382418
4325135 7 17603586348726298492
4340502 62 18201708584087938512
46194498 28 17530966899608718996
465052 167 18201158759043247958
5104073 3 18339916000786234128
542803 24 17203608207027112545
54446538 1 8070034371471196751
59755656 215 18408885139675974822
59755656 520 14908178660193890261
70251023 43 18195532489720437298
7495541 125 14562534002414683204

> <PUBCHEM_SHAPE_MULTIPOLES>
460.12
16.97
2.32
1.02
17.41
1.35
0.18
2.47
2.03
-3.43
-0.22
-0.31
0
0.75

> <PUBCHEM_SHAPE_SELFOVERLAP>
988.393

> <PUBCHEM_SHAPE_VOLUME>
255.3

> <PUBCHEM_COORDINATE_TYPE>
2
5
10

$$$$
