7134533
  -OEChem-12032416123D

 68 70  0     1  0  0  0  0  0999 V2000
    1.8138   -2.5492   -2.0709 O   0  0  0  0  0  0  0  0  0  0  0  0
   -0.8382   -4.4323    1.0799 O   0  0  0  0  0  0  0  0  0  0  0  0
    1.9306   -4.5628    1.7311 O   0  0  0  0  0  0  0  0  0  0  0  0
    3.4134   -0.5811   -2.1933 O   0  0  0  0  0  0  0  0  0  0  0  0
   -2.6956   -1.6496   -1.8583 O   0  0  0  0  0  0  0  0  0  0  0  0
    5.4367   -0.1545    1.2108 O   0  0  0  0  0  0  0  0  0  0  0  0
   -1.7221    4.3436   -0.2887 O   0  0  0  0  0  0  0  0  0  0  0  0
   -1.7647   -1.7970    0.2616 N   0  0  0  0  0  0  0  0  0  0  0  0
   -3.8762   -0.9326    0.0078 N   0  0  0  0  0  0  0  0  0  0  0  0
    2.9932    0.1280   -0.0162 N   0  0  0  0  0  0  0  0  0  0  0  0
    6.2831    1.3870   -0.2669 N   0  0  0  0  0  0  0  0  0  0  0  0
    1.8717   -1.8178   -0.8518 C   0  0  1  0  0  0  0  0  0  0  0  0
   -0.5043   -2.3782   -0.1461 C   0  0  1  0  0  0  0  0  0  0  0  0
    0.4908   -1.2657   -0.4927 C   0  0  0  0  0  0  0  0  0  0  0  0
    0.0386   -3.3104    0.9452 C   0  0  2  0  0  0  0  0  0  0  0  0
    2.4091   -2.7273    0.2511 C   0  0  0  0  0  0  0  0  0  0  0  0
    1.4295   -3.8487    0.6008 C   0  0  1  0  0  0  0  0  0  0  0  0
    2.8364   -0.6988   -1.1154 C   0  0  0  0  0  0  0  0  0  0  0  0
   -5.0722   -0.5070   -0.6847 C   0  0  0  0  0  0  0  0  0  0  0  0
   -6.3156   -0.7108    0.1874 C   0  0  0  0  0  0  0  0  0  0  0  0
   -4.9517    0.9485   -1.1488 C   0  0  0  0  0  0  0  0  0  0  0  0
   -6.3869    0.2841    1.3459 C   0  0  0  0  0  0  0  0  0  0  0  0
   -5.0252    1.9405    0.0120 C   0  0  0  0  0  0  0  0  0  0  0  0
   -6.2762    1.7254    0.8581 C   0  0  0  0  0  0  0  0  0  0  0  0
   -2.7717   -1.4762   -0.6426 C   0  0  0  0  0  0  0  0  0  0  0  0
    3.8834    1.2662   -0.0037 C   0  0  1  0  0  0  0  0  0  0  0  0
    3.4112    2.3628    0.9594 C   0  0  0  0  0  0  0  0  0  0  0  0
    5.2576    0.7550    0.4042 C   0  0  0  0  0  0  0  0  0  0  0  0
    2.0445    2.8899    0.6268 C   0  0  0  0  0  0  0  0  0  0  0  0
    1.9168    3.9708   -0.2367 C   0  0  0  0  0  0  0  0  0  0  0  0
    0.9229    2.2910    1.1871 C   0  0  0  0  0  0  0  0  0  0  0  0
    0.6476    4.4606   -0.5446 C   0  0  0  0  0  0  0  0  0  0  0  0
   -0.3463    2.7807    0.8791 C   0  0  0  0  0  0  0  0  0  0  0  0
   -0.4839    3.8656    0.0132 C   0  0  0  0  0  0  0  0  0  0  0  0
   -0.7011   -2.9734   -1.0476 H   0  0  0  0  0  0  0  0  0  0  0  0
    0.5435   -0.5792    0.3600 H   0  0  0  0  0  0  0  0  0  0  0  0
    0.0938   -0.6765   -1.3306 H   0  0  0  0  0  0  0  0  0  0  0  0
    0.0555   -2.7979    1.9157 H   0  0  0  0  0  0  0  0  0  0  0  0
    3.3600   -3.1823   -0.0582 H   0  0  0  0  0  0  0  0  0  0  0  0
    2.6409   -2.1731    1.1692 H   0  0  0  0  0  0  0  0  0  0  0  0
    1.3690   -4.5640   -0.2287 H   0  0  0  0  0  0  0  0  0  0  0  0
   -1.8917   -1.5454    1.2372 H   0  0  0  0  0  0  0  0  0  0  0  0
   -5.1729   -1.1401   -1.5751 H   0  0  0  0  0  0  0  0  0  0  0  0
   -6.3388   -1.7328    0.5844 H   0  0  0  0  0  0  0  0  0  0  0  0
   -7.2113   -0.5909   -0.4354 H   0  0  0  0  0  0  0  0  0  0  0  0
   -5.7675    1.1669   -1.8498 H   0  0  0  0  0  0  0  0  0  0  0  0
   -4.0144    1.1019   -1.6970 H   0  0  0  0  0  0  0  0  0  0  0  0
    1.3722   -1.9958   -2.7376 H   0  0  0  0  0  0  0  0  0  0  0  0
   -5.5885    0.0787    2.0685 H   0  0  0  0  0  0  0  0  0  0  0  0
   -7.3344    0.1520    1.8810 H   0  0  0  0  0  0  0  0  0  0  0  0
   -4.1340    1.8380    0.6431 H   0  0  0  0  0  0  0  0  0  0  0  0
   -5.0185    2.9640   -0.3800 H   0  0  0  0  0  0  0  0  0  0  0  0
   -6.2621    2.4056    1.7171 H   0  0  0  0  0  0  0  0  0  0  0  0
   -7.1641    1.9783    0.2656 H   0  0  0  0  0  0  0  0  0  0  0  0
   -0.5776   -4.9157    1.8817 H   0  0  0  0  0  0  0  0  0  0  0  0
    1.3902   -5.3635    1.8380 H   0  0  0  0  0  0  0  0  0  0  0  0
   -3.8049   -0.7657    1.0066 H   0  0  0  0  0  0  0  0  0  0  0  0
    2.5402   -0.1073    0.8605 H   0  0  0  0  0  0  0  0  0  0  0  0
    3.9326    1.6632   -1.0256 H   0  0  0  0  0  0  0  0  0  0  0  0
    4.1336    3.1902    0.9637 H   0  0  0  0  0  0  0  0  0  0  0  0
    3.4109    1.9845    1.9914 H   0  0  0  0  0  0  0  0  0  0  0  0
    7.2503    1.1299   -0.0997 H   0  0  0  0  0  0  0  0  0  0  0  0
    6.1205    2.1343   -0.9341 H   0  0  0  0  0  0  0  0  0  0  0  0
    2.7915    4.4400   -0.6783 H   0  0  0  0  0  0  0  0  0  0  0  0
    1.0161    1.4513    1.8699 H   0  0  0  0  0  0  0  0  0  0  0  0
    0.5467    5.3054   -1.2204 H   0  0  0  0  0  0  0  0  0  0  0  0
   -1.2200    2.3082    1.3201 H   0  0  0  0  0  0  0  0  0  0  0  0
   -2.3878    3.8128    0.1815 H   0  0  0  0  0  0  0  0  0  0  0  0
  1 12  1  0  0  0  0
  1 48  1  0  0  0  0
  2 15  1  0  0  0  0
  2 55  1  0  0  0  0
  3 17  1  0  0  0  0
  3 56  1  0  0  0  0
  4 18  2  0  0  0  0
  5 25  2  0  0  0  0
  6 28  2  0  0  0  0
  7 34  1  0  0  0  0
  7 68  1  0  0  0  0
  8 13  1  0  0  0  0
  8 25  1  0  0  0  0
  8 42  1  0  0  0  0
  9 19  1  0  0  0  0
  9 25  1  0  0  0  0
  9 57  1  0  0  0  0
 10 18  1  0  0  0  0
 10 26  1  0  0  0  0
 10 58  1  0  0  0  0
 11 28  1  0  0  0  0
 11 62  1  0  0  0  0
 11 63  1  0  0  0  0
 12 14  1  0  0  0  0
 12 16  1  0  0  0  0
 12 18  1  0  0  0  0
 13 14  1  0  0  0  0
 13 15  1  0  0  0  0
 13 35  1  0  0  0  0
 14 36  1  0  0  0  0
 14 37  1  0  0  0  0
 15 17  1  0  0  0  0
 15 38  1  0  0  0  0
 16 17  1  0  0  0  0
 16 39  1  0  0  0  0
 16 40  1  0  0  0  0
 17 41  1  0  0  0  0
 19 20  1  0  0  0  0
 19 21  1  0  0  0  0
 19 43  1  0  0  0  0
 20 22  1  0  0  0  0
 20 44  1  0  0  0  0
 20 45  1  0  0  0  0
 21 23  1  0  0  0  0
 21 46  1  0  0  0  0
 21 47  1  0  0  0  0
 22 24  1  0  0  0  0
 22 49  1  0  0  0  0
 22 50  1  0  0  0  0
 23 24  1  0  0  0  0
 23 51  1  0  0  0  0
 23 52  1  0  0  0  0
 24 53  1  0  0  0  0
 24 54  1  0  0  0  0
 26 27  1  0  0  0  0
 26 28  1  0  0  0  0
 26 59  1  0  0  0  0
 27 29  1  0  0  0  0
 27 60  1  0  0  0  0
 27 61  1  0  0  0  0
 29 30  2  0  0  0  0
 29 31  1  0  0  0  0
 30 32  1  0  0  0  0
 30 64  1  0  0  0  0
 31 33  2  0  0  0  0
 31 65  1  0  0  0  0
 32 34  2  0  0  0  0
 32 66  1  0  0  0  0
 33 34  1  0  0  0  0
 33 67  1  0  0  0  0
M  END
> <PUBCHEM_COMPOUND_CID>
7134533

> <PUBCHEM_CONFORMER_RMSD>
1.2

> <PUBCHEM_CONFORMER_DIVERSEORDER>
1
7
58
79
77
85
34
103
13
16
99
114
82
87
92
44
98
49
18
97
100
37
116
29
63
91
109
54
35
89
30
46
74
42
53
25
14
57
24
102
62
5
76
65
45
105
9
101
23
104
84
68
4
43
27
110
19
70
80
81
107
117
66
61
26
106
36
12
32
41
111
67
2
39
21
28
115
88
51
96
6
83
55
71
118
64
95
78
90
60
52
10
8
47
31
75
3
93
40
17
94
69
11
48
112
59
33
86
73
113
15
20
56
38
72
22
108
50

> <PUBCHEM_MMFF94_PARTIAL_CHARGES>
40
1 -0.68
10 -0.73
11 -0.8
12 0.34
13 0.3
15 0.28
17 0.28
18 0.57
19 0.3
2 -0.68
25 0.69
26 0.36
27 0.14
28 0.57
29 -0.14
3 -0.68
30 -0.15
31 -0.15
32 -0.15
33 -0.15
34 0.08
4 -0.57
42 0.37
48 0.4
5 -0.57
55 0.4
56 0.4
57 0.37
58 0.37
6 -0.57
62 0.37
63 0.37
64 0.15
65 0.15
66 0.15
67 0.15
68 0.45
7 -0.53
8 -0.73
9 -0.73

> <PUBCHEM_EFFECTIVE_ROTOR_COUNT>
12.4

> <PUBCHEM_PHARMACOPHORE_FEATURES>
17
1 1 acceptor
1 1 donor
1 10 donor
1 11 donor
1 2 acceptor
1 2 donor
1 3 acceptor
1 3 donor
1 4 acceptor
1 5 acceptor
1 6 acceptor
1 7 donor
1 8 donor
1 9 donor
6 12 13 14 15 16 17 rings
6 19 20 21 22 23 24 rings
6 29 30 31 32 33 34 rings

> <PUBCHEM_HEAVY_ATOM_COUNT>
34

> <PUBCHEM_ATOM_DEF_STEREO_COUNT>
5

> <PUBCHEM_ATOM_UDEF_STEREO_COUNT>
0

> <PUBCHEM_BOND_DEF_STEREO_COUNT>
0

> <PUBCHEM_BOND_UDEF_STEREO_COUNT>
0

> <PUBCHEM_ISOTOPIC_ATOM_COUNT>
0

> <PUBCHEM_COMPONENT_COUNT>
1

> <PUBCHEM_CACTVS_TAUTO_COUNT>
24

> <PUBCHEM_CONFORMER_ID>
006CDD4500000001

> <PUBCHEM_MMFF94_ENERGY>
66.0262

> <PUBCHEM_FEATURE_SELFOVERLAP>
86.358

> <PUBCHEM_SHAPE_FINGERPRINT>
10006869 2 18196365914869429141
10675989 125 18408603665511712450
11059048 146 17760938737361656165
11513181 2 17346042139272502821
12769317 202 18339912784034927479
12788726 201 17905338329471018511
13402501 40 18412259570874013213
14020679 6 18115304621521698834
14251764 38 17907575087944937646
14466204 15 18409442609208811521
15081414 286 18341900666750962213
15238133 3 18263646324485194260
15320467 1 18410008840929203745
15475509 84 17831293909141633235
16112460 7 18200036273161301712
17093844 170 18342452694692714400
20764821 26 18338509863059198069
24893992 56 18410291458747068803
338550 245 18339928216058773885
3680242 22 18410007715394038792
373842 8 18048581634874702617
57527573 199 18410576227784055222
66674814 147 18411982502850259929

> <PUBCHEM_SHAPE_MULTIPOLES>
638.69
12.81
6.65
1.41
14.54
0.48
0.31
4.15
-1.33
-2.94
-1.44
-0.22
-0.78
-0.11

> <PUBCHEM_SHAPE_SELFOVERLAP>
1333.794

> <PUBCHEM_SHAPE_VOLUME>
356.6

> <PUBCHEM_COORDINATE_TYPE>
2
5
10

$$$$
