28960552
  -OEChem-12032416133D

 51 53  0     1  0  0  0  0  0999 V2000
    0.1528   -2.1270   -1.6025 O   0  0  0  0  0  0  0  0  0  0  0  0
    0.0865   -4.0086   -0.2475 O   0  0  0  0  0  0  0  0  0  0  0  0
    1.0548   -2.6081    2.0768 O   0  0  0  0  0  0  0  0  0  0  0  0
   -3.9621    2.9917   -1.2299 O   0  0  0  0  0  0  0  0  0  0  0  0
    3.4002    0.6452    1.1935 O   0  0  0  0  0  0  0  0  0  0  0  0
   -1.4609   -0.6845    0.2847 N   0  0  0  0  0  0  0  0  0  0  0  0
    1.8359   -0.0589   -0.3705 N   0  0  0  0  0  0  0  0  0  0  0  0
   -5.3732    2.8414    0.5811 N   0  0  0  0  0  0  0  0  0  0  0  0
    2.5633    2.1185   -0.3917 N   0  0  0  0  0  0  0  0  0  0  0  0
   -0.7368   -1.9099    0.6285 C   0  0  2  0  0  0  0  0  0  0  0  0
    0.6665   -1.5629    1.1754 C   0  0  2  0  0  0  0  0  0  0  0  0
    1.7410   -1.4330    0.0737 C   0  0  1  0  0  0  0  0  0  0  0  0
   -0.6246   -2.8143   -0.6126 C   0  0  1  0  0  0  0  0  0  0  0  0
    1.4859   -2.3563   -1.1355 C   0  0  1  0  0  0  0  0  0  0  0  0
    1.4060   -3.8301   -0.7849 C   0  0  0  0  0  0  0  0  0  0  0  0
   -2.5681   -0.9826   -0.6343 C   0  0  0  0  0  0  0  0  0  0  0  0
   -1.9457   -0.0160    1.5001 C   0  0  0  0  0  0  0  0  0  0  0  0
   -3.3008    0.2952   -1.0468 C   0  0  0  0  0  0  0  0  0  0  0  0
   -2.6581    1.2947    1.1620 C   0  0  0  0  0  0  0  0  0  0  0  0
   -3.8004    1.0657    0.1738 C   0  0  0  0  0  0  0  0  0  0  0  0
   -4.3739    2.3839   -0.2448 C   0  0  0  0  0  0  0  0  0  0  0  0
    2.6672    0.8783    0.2332 C   0  0  0  0  0  0  0  0  0  0  0  0
    3.3178    3.2742    0.0326 C   0  0  0  0  0  0  0  0  0  0  0  0
    4.6146    3.3078   -0.7054 C   0  0  0  0  0  0  0  0  0  0  0  0
    5.8122    3.2955   -0.1093 C   0  0  0  0  0  0  0  0  0  0  0  0
   -1.2861   -2.4815    1.3908 H   0  0  0  0  0  0  0  0  0  0  0  0
    0.6602   -0.6620    1.7950 H   0  0  0  0  0  0  0  0  0  0  0  0
    2.7191   -1.7025    0.4929 H   0  0  0  0  0  0  0  0  0  0  0  0
   -1.5744   -3.1617   -1.0262 H   0  0  0  0  0  0  0  0  0  0  0  0
    2.2051   -2.1629   -1.9380 H   0  0  0  0  0  0  0  0  0  0  0  0
    1.4718   -4.4508   -1.6849 H   0  0  0  0  0  0  0  0  0  0  0  0
    2.1626   -4.1613   -0.0686 H   0  0  0  0  0  0  0  0  0  0  0  0
   -3.2805   -1.6900   -0.1898 H   0  0  0  0  0  0  0  0  0  0  0  0
   -2.2303   -1.3810   -1.5950 H   0  0  0  0  0  0  0  0  0  0  0  0
   -1.1290    0.2338    2.1834 H   0  0  0  0  0  0  0  0  0  0  0  0
   -2.6352   -0.6681    2.0532 H   0  0  0  0  0  0  0  0  0  0  0  0
   -2.6192    0.9156   -1.6450 H   0  0  0  0  0  0  0  0  0  0  0  0
   -4.1446    0.0433   -1.7013 H   0  0  0  0  0  0  0  0  0  0  0  0
   -3.0424    1.7490    2.0836 H   0  0  0  0  0  0  0  0  0  0  0  0
   -1.9336    2.0082    0.7460 H   0  0  0  0  0  0  0  0  0  0  0  0
   -4.5840    0.4705    0.6616 H   0  0  0  0  0  0  0  0  0  0  0  0
    1.2106    0.2536   -1.1072 H   0  0  0  0  0  0  0  0  0  0  0  0
    1.9115   -2.3596    2.4639 H   0  0  0  0  0  0  0  0  0  0  0  0
   -5.6860    2.3247    1.3968 H   0  0  0  0  0  0  0  0  0  0  0  0
   -5.8341    3.7271    0.4002 H   0  0  0  0  0  0  0  0  0  0  0  0
    1.9462    2.2111   -1.1929 H   0  0  0  0  0  0  0  0  0  0  0  0
    2.7270    4.1627   -0.2105 H   0  0  0  0  0  0  0  0  0  0  0  0
    3.4600    3.2387    1.1180 H   0  0  0  0  0  0  0  0  0  0  0  0
    4.5762    3.3608   -1.7907 H   0  0  0  0  0  0  0  0  0  0  0  0
    6.7206    3.3293   -0.7008 H   0  0  0  0  0  0  0  0  0  0  0  0
    5.9083    3.2506    0.9699 H   0  0  0  0  0  0  0  0  0  0  0  0
  1 13  1  0  0  0  0
  1 14  1  0  0  0  0
  2 13  1  0  0  0  0
  2 15  1  0  0  0  0
  3 11  1  0  0  0  0
  3 43  1  0  0  0  0
  4 21  2  0  0  0  0
  5 22  2  0  0  0  0
  6 10  1  0  0  0  0
  6 16  1  0  0  0  0
  6 17  1  0  0  0  0
  7 12  1  0  0  0  0
  7 22  1  0  0  0  0
  7 42  1  0  0  0  0
  8 21  1  0  0  0  0
  8 44  1  0  0  0  0
  8 45  1  0  0  0  0
  9 22  1  0  0  0  0
  9 23  1  0  0  0  0
  9 46  1  0  0  0  0
 10 11  1  0  0  0  0
 10 13  1  0  0  0  0
 10 26  1  0  0  0  0
 11 12  1  0  0  0  0
 11 27  1  0  0  0  0
 12 14  1  0  0  0  0
 12 28  1  0  0  0  0
 13 29  1  0  0  0  0
 14 15  1  0  0  0  0
 14 30  1  0  0  0  0
 15 31  1  0  0  0  0
 15 32  1  0  0  0  0
 16 18  1  0  0  0  0
 16 33  1  0  0  0  0
 16 34  1  0  0  0  0
 17 19  1  0  0  0  0
 17 35  1  0  0  0  0
 17 36  1  0  0  0  0
 18 20  1  0  0  0  0
 18 37  1  0  0  0  0
 18 38  1  0  0  0  0
 19 20  1  0  0  0  0
 19 39  1  0  0  0  0
 19 40  1  0  0  0  0
 20 21  1  0  0  0  0
 20 41  1  0  0  0  0
 23 24  1  0  0  0  0
 23 47  1  0  0  0  0
 23 48  1  0  0  0  0
 24 25  2  0  0  0  0
 24 49  1  0  0  0  0
 25 50  1  0  0  0  0
 25 51  1  0  0  0  0
M  END
> <PUBCHEM_COMPOUND_CID>
28960552

> <PUBCHEM_CONFORMER_RMSD>
1

> <PUBCHEM_CONFORMER_DIVERSEORDER>
1
3
6
40
32
42
9
26
24
33
8
10
7
31
41
35
14
21
36
28
4
23
12
30
20
13
17
34
29
22
11
38
39
25
18
27
19
5
2
37
16
15

> <PUBCHEM_MMFF94_PARTIAL_CHARGES>
31
1 -0.56
10 0.27
11 0.28
12 0.3
13 0.56
14 0.28
15 0.28
16 0.27
17 0.27
2 -0.56
20 0.06
21 0.57
22 0.69
23 0.44
24 -0.29
25 -0.3
3 -0.68
4 -0.57
42 0.37
43 0.4
44 0.37
45 0.37
46 0.37
49 0.15
5 -0.57
50 0.15
51 0.15
6 -0.81
7 -0.73
8 -0.8
9 -0.73

> <PUBCHEM_EFFECTIVE_ROTOR_COUNT>
9.4

> <PUBCHEM_PHARMACOPHORE_FEATURES>
13
1 1 acceptor
1 2 acceptor
1 25 hydrophobe
1 3 acceptor
1 3 donor
1 4 acceptor
1 5 acceptor
1 6 cation
1 7 donor
1 8 donor
1 9 donor
6 6 16 17 18 19 20 rings
8 1 2 10 11 12 13 14 15 rings

> <PUBCHEM_HEAVY_ATOM_COUNT>
25

> <PUBCHEM_ATOM_DEF_STEREO_COUNT>
5

> <PUBCHEM_ATOM_UDEF_STEREO_COUNT>
0

> <PUBCHEM_BOND_DEF_STEREO_COUNT>
0

> <PUBCHEM_BOND_UDEF_STEREO_COUNT>
0

> <PUBCHEM_ISOTOPIC_ATOM_COUNT>
0

> <PUBCHEM_COMPONENT_COUNT>
1

> <PUBCHEM_CACTVS_TAUTO_COUNT>
6

> <PUBCHEM_CONFORMER_ID>
01B9E72800000001

> <PUBCHEM_MMFF94_ENERGY>
55.7998

> <PUBCHEM_FEATURE_SELFOVERLAP>
66.073

> <PUBCHEM_SHAPE_FINGERPRINT>
105312 117 18267592480049267340
10937287 8 18412824715571423485
11477941 20 16974777014364161828
11763715 3 16822223087656139622
12107183 9 18335688478358682656
12788726 201 17832129903251657474
13134695 92 17833554496374250799
13583140 156 17898863344645247227
13590594 115 17475525975271090768
13944108 23 17975700480747776676
14142880 1 18044368559498212765
14251764 75 18342468019178581993
14713325 29 17979362189717786258
15081414 286 17980202976330025132
15163728 17 18412548729589115748
15439362 3 18341899550386571236
16988056 13 17905043651622396228
17492 54 18051111881855677359
17980427 23 17981570863374404323
21475661 188 18262518095962395312
21860390 5 18051401873414600997
22149856 69 17703221795271278577
23559900 14 18052822443055365947
394222 165 18262224564944108730
474 4 18339922615304621865
5048184 11 18339080492176916788
56616090 278 18190463753367711083
5939293 188 18120930603419563207
6034566 193 18339093690949151105
6327066 14 18336826501930047244
7288768 16 18041278884437304985
7808743 9 18266458891792248904
9981440 41 18338799025789433170

> <PUBCHEM_SHAPE_MULTIPOLES>
465.22
9.23
5.66
1.35
4.41
1.14
-0.29
-16.86
0.86
1.78
1.19
-0.31
0.54
-0.22

> <PUBCHEM_SHAPE_SELFOVERLAP>
968.803

> <PUBCHEM_SHAPE_VOLUME>
260

> <PUBCHEM_COORDINATE_TYPE>
2
5
10

$$$$
