11886487
  -OEChem-12032416253D

 49 52  0     1  0  0  0  0  0999 V2000
   -7.3756   -1.5703   -1.5166 F   0  0  0  0  0  0  0  0  0  0  0  0
   -7.5562   -2.0379    0.5935 F   0  0  0  0  0  0  0  0  0  0  0  0
   -6.2074   -3.1930   -0.6616 F   0  0  0  0  0  0  0  0  0  0  0  0
    1.8176    0.7836    0.8010 O   0  0  0  0  0  0  0  0  0  0  0  0
    1.8260    3.3438   -0.8869 O   0  0  0  0  0  0  0  0  0  0  0  0
    4.2299    0.7067   -0.5706 O   0  0  0  0  0  0  0  0  0  0  0  0
   -2.5423    2.6112    1.5554 O   0  0  0  0  0  0  0  0  0  0  0  0
   -1.1563    1.4528    0.1006 N   0  0  0  0  0  0  0  0  0  0  0  0
    0.9435    2.2022   -0.8862 C   0  0  1  0  0  0  0  0  0  0  0  0
    1.8034    0.9825   -0.6225 C   0  0  1  0  0  0  0  0  0  0  0  0
    0.0208    2.2603    0.3088 C   0  0  2  0  0  0  0  0  0  0  0  0
    3.1535    1.4168   -1.1402 C   0  0  1  0  0  0  0  0  0  0  0  0
    0.8918    1.6927    1.4162 C   0  0  0  0  0  0  0  0  0  0  0  0
    3.1802    2.8830   -0.7714 C   0  0  0  0  0  0  0  0  0  0  0  0
    4.2019   -0.6749   -0.9202 C   0  0  0  0  0  0  0  0  0  0  0  0
   -2.3564    1.7009    0.7519 C   0  0  0  0  0  0  0  0  0  0  0  0
    5.3712   -1.3655   -0.2820 C   0  0  0  0  0  0  0  0  0  0  0  0
   -3.4673    0.7621    0.4491 C   0  0  0  0  0  0  0  0  0  0  0  0
   -4.4501    0.5652    1.3966 C   0  0  0  0  0  0  0  0  0  0  0  0
   -3.4806    0.1175   -0.7705 C   0  0  0  0  0  0  0  0  0  0  0  0
    6.5789   -1.4482   -0.9660 C   0  0  0  0  0  0  0  0  0  0  0  0
    5.2368   -1.9160    0.9878 C   0  0  0  0  0  0  0  0  0  0  0  0
   -5.4932   -0.3161    1.1120 C   0  0  0  0  0  0  0  0  0  0  0  0
   -4.5238   -0.7637   -1.0553 C   0  0  0  0  0  0  0  0  0  0  0  0
   -5.5302   -0.9805   -0.1139 C   0  0  0  0  0  0  0  0  0  0  0  0
    7.6661   -2.0900   -0.3728 C   0  0  0  0  0  0  0  0  0  0  0  0
    6.3241   -2.5575    1.5810 C   0  0  0  0  0  0  0  0  0  0  0  0
    7.5387   -2.6445    0.9007 C   0  0  0  0  0  0  0  0  0  0  0  0
   -6.6452   -1.9234   -0.4179 C   0  0  0  0  0  0  0  0  0  0  0  0
    0.4349    2.1748   -1.8551 H   0  0  0  0  0  0  0  0  0  0  0  0
    1.4135    0.0718   -1.0865 H   0  0  0  0  0  0  0  0  0  0  0  0
   -0.2910    3.2808    0.5567 H   0  0  0  0  0  0  0  0  0  0  0  0
    3.1789    1.3313   -2.2350 H   0  0  0  0  0  0  0  0  0  0  0  0
    0.3326    1.1661    2.1957 H   0  0  0  0  0  0  0  0  0  0  0  0
    1.4838    2.4825    1.8916 H   0  0  0  0  0  0  0  0  0  0  0  0
    3.8245    3.4670   -1.4355 H   0  0  0  0  0  0  0  0  0  0  0  0
    3.5242    3.0479    0.2559 H   0  0  0  0  0  0  0  0  0  0  0  0
   -1.0443    0.6154   -0.4612 H   0  0  0  0  0  0  0  0  0  0  0  0
    3.2768   -1.1531   -0.5792 H   0  0  0  0  0  0  0  0  0  0  0  0
    4.2471   -0.7850   -2.0109 H   0  0  0  0  0  0  0  0  0  0  0  0
   -4.4332    1.0707    2.3576 H   0  0  0  0  0  0  0  0  0  0  0  0
   -2.7364    0.2846   -1.5421 H   0  0  0  0  0  0  0  0  0  0  0  0
    6.6899   -1.0177   -1.9574 H   0  0  0  0  0  0  0  0  0  0  0  0
    4.2960   -1.8516    1.5277 H   0  0  0  0  0  0  0  0  0  0  0  0
   -6.2670   -0.4730    1.8584 H   0  0  0  0  0  0  0  0  0  0  0  0
   -4.5484   -1.2714   -2.0160 H   0  0  0  0  0  0  0  0  0  0  0  0
    8.6121   -2.1572   -0.9021 H   0  0  0  0  0  0  0  0  0  0  0  0
    6.2253   -2.9887    2.5729 H   0  0  0  0  0  0  0  0  0  0  0  0
    8.3853   -3.1437    1.3628 H   0  0  0  0  0  0  0  0  0  0  0  0
  1 29  1  0  0  0  0
  2 29  1  0  0  0  0
  3 29  1  0  0  0  0
  4 10  1  0  0  0  0
  4 13  1  0  0  0  0
  5  9  1  0  0  0  0
  5 14  1  0  0  0  0
  6 12  1  0  0  0  0
  6 15  1  0  0  0  0
  7 16  2  0  0  0  0
  8 11  1  0  0  0  0
  8 16  1  0  0  0  0
  8 38  1  0  0  0  0
  9 10  1  0  0  0  0
  9 11  1  0  0  0  0
  9 30  1  0  0  0  0
 10 12  1  0  0  0  0
 10 31  1  0  0  0  0
 11 13  1  0  0  0  0
 11 32  1  0  0  0  0
 12 14  1  0  0  0  0
 12 33  1  0  0  0  0
 13 34  1  0  0  0  0
 13 35  1  0  0  0  0
 14 36  1  0  0  0  0
 14 37  1  0  0  0  0
 15 17  1  0  0  0  0
 15 39  1  0  0  0  0
 15 40  1  0  0  0  0
 16 18  1  0  0  0  0
 17 21  2  0  0  0  0
 17 22  1  0  0  0  0
 18 19  2  0  0  0  0
 18 20  1  0  0  0  0
 19 23  1  0  0  0  0
 19 41  1  0  0  0  0
 20 24  2  0  0  0  0
 20 42  1  0  0  0  0
 21 26  1  0  0  0  0
 21 43  1  0  0  0  0
 22 27  2  0  0  0  0
 22 44  1  0  0  0  0
 23 25  2  0  0  0  0
 23 45  1  0  0  0  0
 24 25  1  0  0  0  0
 24 46  1  0  0  0  0
 25 29  1  0  0  0  0
 26 28  2  0  0  0  0
 26 47  1  0  0  0  0
 27 28  1  0  0  0  0
 27 48  1  0  0  0  0
 28 49  1  0  0  0  0
M  END
> <PUBCHEM_COMPOUND_CID>
11886487

> <PUBCHEM_CONFORMER_RMSD>
1

> <PUBCHEM_CONFORMER_DIVERSEORDER>
1
9
13
14
12
6
5
10
3
11
8
2
7
4

> <PUBCHEM_MMFF94_PARTIAL_CHARGES>
39
1 -0.34
10 0.28
11 0.3
12 0.28
13 0.28
14 0.28
15 0.42
16 0.54
17 -0.14
18 0.09
19 -0.15
2 -0.34
20 -0.15
21 -0.15
22 -0.15
23 -0.15
24 -0.15
25 -0.14
26 -0.15
27 -0.15
28 -0.15
29 1.16
3 -0.34
38 0.37
4 -0.56
41 0.15
42 0.15
43 0.15
44 0.15
45 0.15
46 0.15
47 0.15
48 0.15
49 0.15
5 -0.56
6 -0.56
7 -0.57
8 -0.73
9 0.28

> <PUBCHEM_EFFECTIVE_ROTOR_COUNT>
8.2

> <PUBCHEM_PHARMACOPHORE_FEATURES>
9
1 4 acceptor
1 5 acceptor
1 6 acceptor
1 7 acceptor
1 8 donor
5 4 9 10 11 13 rings
5 5 9 10 12 14 rings
6 17 21 22 26 27 28 rings
6 18 19 20 23 24 25 rings

> <PUBCHEM_HEAVY_ATOM_COUNT>
29

> <PUBCHEM_ATOM_DEF_STEREO_COUNT>
4

> <PUBCHEM_ATOM_UDEF_STEREO_COUNT>
0

> <PUBCHEM_BOND_DEF_STEREO_COUNT>
0

> <PUBCHEM_BOND_UDEF_STEREO_COUNT>
0

> <PUBCHEM_ISOTOPIC_ATOM_COUNT>
0

> <PUBCHEM_COMPONENT_COUNT>
1

> <PUBCHEM_CACTVS_TAUTO_COUNT>
2

> <PUBCHEM_CONFORMER_ID>
00B55F9700000001

> <PUBCHEM_MMFF94_ENERGY>
78.6781

> <PUBCHEM_FEATURE_SELFOVERLAP>
46.393

> <PUBCHEM_SHAPE_FINGERPRINT>
10 15 13973958792536669400
10622 236 18409450271404522413
10693767 8 18259700112396229490
10939801 23 18129940200220727358
11475781 23 12252195056797607422
11497681 19 18265338292946025774
11607047 403 18127118896308011288
11809386 21 18411420570977965697
1200032 147 10375871879232510356
12166972 35 18113621200489255244
13533116 47 18339645654006697552
1361 4 18192996143622080215
13690498 29 17894627007372869885
13782708 43 17967812760322588839
13944108 23 9007061266908133590
14068700 675 18412265004450637664
14344974 204 18121778323650921266
14347332 77 18410014316954457877
14428016 204 11167940268910173971
14671636 106 18342177735967212854
14951699 99 10159702403985230459
15183329 4 17748829596734934794
15188451 53 18202560657405550928
15320294 125 18060137656938783343
15326921 28 17341834226875030049
15519825 34 15697702814434771727
15728490 51 18341892996836079358
15803439 3 14851892451879677912
16993427 108 18042676222884406970
190975 80 18131064944559665352
19315092 285 18273214188607745024
19841028 212 18338516451844945923
20028762 73 18342179930115486326
2026 5 18260546684478453770
20567600 247 18261111842476802194
20775438 99 17970064650852898698
208703 8 18411133628064970438
21344244 78 15410621427749456569
21585482 111 10663835060726299995
21585483 132 18336254726003682771
21637258 2 18409167688690116380
21792938 703 18187932836709812978
23389318 12 18113907053214196030
23522609 53 18050888539035302268
23569943 247 18408044005509015579
24983565 74 18196083581037766567
25025965 108 17607515836050148786
270888 7 9007057958949229173
2748736 6 9871459899051693902
2838139 119 10881697827071872862
3383291 50 18343018899999724527
3472631 163 10953453046743373081
3504750 166 18268433421175502616
397830 11 17703778203383054816
406291 66 18410854356401435058
439807 62 18335704957646965695
45266715 3 17822571715928036152
474113 269 18059846278136636039
4756088 132 17407108229069726319
4756326 101 14260527743392094499
50009960 94 16700591598140043831
508180 173 11458724793673019558
5104073 3 17632302302108891409
54039377 194 18412831274376881654
5718773 13 18411136930868141926
57527295 17 17023739001160860976
6058803 2 18195273111654918176
6691757 9 17914338966269420305
7970288 3 18341613750219674431
96874 4 18409727344330041538

> <PUBCHEM_SHAPE_MULTIPOLES>
546.53
22.88
3.78
1.43
0.79
0.54
-0.24
-29.15
0.65
-1.29
0.08
0.09
-0.01
-3.34

> <PUBCHEM_SHAPE_SELFOVERLAP>
1190.891

> <PUBCHEM_SHAPE_VOLUME>
298.8

> <PUBCHEM_COORDINATE_TYPE>
2
5
10

$$$$
