7675130
  -OEChem-12032416133D

 44 45  0     1  0  0  0  0  0999 V2000
    1.8306    2.1153   -1.1086 O   0  0  0  0  0  0  0  0  0  0  0  0
    3.2852   -2.1543   -0.1639 O   0  0  0  0  0  0  0  0  0  0  0  0
   -3.5398   -1.4801    0.5972 O   0  0  0  0  0  0  0  0  0  0  0  0
    3.8231    1.4277    1.5845 O   0  0  0  0  0  0  0  0  0  0  0  0
    1.1672   -1.2457   -0.5771 N   0  0  0  0  0  0  0  0  0  0  0  0
   -1.3772   -0.6590    0.3870 N   0  0  0  0  0  0  0  0  0  0  0  0
    2.9346    0.0988   -0.6845 N   0  0  0  0  0  0  0  0  0  0  0  0
    5.9887    0.8668    1.0538 N   0  0  0  0  0  0  0  0  0  0  0  0
    0.5921    0.0405   -0.9030 C   0  0  1  0  0  0  0  0  0  0  0  0
   -0.4307    0.4473    0.1484 C   0  0  0  0  0  0  0  0  0  0  0  0
    0.2809   -2.3619   -0.2993 C   0  0  0  0  0  0  0  0  0  0  0  0
   -0.7519   -1.9426    0.7458 C   0  0  0  0  0  0  0  0  0  0  0  0
    1.8397    0.9067   -0.9159 C   0  0  0  0  0  0  0  0  0  0  0  0
    2.5556   -1.2137   -0.4504 C   0  0  0  0  0  0  0  0  0  0  0  0
   -4.8669    0.8321    0.0021 C   0  0  0  0  0  0  0  0  0  0  0  0
   -3.3282    0.7947   -0.0320 C   0  0  0  0  0  0  0  0  0  0  0  0
   -2.7664   -0.5522    0.3471 C   0  0  0  0  0  0  0  0  0  0  0  0
    4.3021    0.5753   -0.6308 C   0  0  0  0  0  0  0  0  0  0  0  0
   -5.4690   -0.1962   -0.9704 C   0  0  0  0  0  0  0  0  0  0  0  0
   -5.3960    2.2342   -0.3444 C   0  0  0  0  0  0  0  0  0  0  0  0
   -5.3163    0.4773    1.4319 C   0  0  0  0  0  0  0  0  0  0  0  0
    4.6427    0.9889    0.7824 C   0  0  0  0  0  0  0  0  0  0  0  0
    0.1603   -0.0193   -1.9076 H   0  0  0  0  0  0  0  0  0  0  0  0
    0.0545    0.6591    1.1098 H   0  0  0  0  0  0  0  0  0  0  0  0
   -0.9289    1.3676   -0.1615 H   0  0  0  0  0  0  0  0  0  0  0  0
    0.8597   -3.2250    0.0429 H   0  0  0  0  0  0  0  0  0  0  0  0
   -0.2133   -2.6234   -1.2416 H   0  0  0  0  0  0  0  0  0  0  0  0
   -1.5045   -2.7279    0.8648 H   0  0  0  0  0  0  0  0  0  0  0  0
   -0.2684   -1.7952    1.7192 H   0  0  0  0  0  0  0  0  0  0  0  0
   -2.9796    1.0429   -1.0419 H   0  0  0  0  0  0  0  0  0  0  0  0
   -2.9342    1.5468    0.6624 H   0  0  0  0  0  0  0  0  0  0  0  0
    4.9692   -0.2262   -0.9645 H   0  0  0  0  0  0  0  0  0  0  0  0
    4.4159    1.4474   -1.2824 H   0  0  0  0  0  0  0  0  0  0  0  0
   -5.0231   -0.0963   -1.9666 H   0  0  0  0  0  0  0  0  0  0  0  0
   -5.3722   -1.2384   -0.6608 H   0  0  0  0  0  0  0  0  0  0  0  0
   -6.5467   -0.0236   -1.0843 H   0  0  0  0  0  0  0  0  0  0  0  0
   -5.0914    2.5260   -1.3556 H   0  0  0  0  0  0  0  0  0  0  0  0
   -6.4900    2.2751   -0.3001 H   0  0  0  0  0  0  0  0  0  0  0  0
   -5.0054    2.9853    0.3513 H   0  0  0  0  0  0  0  0  0  0  0  0
   -6.3741    0.7378    1.5671 H   0  0  0  0  0  0  0  0  0  0  0  0
   -5.2507   -0.5810    1.6924 H   0  0  0  0  0  0  0  0  0  0  0  0
   -4.7550    1.0490    2.1802 H   0  0  0  0  0  0  0  0  0  0  0  0
    6.3615    1.1227    1.9622 H   0  0  0  0  0  0  0  0  0  0  0  0
    6.6548    0.5222    0.3700 H   0  0  0  0  0  0  0  0  0  0  0  0
  1 13  2  0  0  0  0
  2 14  2  0  0  0  0
  3 17  2  0  0  0  0
  4 22  2  0  0  0  0
  5  9  1  0  0  0  0
  5 11  1  0  0  0  0
  5 14  1  0  0  0  0
  6 10  1  0  0  0  0
  6 12  1  0  0  0  0
  6 17  1  0  0  0  0
  7 13  1  0  0  0  0
  7 14  1  0  0  0  0
  7 18  1  0  0  0  0
  8 22  1  0  0  0  0
  8 43  1  0  0  0  0
  8 44  1  0  0  0  0
  9 10  1  0  0  0  0
  9 13  1  0  0  0  0
  9 23  1  0  0  0  0
 10 24  1  0  0  0  0
 10 25  1  0  0  0  0
 11 12  1  0  0  0  0
 11 26  1  0  0  0  0
 11 27  1  0  0  0  0
 12 28  1  0  0  0  0
 12 29  1  0  0  0  0
 15 16  1  0  0  0  0
 15 19  1  0  0  0  0
 15 20  1  0  0  0  0
 15 21  1  0  0  0  0
 16 17  1  0  0  0  0
 16 30  1  0  0  0  0
 16 31  1  0  0  0  0
 18 22  1  0  0  0  0
 18 32  1  0  0  0  0
 18 33  1  0  0  0  0
 19 34  1  0  0  0  0
 19 35  1  0  0  0  0
 19 36  1  0  0  0  0
 20 37  1  0  0  0  0
 20 38  1  0  0  0  0
 20 39  1  0  0  0  0
 21 40  1  0  0  0  0
 21 41  1  0  0  0  0
 21 42  1  0  0  0  0
M  END
> <PUBCHEM_COMPOUND_CID>
7675130

> <PUBCHEM_CONFORMER_RMSD>
0.8

> <PUBCHEM_CONFORMER_DIVERSEORDER>
1
12
39
44
25
26
33
4
15
32
36
22
6
27
7
24
13
37
3
42
30
9
29
14
31
20
41
38
19
28
11
2
21
34
18
43
10
46
16
23
5
40
17
8
45
35

> <PUBCHEM_MMFF94_PARTIAL_CHARGES>
20
1 -0.57
10 0.3
11 0.3
12 0.3
13 0.57
14 0.69
16 0.06
17 0.57
18 0.36
2 -0.57
22 0.57
3 -0.57
4 -0.57
43 0.37
44 0.37
5 -0.66
6 -0.66
7 -0.42
8 -0.8
9 0.36

> <PUBCHEM_EFFECTIVE_ROTOR_COUNT>
6

> <PUBCHEM_PHARMACOPHORE_FEATURES>
8
1 1 acceptor
1 2 acceptor
1 3 acceptor
1 4 acceptor
1 8 donor
4 15 19 20 21 hydrophobe
5 5 7 9 13 14 rings
6 5 6 9 10 11 12 rings

> <PUBCHEM_HEAVY_ATOM_COUNT>
22

> <PUBCHEM_ATOM_DEF_STEREO_COUNT>
1

> <PUBCHEM_ATOM_UDEF_STEREO_COUNT>
0

> <PUBCHEM_BOND_DEF_STEREO_COUNT>
0

> <PUBCHEM_BOND_UDEF_STEREO_COUNT>
0

> <PUBCHEM_ISOTOPIC_ATOM_COUNT>
0

> <PUBCHEM_COMPONENT_COUNT>
1

> <PUBCHEM_CACTVS_TAUTO_COUNT>
2

> <PUBCHEM_CONFORMER_ID>
00751CFA00000001

> <PUBCHEM_MMFF94_ENERGY>
51.4477

> <PUBCHEM_FEATURE_SELFOVERLAP>
40.713

> <PUBCHEM_SHAPE_FINGERPRINT>
10 15 17895485807774786577
11089746 13 17846777421210318724
11128504 68 14045740452084645248
11543360 7 16272211890269215839
11646440 116 18342186582798067689
11961588 58 14117223019332999618
12011746 2 18342746213126409868
12236239 1 17561082492722633863
12403259 118 18188213203531783997
12403259 415 18337116670141331357
12403260 363 18118120501176258359
12633257 1 17603863446440172852
13073987 5 18411422774554411123
13103583 49 16588022432934404616
13140716 1 18118403080175978140
13533116 47 18271808965550226922
13583140 156 17988359385771914947
13675066 3 18260839189299626763
14178342 30 18191303986758558090
14251764 18 17458347484792763084
14251764 30 7997700813052898144
14466204 15 18259980461791243605
14528608 73 17704068503763073645
14790565 3 17900556867319510332
14951699 99 18192708076187555832
15081414 286 18338530654758384004
15142383 8 14996549673317768396
15188451 53 15502668165034762731
15196674 1 18335426729644327791
15238133 3 17967256420877691588
1601671 61 18187653513516829476
18186145 218 18340506490386337999
20871999 31 12463300184890884883
21033648 29 17604430679235760821
212916 134 18337380625888484674
21421861 104 17240752935956064650
21452121 103 18410852127581927258
21475661 188 17488165184309629056
21618674 25 18343581854500404698
21637258 2 13406785658040152760
22182313 1 18042676218125034078
22950370 63 9151180865170934805
23402539 116 18335134328080808317
23402655 69 18342177705469463917
23559900 14 18337401469660476366
2838139 119 18131343128995867368
2916195 48 18413105069978297609
296302 2 17988926656583528023
300161 21 18272368651217298373
345986 75 16517060996688259256
34797466 226 16773800316116461069
34934 24 18411416232950187910
3545911 37 18410864256527152167
4072396 5 18259978267389366370
474 4 18334863826756036223
495365 180 18131067121818375494
5104073 3 18335990766330061691
53917941 68 18201707501160555439
59755656 215 18410860915385617526
6328613 192 18114750459841907620
653340 110 18046059368017661877
7495541 125 11312058729729717596
8509985 295 17894346679036232724
9971528 1 18335424534620465316

> <PUBCHEM_SHAPE_MULTIPOLES>
409.35
12.95
2.17
1.15
4.92
0.54
0.2
-6.47
2.43
-0.24
-0.06
-0.25
-0.28
0.79

> <PUBCHEM_SHAPE_SELFOVERLAP>
848.382

> <PUBCHEM_SHAPE_VOLUME>
234.5

> <PUBCHEM_COORDINATE_TYPE>
2
5
10

$$$$
