45784172
  -OEChem-12032416243D

 39 42  0     1  0  0  0  0  0999 V2000
    7.7993    1.8536   -0.5730 Cl  0  0  0  0  0  0  0  0  0  0  0  0
   -6.3936    2.0595    0.7121 F   0  0  0  0  0  0  0  0  0  0  0  0
   -7.6692   -0.3410    0.4169 F   0  0  0  0  0  0  0  0  0  0  0  0
    3.1737   -1.5077    0.4245 O   0  0  0  0  0  0  0  0  0  0  0  0
   -1.3765   -0.4060   -0.1979 N   0  0  1  0  0  0  0  0  0  0  0  0
    2.7376    0.6802    0.0247 N   0  0  0  0  0  0  0  0  0  0  0  0
    0.8094   -0.9201    0.4780 C   0  0  1  0  0  0  0  0  0  0  0  0
    0.0736   -0.1986    1.6206 C   0  0  0  0  0  0  0  0  0  0  0  0
   -0.0499   -0.6553   -0.7657 C   0  0  0  0  0  0  0  0  0  0  0  0
   -1.1352    0.4529    0.9614 C   0  0  0  0  0  0  0  0  0  0  0  0
   -2.2861    0.2017   -1.1579 C   0  0  0  0  0  0  0  0  0  0  0  0
    2.2529   -0.5119    0.2946 C   0  0  0  0  0  0  0  0  0  0  0  0
   -3.7244    0.0564   -0.7372 C   0  0  0  0  0  0  0  0  0  0  0  0
    4.0934    0.4653   -0.0308 C   0  0  0  0  0  0  0  0  0  0  0  0
    4.3642   -0.8729    0.2135 C   0  0  0  0  0  0  0  0  0  0  0  0
   -4.4062    1.1467   -0.1966 C   0  0  0  0  0  0  0  0  0  0  0  0
   -4.3753   -1.1680   -0.8881 C   0  0  0  0  0  0  0  0  0  0  0  0
    5.1619    1.3384   -0.2801 C   0  0  0  0  0  0  0  0  0  0  0  0
    5.6356   -1.4329    0.2321 C   0  0  0  0  0  0  0  0  0  0  0  0
   -5.7389    1.0125    0.1930 C   0  0  0  0  0  0  0  0  0  0  0  0
   -5.7079   -1.3022   -0.4983 C   0  0  0  0  0  0  0  0  0  0  0  0
    6.4609    0.8098   -0.2696 C   0  0  0  0  0  0  0  0  0  0  0  0
    6.6904   -0.5485   -0.0184 C   0  0  0  0  0  0  0  0  0  0  0  0
   -6.3897   -0.2119    0.0421 C   0  0  0  0  0  0  0  0  0  0  0  0
    0.7847   -1.9972    0.6966 H   0  0  0  0  0  0  0  0  0  0  0  0
   -0.2545   -0.9356    2.3643 H   0  0  0  0  0  0  0  0  0  0  0  0
    0.6934    0.5418    2.1373 H   0  0  0  0  0  0  0  0  0  0  0  0
    0.3162    0.2154   -1.3261 H   0  0  0  0  0  0  0  0  0  0  0  0
   -0.0519   -1.5200   -1.4383 H   0  0  0  0  0  0  0  0  0  0  0  0
   -1.9868    0.4839    1.6482 H   0  0  0  0  0  0  0  0  0  0  0  0
   -0.8841    1.4799    0.6663 H   0  0  0  0  0  0  0  0  0  0  0  0
   -2.0382    1.2537   -1.3541 H   0  0  0  0  0  0  0  0  0  0  0  0
   -2.1898   -0.3007   -2.1310 H   0  0  0  0  0  0  0  0  0  0  0  0
   -3.9108    2.1058   -0.0721 H   0  0  0  0  0  0  0  0  0  0  0  0
   -3.8550   -2.0250   -1.3080 H   0  0  0  0  0  0  0  0  0  0  0  0
    4.9801    2.3908   -0.4745 H   0  0  0  0  0  0  0  0  0  0  0  0
    5.8022   -2.4848    0.4274 H   0  0  0  0  0  0  0  0  0  0  0  0
   -6.2149   -2.2554   -0.6154 H   0  0  0  0  0  0  0  0  0  0  0  0
    7.7060   -0.9398   -0.0147 H   0  0  0  0  0  0  0  0  0  0  0  0
  1 22  1  0  0  0  0
  2 20  1  0  0  0  0
  3 24  1  0  0  0  0
  4 12  1  0  0  0  0
  4 15  1  0  0  0  0
  5  9  1  0  0  0  0
  5 10  1  0  0  0  0
  5 11  1  0  0  0  0
  6 12  2  0  0  0  0
  6 14  1  0  0  0  0
  7  8  1  0  0  0  0
  7  9  1  0  0  0  0
  7 12  1  0  0  0  0
  7 25  1  0  0  0  0
  8 10  1  0  0  0  0
  8 26  1  0  0  0  0
  8 27  1  0  0  0  0
  9 28  1  0  0  0  0
  9 29  1  0  0  0  0
 10 30  1  0  0  0  0
 10 31  1  0  0  0  0
 11 13  1  0  0  0  0
 11 32  1  0  0  0  0
 11 33  1  0  0  0  0
 13 16  2  0  0  0  0
 13 17  1  0  0  0  0
 14 15  2  0  0  0  0
 14 18  1  0  0  0  0
 15 19  1  0  0  0  0
 16 20  1  0  0  0  0
 16 34  1  0  0  0  0
 17 21  2  0  0  0  0
 17 35  1  0  0  0  0
 18 22  2  0  0  0  0
 18 36  1  0  0  0  0
 19 23  2  0  0  0  0
 19 37  1  0  0  0  0
 20 24  2  0  0  0  0
 21 24  1  0  0  0  0
 21 38  1  0  0  0  0
 22 23  1  0  0  0  0
 23 39  1  0  0  0  0
M  END
> <PUBCHEM_COMPOUND_CID>
45784172

> <PUBCHEM_CONFORMER_RMSD>
0.8

> <PUBCHEM_CONFORMER_DIVERSEORDER>
1
60
75
72
33
53
56
78
30
63
49
22
62
59
51
74
71
13
61
55
45
26
70
81
24
36
21
64
40
23
54
80
12
39
50
73
25
69
41
65
27
68
52
5
20
31
44
79
42
57
66
2
46
32
35
34
9
6
4
29
37
19
14
3
48
38
7
16
17
10
67
18
8
43
11
58
47
82
76
15
28
77

> <PUBCHEM_MMFF94_PARTIAL_CHARGES>
29
1 -0.18
10 0.27
11 0.41
12 0.3
13 -0.14
14 0.23
15 0.14
16 -0.15
17 -0.15
18 -0.15
19 -0.15
2 -0.19
20 0.19
21 -0.15
22 0.18
23 -0.15
24 0.19
3 -0.19
34 0.15
35 0.15
36 0.15
37 0.15
38 0.15
39 0.15
4 -0.28
5 -0.81
6 -0.57
7 0.18
9 0.27

> <PUBCHEM_EFFECTIVE_ROTOR_COUNT>
4

> <PUBCHEM_PHARMACOPHORE_FEATURES>
5
1 5 cation
5 4 6 12 14 15 rings
5 5 7 8 9 10 rings
6 13 16 17 20 21 24 rings
6 14 15 18 19 22 23 rings

> <PUBCHEM_HEAVY_ATOM_COUNT>
24

> <PUBCHEM_ATOM_DEF_STEREO_COUNT>
1

> <PUBCHEM_ATOM_UDEF_STEREO_COUNT>
0

> <PUBCHEM_BOND_DEF_STEREO_COUNT>
0

> <PUBCHEM_BOND_UDEF_STEREO_COUNT>
0

> <PUBCHEM_ISOTOPIC_ATOM_COUNT>
0

> <PUBCHEM_COMPONENT_COUNT>
1

> <PUBCHEM_CACTVS_TAUTO_COUNT>
1

> <PUBCHEM_CONFORMER_ID>
02BA9C6C00000001

> <PUBCHEM_MMFF94_ENERGY>
44.8612

> <PUBCHEM_FEATURE_SELFOVERLAP>
25.492

> <PUBCHEM_SHAPE_FINGERPRINT>
10 15 14562532912284079612
10299344 5 18342738524792272983
10595046 47 18410008814705284099
106641 1 14201401612122557420
11315181 36 18408322195072399709
11646440 116 16588027900696979860
11719270 70 17561081367848060246
11724838 91 17603585270204132374
12166972 35 18259985972635224356
12236239 1 18343018882961201702
12516196 113 17821728333994286436
12643181 29 13973963216685697300
12730499 353 17748826289815851802
12788726 201 17131836417266712459
12916748 109 16732979804589813052
13073987 5 16226317119300100588
13167372 99 18411418367480433624
13533116 47 17023456444500816578
14123256 10 16950280711282244227
14170010 4 17967252014330968764
14251752 14 17775283850334801777
14251764 18 18411417323465517405
14251764 46 18040434395652310419
14849402 71 18261397809605046724
14856354 85 17988645229326231239
14933364 13 18413108368064625445
15183329 4 17775567528619478168
15537594 2 16343980303869181854
15716309 27 18335419058811793927
1577012 14 18412823581937077092
16994733 274 18333729100375656224
18006028 8 11887957652934620714
18335252 98 18334861653197168651
19489759 90 8142085373409370239
20157964 124 18260547827872586130
20281389 69 18272647948229060009
21150785 3 18272654571548489740
21521721 280 18186522116030612426
21792961 116 17274827917396344271
220451 1 17847056688041492423
22224240 67 16587742048947854962
23035841 295 18201998828887025739
23081809 10 18271514347282461846
23198884 109 18408041810305297395
23516275 137 18128556906597687563
23536379 177 18412824672579312187
23569943 247 17170947055247719834
23576562 1 16987698251860030125
23622692 88 14057004927405354050
2747138 104 16950292792941137773
28498 318 11671790359751877352
29717793 49 17988928847628759454
3004659 81 17060337453077907024
314173 85 14692851401904232635
34797466 226 18413112758207004606
3545911 37 17894910728765012894
397830 11 15647916957260913756
4073 2 18186805811310866498
4098825 35 18410855417542550668
4325135 7 18335138704805392175
4340502 62 16153423935733955362
445580 37 17561091280231360129
5265222 85 17988359402830666726
5283156 175 17346884430015195174
542803 24 18342452638541102102
559249 180 8934999270364878501
5758199 1 18113900467937281786
59682541 35 16877948269386514169
59755656 520 17967809465998867971
9996256 80 18334290955153854620

> <PUBCHEM_SHAPE_MULTIPOLES>
465.4
22.53
1.56
0.98
0.51
0.3
-0.1
5.74
1.64
-0.79
0
0.49
-0.01
-1.31

> <PUBCHEM_SHAPE_SELFOVERLAP>
1016.181

> <PUBCHEM_SHAPE_VOLUME>
256.2

> <PUBCHEM_COORDINATE_TYPE>
2
5
10

$$$$
