11941543
  -OEChem-12032416153D

 52 55  0     1  0  0  0  0  0999 V2000
    5.8767    0.5861    0.3046 F   0  0  0  0  0  0  0  0  0  0  0  0
    7.1744   -3.9441    0.7051 F   0  0  0  0  0  0  0  0  0  0  0  0
   -1.5716    3.8671   -1.6414 O   0  0  0  0  0  0  0  0  0  0  0  0
    1.3417    1.9899    2.3270 O   0  0  0  0  0  0  0  0  0  0  0  0
   -4.4804    0.4857   -1.1499 O   0  0  0  0  0  0  0  0  0  0  0  0
   -5.5633   -1.7093   -0.0289 O   0  0  0  0  0  0  0  0  0  0  0  0
   -7.3883   -4.7675    0.3862 O   0  0  0  0  0  0  0  0  0  0  0  0
   -7.1271   -3.4343   -1.4420 O   0  0  0  0  0  0  0  0  0  0  0  0
   -0.5620    2.2962    1.0735 N   0  0  0  0  0  0  0  0  0  0  0  0
   -3.4570    1.1164    0.8414 N   0  0  0  0  0  0  0  0  0  0  0  0
    0.3799    2.6934   -1.6853 N   0  0  0  0  0  0  0  0  0  0  0  0
   -2.8156    2.3171    0.3565 C   0  0  2  0  0  0  0  0  0  0  0  0
   -1.3779    2.0266   -0.0959 C   0  0  1  0  0  0  0  0  0  0  0  0
   -2.6360    3.3406    1.4794 C   0  0  0  0  0  0  0  0  0  0  0  0
   -1.3364    2.9111    2.1418 C   0  0  0  0  0  0  0  0  0  0  0  0
   -0.8710    2.9679   -1.1729 C   0  0  0  0  0  0  0  0  0  0  0  0
    0.7400    1.8833    1.2584 C   0  0  0  0  0  0  0  0  0  0  0  0
    1.4612    1.3008    0.0969 C   0  0  0  0  0  0  0  0  0  0  0  0
    1.3333    1.7591   -1.2253 C   0  0  0  0  0  0  0  0  0  0  0  0
   -4.2390    0.2997    0.0398 C   0  0  0  0  0  0  0  0  0  0  0  0
    2.4474    0.3460    0.4052 C   0  0  0  0  0  0  0  0  0  0  0  0
    2.2422    1.2974   -2.1936 C   0  0  0  0  0  0  0  0  0  0  0  0
    3.3092   -0.1358   -0.5789 C   0  0  0  0  0  0  0  0  0  0  0  0
   -4.7817   -0.8853    0.8097 C   0  0  0  0  0  0  0  0  0  0  0  0
    3.2150    0.3497   -1.8767 C   0  0  0  0  0  0  0  0  0  0  0  0
    4.3145   -1.1210   -0.2445 C   0  0  0  0  0  0  0  0  0  0  0  0
    5.5761   -0.7160    0.1913 C   0  0  0  0  0  0  0  0  0  0  0  0
    4.0190   -2.4795   -0.3594 C   0  0  0  0  0  0  0  0  0  0  0  0
   -6.0877   -2.8341    0.6706 C   0  0  0  0  0  0  0  0  0  0  0  0
    6.5422   -1.6694    0.5124 C   0  0  0  0  0  0  0  0  0  0  0  0
    4.9852   -3.4327   -0.0384 C   0  0  0  0  0  0  0  0  0  0  0  0
    6.2469   -3.0278    0.3975 C   0  0  0  0  0  0  0  0  0  0  0  0
   -6.9098   -3.6771   -0.2643 C   0  0  0  0  0  0  0  0  0  0  0  0
   -3.4379    2.7248   -0.4472 H   0  0  0  0  0  0  0  0  0  0  0  0
   -1.2487    0.9908   -0.4315 H   0  0  0  0  0  0  0  0  0  0  0  0
   -2.5109    4.3415    1.0486 H   0  0  0  0  0  0  0  0  0  0  0  0
   -3.4706    3.3768    2.1863 H   0  0  0  0  0  0  0  0  0  0  0  0
   -1.5059    2.1534    2.9149 H   0  0  0  0  0  0  0  0  0  0  0  0
   -0.7835    3.7448    2.5850 H   0  0  0  0  0  0  0  0  0  0  0  0
   -3.2833    0.8358    1.8026 H   0  0  0  0  0  0  0  0  0  0  0  0
    0.6089    3.1698   -2.5545 H   0  0  0  0  0  0  0  0  0  0  0  0
    2.5544   -0.0157    1.4272 H   0  0  0  0  0  0  0  0  0  0  0  0
    2.1830    1.6551   -3.2200 H   0  0  0  0  0  0  0  0  0  0  0  0
   -3.9354   -1.4559    1.2098 H   0  0  0  0  0  0  0  0  0  0  0  0
   -5.3926   -0.5091    1.6387 H   0  0  0  0  0  0  0  0  0  0  0  0
    3.8872    0.0010   -2.6571 H   0  0  0  0  0  0  0  0  0  0  0  0
    3.0405   -2.8127   -0.6975 H   0  0  0  0  0  0  0  0  0  0  0  0
   -6.7305   -2.4899    1.4877 H   0  0  0  0  0  0  0  0  0  0  0  0
   -5.2616   -3.4416    1.0550 H   0  0  0  0  0  0  0  0  0  0  0  0
    7.5246   -1.3543    0.8513 H   0  0  0  0  0  0  0  0  0  0  0  0
    4.7558   -4.4905   -0.1277 H   0  0  0  0  0  0  0  0  0  0  0  0
   -7.9292   -5.3365   -0.2020 H   0  0  0  0  0  0  0  0  0  0  0  0
  1 27  1  0  0  0  0
  2 32  1  0  0  0  0
  3 16  2  0  0  0  0
  4 17  2  0  0  0  0
  5 20  2  0  0  0  0
  6 24  1  0  0  0  0
  6 29  1  0  0  0  0
  7 33  1  0  0  0  0
  7 52  1  0  0  0  0
  8 33  2  0  0  0  0
  9 13  1  0  0  0  0
  9 15  1  0  0  0  0
  9 17  1  0  0  0  0
 10 12  1  0  0  0  0
 10 20  1  0  0  0  0
 10 40  1  0  0  0  0
 11 16  1  0  0  0  0
 11 19  1  0  0  0  0
 11 41  1  0  0  0  0
 12 13  1  0  0  0  0
 12 14  1  0  0  0  0
 12 34  1  0  0  0  0
 13 16  1  0  0  0  0
 13 35  1  0  0  0  0
 14 15  1  0  0  0  0
 14 36  1  0  0  0  0
 14 37  1  0  0  0  0
 15 38  1  0  0  0  0
 15 39  1  0  0  0  0
 17 18  1  0  0  0  0
 18 19  2  0  0  0  0
 18 21  1  0  0  0  0
 19 22  1  0  0  0  0
 20 24  1  0  0  0  0
 21 23  2  0  0  0  0
 21 42  1  0  0  0  0
 22 25  2  0  0  0  0
 22 43  1  0  0  0  0
 23 25  1  0  0  0  0
 23 26  1  0  0  0  0
 24 44  1  0  0  0  0
 24 45  1  0  0  0  0
 25 46  1  0  0  0  0
 26 27  2  0  0  0  0
 26 28  1  0  0  0  0
 27 30  1  0  0  0  0
 28 31  2  0  0  0  0
 28 47  1  0  0  0  0
 29 33  1  0  0  0  0
 29 48  1  0  0  0  0
 29 49  1  0  0  0  0
 30 32  2  0  0  0  0
 30 50  1  0  0  0  0
 31 32  1  0  0  0  0
 31 51  1  0  0  0  0
M  END
> <PUBCHEM_COMPOUND_CID>
11941543

> <PUBCHEM_CONFORMER_RMSD>
1

> <PUBCHEM_CONFORMER_DIVERSEORDER>
1
36
15
30
24
33
9
32
12
40
2
39
27
5
14
34
6
22
26
4
28
3
20
38
46
8
35
11
21
16
47
10
45
29
17
37
23
25
42
7
18
44
31
43
19
13
41

> <PUBCHEM_MMFF94_PARTIAL_CHARGES>
39
1 -0.19
10 -0.73
11 -0.55
12 0.3
13 0.36
15 0.3
16 0.57
17 0.54
18 0.09
19 0.12
2 -0.19
20 0.57
21 -0.15
22 -0.15
24 0.34
25 -0.15
27 0.19
28 -0.15
29 0.34
3 -0.57
30 -0.15
31 -0.15
32 0.19
33 0.66
4 -0.57
40 0.37
41 0.37
42 0.15
43 0.15
46 0.15
47 0.15
5 -0.57
50 0.15
51 0.15
52 0.5
6 -0.56
7 -0.65
8 -0.57
9 -0.66

> <PUBCHEM_EFFECTIVE_ROTOR_COUNT>
7.8

> <PUBCHEM_PHARMACOPHORE_FEATURES>
13
1 10 donor
1 11 donor
1 3 acceptor
1 4 acceptor
1 5 acceptor
1 6 acceptor
1 7 acceptor
1 8 acceptor
3 7 8 33 anion
5 9 12 13 14 15 rings
6 18 19 21 22 23 25 rings
6 26 27 28 30 31 32 rings
7 9 11 13 16 17 18 19 rings

> <PUBCHEM_HEAVY_ATOM_COUNT>
33

> <PUBCHEM_ATOM_DEF_STEREO_COUNT>
2

> <PUBCHEM_ATOM_UDEF_STEREO_COUNT>
0

> <PUBCHEM_BOND_DEF_STEREO_COUNT>
0

> <PUBCHEM_BOND_UDEF_STEREO_COUNT>
0

> <PUBCHEM_ISOTOPIC_ATOM_COUNT>
0

> <PUBCHEM_COMPONENT_COUNT>
1

> <PUBCHEM_CACTVS_TAUTO_COUNT>
6

> <PUBCHEM_CONFORMER_ID>
00B636A700000001

> <PUBCHEM_MMFF94_ENERGY>
97.1859

> <PUBCHEM_FEATURE_SELFOVERLAP>
66.101

> <PUBCHEM_SHAPE_FINGERPRINT>
10319688 140 18048882089559911325
10622 236 18335141994676851519
11497681 19 18410297995781855846
11607047 403 18124308570098522592
117089 54 18336272344360366691
11963148 33 17984411108024850174
12390115 104 12750363962405783652
12633257 1 16415478294187074061
12975358 362 9870927830410074871
131258 38 17907003329488755391
1361 4 18411421683406429690
13782708 43 18264487292056440650
14251764 75 9439135243020426319
14344974 204 18338799997044152158
14664723 55 11170176641512970711
14848178 5 18409449150449466444
15183329 4 12830360008968487528
15510800 12 18340189887183382187
15803439 3 16956728058763704925
19315092 285 17917158311455263401
19319366 153 17763752391890854165
20775438 99 17752772603976268171
21360442 33 18050283967418413663
21792965 106 8932416500789290918
21796203 349 16415189092795833072
23523788 1 18124569115171495321
25025965 108 17098889445032385602
2838139 119 8214134140535228409
376196 1 14613496057257286544
392239 28 17560794382301226880
397830 11 18339631232598092912
439807 62 18408888473335799319
4408954 87 17987786545016122958
50009960 94 18059564854541647087
5718773 13 18411416241630092027
57724786 102 9438860334747952961
5951187 136 8862130249477209417
6058803 2 18192743144221241189
6201460 15 18263640658881395883
636775 72 9582359818146449446
6431902 208 18342172228753515927
66674814 147 17968104083823242682
7970288 3 18337393846225453007

> <PUBCHEM_SHAPE_MULTIPOLES>
614.42
18.47
6.05
1.73
7.45
4.71
-0.17
34.43
1.14
7.76
0.31
0.13
-1.66
-2.06

> <PUBCHEM_SHAPE_SELFOVERLAP>
1342.014

> <PUBCHEM_SHAPE_VOLUME>
331.9

> <PUBCHEM_COORDINATE_TYPE>
2
5
10

$$$$
