40779087
  -OEChem-12032416113D

 60 64  0     1  0  0  0  0  0999 V2000
    3.8034    1.3836   -0.4014 O   0  0  0  0  0  0  0  0  0  0  0  0
    2.7689   -3.1210    2.1229 O   0  0  0  0  0  0  0  0  0  0  0  0
   -5.7725    0.5506   -0.6352 O   0  0  0  0  0  0  0  0  0  0  0  0
    2.0142    0.3083   -1.4209 N   0  0  0  0  0  0  0  0  0  0  0  0
    1.4682   -2.2617    0.3747 N   0  0  0  0  0  0  0  0  0  0  0  0
    2.3824   -2.0827   -2.0137 C   0  0  1  0  0  0  0  0  0  0  0  0
    0.1104   -1.2935   -1.5068 C   0  0  2  0  0  0  0  0  0  0  0  0
    0.9239   -2.2027   -2.4265 C   0  0  0  0  0  0  0  0  0  0  0  0
    2.8699   -0.6304   -2.1464 C   0  0  0  0  0  0  0  0  0  0  0  0
    0.5764    0.1667   -1.6857 C   0  0  0  0  0  0  0  0  0  0  0  0
    2.5272   -2.6058   -0.5841 C   0  0  0  0  0  0  0  0  0  0  0  0
    0.2380   -1.7139   -0.0400 C   0  0  0  0  0  0  0  0  0  0  0  0
    1.6547    2.2533    0.0449 C   0  0  0  0  0  0  0  0  0  0  0  0
    2.5912    1.2845   -0.6091 C   0  0  0  0  0  0  0  0  0  0  0  0
    2.2238    2.6977    1.3931 C   0  0  0  0  0  0  0  0  0  0  0  0
    1.4281    3.4439   -0.8882 C   0  0  0  0  0  0  0  0  0  0  0  0
   -0.7680   -1.5527    0.8588 C   0  0  0  0  0  0  0  0  0  0  0  0
    1.3488    3.7650    2.0455 C   0  0  0  0  0  0  0  0  0  0  0  0
    0.5569    4.5124   -0.2327 C   0  0  0  0  0  0  0  0  0  0  0  0
    1.7197   -2.6265    1.7094 C   0  0  0  0  0  0  0  0  0  0  0  0
    1.1234    4.9529    1.1143 C   0  0  0  0  0  0  0  0  0  0  0  0
   -0.5438   -1.9146    2.2455 C   0  0  0  0  0  0  0  0  0  0  0  0
    0.6183   -2.4068    2.6738 C   0  0  0  0  0  0  0  0  0  0  0  0
   -2.0830   -1.0001    0.4663 C   0  0  0  0  0  0  0  0  0  0  0  0
   -2.3012    0.3770    0.5077 C   0  0  0  0  0  0  0  0  0  0  0  0
   -3.1046   -1.8563    0.0551 C   0  0  0  0  0  0  0  0  0  0  0  0
   -3.5410    0.8982    0.1374 C   0  0  0  0  0  0  0  0  0  0  0  0
   -4.3445   -1.3351   -0.3151 C   0  0  0  0  0  0  0  0  0  0  0  0
   -4.5626    0.0421   -0.2740 C   0  0  0  0  0  0  0  0  0  0  0  0
   -5.9267    1.9676   -0.5695 C   0  0  0  0  0  0  0  0  0  0  0  0
    3.0038   -2.7015   -2.6728 H   0  0  0  0  0  0  0  0  0  0  0  0
   -0.9314   -1.3629   -1.8398 H   0  0  0  0  0  0  0  0  0  0  0  0
    0.5817   -3.2422   -2.3477 H   0  0  0  0  0  0  0  0  0  0  0  0
    0.7969   -1.9019   -3.4736 H   0  0  0  0  0  0  0  0  0  0  0  0
    3.9091   -0.5477   -1.8107 H   0  0  0  0  0  0  0  0  0  0  0  0
    2.8496   -0.3259   -3.2001 H   0  0  0  0  0  0  0  0  0  0  0  0
    0.4351    0.4610   -2.7345 H   0  0  0  0  0  0  0  0  0  0  0  0
   -0.0519    0.8430   -1.1159 H   0  0  0  0  0  0  0  0  0  0  0  0
    2.5483   -3.7041   -0.6157 H   0  0  0  0  0  0  0  0  0  0  0  0
    3.4938   -2.3009   -0.1631 H   0  0  0  0  0  0  0  0  0  0  0  0
    0.7054    1.7832    0.2998 H   0  0  0  0  0  0  0  0  0  0  0  0
    3.2352    3.1078    1.2731 H   0  0  0  0  0  0  0  0  0  0  0  0
    2.3161    1.8364    2.0666 H   0  0  0  0  0  0  0  0  0  0  0  0
    0.9554    3.1156   -1.8214 H   0  0  0  0  0  0  0  0  0  0  0  0
    2.3916    3.8874   -1.1722 H   0  0  0  0  0  0  0  0  0  0  0  0
    1.8171    4.1087    2.9747 H   0  0  0  0  0  0  0  0  0  0  0  0
    0.3810    3.3266    2.3191 H   0  0  0  0  0  0  0  0  0  0  0  0
   -0.4570    4.1181   -0.0907 H   0  0  0  0  0  0  0  0  0  0  0  0
    0.4723    5.3788   -0.8983 H   0  0  0  0  0  0  0  0  0  0  0  0
    0.4390    5.6668    1.5864 H   0  0  0  0  0  0  0  0  0  0  0  0
    2.0737    5.4775    0.9560 H   0  0  0  0  0  0  0  0  0  0  0  0
   -1.3534   -1.7634    2.9535 H   0  0  0  0  0  0  0  0  0  0  0  0
    0.7789   -2.6690    3.7127 H   0  0  0  0  0  0  0  0  0  0  0  0
   -1.5211    1.0569    0.8396 H   0  0  0  0  0  0  0  0  0  0  0  0
   -2.9496   -2.9318    0.0170 H   0  0  0  0  0  0  0  0  0  0  0  0
   -3.6429    1.9765    0.1956 H   0  0  0  0  0  0  0  0  0  0  0  0
   -5.1365   -2.0068   -0.6349 H   0  0  0  0  0  0  0  0  0  0  0  0
   -6.9478    2.1968   -0.8917 H   0  0  0  0  0  0  0  0  0  0  0  0
   -5.2503    2.4786   -1.2631 H   0  0  0  0  0  0  0  0  0  0  0  0
   -5.8251    2.3362    0.4569 H   0  0  0  0  0  0  0  0  0  0  0  0
  1 14  2  0  0  0  0
  2 20  2  0  0  0  0
  3 29  1  0  0  0  0
  3 30  1  0  0  0  0
  4  9  1  0  0  0  0
  4 10  1  0  0  0  0
  4 14  1  0  0  0  0
  5 11  1  0  0  0  0
  5 12  1  0  0  0  0
  5 20  1  0  0  0  0
  6  8  1  0  0  0  0
  6  9  1  0  0  0  0
  6 11  1  0  0  0  0
  6 31  1  0  0  0  0
  7  8  1  0  0  0  0
  7 10  1  0  0  0  0
  7 12  1  0  0  0  0
  7 32  1  0  0  0  0
  8 33  1  0  0  0  0
  8 34  1  0  0  0  0
  9 35  1  0  0  0  0
  9 36  1  0  0  0  0
 10 37  1  0  0  0  0
 10 38  1  0  0  0  0
 11 39  1  0  0  0  0
 11 40  1  0  0  0  0
 12 17  2  0  0  0  0
 13 14  1  0  0  0  0
 13 15  1  0  0  0  0
 13 16  1  0  0  0  0
 13 41  1  0  0  0  0
 15 18  1  0  0  0  0
 15 42  1  0  0  0  0
 15 43  1  0  0  0  0
 16 19  1  0  0  0  0
 16 44  1  0  0  0  0
 16 45  1  0  0  0  0
 17 22  1  0  0  0  0
 17 24  1  0  0  0  0
 18 21  1  0  0  0  0
 18 46  1  0  0  0  0
 18 47  1  0  0  0  0
 19 21  1  0  0  0  0
 19 48  1  0  0  0  0
 19 49  1  0  0  0  0
 20 23  1  0  0  0  0
 21 50  1  0  0  0  0
 21 51  1  0  0  0  0
 22 23  2  0  0  0  0
 22 52  1  0  0  0  0
 23 53  1  0  0  0  0
 24 25  2  0  0  0  0
 24 26  1  0  0  0  0
 25 27  1  0  0  0  0
 25 54  1  0  0  0  0
 26 28  2  0  0  0  0
 26 55  1  0  0  0  0
 27 29  2  0  0  0  0
 27 56  1  0  0  0  0
 28 29  1  0  0  0  0
 28 57  1  0  0  0  0
 30 58  1  0  0  0  0
 30 59  1  0  0  0  0
 30 60  1  0  0  0  0
M  END
> <PUBCHEM_COMPOUND_CID>
40779087

> <PUBCHEM_CONFORMER_RMSD>
0.8

> <PUBCHEM_CONFORMER_DIVERSEORDER>
1
6
5
8
4
2
3
9
7

> <PUBCHEM_MMFF94_PARTIAL_CHARGES>
29
1 -0.57
10 0.3
11 0.3
12 -0.03
13 0.06
14 0.57
17 -0.03
2 -0.57
20 0.62
22 -0.15
23 -0.14
24 0.03
25 -0.15
26 -0.15
27 -0.15
28 -0.15
29 0.08
3 -0.36
30 0.28
4 -0.66
5 -0.47
52 0.15
53 0.15
54 0.15
55 0.15
56 0.15
57 0.15
7 0.14
9 0.3

> <PUBCHEM_EFFECTIVE_ROTOR_COUNT>
6.2

> <PUBCHEM_PHARMACOPHORE_FEATURES>
8
1 1 acceptor
1 2 acceptor
1 3 acceptor
6 13 15 16 18 19 21 rings
6 24 25 26 27 28 29 rings
6 4 6 7 8 9 10 rings
6 5 12 17 20 22 23 rings
6 5 6 7 8 11 12 rings

> <PUBCHEM_HEAVY_ATOM_COUNT>
30

> <PUBCHEM_ATOM_DEF_STEREO_COUNT>
2

> <PUBCHEM_ATOM_UDEF_STEREO_COUNT>
0

> <PUBCHEM_BOND_DEF_STEREO_COUNT>
0

> <PUBCHEM_BOND_UDEF_STEREO_COUNT>
0

> <PUBCHEM_ISOTOPIC_ATOM_COUNT>
0

> <PUBCHEM_COMPONENT_COUNT>
1

> <PUBCHEM_CACTVS_TAUTO_COUNT>
3

> <PUBCHEM_CONFORMER_ID>
026E3D4F00000001

> <PUBCHEM_MMFF94_ENERGY>
87.4868

> <PUBCHEM_FEATURE_SELFOVERLAP>
42.163

> <PUBCHEM_SHAPE_FINGERPRINT>
10675989 125 18270964669559577825
10764073 3 14208918921302700535
10930396 42 18271513279201454136
11221954 11 17906464572637231829
11331351 85 17686878546113242355
11578080 2 17460010943170357751
11582403 64 18195520621971294454
11725454 13 18193837269605697031
12156800 1 15506838384220075472
12788726 201 17977962184522852830
14068700 675 17826225195208879306
14466204 15 18338795727687624680
14468879 13 17548701132768904793
17974551 9 17534332637987823640
17980427 23 17984104207063696139
18681886 176 18202002109825744359
20764821 26 17830725462020943869
20905425 154 18266173942186787796
21475661 188 18267018543194858789
21860390 5 18412818092683997007
23419403 2 17171203314782514878
23559900 14 18131354081652796967
238 59 17842858864384033540
3298306 158 18127690659164642313
345986 75 17390493113191648634
35225 105 17030483701943292744
376196 1 18053942024564032793
469060 322 15651837511595411970
513532 50 18271517611478354783
56638632 10 17976505568361860848
5895379 119 17771630053480144889
6086070 43 18337659838023948997
84936 182 18187368731283470619
9981440 41 17550668159108094592

> <PUBCHEM_SHAPE_MULTIPOLES>
589.82
7.46
5.77
2.37
14.79
6.81
-0.6
2.68
2.2
-4.95
-2.27
-1.88
-1.7
1.01

> <PUBCHEM_SHAPE_SELFOVERLAP>
1281.241

> <PUBCHEM_SHAPE_VOLUME>
315.4

> <PUBCHEM_COORDINATE_TYPE>
2
5
10

$$$$
