51137485
  -OEChem-12032416203D

 49 52  0     1  0  0  0  0  0999 V2000
    2.2568   -0.9410    0.1731 O   0  0  0  0  0  0  0  0  0  0  0  0
   -8.0987    2.0835    1.0469 O   0  0  0  0  0  0  0  0  0  0  0  0
    7.3067    2.8166   -0.0949 O   0  0  0  0  0  0  0  0  0  0  0  0
   -8.8477    0.1844    0.0474 O   0  0  0  0  0  0  0  0  0  0  0  0
   -1.7736   -0.8877   -0.2848 N   0  0  1  0  0  0  0  0  0  0  0  0
    2.4583   -3.1684    0.1258 N   0  0  0  0  0  0  0  0  0  0  0  0
    3.7265   -2.6232    0.0534 N   0  0  0  0  0  0  0  0  0  0  0  0
    0.1245   -2.1390    0.2905 C   0  0  1  0  0  0  0  0  0  0  0  0
   -0.4381   -1.4505    1.5462 C   0  0  0  0  0  0  0  0  0  0  0  0
   -0.5444   -1.4120   -0.8838 C   0  0  0  0  0  0  0  0  0  0  0  0
   -1.3640   -0.3626    1.0177 C   0  0  0  0  0  0  0  0  0  0  0  0
   -2.4083    0.1247   -1.1157 C   0  0  0  0  0  0  0  0  0  0  0  0
    1.6327   -2.1504    0.1943 C   0  0  0  0  0  0  0  0  0  0  0  0
   -3.8496    0.3384   -0.7364 C   0  0  0  0  0  0  0  0  0  0  0  0
   -4.8165   -0.5908   -1.1206 C   0  0  0  0  0  0  0  0  0  0  0  0
   -4.2181    1.4651   -0.0013 C   0  0  0  0  0  0  0  0  0  0  0  0
    3.5605   -1.3216    0.0839 C   0  0  0  0  0  0  0  0  0  0  0  0
   -6.1518   -0.3931   -0.7695 C   0  0  0  0  0  0  0  0  0  0  0  0
   -5.5535    1.6627    0.3497 C   0  0  0  0  0  0  0  0  0  0  0  0
    4.5227   -0.2590    0.0392 C   0  0  0  0  0  0  0  0  0  0  0  0
   -6.5204    0.7335   -0.0343 C   0  0  0  0  0  0  0  0  0  0  0  0
    5.8832   -0.5532   -0.0517 C   0  0  0  0  0  0  0  0  0  0  0  0
    4.0979    1.0688    0.0857 C   0  0  0  0  0  0  0  0  0  0  0  0
   -7.9125    0.9395    0.3328 C   0  0  0  0  0  0  0  0  0  0  0  0
    6.8189    0.4802   -0.0957 C   0  0  0  0  0  0  0  0  0  0  0  0
    5.0336    2.1023    0.0416 C   0  0  0  0  0  0  0  0  0  0  0  0
    6.3941    1.8080   -0.0490 C   0  0  0  0  0  0  0  0  0  0  0  0
    8.6810    2.4446   -0.1907 C   0  0  0  0  0  0  0  0  0  0  0  0
   -0.2121   -3.1850    0.2999 H   0  0  0  0  0  0  0  0  0  0  0  0
   -1.0115   -2.1792    2.1329 H   0  0  0  0  0  0  0  0  0  0  0  0
    0.3356   -1.0338    2.1997 H   0  0  0  0  0  0  0  0  0  0  0  0
   -0.7581   -2.1026   -1.7070 H   0  0  0  0  0  0  0  0  0  0  0  0
    0.0879   -0.6024   -1.2717 H   0  0  0  0  0  0  0  0  0  0  0  0
   -0.8084    0.5795    0.9242 H   0  0  0  0  0  0  0  0  0  0  0  0
   -2.2099   -0.2050    1.6942 H   0  0  0  0  0  0  0  0  0  0  0  0
   -1.8548    1.0735   -1.1071 H   0  0  0  0  0  0  0  0  0  0  0  0
   -2.4031   -0.1995   -2.1661 H   0  0  0  0  0  0  0  0  0  0  0  0
   -4.5418   -1.4725   -1.6936 H   0  0  0  0  0  0  0  0  0  0  0  0
   -3.4739    2.1954    0.3053 H   0  0  0  0  0  0  0  0  0  0  0  0
   -6.8899   -1.1287   -1.0782 H   0  0  0  0  0  0  0  0  0  0  0  0
   -5.7962    2.5531    0.9228 H   0  0  0  0  0  0  0  0  0  0  0  0
    6.2359   -1.5813   -0.0895 H   0  0  0  0  0  0  0  0  0  0  0  0
    3.0470    1.3378    0.1561 H   0  0  0  0  0  0  0  0  0  0  0  0
    7.8591    0.1811   -0.1665 H   0  0  0  0  0  0  0  0  0  0  0  0
    4.6972    3.1350    0.0777 H   0  0  0  0  0  0  0  0  0  0  0  0
   -9.0404    2.2130    1.2894 H   0  0  0  0  0  0  0  0  0  0  0  0
    9.0086    1.8844    0.6917 H   0  0  0  0  0  0  0  0  0  0  0  0
    8.8889    1.9092   -1.1233 H   0  0  0  0  0  0  0  0  0  0  0  0
    9.2653    3.3702   -0.2166 H   0  0  0  0  0  0  0  0  0  0  0  0
  1 13  1  0  0  0  0
  1 17  1  0  0  0  0
  2 24  1  0  0  0  0
  2 46  1  0  0  0  0
  3 27  1  0  0  0  0
  3 28  1  0  0  0  0
  4 24  2  0  0  0  0
  5 10  1  0  0  0  0
  5 11  1  0  0  0  0
  5 12  1  0  0  0  0
  6  7  1  0  0  0  0
  6 13  2  0  0  0  0
  7 17  2  0  0  0  0
  8  9  1  0  0  0  0
  8 10  1  0  0  0  0
  8 13  1  0  0  0  0
  8 29  1  0  0  0  0
  9 11  1  0  0  0  0
  9 30  1  0  0  0  0
  9 31  1  0  0  0  0
 10 32  1  0  0  0  0
 10 33  1  0  0  0  0
 11 34  1  0  0  0  0
 11 35  1  0  0  0  0
 12 14  1  0  0  0  0
 12 36  1  0  0  0  0
 12 37  1  0  0  0  0
 14 15  2  0  0  0  0
 14 16  1  0  0  0  0
 15 18  1  0  0  0  0
 15 38  1  0  0  0  0
 16 19  2  0  0  0  0
 16 39  1  0  0  0  0
 17 20  1  0  0  0  0
 18 21  2  0  0  0  0
 18 40  1  0  0  0  0
 19 21  1  0  0  0  0
 19 41  1  0  0  0  0
 20 22  2  0  0  0  0
 20 23  1  0  0  0  0
 21 24  1  0  0  0  0
 22 25  1  0  0  0  0
 22 42  1  0  0  0  0
 23 26  2  0  0  0  0
 23 43  1  0  0  0  0
 25 27  2  0  0  0  0
 25 44  1  0  0  0  0
 26 27  1  0  0  0  0
 26 45  1  0  0  0  0
 28 47  1  0  0  0  0
 28 48  1  0  0  0  0
 28 49  1  0  0  0  0
M  END
> <PUBCHEM_COMPOUND_CID>
51137485

> <PUBCHEM_CONFORMER_RMSD>
0.8

> <PUBCHEM_CONFORMER_DIVERSEORDER>
1
66
17
60
54
84
87
18
99
52
89
70
23
64
71
90
105
101
92
91
51
16
88
32
21
42
107
81
85
61
55
100
35
65
43
2
110
104
80
108
31
79
39
25
72
98
53
40
103
50
62
67
15
73
7
77
93
44
94
9
83
86
57
58
34
46
109
10
13
37
76
20
78
29
95
6
82
14
102
30
63
69
45
4
3
27
96
24
36
38
41
59
74
8
22
33
48
68
11
12
106
28
26
19
47
49
97
5
75
56

> <PUBCHEM_MMFF94_PARTIAL_CHARGES>
36
1 -0.28
10 0.27
11 0.27
12 0.41
13 0.3
14 -0.14
15 -0.15
16 -0.15
17 0.43
18 -0.15
19 -0.15
2 -0.65
20 0.05
21 0.09
22 -0.15
23 -0.15
24 0.63
25 -0.15
26 -0.15
27 0.08
28 0.28
3 -0.36
38 0.15
39 0.15
4 -0.57
40 0.15
41 0.15
42 0.15
43 0.15
44 0.15
45 0.15
46 0.5
5 -0.81
6 -0.34
7 -0.34
8 0.18

> <PUBCHEM_EFFECTIVE_ROTOR_COUNT>
7

> <PUBCHEM_PHARMACOPHORE_FEATURES>
9
1 2 acceptor
1 3 acceptor
1 4 acceptor
1 5 cation
3 2 4 24 anion
5 1 6 7 13 17 rings
5 5 8 9 10 11 rings
6 14 15 16 18 19 21 rings
6 20 22 23 25 26 27 rings

> <PUBCHEM_HEAVY_ATOM_COUNT>
28

> <PUBCHEM_ATOM_DEF_STEREO_COUNT>
1

> <PUBCHEM_ATOM_UDEF_STEREO_COUNT>
0

> <PUBCHEM_BOND_DEF_STEREO_COUNT>
0

> <PUBCHEM_BOND_UDEF_STEREO_COUNT>
0

> <PUBCHEM_ISOTOPIC_ATOM_COUNT>
0

> <PUBCHEM_COMPONENT_COUNT>
1

> <PUBCHEM_CACTVS_TAUTO_COUNT>
1

> <PUBCHEM_CONFORMER_ID>
030C4BCD00000001

> <PUBCHEM_MMFF94_ENERGY>
74.8531

> <PUBCHEM_FEATURE_SELFOVERLAP>
45.73

> <PUBCHEM_SHAPE_FINGERPRINT>
10 15 17748826319226098489
10074138 170 16226338126106823019
10319688 67 16370446674305345409
10411042 1 17833548999887542330
10595046 47 18341889671882799135
10673678 19 18272373070211437070
10838868 160 18341884217069059896
11273773 42 18342735247557984349
11374522 155 18114187491912448133
1200032 147 18261110794889709170
12013929 94 18341050809916757015
12035758 1 16805042925929021151
12592606 108 8934998170599952249
12760667 363 10375877389206221070
12821665 9 18339919420155344223
13248334 5 18266177219812292034
13540713 4 18263663869417224698
13685833 64 9943807789881497250
13690498 29 17416109814859538991
14142895 15 18411417341505281671
14394314 77 18341337704330409905
14428016 86 18409167719224099988
14565420 104 18040713641319903786
14617042 71 18410860954014605097
14849402 71 18411982481676343609
14931854 50 17917440856417264184
14933364 13 18412825759707100607
15064981 194 18196103359112926348
15183329 4 17132117943920050545
15188451 53 11818990777418421222
15475509 8 13901910003598845907
15685185 35 18338519776033789672
15690457 1 10953458539595159209
15728490 51 18336827585369354135
1577012 14 18343577456094976942
15840311 113 18338520742548371431
16087824 20 18408604782504617388
16126227 98 18410292548829634679
16989713 51 16629386125882817503
16993089 31 12822722921614378989
16994733 274 18411415090589224961
1768 4 18335706065585166625
18393751 57 17676486163674775042
18608769 82 18335701693371516035
19302320 297 18113899407935662164
20157964 124 18410575050704728450
20505436 4 18272645766570927182
20691028 202 18192992854178570924
21033648 29 18264198292402613416
21298829 104 18411419544523265740
21304303 64 18334573559802390517
21304304 249 9079117769581042600
21521721 280 18335986381226760171
21585481 104 17274556338430855212
21585482 111 18335419002503258509
21641784 216 16415202222236608851
22224240 67 17748827406523003947
23389318 12 18341600539649248415
23522609 53 17774732948672014185
23576562 1 16127506316601301297
24771293 8 18187082879582001317
25269216 80 16916213511826885423
2747138 104 17531541892940594085
2838139 119 18334848403697437486
28498 318 10087639291410004371
3004659 81 11167935857878520950
306946 40 17168410598983173141
34797466 226 18202286853667881287
3711267 37 18130798828233934281
397830 11 18114475525952442419
4073 2 18334297582684830491
4325135 7 18413387610286141655
437815 12 11095884873605656099
444735 82 18261115128211686637
445580 126 18411409610400423834
474113 269 8070034350418158681
5080951 261 16443626909119479347
5265222 85 17632006563688299903
5385378 56 18260260838078986650
543368 44 18411134736825370175
5470011 282 14476963441496514816
5758199 1 18335139795495151983
5911458 16 18130793343375762153
59682541 35 17749395875598785569
6438161 24 8790884068733889773
9689198 14 18343869917856454525
9980921 177 18262499452733217472

> <PUBCHEM_SHAPE_MULTIPOLES>
537.81
26.43
2.9
0.94
10.41
0.38
0.06
-23.24
0.17
-4.7
0.31
0.98
0.13
-1.16

> <PUBCHEM_SHAPE_SELFOVERLAP>
1171.537

> <PUBCHEM_SHAPE_VOLUME>
295.1

> <PUBCHEM_COORDINATE_TYPE>
2
5
10

$$$$
