51138098
  -OEChem-12032416143D

 63 66  0     1  0  0  0  0  0999 V2000
   -3.4838    1.9475   -1.7164 O   0  0  0  0  0  0  0  0  0  0  0  0
   -2.1946   -0.3189   -0.6134 N   0  0  0  0  0  0  0  0  0  0  0  0
    2.5603    0.8690    0.6046 N   0  0  0  0  0  0  0  0  0  0  0  0
   -4.1242    2.1768    0.5100 N   0  0  0  0  0  0  0  0  0  0  0  0
    6.2364    0.6640   -0.0693 N   0  0  0  0  0  0  0  0  0  0  0  0
    4.5175    0.1981   -1.3960 N   0  0  0  0  0  0  0  0  0  0  0  0
   -1.7170   -1.4143    0.2411 C   0  0  2  0  0  0  0  0  0  0  0  0
   -0.2278   -1.3832    0.5993 C   0  0  0  0  0  0  0  0  0  0  0  0
    0.6239   -0.2484    0.4686 C   0  0  0  0  0  0  0  0  0  0  0  0
   -2.1035    1.0045   -0.0134 C   0  0  1  0  0  0  0  0  0  0  0  0
    0.4252    1.1053    0.0259 C   0  0  0  0  0  0  0  0  0  0  0  0
   -2.1165   -2.6969   -0.5105 C   0  0  0  0  0  0  0  0  0  0  0  0
   -0.8380    1.7357   -0.4570 C   0  0  0  0  0  0  0  0  0  0  0  0
    1.9682   -0.3482    0.8455 C   0  0  0  0  0  0  0  0  0  0  0  0
   -3.6074   -3.0249   -0.3837 C   0  0  0  0  0  0  0  0  0  0  0  0
    1.6416    1.7511    0.1178 C   0  0  0  0  0  0  0  0  0  0  0  0
    0.3547   -2.5385    1.1800 C   0  0  0  0  0  0  0  0  0  0  0  0
   -3.3023    1.7480   -0.5182 C   0  0  0  0  0  0  0  0  0  0  0  0
    2.5346   -1.5101    1.3724 C   0  0  0  0  0  0  0  0  0  0  0  0
    3.9504    1.1923    0.8457 C   0  0  0  0  0  0  0  0  0  0  0  0
    1.6977   -2.6047    1.5461 C   0  0  0  0  0  0  0  0  0  0  0  0
   -4.5037   -1.9171   -0.9388 C   0  0  0  0  0  0  0  0  0  0  0  0
   -3.8986   -4.3392   -1.1119 C   0  0  0  0  0  0  0  0  0  0  0  0
    4.8784    0.6776   -0.2264 C   0  0  0  0  0  0  0  0  0  0  0  0
   -5.3341    2.9359    0.2907 C   0  0  0  0  0  0  0  0  0  0  0  0
   -6.5560    2.0424    0.1144 C   0  0  0  0  0  0  0  0  0  0  0  0
    6.7758    0.1425   -1.2114 C   0  0  0  0  0  0  0  0  0  0  0  0
    6.9807    1.1134    1.0835 C   0  0  0  0  0  0  0  0  0  0  0  0
    5.6957   -0.1373   -2.0149 C   0  0  0  0  0  0  0  0  0  0  0  0
   -6.8336    1.1776    1.3358 C   0  0  0  0  0  0  0  0  0  0  0  0
   -2.2613   -1.3869    1.1951 H   0  0  0  0  0  0  0  0  0  0  0  0
   -2.1355    0.9430    1.0819 H   0  0  0  0  0  0  0  0  0  0  0  0
   -1.8281   -2.6272   -1.5700 H   0  0  0  0  0  0  0  0  0  0  0  0
   -1.5763   -3.5732   -0.1411 H   0  0  0  0  0  0  0  0  0  0  0  0
   -0.7924    1.8084   -1.5526 H   0  0  0  0  0  0  0  0  0  0  0  0
   -0.8806    2.7709   -0.0910 H   0  0  0  0  0  0  0  0  0  0  0  0
   -1.7381   -0.3426   -1.5246 H   0  0  0  0  0  0  0  0  0  0  0  0
   -3.8550   -3.1701    0.6756 H   0  0  0  0  0  0  0  0  0  0  0  0
    1.9152    2.7696   -0.1252 H   0  0  0  0  0  0  0  0  0  0  0  0
   -0.2512   -3.4164    1.3920 H   0  0  0  0  0  0  0  0  0  0  0  0
    3.5790   -1.5643    1.6599 H   0  0  0  0  0  0  0  0  0  0  0  0
    4.2178    0.7861    1.8275 H   0  0  0  0  0  0  0  0  0  0  0  0
    4.0379    2.2835    0.9079 H   0  0  0  0  0  0  0  0  0  0  0  0
    2.0919   -3.5190    1.9818 H   0  0  0  0  0  0  0  0  0  0  0  0
   -5.5366   -2.2749   -1.0268 H   0  0  0  0  0  0  0  0  0  0  0  0
   -4.5498   -1.0558   -0.2670 H   0  0  0  0  0  0  0  0  0  0  0  0
   -4.1900   -1.5956   -1.9374 H   0  0  0  0  0  0  0  0  0  0  0  0
   -3.2912   -5.1552   -0.7058 H   0  0  0  0  0  0  0  0  0  0  0  0
   -4.9503   -4.6230   -0.9978 H   0  0  0  0  0  0  0  0  0  0  0  0
   -3.6851   -4.2569   -2.1831 H   0  0  0  0  0  0  0  0  0  0  0  0
   -3.8858    1.9559    1.4721 H   0  0  0  0  0  0  0  0  0  0  0  0
   -5.4635    3.5981    1.1533 H   0  0  0  0  0  0  0  0  0  0  0  0
   -5.2042    3.5618   -0.5989 H   0  0  0  0  0  0  0  0  0  0  0  0
   -6.4206    1.3916   -0.7577 H   0  0  0  0  0  0  0  0  0  0  0  0
   -7.4316    2.6709   -0.0843 H   0  0  0  0  0  0  0  0  0  0  0  0
    7.8405    0.0181   -1.3523 H   0  0  0  0  0  0  0  0  0  0  0  0
    8.0512    1.0641    0.8679 H   0  0  0  0  0  0  0  0  0  0  0  0
    6.7412    0.4590    1.9251 H   0  0  0  0  0  0  0  0  0  0  0  0
    6.6972    2.1460    1.3016 H   0  0  0  0  0  0  0  0  0  0  0  0
    5.7064   -0.5634   -3.0074 H   0  0  0  0  0  0  0  0  0  0  0  0
   -6.0181    0.4718    1.5216 H   0  0  0  0  0  0  0  0  0  0  0  0
   -6.9675    1.7941    2.2304 H   0  0  0  0  0  0  0  0  0  0  0  0
   -7.7490    0.5967    1.1845 H   0  0  0  0  0  0  0  0  0  0  0  0
  1 18  2  0  0  0  0
  2  7  1  0  0  0  0
  2 10  1  0  0  0  0
  2 37  1  0  0  0  0
  3 14  1  0  0  0  0
  3 16  1  0  0  0  0
  3 20  1  0  0  0  0
  4 18  1  0  0  0  0
  4 25  1  0  0  0  0
  4 51  1  0  0  0  0
  5 24  1  0  0  0  0
  5 27  1  0  0  0  0
  5 28  1  0  0  0  0
  6 24  2  0  0  0  0
  6 29  1  0  0  0  0
  7  8  1  0  0  0  0
  7 12  1  0  0  0  0
  7 31  1  0  0  0  0
  8  9  2  0  0  0  0
  8 17  1  0  0  0  0
  9 11  1  0  0  0  0
  9 14  1  0  0  0  0
 10 13  1  0  0  0  0
 10 18  1  0  0  0  0
 10 32  1  0  0  0  0
 11 13  1  0  0  0  0
 11 16  2  0  0  0  0
 12 15  1  0  0  0  0
 12 33  1  0  0  0  0
 12 34  1  0  0  0  0
 13 35  1  0  0  0  0
 13 36  1  0  0  0  0
 14 19  2  0  0  0  0
 15 22  1  0  0  0  0
 15 23  1  0  0  0  0
 15 38  1  0  0  0  0
 16 39  1  0  0  0  0
 17 21  2  0  0  0  0
 17 40  1  0  0  0  0
 19 21  1  0  0  0  0
 19 41  1  0  0  0  0
 20 24  1  0  0  0  0
 20 42  1  0  0  0  0
 20 43  1  0  0  0  0
 21 44  1  0  0  0  0
 22 45  1  0  0  0  0
 22 46  1  0  0  0  0
 22 47  1  0  0  0  0
 23 48  1  0  0  0  0
 23 49  1  0  0  0  0
 23 50  1  0  0  0  0
 25 26  1  0  0  0  0
 25 52  1  0  0  0  0
 25 53  1  0  0  0  0
 26 30  1  0  0  0  0
 26 54  1  0  0  0  0
 26 55  1  0  0  0  0
 27 29  2  0  0  0  0
 27 56  1  0  0  0  0
 28 57  1  0  0  0  0
 28 58  1  0  0  0  0
 28 59  1  0  0  0  0
 29 60  1  0  0  0  0
 30 61  1  0  0  0  0
 30 62  1  0  0  0  0
 30 63  1  0  0  0  0
M  END
> <PUBCHEM_COMPOUND_CID>
51138098

> <PUBCHEM_CONFORMER_RMSD>
1

> <PUBCHEM_CONFORMER_DIVERSEORDER>
1
151
133
84
85
121
115
166
91
124
165
69
75
116
104
48
23
113
77
7
143
53
28
109
129
78
44
31
131
15
155
19
117
102
4
10
153
110
128
112
22
154
134
97
142
52
156
20
157
119
64
146
34
147
167
148
55
25
149
36
35
105
76
60
144
8
95
90
135
98
14
80
86
150
56
9
43
21
62
92
41
72
93
33
38
138
51
145
61
123
68
6
66
63
158
122
82
30
163
159
32
17
11
141
111
47
58
96
108
74
127
42
18
59
16
139
120
125
2
137
70
12
87
26
106
13
73
136
152
40
132
5
140
83
39
99
46
89
45
79
162
65
160
37
3
114
49
118
126
71
103
101
57
29
164
161
81
24
67
88
100
130
94
27
54
50
107

> <PUBCHEM_MMFF94_PARTIAL_CHARGES>
31
1 -0.57
10 0.33
11 -0.18
13 0.18
14 -0.15
16 -0.3
17 -0.15
18 0.57
19 -0.15
2 -0.9
20 0.44
21 -0.15
24 0.01
25 0.3
27 -0.3
28 0.26
29 0.08
3 0.05
37 0.36
39 0.15
4 -0.73
40 0.15
41 0.15
44 0.15
5 0.05
51 0.37
56 0.15
6 -0.57
60 0.15
7 0.41
8 -0.14

> <PUBCHEM_EFFECTIVE_ROTOR_COUNT>
8.8

> <PUBCHEM_PHARMACOPHORE_FEATURES>
12
1 1 acceptor
1 2 cation
1 2 donor
1 3 cation
1 30 hydrophobe
1 4 donor
3 15 22 23 hydrophobe
3 5 6 24 cation
5 3 9 11 14 16 rings
5 5 6 24 27 29 rings
6 8 9 14 17 19 21 rings
7 2 7 8 9 10 11 13 rings

> <PUBCHEM_HEAVY_ATOM_COUNT>
30

> <PUBCHEM_ATOM_DEF_STEREO_COUNT>
2

> <PUBCHEM_ATOM_UDEF_STEREO_COUNT>
0

> <PUBCHEM_BOND_DEF_STEREO_COUNT>
0

> <PUBCHEM_BOND_UDEF_STEREO_COUNT>
0

> <PUBCHEM_ISOTOPIC_ATOM_COUNT>
0

> <PUBCHEM_COMPONENT_COUNT>
1

> <PUBCHEM_CACTVS_TAUTO_COUNT>
2

> <PUBCHEM_CONFORMER_ID>
030C4E3200000001

> <PUBCHEM_MMFF94_ENERGY>
52.3959

> <PUBCHEM_FEATURE_SELFOVERLAP>
61.028

> <PUBCHEM_SHAPE_FINGERPRINT>
10165383 225 18334298625892261197
10190108 129 18115886238083685075
11331351 85 17769655635998923031
12954195 1 18341614845051154543
13140716 1 18263348218773030851
13540713 5 18188469307842090706
14294032 229 18187079516591447109
14790565 3 17980202984947022033
15131766 46 15215022749974133070
15629462 23 16701753652728058569
15927050 60 18341330003363844647
16752209 62 18187924049549323786
19319366 153 17968375624282037306
21033648 29 17560504201547075048
21236236 1 18337105760692258456
21641784 216 17822280340318381479
22393880 68 18340197574800113680
23559900 14 18411144637337157444
25147074 1 18187069642630198234
283562 15 18119515781463769099
350125 39 18408038520471046969
3610482 184 18041862691369088164
4073 2 18273495693622585908
46194498 28 17986674986072490460
5252454 2 18262227833482811373
563151 40 18335428958516440651
59755656 215 18343305859722525015
59755656 520 18341613690211412621
6669772 16 18199474277138512903

> <PUBCHEM_SHAPE_MULTIPOLES>
586.61
16.33
3.91
1.43
8.73
3.21
0.2
-8.97
2.14
-7.74
0.27
1.09
0.39
-1.43

> <PUBCHEM_SHAPE_SELFOVERLAP>
1249.176

> <PUBCHEM_SHAPE_VOLUME>
327.4

> <PUBCHEM_COORDINATE_TYPE>
2
5
10

$$$$
