7051430
  -OEChem-12032416223D

 56 60  0     1  0  0  0  0  0999 V2000
   -2.6494    0.8131   -1.0403 S   0  0  0  0  0  0  0  0  0  0  0  0
   -0.1800    2.7068   -1.2707 O   0  0  0  0  0  0  0  0  0  0  0  0
    3.2671   -0.9864   -2.4213 O   0  0  0  0  0  0  0  0  0  0  0  0
   -3.4324    1.7353   -1.8410 O   0  0  0  0  0  0  0  0  0  0  0  0
   -1.5314    0.1008   -1.6299 O   0  0  0  0  0  0  0  0  0  0  0  0
    3.9001   -0.0372   -0.3786 N   0  0  0  0  0  0  0  0  0  0  0  0
    1.5572    2.0345    0.1502 N   0  0  0  0  0  0  0  0  0  0  0  0
   -2.1498    1.5774    0.3850 N   0  0  0  0  0  0  0  0  0  0  0  0
   -5.7506    2.4389    0.2826 N   0  0  0  0  0  0  0  0  0  0  0  0
    4.0290    2.4487   -0.3741 C   0  0  1  0  0  0  0  0  0  0  0  0
    3.3982    1.2520    1.6837 C   0  0  2  0  0  0  0  0  0  0  0  0
    4.2074    2.4288    1.1403 C   0  0  0  0  0  0  0  0  0  0  0  0
    4.5315    1.1311   -0.9918 C   0  0  0  0  0  0  0  0  0  0  0  0
    2.5519    2.7100   -0.6938 C   0  0  0  0  0  0  0  0  0  0  0  0
    3.9410   -0.0644    1.0926 C   0  0  0  0  0  0  0  0  0  0  0  0
    1.9268    1.3969    1.3425 C   0  0  0  0  0  0  0  0  0  0  0  0
    0.9896    0.8830    2.1600 C   0  0  0  0  0  0  0  0  0  0  0  0
    0.2080    2.1470   -0.2462 C   0  0  0  0  0  0  0  0  0  0  0  0
    3.3045   -1.0037   -1.1923 C   0  0  0  0  0  0  0  0  0  0  0  0
   -0.7767    1.5396    0.6840 C   0  0  0  0  0  0  0  0  0  0  0  0
   -0.4065    0.9535    1.8231 C   0  0  0  0  0  0  0  0  0  0  0  0
    2.6432   -2.1383   -0.5396 C   0  0  0  0  0  0  0  0  0  0  0  0
    1.2934   -2.0555   -0.2069 C   0  0  0  0  0  0  0  0  0  0  0  0
    3.3678   -3.2931   -0.2563 C   0  0  0  0  0  0  0  0  0  0  0  0
   -3.7631   -0.3976   -0.3909 C   0  0  0  0  0  0  0  0  0  0  0  0
    0.6642   -3.1346    0.4136 C   0  0  0  0  0  0  0  0  0  0  0  0
    2.7385   -4.3724    0.3642 C   0  0  0  0  0  0  0  0  0  0  0  0
    1.3867   -4.2931    0.6991 C   0  0  0  0  0  0  0  0  0  0  0  0
   -4.9839   -0.0328    0.1562 C   0  0  0  0  0  0  0  0  0  0  0  0
   -3.3712   -1.7275   -0.4477 C   0  0  0  0  0  0  0  0  0  0  0  0
   -5.8327   -1.0195    0.6579 C   0  0  0  0  0  0  0  0  0  0  0  0
   -4.2201   -2.7141    0.0538 C   0  0  0  0  0  0  0  0  0  0  0  0
   -5.4507   -2.3602    0.6067 C   0  0  0  0  0  0  0  0  0  0  0  0
   -5.4076    1.3330    0.2261 C   0  0  0  0  0  0  0  0  0  0  0  0
    4.6241    3.2640   -0.8037 H   0  0  0  0  0  0  0  0  0  0  0  0
    3.5259    1.2223    2.7735 H   0  0  0  0  0  0  0  0  0  0  0  0
    3.8662    3.3733    1.5823 H   0  0  0  0  0  0  0  0  0  0  0  0
    5.2673    2.3171    1.3992 H   0  0  0  0  0  0  0  0  0  0  0  0
    5.6113    1.0305   -0.8274 H   0  0  0  0  0  0  0  0  0  0  0  0
    4.3701    1.1351   -2.0750 H   0  0  0  0  0  0  0  0  0  0  0  0
    2.3379    2.4737   -1.7438 H   0  0  0  0  0  0  0  0  0  0  0  0
    2.3531    3.7845   -0.5804 H   0  0  0  0  0  0  0  0  0  0  0  0
    4.9921   -0.1986    1.3771 H   0  0  0  0  0  0  0  0  0  0  0  0
    3.3930   -0.9178    1.4991 H   0  0  0  0  0  0  0  0  0  0  0  0
    1.2558    0.3731    3.0800 H   0  0  0  0  0  0  0  0  0  0  0  0
   -1.1144    0.5058    2.5124 H   0  0  0  0  0  0  0  0  0  0  0  0
   -2.7380    1.3856    1.2080 H   0  0  0  0  0  0  0  0  0  0  0  0
    0.7212   -1.1610   -0.4319 H   0  0  0  0  0  0  0  0  0  0  0  0
    4.4215   -3.3645   -0.5128 H   0  0  0  0  0  0  0  0  0  0  0  0
   -0.3882   -3.0728    0.6743 H   0  0  0  0  0  0  0  0  0  0  0  0
    3.3009   -5.2744    0.5868 H   0  0  0  0  0  0  0  0  0  0  0  0
    0.8967   -5.1333    1.1822 H   0  0  0  0  0  0  0  0  0  0  0  0
   -2.4201   -2.0371   -0.8685 H   0  0  0  0  0  0  0  0  0  0  0  0
   -6.7955   -0.7614    1.0927 H   0  0  0  0  0  0  0  0  0  0  0  0
   -3.9224   -3.7579    0.0151 H   0  0  0  0  0  0  0  0  0  0  0  0
   -6.1113   -3.1285    0.9977 H   0  0  0  0  0  0  0  0  0  0  0  0
  1  4  2  0  0  0  0
  1  5  2  0  0  0  0
  1  8  1  0  0  0  0
  1 25  1  0  0  0  0
  2 18  2  0  0  0  0
  3 19  2  0  0  0  0
  6 13  1  0  0  0  0
  6 15  1  0  0  0  0
  6 19  1  0  0  0  0
  7 14  1  0  0  0  0
  7 16  1  0  0  0  0
  7 18  1  0  0  0  0
  8 20  1  0  0  0  0
  8 47  1  0  0  0  0
  9 34  3  0  0  0  0
 10 12  1  0  0  0  0
 10 13  1  0  0  0  0
 10 14  1  0  0  0  0
 10 35  1  0  0  0  0
 11 12  1  0  0  0  0
 11 15  1  0  0  0  0
 11 16  1  0  0  0  0
 11 36  1  0  0  0  0
 12 37  1  0  0  0  0
 12 38  1  0  0  0  0
 13 39  1  0  0  0  0
 13 40  1  0  0  0  0
 14 41  1  0  0  0  0
 14 42  1  0  0  0  0
 15 43  1  0  0  0  0
 15 44  1  0  0  0  0
 16 17  2  0  0  0  0
 17 21  1  0  0  0  0
 17 45  1  0  0  0  0
 18 20  1  0  0  0  0
 19 22  1  0  0  0  0
 20 21  2  0  0  0  0
 21 46  1  0  0  0  0
 22 23  2  0  0  0  0
 22 24  1  0  0  0  0
 23 26  1  0  0  0  0
 23 48  1  0  0  0  0
 24 27  2  0  0  0  0
 24 49  1  0  0  0  0
 25 29  1  0  0  0  0
 25 30  2  0  0  0  0
 26 28  2  0  0  0  0
 26 50  1  0  0  0  0
 27 28  1  0  0  0  0
 27 51  1  0  0  0  0
 28 52  1  0  0  0  0
 29 31  2  0  0  0  0
 29 34  1  0  0  0  0
 30 32  1  0  0  0  0
 30 53  1  0  0  0  0
 31 33  1  0  0  0  0
 31 54  1  0  0  0  0
 32 33  2  0  0  0  0
 32 55  1  0  0  0  0
 33 56  1  0  0  0  0
M  END
> <PUBCHEM_COMPOUND_CID>
7051430

> <PUBCHEM_CONFORMER_RMSD>
0.8

> <PUBCHEM_CONFORMER_DIVERSEORDER>
1
45
70
35
17
69
2
63
68
52
66
60
82
29
76
26
31
34
54
87
83
84
19
73
57
75
22
37
59
41
49
16
55
48
53
6
71
79
85
47
44
78
27
18
81
67
61
51
62
58
15
72
36
5
30
14
50
23
65
28
64
13
39
12
4
74
43
80
38
56
9
42
86
46
40
7
32
25
33
20
10
77
21
11
24
3
8

> <PUBCHEM_MMFF94_PARTIAL_CHARGES>
44
1 1.45
11 0.14
13 0.3
14 0.3
15 0.3
16 -0.03
17 -0.15
18 0.62
19 0.54
2 -0.57
20 0.21
21 -0.15
22 0.09
23 -0.15
24 -0.15
25 -0.01
26 -0.15
27 -0.15
28 -0.15
29 0.07
3 -0.57
30 -0.15
31 -0.15
32 -0.15
33 -0.15
34 0.48
4 -0.65
45 0.15
46 0.15
47 0.42
48 0.15
49 0.15
5 -0.65
50 0.15
51 0.15
52 0.15
53 0.15
54 0.15
55 0.15
56 0.15
6 -0.66
7 -0.47
8 -0.75
9 -0.56

> <PUBCHEM_EFFECTIVE_ROTOR_COUNT>
6

> <PUBCHEM_PHARMACOPHORE_FEATURES>
11
1 2 acceptor
1 3 acceptor
1 4 acceptor
1 5 acceptor
1 8 donor
1 9 acceptor
6 22 23 24 26 27 28 rings
6 25 29 30 31 32 33 rings
6 6 10 11 12 13 15 rings
6 7 10 11 12 14 16 rings
6 7 16 17 18 20 21 rings

> <PUBCHEM_HEAVY_ATOM_COUNT>
34

> <PUBCHEM_ATOM_DEF_STEREO_COUNT>
2

> <PUBCHEM_ATOM_UDEF_STEREO_COUNT>
0

> <PUBCHEM_BOND_DEF_STEREO_COUNT>
0

> <PUBCHEM_BOND_UDEF_STEREO_COUNT>
0

> <PUBCHEM_ISOTOPIC_ATOM_COUNT>
0

> <PUBCHEM_COMPONENT_COUNT>
1

> <PUBCHEM_CACTVS_TAUTO_COUNT>
1

> <PUBCHEM_CONFORMER_ID>
006B98A600000001

> <PUBCHEM_MMFF94_ENERGY>
86.9307

> <PUBCHEM_FEATURE_SELFOVERLAP>
57.425

> <PUBCHEM_SHAPE_FINGERPRINT>
11135609 12 18264761061413669882
12156800 1 17252332176339111860
12422481 6 18128792245150781842
12645989 146 7852763172936359064
13402501 40 18267586986311198882
1361 2 18191310578984380372
13617811 41 18187926235930140853
14790565 3 18193842767105826421
15664445 248 18335990830496614420
15799311 1 18338532892989992713
17093844 170 18340207517828700178
17349148 13 13767919105358294445
1813 80 17530684342543050365
19301679 30 18119823645606172579
19319366 153 18271237330708761790
20764821 26 17975974585317617766
20775438 99 17612829813609903189
20775530 9 18051685547604932270
22121540 332 16978428470830530520
23559900 14 18338510816394081875
238 59 18335431119248532530
338550 245 18337956808530610717
3737641 26 18413111649673022571
392239 28 18412265046936281570
4280585 95 17830717782455635594
4340502 62 17987233516362763240
4394409 98 16383084151590957743
463206 1 17905330620046705994
484989 97 18338251461105866826
508706 21 18265614475784627203
5265222 85 18050572042973809596
6086070 43 16917342646393045801
6433294 58 18339359639334003023

> <PUBCHEM_SHAPE_MULTIPOLES>
660.15
11.94
4.89
1.6
15.14
4.91
-0.03
-0.7
0.06
-3.02
0.29
-0.97
-0.56
0.93

> <PUBCHEM_SHAPE_SELFOVERLAP>
1443.651

> <PUBCHEM_SHAPE_VOLUME>
355.2

> <PUBCHEM_COORDINATE_TYPE>
2
5
10

$$$$
