75367185
  -OEChem-12032416383D

 49 52  0     1  0  0  0  0  0999 V2000
   -3.3516    3.6535    1.9492 Cl  0  0  0  0  0  0  0  0  0  0  0  0
    1.0748   -4.2514    1.7333 O   0  0  0  0  0  0  0  0  0  0  0  0
    4.7288    3.5688    0.0699 O   0  0  0  0  0  0  0  0  0  0  0  0
    1.4798   -1.8868    0.1699 N   0  0  1  0  0  0  0  0  0  0  0  0
   -1.5198   -1.1152    0.0424 N   0  0  0  0  0  0  0  0  0  0  0  0
   -1.4745   -2.3434   -1.8072 N   0  0  0  0  0  0  0  0  0  0  0  0
    0.3444   -2.8056   -0.0981 C   0  0  1  0  0  0  0  0  0  0  0  0
    2.5909   -2.6202    0.8024 C   0  0  0  0  0  0  0  0  0  0  0  0
   -0.0465   -3.5539    1.1914 C   0  0  0  0  0  0  0  0  0  0  0  0
    1.9667   -1.2382   -1.0532 C   0  0  0  0  0  0  0  0  0  0  0  0
    2.1187   -3.3370    2.0600 C   0  0  0  0  0  0  0  0  0  0  0  0
   -0.8873   -2.1063   -0.6553 C   0  0  0  0  0  0  0  0  0  0  0  0
    2.7019    0.0414   -0.7547 C   0  0  0  0  0  0  0  0  0  0  0  0
   -2.5776   -0.6934   -0.7128 C   0  0  0  0  0  0  0  0  0  0  0  0
   -2.5290   -1.4659   -1.8492 C   0  0  0  0  0  0  0  0  0  0  0  0
    1.9896    1.1935   -0.4212 C   0  0  0  0  0  0  0  0  0  0  0  0
    4.0953    0.0747   -0.8115 C   0  0  0  0  0  0  0  0  0  0  0  0
   -3.4821    0.3466   -0.2984 C   0  0  0  0  0  0  0  0  0  0  0  0
    2.6707    2.3788   -0.1440 C   0  0  0  0  0  0  0  0  0  0  0  0
    4.7764    1.2602   -0.5346 C   0  0  0  0  0  0  0  0  0  0  0  0
    4.0641    2.4122   -0.2008 C   0  0  0  0  0  0  0  0  0  0  0  0
   -3.0305    1.3758    0.5278 C   0  0  0  0  0  0  0  0  0  0  0  0
   -4.8107    0.3250   -0.7230 C   0  0  0  0  0  0  0  0  0  0  0  0
   -3.9073    2.3836    0.9294 C   0  0  0  0  0  0  0  0  0  0  0  0
   -5.6876    1.3326   -0.3212 C   0  0  0  0  0  0  0  0  0  0  0  0
   -5.2360    2.3620    0.5047 C   0  0  0  0  0  0  0  0  0  0  0  0
    3.9383    4.7085    0.4046 C   0  0  0  0  0  0  0  0  0  0  0  0
    0.6719   -3.5529   -0.8354 H   0  0  0  0  0  0  0  0  0  0  0  0
    3.3978   -1.9383    1.0899 H   0  0  0  0  0  0  0  0  0  0  0  0
    3.0031   -3.3612    0.1046 H   0  0  0  0  0  0  0  0  0  0  0  0
   -0.4531   -2.8825    1.9589 H   0  0  0  0  0  0  0  0  0  0  0  0
   -0.8209   -4.2992    0.9757 H   0  0  0  0  0  0  0  0  0  0  0  0
    1.1403   -0.9577   -1.7187 H   0  0  0  0  0  0  0  0  0  0  0  0
    2.5856   -1.9174   -1.6557 H   0  0  0  0  0  0  0  0  0  0  0  0
    2.9428   -3.9138    2.4922 H   0  0  0  0  0  0  0  0  0  0  0  0
    1.7704   -2.6323    2.8249 H   0  0  0  0  0  0  0  0  0  0  0  0
   -1.2497   -0.7682    0.9535 H   0  0  0  0  0  0  0  0  0  0  0  0
   -3.1929   -1.4404   -2.7018 H   0  0  0  0  0  0  0  0  0  0  0  0
    0.9037    1.1792   -0.3738 H   0  0  0  0  0  0  0  0  0  0  0  0
    4.6627   -0.8154   -1.0701 H   0  0  0  0  0  0  0  0  0  0  0  0
    2.0556    3.2357    0.1085 H   0  0  0  0  0  0  0  0  0  0  0  0
    5.8618    1.2801   -0.5803 H   0  0  0  0  0  0  0  0  0  0  0  0
   -1.9946    1.4144    0.8585 H   0  0  0  0  0  0  0  0  0  0  0  0
   -5.1895   -0.4688   -1.3622 H   0  0  0  0  0  0  0  0  0  0  0  0
   -6.7225    1.3152   -0.6504 H   0  0  0  0  0  0  0  0  0  0  0  0
   -5.9307    3.1402    0.8099 H   0  0  0  0  0  0  0  0  0  0  0  0
    4.6289    5.5380    0.5888 H   0  0  0  0  0  0  0  0  0  0  0  0
    3.3752    4.5499    1.3306 H   0  0  0  0  0  0  0  0  0  0  0  0
    3.2926    5.0089   -0.4276 H   0  0  0  0  0  0  0  0  0  0  0  0
  1 24  1  0  0  0  0
  2  9  1  0  0  0  0
  2 11  1  0  0  0  0
  3 21  1  0  0  0  0
  3 27  1  0  0  0  0
  4  7  1  0  0  0  0
  4  8  1  0  0  0  0
  4 10  1  0  0  0  0
  5 12  1  0  0  0  0
  5 14  1  0  0  0  0
  5 37  1  0  0  0  0
  6 12  2  0  0  0  0
  6 15  1  0  0  0  0
  7  9  1  0  0  0  0
  7 12  1  0  0  0  0
  7 28  1  0  0  0  0
  8 11  1  0  0  0  0
  8 29  1  0  0  0  0
  8 30  1  0  0  0  0
  9 31  1  0  0  0  0
  9 32  1  0  0  0  0
 10 13  1  0  0  0  0
 10 33  1  0  0  0  0
 10 34  1  0  0  0  0
 11 35  1  0  0  0  0
 11 36  1  0  0  0  0
 13 16  2  0  0  0  0
 13 17  1  0  0  0  0
 14 15  2  0  0  0  0
 14 18  1  0  0  0  0
 15 38  1  0  0  0  0
 16 19  1  0  0  0  0
 16 39  1  0  0  0  0
 17 20  2  0  0  0  0
 17 40  1  0  0  0  0
 18 22  2  0  0  0  0
 18 23  1  0  0  0  0
 19 21  2  0  0  0  0
 19 41  1  0  0  0  0
 20 21  1  0  0  0  0
 20 42  1  0  0  0  0
 22 24  1  0  0  0  0
 22 43  1  0  0  0  0
 23 25  2  0  0  0  0
 23 44  1  0  0  0  0
 24 26  2  0  0  0  0
 25 26  1  0  0  0  0
 25 45  1  0  0  0  0
 26 46  1  0  0  0  0
 27 47  1  0  0  0  0
 27 48  1  0  0  0  0
 27 49  1  0  0  0  0
M  END
> <PUBCHEM_COMPOUND_CID>
75367185

> <PUBCHEM_CONFORMER_RMSD>
0.8

> <PUBCHEM_CONFORMER_DIVERSEORDER>
1
178
7
88
239
235
52
156
264
8
122
40
79
106
123
217
67
226
5
186
196
157
150
236
154
125
234
141
254
221
103
101
69
210
170
164
57
144
233
130
92
153
86
251
172
265
261
168
202
263
216
174
120
245
246
160
28
259
266
126
55
155
195
161
70
13
206
93
197
256
111
32
214
102
237
240
159
173
222
9
37
112
191
3
227
199
135
231
247
203
29
35
99
143
110
188
64
220
184
208
16
252
250
253
215
260
121
165
211
224
17
148
139
255
140
145
166
249
62
39
48
223
81
171
58
128
66
207
149
119
262
127
72
54
33
18
244
192
25
36
137
98
85
91
248
129
89
194
71
158
10
51
27
124
21
113
180
152
109
198
34
49
258
147
60
44
200
238
190
151
15
105
26
75
131
193
267
4
24
63
181
242
42
74
146
228
201
115
176
104
169
107
95
229
257
31
117
225
243
241
50
96
179
45
41
65
209
83
80
90
205
97
177
20
2
61
175
43
218
182
100
108
22
94
78
73
187
230
14
133
46
30
136
38
232
23
47
219
114
116
84
185
53
163
138
212
59
162
76
132
213
183
167
118
189
87
56
142
82
11
204
6
77
19
12
134
68

> <PUBCHEM_MMFF94_PARTIAL_CHARGES>
37
1 -0.18
10 0.41
11 0.28
12 0.01
13 -0.14
14 -0.2
15 0.08
16 -0.15
17 -0.15
18 0.05
19 -0.15
2 -0.56
20 -0.15
21 0.08
22 -0.15
23 -0.15
24 0.18
25 -0.15
26 -0.15
27 0.28
3 -0.36
37 0.27
38 0.15
39 0.15
4 -0.81
40 0.15
41 0.15
42 0.15
43 0.15
44 0.15
45 0.15
46 0.15
5 0.03
6 -0.57
7 0.45
8 0.27
9 0.28

> <PUBCHEM_EFFECTIVE_ROTOR_COUNT>
6.2

> <PUBCHEM_PHARMACOPHORE_FEATURES>
9
1 2 acceptor
1 3 acceptor
1 4 cation
1 5 donor
3 5 6 12 cation
5 5 6 12 14 15 rings
6 13 16 17 19 20 21 rings
6 18 22 23 24 25 26 rings
6 2 4 7 8 9 11 rings

> <PUBCHEM_HEAVY_ATOM_COUNT>
27

> <PUBCHEM_ATOM_DEF_STEREO_COUNT>
1

> <PUBCHEM_ATOM_UDEF_STEREO_COUNT>
0

> <PUBCHEM_BOND_DEF_STEREO_COUNT>
0

> <PUBCHEM_BOND_UDEF_STEREO_COUNT>
0

> <PUBCHEM_ISOTOPIC_ATOM_COUNT>
0

> <PUBCHEM_COMPONENT_COUNT>
1

> <PUBCHEM_CACTVS_TAUTO_COUNT>
2

> <PUBCHEM_CONFORMER_ID>
047E031100000001

> <PUBCHEM_MMFF94_ENERGY>
69.3838

> <PUBCHEM_FEATURE_SELFOVERLAP>
45.673

> <PUBCHEM_SHAPE_FINGERPRINT>
10794284 68 16751290787766841178
10937287 8 18337674212530414926
1100329 8 18335698309243651154
12107183 9 18189316022981048592
12293681 160 17615379881617749199
12403259 118 18053374397955189379
12788726 201 17760637462163490250
13583140 156 17970638385627513723
13590594 115 17546457678293369026
13878862 14 17825649085680820349
14117953 113 17117763540731825829
14251764 75 18271820020595879401
14739800 52 18130205104543593490
14849402 71 18261678078201679786
14955137 171 18047471128162992402
15142526 21 18335140920613137811
15463212 79 18265888232393766889
15475509 8 18055079749075498046
16112460 7 18410289225390494168
21864079 5 18343304730299113471
22122407 14 18120664522455325121
23398203 216 17978815702052601993
23558518 356 18120658186829469686
23559900 14 17054990300641755423
23845131 108 18113619001952088667
245318 6 18261973923770192325
283562 15 17974561704687014911
325973 47 17262151939866927345
376196 1 18270961383760636278
38570 142 18264224555537077326
394222 165 18340207380184557755
437795 70 17842867463615507756
474 4 18335416833791972219
474144 1 18268706108933572801
57307002 182 18263072250376643827
57527295 17 18337963385039028502
5895379 119 17772753762489319314
59124914 9 18409731768478224068
7288768 16 18188207739943162238
9849439 229 18189622802834428949
9981440 41 18053375785077119458

> <PUBCHEM_SHAPE_MULTIPOLES>
530.84
11.18
6.15
1.55
6.75
1.4
-0.41
12.99
0.47
-5.46
-3.32
0.42
-1.11
-3.04

> <PUBCHEM_SHAPE_SELFOVERLAP>
1140.152

> <PUBCHEM_SHAPE_VOLUME>
294.7

> <PUBCHEM_COORDINATE_TYPE>
2
5
10

$$$$
