51137517
  -OEChem-12032416203D

 52 55  0     1  0  0  0  0  0999 V2000
   -7.8875    0.8942    0.2969 S   0  0  0  0  0  0  0  0  0  0  0  0
    2.5773   -0.9430    0.1561 O   0  0  0  0  0  0  0  0  0  0  0  0
   -8.1252    2.3116    0.5334 O   0  0  0  0  0  0  0  0  0  0  0  0
   -8.6993    0.1779   -0.6767 O   0  0  0  0  0  0  0  0  0  0  0  0
    7.5999    2.8559   -0.0280 O   0  0  0  0  0  0  0  0  0  0  0  0
   -1.4484   -0.9173   -0.3439 N   0  0  1  0  0  0  0  0  0  0  0  0
    2.7967   -3.1683    0.0930 N   0  0  0  0  0  0  0  0  0  0  0  0
    4.0613   -2.6127    0.0384 N   0  0  0  0  0  0  0  0  0  0  0  0
    0.4533   -2.1585    0.2412 C   0  0  1  0  0  0  0  0  0  0  0  0
   -0.1279   -1.4847    1.4965 C   0  0  0  0  0  0  0  0  0  0  0  0
   -0.2089   -1.4271   -0.9342 C   0  0  0  0  0  0  0  0  0  0  0  0
   -1.0567   -0.3997    0.9671 C   0  0  0  0  0  0  0  0  0  0  0  0
   -2.0823    0.0969   -1.1733 C   0  0  0  0  0  0  0  0  0  0  0  0
    1.9624   -2.1573    0.1609 C   0  0  0  0  0  0  0  0  0  0  0  0
   -3.5292    0.2962   -0.8076 C   0  0  0  0  0  0  0  0  0  0  0  0
   -4.4850   -0.6369   -1.2093 C   0  0  0  0  0  0  0  0  0  0  0  0
   -3.9138    1.4138   -0.0669 C   0  0  0  0  0  0  0  0  0  0  0  0
    3.8848   -1.3126    0.0777 C   0  0  0  0  0  0  0  0  0  0  0  0
   -5.8254   -0.4524   -0.8705 C   0  0  0  0  0  0  0  0  0  0  0  0
   -5.2542    1.5985    0.2719 C   0  0  0  0  0  0  0  0  0  0  0  0
   -6.2100    0.6654   -0.1300 C   0  0  0  0  0  0  0  0  0  0  0  0
    4.8389   -0.2423    0.0517 C   0  0  0  0  0  0  0  0  0  0  0  0
    6.2026   -0.5252   -0.0271 C   0  0  0  0  0  0  0  0  0  0  0  0
    4.4032    1.0817    0.1045 C   0  0  0  0  0  0  0  0  0  0  0  0
   -8.0611    0.0717    1.8644 C   0  0  0  0  0  0  0  0  0  0  0  0
    7.1306    0.5159   -0.0529 C   0  0  0  0  0  0  0  0  0  0  0  0
    5.3312    2.1229    0.0787 C   0  0  0  0  0  0  0  0  0  0  0  0
    6.6948    1.8398    0.0001 C   0  0  0  0  0  0  0  0  0  0  0  0
    8.9780    2.4954   -0.1122 C   0  0  0  0  0  0  0  0  0  0  0  0
    0.1249   -3.2071    0.2386 H   0  0  0  0  0  0  0  0  0  0  0  0
   -0.7016   -2.2226    2.0711 H   0  0  0  0  0  0  0  0  0  0  0  0
    0.6356   -1.0673    2.1615 H   0  0  0  0  0  0  0  0  0  0  0  0
   -0.4085   -2.1126   -1.7651 H   0  0  0  0  0  0  0  0  0  0  0  0
    0.4210   -0.6095   -1.3088 H   0  0  0  0  0  0  0  0  0  0  0  0
   -0.5076    0.5474    0.8870 H   0  0  0  0  0  0  0  0  0  0  0  0
   -1.9109   -0.2543    1.6357 H   0  0  0  0  0  0  0  0  0  0  0  0
   -1.5364    1.0499   -1.1512 H   0  0  0  0  0  0  0  0  0  0  0  0
   -2.0636   -0.2187   -2.2262 H   0  0  0  0  0  0  0  0  0  0  0  0
   -4.1974   -1.5127   -1.7851 H   0  0  0  0  0  0  0  0  0  0  0  0
   -3.1786    2.1466    0.2550 H   0  0  0  0  0  0  0  0  0  0  0  0
   -6.5513   -1.1958   -1.1875 H   0  0  0  0  0  0  0  0  0  0  0  0
   -5.5308    2.4721    0.8554 H   0  0  0  0  0  0  0  0  0  0  0  0
    6.5638   -1.5501   -0.0695 H   0  0  0  0  0  0  0  0  0  0  0  0
    3.3495    1.3420    0.1659 H   0  0  0  0  0  0  0  0  0  0  0  0
   -7.3962    0.5447    2.5896 H   0  0  0  0  0  0  0  0  0  0  0  0
   -7.8132   -0.9841    1.7406 H   0  0  0  0  0  0  0  0  0  0  0  0
   -9.0991    0.1748    2.1879 H   0  0  0  0  0  0  0  0  0  0  0  0
    8.1738    0.2254   -0.1150 H   0  0  0  0  0  0  0  0  0  0  0  0
    4.9863    3.1525    0.1195 H   0  0  0  0  0  0  0  0  0  0  0  0
    9.3007    1.9306    0.7690 H   0  0  0  0  0  0  0  0  0  0  0  0
    9.1999    1.9693   -1.0469 H   0  0  0  0  0  0  0  0  0  0  0  0
    9.5552    3.4258   -0.1244 H   0  0  0  0  0  0  0  0  0  0  0  0
  1  3  2  0  0  0  0
  1  4  2  0  0  0  0
  1 21  1  0  0  0  0
  1 25  1  0  0  0  0
  2 14  1  0  0  0  0
  2 18  1  0  0  0  0
  5 28  1  0  0  0  0
  5 29  1  0  0  0  0
  6 11  1  0  0  0  0
  6 12  1  0  0  0  0
  6 13  1  0  0  0  0
  7  8  1  0  0  0  0
  7 14  2  0  0  0  0
  8 18  2  0  0  0  0
  9 10  1  0  0  0  0
  9 11  1  0  0  0  0
  9 14  1  0  0  0  0
  9 30  1  0  0  0  0
 10 12  1  0  0  0  0
 10 31  1  0  0  0  0
 10 32  1  0  0  0  0
 11 33  1  0  0  0  0
 11 34  1  0  0  0  0
 12 35  1  0  0  0  0
 12 36  1  0  0  0  0
 13 15  1  0  0  0  0
 13 37  1  0  0  0  0
 13 38  1  0  0  0  0
 15 16  2  0  0  0  0
 15 17  1  0  0  0  0
 16 19  1  0  0  0  0
 16 39  1  0  0  0  0
 17 20  2  0  0  0  0
 17 40  1  0  0  0  0
 18 22  1  0  0  0  0
 19 21  2  0  0  0  0
 19 41  1  0  0  0  0
 20 21  1  0  0  0  0
 20 42  1  0  0  0  0
 22 23  2  0  0  0  0
 22 24  1  0  0  0  0
 23 26  1  0  0  0  0
 23 43  1  0  0  0  0
 24 27  2  0  0  0  0
 24 44  1  0  0  0  0
 25 45  1  0  0  0  0
 25 46  1  0  0  0  0
 25 47  1  0  0  0  0
 26 28  2  0  0  0  0
 26 48  1  0  0  0  0
 27 28  1  0  0  0  0
 27 49  1  0  0  0  0
 29 50  1  0  0  0  0
 29 51  1  0  0  0  0
 29 52  1  0  0  0  0
M  END
> <PUBCHEM_COMPOUND_CID>
51137517

> <PUBCHEM_CONFORMER_RMSD>
0.8

> <PUBCHEM_CONFORMER_DIVERSEORDER>
1
134
176
100
20
23
29
64
80
78
122
137
145
195
33
130
178
142
175
109
76
126
140
169
147
124
86
155
3
24
19
94
121
56
37
112
46
99
136
73
118
79
139
5
50
187
110
156
141
199
165
138
167
171
89
198
127
53
69
35
72
129
201
41
144
31
77
181
183
113
7
152
192
108
68
188
117
12
164
170
32
65
71
168
61
206
67
131
119
162
196
14
143
135
105
208
66
92
123
172
107
18
149
128
59
190
179
70
21
44
153
211
209
85
43
146
40
16
96
191
8
57
10
49
116
9
98
180
22
36
97
203
174
47
184
17
160
182
202
84
27
26
154
91
115
205
125
34
189
63
185
104
39
132
193
150
186
13
74
102
159
204
38
88
4
52
200
87
28
15
106
207
81
55
177
83
60
82
93
166
103
75
90
133
197
158
148
48
25
210
114
2
101
6
62
95
163
11
194
58
51
54
45
42
120
173
157
151
30
161
111

> <PUBCHEM_MMFF94_PARTIAL_CHARGES>
36
1 1.2
11 0.27
12 0.27
13 0.41
14 0.3
15 -0.14
16 -0.15
17 -0.15
18 0.43
19 -0.15
2 -0.28
20 -0.15
21 -0.01
22 0.05
23 -0.15
24 -0.15
25 0.11
26 -0.15
27 -0.15
28 0.08
29 0.28
3 -0.65
39 0.15
4 -0.65
40 0.15
41 0.15
42 0.15
43 0.15
44 0.15
48 0.15
49 0.15
5 -0.36
6 -0.81
7 -0.34
8 -0.34
9 0.18

> <PUBCHEM_EFFECTIVE_ROTOR_COUNT>
7

> <PUBCHEM_PHARMACOPHORE_FEATURES>
8
1 3 acceptor
1 4 acceptor
1 5 acceptor
1 6 cation
5 2 7 8 14 18 rings
5 6 9 10 11 12 rings
6 15 16 17 19 20 21 rings
6 22 23 24 26 27 28 rings

> <PUBCHEM_HEAVY_ATOM_COUNT>
29

> <PUBCHEM_ATOM_DEF_STEREO_COUNT>
1

> <PUBCHEM_ATOM_UDEF_STEREO_COUNT>
0

> <PUBCHEM_BOND_DEF_STEREO_COUNT>
0

> <PUBCHEM_BOND_UDEF_STEREO_COUNT>
0

> <PUBCHEM_ISOTOPIC_ATOM_COUNT>
0

> <PUBCHEM_COMPONENT_COUNT>
1

> <PUBCHEM_CACTVS_TAUTO_COUNT>
1

> <PUBCHEM_CONFORMER_ID>
030C4BED00000001

> <PUBCHEM_MMFF94_ENERGY>
66.2459

> <PUBCHEM_FEATURE_SELFOVERLAP>
40.615

> <PUBCHEM_SHAPE_FINGERPRINT>
10 15 17894348882211829481
10299344 5 17988639675854558255
10319688 67 16370445574624899593
10391435 84 17676492753304607643
10411042 1 17833829375415922202
10595046 47 18341888572176012095
10673678 19 18272091599724853070
10838868 160 18341601647007538016
11273773 42 18343016722439768933
11315181 36 18412261702654404205
11374522 155 18114187492091789692
11409948 8 18114473365884086035
11456790 92 18260822671050728784
11719270 70 13334740098716626265
1200032 147 18261391174734155370
12013929 94 18341049710352368759
12539765 74 18131074813772806022
13690498 29 17416109818964621743
13914758 101 8935002582032518759
14142895 15 18411696617358523071
14394314 77 18341055129652186833
14428016 86 18409730664935295032
14461889 52 17385734590534145387
14565420 104 18040995116407390714
14617042 71 18411141333595294229
14849402 71 18412545435808648713
14856354 85 17131828773332246439
14918687 75 12468639461233222704
14919807 6 12750970871406995827
14931854 50 17917440860812458232
15064981 194 18125732424639065420
15183329 4 17060341824795484257
15188451 53 11963387440629243286
15419008 91 17749662975510075669
15475509 8 14189576321558372003
15685185 35 18267024036843385872
15728490 51 18408885175027912231
1577012 14 18272363187501972454
15840311 113 18410577245163504839
16087824 20 18408886261850141860
16126227 98 18410855498904453190
16989713 51 16701161149658835031
16992787 43 18413673521505620681
16994733 274 18411133619759762505
1768 4 18408325514191004833
18393751 57 17749106707850779570
18603816 31 12540986239577092561
18608769 82 18335421317806212923
19302320 297 18114179787753741076
19841028 212 9223227438840129588
20105231 36 14405181790548485045
20157964 124 18410855430591385626
2026 5 9655587304929406645
20505436 4 18272927241637295646
21033648 29 18264479767447889400
21298829 104 18411418445148775068
21304304 249 9079117773997322664
21307412 95 12967127250233918213
21521721 280 18408324354950917715
21585481 104 17131568162827144116
21585482 111 18335699377941967636
22224240 67 17748827406406972355
23389318 12 18341882010251844503
23522609 53 17703239421220917273
23576562 1 15912459434299323657
23729398 52 18192716640658584646
24771293 8 18187363259278682997
25269216 80 16916492783543311077
2747138 104 17604160242050628925
2838139 119 18335128779326037694
28498 318 10447929464717426275
3004659 81 11095879367752709158
306946 40 17240749667955652669
34797466 226 18130228164212878311
3711267 37 18130517365936390585
397830 11 18187093866593946131
4073 2 18334577958102447051
4112364 45 17096095804791258764
4169191 19 18272931584429031813
4325135 7 18341328920899671535
437815 12 11095884873537116818
444735 82 18261115132279807141
445580 126 18411691089761792042
474113 269 10665220475762847561
5080951 261 16515964878580318107
5470011 282 14404905847500778448
5758199 1 18335138695793678639
5911458 16 18131637772468947153
59682541 35 17749394775918359161
6438161 24 8790884073150169892
9689198 14 18342461434887175973
9953998 17 17603307072762150963
9962374 69 8934710077252406416

> <PUBCHEM_SHAPE_MULTIPOLES>
562.24
28.59
2.86
1.06
8.51
0.25
0.18
-23.48
2.15
-5.31
0.23
1.88
0.18
-0.69

> <PUBCHEM_SHAPE_SELFOVERLAP>
1201.662

> <PUBCHEM_SHAPE_VOLUME>
316.1

> <PUBCHEM_COORDINATE_TYPE>
2
5
10

$$$$
