75368467
  -OEChem-12032416393D

 55 58  0     1  0  0  0  0  0999 V2000
   -2.8518    3.1446    0.7673 O   0  0  0  0  0  0  0  0  0  0  0  0
    3.6039    2.6433   -1.6577 O   0  0  0  0  0  0  0  0  0  0  0  0
   -6.5487   -2.3726   -1.6984 O   0  0  0  0  0  0  0  0  0  0  0  0
   -0.7027    2.2668    0.4040 N   0  0  0  0  0  0  0  0  0  0  0  0
   -2.2107    0.9872    1.4711 N   0  0  0  0  0  0  0  0  0  0  0  0
    1.6266    1.6420   -0.9812 N   0  0  0  0  0  0  0  0  0  0  0  0
    3.7141    0.5780   -0.6677 N   0  0  0  0  0  0  0  0  0  0  0  0
    0.0368    1.0789    0.7979 C   0  0  1  0  0  0  0  0  0  0  0  0
   -1.0443    0.1352    1.3179 C   0  0  0  0  0  0  0  0  0  0  0  0
    0.8397    0.5435   -0.3837 C   0  0  0  0  0  0  0  0  0  0  0  0
   -0.0247    3.3427   -0.2986 C   0  0  0  0  0  0  0  0  0  0  0  0
    0.8096    2.7748   -1.4464 C   0  0  0  0  0  0  0  0  0  0  0  0
   -2.0246    2.2484    0.8710 C   0  0  0  0  0  0  0  0  0  0  0  0
   -3.4435    0.5006    2.0497 C   0  0  0  0  0  0  0  0  0  0  0  0
    3.0204    1.6853   -1.1392 C   0  0  0  0  0  0  0  0  0  0  0  0
   -4.2688   -0.2622    1.0541 C   0  0  0  0  0  0  0  0  0  0  0  0
   -4.3255   -1.6545    1.1170 C   0  0  0  0  0  0  0  0  0  0  0  0
   -4.9783    0.4209    0.0663 C   0  0  0  0  0  0  0  0  0  0  0  0
    5.1540    0.4782   -0.7541 C   0  0  0  0  0  0  0  0  0  0  0  0
   -5.0919   -2.3638    0.1923 C   0  0  0  0  0  0  0  0  0  0  0  0
   -5.7447   -0.2883   -0.8585 C   0  0  0  0  0  0  0  0  0  0  0  0
    5.6636   -0.8109   -0.1773 C   0  0  0  0  0  0  0  0  0  0  0  0
   -5.8015   -1.6806   -0.7955 C   0  0  0  0  0  0  0  0  0  0  0  0
    6.0013   -0.8858    1.1739 C   0  0  0  0  0  0  0  0  0  0  0  0
    5.7987   -1.9342   -0.9932 C   0  0  0  0  0  0  0  0  0  0  0  0
    6.4743   -2.0839    1.7094 C   0  0  0  0  0  0  0  0  0  0  0  0
    6.2715   -3.1323   -0.4578 C   0  0  0  0  0  0  0  0  0  0  0  0
    6.6093   -3.2071    0.8936 C   0  0  0  0  0  0  0  0  0  0  0  0
   -6.5622   -3.7942   -1.5762 C   0  0  0  0  0  0  0  0  0  0  0  0
    0.7080    1.3799    1.6123 H   0  0  0  0  0  0  0  0  0  0  0  0
   -0.7733   -0.3061    2.2817 H   0  0  0  0  0  0  0  0  0  0  0  0
   -1.2852   -0.6611    0.6062 H   0  0  0  0  0  0  0  0  0  0  0  0
    1.4395   -0.3073   -0.0653 H   0  0  0  0  0  0  0  0  0  0  0  0
    0.1716    0.1801   -1.1751 H   0  0  0  0  0  0  0  0  0  0  0  0
    0.6224    3.8411    0.4321 H   0  0  0  0  0  0  0  0  0  0  0  0
   -0.7575    4.0707   -0.6594 H   0  0  0  0  0  0  0  0  0  0  0  0
    0.1554    2.3917   -2.2388 H   0  0  0  0  0  0  0  0  0  0  0  0
    1.4304    3.5630   -1.8824 H   0  0  0  0  0  0  0  0  0  0  0  0
   -4.0250    1.3590    2.4077 H   0  0  0  0  0  0  0  0  0  0  0  0
   -3.2006   -0.1080    2.9282 H   0  0  0  0  0  0  0  0  0  0  0  0
    3.2318   -0.1883   -0.2202 H   0  0  0  0  0  0  0  0  0  0  0  0
   -3.7752   -2.1981    1.8805 H   0  0  0  0  0  0  0  0  0  0  0  0
   -4.9497    1.5051    0.0076 H   0  0  0  0  0  0  0  0  0  0  0  0
    5.5910    1.3378   -0.2316 H   0  0  0  0  0  0  0  0  0  0  0  0
    5.4442    0.5758   -1.8072 H   0  0  0  0  0  0  0  0  0  0  0  0
   -5.0910   -3.4433    0.2981 H   0  0  0  0  0  0  0  0  0  0  0  0
   -6.2962    0.2493   -1.6249 H   0  0  0  0  0  0  0  0  0  0  0  0
    5.8985   -0.0180    1.8201 H   0  0  0  0  0  0  0  0  0  0  0  0
    5.5372   -1.8888   -2.0471 H   0  0  0  0  0  0  0  0  0  0  0  0
    6.7368   -2.1424    2.7617 H   0  0  0  0  0  0  0  0  0  0  0  0
    6.3762   -4.0071   -1.0928 H   0  0  0  0  0  0  0  0  0  0  0  0
    6.9773   -4.1400    1.3104 H   0  0  0  0  0  0  0  0  0  0  0  0
   -7.2055   -4.1810   -2.3734 H   0  0  0  0  0  0  0  0  0  0  0  0
   -7.0044   -4.1123   -0.6260 H   0  0  0  0  0  0  0  0  0  0  0  0
   -5.5659   -4.2211   -1.7341 H   0  0  0  0  0  0  0  0  0  0  0  0
  1 13  2  0  0  0  0
  2 15  2  0  0  0  0
  3 23  1  0  0  0  0
  3 29  1  0  0  0  0
  4  8  1  0  0  0  0
  4 11  1  0  0  0  0
  4 13  1  0  0  0  0
  5  9  1  0  0  0  0
  5 13  1  0  0  0  0
  5 14  1  0  0  0  0
  6 10  1  0  0  0  0
  6 12  1  0  0  0  0
  6 15  1  0  0  0  0
  7 15  1  0  0  0  0
  7 19  1  0  0  0  0
  7 41  1  0  0  0  0
  8  9  1  0  0  0  0
  8 10  1  0  0  0  0
  8 30  1  0  0  0  0
  9 31  1  0  0  0  0
  9 32  1  0  0  0  0
 10 33  1  0  0  0  0
 10 34  1  0  0  0  0
 11 12  1  0  0  0  0
 11 35  1  0  0  0  0
 11 36  1  0  0  0  0
 12 37  1  0  0  0  0
 12 38  1  0  0  0  0
 14 16  1  0  0  0  0
 14 39  1  0  0  0  0
 14 40  1  0  0  0  0
 16 17  2  0  0  0  0
 16 18  1  0  0  0  0
 17 20  1  0  0  0  0
 17 42  1  0  0  0  0
 18 21  2  0  0  0  0
 18 43  1  0  0  0  0
 19 22  1  0  0  0  0
 19 44  1  0  0  0  0
 19 45  1  0  0  0  0
 20 23  2  0  0  0  0
 20 46  1  0  0  0  0
 21 23  1  0  0  0  0
 21 47  1  0  0  0  0
 22 24  2  0  0  0  0
 22 25  1  0  0  0  0
 24 26  1  0  0  0  0
 24 48  1  0  0  0  0
 25 27  2  0  0  0  0
 25 49  1  0  0  0  0
 26 28  2  0  0  0  0
 26 50  1  0  0  0  0
 27 28  1  0  0  0  0
 27 51  1  0  0  0  0
 28 52  1  0  0  0  0
 29 53  1  0  0  0  0
 29 54  1  0  0  0  0
 29 55  1  0  0  0  0
M  END
> <PUBCHEM_COMPOUND_CID>
75368467

> <PUBCHEM_CONFORMER_RMSD>
1

> <PUBCHEM_CONFORMER_DIVERSEORDER>
1
15
35
56
87
62
83
91
96
89
45
24
77
5
81
71
44
86
46
49
69
84
36
85
93
78
53
55
14
51
67
4
20
70
102
54
72
98
60
76
2
97
6
52
25
27
50
38
41
95
65
79
7
16
22
99
82
64
8
90
39
80
58
30
75
73
100
13
17
37
32
3
74
31
11
92
104
43
59
57
103
66
29
94
47
48
28
42
88
63
33
21
18
26
19
61
12
9
10
101
23
34
40
68

> <PUBCHEM_MMFF94_PARTIAL_CHARGES>
39
1 -0.57
10 0.3
11 0.3
12 0.3
13 0.69
14 0.44
15 0.69
16 -0.14
17 -0.15
18 -0.15
19 0.44
2 -0.57
20 -0.15
21 -0.15
22 -0.14
23 0.08
24 -0.15
25 -0.15
26 -0.15
27 -0.15
28 -0.15
29 0.28
3 -0.36
4 -0.66
41 0.37
42 0.15
43 0.15
46 0.15
47 0.15
48 0.15
49 0.15
5 -0.66
50 0.15
51 0.15
52 0.15
6 -0.66
7 -0.73
8 0.3
9 0.3

> <PUBCHEM_EFFECTIVE_ROTOR_COUNT>
8.2

> <PUBCHEM_PHARMACOPHORE_FEATURES>
8
1 1 acceptor
1 2 acceptor
1 3 acceptor
1 7 donor
5 4 5 8 9 13 rings
6 16 17 18 20 21 23 rings
6 22 24 25 26 27 28 rings
6 4 6 8 10 11 12 rings

> <PUBCHEM_HEAVY_ATOM_COUNT>
29

> <PUBCHEM_ATOM_DEF_STEREO_COUNT>
1

> <PUBCHEM_ATOM_UDEF_STEREO_COUNT>
0

> <PUBCHEM_BOND_DEF_STEREO_COUNT>
0

> <PUBCHEM_BOND_UDEF_STEREO_COUNT>
0

> <PUBCHEM_ISOTOPIC_ATOM_COUNT>
0

> <PUBCHEM_COMPONENT_COUNT>
1

> <PUBCHEM_CACTVS_TAUTO_COUNT>
2

> <PUBCHEM_CONFORMER_ID>
047E081300000001

> <PUBCHEM_MMFF94_ENERGY>
78.3053

> <PUBCHEM_FEATURE_SELFOVERLAP>
40.695

> <PUBCHEM_SHAPE_FINGERPRINT>
10571361 74 18342457066779849094
10622 236 18408889554817816054
10693767 8 18337103583392148971
11135609 201 10087628295713718461
11475781 23 14634866487871912516
11607047 403 17698708539460804928
12422481 6 17917718942158272550
12559415 36 8285638809085070919
13008946 267 16323161811713585312
13533116 47 18408327709425766704
13761468 95 17823408302938998853
13782708 43 18131068204266081714
13828863 39 9871755689349392489
13885169 86 10735868478698675914
14068700 675 18413103957249393769
14211702 104 18340774758359881430
14765038 42 10159692508470342418
15183329 4 17168139048525811178
15188451 53 18342735183386565192
15338160 23 9727342546644773181
15419009 47 18260542282938582093
16126227 98 9871451137123042814
16992828 155 14939098777759968387
17857418 61 18409737248624261888
18393751 57 11095894765706499781
19315092 285 18060423542662316352
19958102 18 17676485077000446427
20028762 73 18412827954631373342
20156587 161 18057013961205482526
20691028 202 8502381009635975199
21424621 283 8574428755155234954
21585483 132 18335129912639215586
22002106 203 18261667070792098210
23559900 14 17968103061478666200
3014063 24 18410854344001446590
32027 91 18337953493190560529
3504750 166 18196938764453825512
38570 142 7925914798244125087
437795 70 15647047157700602959
439807 62 18197500830530428231
4756326 101 13037815889364524139
50009960 94 18041829637738809802
5085150 59 18059856126143438287
531348 171 18333452011282786125
5718773 13 18343297093810500047
5874358 3 18336808849915231898
6034566 193 9151172047788101613
6058803 2 18194150527320338221
6712543 237 17489031448389058383
96874 4 18412539920606442974
9980921 52 18268131107461018790

> <PUBCHEM_SHAPE_MULTIPOLES>
559.27
20.48
4.53
1.75
8.97
0.63
-0.15
26.21
2.43
-0.26
1.41
-0.57
0.21
-4.52

> <PUBCHEM_SHAPE_SELFOVERLAP>
1193.172

> <PUBCHEM_SHAPE_VOLUME>
310.2

> <PUBCHEM_COORDINATE_TYPE>
2
5
10

$$$$
