11885261
  -OEChem-12032416113D

 54 58  0     1  0  0  0  0  0999 V2000
    2.9993    0.4255    2.1359 O   0  0  0  0  0  0  0  0  0  0  0  0
   -1.9843   -1.4561    1.6647 O   0  0  0  0  0  0  0  0  0  0  0  0
    2.8200   -0.9715    0.2878 N   0  0  0  0  0  0  0  0  0  0  0  0
   -0.2565   -1.8141    0.1396 N   0  0  0  0  0  0  0  0  0  0  0  0
   -5.8692    0.2690    0.0043 N   0  0  0  0  0  0  0  0  0  0  0  0
   -4.6375    2.1833    0.7946 N   0  0  0  0  0  0  0  0  0  0  0  0
    1.8095   -3.2173    0.7036 C   0  0  1  0  0  0  0  0  0  0  0  0
    1.6062   -2.1802   -1.5164 C   0  0  2  0  0  0  0  0  0  0  0  0
    1.8530   -3.5021   -0.7927 C   0  0  0  0  0  0  0  0  0  0  0  0
    2.8918   -2.1942    1.0901 C   0  0  0  0  0  0  0  0  0  0  0  0
    2.7264   -1.1817   -1.1647 C   0  0  0  0  0  0  0  0  0  0  0  0
    0.4021   -2.7356    1.0755 C   0  0  0  0  0  0  0  0  0  0  0  0
    0.2586   -1.5938   -1.1400 C   0  0  0  0  0  0  0  0  0  0  0  0
    2.9272    1.4755    0.0209 C   0  0  0  0  0  0  0  0  0  0  0  0
    2.9218    0.2707    0.9143 C   0  0  0  0  0  0  0  0  0  0  0  0
    1.4921    1.9393   -0.2379 C   0  0  0  0  0  0  0  0  0  0  0  0
    3.7702    2.5872    0.6497 C   0  0  0  0  0  0  0  0  0  0  0  0
    1.4543    3.2202   -1.0672 C   0  0  0  0  0  0  0  0  0  0  0  0
    3.7269    3.8667   -0.1815 C   0  0  0  0  0  0  0  0  0  0  0  0
   -0.4230   -0.8435   -2.0203 C   0  0  0  0  0  0  0  0  0  0  0  0
    2.2940    4.3256   -0.4343 C   0  0  0  0  0  0  0  0  0  0  0  0
   -1.4811   -1.2569    0.5575 C   0  0  0  0  0  0  0  0  0  0  0  0
   -2.2037   -0.3902   -0.4385 C   0  0  0  0  0  0  0  0  0  0  0  0
   -1.6692   -0.2303   -1.6584 C   0  0  0  0  0  0  0  0  0  0  0  0
   -3.4686    0.2801   -0.0908 C   0  0  0  0  0  0  0  0  0  0  0  0
   -4.6923   -0.3155   -0.3018 C   0  0  0  0  0  0  0  0  0  0  0  0
   -3.4983    1.5402    0.4643 C   0  0  0  0  0  0  0  0  0  0  0  0
   -5.7697    1.4998    0.5414 C   0  0  0  0  0  0  0  0  0  0  0  0
    2.0141   -4.1408    1.2594 H   0  0  0  0  0  0  0  0  0  0  0  0
    1.6385   -2.3713   -2.5970 H   0  0  0  0  0  0  0  0  0  0  0  0
    2.8275   -3.9186   -1.0755 H   0  0  0  0  0  0  0  0  0  0  0  0
    1.0936   -4.2447   -1.0676 H   0  0  0  0  0  0  0  0  0  0  0  0
    3.8863   -2.6239    0.9169 H   0  0  0  0  0  0  0  0  0  0  0  0
    2.8273   -1.9613    2.1582 H   0  0  0  0  0  0  0  0  0  0  0  0
    3.6977   -1.5739   -1.4902 H   0  0  0  0  0  0  0  0  0  0  0  0
    2.5532   -0.2617   -1.7221 H   0  0  0  0  0  0  0  0  0  0  0  0
   -0.2605   -3.6093    1.1446 H   0  0  0  0  0  0  0  0  0  0  0  0
    0.4034   -2.2791    2.0733 H   0  0  0  0  0  0  0  0  0  0  0  0
    3.4287    1.2539   -0.9252 H   0  0  0  0  0  0  0  0  0  0  0  0
    0.9767    2.1104    0.7165 H   0  0  0  0  0  0  0  0  0  0  0  0
    0.9231    1.1678   -0.7551 H   0  0  0  0  0  0  0  0  0  0  0  0
    4.8103    2.2561    0.7601 H   0  0  0  0  0  0  0  0  0  0  0  0
    3.4106    2.8211    1.6604 H   0  0  0  0  0  0  0  0  0  0  0  0
    0.4176    3.5594   -1.1732 H   0  0  0  0  0  0  0  0  0  0  0  0
    1.8268    3.0108   -2.0776 H   0  0  0  0  0  0  0  0  0  0  0  0
    4.2301    3.6957   -1.1412 H   0  0  0  0  0  0  0  0  0  0  0  0
    4.2824    4.6592    0.3326 H   0  0  0  0  0  0  0  0  0  0  0  0
   -0.0405   -0.6482   -3.0166 H   0  0  0  0  0  0  0  0  0  0  0  0
    2.2982    5.2054   -1.0876 H   0  0  0  0  0  0  0  0  0  0  0  0
    1.8366    4.6333    0.5141 H   0  0  0  0  0  0  0  0  0  0  0  0
   -2.1488    0.3858   -2.4134 H   0  0  0  0  0  0  0  0  0  0  0  0
   -4.7780   -1.3081   -0.7335 H   0  0  0  0  0  0  0  0  0  0  0  0
   -2.5880    2.0950    0.6709 H   0  0  0  0  0  0  0  0  0  0  0  0
   -6.6997    1.9927    0.7971 H   0  0  0  0  0  0  0  0  0  0  0  0
  1 15  2  0  0  0  0
  2 22  2  0  0  0  0
  3 10  1  0  0  0  0
  3 11  1  0  0  0  0
  3 15  1  0  0  0  0
  4 12  1  0  0  0  0
  4 13  1  0  0  0  0
  4 22  1  0  0  0  0
  5 26  2  0  0  0  0
  5 28  1  0  0  0  0
  6 27  1  0  0  0  0
  6 28  2  0  0  0  0
  7  9  1  0  0  0  0
  7 10  1  0  0  0  0
  7 12  1  0  0  0  0
  7 29  1  0  0  0  0
  8  9  1  0  0  0  0
  8 11  1  0  0  0  0
  8 13  1  0  0  0  0
  8 30  1  0  0  0  0
  9 31  1  0  0  0  0
  9 32  1  0  0  0  0
 10 33  1  0  0  0  0
 10 34  1  0  0  0  0
 11 35  1  0  0  0  0
 11 36  1  0  0  0  0
 12 37  1  0  0  0  0
 12 38  1  0  0  0  0
 13 20  2  0  0  0  0
 14 15  1  0  0  0  0
 14 16  1  0  0  0  0
 14 17  1  0  0  0  0
 14 39  1  0  0  0  0
 16 18  1  0  0  0  0
 16 40  1  0  0  0  0
 16 41  1  0  0  0  0
 17 19  1  0  0  0  0
 17 42  1  0  0  0  0
 17 43  1  0  0  0  0
 18 21  1  0  0  0  0
 18 44  1  0  0  0  0
 18 45  1  0  0  0  0
 19 21  1  0  0  0  0
 19 46  1  0  0  0  0
 19 47  1  0  0  0  0
 20 24  1  0  0  0  0
 20 48  1  0  0  0  0
 21 49  1  0  0  0  0
 21 50  1  0  0  0  0
 22 23  1  0  0  0  0
 23 24  2  0  0  0  0
 23 25  1  0  0  0  0
 24 51  1  0  0  0  0
 25 26  1  0  0  0  0
 25 27  2  0  0  0  0
 26 52  1  0  0  0  0
 27 53  1  0  0  0  0
 28 54  1  0  0  0  0
M  END
> <PUBCHEM_COMPOUND_CID>
11885261

> <PUBCHEM_CONFORMER_RMSD>
0.8

> <PUBCHEM_CONFORMER_DIVERSEORDER>
1
11
4
9
5
3
8
2
7
6
12
10

> <PUBCHEM_MMFF94_PARTIAL_CHARGES>
26
1 -0.57
10 0.3
11 0.3
12 0.3
13 -0.03
14 0.06
15 0.57
2 -0.57
20 -0.15
22 0.62
23 -0.01
24 -0.15
25 0.03
26 0.16
27 0.16
28 0.47
3 -0.66
4 -0.47
48 0.15
5 -0.62
51 0.15
52 0.15
53 0.15
54 0.15
6 -0.62
8 0.14

> <PUBCHEM_EFFECTIVE_ROTOR_COUNT>
5.2

> <PUBCHEM_PHARMACOPHORE_FEATURES>
9
1 1 acceptor
1 2 acceptor
1 5 acceptor
3 5 6 28 cation
6 14 16 17 18 19 21 rings
6 3 7 8 9 10 11 rings
6 4 13 20 22 23 24 rings
6 4 7 8 9 12 13 rings
6 5 6 25 26 27 28 rings

> <PUBCHEM_HEAVY_ATOM_COUNT>
28

> <PUBCHEM_ATOM_DEF_STEREO_COUNT>
2

> <PUBCHEM_ATOM_UDEF_STEREO_COUNT>
0

> <PUBCHEM_BOND_DEF_STEREO_COUNT>
0

> <PUBCHEM_BOND_UDEF_STEREO_COUNT>
0

> <PUBCHEM_ISOTOPIC_ATOM_COUNT>
0

> <PUBCHEM_COMPONENT_COUNT>
1

> <PUBCHEM_CACTVS_TAUTO_COUNT>
1

> <PUBCHEM_CONFORMER_ID>
00B55ACD00000001

> <PUBCHEM_MMFF94_ENERGY>
70.3234

> <PUBCHEM_FEATURE_SELFOVERLAP>
47.238

> <PUBCHEM_SHAPE_FINGERPRINT>
10165383 225 18040447594123838974
10483366 6 18339380599823850108
10937287 8 18122906700977790472
11578080 2 18194991680259825179
11640471 11 17774995829970577694
12403259 327 17676480648984142930
12422481 6 17838582632131174322
12633257 1 17895741967850095602
12788726 201 17399251754452540686
133893 2 17985857893565163827
13583140 156 18262252023366441859
13761468 95 17187045366068140980
13965767 371 17843655838906051378
14251764 38 18340774745738931625
14251764 75 18194413409657502585
14849402 71 18408605847033085554
15238133 3 18264213496006741702
15475509 84 16819673826622707121
18785283 64 18407760334906606424
20739085 24 18339072697343491872
21033648 144 18042955652897645197
21475661 188 18410012117799041149
21756936 100 17980759660554422164
21860390 5 18341334383591611502
23558518 356 18194396925409237062
23559900 14 18269563754026632423
245318 6 17825679008265070173
3411729 13 18413393137782678469
3493558 16 17556301666269074329
35225 105 17479750750059055292
474 4 18411415133322203693
50150288 127 13491300971960513173
5081480 168 17915463796332961932
5312544 6 18266734856605032645
5895379 119 17199403494543220641
7288768 16 17972029503521716656
9981440 41 18194123143055979025

> <PUBCHEM_SHAPE_MULTIPOLES>
544.56
9.19
4.99
1.53
14.8
2.53
0.14
7.17
-2.25
-6.27
0.2
-0.47
-0.64
-0.52

> <PUBCHEM_SHAPE_SELFOVERLAP>
1187.494

> <PUBCHEM_SHAPE_VOLUME>
286.2

> <PUBCHEM_COORDINATE_TYPE>
2
5
10

$$$$
