26742300
  -OEChem-12032416343D

 51 53  0     1  0  0  0  0  0999 V2000
   -0.1359   -2.2019    0.5635 S   0  0  0  0  0  0  0  0  0  0  0  0
    5.5823    0.7969    1.1394 S   0  0  0  0  0  0  0  0  0  0  0  0
    0.1966    2.8294    1.2278 O   0  0  0  0  0  0  0  0  0  0  0  0
   -2.6268   -1.4844    2.6699 O   0  0  0  0  0  0  0  0  0  0  0  0
    3.5160    0.1841   -1.0962 O   0  0  0  0  0  0  0  0  0  0  0  0
    2.4289   -4.2758   -1.4948 O   0  0  0  0  0  0  0  0  0  0  0  0
    2.7373   -2.7221    0.1349 O   0  0  0  0  0  0  0  0  0  0  0  0
   -3.2359   -0.7735    0.5433 N   0  0  0  0  0  0  0  0  0  0  0  0
   -1.3165    1.6902   -0.1408 N   0  0  0  0  0  0  0  0  0  0  0  0
    2.3697    2.0276   -0.2508 N   0  0  0  0  0  0  0  0  0  0  0  0
   -3.8343    1.6414    0.3191 C   0  0  1  0  0  0  0  0  0  0  0  0
   -2.9227    0.4260   -1.6143 C   0  0  2  0  0  0  0  0  0  0  0  0
   -3.9647    1.4578   -1.1880 C   0  0  0  0  0  0  0  0  0  0  0  0
   -4.0823    0.3095    1.0481 C   0  0  0  0  0  0  0  0  0  0  0  0
   -2.4490    2.2197    0.6306 C   0  0  0  0  0  0  0  0  0  0  0  0
   -3.2129   -0.9190   -0.9198 C   0  0  0  0  0  0  0  0  0  0  0  0
   -1.5200    0.8910   -1.2702 C   0  0  0  0  0  0  0  0  0  0  0  0
   -0.4766    0.5142   -2.0283 C   0  0  0  0  0  0  0  0  0  0  0  0
   -0.0303    2.1125    0.2521 C   0  0  0  0  0  0  0  0  0  0  0  0
   -2.5952   -1.6239    1.4445 C   0  0  0  0  0  0  0  0  0  0  0  0
    1.1074    1.6510   -0.6049 C   0  0  0  0  0  0  0  0  0  0  0  0
    0.8624    0.9026   -1.6856 C   0  0  0  0  0  0  0  0  0  0  0  0
   -1.8168   -2.7721    0.8535 C   0  0  0  0  0  0  0  0  0  0  0  0
    3.5017    1.2734   -0.5244 C   0  0  0  0  0  0  0  0  0  0  0  0
    0.5606   -3.7237   -0.1252 C   0  0  0  0  0  0  0  0  0  0  0  0
    4.7715    1.9210   -0.0228 C   0  0  0  0  0  0  0  0  0  0  0  0
    2.0072   -3.5029   -0.4621 C   0  0  0  0  0  0  0  0  0  0  0  0
    4.5783    1.1508    2.6013 C   0  0  0  0  0  0  0  0  0  0  0  0
   -4.5905    2.3552    0.6689 H   0  0  0  0  0  0  0  0  0  0  0  0
   -3.0091    0.2815   -2.6992 H   0  0  0  0  0  0  0  0  0  0  0  0
   -3.8060    2.4103   -1.7090 H   0  0  0  0  0  0  0  0  0  0  0  0
   -4.9736    1.1141   -1.4465 H   0  0  0  0  0  0  0  0  0  0  0  0
   -3.9447    0.4380    2.1270 H   0  0  0  0  0  0  0  0  0  0  0  0
   -5.1211   -0.0085    0.8951 H   0  0  0  0  0  0  0  0  0  0  0  0
   -2.4656    3.2991    0.4265 H   0  0  0  0  0  0  0  0  0  0  0  0
   -2.2216    2.1193    1.6994 H   0  0  0  0  0  0  0  0  0  0  0  0
   -4.2024   -1.2894   -1.2151 H   0  0  0  0  0  0  0  0  0  0  0  0
   -2.4853   -1.6552   -1.2615 H   0  0  0  0  0  0  0  0  0  0  0  0
   -0.6081   -0.1121   -2.9045 H   0  0  0  0  0  0  0  0  0  0  0  0
    1.6257    0.5771   -2.3823 H   0  0  0  0  0  0  0  0  0  0  0  0
   -2.2886   -3.1989   -0.0327 H   0  0  0  0  0  0  0  0  0  0  0  0
   -1.7916   -3.5718    1.6028 H   0  0  0  0  0  0  0  0  0  0  0  0
    2.4459    2.7780    0.4313 H   0  0  0  0  0  0  0  0  0  0  0  0
    0.0126   -3.9754   -1.0379 H   0  0  0  0  0  0  0  0  0  0  0  0
    0.4887   -4.5437    0.5942 H   0  0  0  0  0  0  0  0  0  0  0  0
    4.5970    2.8968    0.4391 H   0  0  0  0  0  0  0  0  0  0  0  0
    5.4281    2.0763   -0.8849 H   0  0  0  0  0  0  0  0  0  0  0  0
    4.9546    0.5645    3.4438 H   0  0  0  0  0  0  0  0  0  0  0  0
    3.5348    0.8745    2.4292 H   0  0  0  0  0  0  0  0  0  0  0  0
    4.6416    2.2104    2.8626 H   0  0  0  0  0  0  0  0  0  0  0  0
    3.3765   -4.1268   -1.7002 H   0  0  0  0  0  0  0  0  0  0  0  0
  1 23  1  0  0  0  0
  1 25  1  0  0  0  0
  2 26  1  0  0  0  0
  2 28  1  0  0  0  0
  3 19  2  0  0  0  0
  4 20  2  0  0  0  0
  5 24  2  0  0  0  0
  6 27  1  0  0  0  0
  6 51  1  0  0  0  0
  7 27  2  0  0  0  0
  8 14  1  0  0  0  0
  8 16  1  0  0  0  0
  8 20  1  0  0  0  0
  9 15  1  0  0  0  0
  9 17  1  0  0  0  0
  9 19  1  0  0  0  0
 10 21  1  0  0  0  0
 10 24  1  0  0  0  0
 10 43  1  0  0  0  0
 11 13  1  0  0  0  0
 11 14  1  0  0  0  0
 11 15  1  0  0  0  0
 11 29  1  0  0  0  0
 12 13  1  0  0  0  0
 12 16  1  0  0  0  0
 12 17  1  0  0  0  0
 12 30  1  0  0  0  0
 13 31  1  0  0  0  0
 13 32  1  0  0  0  0
 14 33  1  0  0  0  0
 14 34  1  0  0  0  0
 15 35  1  0  0  0  0
 15 36  1  0  0  0  0
 16 37  1  0  0  0  0
 16 38  1  0  0  0  0
 17 18  2  0  0  0  0
 18 22  1  0  0  0  0
 18 39  1  0  0  0  0
 19 21  1  0  0  0  0
 20 23  1  0  0  0  0
 21 22  2  0  0  0  0
 22 40  1  0  0  0  0
 23 41  1  0  0  0  0
 23 42  1  0  0  0  0
 24 26  1  0  0  0  0
 25 27  1  0  0  0  0
 25 44  1  0  0  0  0
 25 45  1  0  0  0  0
 26 46  1  0  0  0  0
 26 47  1  0  0  0  0
 28 48  1  0  0  0  0
 28 49  1  0  0  0  0
 28 50  1  0  0  0  0
M  END
> <PUBCHEM_COMPOUND_CID>
26742300

> <PUBCHEM_CONFORMER_RMSD>
1

> <PUBCHEM_CONFORMER_DIVERSEORDER>
1
17
25
12
22
18
9
20
11
16
23
24
7
4
5
15
21
14
13
2
19
10
8
6
3

> <PUBCHEM_MMFF94_PARTIAL_CHARGES>
30
1 -0.46
10 -0.54
12 0.14
14 0.3
15 0.3
16 0.3
17 -0.03
18 -0.15
19 0.62
2 -0.46
20 0.57
21 0.12
22 -0.15
23 0.29
24 0.57
25 0.29
26 0.29
27 0.66
28 0.23
3 -0.57
39 0.15
4 -0.57
40 0.15
43 0.37
5 -0.57
51 0.5
6 -0.65
7 -0.57
8 -0.66
9 -0.47

> <PUBCHEM_EFFECTIVE_ROTOR_COUNT>
10

> <PUBCHEM_PHARMACOPHORE_FEATURES>
11
1 10 donor
1 28 hydrophobe
1 3 acceptor
1 4 acceptor
1 5 acceptor
1 6 acceptor
1 7 acceptor
3 6 7 27 anion
6 8 11 12 13 14 16 rings
6 9 11 12 13 15 17 rings
6 9 17 18 19 21 22 rings

> <PUBCHEM_HEAVY_ATOM_COUNT>
28

> <PUBCHEM_ATOM_DEF_STEREO_COUNT>
2

> <PUBCHEM_ATOM_UDEF_STEREO_COUNT>
0

> <PUBCHEM_BOND_DEF_STEREO_COUNT>
0

> <PUBCHEM_BOND_UDEF_STEREO_COUNT>
0

> <PUBCHEM_ISOTOPIC_ATOM_COUNT>
0

> <PUBCHEM_COMPONENT_COUNT>
1

> <PUBCHEM_CACTVS_TAUTO_COUNT>
6

> <PUBCHEM_CONFORMER_ID>
01980E1C00000001

> <PUBCHEM_MMFF94_ENERGY>
68.2966

> <PUBCHEM_FEATURE_SELFOVERLAP>
57.442

> <PUBCHEM_SHAPE_FINGERPRINT>
1100329 8 17474680446603467889
11112241 14 18058998579671284232
11370993 70 18408886260752122740
12422481 6 18187354425116601786
12633257 1 18054520363110793912
12788726 201 17761205923229566758
13402501 40 18261959518734555038
14251757 5 17688058683114038180
144659 39 17822556275209175336
14904385 31 18341600565302806112
19930381 70 18338805507254311155
23419403 2 17609253115427774235
23559900 14 18410017602899656812
238918 7 18340491157648918966
3027735 51 18267578194993399919
4112364 45 17555203276012846313
5265222 85 18045805621486386412
6287921 2 18055619634695336666
9862522 239 18264202685405408506

> <PUBCHEM_SHAPE_MULTIPOLES>
539.64
9.02
4.44
1.98
8.59
5.55
-0.54
-3.89
-3.03
1.82
0.33
0.08
0.09
1.68

> <PUBCHEM_SHAPE_SELFOVERLAP>
1106.684

> <PUBCHEM_SHAPE_VOLUME>
312

> <PUBCHEM_COORDINATE_TYPE>
2
5
10

$$$$
