11912178
  -OEChem-12032416113D

 58 59  0     1  0  0  0  0  0999 V2000
   -4.5125    1.3706    0.2847 O   0  0  0  0  0  0  0  0  0  0  0  0
    2.3175    2.7158   -0.1757 O   0  0  0  0  0  0  0  0  0  0  0  0
    6.9825   -1.9114    0.5656 O   0  0  0  0  0  0  0  0  0  0  0  0
    0.7055    1.4186    0.8546 N   0  0  0  0  0  0  0  0  0  0  0  0
   -5.3824   -0.2691   -1.1063 N   0  0  0  0  0  0  0  0  0  0  0  0
    2.9642    0.7394    0.8524 N   0  0  0  0  0  0  0  0  0  0  0  0
   -7.3326   -1.3521    1.8624 N   0  0  0  0  0  0  0  0  0  0  0  0
   -1.9536    0.3607    0.4240 C   0  0  1  0  0  0  0  0  0  0  0  0
   -0.7863   -0.5615    0.8653 C   0  0  2  0  0  0  0  0  0  0  0  0
   -1.4462    1.6104   -0.3184 C   0  0  0  0  0  0  0  0  0  0  0  0
    0.2535    0.2625    1.6433 C   0  0  0  0  0  0  0  0  0  0  0  0
   -0.3692    2.3401    0.4834 C   0  0  0  0  0  0  0  0  0  0  0  0
   -0.1172   -1.3179   -0.2881 C   0  0  0  0  0  0  0  0  0  0  0  0
   -3.0119   -0.3662   -0.4053 C   0  0  0  0  0  0  0  0  0  0  0  0
    0.9465   -2.2663    0.2238 C   0  0  0  0  0  0  0  0  0  0  0  0
   -4.3594    0.3339   -0.3668 C   0  0  0  0  0  0  0  0  0  0  0  0
    2.0328    1.7039    0.4699 C   0  0  0  0  0  0  0  0  0  0  0  0
   -6.7331    0.2840   -1.1704 C   0  0  0  0  0  0  0  0  0  0  0  0
   -5.1775   -1.4946   -1.8688 C   0  0  0  0  0  0  0  0  0  0  0  0
    4.1679    0.3958    0.1883 C   0  0  0  0  0  0  0  0  0  0  0  0
   -7.7845   -0.6842   -0.6416 C   0  0  0  0  0  0  0  0  0  0  0  0
    4.9926   -0.6007    0.7105 C   0  0  0  0  0  0  0  0  0  0  0  0
    4.5281    1.0543   -0.9873 C   0  0  0  0  0  0  0  0  0  0  0  0
    6.1774   -0.9388    0.0567 C   0  0  0  0  0  0  0  0  0  0  0  0
   -7.5312   -1.0570    0.7579 C   0  0  0  0  0  0  0  0  0  0  0  0
    5.7130    0.7163   -1.6411 C   0  0  0  0  0  0  0  0  0  0  0  0
    6.5376   -0.2803   -1.1191 C   0  0  0  0  0  0  0  0  0  0  0  0
    8.1785   -2.2065   -0.1539 C   0  0  0  0  0  0  0  0  0  0  0  0
   -2.4220    0.7092    1.3563 H   0  0  0  0  0  0  0  0  0  0  0  0
   -1.2022   -1.3079    1.5566 H   0  0  0  0  0  0  0  0  0  0  0  0
   -1.0313    1.3213   -1.2922 H   0  0  0  0  0  0  0  0  0  0  0  0
   -2.2662    2.3074   -0.5217 H   0  0  0  0  0  0  0  0  0  0  0  0
    1.0645   -0.3616    2.0111 H   0  0  0  0  0  0  0  0  0  0  0  0
   -0.2168    0.6744    2.5463 H   0  0  0  0  0  0  0  0  0  0  0  0
    0.0150    3.1821   -0.1003 H   0  0  0  0  0  0  0  0  0  0  0  0
   -0.7897    2.7499    1.4094 H   0  0  0  0  0  0  0  0  0  0  0  0
    0.3258   -0.6332   -1.0194 H   0  0  0  0  0  0  0  0  0  0  0  0
   -0.8647   -1.9124   -0.8251 H   0  0  0  0  0  0  0  0  0  0  0  0
   -3.1596   -1.3782   -0.0096 H   0  0  0  0  0  0  0  0  0  0  0  0
   -2.6698   -0.4324   -1.4432 H   0  0  0  0  0  0  0  0  0  0  0  0
    1.8439   -1.7519    0.5695 H   0  0  0  0  0  0  0  0  0  0  0  0
    1.2639   -2.9320   -0.5866 H   0  0  0  0  0  0  0  0  0  0  0  0
    0.5685   -2.8958    1.0358 H   0  0  0  0  0  0  0  0  0  0  0  0
    2.7835    0.1988    1.6900 H   0  0  0  0  0  0  0  0  0  0  0  0
   -6.9424    0.5346   -2.2169 H   0  0  0  0  0  0  0  0  0  0  0  0
   -6.7708    1.2209   -0.6027 H   0  0  0  0  0  0  0  0  0  0  0  0
   -5.8098   -1.4844   -2.7623 H   0  0  0  0  0  0  0  0  0  0  0  0
   -5.4499   -2.3464   -1.2385 H   0  0  0  0  0  0  0  0  0  0  0  0
   -4.1483   -1.6257   -2.2019 H   0  0  0  0  0  0  0  0  0  0  0  0
   -7.8284   -1.5887   -1.2583 H   0  0  0  0  0  0  0  0  0  0  0  0
   -8.7705   -0.2109   -0.7164 H   0  0  0  0  0  0  0  0  0  0  0  0
    4.7177   -1.1189    1.6262 H   0  0  0  0  0  0  0  0  0  0  0  0
    3.9198    1.8154   -1.4589 H   0  0  0  0  0  0  0  0  0  0  0  0
    5.9902    1.2247   -2.5602 H   0  0  0  0  0  0  0  0  0  0  0  0
    7.4421   -0.4937   -1.6783 H   0  0  0  0  0  0  0  0  0  0  0  0
    7.9608   -2.5952   -1.1544 H   0  0  0  0  0  0  0  0  0  0  0  0
    8.8547   -1.3453   -0.1812 H   0  0  0  0  0  0  0  0  0  0  0  0
    8.6963   -3.0019    0.3921 H   0  0  0  0  0  0  0  0  0  0  0  0
  1 16  2  0  0  0  0
  2 17  2  0  0  0  0
  3 24  1  0  0  0  0
  3 28  1  0  0  0  0
  4 11  1  0  0  0  0
  4 12  1  0  0  0  0
  4 17  1  0  0  0  0
  5 16  1  0  0  0  0
  5 18  1  0  0  0  0
  5 19  1  0  0  0  0
  6 17  1  0  0  0  0
  6 20  1  0  0  0  0
  6 44  1  0  0  0  0
  7 25  3  0  0  0  0
  8  9  1  0  0  0  0
  8 10  1  0  0  0  0
  8 14  1  0  0  0  0
  8 29  1  0  0  0  0
  9 11  1  0  0  0  0
  9 13  1  0  0  0  0
  9 30  1  0  0  0  0
 10 12  1  0  0  0  0
 10 31  1  0  0  0  0
 10 32  1  0  0  0  0
 11 33  1  0  0  0  0
 11 34  1  0  0  0  0
 12 35  1  0  0  0  0
 12 36  1  0  0  0  0
 13 15  1  0  0  0  0
 13 37  1  0  0  0  0
 13 38  1  0  0  0  0
 14 16  1  0  0  0  0
 14 39  1  0  0  0  0
 14 40  1  0  0  0  0
 15 41  1  0  0  0  0
 15 42  1  0  0  0  0
 15 43  1  0  0  0  0
 18 21  1  0  0  0  0
 18 45  1  0  0  0  0
 18 46  1  0  0  0  0
 19 47  1  0  0  0  0
 19 48  1  0  0  0  0
 19 49  1  0  0  0  0
 20 22  2  0  0  0  0
 20 23  1  0  0  0  0
 21 25  1  0  0  0  0
 21 50  1  0  0  0  0
 21 51  1  0  0  0  0
 22 24  1  0  0  0  0
 22 52  1  0  0  0  0
 23 26  2  0  0  0  0
 23 53  1  0  0  0  0
 24 27  2  0  0  0  0
 26 27  1  0  0  0  0
 26 54  1  0  0  0  0
 27 55  1  0  0  0  0
 28 56  1  0  0  0  0
 28 57  1  0  0  0  0
 28 58  1  0  0  0  0
M  END
> <PUBCHEM_COMPOUND_CID>
11912178

> <PUBCHEM_CONFORMER_RMSD>
1.4

> <PUBCHEM_CONFORMER_DIVERSEORDER>
2
29
22
26
99
33
126
113
124
109
116
107
125
60
17
43
45
114
57
15
93
73
112
42
90
67
84
103
10
61
122
120
44
121
28
46
123
19
94
31
50
56
89
108
83
119
80
48
100
111
75
77
32
55
105
85
36
54
97
7
102
96
76
6
35
40
71
49
18
115
110
82
25
47
21
38
69
27
63
79
92
37
39
72
101
30
117
5
95
64
41
127
4
62
86
23
14
16
51
87
59
53
88
98
68
24
1
52
104
58
9
3
106
12
129
13
11
20
118
8
91
128
34
70
65
78
74
66
81

> <PUBCHEM_MMFF94_PARTIAL_CHARGES>
28
1 -0.57
11 0.3
12 0.3
14 0.06
16 0.57
17 0.69
18 0.3
19 0.3
2 -0.57
20 0.12
21 0.2
22 -0.15
23 -0.15
24 0.08
25 0.36
26 -0.15
27 -0.15
28 0.28
3 -0.36
4 -0.66
44 0.37
5 -0.66
52 0.15
53 0.15
54 0.15
55 0.15
6 -0.55
7 -0.56

> <PUBCHEM_EFFECTIVE_ROTOR_COUNT>
11.2

> <PUBCHEM_PHARMACOPHORE_FEATURES>
8
1 1 acceptor
1 15 hydrophobe
1 2 acceptor
1 3 acceptor
1 6 donor
1 7 acceptor
6 20 22 23 24 26 27 rings
6 4 8 9 10 11 12 rings

> <PUBCHEM_HEAVY_ATOM_COUNT>
28

> <PUBCHEM_ATOM_DEF_STEREO_COUNT>
2

> <PUBCHEM_ATOM_UDEF_STEREO_COUNT>
0

> <PUBCHEM_BOND_DEF_STEREO_COUNT>
0

> <PUBCHEM_BOND_UDEF_STEREO_COUNT>
0

> <PUBCHEM_ISOTOPIC_ATOM_COUNT>
0

> <PUBCHEM_COMPONENT_COUNT>
1

> <PUBCHEM_CACTVS_TAUTO_COUNT>
2

> <PUBCHEM_CONFORMER_ID>
00B5C3F200000002

> <PUBCHEM_MMFF94_ENERGY>
78.8116

> <PUBCHEM_FEATURE_SELFOVERLAP>
40.597

> <PUBCHEM_SHAPE_FINGERPRINT>
10670039 82 16733256850917672196
10753850 27 18131349700670006160
11273773 46 18260833678456244370
11578080 2 17098319914676479813
11991303 11 17676769885210110427
12838863 1 18338510830192048550
13533116 47 17846212310851989984
13673619 4 18131067134371273721
13685833 64 17989204862752717640
13862211 1 18343580729213522960
14068700 675 18202002110363892256
15183329 4 18342738524417531861
15188451 53 17346877836907936904
15461852 350 14345801561099470619
20028762 73 17989201543307611398
20105231 36 18259989297493715163
21150785 3 16153426173206044641
21267235 1 18411699894297217905
21781051 124 18186805806794158474
21792965 169 18188508903867531972
221357 26 17967810540204733884
22224240 67 10231752297009815444
23035841 295 17846778525222713719
23522609 53 18125752107984774416
23559900 14 18336541745724747352
23569943 247 18271803489214139363
3004659 81 18187643584090296552
34797466 226 15647049357040141261
4169191 19 8574714615784743351
4340502 62 13686301283402541772
444769 64 18273216400668641979
484989 97 18114189678203288819
59682541 52 16732983086340712898
59755656 215 18411697686557466271
6138700 20 18412260602040366214
6438161 24 18341606023583642524

> <PUBCHEM_SHAPE_MULTIPOLES>
538.69
23.34
2.24
1.39
6.99
0.29
0.11
-13.42
4.2
-1.94
-0.15
0.98
-0.19
-0.39

> <PUBCHEM_SHAPE_SELFOVERLAP>
1098.147

> <PUBCHEM_SHAPE_VOLUME>
307.9

> <PUBCHEM_COORDINATE_TYPE>
2
5
10

$$$$
