45783400
  -OEChem-12032416363D

 50 53  0     1  0  0  0  0  0999 V2000
    0.2014    2.8245    0.5756 O   0  0  0  0  0  0  0  0  0  0  0  0
    0.3845   -2.8571   -1.3719 O   0  0  0  0  0  0  0  0  0  0  0  0
    2.8131    0.6100   -0.2144 N   0  0  1  0  0  0  0  0  0  0  0  0
   -0.3028    0.9149   -0.4810 N   0  0  0  0  0  0  0  0  0  0  0  0
   -1.1540    2.5831    0.8330 N   0  0  0  0  0  0  0  0  0  0  0  0
   -1.6446   -1.3777   -0.0571 N   0  0  0  0  0  0  0  0  0  0  0  0
   -4.0033   -1.2063    0.0231 N   0  0  0  0  0  0  0  0  0  0  0  0
    3.5943   -0.6714    1.7060 C   0  0  0  0  0  0  0  0  0  0  0  0
    2.4429   -1.4766    2.2326 C   0  0  0  0  0  0  0  0  0  0  0  0
    3.4471   -0.8930    3.1829 C   0  0  0  0  0  0  0  0  0  0  0  0
    3.3375    0.6888    1.1430 C   0  0  0  0  0  0  0  0  0  0  0  0
    2.0795    1.8233   -0.6262 C   0  0  1  0  0  0  0  0  0  0  0  0
    3.8729    0.4120   -1.2033 C   0  0  0  0  0  0  0  0  0  0  0  0
    2.2540    1.8859   -2.1549 C   0  0  0  0  0  0  0  0  0  0  0  0
    3.1485    0.7043   -2.5018 C   0  0  0  0  0  0  0  0  0  0  0  0
    0.6253    1.7958   -0.2045 C   0  0  0  0  0  0  0  0  0  0  0  0
   -1.3766    1.4403    0.1769 C   0  0  0  0  0  0  0  0  0  0  0  0
   -2.6594    0.7989    0.1576 C   0  0  0  0  0  0  0  0  0  0  0  0
   -2.8085   -0.5740    0.0441 C   0  0  0  0  0  0  0  0  0  0  0  0
   -3.8105    1.5727    0.2561 C   0  0  0  0  0  0  0  0  0  0  0  0
   -5.0579    0.9585    0.2381 C   0  0  0  0  0  0  0  0  0  0  0  0
   -1.6985   -2.7976   -0.1773 C   0  0  0  0  0  0  0  0  0  0  0  0
   -5.0997   -0.4215    0.1209 C   0  0  0  0  0  0  0  0  0  0  0  0
   -0.2916   -3.3685   -0.2301 C   0  0  0  0  0  0  0  0  0  0  0  0
    1.7064   -3.3694   -1.4674 C   0  0  0  0  0  0  0  0  0  0  0  0
    4.3999   -1.1962    1.2071 H   0  0  0  0  0  0  0  0  0  0  0  0
    1.4510   -1.0416    2.2168 H   0  0  0  0  0  0  0  0  0  0  0  0
    2.4635   -2.5479    2.0746 H   0  0  0  0  0  0  0  0  0  0  0  0
    4.1410   -1.5729    3.6621 H   0  0  0  0  0  0  0  0  0  0  0  0
    3.1290   -0.0673    3.8074 H   0  0  0  0  0  0  0  0  0  0  0  0
    4.2512    1.2944    1.1942 H   0  0  0  0  0  0  0  0  0  0  0  0
    2.6077    1.1966    1.7879 H   0  0  0  0  0  0  0  0  0  0  0  0
    2.5553    2.7190   -0.2019 H   0  0  0  0  0  0  0  0  0  0  0  0
    4.7017    1.1186   -1.0689 H   0  0  0  0  0  0  0  0  0  0  0  0
    4.2694   -0.6079   -1.1924 H   0  0  0  0  0  0  0  0  0  0  0  0
    2.7592    2.8201   -2.4294 H   0  0  0  0  0  0  0  0  0  0  0  0
    1.3128    1.8385   -2.7132 H   0  0  0  0  0  0  0  0  0  0  0  0
    2.5330   -0.1542   -2.7981 H   0  0  0  0  0  0  0  0  0  0  0  0
    3.8341    0.9313   -3.3235 H   0  0  0  0  0  0  0  0  0  0  0  0
   -3.7688    2.6558    0.3400 H   0  0  0  0  0  0  0  0  0  0  0  0
   -0.7928   -0.9776    0.3226 H   0  0  0  0  0  0  0  0  0  0  0  0
   -5.9688    1.5414    0.3117 H   0  0  0  0  0  0  0  0  0  0  0  0
   -2.2322   -3.2377    0.6727 H   0  0  0  0  0  0  0  0  0  0  0  0
   -2.2304   -3.0680   -1.0972 H   0  0  0  0  0  0  0  0  0  0  0  0
   -6.0478   -0.9487    0.1017 H   0  0  0  0  0  0  0  0  0  0  0  0
    0.2632   -3.0994    0.6763 H   0  0  0  0  0  0  0  0  0  0  0  0
   -0.3447   -4.4613   -0.2967 H   0  0  0  0  0  0  0  0  0  0  0  0
    2.2965   -3.0736   -0.5949 H   0  0  0  0  0  0  0  0  0  0  0  0
    1.6907   -4.4595   -1.5612 H   0  0  0  0  0  0  0  0  0  0  0  0
    2.1743   -2.9486   -2.3615 H   0  0  0  0  0  0  0  0  0  0  0  0
  1  5  1  0  0  0  0
  1 16  1  0  0  0  0
  2 24  1  0  0  0  0
  2 25  1  0  0  0  0
  3 11  1  0  0  0  0
  3 12  1  0  0  0  0
  3 13  1  0  0  0  0
  4 16  2  0  0  0  0
  4 17  1  0  0  0  0
  5 17  2  0  0  0  0
  6 19  1  0  0  0  0
  6 22  1  0  0  0  0
  6 41  1  0  0  0  0
  7 19  1  0  0  0  0
  7 23  2  0  0  0  0
  8  9  1  0  0  0  0
  8 10  1  0  0  0  0
  8 11  1  0  0  0  0
  8 26  1  0  0  0  0
  9 10  1  0  0  0  0
  9 27  1  0  0  0  0
  9 28  1  0  0  0  0
 10 29  1  0  0  0  0
 10 30  1  0  0  0  0
 11 31  1  0  0  0  0
 11 32  1  0  0  0  0
 12 14  1  0  0  0  0
 12 16  1  0  0  0  0
 12 33  1  0  0  0  0
 13 15  1  0  0  0  0
 13 34  1  0  0  0  0
 13 35  1  0  0  0  0
 14 15  1  0  0  0  0
 14 36  1  0  0  0  0
 14 37  1  0  0  0  0
 15 38  1  0  0  0  0
 15 39  1  0  0  0  0
 17 18  1  0  0  0  0
 18 19  2  0  0  0  0
 18 20  1  0  0  0  0
 20 21  2  0  0  0  0
 20 40  1  0  0  0  0
 21 23  1  0  0  0  0
 21 42  1  0  0  0  0
 22 24  1  0  0  0  0
 22 43  1  0  0  0  0
 22 44  1  0  0  0  0
 23 45  1  0  0  0  0
 24 46  1  0  0  0  0
 24 47  1  0  0  0  0
 25 48  1  0  0  0  0
 25 49  1  0  0  0  0
 25 50  1  0  0  0  0
M  END
> <PUBCHEM_COMPOUND_CID>
45783400

> <PUBCHEM_CONFORMER_RMSD>
1

> <PUBCHEM_CONFORMER_DIVERSEORDER>
1
43
23
10
65
21
45
49
39
7
56
60
15
41
26
47
24
38
62
30
68
48
51
5
35
53
16
37
57
17
8
40
18
42
14
20
46
31
55
4
63
44
13
58
27
11
54
12
36
29
66
52
28
67
32
50
9
22
33
34
61
25
64
3
19
59
2
6

> <PUBCHEM_MMFF94_PARTIAL_CHARGES>
32
1 -0.02
10 -0.2
11 0.37
12 0.45
13 0.27
16 0.3
17 0.46
18 0.05
19 0.41
2 -0.56
20 -0.15
21 -0.15
22 0.37
23 0.16
24 0.28
25 0.28
26 0.1
27 0.1
28 0.1
29 0.1
3 -0.81
30 0.1
4 -0.57
40 0.15
41 0.4
42 0.15
45 0.15
5 -0.41
6 -0.87
7 -0.62
8 -0.19
9 -0.2

> <PUBCHEM_EFFECTIVE_ROTOR_COUNT>
9.6

> <PUBCHEM_PHARMACOPHORE_FEATURES>
9
1 2 acceptor
1 3 cation
1 6 cation
1 6 donor
1 7 acceptor
3 4 5 17 cation
5 1 4 5 16 17 rings
5 3 12 13 14 15 rings
6 7 18 19 20 21 23 rings

> <PUBCHEM_HEAVY_ATOM_COUNT>
25

> <PUBCHEM_ATOM_DEF_STEREO_COUNT>
1

> <PUBCHEM_ATOM_UDEF_STEREO_COUNT>
0

> <PUBCHEM_BOND_DEF_STEREO_COUNT>
0

> <PUBCHEM_BOND_UDEF_STEREO_COUNT>
0

> <PUBCHEM_ISOTOPIC_ATOM_COUNT>
0

> <PUBCHEM_COMPONENT_COUNT>
1

> <PUBCHEM_CACTVS_TAUTO_COUNT>
8

> <PUBCHEM_CONFORMER_ID>
02BA996800000001

> <PUBCHEM_MMFF94_ENERGY>
59.6559

> <PUBCHEM_FEATURE_SELFOVERLAP>
45.672

> <PUBCHEM_SHAPE_FINGERPRINT>
10366900 7 16128389202383099312
10759866 29 17895482534634952724
11578080 2 15696036057147779555
12422481 6 18120921824769986035
12553582 1 18412543223599401621
12592029 89 18411147935265327563
12788726 201 18343029877893597697
13583140 156 17168154489376260825
13726171 33 17978260409914910721
14022347 108 18342188790073653700
14178342 30 18127410042743638704
15403338 16 17314489454027138771
16752209 62 18412554201599224045
17093844 170 18343311344680631174
17349148 13 18412256234153519941
17818456 19 17826785945775424573
1813 80 17314215679852423352
18681886 176 18340214076339226612
19319366 153 17751643388565656522
20511986 3 18114729551561191604
20600515 1 18130498725546009304
20715895 44 17754720647161805845
20905425 154 17914069602492711885
21421861 104 18044671810175781665
23559900 14 18270126694883242901
3298306 158 18412549803979539671
445580 8 18409438176776584602
474144 1 18040713675589607154
484985 159 14571205576104048218
6287921 2 17984705511196370587
7064713 232 18270101436243755467

> <PUBCHEM_SHAPE_MULTIPOLES>
477.84
8.64
3.69
2.17
7.26
2.5
0.6
-0.87
1.74
-0.3
-1.15
-4.14
0.6
-1.71

> <PUBCHEM_SHAPE_SELFOVERLAP>
1007.172

> <PUBCHEM_SHAPE_VOLUME>
271.1

> <PUBCHEM_COORDINATE_TYPE>
2
5
10

$$$$
