45783993
  -OEChem-12032416353D

 75 78  0     1  0  0  0  0  0999 V2000
   -3.3381   -0.6367   -1.0537 O   0  0  0  0  0  0  0  0  0  0  0  0
    9.7796    0.9299   -0.3115 O   0  0  0  0  0  0  0  0  0  0  0  0
   -9.8593    1.7467    0.9631 O   0  5  0  0  0  0  0  0  0  0  0  0
   -9.5375   -0.2444    1.8297 O   0  0  0  0  0  0  0  0  0  0  0  0
    4.4003   -0.2785   -0.2408 N   0  0  0  0  0  0  0  0  0  0  0  0
    6.9556    1.0720   -0.1666 N   0  0  0  0  0  0  0  0  0  0  0  0
   -2.2127    0.7964   -2.3516 N   0  0  0  0  0  0  0  0  0  0  0  0
   -3.4315    1.3692   -2.0395 N   0  0  0  0  0  0  0  0  0  0  0  0
   -9.1493    0.7268    1.1366 N   0  3  0  0  0  0  0  0  0  0  0  0
    1.6330   -0.2925    0.7250 C   0  0  1  0  0  0  0  0  0  0  0  0
    2.4749   -1.5808    0.5730 C   0  0  2  0  0  0  0  0  0  0  0  0
    0.5686   -0.2122   -0.3784 C   0  0  0  0  0  0  0  0  0  0  0  0
   -0.3696   -1.4377   -0.4133 C   0  0  2  0  0  0  0  0  0  0  0  0
    0.9959   -0.2016    2.1183 C   0  0  0  0  0  0  0  0  0  0  0  0
    3.5456   -1.4324   -0.5129 C   0  0  0  0  0  0  0  0  0  0  0  0
    1.6299   -2.7927    0.2736 C   0  0  0  0  0  0  0  0  0  0  0  0
    0.3552   -2.7501   -0.1556 C   0  0  0  0  0  0  0  0  0  0  0  0
   -1.1354   -1.4301   -1.7422 C   0  0  0  0  0  0  0  0  0  0  0  0
    5.0516    0.1894   -1.4705 C   0  0  0  0  0  0  0  0  0  0  0  0
    5.4045   -0.6026    0.7799 C   0  0  0  0  0  0  0  0  0  0  0  0
    0.2188    1.1027    2.2638 C   0  0  0  0  0  0  0  0  0  0  0  0
    2.0645   -0.3182    3.2006 C   0  0  0  0  0  0  0  0  0  0  0  0
    5.9507    1.3975   -1.1859 C   0  0  0  0  0  0  0  0  0  0  0  0
    6.3045    0.6051    1.0636 C   0  0  0  0  0  0  0  0  0  0  0  0
   -0.4252   -4.0226   -0.3409 C   0  0  0  0  0  0  0  0  0  0  0  0
   -2.2019   -0.3728   -1.7550 C   0  0  0  0  0  0  0  0  0  0  0  0
    7.8120    2.2248    0.1049 C   0  0  0  0  0  0  0  0  0  0  0  0
    9.1596    1.7764    0.6476 C   0  0  0  0  0  0  0  0  0  0  0  0
   -4.0546    0.4980   -1.2810 C   0  0  0  0  0  0  0  0  0  0  0  0
   -5.3490    0.5563   -0.6662 C   0  0  0  0  0  0  0  0  0  0  0  0
   11.0577    0.4917    0.1286 C   0  0  0  0  0  0  0  0  0  0  0  0
   -6.1550    1.6810   -0.8429 C   0  0  0  0  0  0  0  0  0  0  0  0
   -5.8021   -0.5115    0.1086 C   0  0  0  0  0  0  0  0  0  0  0  0
   -7.4138    1.7379   -0.2449 C   0  0  0  0  0  0  0  0  0  0  0  0
   -7.0608   -0.4546    0.7068 C   0  0  0  0  0  0  0  0  0  0  0  0
   -7.8667    0.6701    0.5300 C   0  0  0  0  0  0  0  0  0  0  0  0
    2.2737    0.5917    0.6169 H   0  0  0  0  0  0  0  0  0  0  0  0
    3.0027   -1.8191    1.4972 H   0  0  0  0  0  0  0  0  0  0  0  0
   -0.0114    0.7137   -0.3108 H   0  0  0  0  0  0  0  0  0  0  0  0
    1.0922   -0.1326   -1.3412 H   0  0  0  0  0  0  0  0  0  0  0  0
   -1.0940   -1.3303    0.4069 H   0  0  0  0  0  0  0  0  0  0  0  0
    0.2880   -1.0230    2.2812 H   0  0  0  0  0  0  0  0  0  0  0  0
    3.0424   -1.3041   -1.4809 H   0  0  0  0  0  0  0  0  0  0  0  0
    4.1386   -2.3525   -0.6116 H   0  0  0  0  0  0  0  0  0  0  0  0
    2.1037   -3.7575    0.4428 H   0  0  0  0  0  0  0  0  0  0  0  0
   -0.4583   -1.2796   -2.5918 H   0  0  0  0  0  0  0  0  0  0  0  0
   -1.6477   -2.3810   -1.9241 H   0  0  0  0  0  0  0  0  0  0  0  0
    5.6437   -0.6142   -1.9293 H   0  0  0  0  0  0  0  0  0  0  0  0
    4.2925    0.4954   -2.2008 H   0  0  0  0  0  0  0  0  0  0  0  0
    4.9274   -0.8828    1.7246 H   0  0  0  0  0  0  0  0  0  0  0  0
    6.0249   -1.4528    0.4646 H   0  0  0  0  0  0  0  0  0  0  0  0
    0.8279    1.9700    1.9875 H   0  0  0  0  0  0  0  0  0  0  0  0
   -0.1056    1.2456    3.3009 H   0  0  0  0  0  0  0  0  0  0  0  0
   -0.6926    1.1087    1.6588 H   0  0  0  0  0  0  0  0  0  0  0  0
    2.9382    0.3045    2.9807 H   0  0  0  0  0  0  0  0  0  0  0  0
    2.3914   -1.3505    3.3551 H   0  0  0  0  0  0  0  0  0  0  0  0
    1.6686    0.0095    4.1691 H   0  0  0  0  0  0  0  0  0  0  0  0
    5.3360    2.2514   -0.8700 H   0  0  0  0  0  0  0  0  0  0  0  0
    6.4464    1.6793   -2.1229 H   0  0  0  0  0  0  0  0  0  0  0  0
    5.7063    1.4056    1.5203 H   0  0  0  0  0  0  0  0  0  0  0  0
    7.0519    0.2962    1.8026 H   0  0  0  0  0  0  0  0  0  0  0  0
   -0.5591   -4.2475   -1.4032 H   0  0  0  0  0  0  0  0  0  0  0  0
    0.0809   -4.8818    0.1130 H   0  0  0  0  0  0  0  0  0  0  0  0
   -1.4085   -3.9412    0.1339 H   0  0  0  0  0  0  0  0  0  0  0  0
    7.3362    2.9442    0.7825 H   0  0  0  0  0  0  0  0  0  0  0  0
    8.0127    2.7576   -0.8343 H   0  0  0  0  0  0  0  0  0  0  0  0
    9.0580    1.2509    1.6034 H   0  0  0  0  0  0  0  0  0  0  0  0
    9.7904    2.6584    0.8109 H   0  0  0  0  0  0  0  0  0  0  0  0
   11.7247    1.3456    0.2816 H   0  0  0  0  0  0  0  0  0  0  0  0
   10.9673   -0.0872    1.0528 H   0  0  0  0  0  0  0  0  0  0  0  0
   11.4862   -0.1512   -0.6450 H   0  0  0  0  0  0  0  0  0  0  0  0
   -5.8220    2.5247   -1.4428 H   0  0  0  0  0  0  0  0  0  0  0  0
   -5.2028   -1.4042    0.2692 H   0  0  0  0  0  0  0  0  0  0  0  0
   -8.0145    2.6297   -0.4046 H   0  0  0  0  0  0  0  0  0  0  0  0
   -7.3812   -1.3049    1.3034 H   0  0  0  0  0  0  0  0  0  0  0  0
  1 26  1  0  0  0  0
  1 29  1  0  0  0  0
  2 28  1  0  0  0  0
  2 31  1  0  0  0  0
  3  9  1  0  0  0  0
  4  9  2  0  0  0  0
  5 15  1  0  0  0  0
  5 19  1  0  0  0  0
  5 20  1  0  0  0  0
  6 23  1  0  0  0  0
  6 24  1  0  0  0  0
  6 27  1  0  0  0  0
  7  8  1  0  0  0  0
  7 26  2  0  0  0  0
  8 29  2  0  0  0  0
  9 36  1  0  0  0  0
 10 11  1  0  0  0  0
 10 12  1  0  0  0  0
 10 14  1  0  0  0  0
 10 37  1  0  0  0  0
 11 15  1  0  0  0  0
 11 16  1  0  0  0  0
 11 38  1  0  0  0  0
 12 13  1  0  0  0  0
 12 39  1  0  0  0  0
 12 40  1  0  0  0  0
 13 17  1  0  0  0  0
 13 18  1  0  0  0  0
 13 41  1  0  0  0  0
 14 21  1  0  0  0  0
 14 22  1  0  0  0  0
 14 42  1  0  0  0  0
 15 43  1  0  0  0  0
 15 44  1  0  0  0  0
 16 17  2  0  0  0  0
 16 45  1  0  0  0  0
 17 25  1  0  0  0  0
 18 26  1  0  0  0  0
 18 46  1  0  0  0  0
 18 47  1  0  0  0  0
 19 23  1  0  0  0  0
 19 48  1  0  0  0  0
 19 49  1  0  0  0  0
 20 24  1  0  0  0  0
 20 50  1  0  0  0  0
 20 51  1  0  0  0  0
 21 52  1  0  0  0  0
 21 53  1  0  0  0  0
 21 54  1  0  0  0  0
 22 55  1  0  0  0  0
 22 56  1  0  0  0  0
 22 57  1  0  0  0  0
 23 58  1  0  0  0  0
 23 59  1  0  0  0  0
 24 60  1  0  0  0  0
 24 61  1  0  0  0  0
 25 62  1  0  0  0  0
 25 63  1  0  0  0  0
 25 64  1  0  0  0  0
 27 28  1  0  0  0  0
 27 65  1  0  0  0  0
 27 66  1  0  0  0  0
 28 67  1  0  0  0  0
 28 68  1  0  0  0  0
 29 30  1  0  0  0  0
 30 32  2  0  0  0  0
 30 33  1  0  0  0  0
 31 69  1  0  0  0  0
 31 70  1  0  0  0  0
 31 71  1  0  0  0  0
 32 34  1  0  0  0  0
 32 72  1  0  0  0  0
 33 35  2  0  0  0  0
 33 73  1  0  0  0  0
 34 36  2  0  0  0  0
 34 74  1  0  0  0  0
 35 36  1  0  0  0  0
 35 75  1  0  0  0  0
M  CHG  2   3  -1   9   1
M  END
> <PUBCHEM_COMPOUND_CID>
45783993

> <PUBCHEM_CONFORMER_RMSD>
1.2

> <PUBCHEM_CONFORMER_DIVERSEORDER>
44
11
99
37
113
57
49
110
16
18
23
19
58
92
28
117
47
42
114
97
61
68
17
78
27
89
73
101
109
29
121
52
63
102
34
66
7
32
39
81
13
75
115
77
118
108
26
124
5
38
86
14
54
88
43
8
98
85
46
9
69
119
76
122
107
22
71
55
35
45
103
62
67
90
93
95
104
100
125
84
59
70
112
50
87
56
21
25
96
80
15
31
82
24
3
72
36
106
64
94
53
105
48
40
41
12
91
20
6
83
123
10
111
4
120
116
51
30
65
79
2
60
1
74
33

> <PUBCHEM_MMFF94_PARTIAL_CHARGES>
36
1 -0.28
11 0.14
13 0.14
15 0.27
16 -0.29
17 -0.28
18 0.18
19 0.27
2 -0.56
20 0.27
23 0.27
24 0.27
25 0.14
26 0.3
27 0.27
28 0.28
29 0.43
3 -0.52
30 0.05
31 0.28
32 -0.15
33 -0.15
34 -0.15
35 -0.15
36 0.13
4 -0.52
45 0.15
5 -0.81
6 -0.81
7 -0.34
72 0.15
73 0.15
74 0.15
75 0.15
8 -0.34
9 0.91

> <PUBCHEM_EFFECTIVE_ROTOR_COUNT>
12

> <PUBCHEM_PHARMACOPHORE_FEATURES>
11
1 2 acceptor
1 3 acceptor
1 3 anion
1 4 acceptor
1 5 cation
1 6 cation
3 14 21 22 hydrophobe
5 1 7 8 26 29 rings
6 10 11 12 13 16 17 rings
6 30 32 33 34 35 36 rings
6 5 6 19 20 23 24 rings

> <PUBCHEM_HEAVY_ATOM_COUNT>
36

> <PUBCHEM_ATOM_DEF_STEREO_COUNT>
3

> <PUBCHEM_ATOM_UDEF_STEREO_COUNT>
0

> <PUBCHEM_BOND_DEF_STEREO_COUNT>
0

> <PUBCHEM_BOND_UDEF_STEREO_COUNT>
0

> <PUBCHEM_ISOTOPIC_ATOM_COUNT>
0

> <PUBCHEM_COMPONENT_COUNT>
1

> <PUBCHEM_CACTVS_TAUTO_COUNT>
1

> <PUBCHEM_CONFORMER_ID>
02BA9BB90000002C

> <PUBCHEM_MMFF94_ENERGY>
80.4924

> <PUBCHEM_FEATURE_SELFOVERLAP>
55.905

> <PUBCHEM_SHAPE_FINGERPRINT>
10 15 18040150716877394126
10165383 225 18411698794379629087
10369192 42 18409442587760433951
10483366 6 15985106314612932806
10674148 151 16487253279302689120
10816530 90 17275094042587097216
11115154 58 15554732178696886210
11135609 201 18336256890550213463
11607047 403 14851877033263791048
11621639 179 16917063313829776849
11828532 37 12102975966021064975
12013929 112 14908185243798421205
12202916 173 8862943896160644761
12838863 1 11530484437102505969
13692114 37 15502381118810268810
13811026 1 9367345933919360326
14068700 675 11095888181136746814
15183329 4 13470689235355162911
15198563 99 13614255779908666442
15276724 80 16702024153937025808
15320295 40 11169911693210997959
15347590 135 17240762861272596421
15350500 16 8070029964818764300
15475509 8 15841555158511033403
16126227 98 18410291449391905718
19302320 297 17967816085498097844
2026 5 10665225960932736225
21304304 249 10809344429782779160
21781055 127 17989201509396454290
21987483 16 13118870863026609973
23559900 14 11887371634812423815
23576562 1 15553582137385630593
23729398 52 18122909720905075470
24771293 8 18408882953880565255
25269216 80 17059479868283669583
3178227 256 18259706709197217645
3633792 109 13614518584741407962
3986486 107 15985100816833397349
4017518 198 11887954362832333108
4340502 62 16298102056177343442
44426699 302 18342736270657811214
45266715 3 8502381052718121225
474113 269 9223239537504513176
54076057 127 18114460068265086066
54076057 255 17704068482441257371
57527295 17 17773860051972050310
5758199 1 18412544310590157007
59682541 35 17530685415736176141
6081469 158 11312058755584008236
9689198 14 18202005425782472671
9962374 69 11242258472230041770

> <PUBCHEM_SHAPE_MULTIPOLES>
692.48
31.93
2.57
2.06
4.33
2.25
-0.75
-25.48
-5.99
0.71
0.24
-1.04
-0.33
-0.16

> <PUBCHEM_SHAPE_SELFOVERLAP>
1448.328

> <PUBCHEM_SHAPE_VOLUME>
392.4

> <PUBCHEM_COORDINATE_TYPE>
2
5
10

$$$$
