45784106
  -OEChem-12032416223D

 64 67  0     1  0  0  0  0  0999 V2000
    2.6855    0.2313    0.7756 O   0  0  0  0  0  0  0  0  0  0  0  0
   -6.7774    2.7917    0.7922 O   0  0  0  0  0  0  0  0  0  0  0  0
   -2.6270   -0.6939   -0.0702 N   0  0  0  0  0  0  0  0  0  0  0  0
    3.8649   -1.3970    1.7565 N   0  0  0  0  0  0  0  0  0  0  0  0
    4.7525   -0.4338    1.3143 N   0  0  0  0  0  0  0  0  0  0  0  0
   -5.7683    1.1631   -0.5175 N   0  0  0  0  0  0  0  0  0  0  0  0
    3.9293    2.8743    0.0959 N   0  0  0  0  0  0  0  0  0  0  0  0
    5.9049    3.1714   -0.8739 N   0  0  0  0  0  0  0  0  0  0  0  0
   -0.0248   -1.5093   -1.2728 C   0  0  1  0  0  0  0  0  0  0  0  0
   -1.2882   -2.3987   -1.1604 C   0  0  1  0  0  0  0  0  0  0  0  0
    1.2165   -2.2781   -0.7949 C   0  0  0  0  0  0  0  0  0  0  0  0
    1.0819   -2.7527    0.6643 C   0  0  2  0  0  0  0  0  0  0  0  0
    0.1937   -1.0099   -2.7044 C   0  0  0  0  0  0  0  0  0  0  0  0
   -0.2603   -3.4072    0.9221 C   0  0  0  0  0  0  0  0  0  0  0  0
   -1.3037   -3.2484    0.0886 C   0  0  0  0  0  0  0  0  0  0  0  0
   -2.5662   -1.5542   -1.2194 C   0  0  0  0  0  0  0  0  0  0  0  0
    1.3279   -1.6005    1.6447 C   0  0  0  0  0  0  0  0  0  0  0  0
    0.8769   -2.0844   -3.5442 C   0  0  0  0  0  0  0  0  0  0  0  0
    1.0141    0.2762   -2.7000 C   0  0  0  0  0  0  0  0  0  0  0  0
   -0.3626   -4.2863    2.1373 C   0  0  0  0  0  0  0  0  0  0  0  0
    2.6711   -0.9670    1.4209 C   0  0  0  0  0  0  0  0  0  0  0  0
   -3.6625    0.1993    0.1766 C   0  0  0  0  0  0  0  0  0  0  0  0
    4.0202    0.4970    0.7483 C   0  0  0  0  0  0  0  0  0  0  0  0
   -3.6593    1.0043    1.3104 C   0  0  0  0  0  0  0  0  0  0  0  0
   -4.7304    0.3157   -0.6984 C   0  0  0  0  0  0  0  0  0  0  0  0
    4.5649    1.6666    0.1638 C   0  0  0  0  0  0  0  0  0  0  0  0
   -4.7095    1.8885    1.5314 C   0  0  0  0  0  0  0  0  0  0  0  0
   -5.7306    1.9295    0.5956 C   0  0  0  0  0  0  0  0  0  0  0  0
    5.7820    1.8748   -0.4409 C   0  0  0  0  0  0  0  0  0  0  0  0
    4.7724    3.7463   -0.5351 C   0  0  0  0  0  0  0  0  0  0  0  0
    2.6113    3.1977    0.5916 C   0  0  0  0  0  0  0  0  0  0  0  0
   -7.7989    2.7941   -0.1980 C   0  0  0  0  0  0  0  0  0  0  0  0
   -0.1417   -0.6327   -0.6244 H   0  0  0  0  0  0  0  0  0  0  0  0
   -1.3200   -3.0977   -2.0057 H   0  0  0  0  0  0  0  0  0  0  0  0
    2.1355   -1.7066   -0.9498 H   0  0  0  0  0  0  0  0  0  0  0  0
    1.3381   -3.1973   -1.3845 H   0  0  0  0  0  0  0  0  0  0  0  0
    1.8644   -3.5098    0.8180 H   0  0  0  0  0  0  0  0  0  0  0  0
   -0.7637   -0.7698   -3.1774 H   0  0  0  0  0  0  0  0  0  0  0  0
   -2.2299   -3.7799    0.2989 H   0  0  0  0  0  0  0  0  0  0  0  0
   -3.4367   -2.2236   -1.2317 H   0  0  0  0  0  0  0  0  0  0  0  0
   -2.6002   -0.9677   -2.1428 H   0  0  0  0  0  0  0  0  0  0  0  0
    0.5441   -0.8371    1.5709 H   0  0  0  0  0  0  0  0  0  0  0  0
    1.3053   -1.9668    2.6782 H   0  0  0  0  0  0  0  0  0  0  0  0
    1.9343   -2.2197   -3.2940 H   0  0  0  0  0  0  0  0  0  0  0  0
    0.8573   -1.7826   -4.5988 H   0  0  0  0  0  0  0  0  0  0  0  0
    0.3666   -3.0507   -3.4908 H   0  0  0  0  0  0  0  0  0  0  0  0
    2.0141    0.1310   -2.2798 H   0  0  0  0  0  0  0  0  0  0  0  0
    0.5134    1.0588   -2.1198 H   0  0  0  0  0  0  0  0  0  0  0  0
    1.1388    0.6536   -3.7209 H   0  0  0  0  0  0  0  0  0  0  0  0
    0.4074   -5.0641    2.1095 H   0  0  0  0  0  0  0  0  0  0  0  0
   -1.3341   -4.7879    2.2025 H   0  0  0  0  0  0  0  0  0  0  0  0
   -0.2337   -3.7001    3.0519 H   0  0  0  0  0  0  0  0  0  0  0  0
   -1.9004   -0.7465    0.6355 H   0  0  0  0  0  0  0  0  0  0  0  0
   -2.8452    0.9519    2.0285 H   0  0  0  0  0  0  0  0  0  0  0  0
   -4.8130   -0.2739   -1.6054 H   0  0  0  0  0  0  0  0  0  0  0  0
   -4.7221    2.5229    2.4109 H   0  0  0  0  0  0  0  0  0  0  0  0
    6.5801    1.1611   -0.5901 H   0  0  0  0  0  0  0  0  0  0  0  0
    4.5122    4.7796   -0.7207 H   0  0  0  0  0  0  0  0  0  0  0  0
    2.4555    4.2779    0.5260 H   0  0  0  0  0  0  0  0  0  0  0  0
    2.5389    2.8849    1.6362 H   0  0  0  0  0  0  0  0  0  0  0  0
    1.8724    2.6818   -0.0266 H   0  0  0  0  0  0  0  0  0  0  0  0
   -7.4008    3.0965   -1.1725 H   0  0  0  0  0  0  0  0  0  0  0  0
   -8.2862    1.8154   -0.2621 H   0  0  0  0  0  0  0  0  0  0  0  0
   -8.5542    3.5275    0.0995 H   0  0  0  0  0  0  0  0  0  0  0  0
  1 21  1  0  0  0  0
  1 23  1  0  0  0  0
  2 28  1  0  0  0  0
  2 32  1  0  0  0  0
  3 16  1  0  0  0  0
  3 22  1  0  0  0  0
  3 53  1  0  0  0  0
  4  5  1  0  0  0  0
  4 21  2  0  0  0  0
  5 23  2  0  0  0  0
  6 25  1  0  0  0  0
  6 28  2  0  0  0  0
  7 26  1  0  0  0  0
  7 30  1  0  0  0  0
  7 31  1  0  0  0  0
  8 29  1  0  0  0  0
  8 30  2  0  0  0  0
  9 10  1  0  0  0  0
  9 11  1  0  0  0  0
  9 13  1  0  0  0  0
  9 33  1  0  0  0  0
 10 15  1  0  0  0  0
 10 16  1  0  0  0  0
 10 34  1  0  0  0  0
 11 12  1  0  0  0  0
 11 35  1  0  0  0  0
 11 36  1  0  0  0  0
 12 14  1  0  0  0  0
 12 17  1  0  0  0  0
 12 37  1  0  0  0  0
 13 18  1  0  0  0  0
 13 19  1  0  0  0  0
 13 38  1  0  0  0  0
 14 15  2  0  0  0  0
 14 20  1  0  0  0  0
 15 39  1  0  0  0  0
 16 40  1  0  0  0  0
 16 41  1  0  0  0  0
 17 21  1  0  0  0  0
 17 42  1  0  0  0  0
 17 43  1  0  0  0  0
 18 44  1  0  0  0  0
 18 45  1  0  0  0  0
 18 46  1  0  0  0  0
 19 47  1  0  0  0  0
 19 48  1  0  0  0  0
 19 49  1  0  0  0  0
 20 50  1  0  0  0  0
 20 51  1  0  0  0  0
 20 52  1  0  0  0  0
 22 24  1  0  0  0  0
 22 25  2  0  0  0  0
 23 26  1  0  0  0  0
 24 27  2  0  0  0  0
 24 54  1  0  0  0  0
 25 55  1  0  0  0  0
 26 29  2  0  0  0  0
 27 28  1  0  0  0  0
 27 56  1  0  0  0  0
 29 57  1  0  0  0  0
 30 58  1  0  0  0  0
 31 59  1  0  0  0  0
 31 60  1  0  0  0  0
 31 61  1  0  0  0  0
 32 62  1  0  0  0  0
 32 63  1  0  0  0  0
 32 64  1  0  0  0  0
M  END
> <PUBCHEM_COMPOUND_CID>
45784106

> <PUBCHEM_CONFORMER_RMSD>
1.2

> <PUBCHEM_CONFORMER_DIVERSEORDER>
1
7
85
56
74
137
97
64
126
63
95
110
52
15
165
161
23
45
49
144
173
80
170
130
118
65
156
171
27
60
99
53
142
154
26
158
113
149
84
108
18
152
96
61
28
31
35
70
59
94
151
46
148
153
125
10
128
145
146
155
79
76
166
86
157
78
3
115
122
103
22
127
16
93
66
132
105
169
89
44
174
67
21
111
143
102
163
135
140
17
69
37
47
116
51
175
40
129
133
50
83
114
55
120
42
107
92
57
25
91
117
104
172
39
90
139
134
87
109
54
82
167
68
77
75
41
9
124
164
162
30
81
123
38
88
43
11
147
71
141
150
12
14
112
73
34
20
160
119
48
24
136
19
138
6
32
33
98
121
72
131
13
100
106
5
2
8
62
168
36
101
4
159
58
29

> <PUBCHEM_MMFF94_PARTIAL_CHARGES>
34
1 -0.28
10 0.14
12 0.14
14 -0.28
15 -0.29
16 0.37
17 0.18
2 -0.36
20 0.14
21 0.3
22 0.1
23 0.48
24 -0.15
25 0.16
26 -0.15
27 -0.15
28 0.39
29 0.08
3 -0.87
30 0.04
31 0.26
32 0.28
39 0.15
4 -0.34
5 -0.34
53 0.4
54 0.15
55 0.15
56 0.15
57 0.15
58 0.15
6 -0.62
7 0.05
8 -0.57

> <PUBCHEM_EFFECTIVE_ROTOR_COUNT>
8.8

> <PUBCHEM_PHARMACOPHORE_FEATURES>
8
1 3 cation
1 3 donor
3 13 18 19 hydrophobe
3 7 8 30 cation
5 1 4 5 21 23 rings
5 7 8 26 29 30 rings
6 6 22 24 25 27 28 rings
6 9 10 11 12 14 15 rings

> <PUBCHEM_HEAVY_ATOM_COUNT>
32

> <PUBCHEM_ATOM_DEF_STEREO_COUNT>
3

> <PUBCHEM_ATOM_UDEF_STEREO_COUNT>
0

> <PUBCHEM_BOND_DEF_STEREO_COUNT>
0

> <PUBCHEM_BOND_UDEF_STEREO_COUNT>
0

> <PUBCHEM_ISOTOPIC_ATOM_COUNT>
0

> <PUBCHEM_COMPONENT_COUNT>
1

> <PUBCHEM_CACTVS_TAUTO_COUNT>
1

> <PUBCHEM_CONFORMER_ID>
02BA9C2A00000001

> <PUBCHEM_MMFF94_ENERGY>
74.1121

> <PUBCHEM_FEATURE_SELFOVERLAP>
40.597

> <PUBCHEM_SHAPE_FINGERPRINT>
10674148 151 18340210782848429508
10985338 15 17842874146695908883
11273773 38 18411417306333777265
11505856 67 18195236944061554335
11578080 2 17271764768433862431
1200032 147 17559979661549349035
12104220 4 18116166613169453764
12422481 6 16805315604649166518
12633257 1 18188469342692107898
12788726 201 18052528069833195683
14028597 1 15437393624904789750
14251764 75 18408040736337146281
14705955 166 17828773077119459866
14840074 17 17894910762740032700
14849402 71 18264205799146285994
15163728 17 17918002693003627511
15198563 99 17554599978672656359
15238133 3 18271514386706885354
16120349 67 18339938120379367864
21223535 225 18055352702995309724
21716022 299 14691176708287916367
21796203 349 16952783105548245722
23559900 14 16125552261147793647
27425 322 18409730647196730919
2838139 119 17774707740638755499
3472631 163 18342455916102185463
38570 142 18336555983952173070
4112364 45 18261112937936373925
44802255 64 17129868472743440276
469060 322 15359926326663712866
7288768 16 17968656141470381195
7970288 3 9367338233006361057
9849439 229 18335991913043864765

> <PUBCHEM_SHAPE_MULTIPOLES>
616.92
14.72
5.34
2.41
15.66
0.15
-1.8
-23.89
2.52
-1.45
1.19
-0.85
2.01
-1.88

> <PUBCHEM_SHAPE_SELFOVERLAP>
1313.204

> <PUBCHEM_SHAPE_VOLUME>
345.5

> <PUBCHEM_COORDINATE_TYPE>
2
5
10

$$$$
