51137049
  -OEChem-12032416203D

 47 51  0     1  0  0  0  0  0999 V2000
    3.8491   -1.4074    0.6219 O   0  0  0  0  0  0  0  0  0  0  0  0
   -0.7209   -0.5457   -0.2046 N   0  0  1  0  0  0  0  0  0  0  0  0
    3.3530    0.6943   -0.0662 N   0  0  0  0  0  0  0  0  0  0  0  0
   -4.9874   -1.6343   -0.5044 N   0  0  0  0  0  0  0  0  0  0  0  0
    1.4669   -0.8964    0.5634 C   0  0  1  0  0  0  0  0  0  0  0  0
    0.6886   -0.0578    1.5921 C   0  0  0  0  0  0  0  0  0  0  0  0
    0.6230   -0.8228   -0.7162 C   0  0  0  0  0  0  0  0  0  0  0  0
   -0.5273    0.4632    0.8368 C   0  0  0  0  0  0  0  0  0  0  0  0
   -1.6308   -0.0973   -1.2483 C   0  0  0  0  0  0  0  0  0  0  0  0
    2.9004   -0.4683    0.3493 C   0  0  0  0  0  0  0  0  0  0  0  0
   -3.0583   -0.2256   -0.8539 C   0  0  0  0  0  0  0  0  0  0  0  0
    4.7157    0.5194   -0.0723 C   0  0  0  0  0  0  0  0  0  0  0  0
    5.0232   -0.7661    0.3484 C   0  0  0  0  0  0  0  0  0  0  0  0
   -3.8021    0.8826   -0.4748 C   0  0  0  0  0  0  0  0  0  0  0  0
   -3.6930   -1.4511   -0.8515 C   0  0  0  0  0  0  0  0  0  0  0  0
   -5.1467    0.7371   -0.1074 C   0  0  0  0  0  0  0  0  0  0  0  0
    5.7613    1.3880   -0.4168 C   0  0  0  0  0  0  0  0  0  0  0  0
    6.3108   -1.2760    0.4593 C   0  0  0  0  0  0  0  0  0  0  0  0
   -5.7067   -0.5571   -0.1370 C   0  0  0  0  0  0  0  0  0  0  0  0
    7.0755    0.9089   -0.3176 C   0  0  0  0  0  0  0  0  0  0  0  0
    7.3422   -0.3969    0.1119 C   0  0  0  0  0  0  0  0  0  0  0  0
   -5.9268    1.8393    0.2815 C   0  0  0  0  0  0  0  0  0  0  0  0
   -7.0425   -0.7009    0.2279 C   0  0  0  0  0  0  0  0  0  0  0  0
    8.2111    1.8101   -0.6773 C   0  0  0  0  0  0  0  0  0  0  0  0
   -7.2601    1.6665    0.6415 C   0  0  0  0  0  0  0  0  0  0  0  0
   -7.8183    0.3945    0.6143 C   0  0  0  0  0  0  0  0  0  0  0  0
    1.4712   -1.9365    0.9196 H   0  0  0  0  0  0  0  0  0  0  0  0
    0.3695   -0.7028    2.4204 H   0  0  0  0  0  0  0  0  0  0  0  0
    1.2757    0.7631    2.0172 H   0  0  0  0  0  0  0  0  0  0  0  0
    0.6599   -1.7668   -1.2709 H   0  0  0  0  0  0  0  0  0  0  0  0
    0.9727   -0.0204   -1.3796 H   0  0  0  0  0  0  0  0  0  0  0  0
   -1.3924    0.5548    1.5010 H   0  0  0  0  0  0  0  0  0  0  0  0
   -0.3023    1.4512    0.4146 H   0  0  0  0  0  0  0  0  0  0  0  0
   -1.4025    0.9258   -1.5775 H   0  0  0  0  0  0  0  0  0  0  0  0
   -1.4927   -0.7172   -2.1460 H   0  0  0  0  0  0  0  0  0  0  0  0
   -3.3379    1.8668   -0.4620 H   0  0  0  0  0  0  0  0  0  0  0  0
   -3.1709   -2.3594   -1.1367 H   0  0  0  0  0  0  0  0  0  0  0  0
    5.5522    2.3992   -0.7512 H   0  0  0  0  0  0  0  0  0  0  0  0
    6.5062   -2.2877    0.7921 H   0  0  0  0  0  0  0  0  0  0  0  0
    8.3698   -0.7484    0.1796 H   0  0  0  0  0  0  0  0  0  0  0  0
   -5.4996    2.8394    0.3061 H   0  0  0  0  0  0  0  0  0  0  0  0
   -7.5034   -1.6870    0.2152 H   0  0  0  0  0  0  0  0  0  0  0  0
    9.0873    1.6072   -0.0522 H   0  0  0  0  0  0  0  0  0  0  0  0
    7.9468    2.8622   -0.5257 H   0  0  0  0  0  0  0  0  0  0  0  0
    8.4858    1.6664   -1.7270 H   0  0  0  0  0  0  0  0  0  0  0  0
   -7.8598    2.5204    0.9414 H   0  0  0  0  0  0  0  0  0  0  0  0
   -8.8580    0.2504    0.8936 H   0  0  0  0  0  0  0  0  0  0  0  0
  1 10  1  0  0  0  0
  1 13  1  0  0  0  0
  2  7  1  0  0  0  0
  2  8  1  0  0  0  0
  2  9  1  0  0  0  0
  3 10  2  0  0  0  0
  3 12  1  0  0  0  0
  4 15  2  0  0  0  0
  4 19  1  0  0  0  0
  5  6  1  0  0  0  0
  5  7  1  0  0  0  0
  5 10  1  0  0  0  0
  5 27  1  0  0  0  0
  6  8  1  0  0  0  0
  6 28  1  0  0  0  0
  6 29  1  0  0  0  0
  7 30  1  0  0  0  0
  7 31  1  0  0  0  0
  8 32  1  0  0  0  0
  8 33  1  0  0  0  0
  9 11  1  0  0  0  0
  9 34  1  0  0  0  0
  9 35  1  0  0  0  0
 11 14  2  0  0  0  0
 11 15  1  0  0  0  0
 12 13  2  0  0  0  0
 12 17  1  0  0  0  0
 13 18  1  0  0  0  0
 14 16  1  0  0  0  0
 14 36  1  0  0  0  0
 15 37  1  0  0  0  0
 16 19  1  0  0  0  0
 16 22  2  0  0  0  0
 17 20  2  0  0  0  0
 17 38  1  0  0  0  0
 18 21  2  0  0  0  0
 18 39  1  0  0  0  0
 19 23  2  0  0  0  0
 20 21  1  0  0  0  0
 20 24  1  0  0  0  0
 21 40  1  0  0  0  0
 22 25  1  0  0  0  0
 22 41  1  0  0  0  0
 23 26  1  0  0  0  0
 23 42  1  0  0  0  0
 24 43  1  0  0  0  0
 24 44  1  0  0  0  0
 24 45  1  0  0  0  0
 25 26  2  0  0  0  0
 25 46  1  0  0  0  0
 26 47  1  0  0  0  0
M  END
> <PUBCHEM_COMPOUND_CID>
51137049

> <PUBCHEM_CONFORMER_RMSD>
0.8

> <PUBCHEM_CONFORMER_DIVERSEORDER>
1
66
3
27
71
88
62
19
65
42
31
40
46
68
58
85
56
49
4
26
67
8
81
20
53
69
24
47
73
14
48
74
51
59
78
79
89
38
35
29
18
2
25
52
70
34
55
9
80
39
41
61
86
16
54
33
7
23
10
6
28
64
32
50
87
77
72
45
5
21
17
44
75
11
30
84
82
12
37
36
15
57
60
22
13
63
43
83
76

> <PUBCHEM_MMFF94_PARTIAL_CHARGES>
33
1 -0.28
10 0.3
11 -0.14
12 0.23
13 0.14
14 -0.15
15 0.16
17 -0.15
18 -0.15
19 0.31
2 -0.81
20 -0.14
21 -0.15
22 -0.15
23 -0.15
24 0.14
25 -0.15
26 -0.15
3 -0.57
36 0.15
37 0.15
38 0.15
39 0.15
4 -0.62
40 0.15
41 0.15
42 0.15
46 0.15
47 0.15
5 0.18
7 0.27
8 0.27
9 0.41

> <PUBCHEM_EFFECTIVE_ROTOR_COUNT>
4

> <PUBCHEM_PHARMACOPHORE_FEATURES>
7
1 2 cation
1 4 acceptor
5 1 3 10 12 13 rings
5 2 5 6 7 8 rings
6 12 13 17 18 20 21 rings
6 16 19 22 23 25 26 rings
6 4 11 14 15 16 19 rings

> <PUBCHEM_HEAVY_ATOM_COUNT>
26

> <PUBCHEM_ATOM_DEF_STEREO_COUNT>
1

> <PUBCHEM_ATOM_UDEF_STEREO_COUNT>
0

> <PUBCHEM_BOND_DEF_STEREO_COUNT>
0

> <PUBCHEM_BOND_UDEF_STEREO_COUNT>
0

> <PUBCHEM_ISOTOPIC_ATOM_COUNT>
0

> <PUBCHEM_COMPONENT_COUNT>
1

> <PUBCHEM_CACTVS_TAUTO_COUNT>
1

> <PUBCHEM_CONFORMER_ID>
030C4A1900000001

> <PUBCHEM_MMFF94_ENERGY>
62.2373

> <PUBCHEM_FEATURE_SELFOVERLAP>
35.673

> <PUBCHEM_SHAPE_FINGERPRINT>
10 15 18411422804629692475
10066227 112 17417806270710679505
10299344 5 18410572890040558539
10595046 47 18335698321611120458
106641 1 16805326612708400269
10670039 82 15625950807272266811
11315181 36 18334857226156121765
11524674 6 16343698855231954927
11638347 137 15357689778795509960
11646440 116 16298387955091526260
11719270 70 17560800996735966894
12236239 1 18411979161449657302
12516196 113 9511461121889818510
12730499 353 17240479179183615650
13073987 5 15792000130713309556
13533116 47 16878214261391069954
14251752 14 17988641887060855416
14251764 18 18412824694323050677
14251764 46 15719393927923716819
14428016 248 18041006167611333956
14849402 71 18114749342580919412
14856354 85 18272370906233599079
14933364 13 18411418410118636340
15183329 4 13038907715865030429
15461852 350 17703500061633223349
15690457 1 8286200531077927136
15716309 27 18259983764895030571
1577012 14 18413102875244611230
16989713 51 16987425598935888511
16994733 274 18261107461368048104
18006028 8 12823297901095787010
20157964 124 18186238429768210258
20735858 18 14634869747198325320
21521721 280 18040154028645326314
21792961 116 17203334377434924286
21795232 338 18266182910611674643
22224240 67 16660364783288129243
23035841 295 18410853257195242827
23081809 10 18342726425516128374
23516275 137 18269573653642180019
23536379 177 18410853252821108698
23569943 247 16952801753689862626
23576562 1 16987417889100397173
2747138 104 16370733607990478829
28498 318 12391518572555829440
3009799 131 15482667974661915555
3092352 35 18410292523477042894
3178227 256 15357700785989561084
335352 9 17918269858130287901
3663271 9 18261109656269922323
3711267 37 18341907297922933432
397830 11 15430899745969484004
4073 2 18187087281945189098
4098825 35 18410010996706978058
4325135 7 18261110781382399141
445580 37 17703797998159516441
5265222 85 18058728151451036446
5283156 175 17775568611990388718
5758199 1 18040154024060234482
59682541 35 16443351995992732305
59755656 215 15051738568578658660
59755656 520 18040150730137316915
6328613 192 18342457041315344097
9953998 17 17603591820778384129

> <PUBCHEM_SHAPE_MULTIPOLES>
514.26
26.2
1.61
1
5.65
0.29
0.06
8.1
0.5
-0.05
-0.07
-0.19
-0.04
-1.71

> <PUBCHEM_SHAPE_SELFOVERLAP>
1148.076

> <PUBCHEM_SHAPE_VOLUME>
275.5

> <PUBCHEM_COORDINATE_TYPE>
2
5
10

$$$$
