75536645
  -OEChem-12032416313D

 45 47  0     1  0  0  0  0  0999 V2000
    8.3342   -1.6988   -0.6518 F   0  0  0  0  0  0  0  0  0  0  0  0
    0.0926   -0.8414    0.1253 O   0  0  0  0  0  0  0  0  0  0  0  0
   -1.2366    2.4960    0.1272 O   0  0  0  0  0  0  0  0  0  0  0  0
    3.3880    2.1743   -0.1032 O   0  0  0  0  0  0  0  0  0  0  0  0
   -3.3903    0.2075    0.1116 N   0  0  0  0  0  0  0  0  0  0  0  0
    2.5555    0.3322    1.0355 N   0  0  0  0  0  0  0  0  0  0  0  0
   -7.9056    0.4533   -0.7156 N   0  0  0  0  0  0  0  0  0  0  0  0
   -1.9940    0.2135   -0.2931 C   0  0  1  0  0  0  0  0  0  0  0  0
   -1.1250    1.1452    0.5312 C   0  0  1  0  0  0  0  0  0  0  0  0
    0.2607    0.5807    0.2483 C   0  0  1  0  0  0  0  0  0  0  0  0
   -1.3056   -1.1219   -0.0631 C   0  0  0  0  0  0  0  0  0  0  0  0
    1.2682    0.8858    1.3425 C   0  0  0  0  0  0  0  0  0  0  0  0
   -4.2279   -0.4248   -0.9006 C   0  0  0  0  0  0  0  0  0  0  0  0
   -5.6763   -0.4549   -0.4909 C   0  0  0  0  0  0  0  0  0  0  0  0
    3.5270    1.0321    0.3263 C   0  0  0  0  0  0  0  0  0  0  0  0
   -6.1355   -1.3685    0.4514 C   0  0  0  0  0  0  0  0  0  0  0  0
   -6.5933    0.4268   -1.0399 C   0  0  0  0  0  0  0  0  0  0  0  0
    4.7987    0.3091    0.0673 C   0  0  0  0  0  0  0  0  0  0  0  0
   -7.4787   -1.3722    0.8109 C   0  0  0  0  0  0  0  0  0  0  0  0
    5.5746    0.6393   -1.0440 C   0  0  0  0  0  0  0  0  0  0  0  0
    5.2172   -0.6994    0.9353 C   0  0  0  0  0  0  0  0  0  0  0  0
   -8.3151   -0.4494    0.2038 C   0  0  0  0  0  0  0  0  0  0  0  0
    6.7687   -0.0391   -1.2873 C   0  0  0  0  0  0  0  0  0  0  0  0
    6.4114   -1.3778    0.6920 C   0  0  0  0  0  0  0  0  0  0  0  0
    7.1871   -1.0477   -0.4192 C   0  0  0  0  0  0  0  0  0  0  0  0
   -1.9057    0.5112   -1.3476 H   0  0  0  0  0  0  0  0  0  0  0  0
   -1.3710    1.0737    1.5981 H   0  0  0  0  0  0  0  0  0  0  0  0
    0.6410    0.9490   -0.7137 H   0  0  0  0  0  0  0  0  0  0  0  0
   -1.6596   -1.6223    0.8456 H   0  0  0  0  0  0  0  0  0  0  0  0
   -1.4265   -1.8103   -0.9050 H   0  0  0  0  0  0  0  0  0  0  0  0
    0.9571    0.4316    2.2897 H   0  0  0  0  0  0  0  0  0  0  0  0
    1.3628    1.9669    1.4902 H   0  0  0  0  0  0  0  0  0  0  0  0
   -3.7026    1.1699    0.2443 H   0  0  0  0  0  0  0  0  0  0  0  0
   -3.9076   -1.4585   -1.0827 H   0  0  0  0  0  0  0  0  0  0  0  0
   -4.1347    0.1025   -1.8590 H   0  0  0  0  0  0  0  0  0  0  0  0
   -1.0185    2.5514   -0.8186 H   0  0  0  0  0  0  0  0  0  0  0  0
    2.7092   -0.6347    1.3006 H   0  0  0  0  0  0  0  0  0  0  0  0
   -5.4563   -2.0812    0.9111 H   0  0  0  0  0  0  0  0  0  0  0  0
   -6.2966    1.1649   -1.7787 H   0  0  0  0  0  0  0  0  0  0  0  0
   -7.8589   -2.0752    1.5431 H   0  0  0  0  0  0  0  0  0  0  0  0
    5.2635    1.4189   -1.7343 H   0  0  0  0  0  0  0  0  0  0  0  0
    4.6594   -0.9663    1.8278 H   0  0  0  0  0  0  0  0  0  0  0  0
   -9.3713   -0.4112    0.4495 H   0  0  0  0  0  0  0  0  0  0  0  0
    7.3727    0.2169   -2.1527 H   0  0  0  0  0  0  0  0  0  0  0  0
    6.7415   -2.1584    1.3710 H   0  0  0  0  0  0  0  0  0  0  0  0
  1 25  1  0  0  0  0
  2 10  1  0  0  0  0
  2 11  1  0  0  0  0
  3  9  1  0  0  0  0
  3 36  1  0  0  0  0
  4 15  2  0  0  0  0
  5  8  1  0  0  0  0
  5 13  1  0  0  0  0
  5 33  1  0  0  0  0
  6 12  1  0  0  0  0
  6 15  1  0  0  0  0
  6 37  1  0  0  0  0
  7 17  1  0  0  0  0
  7 22  2  0  0  0  0
  8  9  1  0  0  0  0
  8 11  1  0  0  0  0
  8 26  1  0  0  0  0
  9 10  1  0  0  0  0
  9 27  1  0  0  0  0
 10 12  1  0  0  0  0
 10 28  1  0  0  0  0
 11 29  1  0  0  0  0
 11 30  1  0  0  0  0
 12 31  1  0  0  0  0
 12 32  1  0  0  0  0
 13 14  1  0  0  0  0
 13 34  1  0  0  0  0
 13 35  1  0  0  0  0
 14 16  1  0  0  0  0
 14 17  2  0  0  0  0
 15 18  1  0  0  0  0
 16 19  2  0  0  0  0
 16 38  1  0  0  0  0
 17 39  1  0  0  0  0
 18 20  2  0  0  0  0
 18 21  1  0  0  0  0
 19 22  1  0  0  0  0
 19 40  1  0  0  0  0
 20 23  1  0  0  0  0
 20 41  1  0  0  0  0
 21 24  2  0  0  0  0
 21 42  1  0  0  0  0
 22 43  1  0  0  0  0
 23 25  2  0  0  0  0
 23 44  1  0  0  0  0
 24 25  1  0  0  0  0
 24 45  1  0  0  0  0
M  END
> <PUBCHEM_COMPOUND_CID>
75536645

> <PUBCHEM_CONFORMER_RMSD>
1

> <PUBCHEM_CONFORMER_DIVERSEORDER>
1
141
15
54
169
7
166
53
119
179
130
121
68
95
61
111
89
177
65
81
178
82
49
29
112
5
67
63
100
31
93
175
134
41
167
172
73
11
92
168
162
122
40
71
152
116
157
108
91
98
3
8
161
26
43
128
57
139
144
13
18
117
145
135
132
123
66
80
12
164
142
36
102
20
10
34
44
153
126
19
23
42
39
120
151
133
160
105
28
4
76
96
50
70
30
118
173
16
35
21
158
77
38
165
125
107
86
159
51
46
52
103
127
24
146
25
109
104
85
115
114
140
129
149
83
9
113
124
138
17
69
148
58
150
48
45
147
99
97
174
56
27
90
6
155
94
14
2
37
171
101
64
136
84
131
163
22
72
156
32
62
74
60
75
170
110
137
33
79
106
87
154
47
78
55
59
88
176
143

> <PUBCHEM_MMFF94_PARTIAL_CHARGES>
36
1 -0.19
10 0.28
11 0.28
12 0.3
13 0.41
14 -0.14
15 0.54
16 -0.15
17 0.16
18 0.09
19 -0.15
2 -0.56
20 -0.15
21 -0.15
22 0.16
23 -0.15
24 -0.15
25 0.19
3 -0.68
33 0.36
36 0.4
37 0.37
38 0.15
39 0.15
4 -0.57
40 0.15
41 0.15
42 0.15
43 0.15
44 0.15
45 0.15
5 -0.9
6 -0.73
7 -0.62
8 0.27
9 0.28

> <PUBCHEM_EFFECTIVE_ROTOR_COUNT>
8

> <PUBCHEM_PHARMACOPHORE_FEATURES>
11
1 2 acceptor
1 3 acceptor
1 3 donor
1 4 acceptor
1 5 cation
1 5 donor
1 6 donor
1 7 acceptor
5 2 8 9 10 11 rings
6 18 20 21 23 24 25 rings
6 7 14 16 17 19 22 rings

> <PUBCHEM_HEAVY_ATOM_COUNT>
25

> <PUBCHEM_ATOM_DEF_STEREO_COUNT>
3

> <PUBCHEM_ATOM_UDEF_STEREO_COUNT>
0

> <PUBCHEM_BOND_DEF_STEREO_COUNT>
0

> <PUBCHEM_BOND_UDEF_STEREO_COUNT>
0

> <PUBCHEM_ISOTOPIC_ATOM_COUNT>
0

> <PUBCHEM_COMPONENT_COUNT>
1

> <PUBCHEM_CACTVS_TAUTO_COUNT>
2

> <PUBCHEM_CONFORMER_ID>
0480990500000001

> <PUBCHEM_MMFF94_ENERGY>
57.6027

> <PUBCHEM_FEATURE_SELFOVERLAP>
55.822

> <PUBCHEM_SHAPE_FINGERPRINT>
10 15 10447928373320953348
10162869 55 9655283818613731593
10299344 5 18113336410209404115
106641 1 9151166567678571797
11135609 127 16733558234285923524
11315181 36 11746933184540951663
11524674 6 17346597504408891335
11638347 137 12823303390380405148
12166972 35 18040436615607642837
125118 31 10807943673233228955
12592606 108 18130503119724626055
13673619 4 18060698385824750584
13685833 64 17917991681266136312
13885169 127 17346601833598495873
14216079 64 17846218834869979854
14251764 18 16630809928061157072
14294032 229 18193559956848850865
14347424 109 16056873663461669650
14428016 86 12107786298958535512
14856354 85 17821730564090004687
14933364 13 17894346692316643725
15131766 46 13396906602099751538
15183329 4 18413107251357206793
15849732 13 17530965799881033703
16090146 7 16588320349119939993
17093844 174 12895356599789473407
1754911 235 15647050469674489879
18365409 1 14996579437705206027
20157964 124 8070037674680998520
21150785 3 16660363679560778350
21267235 1 18411420609115557225
21344244 246 18116151078895190522
21365058 27 15719109159155601179
21781051 124 18335707177639117010
21792961 116 18410288078644314429
220451 1 16515674559959313985
221357 26 17530681001179962732
22224240 67 12463570677246076693
23035841 295 18343863338341246051
23081809 10 14418396781758043753
23559900 14 18268705177094695144
246663 6 18343303664772742347
24771293 8 11314305027722568951
249057 25 14836131008936291259
28498 318 18130786746020619631
3004659 81 18409445895544718600
328311 84 18410857681117033171
34797466 226 16225765220376763662
4107672 100 17894905201590645901
444769 64 17917710223691341455
5470011 282 18113340821415046134
5758199 1 13334732415104762801
59682541 35 10447921776261853614
59755656 215 18342737399210232743
6438161 24 18335133177652266602

> <PUBCHEM_SHAPE_MULTIPOLES>
474.66
27.14
1.62
1.07
10.63
0.37
0.03
-11.19
5.23
-0.94
-0.17
-0.54
0.01
0.62

> <PUBCHEM_SHAPE_SELFOVERLAP>
1008.676

> <PUBCHEM_SHAPE_VOLUME>
265.2

> <PUBCHEM_COORDINATE_TYPE>
2
5
10

$$$$
