28961799
  -OEChem-12032416293D

 57 59  0     1  0  0  0  0  0999 V2000
   -7.6147    0.3495   -1.0235 F   0  0  0  0  0  0  0  0  0  0  0  0
   -7.4369    1.2365    0.9536 F   0  0  0  0  0  0  0  0  0  0  0  0
   -7.2851   -0.9183    0.7049 F   0  0  0  0  0  0  0  0  0  0  0  0
    1.1814   -1.9248    0.8088 O   0  0  0  0  0  0  0  0  0  0  0  0
    3.2679   -2.6031   -1.2293 O   0  0  0  0  0  0  0  0  0  0  0  0
    4.4849    3.3154    1.1970 O   0  0  0  0  0  0  0  0  0  0  0  0
    0.9262   -4.6158    1.5821 O   0  0  0  0  0  0  0  0  0  0  0  0
   -0.6956    1.9192   -0.4220 O   0  0  0  0  0  0  0  0  0  0  0  0
    3.8037    0.1618   -0.6909 N   0  0  1  0  0  0  0  0  0  0  0  0
   -0.5115   -0.3576   -0.8294 N   0  0  0  0  0  0  0  0  0  0  0  0
    3.1524   -0.6990    0.2807 C   0  0  1  0  0  0  0  0  0  0  0  0
    3.8624    1.5849   -0.3390 C   0  0  2  0  0  0  0  0  0  0  0  0
    1.6201   -0.6370    0.3222 C   0  0  1  0  0  0  0  0  0  0  0  0
    3.4309   -2.1857    0.1199 C   0  0  1  0  0  0  0  0  0  0  0  0
    5.1672   -0.2603   -1.0059 C   0  0  0  0  0  0  0  0  0  0  0  0
    2.3302   -2.7741    0.9945 C   0  0  2  0  0  0  0  0  0  0  0  0
    4.8202    2.1073   -1.4078 C   0  0  0  0  0  0  0  0  0  0  0  0
    5.8057    0.9677   -1.6441 C   0  0  0  0  0  0  0  0  0  0  0  0
    0.9097   -0.3890   -1.0039 C   0  0  0  0  0  0  0  0  0  0  0  0
    4.3655    1.9095    1.0713 C   0  0  0  0  0  0  0  0  0  0  0  0
    1.9468   -4.2096    0.6847 C   0  0  0  0  0  0  0  0  0  0  0  0
   -1.2127    0.8123   -0.5479 C   0  0  0  0  0  0  0  0  0  0  0  0
    4.9498    3.6909    2.4884 C   0  0  0  0  0  0  0  0  0  0  0  0
   -2.6809    0.6728   -0.3696 C   0  0  0  0  0  0  0  0  0  0  0  0
   -3.3756    1.5802    0.4302 C   0  0  0  0  0  0  0  0  0  0  0  0
   -3.3648   -0.3658   -1.0013 C   0  0  0  0  0  0  0  0  0  0  0  0
   -4.7541    1.4489    0.5982 C   0  0  0  0  0  0  0  0  0  0  0  0
   -4.7433   -0.4974   -0.8332 C   0  0  0  0  0  0  0  0  0  0  0  0
   -5.4379    0.4102   -0.0334 C   0  0  0  0  0  0  0  0  0  0  0  0
   -6.9122    0.2703    0.1450 C   0  0  0  0  0  0  0  0  0  0  0  0
    3.5152   -0.4748    1.2926 H   0  0  0  0  0  0  0  0  0  0  0  0
    2.8863    2.0646   -0.4798 H   0  0  0  0  0  0  0  0  0  0  0  0
    1.3011    0.1193    1.0500 H   0  0  0  0  0  0  0  0  0  0  0  0
    4.4274   -2.4864    0.4603 H   0  0  0  0  0  0  0  0  0  0  0  0
    5.2023   -1.1000   -1.7062 H   0  0  0  0  0  0  0  0  0  0  0  0
    5.7363   -0.5325   -0.1080 H   0  0  0  0  0  0  0  0  0  0  0  0
    2.5989   -2.6831    2.0549 H   0  0  0  0  0  0  0  0  0  0  0  0
    5.3330    3.0373   -1.1448 H   0  0  0  0  0  0  0  0  0  0  0  0
    4.2670    2.2955   -2.3376 H   0  0  0  0  0  0  0  0  0  0  0  0
    5.9774    0.8264   -2.7166 H   0  0  0  0  0  0  0  0  0  0  0  0
    6.7707    1.1857   -1.1731 H   0  0  0  0  0  0  0  0  0  0  0  0
    1.1092   -1.1964   -1.7154 H   0  0  0  0  0  0  0  0  0  0  0  0
    1.2277    0.5551   -1.4560 H   0  0  0  0  0  0  0  0  0  0  0  0
    5.3379    1.4431    1.2687 H   0  0  0  0  0  0  0  0  0  0  0  0
    3.6491    1.5612    1.8233 H   0  0  0  0  0  0  0  0  0  0  0  0
    2.8050   -4.8788    0.7977 H   0  0  0  0  0  0  0  0  0  0  0  0
    1.5392   -4.3042   -0.3268 H   0  0  0  0  0  0  0  0  0  0  0  0
    3.5613   -3.5282   -1.2886 H   0  0  0  0  0  0  0  0  0  0  0  0
   -0.9917   -1.2508   -0.8509 H   0  0  0  0  0  0  0  0  0  0  0  0
    0.7033   -5.5369    1.3644 H   0  0  0  0  0  0  0  0  0  0  0  0
    5.0206    4.7813    2.5241 H   0  0  0  0  0  0  0  0  0  0  0  0
    5.9423    3.2700    2.6755 H   0  0  0  0  0  0  0  0  0  0  0  0
    4.2475    3.3608    3.2598 H   0  0  0  0  0  0  0  0  0  0  0  0
   -2.8599    2.3933    0.9344 H   0  0  0  0  0  0  0  0  0  0  0  0
   -2.8672   -1.0749   -1.6563 H   0  0  0  0  0  0  0  0  0  0  0  0
   -5.2764    2.1656    1.2258 H   0  0  0  0  0  0  0  0  0  0  0  0
   -5.2690   -1.3057   -1.3346 H   0  0  0  0  0  0  0  0  0  0  0  0
  1 30  1  0  0  0  0
  2 30  1  0  0  0  0
  3 30  1  0  0  0  0
  4 13  1  0  0  0  0
  4 16  1  0  0  0  0
  5 14  1  0  0  0  0
  5 48  1  0  0  0  0
  6 20  1  0  0  0  0
  6 23  1  0  0  0  0
  7 21  1  0  0  0  0
  7 50  1  0  0  0  0
  8 22  2  0  0  0  0
  9 11  1  0  0  0  0
  9 12  1  0  0  0  0
  9 15  1  0  0  0  0
 10 19  1  0  0  0  0
 10 22  1  0  0  0  0
 10 49  1  0  0  0  0
 11 13  1  0  0  0  0
 11 14  1  0  0  0  0
 11 31  1  0  0  0  0
 12 17  1  0  0  0  0
 12 20  1  0  0  0  0
 12 32  1  0  0  0  0
 13 19  1  0  0  0  0
 13 33  1  0  0  0  0
 14 16  1  0  0  0  0
 14 34  1  0  0  0  0
 15 18  1  0  0  0  0
 15 35  1  0  0  0  0
 15 36  1  0  0  0  0
 16 21  1  0  0  0  0
 16 37  1  0  0  0  0
 17 18  1  0  0  0  0
 17 38  1  0  0  0  0
 17 39  1  0  0  0  0
 18 40  1  0  0  0  0
 18 41  1  0  0  0  0
 19 42  1  0  0  0  0
 19 43  1  0  0  0  0
 20 44  1  0  0  0  0
 20 45  1  0  0  0  0
 21 46  1  0  0  0  0
 21 47  1  0  0  0  0
 22 24  1  0  0  0  0
 23 51  1  0  0  0  0
 23 52  1  0  0  0  0
 23 53  1  0  0  0  0
 24 25  2  0  0  0  0
 24 26  1  0  0  0  0
 25 27  1  0  0  0  0
 25 54  1  0  0  0  0
 26 28  2  0  0  0  0
 26 55  1  0  0  0  0
 27 29  2  0  0  0  0
 27 56  1  0  0  0  0
 28 29  1  0  0  0  0
 28 57  1  0  0  0  0
 29 30  1  0  0  0  0
M  END
> <PUBCHEM_COMPOUND_CID>
28961799

> <PUBCHEM_CONFORMER_RMSD>
1

> <PUBCHEM_CONFORMER_DIVERSEORDER>
1
9
4
22
17
12
18
10
26
21
33
35
25
14
19
34
23
20
36
16
27
8
30
5
29
31
3
24
28
32
13
2
11
6
7
15

> <PUBCHEM_MMFF94_PARTIAL_CHARGES>
35
1 -0.34
10 -0.73
11 0.27
12 0.27
13 0.28
14 0.28
15 0.27
16 0.28
19 0.3
2 -0.34
20 0.28
21 0.28
22 0.54
23 0.28
24 0.09
25 -0.15
26 -0.15
27 -0.15
28 -0.15
29 -0.14
3 -0.34
30 1.16
4 -0.56
48 0.4
49 0.37
5 -0.68
50 0.4
54 0.15
55 0.15
56 0.15
57 0.15
6 -0.56
7 -0.68
8 -0.57
9 -0.81

> <PUBCHEM_EFFECTIVE_ROTOR_COUNT>
11

> <PUBCHEM_PHARMACOPHORE_FEATURES>
12
1 10 donor
1 4 acceptor
1 5 acceptor
1 5 donor
1 6 acceptor
1 7 acceptor
1 7 donor
1 8 acceptor
1 9 cation
5 4 11 13 14 16 rings
5 9 12 15 17 18 rings
6 24 25 26 27 28 29 rings

> <PUBCHEM_HEAVY_ATOM_COUNT>
30

> <PUBCHEM_ATOM_DEF_STEREO_COUNT>
5

> <PUBCHEM_ATOM_UDEF_STEREO_COUNT>
0

> <PUBCHEM_BOND_DEF_STEREO_COUNT>
0

> <PUBCHEM_BOND_UDEF_STEREO_COUNT>
0

> <PUBCHEM_ISOTOPIC_ATOM_COUNT>
0

> <PUBCHEM_COMPONENT_COUNT>
1

> <PUBCHEM_CACTVS_TAUTO_COUNT>
2

> <PUBCHEM_CONFORMER_ID>
01B9EC0700000001

> <PUBCHEM_MMFF94_ENERGY>
71.2873

> <PUBCHEM_FEATURE_SELFOVERLAP>
60.902

> <PUBCHEM_SHAPE_FINGERPRINT>
10165383 225 18187091672308470964
10835480 77 17968372356661075853
11181472 205 18128541454211853721
12107183 9 17473264276053959481
12236239 1 18412548674566787709
12596602 18 18343306951319399515
12730499 353 18261398840670841306
12788726 201 17774728546087949153
13533116 47 18337111164141139175
1361 2 18260835903296041965
13692114 37 18336822104294973346
13955234 65 18337664222737710826
14461889 52 17968382346306425019
14528608 73 18343020007968547836
14565420 104 18341321297269645400
146900 427 18413106160467188065
14840074 17 18413108360197404053
14849402 71 18410849972215382576
15142526 21 18268983357794287264
15419008 42 17315046915228140167
15537594 2 18343016688496904847
17492 89 17974002851942119547
17844677 252 18190464861701492453
19319366 153 18410005537788175342
19427546 62 18187935027116545046
1979834 28 18040713675568612316
20511986 3 18342446063568742557
21033648 29 18191307276739936568
21049683 118 18190444138742687778
21049683 271 18116154356076283382
22149856 69 18042143011416418209
22956985 138 17098315529779043602
23522609 53 18058189275301155185
23559900 14 18041277643392151358
23845131 108 18262516008872475658
239999 70 18340772520529355398
255183 451 18053108315857328094
3178227 256 18187643553836277706
34797466 226 17131840892902404341
4073 2 18187937205055289307
4340502 62 18259703410561938406
437795 51 18341901847713962089
504579 68 18273206491962663821
5104073 3 18337952269246441033
5109719 28 18198062675949429889
70251023 43 18196380212773774838
9658208 31 18266181815447234914
9849439 229 18193835067031727176

> <PUBCHEM_SHAPE_MULTIPOLES>
556.26
18.06
4.2
1.52
33.09
3.48
0.35
-9.89
-0.26
-7.58
3.05
-2.14
-0.63
0.73

> <PUBCHEM_SHAPE_SELFOVERLAP>
1168.851

> <PUBCHEM_SHAPE_VOLUME>
316.1

> <PUBCHEM_COORDINATE_TYPE>
2
5
10

$$$$
