56775466
  -OEChem-12032416323D

 43 45  0     0  0  0  0  0  0999 V2000
   -1.0520   -3.4822   -0.6589 O   0  0  0  0  0  0  0  0  0  0  0  0
    2.3412    1.4732    0.3500 O   0  0  0  0  0  0  0  0  0  0  0  0
   -4.4413    0.1341   -0.4683 O   0  0  0  0  0  0  0  0  0  0  0  0
   -1.5629   -0.4396   -0.3202 N   0  0  0  0  0  0  0  0  0  0  0  0
    1.1231    1.0143    0.8366 N   0  0  0  0  0  0  0  0  0  0  0  0
   -0.7892   -1.5520    0.2137 C   0  0  0  0  0  0  0  0  0  0  0  0
   -1.7142   -2.7499    0.3974 C   0  0  0  0  0  0  0  0  0  0  0  0
   -0.2050   -2.3468   -0.9486 C   0  0  0  0  0  0  0  0  0  0  0  0
    0.1307   -1.1396    1.3706 C   0  0  0  0  0  0  0  0  0  0  0  0
    1.2508   -0.3146    0.8903 C   0  0  0  0  0  0  0  0  0  0  0  0
   -2.3351    0.1846    0.7514 C   0  0  0  0  0  0  0  0  0  0  0  0
    4.5636    0.7362   -0.4177 C   0  0  0  0  0  0  0  0  0  0  0  0
    2.5152   -0.7472    0.4544 C   0  0  0  0  0  0  0  0  0  0  0  0
    3.1617    0.4150    0.1263 C   0  0  0  0  0  0  0  0  0  0  0  0
   -3.5534    0.8950    0.2242 C   0  0  0  0  0  0  0  0  0  0  0  0
    4.8221    2.2456   -0.6272 C   0  0  0  0  0  0  0  0  0  0  0  0
    5.6344    0.2232    0.5694 C   0  0  0  0  0  0  0  0  0  0  0  0
    4.7609    0.0460   -1.7847 C   0  0  0  0  0  0  0  0  0  0  0  0
   -3.9843    2.1996    0.2917 C   0  0  0  0  0  0  0  0  0  0  0  0
   -5.2163    2.2430   -0.4036 C   0  0  0  0  0  0  0  0  0  0  0  0
   -5.4502    0.9619   -0.8467 C   0  0  0  0  0  0  0  0  0  0  0  0
   -1.6195   -3.2754    1.3534 H   0  0  0  0  0  0  0  0  0  0  0  0
   -2.7785   -2.6235    0.1709 H   0  0  0  0  0  0  0  0  0  0  0  0
   -0.3851   -1.9700   -1.9616 H   0  0  0  0  0  0  0  0  0  0  0  0
    0.8462   -2.6366   -0.8676 H   0  0  0  0  0  0  0  0  0  0  0  0
    0.5509   -2.0495    1.8223 H   0  0  0  0  0  0  0  0  0  0  0  0
   -0.4041   -0.6514    2.1925 H   0  0  0  0  0  0  0  0  0  0  0  0
   -1.0153    0.2703   -0.8056 H   0  0  0  0  0  0  0  0  0  0  0  0
   -1.7222    0.9160    1.2909 H   0  0  0  0  0  0  0  0  0  0  0  0
   -2.7003   -0.5429    1.4877 H   0  0  0  0  0  0  0  0  0  0  0  0
    2.9032   -1.7530    0.3904 H   0  0  0  0  0  0  0  0  0  0  0  0
    4.7192    2.7981    0.3141 H   0  0  0  0  0  0  0  0  0  0  0  0
    4.1063    2.6738   -1.3385 H   0  0  0  0  0  0  0  0  0  0  0  0
    5.8302    2.4314   -1.0150 H   0  0  0  0  0  0  0  0  0  0  0  0
    5.5536   -0.8600    0.7176 H   0  0  0  0  0  0  0  0  0  0  0  0
    5.5244    0.6972    1.5519 H   0  0  0  0  0  0  0  0  0  0  0  0
    6.6467    0.4322    0.2054 H   0  0  0  0  0  0  0  0  0  0  0  0
    4.0167    0.3914   -2.5119 H   0  0  0  0  0  0  0  0  0  0  0  0
    4.6560   -1.0420   -1.7008 H   0  0  0  0  0  0  0  0  0  0  0  0
    5.7556    0.2512   -2.1965 H   0  0  0  0  0  0  0  0  0  0  0  0
   -3.4759    3.0184    0.7804 H   0  0  0  0  0  0  0  0  0  0  0  0
   -5.8539    3.1006   -0.5622 H   0  0  0  0  0  0  0  0  0  0  0  0
   -6.2454    0.5004   -1.4137 H   0  0  0  0  0  0  0  0  0  0  0  0
  1  7  1  0  0  0  0
  1  8  1  0  0  0  0
  2  5  1  0  0  0  0
  2 14  1  0  0  0  0
  3 15  1  0  0  0  0
  3 21  1  0  0  0  0
  4  6  1  0  0  0  0
  4 11  1  0  0  0  0
  4 28  1  0  0  0  0
  5 10  2  0  0  0  0
  6  7  1  0  0  0  0
  6  8  1  0  0  0  0
  6  9  1  0  0  0  0
  7 22  1  0  0  0  0
  7 23  1  0  0  0  0
  8 24  1  0  0  0  0
  8 25  1  0  0  0  0
  9 10  1  0  0  0  0
  9 26  1  0  0  0  0
  9 27  1  0  0  0  0
 10 13  1  0  0  0  0
 11 15  1  0  0  0  0
 11 29  1  0  0  0  0
 11 30  1  0  0  0  0
 12 14  1  0  0  0  0
 12 16  1  0  0  0  0
 12 17  1  0  0  0  0
 12 18  1  0  0  0  0
 13 14  2  0  0  0  0
 13 31  1  0  0  0  0
 15 19  2  0  0  0  0
 16 32  1  0  0  0  0
 16 33  1  0  0  0  0
 16 34  1  0  0  0  0
 17 35  1  0  0  0  0
 17 36  1  0  0  0  0
 17 37  1  0  0  0  0
 18 38  1  0  0  0  0
 18 39  1  0  0  0  0
 18 40  1  0  0  0  0
 19 20  1  0  0  0  0
 19 41  1  0  0  0  0
 20 21  2  0  0  0  0
 20 42  1  0  0  0  0
 21 43  1  0  0  0  0
M  END
> <PUBCHEM_COMPOUND_CID>
56775466

> <PUBCHEM_CONFORMER_RMSD>
0.8

> <PUBCHEM_CONFORMER_DIVERSEORDER>
4
105
68
31
75
86
32
58
73
97
119
62
55
36
79
128
89
115
53
66
56
106
41
51
127
96
84
120
39
52
82
46
29
14
132
125
49
113
80
81
78
10
48
15
130
20
95
76
11
104
35
107
88
18
129
63
108
40
9
87
43
77
102
59
69
109
6
33
37
71
72
91
21
122
98
24
92
117
28
50
22
47
13
110
57
114
7
93
131
8
94
44
70
111
85
100
1
99
27
60
25
112
74
45
12
19
118
64
61
67
5
16
126
83
123
34
17
121
2
38
26
116
30
65
42
101
90
3
124
23
103
54

> <PUBCHEM_MMFF94_PARTIAL_CHARGES>
23
1 -0.52
10 0.11
11 0.45
12 0.18
13 -0.15
14 -0.04
15 -0.04
19 -0.15
2 -0.02
20 -0.15
21 -0.01
28 0.36
3 -0.28
31 0.15
4 -0.84
41 0.15
42 0.15
43 0.15
5 -0.41
6 0.21
7 0.26
8 0.26
9 0.18

> <PUBCHEM_EFFECTIVE_ROTOR_COUNT>
6.8

> <PUBCHEM_PHARMACOPHORE_FEATURES>
9
1 1 acceptor
1 3 acceptor
1 4 cation
1 4 donor
1 5 acceptor
4 1 6 7 8 rings
4 12 16 17 18 hydrophobe
5 2 5 10 13 14 rings
5 3 15 19 20 21 rings

> <PUBCHEM_HEAVY_ATOM_COUNT>
21

> <PUBCHEM_ATOM_DEF_STEREO_COUNT>
0

> <PUBCHEM_ATOM_UDEF_STEREO_COUNT>
0

> <PUBCHEM_BOND_DEF_STEREO_COUNT>
0

> <PUBCHEM_BOND_UDEF_STEREO_COUNT>
0

> <PUBCHEM_ISOTOPIC_ATOM_COUNT>
0

> <PUBCHEM_COMPONENT_COUNT>
1

> <PUBCHEM_CACTVS_TAUTO_COUNT>
1

> <PUBCHEM_CONFORMER_ID>
0362532A00000004

> <PUBCHEM_MMFF94_ENERGY>
37.4469

> <PUBCHEM_FEATURE_SELFOVERLAP>
45.671

> <PUBCHEM_SHAPE_FINGERPRINT>
105312 117 18410296908416651711
10591671 39 18260555554286753599
11796584 16 12895069570634273517
12596602 18 14562824247968300605
12788726 201 17845939524504273144
13073987 5 17970064646773890736
13103583 49 11097861740194456053
13544653 18 10519981582307963985
13944108 23 17905324027283293877
1420 369 10735879469361782564
14251764 30 13613944661536689413
14341114 328 15357706283389684965
14790565 3 18337392647339123461
15052358 14 18269570372723586470
15163728 17 18266193742218007725
15183329 4 18271812272458338436
15575132 122 18040997294008810829
15961568 22 17822854161467531861
167882 2 18268714904984942054
17349148 13 12391518602546851428
17539 30 17984129637649737887
193927 3 11815896790215570837
200 152 11600005457313760649
20567600 70 10303226050384021997
20602899 9 17275108357550187415
21069387 34 13686301304803076594
21250096 35 9367338245859244089
21521239 73 17417806206291360623
21524375 3 18337382765014436419
22182313 1 18198931199693041823
23559900 14 17988654012776885768
25147074 1 18115847707420590426
2637199 183 18410854335099976969
268830 7 17241317123108337168
26918003 58 10087644780014179473
2838139 119 18259979353789797741
293599 30 18408886217628506488
298252 57 18410854352095548667
314194 84 9654991382654114841
3472631 163 18334580182873939900
351380 3 11239995654934290013
3759504 43 18260268568381946043
4015057 19 16343702179394113170
463206 1 10519688000009337765
474 4 18266173942703401915
5104073 3 17604141653664515000
559249 180 18411134745468708450
6327066 14 18335416872378301349
7808743 9 18335417997611986977
7970288 3 9943516410658318725
8863177 126 11382389068753725653

> <PUBCHEM_SHAPE_MULTIPOLES>
404.6
12.42
2.94
1.14
0.82
1.75
0.17
-10.5
3.25
-2.1
0.51
0.66
0.17
-0.15

> <PUBCHEM_SHAPE_SELFOVERLAP>
853.166

> <PUBCHEM_SHAPE_VOLUME>
231

> <PUBCHEM_COORDINATE_TYPE>
2
5
10

$$$$
