40533466
  -OEChem-12032416113D

 54 58  0     1  0  0  0  0  0999 V2000
   -1.7394    0.1079    1.9816 O   0  0  0  0  0  0  0  0  0  0  0  0
    2.2411   -0.9311   -2.1152 O   0  0  0  0  0  0  0  0  0  0  0  0
    1.8528   -2.4529   -0.4157 N   0  0  0  0  0  0  0  0  0  0  0  0
   -1.0421   -1.7287    0.7248 N   0  0  0  0  0  0  0  0  0  0  0  0
    3.1644   -0.5312   -0.0253 N   0  0  0  0  0  0  0  0  0  0  0  0
   -5.5496    2.3023   -0.1381 N   0  0  0  0  0  0  0  0  0  0  0  0
    0.6846   -3.4098    1.5848 C   0  0  1  0  0  0  0  0  0  0  0  0
   -0.2896   -3.6994   -0.6515 C   0  0  2  0  0  0  0  0  0  0  0  0
   -0.0274   -4.4038    0.6770 C   0  0  0  0  0  0  0  0  0  0  0  0
    2.0161   -2.9442    0.9620 C   0  0  0  0  0  0  0  0  0  0  0  0
   -0.2597   -2.2331    1.8610 C   0  0  0  0  0  0  0  0  0  0  0  0
    1.0555   -3.3180   -1.2941 C   0  0  0  0  0  0  0  0  0  0  0  0
   -1.1398   -2.4573   -0.4627 C   0  0  0  0  0  0  0  0  0  0  0  0
   -1.9565   -2.0401   -1.4432 C   0  0  0  0  0  0  0  0  0  0  0  0
   -1.7704   -0.5413    0.9347 C   0  0  0  0  0  0  0  0  0  0  0  0
    2.4077   -1.2639   -0.9391 C   0  0  0  0  0  0  0  0  0  0  0  0
   -2.6455   -0.0770   -0.1982 C   0  0  0  0  0  0  0  0  0  0  0  0
   -2.7142   -0.8288   -1.3071 C   0  0  0  0  0  0  0  0  0  0  0  0
   -3.4085    1.1799   -0.1072 C   0  0  0  0  0  0  0  0  0  0  0  0
    3.3481    0.8732    0.0033 C   0  0  0  0  0  0  0  0  0  0  0  0
   -2.7649    2.3972    0.0869 C   0  0  0  0  0  0  0  0  0  0  0  0
   -4.7900    1.1864   -0.2123 C   0  0  0  0  0  0  0  0  0  0  0  0
    4.2111    1.4450    0.9383 C   0  0  0  0  0  0  0  0  0  0  0  0
    2.6657    1.6843   -0.9035 C   0  0  0  0  0  0  0  0  0  0  0  0
   -3.5121    3.5670    0.1686 C   0  0  0  0  0  0  0  0  0  0  0  0
    4.3917    2.8277    0.9664 C   0  0  0  0  0  0  0  0  0  0  0  0
    2.8464    3.0671   -0.8753 C   0  0  0  0  0  0  0  0  0  0  0  0
   -4.8890    3.4666    0.0509 C   0  0  0  0  0  0  0  0  0  0  0  0
    3.7096    3.6388    0.0595 C   0  0  0  0  0  0  0  0  0  0  0  0
    3.9039    5.1172    0.0886 C   0  0  0  0  0  0  0  0  0  0  0  0
    0.9192   -3.8912    2.5424 H   0  0  0  0  0  0  0  0  0  0  0  0
   -0.8053   -4.4041   -1.3169 H   0  0  0  0  0  0  0  0  0  0  0  0
   -0.9677   -4.7393    1.1321 H   0  0  0  0  0  0  0  0  0  0  0  0
    0.5924   -5.2958    0.5246 H   0  0  0  0  0  0  0  0  0  0  0  0
    2.4636   -2.1957    1.6180 H   0  0  0  0  0  0  0  0  0  0  0  0
    2.7143   -3.7883    0.9084 H   0  0  0  0  0  0  0  0  0  0  0  0
   -0.9976   -2.5430    2.6137 H   0  0  0  0  0  0  0  0  0  0  0  0
    0.2915   -1.3954    2.3067 H   0  0  0  0  0  0  0  0  0  0  0  0
    1.6539   -4.2189   -1.4789 H   0  0  0  0  0  0  0  0  0  0  0  0
    0.8922   -2.8424   -2.2671 H   0  0  0  0  0  0  0  0  0  0  0  0
   -2.0422   -2.5811   -2.3798 H   0  0  0  0  0  0  0  0  0  0  0  0
   -3.3234   -0.5398   -2.1586 H   0  0  0  0  0  0  0  0  0  0  0  0
    3.6578   -1.0391    0.7015 H   0  0  0  0  0  0  0  0  0  0  0  0
   -1.6825    2.4523    0.1716 H   0  0  0  0  0  0  0  0  0  0  0  0
   -5.3561    0.2709   -0.3591 H   0  0  0  0  0  0  0  0  0  0  0  0
    4.7489    0.8241    1.6503 H   0  0  0  0  0  0  0  0  0  0  0  0
    1.9603    1.2982   -1.6298 H   0  0  0  0  0  0  0  0  0  0  0  0
   -3.0318    4.5271    0.3185 H   0  0  0  0  0  0  0  0  0  0  0  0
    5.0682    3.2611    1.6982 H   0  0  0  0  0  0  0  0  0  0  0  0
    2.3057    3.6896   -1.5833 H   0  0  0  0  0  0  0  0  0  0  0  0
   -5.5170    4.3497    0.1074 H   0  0  0  0  0  0  0  0  0  0  0  0
    4.7292    5.4005   -0.5722 H   0  0  0  0  0  0  0  0  0  0  0  0
    2.9984    5.6411   -0.2359 H   0  0  0  0  0  0  0  0  0  0  0  0
    4.1298    5.4664    1.1018 H   0  0  0  0  0  0  0  0  0  0  0  0
  1 15  2  0  0  0  0
  2 16  2  0  0  0  0
  3 10  1  0  0  0  0
  3 12  1  0  0  0  0
  3 16  1  0  0  0  0
  4 11  1  0  0  0  0
  4 13  1  0  0  0  0
  4 15  1  0  0  0  0
  5 16  1  0  0  0  0
  5 20  1  0  0  0  0
  5 43  1  0  0  0  0
  6 22  1  0  0  0  0
  6 28  2  0  0  0  0
  7  9  1  0  0  0  0
  7 10  1  0  0  0  0
  7 11  1  0  0  0  0
  7 31  1  0  0  0  0
  8  9  1  0  0  0  0
  8 12  1  0  0  0  0
  8 13  1  0  0  0  0
  8 32  1  0  0  0  0
  9 33  1  0  0  0  0
  9 34  1  0  0  0  0
 10 35  1  0  0  0  0
 10 36  1  0  0  0  0
 11 37  1  0  0  0  0
 11 38  1  0  0  0  0
 12 39  1  0  0  0  0
 12 40  1  0  0  0  0
 13 14  2  0  0  0  0
 14 18  1  0  0  0  0
 14 41  1  0  0  0  0
 15 17  1  0  0  0  0
 17 18  2  0  0  0  0
 17 19  1  0  0  0  0
 18 42  1  0  0  0  0
 19 21  1  0  0  0  0
 19 22  2  0  0  0  0
 20 23  2  0  0  0  0
 20 24  1  0  0  0  0
 21 25  2  0  0  0  0
 21 44  1  0  0  0  0
 22 45  1  0  0  0  0
 23 26  1  0  0  0  0
 23 46  1  0  0  0  0
 24 27  2  0  0  0  0
 24 47  1  0  0  0  0
 25 28  1  0  0  0  0
 25 48  1  0  0  0  0
 26 29  2  0  0  0  0
 26 49  1  0  0  0  0
 27 29  1  0  0  0  0
 27 50  1  0  0  0  0
 28 51  1  0  0  0  0
 29 30  1  0  0  0  0
 30 52  1  0  0  0  0
 30 53  1  0  0  0  0
 30 54  1  0  0  0  0
M  END
> <PUBCHEM_COMPOUND_CID>
40533466

> <PUBCHEM_CONFORMER_RMSD>
0.8

> <PUBCHEM_CONFORMER_DIVERSEORDER>
1
22
32
33
8
27
3
5
36
39
2
21
34
10
20
37
24
35
19
12
28
13
23
17
38
7
14
9
6
29
4
15
11
18
26
25
31
16
30

> <PUBCHEM_MMFF94_PARTIAL_CHARGES>
39
1 -0.57
10 0.3
11 0.3
12 0.3
13 -0.03
14 -0.15
15 0.62
16 0.69
17 -0.01
18 -0.15
19 0.03
2 -0.57
20 0.12
21 -0.15
22 0.16
23 -0.15
24 -0.15
25 -0.15
26 -0.15
27 -0.15
28 0.16
29 -0.14
3 -0.66
30 0.14
4 -0.47
41 0.15
42 0.15
43 0.37
44 0.15
45 0.15
46 0.15
47 0.15
48 0.15
49 0.15
5 -0.55
50 0.15
51 0.15
6 -0.62
8 0.14

> <PUBCHEM_EFFECTIVE_ROTOR_COUNT>
5

> <PUBCHEM_PHARMACOPHORE_FEATURES>
9
1 1 acceptor
1 2 acceptor
1 5 donor
1 6 acceptor
6 20 23 24 26 27 29 rings
6 3 7 8 9 10 12 rings
6 4 13 14 15 17 18 rings
6 4 7 8 9 11 13 rings
6 6 19 21 22 25 28 rings

> <PUBCHEM_HEAVY_ATOM_COUNT>
30

> <PUBCHEM_ATOM_DEF_STEREO_COUNT>
2

> <PUBCHEM_ATOM_UDEF_STEREO_COUNT>
0

> <PUBCHEM_BOND_DEF_STEREO_COUNT>
0

> <PUBCHEM_BOND_UDEF_STEREO_COUNT>
0

> <PUBCHEM_ISOTOPIC_ATOM_COUNT>
0

> <PUBCHEM_COMPONENT_COUNT>
1

> <PUBCHEM_CACTVS_TAUTO_COUNT>
6

> <PUBCHEM_CONFORMER_ID>
026A7DDA00000001

> <PUBCHEM_MMFF94_ENERGY>
91.2045

> <PUBCHEM_FEATURE_SELFOVERLAP>
47.241

> <PUBCHEM_SHAPE_FINGERPRINT>
100830 39 17691405639697401512
10439779 11 18266452105986209416
10670039 82 17474125666480041764
10675989 125 18341897329382980377
10937287 8 18410290341311285985
12107183 9 18263343907443393904
12156800 1 14867288041219783094
12788726 201 17904750429804167787
12925494 130 17905609905034019233
13583140 156 17973180430704218099
13590594 115 17330283762028507922
13617811 41 18124292051912349109
13761468 95 17693131812464303788
14251764 38 18267298910423129492
14468879 13 18336273417769095457
14955137 171 17903636285286942898
16067690 210 16968543857070923288
17980427 23 17980166761256411058
18681886 176 17909542857698955123
19930381 70 18339079277128342549
20567600 299 17979072678414042789
21344244 78 17105925124705145795
21591340 35 18269000799498785824
21860390 5 17978794510635847455
3298306 158 18410578366345706065
376196 1 18271803553569388470
469060 322 17114962530718021818
484985 159 10085719543512023072
508180 173 18054527819632650124
508706 21 18053394468153039892
5776283 40 18267326308251841004
6036956 94 17470163021809266309
6201320 215 17405145618426668184
7288768 16 18114742736719887059
9849439 229 18335707186323906213
9981440 41 18338230599810829114

> <PUBCHEM_SHAPE_MULTIPOLES>
585.72
9.23
7.25
1.49
0.06
1.11
-0.09
15.64
-0.03
-1.11
-0.61
-0.24
-1.15
-0.04

> <PUBCHEM_SHAPE_SELFOVERLAP>
1289.42

> <PUBCHEM_SHAPE_VOLUME>
307.2

> <PUBCHEM_COORDINATE_TYPE>
2
5
10

$$$$
