9424622
  -OEChem-12032416223D

 60 64  0     1  0  0  0  0  0999 V2000
    1.9027    3.0018   -2.7598 O   0  0  0  0  0  0  0  0  0  0  0  0
    3.2740   -4.2243   -1.4268 O   0  0  0  0  0  0  0  0  0  0  0  0
   -2.7261   -0.8220   -1.9926 O   0  0  0  0  0  0  0  0  0  0  0  0
    1.7918    0.4569    1.5638 N   0  0  2  0  0  0  0  0  0  0  0  0
    0.8444    2.4489   -0.7449 N   0  0  0  0  0  0  0  0  0  0  0  0
    3.3777   -2.2181   -0.2589 N   0  0  0  0  0  0  0  0  0  0  0  0
   -2.3758    0.7451   -0.3108 N   0  0  0  0  0  0  0  0  0  0  0  0
   -4.4658   -0.2485    0.9839 N   0  0  0  0  0  0  0  0  0  0  0  0
   -5.9843   -2.3797   -0.0250 N   0  0  0  0  0  0  0  0  0  0  0  0
    1.8965    2.9619    1.5357 C   0  0  1  0  0  0  0  0  0  0  0  0
   -0.2782    1.8454    1.4226 C   0  0  2  0  0  0  0  0  0  0  0  0
    0.4555    3.0487    2.0099 C   0  0  0  0  0  0  0  0  0  0  0  0
    2.5361    1.6405    2.0111 C   0  0  0  0  0  0  0  0  0  0  0  0
    0.3729    0.5424    1.9402 C   0  0  0  0  0  0  0  0  0  0  0  0
    2.3982   -0.7712    2.0809 C   0  0  0  0  0  0  0  0  0  0  0  0
    1.9140    3.1138    0.0120 C   0  0  0  0  0  0  0  0  0  0  0  0
   -0.2686    1.8744   -0.1045 C   0  0  0  0  0  0  0  0  0  0  0  0
    3.8888   -0.8256    1.7159 C   0  0  0  0  0  0  0  0  0  0  0  0
    1.6762   -2.0033    1.5162 C   0  0  0  0  0  0  0  0  0  0  0  0
    4.1186   -1.0431    0.2188 C   0  0  0  0  0  0  0  0  0  0  0  0
    1.9402   -2.1997    0.0231 C   0  0  0  0  0  0  0  0  0  0  0  0
   -1.2697    1.3480   -0.8459 C   0  0  0  0  0  0  0  0  0  0  0  0
    0.9610    2.4993   -2.1459 C   0  0  0  0  0  0  0  0  0  0  0  0
   -1.1995    1.3770   -2.2871 C   0  0  0  0  0  0  0  0  0  0  0  0
   -0.1541    1.9065   -2.9249 C   0  0  0  0  0  0  0  0  0  0  0  0
    3.9262   -3.2738   -0.9872 C   0  0  0  0  0  0  0  0  0  0  0  0
    5.4130   -3.2246   -1.2342 C   0  0  0  0  0  0  0  0  0  0  0  0
   -3.0379   -0.3077   -0.9212 C   0  0  0  0  0  0  0  0  0  0  0  0
   -4.2057   -0.8474   -0.1773 C   0  0  0  0  0  0  0  0  0  0  0  0
   -4.9236   -1.8813   -0.6906 C   0  0  0  0  0  0  0  0  0  0  0  0
   -5.5266   -0.7467    1.6495 C   0  0  0  0  0  0  0  0  0  0  0  0
   -6.2723   -1.7936    1.1540 C   0  0  0  0  0  0  0  0  0  0  0  0
    2.4759    3.7857    1.9714 H   0  0  0  0  0  0  0  0  0  0  0  0
   -1.3041    1.8957    1.8040 H   0  0  0  0  0  0  0  0  0  0  0  0
    0.4106    3.0283    3.1057 H   0  0  0  0  0  0  0  0  0  0  0  0
   -0.0084    3.9887    1.6860 H   0  0  0  0  0  0  0  0  0  0  0  0
    2.6155    1.6570    3.1064 H   0  0  0  0  0  0  0  0  0  0  0  0
    3.5502    1.6602    1.6028 H   0  0  0  0  0  0  0  0  0  0  0  0
   -0.2134   -0.2758    1.5145 H   0  0  0  0  0  0  0  0  0  0  0  0
    0.2587    0.4919    3.0316 H   0  0  0  0  0  0  0  0  0  0  0  0
    2.3150   -0.7935    3.1763 H   0  0  0  0  0  0  0  0  0  0  0  0
    1.8269    4.1816   -0.2323 H   0  0  0  0  0  0  0  0  0  0  0  0
    2.8811    2.7921   -0.3951 H   0  0  0  0  0  0  0  0  0  0  0  0
    4.4830    0.0105    2.0924 H   0  0  0  0  0  0  0  0  0  0  0  0
    4.3111   -1.6988    2.2360 H   0  0  0  0  0  0  0  0  0  0  0  0
    2.0830   -2.8819    2.0385 H   0  0  0  0  0  0  0  0  0  0  0  0
    0.6057   -2.0396    1.7299 H   0  0  0  0  0  0  0  0  0  0  0  0
    3.7697   -0.1805   -0.3608 H   0  0  0  0  0  0  0  0  0  0  0  0
    5.1900   -1.1382    0.0337 H   0  0  0  0  0  0  0  0  0  0  0  0
    1.4707   -3.1311   -0.3094 H   0  0  0  0  0  0  0  0  0  0  0  0
    1.4983   -1.3869   -0.5650 H   0  0  0  0  0  0  0  0  0  0  0  0
   -2.0364    1.0812   -2.9082 H   0  0  0  0  0  0  0  0  0  0  0  0
   -0.1174    1.9708   -4.0061 H   0  0  0  0  0  0  0  0  0  0  0  0
   -2.6121    0.9417    0.6567 H   0  0  0  0  0  0  0  0  0  0  0  0
    5.7168   -4.1089   -1.8030 H   0  0  0  0  0  0  0  0  0  0  0  0
    5.6701   -2.3383   -1.8201 H   0  0  0  0  0  0  0  0  0  0  0  0
    5.9545   -3.2286   -0.2845 H   0  0  0  0  0  0  0  0  0  0  0  0
   -4.7045   -2.3619   -1.6357 H   0  0  0  0  0  0  0  0  0  0  0  0
   -5.7586   -0.2762    2.5970 H   0  0  0  0  0  0  0  0  0  0  0  0
   -7.1245   -2.1934    1.6895 H   0  0  0  0  0  0  0  0  0  0  0  0
  1 23  2  0  0  0  0
  2 26  2  0  0  0  0
  3 28  2  0  0  0  0
  4 13  1  0  0  0  0
  4 14  1  0  0  0  0
  4 15  1  0  0  0  0
  5 16  1  0  0  0  0
  5 17  1  0  0  0  0
  5 23  1  0  0  0  0
  6 20  1  0  0  0  0
  6 21  1  0  0  0  0
  6 26  1  0  0  0  0
  7 22  1  0  0  0  0
  7 28  1  0  0  0  0
  7 54  1  0  0  0  0
  8 29  2  0  0  0  0
  8 31  1  0  0  0  0
  9 30  2  0  0  0  0
  9 32  1  0  0  0  0
 10 12  1  0  0  0  0
 10 13  1  0  0  0  0
 10 16  1  0  0  0  0
 10 33  1  0  0  0  0
 11 12  1  0  0  0  0
 11 14  1  0  0  0  0
 11 17  1  0  0  0  0
 11 34  1  0  0  0  0
 12 35  1  0  0  0  0
 12 36  1  0  0  0  0
 13 37  1  0  0  0  0
 13 38  1  0  0  0  0
 14 39  1  0  0  0  0
 14 40  1  0  0  0  0
 15 18  1  0  0  0  0
 15 19  1  0  0  0  0
 15 41  1  0  0  0  0
 16 42  1  0  0  0  0
 16 43  1  0  0  0  0
 17 22  2  0  0  0  0
 18 20  1  0  0  0  0
 18 44  1  0  0  0  0
 18 45  1  0  0  0  0
 19 21  1  0  0  0  0
 19 46  1  0  0  0  0
 19 47  1  0  0  0  0
 20 48  1  0  0  0  0
 20 49  1  0  0  0  0
 21 50  1  0  0  0  0
 21 51  1  0  0  0  0
 22 24  1  0  0  0  0
 23 25  1  0  0  0  0
 24 25  2  0  0  0  0
 24 52  1  0  0  0  0
 25 53  1  0  0  0  0
 26 27  1  0  0  0  0
 27 55  1  0  0  0  0
 27 56  1  0  0  0  0
 27 57  1  0  0  0  0
 28 29  1  0  0  0  0
 29 30  1  0  0  0  0
 30 58  1  0  0  0  0
 31 32  2  0  0  0  0
 31 59  1  0  0  0  0
 32 60  1  0  0  0  0
M  END
> <PUBCHEM_COMPOUND_CID>
9424622

> <PUBCHEM_CONFORMER_RMSD>
1

> <PUBCHEM_CONFORMER_DIVERSEORDER>
1
11
14
6
7
10
8
13
5
9
4
2
3
12

> <PUBCHEM_MMFF94_PARTIAL_CHARGES>
34
1 -0.57
11 0.14
13 0.27
14 0.27
15 0.27
16 0.3
17 -0.03
2 -0.57
20 0.3
21 0.3
22 0.11
23 0.62
24 -0.15
25 -0.14
26 0.57
27 0.06
28 0.54
29 0.4
3 -0.57
30 0.16
31 0.16
32 0.16
4 -0.81
5 -0.47
52 0.15
53 0.15
54 0.37
58 0.15
59 0.15
6 -0.66
60 0.15
7 -0.54
8 -0.62
9 -0.62

> <PUBCHEM_EFFECTIVE_ROTOR_COUNT>
7.2

> <PUBCHEM_PHARMACOPHORE_FEATURES>
12
1 1 acceptor
1 2 acceptor
1 3 acceptor
1 4 cation
1 7 donor
1 8 acceptor
1 9 acceptor
6 4 10 11 12 13 14 rings
6 5 10 11 12 16 17 rings
6 5 17 22 23 24 25 rings
6 6 15 18 19 20 21 rings
6 8 9 29 30 31 32 rings

> <PUBCHEM_HEAVY_ATOM_COUNT>
32

> <PUBCHEM_ATOM_DEF_STEREO_COUNT>
2

> <PUBCHEM_ATOM_UDEF_STEREO_COUNT>
0

> <PUBCHEM_BOND_DEF_STEREO_COUNT>
0

> <PUBCHEM_BOND_UDEF_STEREO_COUNT>
0

> <PUBCHEM_ISOTOPIC_ATOM_COUNT>
0

> <PUBCHEM_COMPONENT_COUNT>
1

> <PUBCHEM_CACTVS_TAUTO_COUNT>
2

> <PUBCHEM_CONFORMER_ID>
008FCEEE00000001

> <PUBCHEM_MMFF94_ENERGY>
91.5587

> <PUBCHEM_FEATURE_SELFOVERLAP>
62.449

> <PUBCHEM_SHAPE_FINGERPRINT>
10764073 3 16340623331866409385
107951 10 16189460141450431884
10928967 22 18340472379635676215
11399939 17 17345463967791857303
11421498 54 18191038991634802065
11954058 11 18343021125219376215
12107183 9 17844824607361303291
12128747 34 18198603490021188993
12156800 1 16769894717317011104
12422481 6 17829293077315590336
12623949 98 18337950211788255299
12778500 126 18272661164465942017
13135754 10 17628921127569423032
13533116 47 18269835488539579779
13583140 156 17914592068850071153
13773456 22 18263662704847357134
14251740 57 18335705013603204091
14251764 30 18341616966707463627
14863182 85 18268421528827525168
15219462 58 18124900077305151025
15664445 248 17241044426290763781
17492 54 17313681450588111268
17974551 9 14260476159579672326
1813 80 18260546701884253419
19319366 153 17200215247509504513
20578428 11 16661497379771880655
20771845 140 18047753990112945921
20775530 9 18269548356368409718
21315759 227 17910103613145692990
21365058 27 17908986848401777424
21421861 104 18059863912607916017
23466295 7 17625267403354968442
25222932 49 17341246344688545267
2838139 119 7997970171778913787
3737641 26 18131064888424916746
44317340 157 8646506145684127035
469060 322 17971770877850265186
5081480 168 17531263759311205585
57527585 21 15649615501231201646
5951187 136 13007660111069503750
6287921 2 18339353188461747567
6823239 73 17240755229458109273
86090 222 18114177584008205587

> <PUBCHEM_SHAPE_MULTIPOLES>
611.05
10.76
4.79
2.8
15.16
0.84
-0.91
14.51
1.74
-5.43
-1.58
-0.91
-1.72
1.89

> <PUBCHEM_SHAPE_SELFOVERLAP>
1326.635

> <PUBCHEM_SHAPE_VOLUME>
323.5

> <PUBCHEM_COORDINATE_TYPE>
2
5
10

$$$$
