75536675
  -OEChem-12032416313D

 43 44  0     1  0  0  0  0  0999 V2000
    2.8286    1.6509    0.0208 S   0  0  0  0  0  0  0  0  0  0  0  0
   -1.4335    0.7472   -1.3522 O   0  0  0  0  0  0  0  0  0  0  0  0
   -2.2028    0.3249    2.1314 O   0  0  0  0  0  0  0  0  0  0  0  0
    2.7647    2.1074    1.3961 O   0  0  0  0  0  0  0  0  0  0  0  0
    3.5314    2.4356   -0.9762 O   0  0  0  0  0  0  0  0  0  0  0  0
   -4.3078   -0.9027    0.1470 N   0  0  0  0  0  0  0  0  0  0  0  0
    1.2552    1.3261   -0.5389 N   0  0  0  0  0  0  0  0  0  0  0  0
   -3.3153    0.1440   -0.0343 C   0  0  1  0  0  0  0  0  0  0  0  0
   -2.0525   -0.0665    0.7805 C   0  0  1  0  0  0  0  0  0  0  0  0
   -1.0706    0.8282    0.0361 C   0  0  1  0  0  0  0  0  0  0  0  0
   -2.7570    0.1919   -1.4471 C   0  0  0  0  0  0  0  0  0  0  0  0
    0.3776    0.4082    0.2135 C   0  0  0  0  0  0  0  0  0  0  0  0
   -5.6053   -0.4925   -0.3766 C   0  0  0  0  0  0  0  0  0  0  0  0
   -6.4497   -1.7291   -0.6670 C   0  0  0  0  0  0  0  0  0  0  0  0
   -6.3080    0.4306    0.6150 C   0  0  0  0  0  0  0  0  0  0  0  0
    3.5546    0.0392    0.0149 C   0  0  0  0  0  0  0  0  0  0  0  0
    4.2103   -0.4259   -1.1250 C   0  0  0  0  0  0  0  0  0  0  0  0
    3.4685   -0.7688    1.1485 C   0  0  0  0  0  0  0  0  0  0  0  0
    4.7799   -1.6993   -1.1313 C   0  0  0  0  0  0  0  0  0  0  0  0
    4.0380   -2.0420    1.1424 C   0  0  0  0  0  0  0  0  0  0  0  0
    4.6937   -2.5074    0.0025 C   0  0  0  0  0  0  0  0  0  0  0  0
   -3.7172    1.1279    0.2373 H   0  0  0  0  0  0  0  0  0  0  0  0
   -1.7331   -1.1157    0.7498 H   0  0  0  0  0  0  0  0  0  0  0  0
   -1.1857    1.8759    0.3441 H   0  0  0  0  0  0  0  0  0  0  0  0
   -2.6569   -0.8061   -1.8895 H   0  0  0  0  0  0  0  0  0  0  0  0
   -3.3587    0.8088   -2.1213 H   0  0  0  0  0  0  0  0  0  0  0  0
    0.5318   -0.6008   -0.1849 H   0  0  0  0  0  0  0  0  0  0  0  0
    0.6331    0.4166    1.2773 H   0  0  0  0  0  0  0  0  0  0  0  0
   -4.3911   -1.1401    1.1350 H   0  0  0  0  0  0  0  0  0  0  0  0
   -5.4929    0.0372   -1.3306 H   0  0  0  0  0  0  0  0  0  0  0  0
   -2.4878    1.2542    2.1507 H   0  0  0  0  0  0  0  0  0  0  0  0
    1.0717    1.3920   -1.5479 H   0  0  0  0  0  0  0  0  0  0  0  0
   -7.4221   -1.4456   -1.0842 H   0  0  0  0  0  0  0  0  0  0  0  0
   -5.9534   -2.3808   -1.3949 H   0  0  0  0  0  0  0  0  0  0  0  0
   -6.6325   -2.3141    0.2415 H   0  0  0  0  0  0  0  0  0  0  0  0
   -7.3083    0.6892    0.2492 H   0  0  0  0  0  0  0  0  0  0  0  0
   -5.7726    1.3723    0.7663 H   0  0  0  0  0  0  0  0  0  0  0  0
   -6.4323   -0.0489    1.5928 H   0  0  0  0  0  0  0  0  0  0  0  0
    4.2824    0.1830   -2.0216 H   0  0  0  0  0  0  0  0  0  0  0  0
    2.9602   -0.4281    2.0460 H   0  0  0  0  0  0  0  0  0  0  0  0
    5.2887   -2.0625   -2.0194 H   0  0  0  0  0  0  0  0  0  0  0  0
    3.9701   -2.6717    2.0247 H   0  0  0  0  0  0  0  0  0  0  0  0
    5.1365   -3.4991   -0.0025 H   0  0  0  0  0  0  0  0  0  0  0  0
  1  4  2  0  0  0  0
  1  5  2  0  0  0  0
  1  7  1  0  0  0  0
  1 16  1  0  0  0  0
  2 10  1  0  0  0  0
  2 11  1  0  0  0  0
  3  9  1  0  0  0  0
  3 31  1  0  0  0  0
  6  8  1  0  0  0  0
  6 13  1  0  0  0  0
  6 29  1  0  0  0  0
  7 12  1  0  0  0  0
  7 32  1  0  0  0  0
  8  9  1  0  0  0  0
  8 11  1  0  0  0  0
  8 22  1  0  0  0  0
  9 10  1  0  0  0  0
  9 23  1  0  0  0  0
 10 12  1  0  0  0  0
 10 24  1  0  0  0  0
 11 25  1  0  0  0  0
 11 26  1  0  0  0  0
 12 27  1  0  0  0  0
 12 28  1  0  0  0  0
 13 14  1  0  0  0  0
 13 15  1  0  0  0  0
 13 30  1  0  0  0  0
 14 33  1  0  0  0  0
 14 34  1  0  0  0  0
 14 35  1  0  0  0  0
 15 36  1  0  0  0  0
 15 37  1  0  0  0  0
 15 38  1  0  0  0  0
 16 17  2  0  0  0  0
 16 18  1  0  0  0  0
 17 19  1  0  0  0  0
 17 39  1  0  0  0  0
 18 20  2  0  0  0  0
 18 40  1  0  0  0  0
 19 21  2  0  0  0  0
 19 41  1  0  0  0  0
 20 21  1  0  0  0  0
 20 42  1  0  0  0  0
 21 43  1  0  0  0  0
M  END
> <PUBCHEM_COMPOUND_CID>
75536675

> <PUBCHEM_CONFORMER_RMSD>
0.8

> <PUBCHEM_CONFORMER_DIVERSEORDER>
1
104
62
70
84
37
2
39
58
64
55
91
103
63
33
25
100
35
19
46
71
10
93
99
34
98
7
30
85
50
102
78
6
9
38
101
73
87
21
82
59
29
76
57
67
96
31
92
56
66
32
26
42
95
75
72
41
22
53
11
89
65
27
80
23
49
77
81
86
28
48
88
60
54
47
69
94
43
68
36
5
45
20
90
15
8
44
83
14
74
97
3
12
18
52
40
24
61
4
79
51
17
16
13

> <PUBCHEM_MMFF94_PARTIAL_CHARGES>
27
1 1.45
10 0.28
11 0.28
12 0.36
13 0.27
16 -0.01
17 -0.15
18 -0.15
19 -0.15
2 -0.56
20 -0.15
21 -0.15
29 0.36
3 -0.68
31 0.4
32 0.42
39 0.15
4 -0.65
40 0.15
41 0.15
42 0.15
43 0.15
5 -0.65
6 -0.9
7 -0.91
8 0.27
9 0.28

> <PUBCHEM_EFFECTIVE_ROTOR_COUNT>
7

> <PUBCHEM_PHARMACOPHORE_FEATURES>
11
1 2 acceptor
1 3 acceptor
1 3 donor
1 4 acceptor
1 5 acceptor
1 6 cation
1 6 donor
1 7 donor
3 13 14 15 hydrophobe
5 2 8 9 10 11 rings
6 16 17 18 19 20 21 rings

> <PUBCHEM_HEAVY_ATOM_COUNT>
21

> <PUBCHEM_ATOM_DEF_STEREO_COUNT>
3

> <PUBCHEM_ATOM_UDEF_STEREO_COUNT>
0

> <PUBCHEM_BOND_DEF_STEREO_COUNT>
0

> <PUBCHEM_BOND_UDEF_STEREO_COUNT>
0

> <PUBCHEM_ISOTOPIC_ATOM_COUNT>
0

> <PUBCHEM_COMPONENT_COUNT>
1

> <PUBCHEM_CACTVS_TAUTO_COUNT>
1

> <PUBCHEM_CONFORMER_ID>
0480992300000001

> <PUBCHEM_MMFF94_ENERGY>
26.7409

> <PUBCHEM_FEATURE_SELFOVERLAP>
55.839

> <PUBCHEM_SHAPE_FINGERPRINT>
10366900 7 17603874360078906594
10498660 4 14418145010521580918
10670039 82 14490746802549034102
12236239 1 18060703892267651017
125118 31 10015599311297441879
12596602 18 17775564242990667595
12616971 3 17846207869812977757
13167823 11 18412824711656030559
13533116 47 18343021120470286585
13955234 65 18338796840173961696
14211702 104 18265335187257629907
15110567 62 18187364281449939202
15183329 4 18335981991827672903
15475509 8 17313104104025685309
17349148 13 17917996074690743007
17844677 252 18187363225320306165
17857418 61 18342176661323068203
1813 80 18200884955157449164
19784866 240 18272093759829470366
20028762 73 18202560674607409831
20369508 70 18334852801886204192
20645477 70 18334574651029622924
21150785 3 12973893645661455515
21344244 78 17561071506523553424
21641784 216 14923931324614150231
21792934 111 15195018111560857539
220451 1 18271815682915481583
22061861 79 18260821601582688367
221357 26 17968095291898086564
2215653 11 17821446859402684179
22224240 67 18267574888348545608
22849339 104 15792027700588665443
2303208 19 17385731313821822523
23081809 10 18059576923504840925
23557571 272 16805313405974421476
23559900 14 17095532823934223911
23596394 208 17676203555148159242
239999 70 18335703866835879830
2838139 119 9438032407288852283
3004659 81 18343022198354233358
312423 11 18342466923702932216
3472631 163 12252483149680864650
34797466 226 14129352771048773299
4072396 5 16630529523006134421
46194498 28 17385729110250477044
465052 167 18343304755937288942
5104073 3 17846222193850806355
5281201 14 18113333102831619308
5374978 207 15482672394104083257
59682541 52 18113326506152261935
6025842 7 18262801886549191916
7970288 3 18269557126939950726
960060 61 17821736026533933966

> <PUBCHEM_SHAPE_MULTIPOLES>
402.58
15.14
2.2
1.4
17
0.09
0.21
8.07
-1.22
-3.34
-0.04
-0.3
-0.06
-0.58

> <PUBCHEM_SHAPE_SELFOVERLAP>
810.61

> <PUBCHEM_SHAPE_VOLUME>
237.4

> <PUBCHEM_COORDINATE_TYPE>
2
5
10

$$$$
