11941709
  -OEChem-12032416153D

 47 50  0     1  0  0  0  0  0999 V2000
    3.7653   -1.9617   -0.0955 S   0  0  0  0  0  0  0  0  0  0  0  0
    3.8487   -2.4102   -1.4684 O   0  0  0  0  0  0  0  0  0  0  0  0
    3.1224   -2.7586    0.9267 O   0  0  0  0  0  0  0  0  0  0  0  0
   -1.4052    0.7261   -1.8991 O   0  0  0  0  0  0  0  0  0  0  0  0
    3.0960   -0.3873   -0.0695 N   0  0  2  0  0  0  0  0  0  0  0  0
    0.3457    1.1295   -0.4123 N   0  0  0  0  0  0  0  0  0  0  0  0
    2.6899    1.8055   -1.1924 C   0  0  1  0  0  0  0  0  0  0  0  0
    2.2264    1.5613    1.2069 C   0  0  2  0  0  0  0  0  0  0  0  0
    2.7790    2.5156    0.1519 C   0  0  0  0  0  0  0  0  0  0  0  0
    3.5236    0.5137   -1.1777 C   0  0  0  0  0  0  0  0  0  0  0  0
    3.0971    0.2928    1.2603 C   0  0  0  0  0  0  0  0  0  0  0  0
    1.2145    1.5467   -1.5217 C   0  0  0  0  0  0  0  0  0  0  0  0
    0.7828    1.1983    0.9125 C   0  0  0  0  0  0  0  0  0  0  0  0
   -0.0654    0.9239    1.9164 C   0  0  0  0  0  0  0  0  0  0  0  0
   -0.9734    0.7636   -0.7455 C   0  0  0  0  0  0  0  0  0  0  0  0
   -1.8905    0.4265    0.3994 C   0  0  0  0  0  0  0  0  0  0  0  0
   -1.4190    0.5267    1.6512 C   0  0  0  0  0  0  0  0  0  0  0  0
    5.4079   -1.5821    0.4578 C   0  0  0  0  0  0  0  0  0  0  0  0
   -3.2764   -0.0138    0.1633 C   0  0  0  0  0  0  0  0  0  0  0  0
   -3.5937   -1.3641   -0.0013 C   0  0  0  0  0  0  0  0  0  0  0  0
   -4.2876    0.9477    0.1046 C   0  0  0  0  0  0  0  0  0  0  0  0
   -4.9155   -1.7505   -0.2234 C   0  0  0  0  0  0  0  0  0  0  0  0
   -2.5400   -2.4230    0.0548 C   0  0  0  0  0  0  0  0  0  0  0  0
   -5.6093    0.5612   -0.1176 C   0  0  0  0  0  0  0  0  0  0  0  0
   -5.9233   -0.7877   -0.2816 C   0  0  0  0  0  0  0  0  0  0  0  0
    3.1044    2.4538   -1.9746 H   0  0  0  0  0  0  0  0  0  0  0  0
    2.2877    2.0619    2.1823 H   0  0  0  0  0  0  0  0  0  0  0  0
    2.2062    3.4514    0.1340 H   0  0  0  0  0  0  0  0  0  0  0  0
    3.8190    2.7801    0.3785 H   0  0  0  0  0  0  0  0  0  0  0  0
    3.4028    0.0054   -2.1402 H   0  0  0  0  0  0  0  0  0  0  0  0
    4.5814    0.7719   -1.0589 H   0  0  0  0  0  0  0  0  0  0  0  0
    4.1180    0.5776    1.5371 H   0  0  0  0  0  0  0  0  0  0  0  0
    2.7107   -0.3882    2.0267 H   0  0  0  0  0  0  0  0  0  0  0  0
    0.7740    2.4766   -1.9070 H   0  0  0  0  0  0  0  0  0  0  0  0
    1.1232    0.8125   -2.3321 H   0  0  0  0  0  0  0  0  0  0  0  0
    0.2501    0.9628    2.9538 H   0  0  0  0  0  0  0  0  0  0  0  0
   -2.0382    0.2936    2.5127 H   0  0  0  0  0  0  0  0  0  0  0  0
    5.3894   -1.2404    1.4928 H   0  0  0  0  0  0  0  0  0  0  0  0
    5.9851   -2.5099    0.4103 H   0  0  0  0  0  0  0  0  0  0  0  0
    5.8721   -0.8497   -0.2023 H   0  0  0  0  0  0  0  0  0  0  0  0
   -4.0610    2.0041    0.2292 H   0  0  0  0  0  0  0  0  0  0  0  0
   -5.1788   -2.7969   -0.3530 H   0  0  0  0  0  0  0  0  0  0  0  0
   -1.7694   -2.2445   -0.7024 H   0  0  0  0  0  0  0  0  0  0  0  0
   -2.0768   -2.4542    1.0464 H   0  0  0  0  0  0  0  0  0  0  0  0
   -2.9541   -3.4186   -0.1399 H   0  0  0  0  0  0  0  0  0  0  0  0
   -6.3940    1.3107   -0.1632 H   0  0  0  0  0  0  0  0  0  0  0  0
   -6.9525   -1.0884   -0.4546 H   0  0  0  0  0  0  0  0  0  0  0  0
  1  2  2  0  0  0  0
  1  3  2  0  0  0  0
  1  5  1  0  0  0  0
  1 18  1  0  0  0  0
  4 15  2  0  0  0  0
  5 10  1  0  0  0  0
  5 11  1  0  0  0  0
  6 12  1  0  0  0  0
  6 13  1  0  0  0  0
  6 15  1  0  0  0  0
  7  9  1  0  0  0  0
  7 10  1  0  0  0  0
  7 12  1  0  0  0  0
  7 26  1  0  0  0  0
  8  9  1  0  0  0  0
  8 11  1  0  0  0  0
  8 13  1  0  0  0  0
  8 27  1  0  0  0  0
  9 28  1  0  0  0  0
  9 29  1  0  0  0  0
 10 30  1  0  0  0  0
 10 31  1  0  0  0  0
 11 32  1  0  0  0  0
 11 33  1  0  0  0  0
 12 34  1  0  0  0  0
 12 35  1  0  0  0  0
 13 14  2  0  0  0  0
 14 17  1  0  0  0  0
 14 36  1  0  0  0  0
 15 16  1  0  0  0  0
 16 17  2  0  0  0  0
 16 19  1  0  0  0  0
 17 37  1  0  0  0  0
 18 38  1  0  0  0  0
 18 39  1  0  0  0  0
 18 40  1  0  0  0  0
 19 20  1  0  0  0  0
 19 21  2  0  0  0  0
 20 22  2  0  0  0  0
 20 23  1  0  0  0  0
 21 24  1  0  0  0  0
 21 41  1  0  0  0  0
 22 25  1  0  0  0  0
 22 42  1  0  0  0  0
 23 43  1  0  0  0  0
 23 44  1  0  0  0  0
 23 45  1  0  0  0  0
 24 25  2  0  0  0  0
 24 46  1  0  0  0  0
 25 47  1  0  0  0  0
M  END
> <PUBCHEM_COMPOUND_CID>
11941709

> <PUBCHEM_CONFORMER_RMSD>
0.6

> <PUBCHEM_CONFORMER_DIVERSEORDER>
2
6
8
5
7
3
4
1

> <PUBCHEM_MMFF94_PARTIAL_CHARGES>
29
1 1.33
10 0.36
11 0.36
12 0.3
13 -0.03
14 -0.15
15 0.62
16 -0.01
17 -0.15
18 0.11
19 0.03
2 -0.65
20 -0.14
21 -0.15
22 -0.15
23 0.14
24 -0.15
25 -0.15
3 -0.65
36 0.15
37 0.15
4 -0.57
41 0.15
42 0.15
46 0.15
47 0.15
5 -0.85
6 -0.47
8 0.14

> <PUBCHEM_EFFECTIVE_ROTOR_COUNT>
3

> <PUBCHEM_PHARMACOPHORE_FEATURES>
7
1 2 acceptor
1 3 acceptor
1 4 acceptor
6 19 20 21 22 24 25 rings
6 5 7 8 9 10 11 rings
6 6 13 14 15 16 17 rings
6 6 7 8 9 12 13 rings

> <PUBCHEM_HEAVY_ATOM_COUNT>
25

> <PUBCHEM_ATOM_DEF_STEREO_COUNT>
2

> <PUBCHEM_ATOM_UDEF_STEREO_COUNT>
0

> <PUBCHEM_BOND_DEF_STEREO_COUNT>
0

> <PUBCHEM_BOND_UDEF_STEREO_COUNT>
0

> <PUBCHEM_ISOTOPIC_ATOM_COUNT>
0

> <PUBCHEM_COMPONENT_COUNT>
1

> <PUBCHEM_CACTVS_TAUTO_COUNT>
1

> <PUBCHEM_CONFORMER_ID>
00B6374D00000002

> <PUBCHEM_MMFF94_ENERGY>
66.0786

> <PUBCHEM_FEATURE_SELFOVERLAP>
37.123

> <PUBCHEM_SHAPE_FINGERPRINT>
10498660 4 14490484100805535636
10670039 82 14273729612510855750
11578080 2 18199453395271822280
11796584 16 18202573899206365391
12107183 9 18124038927603491337
12633257 1 18059588953301892915
12788726 201 17346330301117563481
12892183 10 16772950282169946218
13224815 77 14045472167195385753
13533116 47 18342457080017236491
13583140 156 17844803879348173489
13782708 43 17702944881291841095
14251751 18 18410288090806666026
14910302 57 18336535088857189317
15183329 4 18187362095890995965
15475509 35 18059851822449278331
15664445 248 18116160046127209884
15848702 151 18187361052018965477
17349148 13 15698004059024580045
17492 54 17969243221441543158
17492 89 18190183580014517499
17818456 19 18267308638482474169
17857418 61 18413670205895862607
1813 80 17313099765786780941
18186145 218 16153704370975281833
19784866 240 18342179925450506698
20645477 70 18408886252146214468
20775530 9 18049715231426860126
21033648 29 14476971060256269331
21641784 216 14779536856337357671
23559900 14 18342174522287060153
25222932 49 17344338115007828263
2838139 119 7925332014738795058
29717793 49 18187637038391377989
3004659 81 18410291406521399314
338550 245 18337388343808026407
376196 1 16012992313285422796
4072396 5 16630530613975332693
4340502 62 18129656538773619992
46194498 28 17676490561963535628
463206 1 18336546109353426610
484985 159 17403181396346681102
5104073 3 17917999412381356099
633830 44 16950281836569132393
7970288 3 18055921991808893854
8509985 295 17703790323311213013
960060 61 17967542267661546278
9709674 26 18263363753849075251
9841814 1 16845575360971754688
9981440 41 16383404707135250877

> <PUBCHEM_SHAPE_MULTIPOLES>
490.77
11.59
2.65
1.5
8.87
1.39
0.03
5.83
-1.03
-2.57
-0.15
-0.9
-0.47
-0.22

> <PUBCHEM_SHAPE_SELFOVERLAP>
1054.754

> <PUBCHEM_SHAPE_VOLUME>
272.5

> <PUBCHEM_COORDINATE_TYPE>
2
5
10

$$$$
