56775429
  -OEChem-12032416323D

 49 51  0     0  0  0  0  0  0999 V2000
   -7.8983    1.4253    0.0486 F   0  0  0  0  0  0  0  0  0  0  0  0
   -6.6092   -0.0684   -0.8908 F   0  0  0  0  0  0  0  0  0  0  0  0
   -7.1590   -0.2495    1.2421 F   0  0  0  0  0  0  0  0  0  0  0  0
    1.0216   -3.7866    0.7036 O   0  0  0  0  0  0  0  0  0  0  0  0
    3.7516    1.6421    0.0187 O   0  0  0  0  0  0  0  0  0  0  0  0
   -5.7122    1.4056    0.6104 O   0  0  0  0  0  0  0  0  0  0  0  0
    0.1828   -0.9164    0.2432 N   0  0  0  0  0  0  0  0  0  0  0  0
    2.6881    1.0000   -0.6041 N   0  0  0  0  0  0  0  0  0  0  0  0
    7.1566    0.9722    0.2351 N   0  0  0  0  0  0  0  0  0  0  0  0
    1.1855   -1.8675   -0.2162 C   0  0  0  0  0  0  0  0  0  0  0  0
    0.5016   -3.1980   -0.5103 C   0  0  0  0  0  0  0  0  0  0  0  0
    1.7723   -2.5856    0.9938 C   0  0  0  0  0  0  0  0  0  0  0  0
    2.1371   -1.2739   -1.2635 C   0  0  0  0  0  0  0  0  0  0  0  0
    3.0446   -0.2865   -0.6575 C   0  0  0  0  0  0  0  0  0  0  0  0
   -0.5689   -0.4006   -0.8984 C   0  0  0  0  0  0  0  0  0  0  0  0
    4.3101   -0.5136   -0.0896 C   0  0  0  0  0  0  0  0  0  0  0  0
   -1.9382    0.0798   -0.4971 C   0  0  0  0  0  0  0  0  0  0  0  0
    4.7111    0.7305    0.3202 C   0  0  0  0  0  0  0  0  0  0  0  0
    5.9454    1.2549    1.0046 C   0  0  0  0  0  0  0  0  0  0  0  0
   -2.1915    1.4467   -0.3831 C   0  0  0  0  0  0  0  0  0  0  0  0
   -2.9533   -0.8415   -0.2390 C   0  0  0  0  0  0  0  0  0  0  0  0
   -3.4598    1.8924   -0.0114 C   0  0  0  0  0  0  0  0  0  0  0  0
   -4.2216   -0.3960    0.1328 C   0  0  0  0  0  0  0  0  0  0  0  0
   -4.4748    0.9710    0.2466 C   0  0  0  0  0  0  0  0  0  0  0  0
    7.2790    1.9033   -0.8859 C   0  0  0  0  0  0  0  0  0  0  0  0
    8.3374    1.0487    1.0945 C   0  0  0  0  0  0  0  0  0  0  0  0
   -6.8378    0.6113    0.2530 C   0  0  0  0  0  0  0  0  0  0  0  0
   -0.5922   -3.2332   -0.5229 H   0  0  0  0  0  0  0  0  0  0  0  0
    0.8762   -3.7349   -1.3886 H   0  0  0  0  0  0  0  0  0  0  0  0
    2.8445   -2.8017    0.9584 H   0  0  0  0  0  0  0  0  0  0  0  0
    1.5279   -2.1896    1.9852 H   0  0  0  0  0  0  0  0  0  0  0  0
    1.6163   -0.8602   -2.1339 H   0  0  0  0  0  0  0  0  0  0  0  0
    2.7509   -2.0871   -1.6765 H   0  0  0  0  0  0  0  0  0  0  0  0
    0.5485   -0.1384    0.7913 H   0  0  0  0  0  0  0  0  0  0  0  0
   -0.7167   -1.1510   -1.6868 H   0  0  0  0  0  0  0  0  0  0  0  0
   -0.0267    0.4281   -1.3700 H   0  0  0  0  0  0  0  0  0  0  0  0
    4.8537   -1.4417    0.0078 H   0  0  0  0  0  0  0  0  0  0  0  0
    5.8421    2.3251    1.2262 H   0  0  0  0  0  0  0  0  0  0  0  0
    5.9883    0.7412    1.9747 H   0  0  0  0  0  0  0  0  0  0  0  0
   -1.4098    2.1759   -0.5787 H   0  0  0  0  0  0  0  0  0  0  0  0
   -2.7668   -1.9091   -0.3173 H   0  0  0  0  0  0  0  0  0  0  0  0
   -3.6512    2.9584    0.0763 H   0  0  0  0  0  0  0  0  0  0  0  0
   -4.9716   -1.1472    0.3616 H   0  0  0  0  0  0  0  0  0  0  0  0
    7.3503    2.9460   -0.5549 H   0  0  0  0  0  0  0  0  0  0  0  0
    8.1729    1.6725   -1.4767 H   0  0  0  0  0  0  0  0  0  0  0  0
    6.4289    1.8165   -1.5714 H   0  0  0  0  0  0  0  0  0  0  0  0
    9.2441    0.8166    0.5246 H   0  0  0  0  0  0  0  0  0  0  0  0
    8.4576    2.0409    1.5446 H   0  0  0  0  0  0  0  0  0  0  0  0
    8.2785    0.3080    1.8999 H   0  0  0  0  0  0  0  0  0  0  0  0
  1 27  1  0  0  0  0
  2 27  1  0  0  0  0
  3 27  1  0  0  0  0
  4 11  1  0  0  0  0
  4 12  1  0  0  0  0
  5  8  1  0  0  0  0
  5 18  1  0  0  0  0
  6 24  1  0  0  0  0
  6 27  1  0  0  0  0
  7 10  1  0  0  0  0
  7 15  1  0  0  0  0
  7 34  1  0  0  0  0
  8 14  2  0  0  0  0
  9 19  1  0  0  0  0
  9 25  1  0  0  0  0
  9 26  1  0  0  0  0
 10 11  1  0  0  0  0
 10 12  1  0  0  0  0
 10 13  1  0  0  0  0
 11 28  1  0  0  0  0
 11 29  1  0  0  0  0
 12 30  1  0  0  0  0
 12 31  1  0  0  0  0
 13 14  1  0  0  0  0
 13 32  1  0  0  0  0
 13 33  1  0  0  0  0
 14 16  1  0  0  0  0
 15 17  1  0  0  0  0
 15 35  1  0  0  0  0
 15 36  1  0  0  0  0
 16 18  2  0  0  0  0
 16 37  1  0  0  0  0
 17 20  2  0  0  0  0
 17 21  1  0  0  0  0
 18 19  1  0  0  0  0
 19 38  1  0  0  0  0
 19 39  1  0  0  0  0
 20 22  1  0  0  0  0
 20 40  1  0  0  0  0
 21 23  2  0  0  0  0
 21 41  1  0  0  0  0
 22 24  2  0  0  0  0
 22 42  1  0  0  0  0
 23 24  1  0  0  0  0
 23 43  1  0  0  0  0
 25 44  1  0  0  0  0
 25 45  1  0  0  0  0
 25 46  1  0  0  0  0
 26 47  1  0  0  0  0
 26 48  1  0  0  0  0
 26 49  1  0  0  0  0
M  END
> <PUBCHEM_COMPOUND_CID>
56775429

> <PUBCHEM_CONFORMER_RMSD>
1

> <PUBCHEM_CONFORMER_DIVERSEORDER>
2
36
129
97
64
43
44
123
115
131
54
133
48
28
51
121
82
80
84
106
73
103
124
77
92
117
119
102
83
27
16
88
114
127
100
49
81
17
126
99
86
116
52
107
14
23
34
3
31
11
59
42
45
46
135
132
94
53
33
93
37
113
60
109
22
24
134
130
90
79
58
120
125
63
20
74
15
89
110
67
65
8
55
98
75
18
70
112
38
69
128
61
118
111
72
19
96
29
122
91
78
57
35
26
101
62
21
10
9
30
47
108
71
56
1
50
40
5
4
68
104
32
105
85
41
95
7
66
6
13
76
25
87
12
39

> <PUBCHEM_MMFF94_PARTIAL_CHARGES>
33
1 -0.34
10 0.21
11 0.26
12 0.26
13 0.18
14 0.11
15 0.41
16 -0.15
17 -0.14
18 -0.04
19 0.45
2 -0.34
20 -0.15
21 -0.15
22 -0.15
23 -0.15
24 0.08
25 0.27
26 0.27
27 1.3
3 -0.34
34 0.36
37 0.15
4 -0.52
40 0.15
41 0.15
42 0.15
43 0.15
5 -0.02
6 -0.36
7 -0.84
8 -0.41
9 -0.81

> <PUBCHEM_EFFECTIVE_ROTOR_COUNT>
9.8

> <PUBCHEM_PHARMACOPHORE_FEATURES>
9
1 4 acceptor
1 6 acceptor
1 7 cation
1 7 donor
1 8 acceptor
1 9 cation
4 4 10 11 12 rings
5 5 8 14 16 18 rings
6 17 20 21 22 23 24 rings

> <PUBCHEM_HEAVY_ATOM_COUNT>
27

> <PUBCHEM_ATOM_DEF_STEREO_COUNT>
0

> <PUBCHEM_ATOM_UDEF_STEREO_COUNT>
0

> <PUBCHEM_BOND_DEF_STEREO_COUNT>
0

> <PUBCHEM_BOND_UDEF_STEREO_COUNT>
0

> <PUBCHEM_ISOTOPIC_ATOM_COUNT>
0

> <PUBCHEM_COMPONENT_COUNT>
1

> <PUBCHEM_CACTVS_TAUTO_COUNT>
1

> <PUBCHEM_CONFORMER_ID>
0362530500000002

> <PUBCHEM_MMFF94_ENERGY>
68.4974

> <PUBCHEM_FEATURE_SELFOVERLAP>
45.671

> <PUBCHEM_SHAPE_FINGERPRINT>
10 15 18114183051147657248
10165383 225 18411135848963709576
10753850 27 9151177541298829620
10835480 77 18261669261093043309
11724838 91 18410291436723060661
11823591 26 18411411826329605422
12592606 108 8430309135269715793
12838862 33 18339908372924569149
13150687 139 18060707182497820470
13533116 47 18042973065127819843
13540713 4 17461427036452724783
13540713 5 12174253963022511318
13685833 64 7853854983982385836
13690498 29 11671789247408479163
14251764 18 18408039628261801604
14257110 125 18412824690022867068
14461889 52 18187936096938195459
15183329 4 10087645883994925653
15475509 35 16226598560745697290
15728490 51 18201155551277781615
15840311 113 17749395906059813284
16126227 98 18339642356099353880
16992610 120 18261688056112192908
18006028 8 8502659207736839242
20567600 254 18409721872467320788
21033648 29 17988065821190026592
21150785 3 15841548587817907357
21403212 168 18408879634271673930
21756936 100 18271235123480537550
21792961 116 12679190426997420740
22224240 67 18408601478761260108
24771293 8 18411703167231576909
249057 3 8718822085704037569
249999 5 18336544898700462042
2838139 119 18059283358147849140
3411729 13 18335983082528404618
4073 2 18334301976346579987
4098825 35 14692027820682645672
4340502 62 18334018272360768775
46194498 28 17344920619952441630
5104073 3 18117848699019806105
5385378 56 18336261263571115562
54076057 127 17917441895045359103
5758199 1 18413109463275952680
59682541 35 18409171043280952177
59682541 52 16916801656517504636
59755656 520 18410284848660414846
6081469 158 9871477508538894744

> <PUBCHEM_SHAPE_MULTIPOLES>
501.28
21.54
2.81
1.01
1.7
2.75
0.02
-17.06
4.74
-1.53
0.3
-0.59
0.11
-0.08

> <PUBCHEM_SHAPE_SELFOVERLAP>
1058.71

> <PUBCHEM_SHAPE_VOLUME>
285.4

> <PUBCHEM_COORDINATE_TYPE>
2
5
10

$$$$
