11912185
  -OEChem-12032416353D

 52 56  0     1  0  0  0  0  0999 V2000
    3.2527   -2.3388    1.4412 O   0  0  0  0  0  0  0  0  0  0  0  0
    1.6132    0.2658    1.9559 O   0  0  0  0  0  0  0  0  0  0  0  0
    6.3596    0.3027   -0.1012 O   0  0  0  0  0  0  0  0  0  0  0  0
    6.7508    2.3715   -1.7786 O   0  0  0  0  0  0  0  0  0  0  0  0
   -6.8689    1.0767   -0.2284 O   0  0  0  0  0  0  0  0  0  0  0  0
   -5.8790    2.8818    1.0241 O   0  0  0  0  0  0  0  0  0  0  0  0
    0.5417   -2.6059   -0.0277 N   0  0  0  0  0  0  0  0  0  0  0  0
    4.2383    1.0532    0.4898 N   0  0  0  0  0  0  0  0  0  0  0  0
   -1.4175   -1.3336   -0.2503 N   0  0  0  0  0  0  0  0  0  0  0  0
   -0.8542   -3.0310   -1.8654 N   0  0  0  0  0  0  0  0  0  0  0  0
    1.6766   -0.6556    0.8542 C   0  0  1  0  0  0  0  0  0  0  0  0
    3.1200   -1.1011    0.7229 C   0  0  1  0  0  0  0  0  0  0  0  0
    0.9274   -1.9240    1.1883 C   0  0  2  0  0  0  0  0  0  0  0  0
    3.9063   -0.0078    1.4096 C   0  0  2  0  0  0  0  0  0  0  0  0
    1.9665   -2.7365    1.9389 C   0  0  0  0  0  0  0  0  0  0  0  0
    2.9357    0.4706    2.4747 C   0  0  0  0  0  0  0  0  0  0  0  0
   -0.6109   -2.3147   -0.7357 C   0  0  0  0  0  0  0  0  0  0  0  0
    5.4455    1.1178   -0.1915 C   0  0  0  0  0  0  0  0  0  0  0  0
    5.5204    2.3358   -1.0872 C   0  0  0  0  0  0  0  0  0  0  0  0
   -2.5324   -1.0761   -0.9650 C   0  0  0  0  0  0  0  0  0  0  0  0
   -1.9864   -2.7213   -2.5306 C   0  0  0  0  0  0  0  0  0  0  0  0
   -2.8715   -1.7440   -2.1240 C   0  0  0  0  0  0  0  0  0  0  0  0
   -3.3736   -0.0308   -0.4330 C   0  0  0  0  0  0  0  0  0  0  0  0
   -4.7554   -0.0712   -0.6470 C   0  0  0  0  0  0  0  0  0  0  0  0
   -2.7983    1.0255    0.2991 C   0  0  0  0  0  0  0  0  0  0  0  0
    6.8487    3.5092   -2.6305 C   0  0  0  0  0  0  0  0  0  0  0  0
   -5.5182    0.9505   -0.1196 C   0  0  0  0  0  0  0  0  0  0  0  0
   -4.9530    1.9814    0.5955 C   0  0  0  0  0  0  0  0  0  0  0  0
   -3.5937    2.0476    0.8226 C   0  0  0  0  0  0  0  0  0  0  0  0
   -7.0905    2.3021    0.4990 C   0  0  0  0  0  0  0  0  0  0  0  0
    1.3140   -0.1257   -0.0324 H   0  0  0  0  0  0  0  0  0  0  0  0
    3.4175   -1.2897   -0.3137 H   0  0  0  0  0  0  0  0  0  0  0  0
    0.0581   -1.7655    1.8368 H   0  0  0  0  0  0  0  0  0  0  0  0
    4.8307   -0.3753    1.8682 H   0  0  0  0  0  0  0  0  0  0  0  0
    1.8530   -3.8190    1.8243 H   0  0  0  0  0  0  0  0  0  0  0  0
    1.9475   -2.5017    3.0089 H   0  0  0  0  0  0  0  0  0  0  0  0
    3.0601    1.5233    2.7463 H   0  0  0  0  0  0  0  0  0  0  0  0
    3.0242   -0.1330    3.3846 H   0  0  0  0  0  0  0  0  0  0  0  0
    1.1612   -3.3021   -0.4266 H   0  0  0  0  0  0  0  0  0  0  0  0
    3.5302    1.7566    0.2977 H   0  0  0  0  0  0  0  0  0  0  0  0
    5.4160    3.2313   -0.4635 H   0  0  0  0  0  0  0  0  0  0  0  0
    4.6913    2.2915   -1.8032 H   0  0  0  0  0  0  0  0  0  0  0  0
   -2.1652   -3.2960   -3.4330 H   0  0  0  0  0  0  0  0  0  0  0  0
   -3.7503   -1.5311   -2.7190 H   0  0  0  0  0  0  0  0  0  0  0  0
   -5.2488   -0.8743   -1.1841 H   0  0  0  0  0  0  0  0  0  0  0  0
   -1.7246    1.0800    0.4666 H   0  0  0  0  0  0  0  0  0  0  0  0
    6.7863    4.4314   -2.0447 H   0  0  0  0  0  0  0  0  0  0  0  0
    6.0592    3.4882   -3.3880 H   0  0  0  0  0  0  0  0  0  0  0  0
    7.8186    3.4787   -3.1340 H   0  0  0  0  0  0  0  0  0  0  0  0
   -3.1523    2.8630    1.3843 H   0  0  0  0  0  0  0  0  0  0  0  0
   -7.7715    2.0969    1.3330 H   0  0  0  0  0  0  0  0  0  0  0  0
   -7.5646    3.0277   -0.1720 H   0  0  0  0  0  0  0  0  0  0  0  0
  1 12  1  0  0  0  0
  1 15  1  0  0  0  0
  2 11  1  0  0  0  0
  2 16  1  0  0  0  0
  3 18  2  0  0  0  0
  4 19  1  0  0  0  0
  4 26  1  0  0  0  0
  5 27  1  0  0  0  0
  5 30  1  0  0  0  0
  6 28  1  0  0  0  0
  6 30  1  0  0  0  0
  7 13  1  0  0  0  0
  7 17  1  0  0  0  0
  7 39  1  0  0  0  0
  8 14  1  0  0  0  0
  8 18  1  0  0  0  0
  8 40  1  0  0  0  0
  9 17  1  0  0  0  0
  9 20  2  0  0  0  0
 10 17  2  0  0  0  0
 10 21  1  0  0  0  0
 11 12  1  0  0  0  0
 11 13  1  0  0  0  0
 11 31  1  0  0  0  0
 12 14  1  0  0  0  0
 12 32  1  0  0  0  0
 13 15  1  0  0  0  0
 13 33  1  0  0  0  0
 14 16  1  0  0  0  0
 14 34  1  0  0  0  0
 15 35  1  0  0  0  0
 15 36  1  0  0  0  0
 16 37  1  0  0  0  0
 16 38  1  0  0  0  0
 18 19  1  0  0  0  0
 19 41  1  0  0  0  0
 19 42  1  0  0  0  0
 20 22  1  0  0  0  0
 20 23  1  0  0  0  0
 21 22  2  0  0  0  0
 21 43  1  0  0  0  0
 22 44  1  0  0  0  0
 23 24  2  0  0  0  0
 23 25  1  0  0  0  0
 24 27  1  0  0  0  0
 24 45  1  0  0  0  0
 25 29  2  0  0  0  0
 25 46  1  0  0  0  0
 26 47  1  0  0  0  0
 26 48  1  0  0  0  0
 26 49  1  0  0  0  0
 27 28  2  0  0  0  0
 28 29  1  0  0  0  0
 29 50  1  0  0  0  0
 30 51  1  0  0  0  0
 30 52  1  0  0  0  0
M  END
> <PUBCHEM_COMPOUND_CID>
11912185

> <PUBCHEM_CONFORMER_RMSD>
1

> <PUBCHEM_CONFORMER_DIVERSEORDER>
1
12
166
91
92
36
62
143
155
142
85
83
43
79
113
115
60
147
97
73
37
44
172
4
67
47
52
33
137
135
165
55
96
160
99
93
22
118
123
124
63
154
129
120
109
107
78
57
170
127
108
121
103
116
40
158
110
82
133
31
27
112
141
39
14
156
65
38
117
125
18
61
149
80
15
159
77
152
59
81
162
145
87
9
89
20
146
41
167
30
29
53
58
106
164
46
114
64
151
76
75
88
101
16
122
86
132
105
111
102
139
48
21
10
130
168
140
134
169
23
24
157
8
163
171
104
150
51
34
32
7
69
68
6
25
98
28
173
70
26
131
144
126
45
119
128
138
56
71
90
74
84
95
19
50
161
94
13
66
3
17
148
42
35
2
100
5
136
49
72
153
11
54

> <PUBCHEM_MMFF94_PARTIAL_CHARGES>
36
1 -0.56
10 -0.62
11 0.28
12 0.28
13 0.37
14 0.3
15 0.28
16 0.28
17 0.72
18 0.57
19 0.34
2 -0.56
20 0.31
21 0.16
22 -0.15
24 -0.15
25 -0.15
26 0.28
27 0.08
28 0.08
29 -0.15
3 -0.57
30 0.56
39 0.4
4 -0.56
40 0.37
43 0.15
44 0.15
45 0.15
46 0.15
5 -0.36
50 0.15
6 -0.36
7 -0.87
8 -0.73
9 -0.62

> <PUBCHEM_EFFECTIVE_ROTOR_COUNT>
8.8

> <PUBCHEM_PHARMACOPHORE_FEATURES>
15
1 1 acceptor
1 2 acceptor
1 3 acceptor
1 4 acceptor
1 5 acceptor
1 6 acceptor
1 7 donor
1 8 donor
1 9 acceptor
4 7 9 10 17 cation
5 1 11 12 13 15 rings
5 2 11 12 14 16 rings
5 5 6 27 28 30 rings
6 23 24 25 27 28 29 rings
6 9 10 17 20 21 22 rings

> <PUBCHEM_HEAVY_ATOM_COUNT>
30

> <PUBCHEM_ATOM_DEF_STEREO_COUNT>
4

> <PUBCHEM_ATOM_UDEF_STEREO_COUNT>
0

> <PUBCHEM_BOND_DEF_STEREO_COUNT>
0

> <PUBCHEM_BOND_UDEF_STEREO_COUNT>
0

> <PUBCHEM_ISOTOPIC_ATOM_COUNT>
0

> <PUBCHEM_COMPONENT_COUNT>
1

> <PUBCHEM_CACTVS_TAUTO_COUNT>
6

> <PUBCHEM_CONFORMER_ID>
00B5C3F900000001

> <PUBCHEM_MMFF94_ENERGY>
86.2831

> <PUBCHEM_FEATURE_SELFOVERLAP>
76.995

> <PUBCHEM_SHAPE_FINGERPRINT>
10670039 82 18201145624568707918
10794284 68 18124044674723810055
11273773 42 18262520411113357212
11374522 72 18188206503847858237
11410812 94 18058171799532986284
1200032 147 18270694081532593018
12342043 65 14925615681706682746
12390115 104 17632574951444571299
13828863 39 17967817184038546730
13885169 86 17968383450181948884
14114211 68 17846505777551158459
14187579 7 17910388725780049680
1454969 45 17845635007977149847
14765038 42 17750521844236168364
14790565 3 17774429496310901897
14840074 17 18187362138419371189
14849402 71 18115584821452733626
15131766 46 17968366952758884597
15183329 4 16702023058630324186
15198563 99 17629740513705714735
15575132 122 18337948987865299757
15685185 35 17897456214301185844
16120349 67 18338247058668760894
16991971 28 17484221313722217735
16992727 255 18343302578985007680
1768 23 18187083992474590964
19304671 126 16558742434023678032
19309040 13 18116447010725746094
19319366 153 18334569101605167234
1979834 28 14418423113996528897
20691028 202 17970072343234816692
21033650 10 18127128796085594226
21315764 119 17989214741942078308
21458453 9 14635730755140001748
21585480 29 15068913013256219265
21756936 100 18336261344637443642
24771750 20 17774167799052591103
27425 322 18335145301870397438
3552219 110 18044931518733516519
3610482 184 18339365279105455116
38570 142 18334021592544263254
4058900 60 18129104429470712683
4258327 124 18187071885130355383
437795 70 15841279163970946761
439807 62 9510875108595189353
45266715 3 13542455454822776830
5252454 2 18270099254432049561
57634706 229 17460046291357903360
57724786 102 18261106336207694986
5911458 16 18335145310323409324
6034566 193 18187074092105352247
613672 6 12612752394023798635
7808743 9 17988063557230850555

> <PUBCHEM_SHAPE_MULTIPOLES>
562.25
17.87
4.01
2.31
3.52
0.07
-0.69
22.87
-4.46
1.29
-1.66
2.69
-0.43
-6.7

> <PUBCHEM_SHAPE_SELFOVERLAP>
1232.984

> <PUBCHEM_SHAPE_VOLUME>
303

> <PUBCHEM_COORDINATE_TYPE>
2
5
10

$$$$
