40779648
  -OEChem-12032416253D

 61 64  0     1  0  0  0  0  0999 V2000
   -2.0461    1.9853   -1.8143 O   0  0  0  0  0  0  0  0  0  0  0  0
    2.3456    2.1614   -0.6279 N   0  0  2  0  0  0  0  0  0  0  0  0
    4.9768   -1.3289   -0.0549 N   0  0  0  0  0  0  0  0  0  0  0  0
   -0.8776    0.2066   -0.8962 N   0  0  0  0  0  0  0  0  0  0  0  0
   -6.8908   -1.3172    0.6920 N   0  0  0  0  0  0  0  0  0  0  0  0
    2.6053    1.1082    1.7365 C   0  0  2  0  0  0  0  0  0  0  0  0
    3.7123    0.6035    0.7830 C   0  0  2  0  0  0  0  0  0  0  0  0
    1.0601    1.5460   -0.2003 C   0  0  2  0  0  0  0  0  0  0  0  0
    1.2261    0.7841    1.1335 C   0  0  0  0  0  0  0  0  0  0  0  0
    3.4251    1.1447   -0.6356 C   0  0  0  0  0  0  0  0  0  0  0  0
    2.7291    2.6429    1.7932 C   0  0  0  0  0  0  0  0  0  0  0  0
    2.7026    3.2071    0.3616 C   0  0  0  0  0  0  0  0  0  0  0  0
    3.8633   -0.9160    0.7863 C   0  0  0  0  0  0  0  0  0  0  0  0
    0.4464    0.6611   -1.2877 C   0  0  0  0  0  0  0  0  0  0  0  0
    6.2700   -1.1573    0.6065 C   0  0  0  0  0  0  0  0  0  0  0  0
    4.9152   -2.7474   -0.4060 C   0  0  0  0  0  0  0  0  0  0  0  0
    7.2079   -1.9879   -0.2570 C   0  0  0  0  0  0  0  0  0  0  0  0
    6.3171   -3.0306   -0.9253 C   0  0  0  0  0  0  0  0  0  0  0  0
   -2.0195    0.9218   -1.2004 C   0  0  0  0  0  0  0  0  0  0  0  0
   -3.2926    0.3368   -0.7067 C   0  0  0  0  0  0  0  0  0  0  0  0
   -4.3833    1.1645   -0.4402 C   0  0  0  0  0  0  0  0  0  0  0  0
   -3.3973   -1.0400   -0.5087 C   0  0  0  0  0  0  0  0  0  0  0  0
   -5.5785    0.6156    0.0244 C   0  0  0  0  0  0  0  0  0  0  0  0
   -4.5923   -1.5890   -0.0440 C   0  0  0  0  0  0  0  0  0  0  0  0
   -5.6829   -0.7612    0.2226 C   0  0  0  0  0  0  0  0  0  0  0  0
   -8.0307   -0.4666    0.9718 C   0  0  0  0  0  0  0  0  0  0  0  0
   -7.0112   -2.7476    0.8936 C   0  0  0  0  0  0  0  0  0  0  0  0
    2.7073    0.6756    2.7373 H   0  0  0  0  0  0  0  0  0  0  0  0
    4.6551    1.0455    1.1349 H   0  0  0  0  0  0  0  0  0  0  0  0
    0.3456    2.3652   -0.0313 H   0  0  0  0  0  0  0  0  0  0  0  0
    1.1146   -0.2979    1.0087 H   0  0  0  0  0  0  0  0  0  0  0  0
    0.4398    1.1005    1.8307 H   0  0  0  0  0  0  0  0  0  0  0  0
    4.3392    1.6000   -1.0395 H   0  0  0  0  0  0  0  0  0  0  0  0
    3.1759    0.3460   -1.3429 H   0  0  0  0  0  0  0  0  0  0  0  0
    3.6621    2.9330    2.2905 H   0  0  0  0  0  0  0  0  0  0  0  0
    1.9037    3.0637    2.3800 H   0  0  0  0  0  0  0  0  0  0  0  0
    1.9891    4.0382    0.3013 H   0  0  0  0  0  0  0  0  0  0  0  0
    3.6784    3.6403    0.1075 H   0  0  0  0  0  0  0  0  0  0  0  0
    2.9418   -1.3621    0.3923 H   0  0  0  0  0  0  0  0  0  0  0  0
    3.9705   -1.2919    1.8120 H   0  0  0  0  0  0  0  0  0  0  0  0
    1.0412   -0.2394   -1.4706 H   0  0  0  0  0  0  0  0  0  0  0  0
    0.3662    1.2126   -2.2316 H   0  0  0  0  0  0  0  0  0  0  0  0
    6.2644   -1.5551    1.6295 H   0  0  0  0  0  0  0  0  0  0  0  0
    6.5929   -0.1124    0.6402 H   0  0  0  0  0  0  0  0  0  0  0  0
    4.1555   -2.9531   -1.1667 H   0  0  0  0  0  0  0  0  0  0  0  0
    4.7107   -3.3731    0.4724 H   0  0  0  0  0  0  0  0  0  0  0  0
    7.9978   -2.4534    0.3413 H   0  0  0  0  0  0  0  0  0  0  0  0
    7.6876   -1.3656   -1.0217 H   0  0  0  0  0  0  0  0  0  0  0  0
    6.3602   -2.9115   -2.0143 H   0  0  0  0  0  0  0  0  0  0  0  0
    6.6357   -4.0501   -0.6859 H   0  0  0  0  0  0  0  0  0  0  0  0
   -0.9205   -0.6316   -0.3271 H   0  0  0  0  0  0  0  0  0  0  0  0
   -4.3195    2.2399   -0.5839 H   0  0  0  0  0  0  0  0  0  0  0  0
   -2.5845   -1.7239   -0.7346 H   0  0  0  0  0  0  0  0  0  0  0  0
   -6.3975    1.3013    0.2179 H   0  0  0  0  0  0  0  0  0  0  0  0
   -4.6259   -2.6661    0.0872 H   0  0  0  0  0  0  0  0  0  0  0  0
   -8.8895   -1.0453    1.3298 H   0  0  0  0  0  0  0  0  0  0  0  0
   -8.3633    0.0588    0.0696 H   0  0  0  0  0  0  0  0  0  0  0  0
   -7.7979    0.2618    1.7565 H   0  0  0  0  0  0  0  0  0  0  0  0
   -8.0068   -3.0225    1.2595 H   0  0  0  0  0  0  0  0  0  0  0  0
   -6.2955   -3.1035    1.6430 H   0  0  0  0  0  0  0  0  0  0  0  0
   -6.8630   -3.2936   -0.0448 H   0  0  0  0  0  0  0  0  0  0  0  0
  1 19  2  0  0  0  0
  2  8  1  0  0  0  0
  2 10  1  0  0  0  0
  2 12  1  0  0  0  0
  3 13  1  0  0  0  0
  3 15  1  0  0  0  0
  3 16  1  0  0  0  0
  4 14  1  0  0  0  0
  4 19  1  0  0  0  0
  4 51  1  0  0  0  0
  5 25  1  0  0  0  0
  5 26  1  0  0  0  0
  5 27  1  0  0  0  0
  6  7  1  0  0  0  0
  6  9  1  0  0  0  0
  6 11  1  0  0  0  0
  6 28  1  0  0  0  0
  7 10  1  0  0  0  0
  7 13  1  0  0  0  0
  7 29  1  0  0  0  0
  8  9  1  0  0  0  0
  8 14  1  0  0  0  0
  8 30  1  0  0  0  0
  9 31  1  0  0  0  0
  9 32  1  0  0  0  0
 10 33  1  0  0  0  0
 10 34  1  0  0  0  0
 11 12  1  0  0  0  0
 11 35  1  0  0  0  0
 11 36  1  0  0  0  0
 12 37  1  0  0  0  0
 12 38  1  0  0  0  0
 13 39  1  0  0  0  0
 13 40  1  0  0  0  0
 14 41  1  0  0  0  0
 14 42  1  0  0  0  0
 15 17  1  0  0  0  0
 15 43  1  0  0  0  0
 15 44  1  0  0  0  0
 16 18  1  0  0  0  0
 16 45  1  0  0  0  0
 16 46  1  0  0  0  0
 17 18  1  0  0  0  0
 17 47  1  0  0  0  0
 17 48  1  0  0  0  0
 18 49  1  0  0  0  0
 18 50  1  0  0  0  0
 19 20  1  0  0  0  0
 20 21  2  0  0  0  0
 20 22  1  0  0  0  0
 21 23  1  0  0  0  0
 21 52  1  0  0  0  0
 22 24  2  0  0  0  0
 22 53  1  0  0  0  0
 23 25  2  0  0  0  0
 23 54  1  0  0  0  0
 24 25  1  0  0  0  0
 24 55  1  0  0  0  0
 26 56  1  0  0  0  0
 26 57  1  0  0  0  0
 26 58  1  0  0  0  0
 27 59  1  0  0  0  0
 27 60  1  0  0  0  0
 27 61  1  0  0  0  0
M  END
> <PUBCHEM_COMPOUND_CID>
40779648

> <PUBCHEM_CONFORMER_RMSD>
1

> <PUBCHEM_CONFORMER_DIVERSEORDER>
1
39
42
11
41
50
13
32
45
34
24
26
16
28
46
12
31
33
37
27
8
10
29
49
18
43
35
14
38
7
36
15
40
47
19
23
48
6
20
21
4
9
17
30
51
25
5
22
3
2
44

> <PUBCHEM_MMFF94_PARTIAL_CHARGES>
26
1 -0.57
10 0.27
12 0.27
13 0.27
14 0.3
15 0.27
16 0.27
19 0.54
2 -0.81
20 0.09
21 -0.15
22 -0.15
23 -0.15
24 -0.15
25 0.1
26 0.37
27 0.37
3 -0.81
4 -0.73
5 -0.84
51 0.37
52 0.15
53 0.15
54 0.15
55 0.15
8 0.27

> <PUBCHEM_EFFECTIVE_ROTOR_COUNT>
9.2

> <PUBCHEM_PHARMACOPHORE_FEATURES>
8
1 1 acceptor
1 2 cation
1 3 cation
1 4 donor
1 5 cation
5 3 15 16 17 18 rings
6 20 21 22 23 24 25 rings
8 2 6 7 8 9 10 11 12 rings

> <PUBCHEM_HEAVY_ATOM_COUNT>
27

> <PUBCHEM_ATOM_DEF_STEREO_COUNT>
3

> <PUBCHEM_ATOM_UDEF_STEREO_COUNT>
0

> <PUBCHEM_BOND_DEF_STEREO_COUNT>
0

> <PUBCHEM_BOND_UDEF_STEREO_COUNT>
0

> <PUBCHEM_ISOTOPIC_ATOM_COUNT>
0

> <PUBCHEM_COMPONENT_COUNT>
1

> <PUBCHEM_CACTVS_TAUTO_COUNT>
2

> <PUBCHEM_CONFORMER_ID>
026E3F8000000001

> <PUBCHEM_MMFF94_ENERGY>
80.0628

> <PUBCHEM_FEATURE_SELFOVERLAP>
40.597

> <PUBCHEM_SHAPE_FINGERPRINT>
10316853 100 18261115183666712834
10319926 262 18411978040663938877
10666366 153 17748820818549645767
11456790 92 17704082789810790235
11545043 162 18334850589625119333
11638347 137 18412830218648382827
12107183 9 17989769990507791615
12342043 65 18408600361790506725
12596602 18 18338237193493210817
12616971 3 17203323451217646917
13103583 49 15840968028530058996
13150687 139 12685098034707373080
13402501 40 18409729526231606150
13533116 47 18341050812829115929
13673619 4 18334013869676119940
13685833 64 18409449172214427186
13690498 29 17895470332527331276
13782708 43 18410290320184849775
13911987 19 13045946789654387005
13955234 65 18270954778159639424
14251740 57 18187364380439278397
14251764 30 18336543794877470878
14341114 176 18413385449384991193
14347424 109 18131351938258628361
14420673 8 18339080385013438791
14556957 393 14273738400235860255
14767858 380 14996287989793015470
14950920 106 17988927807866852755
15289351 153 10665221554601836526
15352257 5 18334579044343823347
15961568 22 10087920778808127354
16120349 189 8790298047065870146
17980427 23 13541878240987780592
1813 80 16588296224784452205
18222031 100 16443056232002635005
20505436 4 17343782870611422876
20511986 3 11527950024108898545
20567600 254 8142074382688279846
20715895 44 10807931578884677086
20721686 146 11455881482563402394
20737093 207 17315064461067545066
21049683 271 18408606972826967396
21130935 74 18268433602545057515
21150785 3 12973607742320261339
21267235 1 18040157318911833047
21298829 104 10663825187071032011
21365058 113 18259991453034626004
21521239 73 14635147860149170904
21716022 299 18337408084448709236
21968339 14 11818988600318368958
23522609 53 17825418247752162900
23559900 14 18333723615712637309
3178227 256 18272934916664419790
3552219 110 17561084688595862144
437815 12 18411420579446262626
439807 62 18113902628401147406
46194498 28 18113615695095861060
465052 167 18343022186001958340
5104073 3 16486397927806989671
54039377 194 18410858720937280966
54076057 127 18116162236402131688
56633871 153 18341326786427584703
57307002 103 18267866253637958664
57634706 306 11675466079259817734
58260988 587 18191871335064588432
6058803 2 16053753343545886604
636775 8 18339088073844019862
8863177 126 18408882957927780746
9831232 110 18334296444286245495
9962374 69 18270949249924553047
999808 66 18412544275650319335

> <PUBCHEM_SHAPE_MULTIPOLES>
529.85
21.05
3.33
1.38
18.38
0.37
0.1
19.63
4.34
-4.39
0.17
-0.09
-0.57
2.73

> <PUBCHEM_SHAPE_SELFOVERLAP>
1115.599

> <PUBCHEM_SHAPE_VOLUME>
296.8

> <PUBCHEM_COORDINATE_TYPE>
2
5
10

$$$$
