51138146
  -OEChem-12032416223D

 63 66  0     1  0  0  0  0  0999 V2000
   -3.0981    2.6412   -0.5038 O   0  0  0  0  0  0  0  0  0  0  0  0
    6.7279   -0.0646   -0.9687 O   0  0  0  0  0  0  0  0  0  0  0  0
   -5.8072    1.4423   -1.1790 O   0  0  0  0  0  0  0  0  0  0  0  0
   -1.9739   -0.2118   -0.2167 N   0  0  0  0  0  0  0  0  0  0  0  0
    2.8069    0.7565    1.0910 N   0  0  0  0  0  0  0  0  0  0  0  0
   -4.1630    1.4286    1.1741 N   0  0  0  0  0  0  0  0  0  0  0  0
    6.1233   -0.0635    0.2825 N   0  0  0  0  0  0  0  0  0  0  0  0
   -1.4596   -1.4593    0.3641 C   0  0  2  0  0  0  0  0  0  0  0  0
    0.0400   -1.4838    0.6766 C   0  0  0  0  0  0  0  0  0  0  0  0
    0.8770   -0.3346    0.7716 C   0  0  0  0  0  0  0  0  0  0  0  0
   -1.8754    0.9505    0.6544 C   0  0  1  0  0  0  0  0  0  0  0  0
   -1.8716   -2.5537   -0.6370 C   0  0  0  0  0  0  0  0  0  0  0  0
    0.6524    1.0797    0.6406 C   0  0  0  0  0  0  0  0  0  0  0  0
   -0.6311    1.7803    0.3440 C   0  0  0  0  0  0  0  0  0  0  0  0
    2.2336   -0.4931    1.0781 C   0  0  0  0  0  0  0  0  0  0  0  0
   -3.3547   -2.9246   -0.5410 C   0  0  0  0  0  0  0  0  0  0  0  0
    1.8654    1.7090    0.8353 C   0  0  0  0  0  0  0  0  0  0  0  0
    0.6509   -2.7286    0.9742 C   0  0  0  0  0  0  0  0  0  0  0  0
   -3.0962    1.7673    0.3592 C   0  0  0  0  0  0  0  0  0  0  0  0
    2.8268   -1.7328    1.3222 C   0  0  0  0  0  0  0  0  0  0  0  0
    4.2011    1.0411    1.3559 C   0  0  0  0  0  0  0  0  0  0  0  0
    2.0055   -2.8519    1.2775 C   0  0  0  0  0  0  0  0  0  0  0  0
   -4.2781   -1.7367   -0.8147 C   0  0  0  0  0  0  0  0  0  0  0  0
   -3.6576   -4.0534   -1.5293 C   0  0  0  0  0  0  0  0  0  0  0  0
    5.0988    0.7866    0.1706 C   0  0  0  0  0  0  0  0  0  0  0  0
   -5.4492    2.0835    1.1056 C   0  0  0  0  0  0  0  0  0  0  0  0
    5.0080    1.3467   -1.1154 C   0  0  0  0  0  0  0  0  0  0  0  0
   -6.3760    1.3911    0.1230 C   0  0  0  0  0  0  0  0  0  0  0  0
    6.0548    0.7789   -1.7924 C   0  0  0  0  0  0  0  0  0  0  0  0
    6.5628    0.8995   -3.1642 C   0  0  0  0  0  0  0  0  0  0  0  0
   -6.6432    0.8097   -2.1383 C   0  0  0  0  0  0  0  0  0  0  0  0
   -1.9733   -1.6479    1.3169 H   0  0  0  0  0  0  0  0  0  0  0  0
   -1.8834    0.6699    1.7162 H   0  0  0  0  0  0  0  0  0  0  0  0
   -1.6180   -2.2506   -1.6637 H   0  0  0  0  0  0  0  0  0  0  0  0
   -1.3122   -3.4809   -0.4834 H   0  0  0  0  0  0  0  0  0  0  0  0
   -0.6144    2.0853   -0.7119 H   0  0  0  0  0  0  0  0  0  0  0  0
   -0.6690    2.7115    0.9262 H   0  0  0  0  0  0  0  0  0  0  0  0
   -1.5469   -0.0296   -1.1242 H   0  0  0  0  0  0  0  0  0  0  0  0
   -3.5670   -3.3012    0.4678 H   0  0  0  0  0  0  0  0  0  0  0  0
    2.1219    2.7601    0.8123 H   0  0  0  0  0  0  0  0  0  0  0  0
    0.0599   -3.6409    1.0075 H   0  0  0  0  0  0  0  0  0  0  0  0
    3.8794   -1.8328    1.5628 H   0  0  0  0  0  0  0  0  0  0  0  0
    4.5058    0.4461    2.2248 H   0  0  0  0  0  0  0  0  0  0  0  0
    4.2842    2.0947    1.6495 H   0  0  0  0  0  0  0  0  0  0  0  0
    2.4213   -3.8328    1.4923 H   0  0  0  0  0  0  0  0  0  0  0  0
   -3.9929   -1.1902   -1.7193 H   0  0  0  0  0  0  0  0  0  0  0  0
   -4.3173   -1.0594    0.0394 H   0  0  0  0  0  0  0  0  0  0  0  0
   -5.3074   -2.0854   -0.9597 H   0  0  0  0  0  0  0  0  0  0  0  0
   -3.4801   -3.7361   -2.5627 H   0  0  0  0  0  0  0  0  0  0  0  0
   -4.7023   -4.3723   -1.4484 H   0  0  0  0  0  0  0  0  0  0  0  0
   -3.0296   -4.9282   -1.3296 H   0  0  0  0  0  0  0  0  0  0  0  0
   -4.0575    0.6754    1.8474 H   0  0  0  0  0  0  0  0  0  0  0  0
   -5.8796    2.0702    2.1115 H   0  0  0  0  0  0  0  0  0  0  0  0
   -5.2907    3.1249    0.8047 H   0  0  0  0  0  0  0  0  0  0  0  0
    4.2901    2.0579   -1.4965 H   0  0  0  0  0  0  0  0  0  0  0  0
   -6.5232    0.3450    0.4166 H   0  0  0  0  0  0  0  0  0  0  0  0
   -7.3484    1.8966    0.1187 H   0  0  0  0  0  0  0  0  0  0  0  0
    5.9578    1.5988   -3.7496 H   0  0  0  0  0  0  0  0  0  0  0  0
    6.5418   -0.0712   -3.6691 H   0  0  0  0  0  0  0  0  0  0  0  0
    7.5947    1.2640   -3.1620 H   0  0  0  0  0  0  0  0  0  0  0  0
   -7.5994    1.3360   -2.2161 H   0  0  0  0  0  0  0  0  0  0  0  0
   -6.1431    0.8495   -3.1096 H   0  0  0  0  0  0  0  0  0  0  0  0
   -6.8125   -0.2384   -1.8750 H   0  0  0  0  0  0  0  0  0  0  0  0
  1 19  2  0  0  0  0
  2  7  1  0  0  0  0
  2 29  1  0  0  0  0
  3 28  1  0  0  0  0
  3 31  1  0  0  0  0
  4  8  1  0  0  0  0
  4 11  1  0  0  0  0
  4 38  1  0  0  0  0
  5 15  1  0  0  0  0
  5 17  1  0  0  0  0
  5 21  1  0  0  0  0
  6 19  1  0  0  0  0
  6 26  1  0  0  0  0
  6 52  1  0  0  0  0
  7 25  2  0  0  0  0
  8  9  1  0  0  0  0
  8 12  1  0  0  0  0
  8 32  1  0  0  0  0
  9 10  2  0  0  0  0
  9 18  1  0  0  0  0
 10 13  1  0  0  0  0
 10 15  1  0  0  0  0
 11 14  1  0  0  0  0
 11 19  1  0  0  0  0
 11 33  1  0  0  0  0
 12 16  1  0  0  0  0
 12 34  1  0  0  0  0
 12 35  1  0  0  0  0
 13 14  1  0  0  0  0
 13 17  2  0  0  0  0
 14 36  1  0  0  0  0
 14 37  1  0  0  0  0
 15 20  2  0  0  0  0
 16 23  1  0  0  0  0
 16 24  1  0  0  0  0
 16 39  1  0  0  0  0
 17 40  1  0  0  0  0
 18 22  2  0  0  0  0
 18 41  1  0  0  0  0
 20 22  1  0  0  0  0
 20 42  1  0  0  0  0
 21 25  1  0  0  0  0
 21 43  1  0  0  0  0
 21 44  1  0  0  0  0
 22 45  1  0  0  0  0
 23 46  1  0  0  0  0
 23 47  1  0  0  0  0
 23 48  1  0  0  0  0
 24 49  1  0  0  0  0
 24 50  1  0  0  0  0
 24 51  1  0  0  0  0
 25 27  1  0  0  0  0
 26 28  1  0  0  0  0
 26 53  1  0  0  0  0
 26 54  1  0  0  0  0
 27 29  2  0  0  0  0
 27 55  1  0  0  0  0
 28 56  1  0  0  0  0
 28 57  1  0  0  0  0
 29 30  1  0  0  0  0
 30 58  1  0  0  0  0
 30 59  1  0  0  0  0
 30 60  1  0  0  0  0
 31 61  1  0  0  0  0
 31 62  1  0  0  0  0
 31 63  1  0  0  0  0
M  END
> <PUBCHEM_COMPOUND_CID>
51138146

> <PUBCHEM_CONFORMER_RMSD>
1

> <PUBCHEM_CONFORMER_DIVERSEORDER>
1
101
116
65
71
147
93
163
66
15
170
9
17
42
141
162
97
31
150
108
12
119
156
113
167
76
36
91
67
124
164
110
63
74
131
90
85
26
83
111
129
158
166
35
43
144
112
39
70
102
95
51
98
107
143
92
62
115
52
64
38
41
30
68
78
161
4
61
37
114
55
96
160
121
100
72
14
29
57
139
34
10
133
53
171
134
69
132
130
109
104
24
80
6
77
168
148
140
125
118
155
105
120
142
126
137
153
32
19
79
5
152
50
46
40
169
87
7
33
59
49
23
157
89
73
21
146
48
58
117
159
16
13
25
94
28
106
151
18
86
135
138
165
75
99
22
60
82
127
20
128
84
54
136
81
123
44
154
45
8
56
149
27
145
103
88
3
47
2
11
122

> <PUBCHEM_MMFF94_PARTIAL_CHARGES>
33
1 -0.57
11 0.33
13 -0.18
14 0.18
15 -0.15
17 -0.3
18 -0.15
19 0.57
2 -0.02
20 -0.15
21 0.44
22 -0.15
25 0.11
26 0.3
27 -0.15
28 0.28
29 -0.04
3 -0.56
30 0.18
31 0.28
38 0.36
4 -0.9
40 0.15
41 0.15
42 0.15
45 0.15
5 0.05
52 0.37
55 0.15
6 -0.73
7 -0.41
8 0.41
9 -0.14

> <PUBCHEM_EFFECTIVE_ROTOR_COUNT>
9.8

> <PUBCHEM_PHARMACOPHORE_FEATURES>
12
1 1 acceptor
1 3 acceptor
1 4 cation
1 4 donor
1 5 cation
1 6 donor
1 7 acceptor
3 16 23 24 hydrophobe
5 2 7 25 27 29 rings
5 5 10 13 15 17 rings
6 9 10 15 18 20 22 rings
7 4 8 9 10 11 13 14 rings

> <PUBCHEM_HEAVY_ATOM_COUNT>
31

> <PUBCHEM_ATOM_DEF_STEREO_COUNT>
2

> <PUBCHEM_ATOM_UDEF_STEREO_COUNT>
0

> <PUBCHEM_BOND_DEF_STEREO_COUNT>
0

> <PUBCHEM_BOND_UDEF_STEREO_COUNT>
0

> <PUBCHEM_ISOTOPIC_ATOM_COUNT>
0

> <PUBCHEM_COMPONENT_COUNT>
1

> <PUBCHEM_CACTVS_TAUTO_COUNT>
2

> <PUBCHEM_CONFORMER_ID>
030C4E6200000001

> <PUBCHEM_MMFF94_ENERGY>
58.2015

> <PUBCHEM_FEATURE_SELFOVERLAP>
61.027

> <PUBCHEM_SHAPE_FINGERPRINT>
10190108 129 18191884503249468707
11445158 3 17901654978107673550
12954195 1 18202007650248653042
13540713 5 18263346062784266562
13782708 43 13901893510745373269
14294032 229 18261665970589204460
14790565 3 18408606954670515520
14840074 17 17458350757779636140
14931854 50 18199163206195695685
15131766 46 16516544342297688844
15183329 4 18059861636565067792
15629462 23 16128107658765754689
15961568 22 16950852405478533356
16752209 62 18336545036365509170
19319366 153 18187363169116537826
19841028 212 14764078788277127148
20028762 73 17771885170622900991
21641784 216 18114735053044481156
22393880 68 18271236222569886314
23559900 14 18059283387469225033
23576562 1 18261959673026649021
244849 19 16772938346102455482
25147074 1 18261941986493385010
3610482 184 18116170990056651716
4058900 60 18040991843394722499
4258327 124 17894345601716873391
563151 40 18410586079969839419
59755656 215 18202565068342011596
59755656 520 18343865498599182081

> <PUBCHEM_SHAPE_MULTIPOLES>
600.43
16.4
3.66
1.91
5.6
3.27
1.4
-8.56
10.63
-5.04
0.22
1.98
-0.13
-2.44

> <PUBCHEM_SHAPE_SELFOVERLAP>
1276.27

> <PUBCHEM_SHAPE_VOLUME>
337.3

> <PUBCHEM_COORDINATE_TYPE>
2
5
10

$$$$
