75536966
  -OEChem-12032416333D

 37 39  0     1  0  0  0  0  0999 V2000
    4.5643   -0.6670    0.9153 O   0  0  0  0  0  0  0  0  0  0  0  0
    1.9655    1.8041   -0.0051 O   0  0  0  0  0  0  0  0  0  0  0  0
   -4.8870    0.7253    0.6710 O   0  0  0  0  0  0  0  0  0  0  0  0
   -2.6035    0.2739    0.3228 N   0  0  0  0  0  0  0  0  0  0  0  0
    0.0010    0.6965   -0.5585 N   0  0  0  0  0  0  0  0  0  0  0  0
   -4.1061   -1.3279   -0.1533 N   0  0  0  0  0  0  0  0  0  0  0  0
   -1.8053   -0.8845   -0.0368 C   0  0  2  0  0  0  0  0  0  0  0  0
   -0.7237   -0.4947   -1.0408 C   0  0  0  0  0  0  0  0  0  0  0  0
   -1.9489    1.5054    0.7252 C   0  0  0  0  0  0  0  0  0  0  0  0
   -0.8520    1.8612   -0.2757 C   0  0  0  0  0  0  0  0  0  0  0  0
   -2.8348   -1.8819   -0.5594 C   0  0  0  0  0  0  0  0  0  0  0  0
    2.1777   -0.4468   -0.6952 C   0  0  0  0  0  0  0  0  0  0  0  0
    1.3810    0.7876   -0.3881 C   0  0  0  0  0  0  0  0  0  0  0  0
   -3.9731   -0.0121    0.3276 C   0  0  0  0  0  0  0  0  0  0  0  0
    3.5653   -0.0851   -1.2244 C   0  0  0  0  0  0  0  0  0  0  0  0
    2.2609   -1.3399    0.5423 C   0  0  0  0  0  0  0  0  0  0  0  0
    4.5237    0.3229   -0.1101 C   0  0  0  0  0  0  0  0  0  0  0  0
    3.2952   -0.8369    1.5432 C   0  0  0  0  0  0  0  0  0  0  0  0
   -1.3506   -1.2539    0.8913 H   0  0  0  0  0  0  0  0  0  0  0  0
   -0.0948   -1.3659   -1.2109 H   0  0  0  0  0  0  0  0  0  0  0  0
   -1.1651   -0.2160   -2.0057 H   0  0  0  0  0  0  0  0  0  0  0  0
   -1.5174    1.3277    1.7167 H   0  0  0  0  0  0  0  0  0  0  0  0
   -2.6875    2.3080    0.8116 H   0  0  0  0  0  0  0  0  0  0  0  0
   -1.2953    2.1669   -1.2311 H   0  0  0  0  0  0  0  0  0  0  0  0
   -0.2607    2.7021    0.0991 H   0  0  0  0  0  0  0  0  0  0  0  0
   -2.7145   -2.8770   -0.1225 H   0  0  0  0  0  0  0  0  0  0  0  0
   -2.8386   -1.9640   -1.6506 H   0  0  0  0  0  0  0  0  0  0  0  0
    1.7174   -0.9897   -1.5226 H   0  0  0  0  0  0  0  0  0  0  0  0
    3.5127    0.7057   -1.9816 H   0  0  0  0  0  0  0  0  0  0  0  0
    3.9805   -0.9751   -1.7159 H   0  0  0  0  0  0  0  0  0  0  0  0
    2.5633   -2.3424    0.2129 H   0  0  0  0  0  0  0  0  0  0  0  0
    1.2885   -1.4415    1.0361 H   0  0  0  0  0  0  0  0  0  0  0  0
   -4.9985   -1.7966   -0.2728 H   0  0  0  0  0  0  0  0  0  0  0  0
    5.5357    0.4085   -0.5201 H   0  0  0  0  0  0  0  0  0  0  0  0
    4.2833    1.2951    0.3305 H   0  0  0  0  0  0  0  0  0  0  0  0
    2.9851    0.1062    2.0077 H   0  0  0  0  0  0  0  0  0  0  0  0
    3.4179   -1.5706    2.3464 H   0  0  0  0  0  0  0  0  0  0  0  0
  1 17  1  0  0  0  0
  1 18  1  0  0  0  0
  2 13  2  0  0  0  0
  3 14  2  0  0  0  0
  4  7  1  0  0  0  0
  4  9  1  0  0  0  0
  4 14  1  0  0  0  0
  5  8  1  0  0  0  0
  5 10  1  0  0  0  0
  5 13  1  0  0  0  0
  6 11  1  0  0  0  0
  6 14  1  0  0  0  0
  6 33  1  0  0  0  0
  7  8  1  0  0  0  0
  7 11  1  0  0  0  0
  7 19  1  0  0  0  0
  8 20  1  0  0  0  0
  8 21  1  0  0  0  0
  9 10  1  0  0  0  0
  9 22  1  0  0  0  0
  9 23  1  0  0  0  0
 10 24  1  0  0  0  0
 10 25  1  0  0  0  0
 11 26  1  0  0  0  0
 11 27  1  0  0  0  0
 12 13  1  0  0  0  0
 12 15  1  0  0  0  0
 12 16  1  0  0  0  0
 12 28  1  0  0  0  0
 15 17  1  0  0  0  0
 15 29  1  0  0  0  0
 15 30  1  0  0  0  0
 16 18  1  0  0  0  0
 16 31  1  0  0  0  0
 16 32  1  0  0  0  0
 17 34  1  0  0  0  0
 17 35  1  0  0  0  0
 18 36  1  0  0  0  0
 18 37  1  0  0  0  0
M  END
> <PUBCHEM_COMPOUND_CID>
75536966

> <PUBCHEM_CONFORMER_RMSD>
0.6

> <PUBCHEM_CONFORMER_DIVERSEORDER>
1
35
18
29
34
36
33
31
15
11
20
30
27
7
23
24
19
8
32
28
26
16
12
21
17
6
9
14
13
10
5
22
25
2
3
4

> <PUBCHEM_MMFF94_PARTIAL_CHARGES>
17
1 -0.56
10 0.3
11 0.3
12 0.06
13 0.57
14 0.69
17 0.28
18 0.28
2 -0.57
3 -0.57
33 0.37
4 -0.66
5 -0.66
6 -0.73
7 0.3
8 0.3
9 0.3

> <PUBCHEM_EFFECTIVE_ROTOR_COUNT>
4.4

> <PUBCHEM_PHARMACOPHORE_FEATURES>
7
1 1 acceptor
1 2 acceptor
1 3 acceptor
1 6 donor
5 4 6 7 11 14 rings
6 1 12 15 16 17 18 rings
6 4 5 7 8 9 10 rings

> <PUBCHEM_HEAVY_ATOM_COUNT>
18

> <PUBCHEM_ATOM_DEF_STEREO_COUNT>
1

> <PUBCHEM_ATOM_UDEF_STEREO_COUNT>
0

> <PUBCHEM_BOND_DEF_STEREO_COUNT>
0

> <PUBCHEM_BOND_UDEF_STEREO_COUNT>
0

> <PUBCHEM_ISOTOPIC_ATOM_COUNT>
0

> <PUBCHEM_COMPONENT_COUNT>
1

> <PUBCHEM_CACTVS_TAUTO_COUNT>
2

> <PUBCHEM_CONFORMER_ID>
04809A4600000001

> <PUBCHEM_MMFF94_ENERGY>
42.6657

> <PUBCHEM_FEATURE_SELFOVERLAP>
35.62

> <PUBCHEM_SHAPE_FINGERPRINT>
10062212 137 18412262874384144415
10366900 7 16988841665904293618
11132069 177 18131355198080374127
11578080 2 18042101280570607124
12236239 1 18259708895672707022
12251169 10 18342459231326405373
12553582 1 18335421261602255854
12670545 47 16773792623333934210
13675066 3 17346601880420817927
13760787 5 17749108906610063918
14115302 16 17531258278664059678
14178342 30 18197213651182442360
14252887 29 18201729444216749878
15342168 16 14835540570933394032
15375462 189 18186798071868845986
15536298 74 18271809085207762120
16945 1 18342176614004490693
17804303 29 18273500091341925769
1813 80 17676216740296929510
19050596 39 18407759244227603738
200 152 17167860846646437340
20281475 54 18261107474215591006
20510252 161 17916874491231613089
21033648 29 16200143245116970554
21267235 1 18340498862630110255
21524375 3 10592046851320925453
22485316 2 18113898264513459860
2255824 54 18115033034008050780
22646028 1 18333167279955772631
22646028 28 18114178614488463306
22854114 59 16917349233812262422
23366157 5 18046626986531675997
23402539 116 18131066022670556533
23559900 14 17917441886576061870
26918003 58 17458346342331410563
474 4 17751651089732818500
5104073 3 18341619282153025825
5374978 207 18411700980422894312
83771 10 18040994050811869500
90316 7 18338238163470328625

> <PUBCHEM_SHAPE_MULTIPOLES>
337.88
9.14
1.71
1.08
0.35
0.22
-0.1
-1.62
-1.71
0.82
-0.02
-0.79
-0.17
-0.91

> <PUBCHEM_SHAPE_SELFOVERLAP>
707.529

> <PUBCHEM_SHAPE_VOLUME>
188.9

> <PUBCHEM_COORDINATE_TYPE>
2
5
10

$$$$
