75537141
  -OEChem-12032416323D

 41 43  0     1  0  0  0  0  0999 V2000
    3.2859    1.8868   -0.3026 O   0  0  0  0  0  0  0  0  0  0  0  0
    4.5925   -0.7450    0.9859 O   0  0  0  0  0  0  0  0  0  0  0  0
    1.0415    1.2002   -0.4036 N   0  0  0  0  0  0  0  0  0  0  0  0
   -1.6307    0.8365    0.3952 N   0  0  2  0  0  0  0  0  0  0  0  0
    2.6283   -0.2518   -1.0497 N   0  0  0  0  0  0  0  0  0  0  0  0
   -4.7188    0.4440   -0.2350 N   0  0  0  0  0  0  0  0  0  0  0  0
   -4.0836   -1.5391    0.5369 N   0  0  0  0  0  0  0  0  0  0  0  0
    0.3062    0.0602   -0.9099 C   0  0  2  0  0  0  0  0  0  0  0  0
   -0.7973   -0.3386    0.0694 C   0  0  0  0  0  0  0  0  0  0  0  0
    1.3848   -0.9991   -1.1278 C   0  0  0  0  0  0  0  0  0  0  0  0
    0.3137    2.3534    0.0838 C   0  0  0  0  0  0  0  0  0  0  0  0
   -0.8175    1.9041    1.0121 C   0  0  0  0  0  0  0  0  0  0  0  0
    2.4266    1.0532   -0.5569 C   0  0  0  0  0  0  0  0  0  0  0  0
   -2.7265    0.4526    1.2848 C   0  0  0  0  0  0  0  0  0  0  0  0
    3.9104   -0.8677   -1.3116 C   0  0  0  0  0  0  0  0  0  0  0  0
    4.4155   -1.6386   -0.1057 C   0  0  0  0  0  0  0  0  0  0  0  0
   -3.8323   -0.2488    0.5417 C   0  0  0  0  0  0  0  0  0  0  0  0
   -5.5909   -0.4624   -0.7691 C   0  0  0  0  0  0  0  0  0  0  0  0
   -5.1787   -1.6789   -0.2784 C   0  0  0  0  0  0  0  0  0  0  0  0
    5.0709   -1.4209    2.1406 C   0  0  0  0  0  0  0  0  0  0  0  0
   -0.1262    0.3600   -1.8736 H   0  0  0  0  0  0  0  0  0  0  0  0
   -1.3965   -1.1293   -0.3968 H   0  0  0  0  0  0  0  0  0  0  0  0
   -0.3584   -0.7558    0.9861 H   0  0  0  0  0  0  0  0  0  0  0  0
    1.3888   -1.7636   -0.3445 H   0  0  0  0  0  0  0  0  0  0  0  0
    1.2962   -1.4789   -2.1070 H   0  0  0  0  0  0  0  0  0  0  0  0
   -0.0902    2.8764   -0.7907 H   0  0  0  0  0  0  0  0  0  0  0  0
    1.0023    3.0320    0.5969 H   0  0  0  0  0  0  0  0  0  0  0  0
   -0.3918    1.5519    1.9613 H   0  0  0  0  0  0  0  0  0  0  0  0
   -1.4427    2.7769    1.2351 H   0  0  0  0  0  0  0  0  0  0  0  0
   -3.1741    1.3453    1.7432 H   0  0  0  0  0  0  0  0  0  0  0  0
   -2.3775   -0.1744    2.1154 H   0  0  0  0  0  0  0  0  0  0  0  0
    4.6186   -0.0659   -1.5489 H   0  0  0  0  0  0  0  0  0  0  0  0
    3.8145   -1.5188   -2.1861 H   0  0  0  0  0  0  0  0  0  0  0  0
    3.7041   -2.4239    0.1750 H   0  0  0  0  0  0  0  0  0  0  0  0
    5.3752   -2.1077   -0.3514 H   0  0  0  0  0  0  0  0  0  0  0  0
   -4.7285    1.4437   -0.3884 H   0  0  0  0  0  0  0  0  0  0  0  0
   -6.3960   -0.1677   -1.4264 H   0  0  0  0  0  0  0  0  0  0  0  0
   -5.6147   -2.6483   -0.4708 H   0  0  0  0  0  0  0  0  0  0  0  0
    5.1896   -0.6884    2.9434 H   0  0  0  0  0  0  0  0  0  0  0  0
    6.0436   -1.8808    1.9410 H   0  0  0  0  0  0  0  0  0  0  0  0
    4.3534   -2.1808    2.4650 H   0  0  0  0  0  0  0  0  0  0  0  0
  1 13  2  0  0  0  0
  2 16  1  0  0  0  0
  2 20  1  0  0  0  0
  3  8  1  0  0  0  0
  3 11  1  0  0  0  0
  3 13  1  0  0  0  0
  4  9  1  0  0  0  0
  4 12  1  0  0  0  0
  4 14  1  0  0  0  0
  5 10  1  0  0  0  0
  5 13  1  0  0  0  0
  5 15  1  0  0  0  0
  6 17  1  0  0  0  0
  6 18  1  0  0  0  0
  6 36  1  0  0  0  0
  7 17  2  0  0  0  0
  7 19  1  0  0  0  0
  8  9  1  0  0  0  0
  8 10  1  0  0  0  0
  8 21  1  0  0  0  0
  9 22  1  0  0  0  0
  9 23  1  0  0  0  0
 10 24  1  0  0  0  0
 10 25  1  0  0  0  0
 11 12  1  0  0  0  0
 11 26  1  0  0  0  0
 11 27  1  0  0  0  0
 12 28  1  0  0  0  0
 12 29  1  0  0  0  0
 14 17  1  0  0  0  0
 14 30  1  0  0  0  0
 14 31  1  0  0  0  0
 15 16  1  0  0  0  0
 15 32  1  0  0  0  0
 15 33  1  0  0  0  0
 16 34  1  0  0  0  0
 16 35  1  0  0  0  0
 18 19  2  0  0  0  0
 18 37  1  0  0  0  0
 19 38  1  0  0  0  0
 20 39  1  0  0  0  0
 20 40  1  0  0  0  0
 20 41  1  0  0  0  0
M  END
> <PUBCHEM_COMPOUND_CID>
75537141

> <PUBCHEM_CONFORMER_RMSD>
0.8

> <PUBCHEM_CONFORMER_DIVERSEORDER>
1
38
25
26
12
21
11
30
23
45
41
17
22
47
14
53
29
35
3
55
8
27
51
40
20
44
32
15
52
5
46
36
37
31
34
42
50
49
19
7
33
43
9
16
24
2
28
48
18
4
39
54
13
10
6

> <PUBCHEM_MMFF94_PARTIAL_CHARGES>
23
1 -0.57
10 0.3
11 0.3
12 0.27
13 0.69
14 0.45
15 0.3
16 0.28
17 0.01
18 -0.3
19 0.08
2 -0.56
20 0.28
3 -0.66
36 0.27
37 0.15
38 0.15
4 -0.81
5 -0.66
6 0.03
7 -0.57
8 0.3
9 0.27

> <PUBCHEM_EFFECTIVE_ROTOR_COUNT>
6.2

> <PUBCHEM_PHARMACOPHORE_FEATURES>
8
1 1 acceptor
1 2 acceptor
1 4 cation
1 6 donor
3 6 7 17 cation
5 3 5 8 10 13 rings
5 6 7 17 18 19 rings
6 3 4 8 9 11 12 rings

> <PUBCHEM_HEAVY_ATOM_COUNT>
20

> <PUBCHEM_ATOM_DEF_STEREO_COUNT>
1

> <PUBCHEM_ATOM_UDEF_STEREO_COUNT>
0

> <PUBCHEM_BOND_DEF_STEREO_COUNT>
0

> <PUBCHEM_BOND_UDEF_STEREO_COUNT>
0

> <PUBCHEM_ISOTOPIC_ATOM_COUNT>
0

> <PUBCHEM_COMPONENT_COUNT>
1

> <PUBCHEM_CACTVS_TAUTO_COUNT>
1

> <PUBCHEM_CONFORMER_ID>
04809AF500000001

> <PUBCHEM_MMFF94_ENERGY>
33.0446

> <PUBCHEM_FEATURE_SELFOVERLAP>
40.693

> <PUBCHEM_SHAPE_FINGERPRINT>
10378564 45 13768198381385700146
10447042 23 18272088326880503173
10613725 11 16660641821943502191
10670039 82 8574441940847986090
11796584 16 17676212359457050850
12839892 36 18131066000473462270
12892183 10 16773801338086341640
12895836 83 10087054402753397802
12954195 1 13840813371826249438
13083527 12 18411697677930880996
13533116 47 18040992930500658226
13899415 180 18336254709071129613
14178342 30 17984429533819632960
14251751 18 18040705957369917322
14251752 14 18259983744111095813
14787075 74 14117505550302212543
14848178 5 18412825767907015291
15183329 4 14562526241487848562
15188451 53 18271235037153923586
15239154 128 8214145123067362375
15788980 27 18040438797993632931
15880784 105 15841555150153649503
17349148 13 18342185470232264599
17834072 8 14129058105990002923
17857418 61 18186517687613543794
17862501 102 18412830161558066027
18186145 218 13118289212874732829
18222031 100 18342746191329748758
18785283 64 16629381714196679344
19784866 240 17386002807184033746
200 152 18201726150092748437
20028762 73 18060139842550291702
20369508 70 18260268564302801524
20567600 234 17131254874642290890
20621476 91 16916769834551244807
20645477 70 18409737282657069638
21501925 9 18272376351750833652
22079108 93 15410884167873066838
221490 88 18124888008399205119
23253445 4 16702295758730282403
23402539 116 18272375226537857103
23557571 272 17630905810461351917
23559900 14 18336835281032389424
2637199 183 10881403136116860501
3004659 81 18408892840488955383
3009799 131 18272359842371366581
32948 21 17095241402055874991
339767 52 18411410696605799387
4325135 7 14476951298800594411
4990 188 13551482474834435018
5104073 3 18271253806556250393
5283173 99 18335698287584347829
59682541 52 16298931118352660987
633830 44 12468648273472061075
76465 3 18260547797058611912
8988823 20 18113893884279878988
960060 61 16805046211705739166
9971528 1 17022620909356324189

> <PUBCHEM_SHAPE_MULTIPOLES>
374.95
12.13
2.05
1.38
5.43
0.74
-0.49
-7.56
-1.73
-0.56
-0.19
-1.59
-0.38
-0.93

> <PUBCHEM_SHAPE_SELFOVERLAP>
779.824

> <PUBCHEM_SHAPE_VOLUME>
214.1

> <PUBCHEM_COORDINATE_TYPE>
2
5
10

$$$$
