7674055
  -OEChem-12032416133D

 66 69  0     1  0  0  0  0  0999 V2000
   -3.6834   -0.9601    1.5862 S   0  0  0  0  0  0  0  0  0  0  0  0
   -5.5784   -4.8330   -2.4335 F   0  0  0  0  0  0  0  0  0  0  0  0
   -4.3471    0.3011    1.3321 O   0  0  0  0  0  0  0  0  0  0  0  0
   -3.7603   -1.5937    2.8855 O   0  0  0  0  0  0  0  0  0  0  0  0
   -0.8445    1.4588    1.6799 O   0  0  0  0  0  0  0  0  0  0  0  0
    2.0918    0.0771   -1.5097 O   0  0  0  0  0  0  0  0  0  0  0  0
   -4.0050    4.1012   -0.2983 O   0  0  0  0  0  0  0  0  0  0  0  0
    9.0096   -0.5546   -1.3967 O   0  0  0  0  0  0  0  0  0  0  0  0
   -2.0414   -0.8306    1.1267 N   0  0  2  0  0  0  0  0  0  0  0  0
    0.5558   -0.9223   -0.0957 N   0  0  0  0  0  0  0  0  0  0  0  0
   -1.8358    2.4425   -0.1827 N   0  0  0  0  0  0  0  0  0  0  0  0
   -2.6660    5.9307   -0.5770 N   0  0  0  0  0  0  0  0  0  0  0  0
    2.8675   -1.1627    0.3022 N   0  0  0  0  0  0  0  0  0  0  0  0
   -1.7374    0.0575   -0.0299 C   0  0  2  0  0  0  0  0  0  0  0  0
   -0.5813   -0.4488   -0.8895 C   0  0  0  0  0  0  0  0  0  0  0  0
   -1.2488   -2.0858    1.1683 C   0  0  0  0  0  0  0  0  0  0  0  0
    0.2320   -1.7421    1.0783 C   0  0  0  0  0  0  0  0  0  0  0  0
   -1.4101    1.3775    0.5926 C   0  0  0  0  0  0  0  0  0  0  0  0
   -1.6611    3.8182    0.2048 C   0  0  1  0  0  0  0  0  0  0  0  0
   -0.3292    4.3582   -0.2974 C   0  0  0  0  0  0  0  0  0  0  0  0
   -0.2504    5.8521   -0.0282 C   0  0  0  0  0  0  0  0  0  0  0  0
    1.8733   -0.6172   -0.5147 C   0  0  0  0  0  0  0  0  0  0  0  0
   -4.2510   -2.1200    0.3821 C   0  0  0  0  0  0  0  0  0  0  0  0
   -2.8780    4.6001   -0.2778 C   0  0  0  0  0  0  0  0  0  0  0  0
   -1.3693    6.5507   -0.7776 C   0  0  0  0  0  0  0  0  0  0  0  0
   -4.1951   -3.4877    0.6508 C   0  0  0  0  0  0  0  0  0  0  0  0
   -4.7551   -1.6688   -0.8376 C   0  0  0  0  0  0  0  0  0  0  0  0
    4.2726   -1.0438    0.1570 C   0  0  0  0  0  0  0  0  0  0  0  0
   -4.6435   -4.4040   -0.3003 C   0  0  0  0  0  0  0  0  0  0  0  0
   -5.2034   -2.5853   -1.7887 C   0  0  0  0  0  0  0  0  0  0  0  0
   -5.1478   -3.9529   -1.5201 C   0  0  0  0  0  0  0  0  0  0  0  0
    5.1232   -1.6602    1.0747 C   0  0  0  0  0  0  0  0  0  0  0  0
    4.8045   -0.3092   -0.9028 C   0  0  0  0  0  0  0  0  0  0  0  0
    6.5057   -1.5423    0.9325 C   0  0  0  0  0  0  0  0  0  0  0  0
    6.1871   -0.1912   -1.0449 C   0  0  0  0  0  0  0  0  0  0  0  0
    7.0377   -0.8078   -0.1273 C   0  0  0  0  0  0  0  0  0  0  0  0
    8.4792   -0.6856   -0.2754 C   0  0  0  0  0  0  0  0  0  0  0  0
    9.3835   -0.7160    0.9520 C   0  0  0  0  0  0  0  0  0  0  0  0
   -2.6121    0.1618   -0.6780 H   0  0  0  0  0  0  0  0  0  0  0  0
   -0.9107   -1.3035   -1.4935 H   0  0  0  0  0  0  0  0  0  0  0  0
   -0.2593    0.3274   -1.5922 H   0  0  0  0  0  0  0  0  0  0  0  0
   -1.4284   -2.6193    2.1071 H   0  0  0  0  0  0  0  0  0  0  0  0
   -1.5217   -2.7405    0.3345 H   0  0  0  0  0  0  0  0  0  0  0  0
    0.5522   -1.1809    1.9642 H   0  0  0  0  0  0  0  0  0  0  0  0
    0.8114   -2.6705    1.0337 H   0  0  0  0  0  0  0  0  0  0  0  0
   -1.6753    3.8745    1.3012 H   0  0  0  0  0  0  0  0  0  0  0  0
    0.5005    3.8439    0.2022 H   0  0  0  0  0  0  0  0  0  0  0  0
   -0.2163    4.1675   -1.3728 H   0  0  0  0  0  0  0  0  0  0  0  0
   -2.2667    2.2564   -1.0840 H   0  0  0  0  0  0  0  0  0  0  0  0
   -0.3433    6.0406    1.0484 H   0  0  0  0  0  0  0  0  0  0  0  0
    0.7196    6.2488   -0.3468 H   0  0  0  0  0  0  0  0  0  0  0  0
   -1.4491    7.5978   -0.4693 H   0  0  0  0  0  0  0  0  0  0  0  0
   -1.1762    6.5326   -1.8560 H   0  0  0  0  0  0  0  0  0  0  0  0
   -3.4799    6.4759   -0.8438 H   0  0  0  0  0  0  0  0  0  0  0  0
    2.5838   -1.7007    1.1138 H   0  0  0  0  0  0  0  0  0  0  0  0
   -3.8049   -3.8623    1.5928 H   0  0  0  0  0  0  0  0  0  0  0  0
   -4.8142   -0.6094   -1.0689 H   0  0  0  0  0  0  0  0  0  0  0  0
   -4.5997   -5.4689   -0.0920 H   0  0  0  0  0  0  0  0  0  0  0  0
   -5.5970   -2.2345   -2.7381 H   0  0  0  0  0  0  0  0  0  0  0  0
    4.7216   -2.2376    1.9036 H   0  0  0  0  0  0  0  0  0  0  0  0
    4.2197    0.1987   -1.6554 H   0  0  0  0  0  0  0  0  0  0  0  0
    7.1448   -2.0434    1.6543 H   0  0  0  0  0  0  0  0  0  0  0  0
    6.5848    0.3881   -1.8744 H   0  0  0  0  0  0  0  0  0  0  0  0
   10.2796   -0.1216    0.7499 H   0  0  0  0  0  0  0  0  0  0  0  0
    8.8818   -0.2702    1.8152 H   0  0  0  0  0  0  0  0  0  0  0  0
    9.6705   -1.7477    1.1695 H   0  0  0  0  0  0  0  0  0  0  0  0
  1  3  2  0  0  0  0
  1  4  2  0  0  0  0
  1  9  1  0  0  0  0
  1 23  1  0  0  0  0
  2 31  1  0  0  0  0
  5 18  2  0  0  0  0
  6 22  2  0  0  0  0
  7 24  2  0  0  0  0
  8 37  2  0  0  0  0
  9 14  1  0  0  0  0
  9 16  1  0  0  0  0
 10 15  1  0  0  0  0
 10 17  1  0  0  0  0
 10 22  1  0  0  0  0
 11 18  1  0  0  0  0
 11 19  1  0  0  0  0
 11 49  1  0  0  0  0
 12 24  1  0  0  0  0
 12 25  1  0  0  0  0
 12 54  1  0  0  0  0
 13 22  1  0  0  0  0
 13 28  1  0  0  0  0
 13 55  1  0  0  0  0
 14 15  1  0  0  0  0
 14 18  1  0  0  0  0
 14 39  1  0  0  0  0
 15 40  1  0  0  0  0
 15 41  1  0  0  0  0
 16 17  1  0  0  0  0
 16 42  1  0  0  0  0
 16 43  1  0  0  0  0
 17 44  1  0  0  0  0
 17 45  1  0  0  0  0
 19 20  1  0  0  0  0
 19 24  1  0  0  0  0
 19 46  1  0  0  0  0
 20 21  1  0  0  0  0
 20 47  1  0  0  0  0
 20 48  1  0  0  0  0
 21 25  1  0  0  0  0
 21 50  1  0  0  0  0
 21 51  1  0  0  0  0
 23 26  2  0  0  0  0
 23 27  1  0  0  0  0
 25 52  1  0  0  0  0
 25 53  1  0  0  0  0
 26 29  1  0  0  0  0
 26 56  1  0  0  0  0
 27 30  2  0  0  0  0
 27 57  1  0  0  0  0
 28 32  2  0  0  0  0
 28 33  1  0  0  0  0
 29 31  2  0  0  0  0
 29 58  1  0  0  0  0
 30 31  1  0  0  0  0
 30 59  1  0  0  0  0
 32 34  1  0  0  0  0
 32 60  1  0  0  0  0
 33 35  2  0  0  0  0
 33 61  1  0  0  0  0
 34 36  2  0  0  0  0
 34 62  1  0  0  0  0
 35 36  1  0  0  0  0
 35 63  1  0  0  0  0
 36 37  1  0  0  0  0
 37 38  1  0  0  0  0
 38 64  1  0  0  0  0
 38 65  1  0  0  0  0
 38 66  1  0  0  0  0
M  END
> <PUBCHEM_COMPOUND_CID>
7674055

> <PUBCHEM_CONFORMER_RMSD>
1.2

> <PUBCHEM_CONFORMER_DIVERSEORDER>
1
58
7
84
32
99
69
49
27
29
85
96
71
76
62
36
59
37
63
30
19
75
97
87
34
65
44
55
92
22
31
88
24
26
50
78
51
46
48
43
79
6
81
28
93
13
11
60
5
73
98
16
8
35
66
91
70
52
23
89
83
82
68
95
38
57
18
61
90
94
15
14
86
67
12
56
39
3
80
72
10
74
45
64
47
17
33
2
4
40
42
77
41
25
9
54
20
21
53

> <PUBCHEM_MMFF94_PARTIAL_CHARGES>
47
1 1.45
10 -0.66
11 -0.73
12 -0.73
13 -0.55
14 0.42
15 0.3
16 0.36
17 0.3
18 0.57
19 0.36
2 -0.19
22 0.69
23 -0.01
24 0.57
25 0.3
26 -0.15
27 -0.15
28 0.12
29 -0.15
3 -0.65
30 -0.15
31 0.19
32 -0.15
33 -0.15
34 -0.15
35 -0.15
36 0.09
37 0.42
38 0.06
4 -0.65
49 0.37
5 -0.57
54 0.37
55 0.37
56 0.15
57 0.15
58 0.15
59 0.15
6 -0.57
60 0.15
61 0.15
62 0.15
63 0.15
7 -0.57
8 -0.57
9 -0.85

> <PUBCHEM_EFFECTIVE_ROTOR_COUNT>
11.2

> <PUBCHEM_PHARMACOPHORE_FEATURES>
13
1 11 donor
1 12 donor
1 13 donor
1 3 acceptor
1 4 acceptor
1 5 acceptor
1 6 acceptor
1 7 acceptor
1 8 acceptor
6 12 19 20 21 24 25 rings
6 23 26 27 29 30 31 rings
6 28 32 33 34 35 36 rings
6 9 10 14 15 16 17 rings

> <PUBCHEM_HEAVY_ATOM_COUNT>
38

> <PUBCHEM_ATOM_DEF_STEREO_COUNT>
2

> <PUBCHEM_ATOM_UDEF_STEREO_COUNT>
0

> <PUBCHEM_BOND_DEF_STEREO_COUNT>
0

> <PUBCHEM_BOND_UDEF_STEREO_COUNT>
0

> <PUBCHEM_ISOTOPIC_ATOM_COUNT>
0

> <PUBCHEM_COMPONENT_COUNT>
1

> <PUBCHEM_CACTVS_TAUTO_COUNT>
36

> <PUBCHEM_CONFORMER_ID>
007518C700000001

> <PUBCHEM_MMFF94_ENERGY>
89.8187

> <PUBCHEM_FEATURE_SELFOVERLAP>
65.994

> <PUBCHEM_SHAPE_FINGERPRINT>
10290309 65 17981054015626214371
10319688 45 18412262869593532239
10411042 1 18337675346766050811
11445158 3 16773227521913471992
11477941 20 18411975884173313262
11505856 67 18116988888652033089
11763715 3 18337405931745985734
12106331 60 18261690219969224594
12107183 9 17465657893684559482
12522641 68 18052249596922009517
12788726 201 18044687280563631117
13347071 3 18336550413164228564
13540713 5 17698464440075396411
13782708 43 17846786221789082894
14068700 675 18335135436050554054
14118638 360 18114181909562394554
14556957 393 18261123992670127900
15198563 99 18411411817634014029
15336146 87 18411136961977664800
15444296 8 18341891905049314581
15876981 60 18334019388703964061
16664035 7 18339916117737222896
16989713 51 18272369780746614614
17686467 74 18200871907184142698
18470217 77 18341898450679803820
20771845 165 18126856984743439551
21927370 108 18337965592082148907
23929065 36 18338218389308678760
249057 25 17967542272832148646
255183 313 18126303964833274881
3504750 166 18338513024361057158
376196 1 17107635956471644465
4015057 19 18044664336779686523
4280585 95 18342175613657185103
4353968 344 18411697644099046894
550186 72 18410291406795497814
5969126 39 18412260653221329774
6058803 2 17826495683569732498
6673363 416 18338529638085596108
6700243 42 17985580851237458916
9981440 41 17612322848534767857

> <PUBCHEM_SHAPE_MULTIPOLES>
718.48
19.64
8.5
1.65
57.33
18.51
0.18
-20.67
-3.38
-18.2
-2.83
-1.65
-1.52
-2.17

> <PUBCHEM_SHAPE_SELFOVERLAP>
1518.714

> <PUBCHEM_SHAPE_VOLUME>
403.4

> <PUBCHEM_COORDINATE_TYPE>
2
5
10

$$$$
