11865720
  -OEChem-12032416113D

 50 51  0     1  0  0  0  0  0999 V2000
   -4.5987    2.5719    0.5781 Br  0  0  0  0  0  0  0  0  0  0  0  0
    0.1949    2.6871    1.6880 O   0  0  0  0  0  0  0  0  0  0  0  0
    1.8866    4.1947   -1.1839 O   0  0  0  0  0  0  0  0  0  0  0  0
    4.8657    0.6666   -0.5941 O   0  0  0  0  0  0  0  0  0  0  0  0
   -2.3541    1.9124   -1.6293 O   0  0  0  0  0  0  0  0  0  0  0  0
   -3.8354   -3.3912   -0.0786 O   0  0  0  0  0  0  0  0  0  0  0  0
    2.2056   -3.2623    0.7820 O   0  0  0  0  0  0  0  0  0  0  0  0
   -0.8475    0.9226   -0.1705 N   0  0  0  0  0  0  0  0  0  0  0  0
    3.6117   -0.6930    0.8250 N   0  0  0  0  0  0  0  0  0  0  0  0
    3.0061   -4.5297   -0.9608 N   0  0  0  0  0  0  0  0  0  0  0  0
    0.3844    3.0077    0.3082 C   0  0  2  0  0  0  0  0  0  0  0  0
    0.2947    1.7233   -0.5380 C   0  0  1  0  0  0  0  0  0  0  0  0
    1.7455    3.6951    0.1443 C   0  0  1  0  0  0  0  0  0  0  0  0
    2.9142    2.7528    0.4805 C   0  0  0  0  0  0  0  0  0  0  0  0
    2.6979    1.3430    0.0086 C   0  0  0  0  0  0  0  0  0  0  0  0
    1.5322    0.8708   -0.4581 C   0  0  0  0  0  0  0  0  0  0  0  0
    3.8383    0.4225    0.0378 C   0  0  0  0  0  0  0  0  0  0  0  0
   -2.0939    1.0882   -0.7568 C   0  0  0  0  0  0  0  0  0  0  0  0
   -3.1736    0.2030   -0.2493 C   0  0  0  0  0  0  0  0  0  0  0  0
    4.5884   -1.7427    1.0066 C   0  0  0  0  0  0  0  0  0  0  0  0
    4.4529   -2.8424   -0.0375 C   0  0  0  0  0  0  0  0  0  0  0  0
   -3.0090   -1.1744   -0.3952 C   0  0  0  0  0  0  0  0  0  0  0  0
   -4.3245    0.7075    0.3562 C   0  0  0  0  0  0  0  0  0  0  0  0
   -3.9952   -2.0472    0.0644 C   0  0  0  0  0  0  0  0  0  0  0  0
   -5.3106   -0.1653    0.8160 C   0  0  0  0  0  0  0  0  0  0  0  0
    3.1044   -3.5389   -0.0070 C   0  0  0  0  0  0  0  0  0  0  0  0
   -5.1460   -1.5427    0.6701 C   0  0  0  0  0  0  0  0  0  0  0  0
   -2.6351   -3.8393   -0.7067 C   0  0  0  0  0  0  0  0  0  0  0  0
   -0.4258    3.6851    0.0120 H   0  0  0  0  0  0  0  0  0  0  0  0
    0.1792    2.0105   -1.5915 H   0  0  0  0  0  0  0  0  0  0  0  0
    1.8000    4.5607    0.8158 H   0  0  0  0  0  0  0  0  0  0  0  0
    3.0467    2.7227    1.5694 H   0  0  0  0  0  0  0  0  0  0  0  0
    3.8408    3.1476    0.0468 H   0  0  0  0  0  0  0  0  0  0  0  0
    1.4580   -0.1505   -0.8263 H   0  0  0  0  0  0  0  0  0  0  0  0
   -0.7418    0.2447    0.5800 H   0  0  0  0  0  0  0  0  0  0  0  0
    0.2274    3.5199    2.1889 H   0  0  0  0  0  0  0  0  0  0  0  0
    2.7387    4.6605   -1.2343 H   0  0  0  0  0  0  0  0  0  0  0  0
    2.7265   -0.7930    1.3139 H   0  0  0  0  0  0  0  0  0  0  0  0
    4.4397   -2.1470    2.0135 H   0  0  0  0  0  0  0  0  0  0  0  0
    5.5926   -1.3079    0.9589 H   0  0  0  0  0  0  0  0  0  0  0  0
    5.2308   -3.5971    0.1274 H   0  0  0  0  0  0  0  0  0  0  0  0
    4.5958   -2.4260   -1.0422 H   0  0  0  0  0  0  0  0  0  0  0  0
   -2.0996   -1.5160   -0.8793 H   0  0  0  0  0  0  0  0  0  0  0  0
   -6.2143    0.2090    1.2903 H   0  0  0  0  0  0  0  0  0  0  0  0
   -5.9176   -2.2179    1.0298 H   0  0  0  0  0  0  0  0  0  0  0  0
    2.1600   -5.0819   -1.0540 H   0  0  0  0  0  0  0  0  0  0  0  0
    3.7640   -4.7439   -1.6012 H   0  0  0  0  0  0  0  0  0  0  0  0
   -2.6744   -4.9332   -0.7345 H   0  0  0  0  0  0  0  0  0  0  0  0
   -1.7489   -3.5669   -0.1233 H   0  0  0  0  0  0  0  0  0  0  0  0
   -2.5715   -3.4960   -1.7449 H   0  0  0  0  0  0  0  0  0  0  0  0
  1 23  1  0  0  0  0
  2 11  1  0  0  0  0
  2 36  1  0  0  0  0
  3 13  1  0  0  0  0
  3 37  1  0  0  0  0
  4 17  2  0  0  0  0
  5 18  2  0  0  0  0
  6 24  1  0  0  0  0
  6 28  1  0  0  0  0
  7 26  2  0  0  0  0
  8 12  1  0  0  0  0
  8 18  1  0  0  0  0
  8 35  1  0  0  0  0
  9 17  1  0  0  0  0
  9 20  1  0  0  0  0
  9 38  1  0  0  0  0
 10 26  1  0  0  0  0
 10 46  1  0  0  0  0
 10 47  1  0  0  0  0
 11 12  1  0  0  0  0
 11 13  1  0  0  0  0
 11 29  1  0  0  0  0
 12 16  1  0  0  0  0
 12 30  1  0  0  0  0
 13 14  1  0  0  0  0
 13 31  1  0  0  0  0
 14 15  1  0  0  0  0
 14 32  1  0  0  0  0
 14 33  1  0  0  0  0
 15 16  2  0  0  0  0
 15 17  1  0  0  0  0
 16 34  1  0  0  0  0
 18 19  1  0  0  0  0
 19 22  1  0  0  0  0
 19 23  2  0  0  0  0
 20 21  1  0  0  0  0
 20 39  1  0  0  0  0
 20 40  1  0  0  0  0
 21 26  1  0  0  0  0
 21 41  1  0  0  0  0
 21 42  1  0  0  0  0
 22 24  2  0  0  0  0
 22 43  1  0  0  0  0
 23 25  1  0  0  0  0
 24 27  1  0  0  0  0
 25 27  2  0  0  0  0
 25 44  1  0  0  0  0
 27 45  1  0  0  0  0
 28 48  1  0  0  0  0
 28 49  1  0  0  0  0
 28 50  1  0  0  0  0
M  END
> <PUBCHEM_COMPOUND_CID>
11865720

> <PUBCHEM_CONFORMER_RMSD>
1

> <PUBCHEM_CONFORMER_DIVERSEORDER>
1
139
141
127
154
78
54
153
160
13
89
66
23
26
157
69
33
114
142
148
88
167
169
79
60
136
168
156
158
162
144
32
106
45
150
64
164
67
133
109
68
170
151
166
147
128
41
138
95
119
51
163
62
152
94
165
113
161
36
37
126
81
22
59
172
70
56
7
90
71
108
40
27
49
123
55
44
121
19
116
75
103
15
91
129
21
102
92
39
6
146
5
25
98
132
76
93
115
24
11
58
14
77
131
48
10
82
104
50
130
61
135
105
42
86
8
155
97
9
120
171
63
52
143
83
43
20
112
29
87
18
30
137
17
53
72
80
149
134
35
125
12
117
110
57
4
122
140
31
38
145
65
84
124
46
118
111
34
47
101
3
73
99
74
96
16
85
159
100
28
2
107

> <PUBCHEM_MMFF94_PARTIAL_CHARGES>
38
1 -0.11
10 -0.8
11 0.28
12 0.44
13 0.28
14 0.14
15 -0.12
16 -0.29
17 0.62
18 0.54
19 0.09
2 -0.68
20 0.3
21 0.06
22 -0.15
23 0.11
24 0.08
25 -0.15
26 0.57
27 -0.15
28 0.28
3 -0.68
34 0.15
35 0.37
36 0.4
37 0.4
38 0.37
4 -0.57
43 0.15
44 0.15
45 0.15
46 0.37
47 0.37
5 -0.57
6 -0.36
7 -0.57
8 -0.73
9 -0.73

> <PUBCHEM_EFFECTIVE_ROTOR_COUNT>
9.8

> <PUBCHEM_PHARMACOPHORE_FEATURES>
14
1 1 hydrophobe
1 10 donor
1 2 acceptor
1 2 donor
1 3 acceptor
1 3 donor
1 4 acceptor
1 5 acceptor
1 6 acceptor
1 7 acceptor
1 8 donor
1 9 donor
6 11 12 13 14 15 16 rings
6 19 22 23 24 25 27 rings

> <PUBCHEM_HEAVY_ATOM_COUNT>
28

> <PUBCHEM_ATOM_DEF_STEREO_COUNT>
3

> <PUBCHEM_ATOM_UDEF_STEREO_COUNT>
0

> <PUBCHEM_BOND_DEF_STEREO_COUNT>
0

> <PUBCHEM_BOND_UDEF_STEREO_COUNT>
0

> <PUBCHEM_ISOTOPIC_ATOM_COUNT>
0

> <PUBCHEM_COMPONENT_COUNT>
1

> <PUBCHEM_CACTVS_TAUTO_COUNT>
8

> <PUBCHEM_CONFORMER_ID>
00B50E7800000001

> <PUBCHEM_MMFF94_ENERGY>
67.1373

> <PUBCHEM_FEATURE_SELFOVERLAP>
71.056

> <PUBCHEM_SHAPE_FINGERPRINT>
11552529 35 17912364526947648965
12107183 9 18268156366421753353
12633257 1 18129959974076201625
13533116 47 18269269235555522635
14866123 147 17476359396474281641
15250474 111 18268424827293777967
15320467 1 18339080505083268367
15927050 60 17763464311781747908
20028762 73 18054787549058787222
20775530 9 18336539405151875526
21033648 29 15339125589553316873
21065198 57 18410574032977028725
21703447 108 17698987798550375137
23559900 14 18337945809552453761
3117164 225 18268997496963977105
325973 47 17113248941371768415
338550 245 18333735714725323638
3421961 26 18411134740814837096
3737641 26 18338804420632379198
463206 1 18335141977338928306
5104073 3 18272655700993585793
5309563 4 18339359648171734038
613672 6 18122320425325503358
6433294 58 18337951298093208258
7097593 13 18411979182776768421

> <PUBCHEM_SHAPE_MULTIPOLES>
532.01
11.73
6.22
1.04
3.57
2.83
0
6.6
2.09
-3.71
-0.69
0.04
-0.29
-0.45

> <PUBCHEM_SHAPE_SELFOVERLAP>
1097.905

> <PUBCHEM_SHAPE_VOLUME>
308.1

> <PUBCHEM_COORDINATE_TYPE>
2
5
10

$$$$
