45783401
  -OEChem-12032416263D

 58 61  0     1  0  0  0  0  0999 V2000
   -0.7875    0.1866    2.5814 O   0  0  0  0  0  0  0  0  0  0  0  0
   -3.0711    2.6579    1.4246 O   0  0  0  0  0  0  0  0  0  0  0  0
    0.7453    4.0728   -1.0548 O   0  0  0  0  0  0  0  0  0  0  0  0
    0.1967   -2.6104   -2.6450 O   0  0  0  0  0  0  0  0  0  0  0  0
   -2.8897   -1.0053    0.0302 N   0  0  1  0  0  0  0  0  0  0  0  0
    0.0952   -1.1348    1.0028 N   0  0  0  0  0  0  0  0  0  0  0  0
    0.5897    0.4419    2.5851 N   0  0  0  0  0  0  0  0  0  0  0  0
    1.8825   -1.0287   -1.0047 N   0  0  0  0  0  0  0  0  0  0  0  0
    4.1555   -0.8572   -0.3697 N   0  0  0  0  0  0  0  0  0  0  0  0
   -2.4237   -1.2063    1.4168 C   0  0  1  0  0  0  0  0  0  0  0  0
   -2.6137   -2.7117    1.6790 C   0  0  0  0  0  0  0  0  0  0  0  0
   -3.2469   -3.2599    0.4080 C   0  0  0  0  0  0  0  0  0  0  0  0
   -3.8901   -2.0422   -0.2241 C   0  0  0  0  0  0  0  0  0  0  0  0
   -3.4136    0.3329   -0.2115 C   0  0  0  0  0  0  0  0  0  0  0  0
   -0.9934   -0.7531    1.6217 C   0  0  0  0  0  0  0  0  0  0  0  0
   -2.3115    1.3363   -0.4250 C   0  0  0  0  0  0  0  0  0  0  0  0
   -2.1923    2.4518    0.4041 C   0  0  0  0  0  0  0  0  0  0  0  0
   -1.4034    1.1406   -1.4656 C   0  0  0  0  0  0  0  0  0  0  0  0
    1.0403   -0.3744    1.6278 C   0  0  0  0  0  0  0  0  0  0  0  0
   -1.1651    3.3715    0.1923 C   0  0  0  0  0  0  0  0  0  0  0  0
   -0.3764    2.0604   -1.6775 C   0  0  0  0  0  0  0  0  0  0  0  0
    2.4278   -0.4555    1.2730 C   0  0  0  0  0  0  0  0  0  0  0  0
   -0.2573    3.1760   -0.8485 C   0  0  0  0  0  0  0  0  0  0  0  0
    2.8562   -0.7732   -0.0059 C   0  0  0  0  0  0  0  0  0  0  0  0
    3.3950   -0.2079    2.2407 C   0  0  0  0  0  0  0  0  0  0  0  0
    4.7421   -0.2845    1.9047 C   0  0  0  0  0  0  0  0  0  0  0  0
    2.2275   -1.3628   -2.3474 C   0  0  0  0  0  0  0  0  0  0  0  0
    5.0671   -0.6099    0.5976 C   0  0  0  0  0  0  0  0  0  0  0  0
    0.9683   -1.5416   -3.1784 C   0  0  0  0  0  0  0  0  0  0  0  0
    1.6384    3.8106   -2.1364 C   0  0  0  0  0  0  0  0  0  0  0  0
   -0.9916   -2.8201   -3.3953 C   0  0  0  0  0  0  0  0  0  0  0  0
   -3.0685   -0.6676    2.1257 H   0  0  0  0  0  0  0  0  0  0  0  0
   -1.6853   -3.2440    1.9122 H   0  0  0  0  0  0  0  0  0  0  0  0
   -3.3020   -2.8545    2.5211 H   0  0  0  0  0  0  0  0  0  0  0  0
   -3.9680   -4.0561    0.6148 H   0  0  0  0  0  0  0  0  0  0  0  0
   -2.4688   -3.6665   -0.2501 H   0  0  0  0  0  0  0  0  0  0  0  0
   -4.8447   -1.8172    0.2683 H   0  0  0  0  0  0  0  0  0  0  0  0
   -4.0665   -2.1910   -1.2939 H   0  0  0  0  0  0  0  0  0  0  0  0
   -4.1163    0.6363    0.5739 H   0  0  0  0  0  0  0  0  0  0  0  0
   -4.0035    0.3355   -1.1394 H   0  0  0  0  0  0  0  0  0  0  0  0
   -1.4957    0.2828   -2.1246 H   0  0  0  0  0  0  0  0  0  0  0  0
   -1.0649    4.2431    0.8345 H   0  0  0  0  0  0  0  0  0  0  0  0
    0.2921    1.8497   -2.5049 H   0  0  0  0  0  0  0  0  0  0  0  0
   -2.8309    3.4774    1.8901 H   0  0  0  0  0  0  0  0  0  0  0  0
    3.1312    0.0394    3.2660 H   0  0  0  0  0  0  0  0  0  0  0  0
    0.9648   -0.6259   -0.8477 H   0  0  0  0  0  0  0  0  0  0  0  0
    5.5136   -0.0972    2.6428 H   0  0  0  0  0  0  0  0  0  0  0  0
    2.8435   -0.5750   -2.7958 H   0  0  0  0  0  0  0  0  0  0  0  0
    2.8002   -2.2977   -2.3573 H   0  0  0  0  0  0  0  0  0  0  0  0
    6.1034   -0.6829    0.2847 H   0  0  0  0  0  0  0  0  0  0  0  0
    0.3768   -0.6217   -3.1872 H   0  0  0  0  0  0  0  0  0  0  0  0
    1.2497   -1.7797   -4.2109 H   0  0  0  0  0  0  0  0  0  0  0  0
    2.3728    4.6225   -2.1533 H   0  0  0  0  0  0  0  0  0  0  0  0
    1.1190    3.8289   -3.1005 H   0  0  0  0  0  0  0  0  0  0  0  0
    2.1946    2.8795   -1.9820 H   0  0  0  0  0  0  0  0  0  0  0  0
   -1.6247   -1.9281   -3.3714 H   0  0  0  0  0  0  0  0  0  0  0  0
   -0.7511   -3.0846   -4.4295 H   0  0  0  0  0  0  0  0  0  0  0  0
   -1.5424   -3.6488   -2.9422 H   0  0  0  0  0  0  0  0  0  0  0  0
  1  7  1  0  0  0  0
  1 15  1  0  0  0  0
  2 17  1  0  0  0  0
  2 44  1  0  0  0  0
  3 23  1  0  0  0  0
  3 30  1  0  0  0  0
  4 29  1  0  0  0  0
  4 31  1  0  0  0  0
  5 10  1  0  0  0  0
  5 13  1  0  0  0  0
  5 14  1  0  0  0  0
  6 15  2  0  0  0  0
  6 19  1  0  0  0  0
  7 19  2  0  0  0  0
  8 24  1  0  0  0  0
  8 27  1  0  0  0  0
  8 46  1  0  0  0  0
  9 24  1  0  0  0  0
  9 28  2  0  0  0  0
 10 11  1  0  0  0  0
 10 15  1  0  0  0  0
 10 32  1  0  0  0  0
 11 12  1  0  0  0  0
 11 33  1  0  0  0  0
 11 34  1  0  0  0  0
 12 13  1  0  0  0  0
 12 35  1  0  0  0  0
 12 36  1  0  0  0  0
 13 37  1  0  0  0  0
 13 38  1  0  0  0  0
 14 16  1  0  0  0  0
 14 39  1  0  0  0  0
 14 40  1  0  0  0  0
 16 17  2  0  0  0  0
 16 18  1  0  0  0  0
 17 20  1  0  0  0  0
 18 21  2  0  0  0  0
 18 41  1  0  0  0  0
 19 22  1  0  0  0  0
 20 23  2  0  0  0  0
 20 42  1  0  0  0  0
 21 23  1  0  0  0  0
 21 43  1  0  0  0  0
 22 24  2  0  0  0  0
 22 25  1  0  0  0  0
 25 26  2  0  0  0  0
 25 45  1  0  0  0  0
 26 28  1  0  0  0  0
 26 47  1  0  0  0  0
 27 29  1  0  0  0  0
 27 48  1  0  0  0  0
 27 49  1  0  0  0  0
 28 50  1  0  0  0  0
 29 51  1  0  0  0  0
 29 52  1  0  0  0  0
 30 53  1  0  0  0  0
 30 54  1  0  0  0  0
 30 55  1  0  0  0  0
 31 56  1  0  0  0  0
 31 57  1  0  0  0  0
 31 58  1  0  0  0  0
M  END
> <PUBCHEM_COMPOUND_CID>
45783401

> <PUBCHEM_CONFORMER_RMSD>
1

> <PUBCHEM_CONFORMER_DIVERSEORDER>
1
163
121
37
142
103
174
21
122
141
162
148
32
100
112
176
172
190
58
93
65
71
102
183
101
132
79
91
127
194
165
52
167
35
182
56
145
19
31
199
120
49
33
99
66
95
177
59
189
22
20
171
7
2
75
42
30
181
157
198
92
191
161
34
178
90
38
51
166
143
135
116
88
67
84
41
69
61
197
23
87
179
36
53
115
175
117
55
108
187
54
96
146
188
10
119
155
106
63
111
195
160
13
134
12
186
80
193
158
5
104
4
144
8
62
15
123
185
60
11
40
200
78
184
98
57
114
73
107
137
147
170
94
43
196
68
77
70
81
133
24
164
6
47
131
18
149
48
136
153
125
39
156
130
14
129
50
27
152
150
44
76
128
113
97
82
45
64
192
29
138
154
159
83
25
168
16
74
126
89
105
86
173
109
3
118
46
140
180
28
169
151
26
85
124
9
110
72
139
17

> <PUBCHEM_MMFF94_PARTIAL_CHARGES>
37
1 -0.02
10 0.45
13 0.27
14 0.41
15 0.3
16 -0.14
17 0.08
18 -0.15
19 0.46
2 -0.53
20 -0.15
21 -0.15
22 0.05
23 0.08
24 0.41
25 -0.15
26 -0.15
27 0.37
28 0.16
29 0.28
3 -0.36
30 0.28
31 0.28
4 -0.56
41 0.15
42 0.15
43 0.15
44 0.45
45 0.15
46 0.4
47 0.15
5 -0.81
50 0.15
6 -0.57
7 -0.41
8 -0.87
9 -0.62

> <PUBCHEM_EFFECTIVE_ROTOR_COUNT>
10

> <PUBCHEM_PHARMACOPHORE_FEATURES>
12
1 2 donor
1 3 acceptor
1 4 acceptor
1 5 cation
1 8 cation
1 8 donor
1 9 acceptor
3 6 7 19 cation
5 1 6 7 15 19 rings
5 5 10 11 12 13 rings
6 16 17 18 20 21 23 rings
6 9 22 24 25 26 28 rings

> <PUBCHEM_HEAVY_ATOM_COUNT>
31

> <PUBCHEM_ATOM_DEF_STEREO_COUNT>
1

> <PUBCHEM_ATOM_UDEF_STEREO_COUNT>
0

> <PUBCHEM_BOND_DEF_STEREO_COUNT>
0

> <PUBCHEM_BOND_UDEF_STEREO_COUNT>
0

> <PUBCHEM_ISOTOPIC_ATOM_COUNT>
0

> <PUBCHEM_COMPONENT_COUNT>
1

> <PUBCHEM_CACTVS_TAUTO_COUNT>
24

> <PUBCHEM_CONFORMER_ID>
02BA996900000001

> <PUBCHEM_MMFF94_ENERGY>
84.102

> <PUBCHEM_FEATURE_SELFOVERLAP>
60.897

> <PUBCHEM_SHAPE_FINGERPRINT>
1100329 8 18187364337917191785
11578080 2 17628949783491183128
12655364 131 15616731505480545780
133893 2 17755044199405328393
13583140 156 18197469910770526066
13615921 28 18040709307612914964
13761468 95 16809830002436320534
14910302 57 18268703918685075874
15876981 60 18040442088033625142
20600515 1 18261384521397576517
20905425 154 17828495991593719013
23419403 2 18050818268995537017
23557571 272 18411140212244294194
35225 105 17831816280075074942
392239 28 17894623748099684728
550186 7 18119802518170783310
9925002 15 17626649854273771326

> <PUBCHEM_SHAPE_MULTIPOLES>
589.58
6.85
4.51
3.29
5.45
4.55
-2.13
-3.89
2.92
-2.71
-2.16
1.04
-1.88
-0.51

> <PUBCHEM_SHAPE_SELFOVERLAP>
1262.935

> <PUBCHEM_SHAPE_VOLUME>
328.3

> <PUBCHEM_COORDINATE_TYPE>
2
5
10

$$$$
