45784069
  -OEChem-12032416143D

 45 48  0     1  0  0  0  0  0999 V2000
    2.8872   -0.7960    1.7618 O   0  0  0  0  0  0  0  0  0  0  0  0
   -6.8112    1.6704   -0.1742 O   0  0  0  0  0  0  0  0  0  0  0  0
    1.4706   -1.4784    0.0895 N   0  0  0  0  0  0  0  0  0  0  0  0
   -3.1036   -1.5267   -0.0760 N   0  0  0  0  0  0  0  0  0  0  0  0
   -1.5782    0.0249    0.3778 N   0  0  0  0  0  0  0  0  0  0  0  0
    3.4069   -0.2832   -0.4542 N   0  0  0  0  0  0  0  0  0  0  0  0
   -0.7391   -2.3564    0.1604 C   0  0  1  0  0  0  0  0  0  0  0  0
   -0.1494   -2.5723   -1.2411 C   0  0  0  0  0  0  0  0  0  0  0  0
    0.5209   -2.1103    0.9992 C   0  0  0  0  0  0  0  0  0  0  0  0
    1.0324   -1.6115   -1.2980 C   0  0  0  0  0  0  0  0  0  0  0  0
   -1.7851   -1.2548    0.1622 C   0  0  0  0  0  0  0  0  0  0  0  0
    2.6260   -0.8417    0.5584 C   0  0  0  0  0  0  0  0  0  0  0  0
   -3.7935   -0.3435   -0.0094 C   0  0  0  0  0  0  0  0  0  0  0  0
   -2.8195    0.6096    0.2748 C   0  0  0  0  0  0  0  0  0  0  0  0
   -5.1449   -0.0346   -0.1686 C   0  0  0  0  0  0  0  0  0  0  0  0
   -3.1980    1.9558    0.4118 C   0  0  0  0  0  0  0  0  0  0  0  0
   -5.5038    1.3101   -0.0290 C   0  0  0  0  0  0  0  0  0  0  0  0
   -4.5493    2.2893    0.2560 C   0  0  0  0  0  0  0  0  0  0  0  0
    4.6271    0.4240   -0.3207 C   0  0  0  0  0  0  0  0  0  0  0  0
    5.2628    0.9374   -1.4512 C   0  0  0  0  0  0  0  0  0  0  0  0
    5.1930    0.6067    0.9409 C   0  0  0  0  0  0  0  0  0  0  0  0
    6.4644    1.6336   -1.3200 C   0  0  0  0  0  0  0  0  0  0  0  0
    6.3945    1.3029    1.0723 C   0  0  0  0  0  0  0  0  0  0  0  0
    7.0303    1.8163   -0.0583 C   0  0  0  0  0  0  0  0  0  0  0  0
   -7.7402    0.6286   -0.4643 C   0  0  0  0  0  0  0  0  0  0  0  0
   -1.2316   -3.2724    0.5113 H   0  0  0  0  0  0  0  0  0  0  0  0
    0.2211   -3.6025   -1.3202 H   0  0  0  0  0  0  0  0  0  0  0  0
   -0.8566   -2.4069   -2.0599 H   0  0  0  0  0  0  0  0  0  0  0  0
    0.3519   -1.4830    1.8802 H   0  0  0  0  0  0  0  0  0  0  0  0
    0.9699   -3.0566    1.3226 H   0  0  0  0  0  0  0  0  0  0  0  0
    1.8408   -1.9937   -1.9281 H   0  0  0  0  0  0  0  0  0  0  0  0
    0.7329   -0.6203   -1.6547 H   0  0  0  0  0  0  0  0  0  0  0  0
   -3.5014   -2.4365   -0.2687 H   0  0  0  0  0  0  0  0  0  0  0  0
    3.0725   -0.3628   -1.4092 H   0  0  0  0  0  0  0  0  0  0  0  0
   -5.8337   -0.8396   -0.3885 H   0  0  0  0  0  0  0  0  0  0  0  0
   -2.4639    2.7239    0.6331 H   0  0  0  0  0  0  0  0  0  0  0  0
   -4.8526    3.3285    0.3600 H   0  0  0  0  0  0  0  0  0  0  0  0
    4.8327    0.8021   -2.4403 H   0  0  0  0  0  0  0  0  0  0  0  0
    4.7688    0.2378    1.8634 H   0  0  0  0  0  0  0  0  0  0  0  0
    6.9595    2.0333   -2.2002 H   0  0  0  0  0  0  0  0  0  0  0  0
    6.8370    1.4450    2.0540 H   0  0  0  0  0  0  0  0  0  0  0  0
    7.9660    2.3581    0.0439 H   0  0  0  0  0  0  0  0  0  0  0  0
   -7.5288    0.1566   -1.4299 H   0  0  0  0  0  0  0  0  0  0  0  0
   -7.7973   -0.1001    0.3515 H   0  0  0  0  0  0  0  0  0  0  0  0
   -8.7291    1.0916   -0.5467 H   0  0  0  0  0  0  0  0  0  0  0  0
  1 12  2  0  0  0  0
  2 17  1  0  0  0  0
  2 25  1  0  0  0  0
  3  9  1  0  0  0  0
  3 10  1  0  0  0  0
  3 12  1  0  0  0  0
  4 11  1  0  0  0  0
  4 13  1  0  0  0  0
  4 33  1  0  0  0  0
  5 11  2  0  0  0  0
  5 14  1  0  0  0  0
  6 12  1  0  0  0  0
  6 19  1  0  0  0  0
  6 34  1  0  0  0  0
  7  8  1  0  0  0  0
  7  9  1  0  0  0  0
  7 11  1  0  0  0  0
  7 26  1  0  0  0  0
  8 10  1  0  0  0  0
  8 27  1  0  0  0  0
  8 28  1  0  0  0  0
  9 29  1  0  0  0  0
  9 30  1  0  0  0  0
 10 31  1  0  0  0  0
 10 32  1  0  0  0  0
 13 14  2  0  0  0  0
 13 15  1  0  0  0  0
 14 16  1  0  0  0  0
 15 17  2  0  0  0  0
 15 35  1  0  0  0  0
 16 18  2  0  0  0  0
 16 36  1  0  0  0  0
 17 18  1  0  0  0  0
 18 37  1  0  0  0  0
 19 20  2  0  0  0  0
 19 21  1  0  0  0  0
 20 22  1  0  0  0  0
 20 38  1  0  0  0  0
 21 23  2  0  0  0  0
 21 39  1  0  0  0  0
 22 24  2  0  0  0  0
 22 40  1  0  0  0  0
 23 24  1  0  0  0  0
 23 41  1  0  0  0  0
 24 42  1  0  0  0  0
 25 43  1  0  0  0  0
 25 44  1  0  0  0  0
 25 45  1  0  0  0  0
M  END
> <PUBCHEM_COMPOUND_CID>
45784069

> <PUBCHEM_CONFORMER_RMSD>
0.8

> <PUBCHEM_CONFORMER_DIVERSEORDER>
1
74
79
67
55
84
89
9
22
93
20
58
47
92
7
34
88
87
66
69
68
15
77
18
30
54
51
70
35
75
21
61
23
43
25
10
52
28
90
56
73
94
16
86
80
46
3
82
83
71
65
64
49
27
44
40
60
78
91
42
14
57
11
62
81
5
31
36
85
26
39
45
50
41
19
12
72
38
76
32
33
53
59
48
4
37
6
13
17
24
8
29
2
63

> <PUBCHEM_MMFF94_PARTIAL_CHARGES>
34
1 -0.57
10 0.3
11 0.01
12 0.69
13 -0.15
14 0.23
15 -0.15
16 -0.15
17 0.08
18 -0.15
19 0.12
2 -0.36
20 -0.15
21 -0.15
22 -0.15
23 -0.15
24 -0.15
25 0.28
3 -0.66
33 0.27
34 0.37
35 0.15
36 0.15
37 0.15
38 0.15
39 0.15
4 0.03
40 0.15
41 0.15
42 0.15
5 -0.57
6 -0.55
7 0.18
9 0.3

> <PUBCHEM_EFFECTIVE_ROTOR_COUNT>
6

> <PUBCHEM_PHARMACOPHORE_FEATURES>
9
1 1 acceptor
1 2 acceptor
1 4 donor
1 6 donor
3 4 5 11 cation
5 3 7 8 9 10 rings
5 4 5 11 13 14 rings
6 13 14 15 16 17 18 rings
6 19 20 21 22 23 24 rings

> <PUBCHEM_HEAVY_ATOM_COUNT>
25

> <PUBCHEM_ATOM_DEF_STEREO_COUNT>
1

> <PUBCHEM_ATOM_UDEF_STEREO_COUNT>
0

> <PUBCHEM_BOND_DEF_STEREO_COUNT>
0

> <PUBCHEM_BOND_UDEF_STEREO_COUNT>
0

> <PUBCHEM_ISOTOPIC_ATOM_COUNT>
0

> <PUBCHEM_COMPONENT_COUNT>
1

> <PUBCHEM_CACTVS_TAUTO_COUNT>
4

> <PUBCHEM_CONFORMER_ID>
02BA9C0500000001

> <PUBCHEM_MMFF94_ENERGY>
69.825

> <PUBCHEM_FEATURE_SELFOVERLAP>
45.779

> <PUBCHEM_SHAPE_FINGERPRINT>
10 15 17603590729139259409
10411042 1 17691124160066968967
10429389 143 17604138260872472757
105312 117 18131070471998427030
10591671 39 18342741853302191703
10670039 82 18130797707215496336
10753850 27 10807935955408482774
11823591 26 18409722967610452982
12107183 9 18261663767719134690
12596602 18 17385724711676445104
12633257 1 15864359077195329138
12760667 363 8286200535483170691
12838862 33 18337374007254807957
12895836 83 18272367602744352066
12895837 130 18195249043258480396
13673619 4 9799691493519807079
13685833 64 8862940576166086743
14123256 34 9223230762574961116
14251751 18 9511464407534245802
14257110 125 18410293596806767137
14341114 328 17748826336901800914
14739800 52 18338504301455831978
14840074 17 17749113304973359364
14931854 50 17989205906614790025
15163728 17 18271819977313506990
15183329 4 16128382558020953254
15238133 3 18261392295747207232
1577012 14 18260264183615650562
15961568 22 18335987484537632565
17134984 74 14477238267430991164
17980427 23 17895196644722499863
18608769 82 18341333392250933083
19427546 20 18339076107822370919
1979834 28 14273455843084853672
21033648 29 18059564854430357864
21298829 104 18409170974430340437
21585481 104 15195021417657352633
21637258 2 10592044639507648554
21756936 100 18336261353443655794
22122407 14 17895205449389748544
221357 26 16200434663185623096
23559900 14 18130780209423955985
24771293 8 18409168780361175469
270888 7 18409449167613485269
2748736 6 18335977601680675716
2838139 119 18343575253151254568
306946 40 17059769045165942016
312425 54 15213021570002854848
3472631 163 18409733980111932284
351380 3 10807938158832382508
4098825 35 14979691948472413313
4107672 100 12895088284176047811
4340502 62 16298386851200366320
439807 62 11383831576110556645
44249763 50 17559943489487749296
44802255 64 17773608311586017534
543368 44 18413107239342983225
59682541 35 18335150808666778611
6327066 14 18412261748443044316
6438161 24 10231747869315095717
6712543 237 14634866465807070792
7808743 9 18411135852873587666
7970288 3 10087641481474670908
9981440 41 18335145301496221635

> <PUBCHEM_SHAPE_MULTIPOLES>
482.83
19.73
2.65
1.18
2.37
0.65
0.06
-17.73
2.17
-0.74
0.18
1.75
0.16
-0.55

> <PUBCHEM_SHAPE_SELFOVERLAP>
1055.402

> <PUBCHEM_SHAPE_VOLUME>
261.8

> <PUBCHEM_COORDINATE_TYPE>
2
5
10

$$$$
