45783939
  -OEChem-12032416203D

 62 65  0     1  0  0  0  0  0999 V2000
   -5.8758    0.1102    1.0536 F   0  0  0  0  0  0  0  0  0  0  0  0
   -1.7244    0.1743    0.8132 O   0  0  0  0  0  0  0  0  0  0  0  0
    2.9361   -1.4361   -2.3185 O   0  0  0  0  0  0  0  0  0  0  0  0
    3.5535    0.1292   -0.7202 N   0  0  0  0  0  0  0  0  0  0  0  0
   -2.3289    1.6770    2.3564 N   0  0  0  0  0  0  0  0  0  0  0  0
   -3.4775    1.0922    1.8567 N   0  0  0  0  0  0  0  0  0  0  0  0
    3.3037   -4.2506    1.7950 N   0  0  0  0  0  0  0  0  0  0  0  0
    1.0928    1.7922   -1.1929 C   0  0  1  0  0  0  0  0  0  0  0  0
    2.5461    2.3192   -1.0914 C   0  0  1  0  0  0  0  0  0  0  0  0
    0.1516    2.6451   -0.3287 C   0  0  0  0  0  0  0  0  0  0  0  0
    0.5666    2.6497    1.1546 C   0  0  2  0  0  0  0  0  0  0  0  0
    0.5940    1.7748   -2.6411 C   0  0  0  0  0  0  0  0  0  0  0  0
    2.0517    2.8991    1.3231 C   0  0  0  0  0  0  0  0  0  0  0  0
    2.9191    2.7594    0.3048 C   0  0  0  0  0  0  0  0  0  0  0  0
    3.5505    1.2700   -1.5814 C   0  0  0  0  0  0  0  0  0  0  0  0
    0.1462    1.3500    1.8498 C   0  0  0  0  0  0  0  0  0  0  0  0
   -0.5221    0.7483   -2.8072 C   0  0  0  0  0  0  0  0  0  0  0  0
    0.1183    3.1631   -3.0567 C   0  0  0  0  0  0  0  0  0  0  0  0
    2.5117    3.3576    2.6789 C   0  0  0  0  0  0  0  0  0  0  0  0
   -1.3307    1.1108    1.7191 C   0  0  0  0  0  0  0  0  0  0  0  0
    3.2412   -1.1559   -1.1622 C   0  0  0  0  0  0  0  0  0  0  0  0
   -3.0769    0.2222    0.9593 C   0  0  0  0  0  0  0  0  0  0  0  0
    3.2642   -2.2306   -0.1369 C   0  0  0  0  0  0  0  0  0  0  0  0
   -3.8297   -0.6691    0.1253 C   0  0  0  0  0  0  0  0  0  0  0  0
    2.4696   -3.3610   -0.2925 C   0  0  0  0  0  0  0  0  0  0  0  0
    4.0785   -2.1091    0.9836 C   0  0  0  0  0  0  0  0  0  0  0  0
   -5.2221   -0.6948    0.2032 C   0  0  0  0  0  0  0  0  0  0  0  0
   -3.1653   -1.5125   -0.7651 C   0  0  0  0  0  0  0  0  0  0  0  0
    2.5251   -4.3335    0.6929 C   0  0  0  0  0  0  0  0  0  0  0  0
    4.0622   -3.1376    1.9119 C   0  0  0  0  0  0  0  0  0  0  0  0
   -5.9501   -1.5640   -0.6093 C   0  0  0  0  0  0  0  0  0  0  0  0
   -3.8933   -2.3819   -1.5775 C   0  0  0  0  0  0  0  0  0  0  0  0
   -5.2857   -2.4076   -1.4997 C   0  0  0  0  0  0  0  0  0  0  0  0
    1.0603    0.7662   -0.8064 H   0  0  0  0  0  0  0  0  0  0  0  0
    2.6610    3.2033   -1.7310 H   0  0  0  0  0  0  0  0  0  0  0  0
   -0.8943    2.3523   -0.4536 H   0  0  0  0  0  0  0  0  0  0  0  0
    0.2032    3.6965   -0.6435 H   0  0  0  0  0  0  0  0  0  0  0  0
    0.0263    3.4836    1.6257 H   0  0  0  0  0  0  0  0  0  0  0  0
    1.4001    1.4756   -3.3189 H   0  0  0  0  0  0  0  0  0  0  0  0
    3.9678    2.9978    0.4716 H   0  0  0  0  0  0  0  0  0  0  0  0
    4.5669    1.6818   -1.5574 H   0  0  0  0  0  0  0  0  0  0  0  0
    3.3597    0.9734   -2.6163 H   0  0  0  0  0  0  0  0  0  0  0  0
    0.3781    1.3970    2.9207 H   0  0  0  0  0  0  0  0  0  0  0  0
    0.6955    0.4876    1.4530 H   0  0  0  0  0  0  0  0  0  0  0  0
   -0.8491    0.7048   -3.8520 H   0  0  0  0  0  0  0  0  0  0  0  0
   -0.1780   -0.2537   -2.5291 H   0  0  0  0  0  0  0  0  0  0  0  0
   -1.3997    0.9871   -2.1989 H   0  0  0  0  0  0  0  0  0  0  0  0
    0.8614    3.9413   -2.8590 H   0  0  0  0  0  0  0  0  0  0  0  0
   -0.0588    3.1730   -4.1394 H   0  0  0  0  0  0  0  0  0  0  0  0
   -0.8342    3.4479   -2.5977 H   0  0  0  0  0  0  0  0  0  0  0  0
    2.3411    2.5802    3.4295 H   0  0  0  0  0  0  0  0  0  0  0  0
    3.5802    3.5982    2.6921 H   0  0  0  0  0  0  0  0  0  0  0  0
    1.9683    4.2591    2.9798 H   0  0  0  0  0  0  0  0  0  0  0  0
    3.7917    0.2865    0.2528 H   0  0  0  0  0  0  0  0  0  0  0  0
    1.8167   -3.4923   -1.1487 H   0  0  0  0  0  0  0  0  0  0  0  0
    4.7423   -1.2686    1.1495 H   0  0  0  0  0  0  0  0  0  0  0  0
   -2.0820   -1.5227   -0.8546 H   0  0  0  0  0  0  0  0  0  0  0  0
    1.9236   -5.2336    0.6195 H   0  0  0  0  0  0  0  0  0  0  0  0
    4.6846   -3.0949    2.7998 H   0  0  0  0  0  0  0  0  0  0  0  0
   -7.0342   -1.5838   -0.5487 H   0  0  0  0  0  0  0  0  0  0  0  0
   -3.3763   -3.0389   -2.2708 H   0  0  0  0  0  0  0  0  0  0  0  0
   -5.8526   -3.0844   -2.1323 H   0  0  0  0  0  0  0  0  0  0  0  0
  1 27  1  0  0  0  0
  2 20  1  0  0  0  0
  2 22  1  0  0  0  0
  3 21  2  0  0  0  0
  4 15  1  0  0  0  0
  4 21  1  0  0  0  0
  4 54  1  0  0  0  0
  5  6  1  0  0  0  0
  5 20  2  0  0  0  0
  6 22  2  0  0  0  0
  7 29  2  0  0  0  0
  7 30  1  0  0  0  0
  8  9  1  0  0  0  0
  8 10  1  0  0  0  0
  8 12  1  0  0  0  0
  8 34  1  0  0  0  0
  9 14  1  0  0  0  0
  9 15  1  0  0  0  0
  9 35  1  0  0  0  0
 10 11  1  0  0  0  0
 10 36  1  0  0  0  0
 10 37  1  0  0  0  0
 11 13  1  0  0  0  0
 11 16  1  0  0  0  0
 11 38  1  0  0  0  0
 12 17  1  0  0  0  0
 12 18  1  0  0  0  0
 12 39  1  0  0  0  0
 13 14  2  0  0  0  0
 13 19  1  0  0  0  0
 14 40  1  0  0  0  0
 15 41  1  0  0  0  0
 15 42  1  0  0  0  0
 16 20  1  0  0  0  0
 16 43  1  0  0  0  0
 16 44  1  0  0  0  0
 17 45  1  0  0  0  0
 17 46  1  0  0  0  0
 17 47  1  0  0  0  0
 18 48  1  0  0  0  0
 18 49  1  0  0  0  0
 18 50  1  0  0  0  0
 19 51  1  0  0  0  0
 19 52  1  0  0  0  0
 19 53  1  0  0  0  0
 21 23  1  0  0  0  0
 22 24  1  0  0  0  0
 23 25  2  0  0  0  0
 23 26  1  0  0  0  0
 24 27  1  0  0  0  0
 24 28  2  0  0  0  0
 25 29  1  0  0  0  0
 25 55  1  0  0  0  0
 26 30  2  0  0  0  0
 26 56  1  0  0  0  0
 27 31  2  0  0  0  0
 28 32  1  0  0  0  0
 28 57  1  0  0  0  0
 29 58  1  0  0  0  0
 30 59  1  0  0  0  0
 31 33  1  0  0  0  0
 31 60  1  0  0  0  0
 32 33  2  0  0  0  0
 32 61  1  0  0  0  0
 33 62  1  0  0  0  0
M  END
> <PUBCHEM_COMPOUND_CID>
45783939

> <PUBCHEM_CONFORMER_RMSD>
1.2

> <PUBCHEM_CONFORMER_DIVERSEORDER>
1
71
10
69
106
30
78
56
41
120
126
110
88
97
39
91
124
83
73
8
42
76
17
122
28
46
33
60
55
58
84
66
112
123
114
6
36
50
25
100
40
68
43
129
52
80
24
5
131
67
127
51
107
132
57
18
96
47
38
35
108
118
116
119
90
104
4
63
85
115
105
117
77
3
99
64
113
12
27
37
59
19
87
130
7
74
34
95
32
89
109
75
82
121
62
86
21
72
125
11
92
61
94
44
16
70
79
128
29
111
20
45
102
48
13
22
49
15
14
81
103
53
9
23
2
31
93
101
65
98
54
26

> <PUBCHEM_MMFF94_PARTIAL_CHARGES>
38
1 -0.19
11 0.14
13 -0.28
14 -0.29
15 0.3
16 0.18
19 0.14
2 -0.28
20 0.3
21 0.54
22 0.43
23 0.09
24 0.05
25 -0.15
26 -0.15
27 0.19
28 -0.15
29 0.16
3 -0.57
30 0.16
31 -0.15
32 -0.15
33 -0.15
4 -0.73
40 0.15
5 -0.34
54 0.37
55 0.15
56 0.15
57 0.15
58 0.15
59 0.15
6 -0.34
60 0.15
61 0.15
62 0.15
7 -0.62
9 0.14

> <PUBCHEM_EFFECTIVE_ROTOR_COUNT>
8.8

> <PUBCHEM_PHARMACOPHORE_FEATURES>
8
1 3 acceptor
1 4 donor
1 7 acceptor
3 12 17 18 hydrophobe
5 2 5 6 20 22 rings
6 24 27 28 31 32 33 rings
6 7 23 25 26 29 30 rings
6 8 9 10 11 13 14 rings

> <PUBCHEM_HEAVY_ATOM_COUNT>
33

> <PUBCHEM_ATOM_DEF_STEREO_COUNT>
3

> <PUBCHEM_ATOM_UDEF_STEREO_COUNT>
0

> <PUBCHEM_BOND_DEF_STEREO_COUNT>
0

> <PUBCHEM_BOND_UDEF_STEREO_COUNT>
0

> <PUBCHEM_ISOTOPIC_ATOM_COUNT>
0

> <PUBCHEM_COMPONENT_COUNT>
1

> <PUBCHEM_CACTVS_TAUTO_COUNT>
2

> <PUBCHEM_CONFORMER_ID>
02BA9B8300000001

> <PUBCHEM_MMFF94_ENERGY>
69.7452

> <PUBCHEM_FEATURE_SELFOVERLAP>
40.597

> <PUBCHEM_SHAPE_FINGERPRINT>
10842051 180 17822291233621904314
11285246 1 17171232915354000302
11552529 35 17691685585496131626
12156800 1 16446683383207118166
12977781 61 17902469811018759256
131258 38 18272082825265118246
13383668 262 17760342772369618251
14028597 1 15834178706994447124
14251757 17 15213315096409949255
14674994 50 17468470418067359750
14705955 166 15550516436641688154
17138139 8 17914061055750528782
18681886 176 16271381814746523432
19026451 147 18408599245331612386
19315092 285 17912893322883751231
20511986 3 18130508617018923365
20775530 9 17826528673397603074
25222932 49 17127324258391889935
444735 86 17341517902369823735
4573279 79 16881561148953348666
463206 1 18270410510770175291
474144 1 18413388752204604279
5081480 168 17458340798114128661
59025328 239 18187078434137732348
66674814 147 18261397792656733762
6700243 42 13409658647284316824

> <PUBCHEM_SHAPE_MULTIPOLES>
640.19
10.59
5.55
2.97
16.31
3.83
-0.75
8.78
0.61
-7.38
1.42
-0.75
-2.09
-2.37

> <PUBCHEM_SHAPE_SELFOVERLAP>
1374.614

> <PUBCHEM_SHAPE_VOLUME>
354.2

> <PUBCHEM_COORDINATE_TYPE>
2
5
10

$$$$
