11879562
  -OEChem-12032416373D

 60 64  0     1  0  0  0  0  0999 V2000
   -0.7105   -3.4225    0.3779 O   0  0  0  0  0  0  0  0  0  0  0  0
   -0.7154   -1.1321   -1.7774 O   0  0  0  0  0  0  0  0  0  0  0  0
    3.8007   -0.7137   -0.3085 O   0  0  0  0  0  0  0  0  0  0  0  0
   -5.3350   -2.0737   -1.1096 O   0  0  0  0  0  0  0  0  0  0  0  0
   -7.7937    3.3892    0.8287 O   0  0  0  0  0  0  0  0  0  0  0  0
    1.8336   -1.4018    0.8243 N   0  0  0  0  0  0  0  0  0  0  0  0
   -3.4207   -1.0616   -0.2794 N   0  0  0  0  0  0  0  0  0  0  0  0
    1.3753   -1.4186    2.0794 N   0  0  0  0  0  0  0  0  0  0  0  0
    3.4243   -0.5428    2.0082 N   0  0  0  0  0  0  0  0  0  0  0  0
    2.3553   -0.8908    2.8027 N   0  0  0  0  0  0  0  0  0  0  0  0
    6.6551    3.1572   -0.5683 N   0  0  0  0  0  0  0  0  0  0  0  0
   -0.3165   -1.2024   -0.3963 C   0  0  1  0  0  0  0  0  0  0  0  0
   -1.3010   -2.1151    0.3085 C   0  0  1  0  0  0  0  0  0  0  0  0
    1.0186   -1.9131   -0.2808 C   0  0  2  0  0  0  0  0  0  0  0  0
   -2.5098   -2.1337   -0.6000 C   0  0  2  0  0  0  0  0  0  0  0  0
    0.6172   -3.3793   -0.1625 C   0  0  0  0  0  0  0  0  0  0  0  0
   -1.8881   -1.9355   -1.9699 C   0  0  0  0  0  0  0  0  0  0  0  0
    3.0775   -0.8698    0.7846 C   0  0  0  0  0  0  0  0  0  0  0  0
   -4.7769   -1.1242   -0.5661 C   0  0  0  0  0  0  0  0  0  0  0  0
   -5.5755    0.0727   -0.1966 C   0  0  0  0  0  0  0  0  0  0  0  0
   -5.1408    0.8702    0.8417 C   0  0  0  0  0  0  0  0  0  0  0  0
   -6.7275    0.3482   -0.9038 C   0  0  0  0  0  0  0  0  0  0  0  0
    5.0730   -0.1590   -0.2905 C   0  0  0  0  0  0  0  0  0  0  0  0
   -5.8917    1.9934    1.1885 C   0  0  0  0  0  0  0  0  0  0  0  0
   -7.4782    1.4716   -0.5570 C   0  0  0  0  0  0  0  0  0  0  0  0
    5.2115    1.2076   -0.4387 C   0  0  0  0  0  0  0  0  0  0  0  0
    6.1639   -0.9902   -0.1233 C   0  0  0  0  0  0  0  0  0  0  0  0
   -7.0603    2.2941    0.4891 C   0  0  0  0  0  0  0  0  0  0  0  0
    6.4902    1.7645   -0.4191 C   0  0  0  0  0  0  0  0  0  0  0  0
    7.4426   -0.4332   -0.1034 C   0  0  0  0  0  0  0  0  0  0  0  0
    7.6057    0.9441   -0.2514 C   0  0  0  0  0  0  0  0  0  0  0  0
    5.6215    4.0707   -0.1233 C   0  0  0  0  0  0  0  0  0  0  0  0
    7.8544    3.6927   -1.1815 C   0  0  0  0  0  0  0  0  0  0  0  0
   -8.9787    3.6369    0.0736 C   0  0  0  0  0  0  0  0  0  0  0  0
   -0.3235   -0.1796   -0.0059 H   0  0  0  0  0  0  0  0  0  0  0  0
   -1.5192   -1.8001    1.3340 H   0  0  0  0  0  0  0  0  0  0  0  0
    1.6263   -1.7806   -1.1839 H   0  0  0  0  0  0  0  0  0  0  0  0
   -3.0557   -3.0826   -0.5633 H   0  0  0  0  0  0  0  0  0  0  0  0
    1.2861   -3.9682    0.4725 H   0  0  0  0  0  0  0  0  0  0  0  0
    0.5783   -3.8506   -1.1507 H   0  0  0  0  0  0  0  0  0  0  0  0
   -1.5620   -2.8913   -2.3947 H   0  0  0  0  0  0  0  0  0  0  0  0
   -2.5485   -1.4450   -2.6914 H   0  0  0  0  0  0  0  0  0  0  0  0
   -3.0109   -0.1998    0.0655 H   0  0  0  0  0  0  0  0  0  0  0  0
   -4.2570    0.6519    1.4320 H   0  0  0  0  0  0  0  0  0  0  0  0
   -7.0631   -0.2796   -1.7239 H   0  0  0  0  0  0  0  0  0  0  0  0
   -5.5657    2.6265    2.0094 H   0  0  0  0  0  0  0  0  0  0  0  0
   -8.3744    1.6474   -1.1422 H   0  0  0  0  0  0  0  0  0  0  0  0
    4.3245    1.8181   -0.5798 H   0  0  0  0  0  0  0  0  0  0  0  0
    6.0392   -2.0626   -0.0080 H   0  0  0  0  0  0  0  0  0  0  0  0
    8.3107   -1.0721    0.0299 H   0  0  0  0  0  0  0  0  0  0  0  0
    8.6140    1.3468   -0.2194 H   0  0  0  0  0  0  0  0  0  0  0  0
    6.0188    5.0838    0.0058 H   0  0  0  0  0  0  0  0  0  0  0  0
    4.8104    4.1263   -0.8570 H   0  0  0  0  0  0  0  0  0  0  0  0
    5.2091    3.7691    0.8462 H   0  0  0  0  0  0  0  0  0  0  0  0
    8.6832    3.7064   -0.4659 H   0  0  0  0  0  0  0  0  0  0  0  0
    8.1492    3.1103   -2.0617 H   0  0  0  0  0  0  0  0  0  0  0  0
    7.6980    4.7220   -1.5233 H   0  0  0  0  0  0  0  0  0  0  0  0
   -9.7090    2.8295    0.1943 H   0  0  0  0  0  0  0  0  0  0  0  0
   -9.4365    4.5450    0.4791 H   0  0  0  0  0  0  0  0  0  0  0  0
   -8.7507    3.8364   -0.9790 H   0  0  0  0  0  0  0  0  0  0  0  0
  1 13  1  0  0  0  0
  1 16  1  0  0  0  0
  2 12  1  0  0  0  0
  2 17  1  0  0  0  0
  3 18  1  0  0  0  0
  3 23  1  0  0  0  0
  4 19  2  0  0  0  0
  5 28  1  0  0  0  0
  5 34  1  0  0  0  0
  6  8  1  0  0  0  0
  6 14  1  0  0  0  0
  6 18  1  0  0  0  0
  7 15  1  0  0  0  0
  7 19  1  0  0  0  0
  7 43  1  0  0  0  0
  8 10  2  0  0  0  0
  9 10  1  0  0  0  0
  9 18  2  0  0  0  0
 11 29  1  0  0  0  0
 11 32  1  0  0  0  0
 11 33  1  0  0  0  0
 12 13  1  0  0  0  0
 12 14  1  0  0  0  0
 12 35  1  0  0  0  0
 13 15  1  0  0  0  0
 13 36  1  0  0  0  0
 14 16  1  0  0  0  0
 14 37  1  0  0  0  0
 15 17  1  0  0  0  0
 15 38  1  0  0  0  0
 16 39  1  0  0  0  0
 16 40  1  0  0  0  0
 17 41  1  0  0  0  0
 17 42  1  0  0  0  0
 19 20  1  0  0  0  0
 20 21  2  0  0  0  0
 20 22  1  0  0  0  0
 21 24  1  0  0  0  0
 21 44  1  0  0  0  0
 22 25  2  0  0  0  0
 22 45  1  0  0  0  0
 23 26  1  0  0  0  0
 23 27  2  0  0  0  0
 24 28  2  0  0  0  0
 24 46  1  0  0  0  0
 25 28  1  0  0  0  0
 25 47  1  0  0  0  0
 26 29  2  0  0  0  0
 26 48  1  0  0  0  0
 27 30  1  0  0  0  0
 27 49  1  0  0  0  0
 29 31  1  0  0  0  0
 30 31  2  0  0  0  0
 30 50  1  0  0  0  0
 31 51  1  0  0  0  0
 32 52  1  0  0  0  0
 32 53  1  0  0  0  0
 32 54  1  0  0  0  0
 33 55  1  0  0  0  0
 33 56  1  0  0  0  0
 33 57  1  0  0  0  0
 34 58  1  0  0  0  0
 34 59  1  0  0  0  0
 34 60  1  0  0  0  0
M  END
> <PUBCHEM_COMPOUND_CID>
11879562

> <PUBCHEM_CONFORMER_RMSD>
1

> <PUBCHEM_CONFORMER_DIVERSEORDER>
1
99
158
27
82
163
95
155
190
180
148
75
76
53
124
204
36
192
196
188
43
138
55
38
51
173
94
159
161
146
187
151
19
91
178
154
132
23
65
175
90
109
62
13
110
111
118
115
169
136
93
143
34
194
156
186
32
7
47
162
128
195
102
167
207
44
133
139
198
149
64
137
152
24
83
206
85
39
68
200
106
79
10
202
100
46
61
4
40
140
170
20
127
120
112
117
11
26
121
147
57
42
80
86
176
174
28
89
168
6
160
31
177
45
41
87
107
119
179
8
144
70
66
105
130
96
164
9
113
52
78
17
157
59
35
67
129
98
123
3
21
185
182
197
193
181
33
12
135
116
199
5
69
104
131
142
49
30
201
150
74
103
205
172
203
63
77
84
88
184
166
153
134
72
92
171
29
189
145
101
48
18
108
16
37
73
81
60
25
22
122
125
14
97
191
126
50
56
165
114
58
71
183
141
15
2
54

> <PUBCHEM_MMFF94_PARTIAL_CHARGES>
42
1 -0.56
11 -0.84
12 0.28
13 0.28
14 0.26
15 0.3
16 0.28
17 0.28
18 0.25
19 0.54
2 -0.56
20 0.09
21 -0.15
22 -0.15
23 0.08
24 -0.15
25 -0.15
26 -0.15
27 -0.15
28 0.08
29 0.1
3 -0.15
30 -0.15
31 -0.15
32 0.37
33 0.37
34 0.28
4 -0.57
43 0.37
44 0.15
45 0.15
46 0.15
47 0.15
48 0.15
49 0.15
5 -0.36
50 0.15
51 0.15
6 0.31
7 -0.73
8 -0.42
9 -0.34

> <PUBCHEM_EFFECTIVE_ROTOR_COUNT>
9.2

> <PUBCHEM_PHARMACOPHORE_FEATURES>
12
1 1 acceptor
1 11 cation
1 2 acceptor
1 4 acceptor
1 5 acceptor
1 7 donor
3 6 9 18 cation
5 1 12 13 14 16 rings
5 2 12 13 15 17 rings
5 6 8 9 10 18 rings
6 20 21 22 24 25 28 rings
6 23 26 27 29 30 31 rings

> <PUBCHEM_HEAVY_ATOM_COUNT>
34

> <PUBCHEM_ATOM_DEF_STEREO_COUNT>
4

> <PUBCHEM_ATOM_UDEF_STEREO_COUNT>
0

> <PUBCHEM_BOND_DEF_STEREO_COUNT>
0

> <PUBCHEM_BOND_UDEF_STEREO_COUNT>
0

> <PUBCHEM_ISOTOPIC_ATOM_COUNT>
0

> <PUBCHEM_COMPONENT_COUNT>
1

> <PUBCHEM_CACTVS_TAUTO_COUNT>
2

> <PUBCHEM_CONFORMER_ID>
00B5448A00000001

> <PUBCHEM_MMFF94_ENERGY>
116.2666

> <PUBCHEM_FEATURE_SELFOVERLAP>
61.59

> <PUBCHEM_SHAPE_FINGERPRINT>
10190206 1 17060343998186132123
10280341 67 18200019768303531648
10674148 151 18411979162061833962
11408170 253 18202007586247046825
11621639 336 18196653986795561608
12013929 29 18412266164160769044
12717326 69 11026062556953514832
12895837 130 18342457041847873199
13248334 5 18123754145080924319
13782708 43 8934736478500972774
13944108 23 18342175506129664728
14251757 52 18408319990962905658
14394314 77 18335140916503540797
14664723 55 18200883876867892073
14904525 67 18341607178608891272
15064981 194 17971208155994165606
15183329 4 16128658543813720906
15198563 99 15267073510089731211
15276724 80 18334289838652768868
16992727 255 18343867718817732104
16994733 274 18336543923652565608
19303781 99 10665813126058900753
19438510 23 18113899407328292962
20691028 202 18338232777670750428
21424621 283 18336266833747949010
3918712 181 18340485565506683985
406291 66 9799695887139703116
4169191 19 18408879608628789413
44555599 121 18412547634963344136
44802255 64 17417818403988198623
54039377 194 8934706809035696629
563151 74 16950281793097143114
5718773 13 9439405717957728727
5911458 16 18410295813158117661
6201320 221 15768671763518202604
6328613 192 18411982493980476948
6695519 79 16733251413568170491
6698420 124 18114183064502142642
9689198 14 18333455347813024610
9980921 221 17131847455659711097

> <PUBCHEM_SHAPE_MULTIPOLES>
640.47
27.68
4.66
1.48
9.51
3.59
-0.62
36.19
3.05
0.31
0.49
-0.2
-0.5
-3.85

> <PUBCHEM_SHAPE_SELFOVERLAP>
1393.037

> <PUBCHEM_SHAPE_VOLUME>
350.6

> <PUBCHEM_COORDINATE_TYPE>
2
5
10

$$$$
