45783565
  -OEChem-12032416263D

 55 58  0     1  0  0  0  0  0999 V2000
   -2.1082    1.5490    1.1403 O   0  0  0  0  0  0  0  0  0  0  0  0
    5.2244    0.4765   -0.4734 O   0  0  0  0  0  0  0  0  0  0  0  0
    7.6318   -0.9014   -0.0988 O   0  0  0  0  0  0  0  0  0  0  0  0
   -4.5549    0.3098    0.0222 N   0  0  1  0  0  0  0  0  0  0  0  0
   -1.1282    0.9803   -0.7918 N   0  0  0  0  0  0  0  0  0  0  0  0
   -0.7339    1.4884    1.4037 N   0  0  0  0  0  0  0  0  0  0  0  0
    3.4270    0.9839    0.9035 N   0  0  0  0  0  0  0  0  0  0  0  0
   -3.6682    1.2326   -0.7144 C   0  0  1  0  0  0  0  0  0  0  0  0
   -4.3520    2.6075   -0.5992 C   0  0  0  0  0  0  0  0  0  0  0  0
   -5.6429    2.3470    0.1641 C   0  0  0  0  0  0  0  0  0  0  0  0
   -5.9026    0.8721   -0.0672 C   0  0  0  0  0  0  0  0  0  0  0  0
   -4.4982   -1.0594   -0.4734 C   0  0  0  0  0  0  0  0  0  0  0  0
   -2.2536    1.2362   -0.1739 C   0  0  0  0  0  0  0  0  0  0  0  0
   -3.2886   -1.7927    0.0425 C   0  0  0  0  0  0  0  0  0  0  0  0
   -2.3498   -2.3351   -0.8349 C   0  0  0  0  0  0  0  0  0  0  0  0
   -3.1142   -1.9257    1.4200 C   0  0  0  0  0  0  0  0  0  0  0  0
   -0.2240    1.1475    0.2165 C   0  0  0  0  0  0  0  0  0  0  0  0
   -1.2365   -3.0106   -0.3350 C   0  0  0  0  0  0  0  0  0  0  0  0
   -2.5151   -2.2056   -2.3135 C   0  0  0  0  0  0  0  0  0  0  0  0
   -2.0009   -2.6011    1.9203 C   0  0  0  0  0  0  0  0  0  0  0  0
   -1.0620   -3.1435    1.0427 C   0  0  0  0  0  0  0  0  0  0  0  0
    1.1829    0.9650    0.0046 C   0  0  0  0  0  0  0  0  0  0  0  0
    1.6784    0.6084   -1.2447 C   0  0  0  0  0  0  0  0  0  0  0  0
    2.0906    1.1392    1.0367 C   0  0  0  0  0  0  0  0  0  0  0  0
    3.0473    0.4393   -1.4212 C   0  0  0  0  0  0  0  0  0  0  0  0
    3.8717    0.6371   -0.3252 C   0  0  0  0  0  0  0  0  0  0  0  0
    6.0248    0.6915    0.6830 C   0  0  0  0  0  0  0  0  0  0  0  0
    7.4793    0.4461    0.3308 C   0  0  0  0  0  0  0  0  0  0  0  0
    8.9757   -1.1824   -0.4640 C   0  0  0  0  0  0  0  0  0  0  0  0
   -3.6268    0.9734   -1.7811 H   0  0  0  0  0  0  0  0  0  0  0  0
   -4.5917    2.9825   -1.6019 H   0  0  0  0  0  0  0  0  0  0  0  0
   -3.7473    3.3689   -0.0951 H   0  0  0  0  0  0  0  0  0  0  0  0
   -5.4906    2.5457    1.2322 H   0  0  0  0  0  0  0  0  0  0  0  0
   -6.4652    2.9780   -0.1858 H   0  0  0  0  0  0  0  0  0  0  0  0
   -6.5735    0.4582    0.6919 H   0  0  0  0  0  0  0  0  0  0  0  0
   -6.3450    0.7149   -1.0592 H   0  0  0  0  0  0  0  0  0  0  0  0
   -4.6098   -1.0888   -1.5618 H   0  0  0  0  0  0  0  0  0  0  0  0
   -5.3644   -1.6197   -0.0917 H   0  0  0  0  0  0  0  0  0  0  0  0
   -3.8386   -1.5136    2.1177 H   0  0  0  0  0  0  0  0  0  0  0  0
   -0.4948   -3.4383   -1.0041 H   0  0  0  0  0  0  0  0  0  0  0  0
   -3.4274   -2.7103   -2.6476 H   0  0  0  0  0  0  0  0  0  0  0  0
   -2.5384   -1.1539   -2.6151 H   0  0  0  0  0  0  0  0  0  0  0  0
   -1.6807   -2.6689   -2.8523 H   0  0  0  0  0  0  0  0  0  0  0  0
   -1.8651   -2.7049    2.9928 H   0  0  0  0  0  0  0  0  0  0  0  0
   -0.1948   -3.6685    1.4322 H   0  0  0  0  0  0  0  0  0  0  0  0
    1.0220    0.4551   -2.0974 H   0  0  0  0  0  0  0  0  0  0  0  0
    1.7857    1.4174    2.0412 H   0  0  0  0  0  0  0  0  0  0  0  0
    3.4499    0.1610   -2.3890 H   0  0  0  0  0  0  0  0  0  0  0  0
    5.7246   -0.0122    1.4693 H   0  0  0  0  0  0  0  0  0  0  0  0
    5.9081    1.7219    1.0392 H   0  0  0  0  0  0  0  0  0  0  0  0
    7.7806    1.1146   -0.4841 H   0  0  0  0  0  0  0  0  0  0  0  0
    8.1127    0.6311    1.2053 H   0  0  0  0  0  0  0  0  0  0  0  0
    9.2876   -0.5473   -1.2988 H   0  0  0  0  0  0  0  0  0  0  0  0
    9.6439   -1.0377    0.3904 H   0  0  0  0  0  0  0  0  0  0  0  0
    9.0351   -2.2274   -0.7801 H   0  0  0  0  0  0  0  0  0  0  0  0
  1  6  1  0  0  0  0
  1 13  1  0  0  0  0
  2 26  1  0  0  0  0
  2 27  1  0  0  0  0
  3 28  1  0  0  0  0
  3 29  1  0  0  0  0
  4  8  1  0  0  0  0
  4 11  1  0  0  0  0
  4 12  1  0  0  0  0
  5 13  2  0  0  0  0
  5 17  1  0  0  0  0
  6 17  2  0  0  0  0
  7 24  1  0  0  0  0
  7 26  2  0  0  0  0
  8  9  1  0  0  0  0
  8 13  1  0  0  0  0
  8 30  1  0  0  0  0
  9 10  1  0  0  0  0
  9 31  1  0  0  0  0
  9 32  1  0  0  0  0
 10 11  1  0  0  0  0
 10 33  1  0  0  0  0
 10 34  1  0  0  0  0
 11 35  1  0  0  0  0
 11 36  1  0  0  0  0
 12 14  1  0  0  0  0
 12 37  1  0  0  0  0
 12 38  1  0  0  0  0
 14 15  1  0  0  0  0
 14 16  2  0  0  0  0
 15 18  2  0  0  0  0
 15 19  1  0  0  0  0
 16 20  1  0  0  0  0
 16 39  1  0  0  0  0
 17 22  1  0  0  0  0
 18 21  1  0  0  0  0
 18 40  1  0  0  0  0
 19 41  1  0  0  0  0
 19 42  1  0  0  0  0
 19 43  1  0  0  0  0
 20 21  2  0  0  0  0
 20 44  1  0  0  0  0
 21 45  1  0  0  0  0
 22 23  1  0  0  0  0
 22 24  2  0  0  0  0
 23 25  2  0  0  0  0
 23 46  1  0  0  0  0
 24 47  1  0  0  0  0
 25 26  1  0  0  0  0
 25 48  1  0  0  0  0
 27 28  1  0  0  0  0
 27 49  1  0  0  0  0
 27 50  1  0  0  0  0
 28 51  1  0  0  0  0
 28 52  1  0  0  0  0
 29 53  1  0  0  0  0
 29 54  1  0  0  0  0
 29 55  1  0  0  0  0
M  END
> <PUBCHEM_COMPOUND_CID>
45783565

> <PUBCHEM_CONFORMER_RMSD>
1

> <PUBCHEM_CONFORMER_DIVERSEORDER>
6
70
26
32
82
46
12
38
77
37
116
74
101
68
132
137
140
40
112
34
65
114
144
62
148
85
142
119
149
86
90
47
146
127
99
58
80
9
102
96
24
17
108
33
92
61
139
117
52
67
19
130
105
110
94
88
23
128
100
35
5
45
76
103
36
131
54
136
107
73
56
134
145
13
133
42
84
44
125
104
124
4
53
49
118
106
83
75
60
14
95
8
109
25
55
97
1
129
79
147
64
78
122
43
71
126
87
51
16
69
72
121
41
135
7
18
81
120
10
29
141
28
48
143
63
91
27
89
138
22
59
50
98
123
2
66
93
30
115
113
11
20
21
57
3
111
31
15
39

> <PUBCHEM_MMFF94_PARTIAL_CHARGES>
34
1 -0.02
11 0.27
12 0.41
13 0.3
14 -0.14
15 -0.14
16 -0.15
17 0.46
18 -0.15
19 0.14
2 -0.36
20 -0.15
21 -0.15
22 0.05
23 -0.15
24 0.16
25 -0.15
26 0.39
27 0.28
28 0.28
29 0.28
3 -0.56
39 0.15
4 -0.81
40 0.15
44 0.15
45 0.15
46 0.15
47 0.15
48 0.15
5 -0.57
6 -0.41
7 -0.62
8 0.45

> <PUBCHEM_EFFECTIVE_ROTOR_COUNT>
9

> <PUBCHEM_PHARMACOPHORE_FEATURES>
7
1 3 acceptor
1 4 cation
3 5 6 17 cation
5 1 5 6 13 17 rings
5 4 8 9 10 11 rings
6 14 15 16 18 20 21 rings
6 7 22 23 24 25 26 rings

> <PUBCHEM_HEAVY_ATOM_COUNT>
29

> <PUBCHEM_ATOM_DEF_STEREO_COUNT>
1

> <PUBCHEM_ATOM_UDEF_STEREO_COUNT>
0

> <PUBCHEM_BOND_DEF_STEREO_COUNT>
0

> <PUBCHEM_BOND_UDEF_STEREO_COUNT>
0

> <PUBCHEM_ISOTOPIC_ATOM_COUNT>
0

> <PUBCHEM_COMPONENT_COUNT>
1

> <PUBCHEM_CACTVS_TAUTO_COUNT>
1

> <PUBCHEM_CONFORMER_ID>
02BA9A0D00000006

> <PUBCHEM_MMFF94_ENERGY>
66.6965

> <PUBCHEM_FEATURE_SELFOVERLAP>
35.523

> <PUBCHEM_SHAPE_FINGERPRINT>
10165383 225 18337952282648651445
10369192 42 13479135679326592730
107951 10 18260552217060520699
11045977 3 18201714094130565992
11135926 11 17458612407788870554
11315181 36 17988927781923339432
11524674 6 18131627881122146678
12655364 131 15625675890853451550
12788726 201 17987798506003508081
14659021 117 17981307203901022427
15021287 119 17167867469312428852
15183329 4 17240194452927107138
15230672 131 18263357015420122570
15439362 3 17828759543930801621
16752209 62 18336258054940057307
20554085 129 18127389199926715025
20721686 146 15214124278056737127
21133410 52 15391743156951100628
23559900 14 18272080656296194648
249057 3 18333168371125957572
3298306 158 18338229363546043141
3383291 50 18336264660616297587
3411729 13 18121220884261119521
4015057 19 17774426317671664377
4073 2 18335702776235816720
4625314 4 18408888452451793788
5085150 59 18272082782531904430
5265222 85 18337957899784723484
5364581 5 17981310498537019840
559249 180 18407759235642807484
59755656 520 18261106361639440444
6669772 16 18339364037807821343
7226269 152 18272651242500800129

> <PUBCHEM_SHAPE_MULTIPOLES>
559.27
17.49
3.26
1.45
45.05
2.17
0.12
-1.99
1.11
-4.88
-0.38
-0.61
0.74
0.51

> <PUBCHEM_SHAPE_SELFOVERLAP>
1198.013

> <PUBCHEM_SHAPE_VOLUME>
311.9

> <PUBCHEM_COORDINATE_TYPE>
2
5
10

$$$$
