11865846
  -OEChem-12032416363D

 69 71  0     1  0  0  0  0  0999 V2000
    3.6360   -4.8151    0.6387 S   0  0  0  0  0  0  0  0  0  0  0  0
    2.9379   -0.5115    1.0080 O   0  0  0  0  0  0  0  0  0  0  0  0
    2.4163   -2.7836   -1.7217 O   0  0  0  0  0  0  0  0  0  0  0  0
   -2.7132    0.5085    1.7429 O   0  0  0  0  0  0  0  0  0  0  0  0
    4.0251    0.8154   -2.5859 O   0  0  0  0  0  0  0  0  0  0  0  0
    1.2481   -2.4272    0.2446 N   0  0  0  0  0  0  0  0  0  0  0  0
   -1.5407   -1.0151    0.4437 N   0  0  0  0  0  0  0  0  0  0  0  0
   -3.8189   -0.8284    0.1997 N   0  0  0  0  0  0  0  0  0  0  0  0
    2.0982    0.9159   -0.6278 N   0  0  0  0  0  0  0  0  0  0  0  0
    5.5106    1.7805   -1.1235 N   0  0  0  0  0  0  0  0  0  0  0  0
   -0.2316   -0.7261    0.9793 C   0  0  2  0  0  0  0  0  0  0  0  0
    0.8608   -1.0491   -0.0400 C   0  0  1  0  0  0  0  0  0  0  0  0
    0.1013   -1.6413    2.1607 C   0  0  0  0  0  0  0  0  0  0  0  0
    0.6709   -2.8916    1.5031 C   0  0  0  0  0  0  0  0  0  0  0  0
   -5.1530   -0.3279    0.4468 C   0  0  0  0  0  0  0  0  0  0  0  0
   -5.4501    0.8997   -0.4207 C   0  0  0  0  0  0  0  0  0  0  0  0
   -6.2011   -1.4253    0.2341 C   0  0  0  0  0  0  0  0  0  0  0  0
   -5.6370    0.5426   -1.8953 C   0  0  0  0  0  0  0  0  0  0  0  0
   -6.3868   -1.7787   -1.2416 C   0  0  0  0  0  0  0  0  0  0  0  0
    2.0831   -0.2083    0.1798 C   0  0  0  0  0  0  0  0  0  0  0  0
   -6.6926   -0.5430   -2.0823 C   0  0  0  0  0  0  0  0  0  0  0  0
    1.9414   -3.2086   -0.6672 C   0  0  0  0  0  0  0  0  0  0  0  0
   -2.6937   -0.3639    0.8755 C   0  0  0  0  0  0  0  0  0  0  0  0
    3.1555    1.9003   -0.5929 C   0  0  2  0  0  0  0  0  0  0  0  0
    2.1033   -4.6595   -0.2894 C   0  0  0  0  0  0  0  0  0  0  0  0
    2.6652    3.2926   -1.0061 C   0  0  0  0  0  0  0  0  0  0  0  0
    4.2460    1.4200   -1.5393 C   0  0  0  0  0  0  0  0  0  0  0  0
    1.5599    3.8099   -0.1179 C   0  0  0  0  0  0  0  0  0  0  0  0
    3.5895   -6.5959    0.9587 C   0  0  0  0  0  0  0  0  0  0  0  0
    0.2279    3.5431   -0.4351 C   0  0  0  0  0  0  0  0  0  0  0  0
    1.8701    4.5541    1.0203 C   0  0  0  0  0  0  0  0  0  0  0  0
   -0.7937    4.0209    0.3857 C   0  0  0  0  0  0  0  0  0  0  0  0
    0.8485    5.0317    1.8412 C   0  0  0  0  0  0  0  0  0  0  0  0
   -0.4834    4.7650    1.5238 C   0  0  0  0  0  0  0  0  0  0  0  0
   -0.2137    0.3245    1.2913 H   0  0  0  0  0  0  0  0  0  0  0  0
    0.5264   -0.9736   -1.0814 H   0  0  0  0  0  0  0  0  0  0  0  0
   -0.7542   -1.8667    2.8048 H   0  0  0  0  0  0  0  0  0  0  0  0
    0.8750   -1.1730    2.7814 H   0  0  0  0  0  0  0  0  0  0  0  0
   -0.1290   -3.6029    1.2703 H   0  0  0  0  0  0  0  0  0  0  0  0
    1.4203   -3.3830    2.1281 H   0  0  0  0  0  0  0  0  0  0  0  0
   -5.1923   -0.0181    1.4985 H   0  0  0  0  0  0  0  0  0  0  0  0
   -1.6368   -1.7735   -0.2249 H   0  0  0  0  0  0  0  0  0  0  0  0
   -6.3679    1.3787   -0.0563 H   0  0  0  0  0  0  0  0  0  0  0  0
   -4.6479    1.6416   -0.3265 H   0  0  0  0  0  0  0  0  0  0  0  0
   -5.9255   -2.3284    0.7920 H   0  0  0  0  0  0  0  0  0  0  0  0
   -7.1625   -1.0830    0.6380 H   0  0  0  0  0  0  0  0  0  0  0  0
   -4.6835    0.2028   -2.3175 H   0  0  0  0  0  0  0  0  0  0  0  0
   -5.9292    1.4385   -2.4547 H   0  0  0  0  0  0  0  0  0  0  0  0
   -5.4865   -2.2715   -1.6270 H   0  0  0  0  0  0  0  0  0  0  0  0
   -7.2057   -2.5003   -1.3426 H   0  0  0  0  0  0  0  0  0  0  0  0
   -6.7517   -0.8219   -3.1403 H   0  0  0  0  0  0  0  0  0  0  0  0
   -7.6762   -0.1462   -1.8017 H   0  0  0  0  0  0  0  0  0  0  0  0
   -3.6795   -1.4976   -0.5507 H   0  0  0  0  0  0  0  0  0  0  0  0
    1.3753    1.0230   -1.3335 H   0  0  0  0  0  0  0  0  0  0  0  0
    3.5536    1.9305    0.4294 H   0  0  0  0  0  0  0  0  0  0  0  0
    1.2527   -5.0419    0.2775 H   0  0  0  0  0  0  0  0  0  0  0  0
    2.1710   -5.2444   -1.2129 H   0  0  0  0  0  0  0  0  0  0  0  0
    2.3121    3.2786   -2.0466 H   0  0  0  0  0  0  0  0  0  0  0  0
    3.5021    4.0036   -0.9986 H   0  0  0  0  0  0  0  0  0  0  0  0
    2.7016   -6.8540    1.5418 H   0  0  0  0  0  0  0  0  0  0  0  0
    3.5872   -7.1514    0.0173 H   0  0  0  0  0  0  0  0  0  0  0  0
    4.4765   -6.8824    1.5299 H   0  0  0  0  0  0  0  0  0  0  0  0
    5.6760    2.2999   -0.2674 H   0  0  0  0  0  0  0  0  0  0  0  0
    6.3285    1.5342   -1.6712 H   0  0  0  0  0  0  0  0  0  0  0  0
   -0.0299    2.9687   -1.3207 H   0  0  0  0  0  0  0  0  0  0  0  0
    2.9042    4.7662    1.2789 H   0  0  0  0  0  0  0  0  0  0  0  0
   -1.8307    3.8125    0.1390 H   0  0  0  0  0  0  0  0  0  0  0  0
    1.0900    5.6104    2.7280 H   0  0  0  0  0  0  0  0  0  0  0  0
   -1.2789    5.1362    2.1632 H   0  0  0  0  0  0  0  0  0  0  0  0
  1 25  1  0  0  0  0
  1 29  1  0  0  0  0
  2 20  2  0  0  0  0
  3 22  2  0  0  0  0
  4 23  2  0  0  0  0
  5 27  2  0  0  0  0
  6 12  1  0  0  0  0
  6 14  1  0  0  0  0
  6 22  1  0  0  0  0
  7 11  1  0  0  0  0
  7 23  1  0  0  0  0
  7 42  1  0  0  0  0
  8 15  1  0  0  0  0
  8 23  1  0  0  0  0
  8 53  1  0  0  0  0
  9 20  1  0  0  0  0
  9 24  1  0  0  0  0
  9 54  1  0  0  0  0
 10 27  1  0  0  0  0
 10 63  1  0  0  0  0
 10 64  1  0  0  0  0
 11 12  1  0  0  0  0
 11 13  1  0  0  0  0
 11 35  1  0  0  0  0
 12 20  1  0  0  0  0
 12 36  1  0  0  0  0
 13 14  1  0  0  0  0
 13 37  1  0  0  0  0
 13 38  1  0  0  0  0
 14 39  1  0  0  0  0
 14 40  1  0  0  0  0
 15 16  1  0  0  0  0
 15 17  1  0  0  0  0
 15 41  1  0  0  0  0
 16 18  1  0  0  0  0
 16 43  1  0  0  0  0
 16 44  1  0  0  0  0
 17 19  1  0  0  0  0
 17 45  1  0  0  0  0
 17 46  1  0  0  0  0
 18 21  1  0  0  0  0
 18 47  1  0  0  0  0
 18 48  1  0  0  0  0
 19 21  1  0  0  0  0
 19 49  1  0  0  0  0
 19 50  1  0  0  0  0
 21 51  1  0  0  0  0
 21 52  1  0  0  0  0
 22 25  1  0  0  0  0
 24 26  1  0  0  0  0
 24 27  1  0  0  0  0
 24 55  1  0  0  0  0
 25 56  1  0  0  0  0
 25 57  1  0  0  0  0
 26 28  1  0  0  0  0
 26 58  1  0  0  0  0
 26 59  1  0  0  0  0
 28 30  2  0  0  0  0
 28 31  1  0  0  0  0
 29 60  1  0  0  0  0
 29 61  1  0  0  0  0
 29 62  1  0  0  0  0
 30 32  1  0  0  0  0
 30 65  1  0  0  0  0
 31 33  2  0  0  0  0
 31 66  1  0  0  0  0
 32 34  2  0  0  0  0
 32 67  1  0  0  0  0
 33 34  1  0  0  0  0
 33 68  1  0  0  0  0
 34 69  1  0  0  0  0
M  END
> <PUBCHEM_COMPOUND_CID>
11865846

> <PUBCHEM_CONFORMER_RMSD>
1.2

> <PUBCHEM_CONFORMER_DIVERSEORDER>
1
16
19
29
10
3
23
11
27
15
28
9
31
25
13
24
20
12
30
2
21
7
18
4
17
26
6
8
22
5
14

> <PUBCHEM_MMFF94_PARTIAL_CHARGES>
38
1 -0.46
10 -0.8
11 0.3
12 0.36
14 0.3
15 0.3
2 -0.57
20 0.57
22 0.57
23 0.69
24 0.36
25 0.29
26 0.14
27 0.57
28 -0.14
29 0.23
3 -0.57
30 -0.15
31 -0.15
32 -0.15
33 -0.15
34 -0.15
4 -0.57
42 0.37
5 -0.57
53 0.37
54 0.37
6 -0.66
63 0.37
64 0.37
65 0.15
66 0.15
67 0.15
68 0.15
69 0.15
7 -0.73
8 -0.73
9 -0.73

> <PUBCHEM_EFFECTIVE_ROTOR_COUNT>
15.2

> <PUBCHEM_PHARMACOPHORE_FEATURES>
12
1 10 donor
1 2 acceptor
1 29 hydrophobe
1 3 acceptor
1 4 acceptor
1 5 acceptor
1 7 donor
1 8 donor
1 9 donor
5 6 11 12 13 14 rings
6 15 16 17 18 19 21 rings
6 28 30 31 32 33 34 rings

> <PUBCHEM_HEAVY_ATOM_COUNT>
34

> <PUBCHEM_ATOM_DEF_STEREO_COUNT>
3

> <PUBCHEM_ATOM_UDEF_STEREO_COUNT>
0

> <PUBCHEM_BOND_DEF_STEREO_COUNT>
0

> <PUBCHEM_BOND_UDEF_STEREO_COUNT>
0

> <PUBCHEM_ISOTOPIC_ATOM_COUNT>
0

> <PUBCHEM_COMPONENT_COUNT>
1

> <PUBCHEM_CACTVS_TAUTO_COUNT>
12

> <PUBCHEM_CONFORMER_ID>
00B50EF600000001

> <PUBCHEM_MMFF94_ENERGY>
68.2608

> <PUBCHEM_FEATURE_SELFOVERLAP>
60.949

> <PUBCHEM_SHAPE_FINGERPRINT>
10815517 723 17476075727222898553
10940486 97 17473836022000013422
11093857 51 17969794161801378612
11331351 85 17978779117774050651
11513181 2 18127706941179680445
12769317 202 18261951946606679981
13636023 20 18202005416944663540
14681490 219 18340497694177622221
15082195 135 18269253774010640127
15484559 13 18270963573540316943
15927050 60 17691154555950598908
15950262 2 15576136474845195356
21304303 282 17262410299471062158
21968339 14 18408598171372938759
23559900 14 18336254636331277867
25222932 49 12607416481142864837
3504750 166 17037528878465550738
376196 1 18043243759235315123
3882209 13 18120076295949018354
4046055 25 18050841118169044079
508706 21 17609494187679071897
6004065 56 18200597033150224444
6700243 42 17485104998035356863
86090 222 18191583271465335269

> <PUBCHEM_SHAPE_MULTIPOLES>
655.17
12.29
8.95
1.93
24.92
0.53
-0.33
8.36
-7.41
-13.55
3.51
0.01
-0.52
-2.29

> <PUBCHEM_SHAPE_SELFOVERLAP>
1341.176

> <PUBCHEM_SHAPE_VOLUME>
379

> <PUBCHEM_COORDINATE_TYPE>
2
5
10

$$$$
