38026931
  -OEChem-12032416143D

 73 75  0     1  0  0  0  0  0999 V2000
    0.9867    3.7356    0.0090 O   0  0  0  0  0  0  0  0  0  0  0  0
   -3.6425   -1.8227    1.7051 O   0  0  0  0  0  0  0  0  0  0  0  0
    6.2755   -1.0619    0.3249 O   0  0  0  0  0  0  0  0  0  0  0  0
    1.0501   -5.5697   -0.2891 O   0  0  0  0  0  0  0  0  0  0  0  0
   -3.3994   -0.9998   -0.4512 N   0  0  0  0  0  0  0  0  0  0  0  0
    2.3234    1.8476    0.2154 N   0  0  0  0  0  0  0  0  0  0  0  0
    4.9656    0.8374    0.0584 N   0  0  0  0  0  0  0  0  0  0  0  0
   -2.8181    1.7847    0.5246 C   0  0  1  0  0  0  0  0  0  0  0  0
   -3.8039    1.4004   -0.6071 C   0  0  1  0  0  0  0  0  0  0  0  0
   -1.9177    2.9472    0.0796 C   0  0  0  0  0  0  0  0  0  0  0  0
   -1.1028    2.6031   -1.1815 C   0  0  2  0  0  0  0  0  0  0  0  0
   -3.5528    2.1621    1.8149 C   0  0  0  0  0  0  0  0  0  0  0  0
   -1.9649    1.9665   -2.2527 C   0  0  0  0  0  0  0  0  0  0  0  0
   -3.1748    1.4464   -1.9798 C   0  0  0  0  0  0  0  0  0  0  0  0
    0.0949    1.7104   -0.8386 C   0  0  0  0  0  0  0  0  0  0  0  0
   -4.4064    0.0113   -0.3678 C   0  0  0  0  0  0  0  0  0  0  0  0
   -2.6472    1.9508    3.0241 C   0  0  0  0  0  0  0  0  0  0  0  0
   -4.0375    3.6068    1.7478 C   0  0  0  0  0  0  0  0  0  0  0  0
   -1.4238    1.9823   -3.6552 C   0  0  0  0  0  0  0  0  0  0  0  0
    1.1688    2.5283   -0.1671 C   0  0  0  0  0  0  0  0  0  0  0  0
    3.4155    2.5712    0.8712 C   0  0  0  0  0  0  0  0  0  0  0  0
    2.5402    0.4004    0.0880 C   0  0  0  0  0  0  0  0  0  0  0  0
    4.7490    2.2846    0.1858 C   0  0  0  0  0  0  0  0  0  0  0  0
    3.8735    0.1141   -0.5976 C   0  0  0  0  0  0  0  0  0  0  0  0
   -3.0904   -1.8521    0.6084 C   0  0  0  0  0  0  0  0  0  0  0  0
    6.1192    0.1561    0.4430 C   0  0  0  0  0  0  0  0  0  0  0  0
   -2.0000   -2.8327    0.3707 C   0  0  0  0  0  0  0  0  0  0  0  0
    7.2257    0.9875    1.0409 C   0  0  0  0  0  0  0  0  0  0  0  0
   -1.9798   -4.0371    1.0739 C   0  0  0  0  0  0  0  0  0  0  0  0
   -0.9953   -2.5480   -0.5541 C   0  0  0  0  0  0  0  0  0  0  0  0
   -0.9549   -4.9569    0.8525 C   0  0  0  0  0  0  0  0  0  0  0  0
    0.0297   -3.4677   -0.7756 C   0  0  0  0  0  0  0  0  0  0  0  0
    0.0499   -4.6721   -0.0723 C   0  0  0  0  0  0  0  0  0  0  0  0
    2.0445   -5.2140   -1.2484 C   0  0  0  0  0  0  0  0  0  0  0  0
   -2.1762    0.9226    0.7393 H   0  0  0  0  0  0  0  0  0  0  0  0
   -4.6351    2.1163   -0.6280 H   0  0  0  0  0  0  0  0  0  0  0  0
   -1.2584    3.2618    0.8937 H   0  0  0  0  0  0  0  0  0  0  0  0
   -2.5223    3.8231   -0.1898 H   0  0  0  0  0  0  0  0  0  0  0  0
   -0.7475    3.5560   -1.5988 H   0  0  0  0  0  0  0  0  0  0  0  0
   -4.4265    1.5182    1.9592 H   0  0  0  0  0  0  0  0  0  0  0  0
   -3.7702    1.0443   -2.7972 H   0  0  0  0  0  0  0  0  0  0  0  0
    0.5359    1.2882   -1.7484 H   0  0  0  0  0  0  0  0  0  0  0  0
   -0.1991    0.8836   -0.1854 H   0  0  0  0  0  0  0  0  0  0  0  0
   -5.1455   -0.2184   -1.1450 H   0  0  0  0  0  0  0  0  0  0  0  0
   -4.9339   -0.0461    0.5882 H   0  0  0  0  0  0  0  0  0  0  0  0
   -1.7551    2.5838    2.9925 H   0  0  0  0  0  0  0  0  0  0  0  0
   -2.3207    0.9074    3.0909 H   0  0  0  0  0  0  0  0  0  0  0  0
   -3.1844    2.1862    3.9495 H   0  0  0  0  0  0  0  0  0  0  0  0
   -3.2279    4.3377    1.8469 H   0  0  0  0  0  0  0  0  0  0  0  0
   -4.7149    3.7980    2.5893 H   0  0  0  0  0  0  0  0  0  0  0  0
   -4.6076    3.8199    0.8387 H   0  0  0  0  0  0  0  0  0  0  0  0
   -1.1736    3.0051   -3.9550 H   0  0  0  0  0  0  0  0  0  0  0  0
   -2.1498    1.5980   -4.3798 H   0  0  0  0  0  0  0  0  0  0  0  0
   -0.5243    1.3654   -3.7362 H   0  0  0  0  0  0  0  0  0  0  0  0
   -2.9642   -1.1458   -1.3561 H   0  0  0  0  0  0  0  0  0  0  0  0
    3.4425    2.2319    1.9138 H   0  0  0  0  0  0  0  0  0  0  0  0
    3.2234    3.6486    0.8778 H   0  0  0  0  0  0  0  0  0  0  0  0
    1.7377   -0.0939   -0.4613 H   0  0  0  0  0  0  0  0  0  0  0  0
    2.5414   -0.0088    1.1055 H   0  0  0  0  0  0  0  0  0  0  0  0
    4.7493    2.6948   -0.8312 H   0  0  0  0  0  0  0  0  0  0  0  0
    5.5537    2.7734    0.7375 H   0  0  0  0  0  0  0  0  0  0  0  0
    4.0654   -0.9633   -0.6059 H   0  0  0  0  0  0  0  0  0  0  0  0
    3.8459    0.4542   -1.6398 H   0  0  0  0  0  0  0  0  0  0  0  0
    6.8915    1.4413    1.9775 H   0  0  0  0  0  0  0  0  0  0  0  0
    7.5468    1.7573    0.3341 H   0  0  0  0  0  0  0  0  0  0  0  0
    8.0854    0.3464    1.2589 H   0  0  0  0  0  0  0  0  0  0  0  0
   -2.7559   -4.2784    1.7954 H   0  0  0  0  0  0  0  0  0  0  0  0
   -0.9601   -1.6090   -1.0990 H   0  0  0  0  0  0  0  0  0  0  0  0
   -0.9447   -5.8939    1.4024 H   0  0  0  0  0  0  0  0  0  0  0  0
    0.7819   -3.1797   -1.5021 H   0  0  0  0  0  0  0  0  0  0  0  0
    2.7600   -6.0417   -1.2944 H   0  0  0  0  0  0  0  0  0  0  0  0
    2.6039   -4.3250   -0.9374 H   0  0  0  0  0  0  0  0  0  0  0  0
    1.6164   -5.1056   -2.2507 H   0  0  0  0  0  0  0  0  0  0  0  0
  1 20  2  0  0  0  0
  2 25  2  0  0  0  0
  3 26  2  0  0  0  0
  4 33  1  0  0  0  0
  4 34  1  0  0  0  0
  5 16  1  0  0  0  0
  5 25  1  0  0  0  0
  5 55  1  0  0  0  0
  6 20  1  0  0  0  0
  6 21  1  0  0  0  0
  6 22  1  0  0  0  0
  7 23  1  0  0  0  0
  7 24  1  0  0  0  0
  7 26  1  0  0  0  0
  8  9  1  0  0  0  0
  8 10  1  0  0  0  0
  8 12  1  0  0  0  0
  8 35  1  0  0  0  0
  9 14  1  0  0  0  0
  9 16  1  0  0  0  0
  9 36  1  0  0  0  0
 10 11  1  0  0  0  0
 10 37  1  0  0  0  0
 10 38  1  0  0  0  0
 11 13  1  0  0  0  0
 11 15  1  0  0  0  0
 11 39  1  0  0  0  0
 12 17  1  0  0  0  0
 12 18  1  0  0  0  0
 12 40  1  0  0  0  0
 13 14  2  0  0  0  0
 13 19  1  0  0  0  0
 14 41  1  0  0  0  0
 15 20  1  0  0  0  0
 15 42  1  0  0  0  0
 15 43  1  0  0  0  0
 16 44  1  0  0  0  0
 16 45  1  0  0  0  0
 17 46  1  0  0  0  0
 17 47  1  0  0  0  0
 17 48  1  0  0  0  0
 18 49  1  0  0  0  0
 18 50  1  0  0  0  0
 18 51  1  0  0  0  0
 19 52  1  0  0  0  0
 19 53  1  0  0  0  0
 19 54  1  0  0  0  0
 21 23  1  0  0  0  0
 21 56  1  0  0  0  0
 21 57  1  0  0  0  0
 22 24  1  0  0  0  0
 22 58  1  0  0  0  0
 22 59  1  0  0  0  0
 23 60  1  0  0  0  0
 23 61  1  0  0  0  0
 24 62  1  0  0  0  0
 24 63  1  0  0  0  0
 25 27  1  0  0  0  0
 26 28  1  0  0  0  0
 27 29  2  0  0  0  0
 27 30  1  0  0  0  0
 28 64  1  0  0  0  0
 28 65  1  0  0  0  0
 28 66  1  0  0  0  0
 29 31  1  0  0  0  0
 29 67  1  0  0  0  0
 30 32  2  0  0  0  0
 30 68  1  0  0  0  0
 31 33  2  0  0  0  0
 31 69  1  0  0  0  0
 32 33  1  0  0  0  0
 32 70  1  0  0  0  0
 34 71  1  0  0  0  0
 34 72  1  0  0  0  0
 34 73  1  0  0  0  0
M  END
> <PUBCHEM_COMPOUND_CID>
38026931

> <PUBCHEM_CONFORMER_RMSD>
1.2

> <PUBCHEM_CONFORMER_DIVERSEORDER>
1
65
67
17
29
61
57
24
7
58
20
55
47
56
30
66
42
25
39
37
52
22
8
21
26
12
16
71
18
50
43
23
6
63
60
13
64
10
34
51
70
44
4
73
59
76
27
40
48
62
74
3
46
31
36
9
45
28
54
69
75
35
11
49
41
2
5
53
32
33
19
15
14
72
38
68

> <PUBCHEM_MMFF94_PARTIAL_CHARGES>
35
1 -0.57
11 0.14
13 -0.28
14 -0.29
15 0.06
16 0.3
19 0.14
2 -0.57
20 0.57
21 0.3
22 0.3
23 0.3
24 0.3
25 0.54
26 0.57
27 0.09
28 0.06
29 -0.15
3 -0.57
30 -0.15
31 -0.15
32 -0.15
33 0.08
34 0.28
4 -0.36
41 0.15
5 -0.73
55 0.37
6 -0.66
67 0.15
68 0.15
69 0.15
7 -0.66
70 0.15
9 0.14

> <PUBCHEM_EFFECTIVE_ROTOR_COUNT>
12

> <PUBCHEM_PHARMACOPHORE_FEATURES>
9
1 1 acceptor
1 2 acceptor
1 3 acceptor
1 4 acceptor
1 5 donor
3 12 17 18 hydrophobe
6 27 29 30 31 32 33 rings
6 6 7 21 22 23 24 rings
6 8 9 10 11 13 14 rings

> <PUBCHEM_HEAVY_ATOM_COUNT>
34

> <PUBCHEM_ATOM_DEF_STEREO_COUNT>
3

> <PUBCHEM_ATOM_UDEF_STEREO_COUNT>
0

> <PUBCHEM_BOND_DEF_STEREO_COUNT>
0

> <PUBCHEM_BOND_UDEF_STEREO_COUNT>
0

> <PUBCHEM_ISOTOPIC_ATOM_COUNT>
0

> <PUBCHEM_COMPONENT_COUNT>
1

> <PUBCHEM_CACTVS_TAUTO_COUNT>
2

> <PUBCHEM_CONFORMER_ID>
02443EB300000001

> <PUBCHEM_MMFF94_ENERGY>
88.5715

> <PUBCHEM_FEATURE_SELFOVERLAP>
45.672

> <PUBCHEM_SHAPE_FINGERPRINT>
10305334 12 17986959552919823533
11014199 57 17327457433425372518
14363568 33 17689730657541705451
15064986 96 17973458607056901401
15444296 8 16225777324275144589
16112460 7 18198063586671776794
16719943 64 18409724080228632562
17627616 140 18119806902884486518
20764821 26 18193839241175248374
20775530 9 17037251260436932099
21133410 38 18128821842128828379
229767 44 18339089296880589810
238918 7 18342179990092047910
3383291 50 18338512062356818515
4616759 239 17986376988452168776
469060 322 17240761847522872081
5080951 261 18044068333211791704
7097593 13 17185605057084802623

> <PUBCHEM_SHAPE_MULTIPOLES>
661.28
11.16
7.86
2.17
22.46
13.77
0.77
-6.86
-4.07
-1.22
-0.37
-2.77
-1.85
1.03

> <PUBCHEM_SHAPE_SELFOVERLAP>
1368.88

> <PUBCHEM_SHAPE_VOLUME>
375.5

> <PUBCHEM_COORDINATE_TYPE>
2
5
10

$$$$
