71693650
  -OEChem-12032416233D

 48 50  0     1  0  0  0  0  0999 V2000
    3.2221   -1.6056    0.0820 O   0  0  0  0  0  0  0  0  0  0  0  0
   -3.8898   -0.0902    1.3644 O   0  0  0  0  0  0  0  0  0  0  0  0
    3.2638    2.3597    1.2838 O   0  0  0  0  0  0  0  0  0  0  0  0
    6.7191   -0.9246    0.1083 O   0  0  0  0  0  0  0  0  0  0  0  0
    4.9474    0.5371   -0.2883 N   0  0  0  0  0  0  0  0  0  0  0  0
   -2.8866   -0.4650   -0.7360 N   0  0  0  0  0  0  0  0  0  0  0  0
   -5.2782   -0.4129   -0.5329 C   0  0  0  0  0  0  0  0  0  0  0  0
   -5.7543    0.9694   -0.9939 C   0  0  0  0  0  0  0  0  0  0  0  0
   -6.3467   -0.9343    0.4294 C   0  0  0  0  0  0  0  0  0  0  0  0
   -7.1303    1.1665   -0.3667 C   0  0  0  0  0  0  0  0  0  0  0  0
   -7.0930    0.3108    0.8866 C   0  0  0  0  0  0  0  0  0  0  0  0
    3.4839    0.7237   -0.4433 C   0  0  1  0  0  0  0  0  0  0  0  0
    2.6994   -0.3117    0.3857 C   0  0  1  0  0  0  0  0  0  0  0  0
   -3.9534   -0.3025    0.1578 C   0  0  0  0  0  0  0  0  0  0  0  0
    1.2151   -0.3519    0.0873 C   0  0  0  0  0  0  0  0  0  0  0  0
    3.0326    2.1491   -0.0940 C   0  0  0  0  0  0  0  0  0  0  0  0
    4.5358   -1.7414    0.5681 C   0  0  0  0  0  0  0  0  0  0  0  0
    5.5100   -0.6840    0.0882 C   0  0  0  0  0  0  0  0  0  0  0  0
   -1.5191   -0.4271   -0.4612 C   0  0  0  0  0  0  0  0  0  0  0  0
    0.2919   -0.1680    1.1166 C   0  0  0  0  0  0  0  0  0  0  0  0
    0.7711   -0.5732   -1.2164 C   0  0  0  0  0  0  0  0  0  0  0  0
    5.8302    1.5925   -0.7775 C   0  0  0  0  0  0  0  0  0  0  0  0
   -1.0752   -0.2056    0.8425 C   0  0  0  0  0  0  0  0  0  0  0  0
   -0.5960   -0.6109   -1.4906 C   0  0  0  0  0  0  0  0  0  0  0  0
   -5.1943   -1.1016   -1.3822 H   0  0  0  0  0  0  0  0  0  0  0  0
   -5.0755    1.7658   -0.6652 H   0  0  0  0  0  0  0  0  0  0  0  0
   -5.8149    1.0282   -2.0859 H   0  0  0  0  0  0  0  0  0  0  0  0
   -5.9591   -1.5144    1.2727 H   0  0  0  0  0  0  0  0  0  0  0  0
   -7.0398   -1.5846   -0.1197 H   0  0  0  0  0  0  0  0  0  0  0  0
   -7.9070    0.8006   -1.0489 H   0  0  0  0  0  0  0  0  0  0  0  0
   -7.3401    2.2177   -0.1490 H   0  0  0  0  0  0  0  0  0  0  0  0
   -6.5384    0.8220    1.6819 H   0  0  0  0  0  0  0  0  0  0  0  0
   -8.0943    0.0796    1.2610 H   0  0  0  0  0  0  0  0  0  0  0  0
    3.3098    0.5586   -1.5140 H   0  0  0  0  0  0  0  0  0  0  0  0
    2.8437   -0.1341    1.4605 H   0  0  0  0  0  0  0  0  0  0  0  0
    1.9651    2.2865   -0.2936 H   0  0  0  0  0  0  0  0  0  0  0  0
    3.5699    2.9091   -0.6686 H   0  0  0  0  0  0  0  0  0  0  0  0
   -3.1238   -0.6256   -1.7127 H   0  0  0  0  0  0  0  0  0  0  0  0
    4.9076   -2.7172    0.2386 H   0  0  0  0  0  0  0  0  0  0  0  0
    4.5304   -1.7393    1.6643 H   0  0  0  0  0  0  0  0  0  0  0  0
    0.6238    0.0061    2.1368 H   0  0  0  0  0  0  0  0  0  0  0  0
    1.4727   -0.7307   -2.0307 H   0  0  0  0  0  0  0  0  0  0  0  0
    5.5354    1.8601   -1.7964 H   0  0  0  0  0  0  0  0  0  0  0  0
    6.8752    1.2715   -0.7918 H   0  0  0  0  0  0  0  0  0  0  0  0
    5.7513    2.4621   -0.1200 H   0  0  0  0  0  0  0  0  0  0  0  0
   -1.7287   -0.0550    1.6904 H   0  0  0  0  0  0  0  0  0  0  0  0
   -0.9278   -0.7870   -2.5107 H   0  0  0  0  0  0  0  0  0  0  0  0
    2.9637    3.2608    1.4916 H   0  0  0  0  0  0  0  0  0  0  0  0
  1 13  1  0  0  0  0
  1 17  1  0  0  0  0
  2 14  2  0  0  0  0
  3 16  1  0  0  0  0
  3 48  1  0  0  0  0
  4 18  2  0  0  0  0
  5 12  1  0  0  0  0
  5 18  1  0  0  0  0
  5 22  1  0  0  0  0
  6 14  1  0  0  0  0
  6 19  1  0  0  0  0
  6 38  1  0  0  0  0
  7  8  1  0  0  0  0
  7  9  1  0  0  0  0
  7 14  1  0  0  0  0
  7 25  1  0  0  0  0
  8 10  1  0  0  0  0
  8 26  1  0  0  0  0
  8 27  1  0  0  0  0
  9 11  1  0  0  0  0
  9 28  1  0  0  0  0
  9 29  1  0  0  0  0
 10 11  1  0  0  0  0
 10 30  1  0  0  0  0
 10 31  1  0  0  0  0
 11 32  1  0  0  0  0
 11 33  1  0  0  0  0
 12 13  1  0  0  0  0
 12 16  1  0  0  0  0
 12 34  1  0  0  0  0
 13 15  1  0  0  0  0
 13 35  1  0  0  0  0
 15 20  2  0  0  0  0
 15 21  1  0  0  0  0
 16 36  1  0  0  0  0
 16 37  1  0  0  0  0
 17 18  1  0  0  0  0
 17 39  1  0  0  0  0
 17 40  1  0  0  0  0
 19 23  2  0  0  0  0
 19 24  1  0  0  0  0
 20 23  1  0  0  0  0
 20 41  1  0  0  0  0
 21 24  2  0  0  0  0
 21 42  1  0  0  0  0
 22 43  1  0  0  0  0
 22 44  1  0  0  0  0
 22 45  1  0  0  0  0
 23 46  1  0  0  0  0
 24 47  1  0  0  0  0
M  END
> <PUBCHEM_COMPOUND_CID>
71693650

> <PUBCHEM_CONFORMER_RMSD>
0.8

> <PUBCHEM_CONFORMER_DIVERSEORDER>
1
40
29
26
21
32
4
14
34
30
28
20
33
8
3
9
37
12
17
27
42
6
11
41
16
24
22
36
18
2
35
25
10
15
38
31
19
5
13
23
39
7

> <PUBCHEM_MMFF94_PARTIAL_CHARGES>
26
1 -0.56
12 0.3
13 0.42
14 0.57
15 -0.14
16 0.28
17 0.34
18 0.57
19 0.12
2 -0.57
20 -0.15
21 -0.15
22 0.3
23 -0.15
24 -0.15
3 -0.68
38 0.37
4 -0.57
41 0.15
42 0.15
46 0.15
47 0.15
48 0.4
5 -0.66
6 -0.55
7 0.06

> <PUBCHEM_EFFECTIVE_ROTOR_COUNT>
7

> <PUBCHEM_PHARMACOPHORE_FEATURES>
9
1 1 acceptor
1 2 acceptor
1 3 acceptor
1 3 donor
1 4 acceptor
1 6 donor
5 7 8 9 10 11 rings
6 1 5 12 13 17 18 rings
6 15 19 20 21 23 24 rings

> <PUBCHEM_HEAVY_ATOM_COUNT>
24

> <PUBCHEM_ATOM_DEF_STEREO_COUNT>
2

> <PUBCHEM_ATOM_UDEF_STEREO_COUNT>
0

> <PUBCHEM_BOND_DEF_STEREO_COUNT>
0

> <PUBCHEM_BOND_UDEF_STEREO_COUNT>
0

> <PUBCHEM_ISOTOPIC_ATOM_COUNT>
0

> <PUBCHEM_COMPONENT_COUNT>
1

> <PUBCHEM_CACTVS_TAUTO_COUNT>
6

> <PUBCHEM_CONFORMER_ID>
0445F55200000001

> <PUBCHEM_MMFF94_ENERGY>
66.5451

> <PUBCHEM_FEATURE_SELFOVERLAP>
45.673

> <PUBCHEM_SHAPE_FINGERPRINT>
106641 1 15140965101066945084
10670039 82 16845308115216531137
11045977 3 18187087290545029915
11089746 13 18343861126084870693
11646440 116 16515694325341196877
11719270 70 17632577119638477327
11963148 33 13551193316293784089
12166972 35 17894635868017326861
12236239 1 18131068259551939094
12516196 113 16732985331922585895
12616971 3 17988916795349120861
12730499 353 17821446855150032186
13167372 99 18342178834666431241
13533116 47 18336262362613186546
14170010 4 18410008854146116304
14251764 46 17275102817437650654
14294032 229 16843909472355055833
14341114 176 18187085052735186829
14849402 71 17169003325217364109
14933364 13 18259705592885164789
15142383 8 18411694357846899084
15183329 4 17775288266052130217
15348495 7 18113904909413331977
15461852 350 18335695058454211271
15849732 13 17775564230843905910
17844677 252 18335143081593558861
18335252 114 18272080591734437525
18681886 176 13254501060347784223
20281389 69 18410854369655231781
21033648 29 17895192263444219192
21150785 3 11599998843839519901
21267235 1 18410294667271969454
21641784 216 17560537135277848801
220451 1 18343864429068091911
221357 26 18333729096533985876
22224240 67 16443345399043953883
23035841 295 15430035448320170891
23081809 10 18272363183745237623
23536379 177 18334575724766314963
23559900 14 17821730554444717050
23569914 2 17541886166775854141
23569943 247 16444738338484690011
2838139 119 18131628976908739593
29717793 49 17275109426996602436
3004659 81 17275107258112042472
3411729 13 15286784584338094708
397830 11 17968950828261944145
4073 2 17749114438501912115
4340502 62 18334013886877640070
542803 24 18202282503271802007
59755656 520 18040150743243797219

> <PUBCHEM_SHAPE_MULTIPOLES>
460.47
19.37
1.61
1.15
15.94
0.66
0.01
2.45
-0.65
-2.23
-0.16
0.49
0.08
0.18

> <PUBCHEM_SHAPE_SELFOVERLAP>
972.178

> <PUBCHEM_SHAPE_VOLUME>
257.3

> <PUBCHEM_COORDINATE_TYPE>
2
5
10

$$$$
