44716227
  -OEChem-12032416153D

 71 76  0     1  0  0  0  0  0999 V2000
   -2.9712    0.2947    1.9603 O   0  0  0  0  0  0  0  0  0  0  0  0
   -3.9992   -4.9767   -1.2499 O   0  0  0  0  0  0  0  0  0  0  0  0
   -3.4299    3.6774    0.1821 N   0  0  2  0  0  0  0  0  0  0  0  0
   -4.7181   -0.9681    1.0938 N   0  0  0  0  0  0  0  0  0  0  0  0
    0.3234    2.9174    0.2634 N   0  0  0  0  0  0  0  0  0  0  0  0
    0.8520    3.6136   -0.7560 N   0  0  0  0  0  0  0  0  0  0  0  0
    2.0455    3.0901   -1.0141 N   0  0  0  0  0  0  0  0  0  0  0  0
   -6.2545   -5.4310   -1.2098 N   0  0  0  0  0  0  0  0  0  0  0  0
   -3.7285    1.3747   -0.9926 C   0  0  2  0  0  0  0  0  0  0  0  0
   -4.3865    1.3796    0.4006 C   0  0  2  0  0  0  0  0  0  0  0  0
   -2.1111    3.1696   -0.2816 C   0  0  2  0  0  0  0  0  0  0  0  0
   -2.2373    1.7373   -0.8453 C   0  0  0  0  0  0  0  0  0  0  0  0
   -4.3959    2.5006   -1.8028 C   0  0  0  0  0  0  0  0  0  0  0  0
   -4.0583    2.7050    1.1104 C   0  0  0  0  0  0  0  0  0  0  0  0
   -4.3084    3.8160   -1.0065 C   0  0  0  0  0  0  0  0  0  0  0  0
   -1.0362    3.2617    0.8035 C   0  0  0  0  0  0  0  0  0  0  0  0
   -3.9562    0.1924    1.2246 C   0  0  0  0  0  0  0  0  0  0  0  0
   -4.3887   -2.1504    1.8925 C   0  0  0  0  0  0  0  0  0  0  0  0
   -5.8938   -1.1198    0.2275 C   0  0  0  0  0  0  0  0  0  0  0  0
   -4.1951   -3.3741    1.0009 C   0  0  0  0  0  0  0  0  0  0  0  0
   -5.7314   -2.3230   -0.6992 C   0  0  0  0  0  0  0  0  0  0  0  0
   -5.4087   -3.5925    0.0934 C   0  0  0  0  0  0  0  0  0  0  0  0
    1.1611    1.9313    0.6854 C   0  0  0  0  0  0  0  0  0  0  0  0
   -5.1316   -4.7269   -0.8441 C   0  0  0  0  0  0  0  0  0  0  0  0
    2.2498    2.0587   -0.1401 C   0  0  0  0  0  0  0  0  0  0  0  0
    3.4224    1.2450   -0.1019 C   0  0  0  0  0  0  0  0  0  0  0  0
    3.3372   -0.0823    0.3185 C   0  0  0  0  0  0  0  0  0  0  0  0
    4.6532    1.7778   -0.4849 C   0  0  0  0  0  0  0  0  0  0  0  0
    4.4831   -0.8769    0.3556 C   0  0  0  0  0  0  0  0  0  0  0  0
    5.7990    0.9832   -0.4479 C   0  0  0  0  0  0  0  0  0  0  0  0
    5.7139   -0.3441   -0.0277 C   0  0  0  0  0  0  0  0  0  0  0  0
    6.9033   -1.1668    0.0111 C   0  0  0  0  0  0  0  0  0  0  0  0
    7.6803   -1.2152    1.1684 C   0  0  0  0  0  0  0  0  0  0  0  0
    7.2730   -1.9117   -1.1088 C   0  0  0  0  0  0  0  0  0  0  0  0
    8.8271   -2.0084    1.2060 C   0  0  0  0  0  0  0  0  0  0  0  0
    8.4197   -2.7049   -1.0712 C   0  0  0  0  0  0  0  0  0  0  0  0
    9.1968   -2.7533    0.0863 C   0  0  0  0  0  0  0  0  0  0  0  0
   -3.8392    0.4097   -1.4977 H   0  0  0  0  0  0  0  0  0  0  0  0
   -5.4754    1.3887    0.3033 H   0  0  0  0  0  0  0  0  0  0  0  0
   -1.7869    3.8254   -1.1025 H   0  0  0  0  0  0  0  0  0  0  0  0
   -1.7337    0.9976   -0.2142 H   0  0  0  0  0  0  0  0  0  0  0  0
   -1.7526    1.6912   -1.8288 H   0  0  0  0  0  0  0  0  0  0  0  0
   -5.4454    2.2558   -2.0038 H   0  0  0  0  0  0  0  0  0  0  0  0
   -3.8955    2.6124   -2.7722 H   0  0  0  0  0  0  0  0  0  0  0  0
   -4.9899    3.1464    1.4911 H   0  0  0  0  0  0  0  0  0  0  0  0
   -3.4385    2.5913    2.0054 H   0  0  0  0  0  0  0  0  0  0  0  0
   -3.9370    4.6199   -1.6541 H   0  0  0  0  0  0  0  0  0  0  0  0
   -5.3104    4.1343   -0.6916 H   0  0  0  0  0  0  0  0  0  0  0  0
   -1.2076    2.5767    1.6400 H   0  0  0  0  0  0  0  0  0  0  0  0
   -0.9340    4.2813    1.1927 H   0  0  0  0  0  0  0  0  0  0  0  0
   -3.4861   -1.9804    2.4879 H   0  0  0  0  0  0  0  0  0  0  0  0
   -5.2165   -2.3131    2.5929 H   0  0  0  0  0  0  0  0  0  0  0  0
   -6.7635   -1.2537    0.8815 H   0  0  0  0  0  0  0  0  0  0  0  0
   -6.0902   -0.2534   -0.4007 H   0  0  0  0  0  0  0  0  0  0  0  0
   -3.2889   -3.2243    0.3989 H   0  0  0  0  0  0  0  0  0  0  0  0
   -4.0190   -4.2611    1.6212 H   0  0  0  0  0  0  0  0  0  0  0  0
   -4.9278   -2.1210   -1.4200 H   0  0  0  0  0  0  0  0  0  0  0  0
   -6.6481   -2.4634   -1.2845 H   0  0  0  0  0  0  0  0  0  0  0  0
   -6.2700   -3.8499    0.7244 H   0  0  0  0  0  0  0  0  0  0  0  0
    0.9129    1.2660    1.5010 H   0  0  0  0  0  0  0  0  0  0  0  0
   -6.1913   -6.2191   -1.8456 H   0  0  0  0  0  0  0  0  0  0  0  0
   -7.1812   -5.1949   -0.8695 H   0  0  0  0  0  0  0  0  0  0  0  0
    2.3919   -0.5314    0.6131 H   0  0  0  0  0  0  0  0  0  0  0  0
    4.7437    2.8108   -0.8125 H   0  0  0  0  0  0  0  0  0  0  0  0
    4.3992   -1.9104    0.6835 H   0  0  0  0  0  0  0  0  0  0  0  0
    6.7508    1.4144   -0.7492 H   0  0  0  0  0  0  0  0  0  0  0  0
    7.4065   -0.6408    2.0503 H   0  0  0  0  0  0  0  0  0  0  0  0
    6.6786   -1.8855   -2.0191 H   0  0  0  0  0  0  0  0  0  0  0  0
    9.4322   -2.0461    2.1072 H   0  0  0  0  0  0  0  0  0  0  0  0
    8.7078   -3.2850   -1.9431 H   0  0  0  0  0  0  0  0  0  0  0  0
   10.0897   -3.3709    0.1154 H   0  0  0  0  0  0  0  0  0  0  0  0
  1 17  2  0  0  0  0
  2 24  2  0  0  0  0
  3 11  1  0  0  0  0
  3 14  1  0  0  0  0
  3 15  1  0  0  0  0
  4 17  1  0  0  0  0
  4 18  1  0  0  0  0
  4 19  1  0  0  0  0
  5  6  1  0  0  0  0
  5 16  1  0  0  0  0
  5 23  1  0  0  0  0
  6  7  2  0  0  0  0
  7 25  1  0  0  0  0
  8 24  1  0  0  0  0
  8 61  1  0  0  0  0
  8 62  1  0  0  0  0
  9 10  1  0  0  0  0
  9 12  1  0  0  0  0
  9 13  1  0  0  0  0
  9 38  1  0  0  0  0
 10 14  1  0  0  0  0
 10 17  1  0  0  0  0
 10 39  1  0  0  0  0
 11 12  1  0  0  0  0
 11 16  1  0  0  0  0
 11 40  1  0  0  0  0
 12 41  1  0  0  0  0
 12 42  1  0  0  0  0
 13 15  1  0  0  0  0
 13 43  1  0  0  0  0
 13 44  1  0  0  0  0
 14 45  1  0  0  0  0
 14 46  1  0  0  0  0
 15 47  1  0  0  0  0
 15 48  1  0  0  0  0
 16 49  1  0  0  0  0
 16 50  1  0  0  0  0
 18 20  1  0  0  0  0
 18 51  1  0  0  0  0
 18 52  1  0  0  0  0
 19 21  1  0  0  0  0
 19 53  1  0  0  0  0
 19 54  1  0  0  0  0
 20 22  1  0  0  0  0
 20 55  1  0  0  0  0
 20 56  1  0  0  0  0
 21 22  1  0  0  0  0
 21 57  1  0  0  0  0
 21 58  1  0  0  0  0
 22 24  1  0  0  0  0
 22 59  1  0  0  0  0
 23 25  2  0  0  0  0
 23 60  1  0  0  0  0
 25 26  1  0  0  0  0
 26 27  2  0  0  0  0
 26 28  1  0  0  0  0
 27 29  1  0  0  0  0
 27 63  1  0  0  0  0
 28 30  2  0  0  0  0
 28 64  1  0  0  0  0
 29 31  2  0  0  0  0
 29 65  1  0  0  0  0
 30 31  1  0  0  0  0
 30 66  1  0  0  0  0
 31 32  1  0  0  0  0
 32 33  2  0  0  0  0
 32 34  1  0  0  0  0
 33 35  1  0  0  0  0
 33 67  1  0  0  0  0
 34 36  2  0  0  0  0
 34 68  1  0  0  0  0
 35 37  2  0  0  0  0
 35 69  1  0  0  0  0
 36 37  1  0  0  0  0
 36 70  1  0  0  0  0
 37 71  1  0  0  0  0
M  END
> <PUBCHEM_COMPOUND_CID>
44716227

> <PUBCHEM_CONFORMER_RMSD>
1

> <PUBCHEM_CONFORMER_DIVERSEORDER>
1
113
79
139
86
171
49
152
125
72
7
138
32
39
106
76
70
110
43
112
145
98
69
155
133
9
147
101
122
164
161
165
154
80
83
124
146
130
68
114
111
67
104
172
19
129
77
169
30
170
166
44
92
46
34
96
105
108
148
156
71
158
168
150
40
159
8
29
118
137
97
160
127
93
47
136
135
173
2
26
4
81
42
78
38
128
51
95
66
100
167
12
59
33
64
56
153
65
157
55
109
13
87
23
84
21
131
60
123
36
82
50
102
35
63
119
116
91
140
11
99
45
17
103
141
85
54
134
62
149
3
120
115
18
6
142
52
73
144
27
20
61
94
41
132
10
74
25
151
48
37
22
5
121
15
24
117
58
126
75
107
16
53
162
90
163
143
89
28
14
31
57
88

> <PUBCHEM_MMFF94_PARTIAL_CHARGES>
42
1 -0.57
10 0.06
11 0.27
14 0.27
15 0.27
16 0.26
17 0.57
18 0.3
19 0.3
2 -0.57
22 0.06
23 -0.3
24 0.57
25 0.17
26 0.05
27 -0.15
28 -0.15
29 -0.15
3 -0.81
30 -0.15
33 -0.15
34 -0.15
35 -0.15
36 -0.15
37 -0.15
4 -0.66
5 0.31
6 -0.42
60 0.15
61 0.37
62 0.37
63 0.15
64 0.15
65 0.15
66 0.15
67 0.15
68 0.15
69 0.15
7 -0.23
70 0.15
71 0.15
8 -0.8

> <PUBCHEM_EFFECTIVE_ROTOR_COUNT>
9.4

> <PUBCHEM_PHARMACOPHORE_FEATURES>
9
1 1 acceptor
1 2 acceptor
1 3 cation
1 8 donor
5 5 6 7 23 25 rings
6 26 27 28 29 30 31 rings
6 32 33 34 35 36 37 rings
6 4 18 19 20 21 22 rings
8 3 9 10 11 12 13 14 15 rings

> <PUBCHEM_HEAVY_ATOM_COUNT>
37

> <PUBCHEM_ATOM_DEF_STEREO_COUNT>
2

> <PUBCHEM_ATOM_UDEF_STEREO_COUNT>
1

> <PUBCHEM_BOND_DEF_STEREO_COUNT>
0

> <PUBCHEM_BOND_UDEF_STEREO_COUNT>
0

> <PUBCHEM_ISOTOPIC_ATOM_COUNT>
0

> <PUBCHEM_COMPONENT_COUNT>
1

> <PUBCHEM_CACTVS_TAUTO_COUNT>
2

> <PUBCHEM_CONFORMER_ID>
02AA50C300000001

> <PUBCHEM_MMFF94_ENERGY>
102.1728

> <PUBCHEM_FEATURE_SELFOVERLAP>
45.673

> <PUBCHEM_SHAPE_FINGERPRINT>
10391435 84 18338789023649760248
11135609 201 9943811088728013749
11135609 99 18408887309415246212
11135926 11 18043531603785694840
11607047 403 17695900412855308144
117089 54 18337394958142097151
11761917 116 18268156538188192574
11801155 225 18192991509427085234
11963148 33 18189332369569093842
12124843 1 17823409569263091663
12643181 29 18262516975255928136
12645989 146 18338804519190455858
1361 4 18338519750427165612
13690498 29 17894632539507362229
13782708 43 18343023311362803416
14178184 131 18412545396853119606
14201967 108 18337391651413743418
14344974 204 18413109485268637502
15230672 131 18042119869220244457
15406563 47 18047195150601261623
15510800 12 18271812272284421508
15538507 19 18413387640303368640
15705408 1 17458914841816077068
15803439 3 17608619788657940093
16067689 391 18187372076873558835
17324776 126 18053094305516304967
18603816 31 18411705353142915273
19301676 85 18119246414143245619
19303781 99 18114187470489553322
19315092 285 17556593363441854041
20156587 161 17055533836926865967
208703 8 18339917220488633550
21057603 199 18269823364316662039
21057603 30 12109155233348007327
21133410 171 17539920270186558403
21792965 106 8430321217207307662
23569914 152 18054200380871558719
25025965 108 18058994138760159319
3504750 166 18412549799431975225
397830 11 18343011200030114120
4017518 198 18193272997762704397
42767 24 18410860953998767962
44880168 125 18411704318145026009
45377200 153 18340497647872212322
4616759 239 17845366644538971664
4756326 101 14906798679191337843
484985 159 18341337721657511009
49967989 163 18268718203973233124
57527293 21 18266762323137934733
6201460 15 17910108354489161127
6441014 3 18268428126013725671

> <PUBCHEM_SHAPE_MULTIPOLES>
719.82
25.77
7.11
1.43
56.14
5.71
-0.15
30.29
0.71
-14.4
2.41
-1.2
0.39
-0.73

> <PUBCHEM_SHAPE_SELFOVERLAP>
1571.644

> <PUBCHEM_SHAPE_VOLUME>
386.3

> <PUBCHEM_COORDINATE_TYPE>
2
5
10

$$$$
