56775566
  -OEChem-12032416273D

 44 47  0     0  0  0  0  0  0999 V2000
   -1.2039   -2.5108   -0.1408 Cl  0  0  0  0  0  0  0  0  0  0  0  0
   -2.3509    3.6466    1.1547 O   0  0  0  0  0  0  0  0  0  0  0  0
    2.9717    1.7817    0.0807 O   0  0  0  0  0  0  0  0  0  0  0  0
   -1.7396    0.8105    0.2966 N   0  0  0  0  0  0  0  0  0  0  0  0
    1.8686    2.5765   -0.2068 N   0  0  0  0  0  0  0  0  0  0  0  0
   -1.3640    2.1773   -0.0381 C   0  0  0  0  0  0  0  0  0  0  0  0
   -2.6267    3.0272   -0.1221 C   0  0  0  0  0  0  0  0  0  0  0  0
   -1.0924    2.9417    1.2527 C   0  0  0  0  0  0  0  0  0  0  0  0
   -0.3380    2.2535   -1.1766 C   0  0  0  0  0  0  0  0  0  0  0  0
   -2.4859    0.2179   -0.8108 C   0  0  0  0  0  0  0  0  0  0  0  0
    0.9733    1.7436   -0.7451 C   0  0  0  0  0  0  0  0  0  0  0  0
   -3.3885   -0.8943   -0.3470 C   0  0  0  0  0  0  0  0  0  0  0  0
    1.4509    0.4238   -0.8218 C   0  0  0  0  0  0  0  0  0  0  0  0
    2.7108    0.5020   -0.2900 C   0  0  0  0  0  0  0  0  0  0  0  0
   -2.8892   -2.1561   -0.0247 C   0  0  0  0  0  0  0  0  0  0  0  0
   -4.7556   -0.6378   -0.2432 C   0  0  0  0  0  0  0  0  0  0  0  0
    3.7699   -0.4474   -0.0500 C   0  0  0  0  0  0  0  0  0  0  0  0
   -3.7569   -3.1616    0.4014 C   0  0  0  0  0  0  0  0  0  0  0  0
   -5.6234   -1.6433    0.1829 C   0  0  0  0  0  0  0  0  0  0  0  0
   -5.1242   -2.9052    0.5053 C   0  0  0  0  0  0  0  0  0  0  0  0
    3.5962   -1.7878   -0.3944 C   0  0  0  0  0  0  0  0  0  0  0  0
    4.9677   -0.0251    0.5265 C   0  0  0  0  0  0  0  0  0  0  0  0
    4.6202   -2.7062   -0.1622 C   0  0  0  0  0  0  0  0  0  0  0  0
    5.9918   -0.9431    0.7586 C   0  0  0  0  0  0  0  0  0  0  0  0
    5.8181   -2.2837    0.4143 C   0  0  0  0  0  0  0  0  0  0  0  0
   -3.6105    2.5494   -0.0941 H   0  0  0  0  0  0  0  0  0  0  0  0
   -2.6323    3.7789   -0.9192 H   0  0  0  0  0  0  0  0  0  0  0  0
   -0.2633    3.6560    1.2286 H   0  0  0  0  0  0  0  0  0  0  0  0
   -1.0281    2.3620    2.1797 H   0  0  0  0  0  0  0  0  0  0  0  0
   -0.2267    3.3015   -1.4882 H   0  0  0  0  0  0  0  0  0  0  0  0
   -0.6821    1.7277   -2.0744 H   0  0  0  0  0  0  0  0  0  0  0  0
   -0.9756    0.1983    0.5773 H   0  0  0  0  0  0  0  0  0  0  0  0
   -1.7931   -0.1790   -1.5641 H   0  0  0  0  0  0  0  0  0  0  0  0
   -3.0939    0.9355   -1.3745 H   0  0  0  0  0  0  0  0  0  0  0  0
    0.9493   -0.4478   -1.2145 H   0  0  0  0  0  0  0  0  0  0  0  0
   -5.1619    0.3401   -0.4876 H   0  0  0  0  0  0  0  0  0  0  0  0
   -3.3838   -4.1503    0.6564 H   0  0  0  0  0  0  0  0  0  0  0  0
   -6.6878   -1.4436    0.2645 H   0  0  0  0  0  0  0  0  0  0  0  0
   -5.8000   -3.6879    0.8372 H   0  0  0  0  0  0  0  0  0  0  0  0
    2.6740   -2.1463   -0.8444 H   0  0  0  0  0  0  0  0  0  0  0  0
    5.1403    1.0105    0.8082 H   0  0  0  0  0  0  0  0  0  0  0  0
    4.4852   -3.7500   -0.4301 H   0  0  0  0  0  0  0  0  0  0  0  0
    6.9248   -0.6148    1.2075 H   0  0  0  0  0  0  0  0  0  0  0  0
    6.6155   -2.9985    0.5951 H   0  0  0  0  0  0  0  0  0  0  0  0
  1 15  1  0  0  0  0
  2  7  1  0  0  0  0
  2  8  1  0  0  0  0
  3  5  1  0  0  0  0
  3 14  1  0  0  0  0
  4  6  1  0  0  0  0
  4 10  1  0  0  0  0
  4 32  1  0  0  0  0
  5 11  2  0  0  0  0
  6  7  1  0  0  0  0
  6  8  1  0  0  0  0
  6  9  1  0  0  0  0
  7 26  1  0  0  0  0
  7 27  1  0  0  0  0
  8 28  1  0  0  0  0
  8 29  1  0  0  0  0
  9 11  1  0  0  0  0
  9 30  1  0  0  0  0
  9 31  1  0  0  0  0
 10 12  1  0  0  0  0
 10 33  1  0  0  0  0
 10 34  1  0  0  0  0
 11 13  1  0  0  0  0
 12 15  1  0  0  0  0
 12 16  2  0  0  0  0
 13 14  2  0  0  0  0
 13 35  1  0  0  0  0
 14 17  1  0  0  0  0
 15 18  2  0  0  0  0
 16 19  1  0  0  0  0
 16 36  1  0  0  0  0
 17 21  2  0  0  0  0
 17 22  1  0  0  0  0
 18 20  1  0  0  0  0
 18 37  1  0  0  0  0
 19 20  2  0  0  0  0
 19 38  1  0  0  0  0
 20 39  1  0  0  0  0
 21 23  1  0  0  0  0
 21 40  1  0  0  0  0
 22 24  2  0  0  0  0
 22 41  1  0  0  0  0
 23 25  2  0  0  0  0
 23 42  1  0  0  0  0
 24 25  1  0  0  0  0
 24 43  1  0  0  0  0
 25 44  1  0  0  0  0
M  END
> <PUBCHEM_COMPOUND_CID>
56775566

> <PUBCHEM_CONFORMER_RMSD>
0.8

> <PUBCHEM_CONFORMER_DIVERSEORDER>
1
70
175
144
127
191
180
220
75
183
123
122
132
241
43
73
84
87
120
187
97
228
216
192
136
148
212
155
161
214
115
26
113
222
160
111
142
126
78
158
63
240
209
184
141
197
143
169
71
181
223
129
230
176
186
174
114
152
47
213
67
196
58
150
85
199
74
77
110
91
190
54
166
102
48
231
198
135
124
131
195
217
42
172
173
154
146
224
210
119
27
204
215
34
229
194
33
163
167
140
168
193
98
51
93
153
134
139
185
138
20
94
188
95
239
65
219
81
30
7
200
189
52
133
36
41
177
45
25
69
151
49
208
145
62
117
233
237
105
235
89
116
207
159
60
112
88
19
121
227
236
125
21
46
238
100
147
203
201
82
149
76
55
156
165
44
10
178
171
206
109
226
68
90
225
38
83
80
221
40
24
37
50
108
14
31
106
103
16
218
157
59
53
137
18
179
182
232
23
61
164
9
39
6
162
56
130
128
79
234
11
22
118
4
35
72
66
104
96
170
205
13
5
15
8
3
101
92
99
202
12
57
29
64
107
2
211
28
17
86
32

> <PUBCHEM_MMFF94_PARTIAL_CHARGES>
36
1 -0.18
10 0.41
11 0.11
12 -0.14
13 -0.15
14 0.09
15 0.18
16 -0.15
17 0.05
18 -0.15
19 -0.15
2 -0.52
20 -0.15
21 -0.15
22 -0.15
23 -0.15
24 -0.15
25 -0.15
3 -0.02
32 0.36
35 0.15
36 0.15
37 0.15
38 0.15
39 0.15
4 -0.84
40 0.15
41 0.15
42 0.15
43 0.15
44 0.15
5 -0.41
6 0.21
7 0.26
8 0.26
9 0.18

> <PUBCHEM_EFFECTIVE_ROTOR_COUNT>
6.8

> <PUBCHEM_PHARMACOPHORE_FEATURES>
8
1 2 acceptor
1 4 cation
1 4 donor
1 5 acceptor
4 2 6 7 8 rings
5 3 5 11 13 14 rings
6 12 15 16 18 19 20 rings
6 17 21 22 23 24 25 rings

> <PUBCHEM_HEAVY_ATOM_COUNT>
25

> <PUBCHEM_ATOM_DEF_STEREO_COUNT>
0

> <PUBCHEM_ATOM_UDEF_STEREO_COUNT>
0

> <PUBCHEM_BOND_DEF_STEREO_COUNT>
0

> <PUBCHEM_BOND_UDEF_STEREO_COUNT>
0

> <PUBCHEM_ISOTOPIC_ATOM_COUNT>
0

> <PUBCHEM_COMPONENT_COUNT>
1

> <PUBCHEM_CACTVS_TAUTO_COUNT>
1

> <PUBCHEM_CONFORMER_ID>
0362538E00000001

> <PUBCHEM_MMFF94_ENERGY>
62.0226

> <PUBCHEM_FEATURE_SELFOVERLAP>
40.597

> <PUBCHEM_SHAPE_FINGERPRINT>
11135609 12 18261664952586470476
11135926 11 17975970178981632004
11456790 92 18341626953819360371
11552529 35 18270956843869427912
12107183 9 18339938069235211297
12422481 6 18056503702294813507
12760667 363 18412539916843667143
12788726 201 18340783614181311228
13004483 165 18340484568688519373
13402501 40 18408321094722839966
13583140 156 17274241861104537024
13631057 29 18409729569497016998
13911852 28 18267582584618651415
14178342 30 18198630930060419020
14844126 61 18343013363970482907
14866123 147 18339366250021349225
15042514 8 18338519642794624173
15352361 1 18408321107475470278
15927050 60 17836361550218949605
16120349 21 18340217271725887705
17492 89 18410292527665898022
19141452 34 18192715540465766916
19319366 153 17617665800487577821
1979834 28 17846512451271473886
20403669 9 18410858758848246494
20567600 70 18334853965690784594
20775530 9 18335974358980022734
21478907 32 18410014355635160473
22122407 14 15984525712391756016
23559900 14 18338505426120740381
3004659 81 18041274469284744982
3421961 26 18337952423506203348
3680242 22 18266192780425103163
38695281 34 17689439282829407833
4073 2 18269552737825524778
463206 1 18193558006595679015
469060 322 17168145572977065422
484985 159 18189327970751741255
5104073 3 18270387280120071450
513202 73 18114475504794045577
5486654 36 18336834078494430680
563151 248 18193855751229709217
56633871 153 18339084916636907275
5924683 9 18339642235339044752
7970288 3 18336826502098839075
79837 15 17911812266730601601
9961470 85 17690547594660394586
9981440 41 16126397806078160117

> <PUBCHEM_SHAPE_MULTIPOLES>
494.66
13.12
4.72
0.93
8.44
1.43
0.04
-13.22
2.32
-3.45
0.86
-0.05
0.44
-0.22

> <PUBCHEM_SHAPE_SELFOVERLAP>
1068.828

> <PUBCHEM_SHAPE_VOLUME>
272.3

> <PUBCHEM_COORDINATE_TYPE>
2
5
10

$$$$
