51136658
  -OEChem-12032416143D

 56 59  0     1  0  0  0  0  0999 V2000
   -0.8512    3.5544   -1.6399 O   0  0  0  0  0  0  0  0  0  0  0  0
   -5.7665   -3.0618   -0.8347 O   0  0  0  0  0  0  0  0  0  0  0  0
   -6.2128   -0.9045   -0.2618 O   0  0  0  0  0  0  0  0  0  0  0  0
    0.6491    3.1403    1.2868 O   0  0  0  0  0  0  0  0  0  0  0  0
    5.4412   -1.3253   -1.3524 O   0  0  0  0  0  0  0  0  0  0  0  0
   -1.7820    2.0408   -0.1179 N   0  0  0  0  0  0  0  0  0  0  0  0
   -0.0371   -1.6336    1.9495 N   0  0  0  0  0  0  0  0  0  0  0  0
   -2.0565   -0.2894    0.7011 C   0  0  2  0  0  0  0  0  0  0  0  0
   -3.4647   -0.3095    0.0535 C   0  0  1  0  0  0  0  0  0  0  0  0
   -3.5555    0.6649   -1.1332 C   0  0  0  0  0  0  0  0  0  0  0  0
   -1.6604    1.1571    1.0501 C   0  0  0  0  0  0  0  0  0  0  0  0
   -0.9677   -0.9476   -0.1556 C   0  0  0  0  0  0  0  0  0  0  0  0
   -3.1080    2.0677   -0.7320 C   0  0  0  0  0  0  0  0  0  0  0  0
   -3.9143   -1.7096   -0.3634 C   0  0  0  0  0  0  0  0  0  0  0  0
    0.2025   -1.3389    0.7143 C   0  0  0  0  0  0  0  0  0  0  0  0
   -0.7553    2.8181   -0.6594 C   0  0  0  0  0  0  0  0  0  0  0  0
    1.5623   -1.3594    0.1173 C   0  0  0  0  0  0  0  0  0  0  0  0
   -5.4114   -1.8034   -0.4680 C   0  0  0  0  0  0  0  0  0  0  0  0
    2.6429   -1.3413    1.0083 C   0  0  0  0  0  0  0  0  0  0  0  0
    2.3619   -1.2881    2.4806 C   0  0  0  0  0  0  0  0  0  0  0  0
    1.0907   -2.0722    2.7786 C   0  0  0  0  0  0  0  0  0  0  0  0
    0.5623    2.7652   -0.0165 C   0  0  0  0  0  0  0  0  0  0  0  0
    1.7814   -1.3811   -1.2613 C   0  0  0  0  0  0  0  0  0  0  0  0
    3.9483   -1.3184    0.5094 C   0  0  0  0  0  0  0  0  0  0  0  0
    3.0885   -1.3741   -1.7499 C   0  0  0  0  0  0  0  0  0  0  0  0
    4.1690   -1.3399   -0.8678 C   0  0  0  0  0  0  0  0  0  0  0  0
    1.7963    2.3896   -0.4944 C   0  0  0  0  0  0  0  0  0  0  0  0
    2.6992    2.5436    0.5846 C   0  0  0  0  0  0  0  0  0  0  0  0
    1.9525    3.0027    1.6449 C   0  0  0  0  0  0  0  0  0  0  0  0
    5.5954   -1.3464   -2.7707 C   0  0  0  0  0  0  0  0  0  0  0  0
   -2.1741   -0.8301    1.6486 H   0  0  0  0  0  0  0  0  0  0  0  0
   -4.1569    0.0603    0.8248 H   0  0  0  0  0  0  0  0  0  0  0  0
   -4.5781    0.7170   -1.5223 H   0  0  0  0  0  0  0  0  0  0  0  0
   -2.9216    0.3075   -1.9547 H   0  0  0  0  0  0  0  0  0  0  0  0
   -2.3389    1.5544    1.8154 H   0  0  0  0  0  0  0  0  0  0  0  0
   -0.6601    1.1730    1.4822 H   0  0  0  0  0  0  0  0  0  0  0  0
   -0.6578   -0.2792   -0.9634 H   0  0  0  0  0  0  0  0  0  0  0  0
   -1.3234   -1.8774   -0.6108 H   0  0  0  0  0  0  0  0  0  0  0  0
   -3.1172    2.7230   -1.6088 H   0  0  0  0  0  0  0  0  0  0  0  0
   -3.8007    2.4952    0.0026 H   0  0  0  0  0  0  0  0  0  0  0  0
   -3.6013   -2.4391    0.3930 H   0  0  0  0  0  0  0  0  0  0  0  0
   -3.4839   -1.9911   -1.3307 H   0  0  0  0  0  0  0  0  0  0  0  0
    2.2443   -0.2397    2.7794 H   0  0  0  0  0  0  0  0  0  0  0  0
    3.1937   -1.7137    3.0530 H   0  0  0  0  0  0  0  0  0  0  0  0
    0.8235   -1.9352    3.8321 H   0  0  0  0  0  0  0  0  0  0  0  0
    1.2480   -3.1474    2.6260 H   0  0  0  0  0  0  0  0  0  0  0  0
    0.9622   -1.4179   -1.9723 H   0  0  0  0  0  0  0  0  0  0  0  0
    4.7937   -1.2848    1.1919 H   0  0  0  0  0  0  0  0  0  0  0  0
   -6.7395   -3.1589   -0.9130 H   0  0  0  0  0  0  0  0  0  0  0  0
    3.1925   -1.3954   -2.8295 H   0  0  0  0  0  0  0  0  0  0  0  0
    2.0203    2.0462   -1.4942 H   0  0  0  0  0  0  0  0  0  0  0  0
    3.7608    2.3431    0.5893 H   0  0  0  0  0  0  0  0  0  0  0  0
    2.1866    3.2637    2.6665 H   0  0  0  0  0  0  0  0  0  0  0  0
    5.2008   -2.2712   -3.2049 H   0  0  0  0  0  0  0  0  0  0  0  0
    5.1660   -0.4525   -3.2357 H   0  0  0  0  0  0  0  0  0  0  0  0
    6.6703   -1.3293   -2.9789 H   0  0  0  0  0  0  0  0  0  0  0  0
  1 16  2  0  0  0  0
  2 18  1  0  0  0  0
  2 49  1  0  0  0  0
  3 18  2  0  0  0  0
  4 22  1  0  0  0  0
  4 29  1  0  0  0  0
  5 26  1  0  0  0  0
  5 30  1  0  0  0  0
  6 11  1  0  0  0  0
  6 13  1  0  0  0  0
  6 16  1  0  0  0  0
  7 15  2  0  0  0  0
  7 21  1  0  0  0  0
  8  9  1  0  0  0  0
  8 11  1  0  0  0  0
  8 12  1  0  0  0  0
  8 31  1  0  0  0  0
  9 10  1  0  0  0  0
  9 14  1  0  0  0  0
  9 32  1  0  0  0  0
 10 13  1  0  0  0  0
 10 33  1  0  0  0  0
 10 34  1  0  0  0  0
 11 35  1  0  0  0  0
 11 36  1  0  0  0  0
 12 15  1  0  0  0  0
 12 37  1  0  0  0  0
 12 38  1  0  0  0  0
 13 39  1  0  0  0  0
 13 40  1  0  0  0  0
 14 18  1  0  0  0  0
 14 41  1  0  0  0  0
 14 42  1  0  0  0  0
 15 17  1  0  0  0  0
 16 22  1  0  0  0  0
 17 19  2  0  0  0  0
 17 23  1  0  0  0  0
 19 20  1  0  0  0  0
 19 24  1  0  0  0  0
 20 21  1  0  0  0  0
 20 43  1  0  0  0  0
 20 44  1  0  0  0  0
 21 45  1  0  0  0  0
 21 46  1  0  0  0  0
 22 27  2  0  0  0  0
 23 25  2  0  0  0  0
 23 47  1  0  0  0  0
 24 26  2  0  0  0  0
 24 48  1  0  0  0  0
 25 26  1  0  0  0  0
 25 50  1  0  0  0  0
 27 28  1  0  0  0  0
 27 51  1  0  0  0  0
 28 29  2  0  0  0  0
 28 52  1  0  0  0  0
 29 53  1  0  0  0  0
 30 54  1  0  0  0  0
 30 55  1  0  0  0  0
 30 56  1  0  0  0  0
M  END
> <PUBCHEM_COMPOUND_CID>
51136658

> <PUBCHEM_CONFORMER_RMSD>
1

> <PUBCHEM_CONFORMER_DIVERSEORDER>
1
110
85
105
7
100
117
25
92
113
8
81
59
93
114
18
11
103
42
109
22
68
29
76
26
33
86
56
107
48
4
102
71
79
72
116
35
6
98
19
104
112
2
38
77
14
44
54
91
53
65
12
10
95
34
61
84
32
70
24
80
49
74
28
20
39
46
111
47
58
31
63
108
23
96
66
99
101
36
90
43
50
15
67
37
27
64
51
13
62
45
40
3
60
97
17
57
55
41
16
52
89
94
73
83
115
69
78
30
21
106
75
9
82
87
5
88

> <PUBCHEM_MMFF94_PARTIAL_CHARGES>
34
1 -0.57
11 0.3
12 0.06
13 0.3
14 0.06
15 0.3
16 0.71
17 0.09
18 0.66
19 -0.14
2 -0.65
20 0.14
21 0.25
22 0.05
23 -0.15
24 -0.15
25 -0.15
26 0.08
27 -0.15
28 -0.15
29 -0.01
3 -0.57
30 0.28
4 -0.28
47 0.15
48 0.15
49 0.5
5 -0.36
50 0.15
51 0.15
52 0.15
53 0.15
6 -0.66
7 -0.7

> <PUBCHEM_EFFECTIVE_ROTOR_COUNT>
8.6

> <PUBCHEM_PHARMACOPHORE_FEATURES>
11
1 1 acceptor
1 2 acceptor
1 3 acceptor
1 4 acceptor
1 5 acceptor
1 7 acceptor
3 2 3 18 anion
5 4 22 27 28 29 rings
6 17 19 23 24 25 26 rings
6 6 8 9 10 11 13 rings
6 7 15 17 19 20 21 rings

> <PUBCHEM_HEAVY_ATOM_COUNT>
30

> <PUBCHEM_ATOM_DEF_STEREO_COUNT>
2

> <PUBCHEM_ATOM_UDEF_STEREO_COUNT>
0

> <PUBCHEM_BOND_DEF_STEREO_COUNT>
0

> <PUBCHEM_BOND_UDEF_STEREO_COUNT>
0

> <PUBCHEM_ISOTOPIC_ATOM_COUNT>
0

> <PUBCHEM_COMPONENT_COUNT>
1

> <PUBCHEM_CACTVS_TAUTO_COUNT>
1

> <PUBCHEM_CONFORMER_ID>
030C489200000001

> <PUBCHEM_MMFF94_ENERGY>
80.05

> <PUBCHEM_FEATURE_SELFOVERLAP>
55.908

> <PUBCHEM_SHAPE_FINGERPRINT>
10032420 55 18040992908361033725
10369192 42 17272260695775266168
11399939 17 15912186797716092597
11578080 2 17315882582308635077
11607047 141 17630907061014195123
11640471 11 17246689061595104104
12156800 1 13845560968761710208
12166972 35 17241030008449274858
12422481 6 17981568810337644377
12596599 1 18200877257858773137
12788726 201 18045219345544292473
13140716 1 18264752317081957001
133893 2 18192733321661852273
14251740 57 18129658737654470079
14787075 74 18334586715740469996
14790565 3 17474668347886999009
14931854 50 18041288690269797654
15721738 202 17846505858474867243
17138139 8 18187369796656808566
17909252 39 18202292394333513252
19319366 153 17316481692013630025
20028762 73 16753811486929618459
20642791 35 18336541643267615153
20691752 17 17749107790029622601
20775438 99 17981591977386801783
20905425 154 18336812156723161888
21033648 29 17059192775342184707
21197605 99 17689710179274976315
22182313 1 18189594169020565829
22393880 68 18334287648261392357
23559900 14 18273491265521931111
46194498 28 18201438120795711494
463206 1 18050558840370305647
59755656 215 18194398016182762532
6287921 2 17702930560941954466
6823239 73 18271517620089486008
70251023 43 18412267242060091995

> <PUBCHEM_SHAPE_MULTIPOLES>
578.08
10.24
4.17
2.17
6.52
3.83
-0.49
-9.09
6.31
0.63
-0.13
-2.87
-0.92
0.88

> <PUBCHEM_SHAPE_SELFOVERLAP>
1244.152

> <PUBCHEM_SHAPE_VOLUME>
316.4

> <PUBCHEM_COORDINATE_TYPE>
2
5
10

$$$$
