11866321
  -OEChem-12032416153D

 56 58  0     1  0  0  0  0  0999 V2000
   -1.9148    3.2571    1.3406 O   0  0  0  0  0  0  0  0  0  0  0  0
    0.0500    4.1896   -1.6011 O   0  0  0  0  0  0  0  0  0  0  0  0
    2.6420    1.4884    2.1268 O   0  0  0  0  0  0  0  0  0  0  0  0
   -3.6776    1.1215   -1.8896 O   0  0  0  0  0  0  0  0  0  0  0  0
    5.2147    1.7310   -0.9067 O   0  0  0  0  0  0  0  0  0  0  0  0
    0.0026   -5.0476   -0.0110 O   0  0  0  0  0  0  0  0  0  0  0  0
   -2.3422    0.8801   -0.0091 N   0  0  0  0  0  0  0  0  0  0  0  0
    2.8719    0.6008   -0.0166 N   0  0  0  0  0  0  0  0  0  0  0  0
    6.3052    0.6637    0.8103 N   0  0  0  0  0  0  0  0  0  0  0  0
   -6.8060   -0.9340   -0.0135 N   0  0  0  0  0  0  0  0  0  0  0  0
   -1.5212    3.2082   -0.0326 C   0  0  1  0  0  0  0  0  0  0  0  0
   -0.2621    4.0646   -0.2152 C   0  0  1  0  0  0  0  0  0  0  0  0
   -1.2745    1.7451   -0.4478 C   0  0  1  0  0  0  0  0  0  0  0  0
    0.9442    3.4904    0.5476 C   0  0  0  0  0  0  0  0  0  0  0  0
    1.0164    1.9904    0.5065 C   0  0  0  0  0  0  0  0  0  0  0  0
    0.0335    1.1967    0.0552 C   0  0  0  0  0  0  0  0  0  0  0  0
    2.2486    1.3454    0.9695 C   0  0  0  0  0  0  0  0  0  0  0  0
    4.1030   -0.1245    0.2011 C   0  0  1  0  0  0  0  0  0  0  0  0
   -3.4702    0.6384   -0.7796 C   0  0  0  0  0  0  0  0  0  0  0  0
    4.2258   -1.3461   -0.7167 C   0  0  0  0  0  0  0  0  0  0  0  0
    3.1001   -2.3335   -0.5284 C   0  0  0  0  0  0  0  0  0  0  0  0
    5.2461    0.8470   -0.0538 C   0  0  0  0  0  0  0  0  0  0  0  0
   -4.4913   -0.2552   -0.1748 C   0  0  0  0  0  0  0  0  0  0  0  0
    3.2225   -3.3618    0.4061 C   0  0  0  0  0  0  0  0  0  0  0  0
    1.9366   -2.2174   -1.2891 C   0  0  0  0  0  0  0  0  0  0  0  0
   -4.1354   -1.2203    0.7609 C   0  0  0  0  0  0  0  0  0  0  0  0
   -5.8279   -0.1534   -0.5251 C   0  0  0  0  0  0  0  0  0  0  0  0
    2.1816   -4.2740    0.5799 C   0  0  0  0  0  0  0  0  0  0  0  0
    0.8958   -3.1295   -1.1154 C   0  0  0  0  0  0  0  0  0  0  0  0
    1.0183   -4.1578   -0.1810 C   0  0  0  0  0  0  0  0  0  0  0  0
   -5.1133   -2.0425    1.3097 C   0  0  0  0  0  0  0  0  0  0  0  0
   -6.4222   -1.8607    0.8930 C   0  0  0  0  0  0  0  0  0  0  0  0
   -2.3491    3.6114   -0.6284 H   0  0  0  0  0  0  0  0  0  0  0  0
   -0.4527    5.0778    0.1590 H   0  0  0  0  0  0  0  0  0  0  0  0
   -1.2329    1.6988   -1.5440 H   0  0  0  0  0  0  0  0  0  0  0  0
    1.8730    3.9092    0.1417 H   0  0  0  0  0  0  0  0  0  0  0  0
    0.8771    3.7937    1.6000 H   0  0  0  0  0  0  0  0  0  0  0  0
    0.1608    0.1167    0.0336 H   0  0  0  0  0  0  0  0  0  0  0  0
   -2.2856    0.5174    0.9373 H   0  0  0  0  0  0  0  0  0  0  0  0
   -2.0908    4.1876    1.5613 H   0  0  0  0  0  0  0  0  0  0  0  0
    0.8244    4.7725   -1.6770 H   0  0  0  0  0  0  0  0  0  0  0  0
    4.1230   -0.4421    1.2513 H   0  0  0  0  0  0  0  0  0  0  0  0
    2.5024    0.6263   -0.9631 H   0  0  0  0  0  0  0  0  0  0  0  0
    5.1864   -1.8495   -0.5439 H   0  0  0  0  0  0  0  0  0  0  0  0
    4.2540   -1.0306   -1.7690 H   0  0  0  0  0  0  0  0  0  0  0  0
    4.1233   -3.4609    1.0060 H   0  0  0  0  0  0  0  0  0  0  0  0
    1.8285   -1.4247   -2.0245 H   0  0  0  0  0  0  0  0  0  0  0  0
   -3.1056   -1.3804    1.0659 H   0  0  0  0  0  0  0  0  0  0  0  0
   -6.1740    0.5809   -1.2461 H   0  0  0  0  0  0  0  0  0  0  0  0
    7.1272    1.2562    0.7586 H   0  0  0  0  0  0  0  0  0  0  0  0
    6.3161   -0.0682    1.5134 H   0  0  0  0  0  0  0  0  0  0  0  0
    2.2825   -5.0724    1.3099 H   0  0  0  0  0  0  0  0  0  0  0  0
   -0.0053   -3.0279   -1.7143 H   0  0  0  0  0  0  0  0  0  0  0  0
   -4.8586   -2.8060    2.0358 H   0  0  0  0  0  0  0  0  0  0  0  0
   -7.2220   -2.4774    1.2896 H   0  0  0  0  0  0  0  0  0  0  0  0
   -0.7230   -4.8168   -0.6163 H   0  0  0  0  0  0  0  0  0  0  0  0
  1 11  1  0  0  0  0
  1 40  1  0  0  0  0
  2 12  1  0  0  0  0
  2 41  1  0  0  0  0
  3 17  2  0  0  0  0
  4 19  2  0  0  0  0
  5 22  2  0  0  0  0
  6 30  1  0  0  0  0
  6 56  1  0  0  0  0
  7 13  1  0  0  0  0
  7 19  1  0  0  0  0
  7 39  1  0  0  0  0
  8 17  1  0  0  0  0
  8 18  1  0  0  0  0
  8 43  1  0  0  0  0
  9 22  1  0  0  0  0
  9 50  1  0  0  0  0
  9 51  1  0  0  0  0
 10 27  1  0  0  0  0
 10 32  2  0  0  0  0
 11 12  1  0  0  0  0
 11 13  1  0  0  0  0
 11 33  1  0  0  0  0
 12 14  1  0  0  0  0
 12 34  1  0  0  0  0
 13 16  1  0  0  0  0
 13 35  1  0  0  0  0
 14 15  1  0  0  0  0
 14 36  1  0  0  0  0
 14 37  1  0  0  0  0
 15 16  2  0  0  0  0
 15 17  1  0  0  0  0
 16 38  1  0  0  0  0
 18 20  1  0  0  0  0
 18 22  1  0  0  0  0
 18 42  1  0  0  0  0
 19 23  1  0  0  0  0
 20 21  1  0  0  0  0
 20 44  1  0  0  0  0
 20 45  1  0  0  0  0
 21 24  2  0  0  0  0
 21 25  1  0  0  0  0
 23 26  1  0  0  0  0
 23 27  2  0  0  0  0
 24 28  1  0  0  0  0
 24 46  1  0  0  0  0
 25 29  2  0  0  0  0
 25 47  1  0  0  0  0
 26 31  2  0  0  0  0
 26 48  1  0  0  0  0
 27 49  1  0  0  0  0
 28 30  2  0  0  0  0
 28 52  1  0  0  0  0
 29 30  1  0  0  0  0
 29 53  1  0  0  0  0
 31 32  1  0  0  0  0
 31 54  1  0  0  0  0
 32 55  1  0  0  0  0
M  END
> <PUBCHEM_COMPOUND_CID>
11866321

> <PUBCHEM_CONFORMER_RMSD>
1

> <PUBCHEM_CONFORMER_DIVERSEORDER>
1
103
37
87
62
229
59
113
115
70
169
144
188
165
81
159
29
217
126
77
109
80
90
111
216
44
31
198
143
203
156
204
38
172
187
133
51
54
30
201
60
150
84
183
10
164
149
129
95
151
66
227
145
74
42
206
108
221
39
171
19
86
58
202
17
168
69
181
112
89
214
154
231
218
46
85
122
191
83
208
23
195
40
234
98
78
22
67
76
53
160
233
157
100
64
220
148
61
136
207
175
97
186
88
235
82
180
5
211
48
57
33
197
21
167
104
146
140
210
47
135
106
13
130
41
116
73
205
117
225
50
11
123
228
155
132
92
162
134
237
96
118
114
196
110
9
138
224
107
94
139
209
34
213
232
27
16
24
178
174
20
35
68
91
152
226
102
43
192
45
8
4
79
222
182
15
119
124
223
6
189
26
141
25
161
142
93
105
193
128
71
52
153
199
32
28
176
2
137
200
219
230
99
185
147
75
14
49
18
125
179
158
56
170
127
184
236
101
65
163
166
55
212
131
190
120
72
63
3
121
177
36
215
7
173
12
194

> <PUBCHEM_MMFF94_PARTIAL_CHARGES>
48
1 -0.68
10 -0.62
11 0.28
12 0.28
13 0.44
14 0.14
15 -0.12
16 -0.29
17 0.62
18 0.36
19 0.54
2 -0.68
20 0.14
21 -0.14
22 0.57
23 0.09
24 -0.15
25 -0.15
26 -0.15
27 0.16
28 -0.15
29 -0.15
3 -0.57
30 0.08
31 -0.15
32 0.16
38 0.15
39 0.37
4 -0.57
40 0.4
41 0.4
43 0.37
46 0.15
47 0.15
48 0.15
49 0.15
5 -0.57
50 0.37
51 0.37
52 0.15
53 0.15
54 0.15
55 0.15
56 0.45
6 -0.53
7 -0.73
8 -0.73
9 -0.8

> <PUBCHEM_EFFECTIVE_ROTOR_COUNT>
9.8

> <PUBCHEM_PHARMACOPHORE_FEATURES>
15
1 1 acceptor
1 1 donor
1 10 acceptor
1 2 acceptor
1 2 donor
1 3 acceptor
1 4 acceptor
1 5 acceptor
1 6 donor
1 7 donor
1 8 donor
1 9 donor
6 10 23 26 27 31 32 rings
6 11 12 13 14 15 16 rings
6 21 24 25 28 29 30 rings

> <PUBCHEM_HEAVY_ATOM_COUNT>
32

> <PUBCHEM_ATOM_DEF_STEREO_COUNT>
4

> <PUBCHEM_ATOM_UDEF_STEREO_COUNT>
0

> <PUBCHEM_BOND_DEF_STEREO_COUNT>
0

> <PUBCHEM_BOND_UDEF_STEREO_COUNT>
0

> <PUBCHEM_ISOTOPIC_ATOM_COUNT>
0

> <PUBCHEM_COMPONENT_COUNT>
1

> <PUBCHEM_CACTVS_TAUTO_COUNT>
16

> <PUBCHEM_CONFORMER_ID>
00B510D100000001

> <PUBCHEM_MMFF94_ENERGY>
77.0755

> <PUBCHEM_FEATURE_SELFOVERLAP>
76.133

> <PUBCHEM_SHAPE_FINGERPRINT>
10316853 100 18268148828178855986
11374522 301 18191612863611280907
11828532 37 17242466147087902379
13402501 40 18409171034364372403
1361 2 18267303308021228433
14068700 686 18339638950058679276
14840074 17 17918274255659646647
15537594 2 18060413633813723815
15927050 60 17475238371624767644
15968369 26 18047160017509999266
17492 89 18122623860428222678
20764821 26 18409450262925572139
21315759 227 18119802508927136814
21344244 181 17560255678013380830
21623969 137 18412545426769846918
23559900 14 17621305846317831424
3178227 256 18339089314323891105
3737641 26 18270968942233137867
437795 96 18262805206548999075
445580 102 18196089949924809071
46194498 28 17894911883816265461
463206 1 18341610481791968295
5309563 4 18412829062489575895
5912855 24 18127982914018896400
6376802 90 17754158804798322172
86090 222 18343020029591090442

> <PUBCHEM_SHAPE_MULTIPOLES>
603.41
13.09
6.49
1.27
12.14
2.28
0.02
5.27
1.39
-2.72
-0.09
0.19
-0.32
1.52

> <PUBCHEM_SHAPE_SELFOVERLAP>
1287.247

> <PUBCHEM_SHAPE_VOLUME>
329.4

> <PUBCHEM_COORDINATE_TYPE>
2
5
10

$$$$
