28990957
  -OEChem-12032416163D

 64 68  0     1  0  0  0  0  0999 V2000
    4.6381   -4.2669   -0.5304 S   0  0  0  0  0  0  0  0  0  0  0  0
    1.5190    3.6395   -0.5258 N   0  0  2  0  0  0  0  0  0  0  0  0
    4.7843    0.1825   -0.3432 N   0  0  0  0  0  0  0  0  0  0  0  0
   -1.7006    1.6625   -0.4937 N   0  0  0  0  0  0  0  0  0  0  0  0
    4.9418   -1.1449   -0.4826 N   0  0  0  0  0  0  0  0  0  0  0  0
   -7.2665   -1.2841    0.6070 N   0  0  0  0  0  0  0  0  0  0  0  0
    2.2042    2.2941    1.5963 C   0  0  2  0  0  0  0  0  0  0  0  0
    3.1758    1.9902    0.4225 C   0  0  2  0  0  0  0  0  0  0  0  0
    0.3363    2.9312    0.0308 C   0  0  2  0  0  0  0  0  0  0  0  0
    0.7601    1.9681    1.1605 C   0  0  0  0  0  0  0  0  0  0  0  0
    2.2700    3.8162    1.8460 C   0  0  0  0  0  0  0  0  0  0  0  0
    2.5894    2.6640   -0.8509 C   0  0  0  0  0  0  0  0  0  0  0  0
    2.0317    4.5579    0.5190 C   0  0  0  0  0  0  0  0  0  0  0  0
   -0.4783    2.2182   -1.0507 C   0  0  0  0  0  0  0  0  0  0  0  0
    3.5760    0.5423    0.1774 C   0  0  0  0  0  0  0  0  0  0  0  0
    2.8956   -0.6312    0.3931 C   0  0  0  0  0  0  0  0  0  0  0  0
    3.7849   -1.6366   -0.0312 C   0  0  0  0  0  0  0  0  0  0  0  0
   -2.4764    0.9731   -1.5174 C   0  0  0  0  0  0  0  0  0  0  0  0
    5.8578    1.0651   -0.7372 C   0  0  0  0  0  0  0  0  0  0  0  0
    3.5174   -3.0858   -0.0003 C   0  0  0  0  0  0  0  0  0  0  0  0
   -3.7404    0.3775   -0.9567 C   0  0  0  0  0  0  0  0  0  0  0  0
    2.3462   -3.6514    0.4540 C   0  0  0  0  0  0  0  0  0  0  0  0
   -3.6845   -0.7947   -0.2026 C   0  0  0  0  0  0  0  0  0  0  0  0
   -4.9675    0.9979   -1.1912 C   0  0  0  0  0  0  0  0  0  0  0  0
    2.3696   -5.0733    0.3659 C   0  0  0  0  0  0  0  0  0  0  0  0
    3.5574   -5.5402   -0.1524 C   0  0  0  0  0  0  0  0  0  0  0  0
   -4.8554   -1.3465    0.3167 C   0  0  0  0  0  0  0  0  0  0  0  0
   -6.1386    0.4461   -0.6719 C   0  0  0  0  0  0  0  0  0  0  0  0
   -6.0825   -0.7261    0.0819 C   0  0  0  0  0  0  0  0  0  0  0  0
   -7.2191   -2.5017    1.3917 C   0  0  0  0  0  0  0  0  0  0  0  0
   -8.5458   -0.6429    0.3753 C   0  0  0  0  0  0  0  0  0  0  0  0
    2.4751    1.7368    2.4992 H   0  0  0  0  0  0  0  0  0  0  0  0
    4.1076    2.5192    0.6732 H   0  0  0  0  0  0  0  0  0  0  0  0
   -0.3277    3.6958    0.4617 H   0  0  0  0  0  0  0  0  0  0  0  0
    0.6648    0.9260    0.8532 H   0  0  0  0  0  0  0  0  0  0  0  0
    0.0870    2.1021    2.0171 H   0  0  0  0  0  0  0  0  0  0  0  0
    3.2466    4.0951    2.2584 H   0  0  0  0  0  0  0  0  0  0  0  0
    1.5116    4.1061    2.5835 H   0  0  0  0  0  0  0  0  0  0  0  0
    3.3945    3.1902   -1.3806 H   0  0  0  0  0  0  0  0  0  0  0  0
    2.2253    1.9211   -1.5697 H   0  0  0  0  0  0  0  0  0  0  0  0
    1.3242    5.3817    0.6745 H   0  0  0  0  0  0  0  0  0  0  0  0
    2.9609    5.0302    0.1753 H   0  0  0  0  0  0  0  0  0  0  0  0
    0.1100    1.4127   -1.5047 H   0  0  0  0  0  0  0  0  0  0  0  0
   -0.7237    2.9342   -1.8458 H   0  0  0  0  0  0  0  0  0  0  0  0
    1.9077   -0.7523    0.8076 H   0  0  0  0  0  0  0  0  0  0  0  0
   -2.2601    2.4120   -0.0865 H   0  0  0  0  0  0  0  0  0  0  0  0
   -1.8858    0.1633   -1.9656 H   0  0  0  0  0  0  0  0  0  0  0  0
   -2.7265    1.6618   -2.3347 H   0  0  0  0  0  0  0  0  0  0  0  0
    6.6504    0.4828   -1.2152 H   0  0  0  0  0  0  0  0  0  0  0  0
    5.4687    1.7986   -1.4466 H   0  0  0  0  0  0  0  0  0  0  0  0
    6.2492    1.5541    0.1580 H   0  0  0  0  0  0  0  0  0  0  0  0
    1.4989   -3.0959    0.8357 H   0  0  0  0  0  0  0  0  0  0  0  0
   -2.7339   -1.2868   -0.0138 H   0  0  0  0  0  0  0  0  0  0  0  0
   -5.0250    1.9127   -1.7752 H   0  0  0  0  0  0  0  0  0  0  0  0
    1.5565   -5.7208    0.6673 H   0  0  0  0  0  0  0  0  0  0  0  0
    3.8422   -6.5682   -0.3273 H   0  0  0  0  0  0  0  0  0  0  0  0
   -4.7590   -2.2590    0.8966 H   0  0  0  0  0  0  0  0  0  0  0  0
   -7.0678    0.9665   -0.8820 H   0  0  0  0  0  0  0  0  0  0  0  0
   -8.2171   -2.8082    1.7246 H   0  0  0  0  0  0  0  0  0  0  0  0
   -6.6171   -2.3659    2.2971 H   0  0  0  0  0  0  0  0  0  0  0  0
   -6.8177   -3.3356    0.8050 H   0  0  0  0  0  0  0  0  0  0  0  0
   -9.3665   -1.1943    0.8478 H   0  0  0  0  0  0  0  0  0  0  0  0
   -8.7775   -0.5969   -0.6946 H   0  0  0  0  0  0  0  0  0  0  0  0
   -8.5649    0.3672    0.7994 H   0  0  0  0  0  0  0  0  0  0  0  0
  1 20  1  0  0  0  0
  1 26  1  0  0  0  0
  2  9  1  0  0  0  0
  2 12  1  0  0  0  0
  2 13  1  0  0  0  0
  3  5  1  0  0  0  0
  3 15  1  0  0  0  0
  3 19  1  0  0  0  0
  4 14  1  0  0  0  0
  4 18  1  0  0  0  0
  4 46  1  0  0  0  0
  5 17  2  0  0  0  0
  6 29  1  0  0  0  0
  6 30  1  0  0  0  0
  6 31  1  0  0  0  0
  7  8  1  0  0  0  0
  7 10  1  0  0  0  0
  7 11  1  0  0  0  0
  7 32  1  0  0  0  0
  8 12  1  0  0  0  0
  8 15  1  0  0  0  0
  8 33  1  0  0  0  0
  9 10  1  0  0  0  0
  9 14  1  0  0  0  0
  9 34  1  0  0  0  0
 10 35  1  0  0  0  0
 10 36  1  0  0  0  0
 11 13  1  0  0  0  0
 11 37  1  0  0  0  0
 11 38  1  0  0  0  0
 12 39  1  0  0  0  0
 12 40  1  0  0  0  0
 13 41  1  0  0  0  0
 13 42  1  0  0  0  0
 14 43  1  0  0  0  0
 14 44  1  0  0  0  0
 15 16  2  0  0  0  0
 16 17  1  0  0  0  0
 16 45  1  0  0  0  0
 17 20  1  0  0  0  0
 18 21  1  0  0  0  0
 18 47  1  0  0  0  0
 18 48  1  0  0  0  0
 19 49  1  0  0  0  0
 19 50  1  0  0  0  0
 19 51  1  0  0  0  0
 20 22  2  0  0  0  0
 21 23  2  0  0  0  0
 21 24  1  0  0  0  0
 22 25  1  0  0  0  0
 22 52  1  0  0  0  0
 23 27  1  0  0  0  0
 23 53  1  0  0  0  0
 24 28  2  0  0  0  0
 24 54  1  0  0  0  0
 25 26  2  0  0  0  0
 25 55  1  0  0  0  0
 26 56  1  0  0  0  0
 27 29  2  0  0  0  0
 27 57  1  0  0  0  0
 28 29  1  0  0  0  0
 28 58  1  0  0  0  0
 30 59  1  0  0  0  0
 30 60  1  0  0  0  0
 30 61  1  0  0  0  0
 31 62  1  0  0  0  0
 31 63  1  0  0  0  0
 31 64  1  0  0  0  0
M  END
> <PUBCHEM_COMPOUND_CID>
28990957

> <PUBCHEM_CONFORMER_RMSD>
1

> <PUBCHEM_CONFORMER_DIVERSEORDER>
1
16
41
60
22
2
24
32
3
33
54
46
19
12
29
58
10
56
8
17
50
11
47
49
13
18
43
7
27
45
25
52
23
35
30
26
38
48
51
59
21
28
31
9
37
39
42
14
44
40
53
55
6
15
4
57
36
20
61
34
5

> <PUBCHEM_MMFF94_PARTIAL_CHARGES>
37
1 -0.08
12 0.27
13 0.27
14 0.27
15 -0.33
16 -0.15
17 0.29
18 0.41
19 0.26
2 -0.81
20 0.04
21 -0.14
22 -0.15
23 -0.15
24 -0.15
25 -0.15
26 -0.11
27 -0.15
28 -0.15
29 0.1
3 0.31
30 0.37
31 0.37
4 -0.9
45 0.15
46 0.36
5 -0.71
52 0.15
53 0.15
54 0.15
55 0.15
56 0.15
57 0.15
58 0.15
6 -0.84
8 0.18
9 0.27

> <PUBCHEM_EFFECTIVE_ROTOR_COUNT>
8.2

> <PUBCHEM_PHARMACOPHORE_FEATURES>
9
1 2 cation
1 4 cation
1 4 donor
1 5 acceptor
1 6 cation
5 1 20 22 25 26 rings
5 3 5 15 16 17 rings
6 21 23 24 27 28 29 rings
8 2 7 8 9 10 11 12 13 rings

> <PUBCHEM_HEAVY_ATOM_COUNT>
31

> <PUBCHEM_ATOM_DEF_STEREO_COUNT>
3

> <PUBCHEM_ATOM_UDEF_STEREO_COUNT>
0

> <PUBCHEM_BOND_DEF_STEREO_COUNT>
0

> <PUBCHEM_BOND_UDEF_STEREO_COUNT>
0

> <PUBCHEM_ISOTOPIC_ATOM_COUNT>
0

> <PUBCHEM_COMPONENT_COUNT>
1

> <PUBCHEM_CACTVS_TAUTO_COUNT>
1

> <PUBCHEM_CONFORMER_ID>
01BA5DED00000001

> <PUBCHEM_MMFF94_ENERGY>
79.9582

> <PUBCHEM_FEATURE_SELFOVERLAP>
45.672

> <PUBCHEM_SHAPE_FINGERPRINT>
10316853 100 18261113036082188387
10319688 140 18409167727270793812
10533779 47 18261970600752057683
10669705 251 17898582123146090355
10838868 229 18335707105774490899
11014199 57 17834675998851565550
11285246 1 17683247958633319530
11374522 301 18190483652121025315
117089 54 18196093248454580143
11828042 200 17836097671714182830
12107183 9 18128263273079570201
12128747 34 18334854996699129277
12522641 24 18200878482799840569
13402501 40 18261391173774214907
13533116 47 18342458201099159617
1361 2 18410011073953521187
13631057 29 18125158231046851534
13955234 65 18271237347646310673
13989917 61 18408889568268201395
14429380 30 18050562937907074694
14866123 147 17621876487935934521
15400415 2 17906449179992115741
15475509 35 18410856585816054821
15803439 3 17319338502437873060
17492 89 18050843313456163926
17909252 39 18410290306957349073
19301676 85 17618488897395835079
20775530 9 18126551324568092446
21716022 299 18263662688247717980
22033318 11 17772494330065592017
23466295 7 17691965956370477468
23559900 14 18261385668201642077
24893989 43 16953951053264206027
2835820 90 17750254611318517107
3178227 256 18341048618491386512
345986 75 17703785873482547385
3737641 26 18339642227017908292
404807 14 18122068594498419827
404807 78 17896053194318966610
4144715 1 18261397715958849275
437795 96 18044386152154860387
4435113 14 17822868592615454243
46194498 28 17822289115132207148
4756261 7 17827885514318867186
5309563 4 18268710519817616542
57676310 1 17977396254649593091
5912855 24 18055357938254189752
613672 6 17905857346192906278
6422251 121 18262234400852154875
6441014 3 17978224959561265955
6700243 42 17168414961920794565
86090 222 18113901576181633147
9831232 110 18334295392588398607

> <PUBCHEM_SHAPE_MULTIPOLES>
616.91
18.12
7.3
1.25
42.87
5.71
0.19
14.12
0.85
-13.32
1.4
0.47
-0.79
2.54

> <PUBCHEM_SHAPE_SELFOVERLAP>
1312.048

> <PUBCHEM_SHAPE_VOLUME>
348.5

> <PUBCHEM_COORDINATE_TYPE>
2
5
10

$$$$
