75537076
  -OEChem-12032416333D

 43 46  0     1  0  0  0  0  0999 V2000
    1.3671    2.7230    0.4722 O   0  0  0  0  0  0  0  0  0  0  0  0
   -3.0123    0.1613    0.3245 N   0  0  2  0  0  0  0  0  0  0  0  0
   -0.5772    1.5158   -0.0583 N   0  0  0  0  0  0  0  0  0  0  0  0
    1.3570    0.8903   -1.0129 N   0  0  0  0  0  0  0  0  0  0  0  0
    3.8004   -1.3724   -0.9832 N   0  0  0  0  0  0  0  0  0  0  0  0
   -4.8043   -1.4405   -0.1047 C   0  0  0  0  0  0  0  0  0  0  0  0
   -5.9974   -0.7052   -0.6495 C   0  0  0  0  0  0  0  0  0  0  0  0
   -6.1937   -1.8928    0.2508 C   0  0  0  0  0  0  0  0  0  0  0  0
   -3.9337   -0.8012    0.9279 C   0  0  0  0  0  0  0  0  0  0  0  0
   -0.9518    0.4691   -0.9860 C   0  0  2  0  0  0  0  0  0  0  0  0
   -1.8749   -0.5405   -0.3043 C   0  0  0  0  0  0  0  0  0  0  0  0
   -2.5404    1.1265    1.3380 C   0  0  0  0  0  0  0  0  0  0  0  0
   -1.6049    2.1709    0.7238 C   0  0  0  0  0  0  0  0  0  0  0  0
    0.3874   -0.0984   -1.4522 C   0  0  0  0  0  0  0  0  0  0  0  0
    0.7875    1.8266   -0.1266 C   0  0  0  0  0  0  0  0  0  0  0  0
    2.7596    0.7915   -1.3514 C   0  0  0  0  0  0  0  0  0  0  0  0
    3.4877   -0.1680   -0.4551 C   0  0  0  0  0  0  0  0  0  0  0  0
    3.7988    0.2158    0.8395 C   0  0  0  0  0  0  0  0  0  0  0  0
    4.4745   -0.6954    1.6436 C   0  0  0  0  0  0  0  0  0  0  0  0
    4.4570   -2.2318   -0.1719 C   0  0  0  0  0  0  0  0  0  0  0  0
    4.8136   -1.9446    1.1359 C   0  0  0  0  0  0  0  0  0  0  0  0
   -4.2566   -2.0891   -0.7783 H   0  0  0  0  0  0  0  0  0  0  0  0
   -6.2249   -0.8259   -1.7016 H   0  0  0  0  0  0  0  0  0  0  0  0
   -6.2331    0.2732   -0.2493 H   0  0  0  0  0  0  0  0  0  0  0  0
   -6.5609   -1.7096    1.2530 H   0  0  0  0  0  0  0  0  0  0  0  0
   -6.5559   -2.8099   -0.1977 H   0  0  0  0  0  0  0  0  0  0  0  0
   -3.4005   -1.5713    1.5001 H   0  0  0  0  0  0  0  0  0  0  0  0
   -4.5836   -0.2862    1.6483 H   0  0  0  0  0  0  0  0  0  0  0  0
   -1.4671    0.9541   -1.8255 H   0  0  0  0  0  0  0  0  0  0  0  0
   -2.2172   -1.2504   -1.0649 H   0  0  0  0  0  0  0  0  0  0  0  0
   -1.3193   -1.1115    0.4521 H   0  0  0  0  0  0  0  0  0  0  0  0
   -3.3910    1.6536    1.7864 H   0  0  0  0  0  0  0  0  0  0  0  0
   -2.0164    0.5980    2.1457 H   0  0  0  0  0  0  0  0  0  0  0  0
   -2.1574    2.8320    0.0462 H   0  0  0  0  0  0  0  0  0  0  0  0
   -1.1391    2.7901    1.4969 H   0  0  0  0  0  0  0  0  0  0  0  0
    0.6283   -1.0555   -0.9783 H   0  0  0  0  0  0  0  0  0  0  0  0
    0.4296   -0.2080   -2.5400 H   0  0  0  0  0  0  0  0  0  0  0  0
    3.2156    1.7845   -1.2611 H   0  0  0  0  0  0  0  0  0  0  0  0
    2.8423    0.4878   -2.4010 H   0  0  0  0  0  0  0  0  0  0  0  0
    3.5383    1.1937    1.2282 H   0  0  0  0  0  0  0  0  0  0  0  0
    4.7378   -0.4319    2.6636 H   0  0  0  0  0  0  0  0  0  0  0  0
    4.6983   -3.1922   -0.6153 H   0  0  0  0  0  0  0  0  0  0  0  0
    5.3406   -2.6704    1.7445 H   0  0  0  0  0  0  0  0  0  0  0  0
  1 15  2  0  0  0  0
  2  9  1  0  0  0  0
  2 11  1  0  0  0  0
  2 12  1  0  0  0  0
  3 10  1  0  0  0  0
  3 13  1  0  0  0  0
  3 15  1  0  0  0  0
  4 14  1  0  0  0  0
  4 15  1  0  0  0  0
  4 16  1  0  0  0  0
  5 17  1  0  0  0  0
  5 20  2  0  0  0  0
  6  7  1  0  0  0  0
  6  8  1  0  0  0  0
  6  9  1  0  0  0  0
  6 22  1  0  0  0  0
  7  8  1  0  0  0  0
  7 23  1  0  0  0  0
  7 24  1  0  0  0  0
  8 25  1  0  0  0  0
  8 26  1  0  0  0  0
  9 27  1  0  0  0  0
  9 28  1  0  0  0  0
 10 11  1  0  0  0  0
 10 14  1  0  0  0  0
 10 29  1  0  0  0  0
 11 30  1  0  0  0  0
 11 31  1  0  0  0  0
 12 13  1  0  0  0  0
 12 32  1  0  0  0  0
 12 33  1  0  0  0  0
 13 34  1  0  0  0  0
 13 35  1  0  0  0  0
 14 36  1  0  0  0  0
 14 37  1  0  0  0  0
 16 17  1  0  0  0  0
 16 38  1  0  0  0  0
 16 39  1  0  0  0  0
 17 18  2  0  0  0  0
 18 19  1  0  0  0  0
 18 40  1  0  0  0  0
 19 21  2  0  0  0  0
 19 41  1  0  0  0  0
 20 21  1  0  0  0  0
 20 42  1  0  0  0  0
 21 43  1  0  0  0  0
M  END
> <PUBCHEM_COMPOUND_CID>
75537076

> <PUBCHEM_CONFORMER_RMSD>
0.8

> <PUBCHEM_CONFORMER_DIVERSEORDER>
1
39
8
54
16
46
58
38
20
42
64
30
59
53
41
12
29
52
34
60
47
13
3
26
5
33
43
56
36
15
32
40
7
35
11
63
28
17
50
45
61
10
55
57
51
23
19
4
48
21
24
49
18
22
62
2
37
9
27
6
31
25
14
44

> <PUBCHEM_MMFF94_PARTIAL_CHARGES>
30
1 -0.57
10 0.3
11 0.27
12 0.27
13 0.3
14 0.3
15 0.69
16 0.44
17 0.17
18 -0.15
19 -0.15
2 -0.81
20 0.16
21 -0.15
22 0.1
23 0.1
24 0.1
25 0.1
26 0.1
3 -0.66
4 -0.66
40 0.15
41 0.15
42 0.15
43 0.15
5 -0.62
6 -0.19
7 -0.2
8 -0.2
9 0.37

> <PUBCHEM_EFFECTIVE_ROTOR_COUNT>
5.8

> <PUBCHEM_PHARMACOPHORE_FEATURES>
6
1 1 acceptor
1 2 cation
1 5 acceptor
5 3 4 10 14 15 rings
6 2 3 10 11 12 13 rings
6 5 17 18 19 20 21 rings

> <PUBCHEM_HEAVY_ATOM_COUNT>
21

> <PUBCHEM_ATOM_DEF_STEREO_COUNT>
1

> <PUBCHEM_ATOM_UDEF_STEREO_COUNT>
0

> <PUBCHEM_BOND_DEF_STEREO_COUNT>
0

> <PUBCHEM_BOND_UDEF_STEREO_COUNT>
0

> <PUBCHEM_ISOTOPIC_ATOM_COUNT>
0

> <PUBCHEM_COMPONENT_COUNT>
1

> <PUBCHEM_CACTVS_TAUTO_COUNT>
1

> <PUBCHEM_CONFORMER_ID>
04809AB400000001

> <PUBCHEM_MMFF94_ENERGY>
50.5311

> <PUBCHEM_FEATURE_SELFOVERLAP>
30.542

> <PUBCHEM_SHAPE_FINGERPRINT>
10447042 23 18409445916338949918
10753850 27 18333449859398630411
11796584 16 17821727273522635531
12596602 18 17917711284141939050
12839892 36 17846782892951636407
12892183 10 17560517301096918810
12895836 83 8718532926692925402
13533116 47 18409449227843130963
13782708 43 18042125526678941579
13955234 65 18048886487395757297
14178342 30 17773332148771772553
1420 369 18410013225642231666
14251740 57 18272940384300368678
14251752 14 18040713637710192621
14251764 75 13109526135441099882
14429115 67 18409167705532375475
14528608 73 8574713490328822547
14848178 5 18261109673149292859
15163728 17 10087631646094067264
15183329 4 17023177211428442583
15188451 53 18411692158412511698
15342168 16 10375875169040289057
15475509 8 15574988430487686407
17349148 13 18336557057488509303
17857418 61 18409729586476711975
17862501 102 18343589546876333655
17959699 21 8430598319042348338
1813 80 18113621179236088140
18186145 218 11675175730663934148
18222031 100 18272941526244100540
193927 3 18114190704784608130
19784866 240 18040997323608675343
1979834 28 17561376083934579351
20028762 73 18272652363472141943
20369508 70 18339083799269644605
20567600 234 15482665823363374059
20626108 58 18113335289164976068
20645477 70 17530683234072053654
20775530 9 16736918096343159050
21033648 29 15913334537394445376
22079108 93 13830129503475411455
23227448 37 9943512021190205331
23253445 4 15769779078526534555
23559900 14 18042974361627551469
270888 7 11311757506757851954
2838139 119 11311770644846266234
3004659 81 18040719177342571030
4072396 5 17988928885956398103
4325135 7 12895065241623438309
4463277 69 17821731636945371686
465052 167 18411987995981438895
474 4 11959731572882612566
5104073 3 17987531462839111235
59682541 52 15647319854302535523
76465 3 18408888434100546073
7970288 3 18262798458928529842
8988823 20 18341325703473424389
960060 61 16081092580032440302
9841814 1 18200604707898215964

> <PUBCHEM_SHAPE_MULTIPOLES>
406.38
13.01
2.4
1.37
9.73
0.43
-0.06
-11.35
-2.14
-0.64
-0.45
-0.9
0.03
-0.75

> <PUBCHEM_SHAPE_SELFOVERLAP>
858.792

> <PUBCHEM_SHAPE_VOLUME>
229

> <PUBCHEM_COORDINATE_TYPE>
2
5
10

$$$$
