51137592
  -OEChem-12032416233D

 46 49  0     1  0  0  0  0  0999 V2000
   -5.3839   -2.3576   -1.4651 Cl  0  0  0  0  0  0  0  0  0  0  0  0
    9.5022   -1.2343    0.1084 F   0  0  0  0  0  0  0  0  0  0  0  0
    1.2900    0.0444   -0.3467 O   0  0  0  0  0  0  0  0  0  0  0  0
    4.2110    0.2255    0.3817 O   0  0  0  0  0  0  0  0  0  0  0  0
   -3.4392    0.0865   -0.1466 N   0  0  1  0  0  0  0  0  0  0  0  0
    0.3472    2.0730   -0.3412 N   0  0  0  0  0  0  0  0  0  0  0  0
    1.6919    2.2278   -0.6218 N   0  0  0  0  0  0  0  0  0  0  0  0
   -1.1113    0.0270    0.1299 C   0  0  1  0  0  0  0  0  0  0  0  0
   -1.7780    0.4144    1.4613 C   0  0  0  0  0  0  0  0  0  0  0  0
   -2.2071    0.2262   -0.9258 C   0  0  0  0  0  0  0  0  0  0  0  0
   -3.1930    0.8352    1.0857 C   0  0  0  0  0  0  0  0  0  0  0  0
   -4.6085    0.5711   -0.8652 C   0  0  0  0  0  0  0  0  0  0  0  0
    0.1579    0.7832   -0.1884 C   0  0  0  0  0  0  0  0  0  0  0  0
   -5.8885    0.0417   -0.2749 C   0  0  0  0  0  0  0  0  0  0  0  0
    2.2021    1.0184   -0.6145 C   0  0  0  0  0  0  0  0  0  0  0  0
   -6.3103   -1.2690   -0.4976 C   0  0  0  0  0  0  0  0  0  0  0  0
   -6.6587    0.8982    0.5117 C   0  0  0  0  0  0  0  0  0  0  0  0
    3.5846    0.5850   -0.8526 C   0  0  0  0  0  0  0  0  0  0  0  0
   -7.5025   -1.7233    0.0663 C   0  0  0  0  0  0  0  0  0  0  0  0
   -7.8510    0.4439    1.0756 C   0  0  0  0  0  0  0  0  0  0  0  0
   -8.2728   -0.8669    0.8529 C   0  0  0  0  0  0  0  0  0  0  0  0
    5.5270   -0.1371    0.3141 C   0  0  0  0  0  0  0  0  0  0  0  0
    6.1862   -0.1423   -0.9152 C   0  0  0  0  0  0  0  0  0  0  0  0
    6.2104   -0.5030    1.4737 C   0  0  0  0  0  0  0  0  0  0  0  0
    7.5289   -0.5137   -0.9848 C   0  0  0  0  0  0  0  0  0  0  0  0
    7.5531   -0.8743    1.4041 C   0  0  0  0  0  0  0  0  0  0  0  0
    8.2123   -0.8798    0.1749 C   0  0  0  0  0  0  0  0  0  0  0  0
   -0.8651   -1.0432    0.1812 H   0  0  0  0  0  0  0  0  0  0  0  0
   -1.8083   -0.4616    2.1213 H   0  0  0  0  0  0  0  0  0  0  0  0
   -1.2524    1.2141    1.9939 H   0  0  0  0  0  0  0  0  0  0  0  0
   -2.1389   -0.5289   -1.7165 H   0  0  0  0  0  0  0  0  0  0  0  0
   -2.1374    1.2186   -1.3909 H   0  0  0  0  0  0  0  0  0  0  0  0
   -3.9007    0.5826    1.8814 H   0  0  0  0  0  0  0  0  0  0  0  0
   -3.2219    1.9200    0.9207 H   0  0  0  0  0  0  0  0  0  0  0  0
   -4.6268    1.6691   -0.9109 H   0  0  0  0  0  0  0  0  0  0  0  0
   -4.5695    0.2617   -1.9186 H   0  0  0  0  0  0  0  0  0  0  0  0
   -6.3435    1.9217    0.6967 H   0  0  0  0  0  0  0  0  0  0  0  0
    4.1125    1.4277   -1.3166 H   0  0  0  0  0  0  0  0  0  0  0  0
    3.5662   -0.2741   -1.5349 H   0  0  0  0  0  0  0  0  0  0  0  0
   -7.8452   -2.7419   -0.0975 H   0  0  0  0  0  0  0  0  0  0  0  0
   -8.4506    1.1104    1.6886 H   0  0  0  0  0  0  0  0  0  0  0  0
   -9.2010   -1.2205    1.2922 H   0  0  0  0  0  0  0  0  0  0  0  0
    5.7209    0.1233   -1.8579 H   0  0  0  0  0  0  0  0  0  0  0  0
    5.7019   -0.5009    2.4339 H   0  0  0  0  0  0  0  0  0  0  0  0
    8.0435   -0.5193   -1.9413 H   0  0  0  0  0  0  0  0  0  0  0  0
    8.0856   -1.1590    2.3067 H   0  0  0  0  0  0  0  0  0  0  0  0
  1 16  1  0  0  0  0
  2 27  1  0  0  0  0
  3 13  1  0  0  0  0
  3 15  1  0  0  0  0
  4 18  1  0  0  0  0
  4 22  1  0  0  0  0
  5 10  1  0  0  0  0
  5 11  1  0  0  0  0
  5 12  1  0  0  0  0
  6  7  1  0  0  0  0
  6 13  2  0  0  0  0
  7 15  2  0  0  0  0
  8  9  1  0  0  0  0
  8 10  1  0  0  0  0
  8 13  1  0  0  0  0
  8 28  1  0  0  0  0
  9 11  1  0  0  0  0
  9 29  1  0  0  0  0
  9 30  1  0  0  0  0
 10 31  1  0  0  0  0
 10 32  1  0  0  0  0
 11 33  1  0  0  0  0
 11 34  1  0  0  0  0
 12 14  1  0  0  0  0
 12 35  1  0  0  0  0
 12 36  1  0  0  0  0
 14 16  1  0  0  0  0
 14 17  2  0  0  0  0
 15 18  1  0  0  0  0
 16 19  2  0  0  0  0
 17 20  1  0  0  0  0
 17 37  1  0  0  0  0
 18 38  1  0  0  0  0
 18 39  1  0  0  0  0
 19 21  1  0  0  0  0
 19 40  1  0  0  0  0
 20 21  2  0  0  0  0
 20 41  1  0  0  0  0
 21 42  1  0  0  0  0
 22 23  2  0  0  0  0
 22 24  1  0  0  0  0
 23 25  1  0  0  0  0
 23 43  1  0  0  0  0
 24 26  2  0  0  0  0
 24 44  1  0  0  0  0
 25 27  2  0  0  0  0
 25 45  1  0  0  0  0
 26 27  1  0  0  0  0
 26 46  1  0  0  0  0
M  END
> <PUBCHEM_COMPOUND_CID>
51137592

> <PUBCHEM_CONFORMER_RMSD>
1.4

> <PUBCHEM_CONFORMER_DIVERSEORDER>
1
28
11
53
2
24
44
7
60
33
6
46
20
55
37
56
16
9
31
52
13
35
40
65
58
36
50
25
12
34
38
64
63
27
32
14
39
41
54
23
49
29
30
10
21
3
15
22
62
42
43
18
5
59
45
4
51
61
47
48
57
19
17
26
8

> <PUBCHEM_MMFF94_PARTIAL_CHARGES>
34
1 -0.18
10 0.27
11 0.27
12 0.41
13 0.3
14 -0.14
15 0.3
16 0.18
17 -0.15
18 0.46
19 -0.15
2 -0.19
20 -0.15
21 -0.15
22 0.08
23 -0.15
24 -0.15
25 -0.15
26 -0.15
27 0.19
3 -0.28
37 0.15
4 -0.36
40 0.15
41 0.15
42 0.15
43 0.15
44 0.15
45 0.15
46 0.15
5 -0.81
6 -0.34
7 -0.34
8 0.18

> <PUBCHEM_EFFECTIVE_ROTOR_COUNT>
7

> <PUBCHEM_PHARMACOPHORE_FEATURES>
6
1 4 acceptor
1 5 cation
5 3 6 7 13 15 rings
5 5 8 9 10 11 rings
6 14 16 17 19 20 21 rings
6 22 23 24 25 26 27 rings

> <PUBCHEM_HEAVY_ATOM_COUNT>
27

> <PUBCHEM_ATOM_DEF_STEREO_COUNT>
1

> <PUBCHEM_ATOM_UDEF_STEREO_COUNT>
0

> <PUBCHEM_BOND_DEF_STEREO_COUNT>
0

> <PUBCHEM_BOND_UDEF_STEREO_COUNT>
0

> <PUBCHEM_ISOTOPIC_ATOM_COUNT>
0

> <PUBCHEM_COMPONENT_COUNT>
1

> <PUBCHEM_CACTVS_TAUTO_COUNT>
1

> <PUBCHEM_CONFORMER_ID>
030C4C3800000001

> <PUBCHEM_MMFF94_ENERGY>
62.4705

> <PUBCHEM_FEATURE_SELFOVERLAP>
30.448

> <PUBCHEM_SHAPE_FINGERPRINT>
10 15 15195567905111449192
10066227 49 16805595928838646082
10076449 9 17167863062522677165
10299344 5 17967251992112157966
10533779 47 16415494735126873758
106641 1 17989202660378545680
10670039 82 15357688674630095621
10835480 77 16009042721958476772
10904742 90 8502655900491306504
11135926 11 18130500869230387255
11386260 185 15502378979869413990
11638347 137 17275107202731161374
11991303 11 15502945237443642227
12082328 90 16588019092024828839
12166972 35 18335140929462249749
12592606 108 18040436598606575754
12645989 146 17748828548862868677
13553643 46 14764628598976232218
13668630 136 18409167701638101166
13673619 4 17894627058680687292
13685833 64 18334294275369588460
14068700 675 18409732858841618564
14251764 18 17603868896711538312
14251764 46 17703791409573831737
15021287 119 18335144224260873981
15152005 1 14566231772933335337
15183329 4 15936404529134143824
15198563 99 15285626669323671471
15419008 91 18130488774086049288
155225 1 10375870775104473026
15690457 1 18407758140779841258
17093844 174 16056880239605225367
1754908 1 17632292393371386786
1754911 235 11530481138309159707
1818759 1 18334862710123035682
19301679 30 18267585702859450998
2026 5 17532362077260587386
21095086 128 17603307081489326387
21150785 3 13767925728340042843
21267235 1 18260548922182223244
21792934 111 16917350333846461681
22224240 67 13039187000308583044
22956985 138 17906172855235289406
232437 2 18260548906067801898
23522609 53 18044124361023868733
23559900 14 16805891804524383436
23576562 1 12324540786863624875
246663 6 17894914026851347429
3383291 50 18202284731738278735
4339292 15 18200868579001414591
444769 64 18260551147713852115
445580 37 11602815788044933519
5219985 9 18187365424211803292
54039377 194 18187086183171558331
5758199 1 10592045756099035813
59682541 35 14405177391521012246
6441014 3 17619345855115649367
68570916 9 17130694166429845068
9953998 17 15913323606876717831

> <PUBCHEM_SHAPE_MULTIPOLES>
523.56
30.72
1.61
1.28
23.69
0.28
-0.22
14.45
-6.51
-1.82
0.4
0.46
0.08
-1.46

> <PUBCHEM_SHAPE_SELFOVERLAP>
1123.246

> <PUBCHEM_SHAPE_VOLUME>
291.4

> <PUBCHEM_COORDINATE_TYPE>
2
5
10

$$$$
