45784031
  -OEChem-12032416223D

 45 49  0     1  0  0  0  0  0999 V2000
   -3.3200    0.0909    0.1197 S   0  0  0  0  0  0  0  0  0  0  0  0
   -4.3878    0.1470   -0.8643 O   0  0  0  0  0  0  0  0  0  0  0  0
   -3.5885   -0.3969    1.4620 O   0  0  0  0  0  0  0  0  0  0  0  0
   -2.5831    1.6130    0.2241 N   0  0  1  0  0  0  0  0  0  0  0  0
    1.8463    1.8343    1.1891 N   0  0  0  0  0  0  0  0  0  0  0  0
    1.0210    1.2989   -0.8040 N   0  0  0  0  0  0  0  0  0  0  0  0
   -1.2173   -1.4020    1.6157 N   0  0  0  0  0  0  0  0  0  0  0  0
   -0.4703    2.6883    0.7021 C   0  0  2  0  0  0  0  0  0  0  0  0
   -1.6135    1.8723    1.3285 C   0  0  0  0  0  0  0  0  0  0  0  0
   -1.1339    3.3250   -0.5209 C   0  0  0  0  0  0  0  0  0  0  0  0
   -2.0840    2.2461   -1.0203 C   0  0  0  0  0  0  0  0  0  0  0  0
    0.7899    1.9282    0.3264 C   0  0  0  0  0  0  0  0  0  0  0  0
   -2.0078   -0.8603   -0.5551 C   0  0  0  0  0  0  0  0  0  0  0  0
    2.8244    1.0954    0.5745 C   0  0  0  0  0  0  0  0  0  0  0  0
    2.2853    0.7731   -0.6680 C   0  0  0  0  0  0  0  0  0  0  0  0
   -1.0976   -1.5042    0.2785 C   0  0  0  0  0  0  0  0  0  0  0  0
   -1.9136   -0.9447   -1.9464 C   0  0  0  0  0  0  0  0  0  0  0  0
   -0.0640   -2.2541   -0.3210 C   0  0  0  0  0  0  0  0  0  0  0  0
    4.0956    0.6936    0.9862 C   0  0  0  0  0  0  0  0  0  0  0  0
    3.0457    0.0049   -1.5659 C   0  0  0  0  0  0  0  0  0  0  0  0
   -0.8934   -1.6852   -2.5300 C   0  0  0  0  0  0  0  0  0  0  0  0
    0.0307   -2.3394   -1.7204 C   0  0  0  0  0  0  0  0  0  0  0  0
    4.8384   -0.0703    0.0800 C   0  0  0  0  0  0  0  0  0  0  0  0
    4.3246   -0.4097   -1.1739 C   0  0  0  0  0  0  0  0  0  0  0  0
    0.8527   -2.9023    0.5176 C   0  0  0  0  0  0  0  0  0  0  0  0
   -0.3119   -2.0430    2.3898 C   0  0  0  0  0  0  0  0  0  0  0  0
    0.7318   -2.7988    1.8959 C   0  0  0  0  0  0  0  0  0  0  0  0
   -0.1675    3.4803    1.4000 H   0  0  0  0  0  0  0  0  0  0  0  0
   -1.2451    0.9799    1.8261 H   0  0  0  0  0  0  0  0  0  0  0  0
   -2.1384    2.4790    2.0760 H   0  0  0  0  0  0  0  0  0  0  0  0
   -0.4329    3.6530   -1.2950 H   0  0  0  0  0  0  0  0  0  0  0  0
   -1.7154    4.2005   -0.2042 H   0  0  0  0  0  0  0  0  0  0  0  0
   -2.9108    2.6812   -1.5885 H   0  0  0  0  0  0  0  0  0  0  0  0
   -1.5336    1.5592   -1.6602 H   0  0  0  0  0  0  0  0  0  0  0  0
    1.8991    2.2354    2.1161 H   0  0  0  0  0  0  0  0  0  0  0  0
   -2.6242   -0.4431   -2.5973 H   0  0  0  0  0  0  0  0  0  0  0  0
    4.4919    0.9579    1.9599 H   0  0  0  0  0  0  0  0  0  0  0  0
    2.6554   -0.2639   -2.5423 H   0  0  0  0  0  0  0  0  0  0  0  0
   -0.8159   -1.7529   -3.6108 H   0  0  0  0  0  0  0  0  0  0  0  0
    0.8265   -2.9153   -2.1875 H   0  0  0  0  0  0  0  0  0  0  0  0
    5.8344   -0.4063    0.3578 H   0  0  0  0  0  0  0  0  0  0  0  0
    4.9256   -1.0051   -1.8565 H   0  0  0  0  0  0  0  0  0  0  0  0
    1.6672   -3.4902    0.1009 H   0  0  0  0  0  0  0  0  0  0  0  0
   -0.4562   -1.9249    3.4587 H   0  0  0  0  0  0  0  0  0  0  0  0
    1.4324   -3.2924    2.5590 H   0  0  0  0  0  0  0  0  0  0  0  0
  1  2  2  0  0  0  0
  1  3  2  0  0  0  0
  1  4  1  0  0  0  0
  1 13  1  0  0  0  0
  4  9  1  0  0  0  0
  4 11  1  0  0  0  0
  5 12  1  0  0  0  0
  5 14  1  0  0  0  0
  5 35  1  0  0  0  0
  6 12  2  0  0  0  0
  6 15  1  0  0  0  0
  7 16  1  0  0  0  0
  7 26  2  0  0  0  0
  8  9  1  0  0  0  0
  8 10  1  0  0  0  0
  8 12  1  0  0  0  0
  8 28  1  0  0  0  0
  9 29  1  0  0  0  0
  9 30  1  0  0  0  0
 10 11  1  0  0  0  0
 10 31  1  0  0  0  0
 10 32  1  0  0  0  0
 11 33  1  0  0  0  0
 11 34  1  0  0  0  0
 13 16  1  0  0  0  0
 13 17  2  0  0  0  0
 14 15  1  0  0  0  0
 14 19  2  0  0  0  0
 15 20  2  0  0  0  0
 16 18  2  0  0  0  0
 17 21  1  0  0  0  0
 17 36  1  0  0  0  0
 18 22  1  0  0  0  0
 18 25  1  0  0  0  0
 19 23  1  0  0  0  0
 19 37  1  0  0  0  0
 20 24  1  0  0  0  0
 20 38  1  0  0  0  0
 21 22  2  0  0  0  0
 21 39  1  0  0  0  0
 22 40  1  0  0  0  0
 23 24  2  0  0  0  0
 23 41  1  0  0  0  0
 24 42  1  0  0  0  0
 25 27  2  0  0  0  0
 25 43  1  0  0  0  0
 26 27  1  0  0  0  0
 26 44  1  0  0  0  0
 27 45  1  0  0  0  0
M  END
> <PUBCHEM_COMPOUND_CID>
45784031

> <PUBCHEM_CONFORMER_RMSD>
0.8

> <PUBCHEM_CONFORMER_DIVERSEORDER>
1
42
22
47
20
54
25
61
59
64
14
46
50
21
10
30
49
60
56
12
35
41
66
53
2
65
16
32
40
58
55
9
13
51
44
24
36
63
37
8
43
17
31
39
11
23
48
52
62
33
15
3
26
7
5
34
6
45
28
57
29
19
27
38
18
4

> <PUBCHEM_MMFF94_PARTIAL_CHARGES>
36
1 1.45
11 0.36
12 0.01
13 -0.01
14 -0.15
15 0.23
16 0.31
17 -0.15
19 -0.15
2 -0.65
20 -0.15
21 -0.15
22 -0.15
23 -0.15
24 -0.15
25 -0.15
26 0.16
27 -0.15
3 -0.65
35 0.27
36 0.15
37 0.15
38 0.15
39 0.15
4 -0.85
40 0.15
41 0.15
42 0.15
43 0.15
44 0.15
45 0.15
5 0.03
6 -0.57
7 -0.62
8 0.18
9 0.36

> <PUBCHEM_EFFECTIVE_ROTOR_COUNT>
4

> <PUBCHEM_PHARMACOPHORE_FEATURES>
10
1 2 acceptor
1 3 acceptor
1 5 donor
1 7 acceptor
3 5 6 12 cation
5 4 8 9 10 11 rings
5 5 6 12 14 15 rings
6 13 16 17 18 21 22 rings
6 14 15 19 20 23 24 rings
6 7 16 18 25 26 27 rings

> <PUBCHEM_HEAVY_ATOM_COUNT>
27

> <PUBCHEM_ATOM_DEF_STEREO_COUNT>
1

> <PUBCHEM_ATOM_UDEF_STEREO_COUNT>
0

> <PUBCHEM_BOND_DEF_STEREO_COUNT>
0

> <PUBCHEM_BOND_UDEF_STEREO_COUNT>
0

> <PUBCHEM_ISOTOPIC_ATOM_COUNT>
0

> <PUBCHEM_COMPONENT_COUNT>
1

> <PUBCHEM_CACTVS_TAUTO_COUNT>
1

> <PUBCHEM_CONFORMER_ID>
02BA9BDF00000001

> <PUBCHEM_MMFF94_ENERGY>
56.868

> <PUBCHEM_FEATURE_SELFOVERLAP>
50.916

> <PUBCHEM_SHAPE_FINGERPRINT>
11578080 2 15696006353211996074
12035759 4 18057294324153622535
12156800 1 12703567454156438082
12422481 6 18056219984965152139
12633257 1 17972910165222787771
12788726 201 18410582786157320676
13140716 1 18267872863829679257
133893 2 17244397734833539938
14251751 93 18338232640194685308
14251757 17 17702110166654511366
16752209 62 18334850602404402536
19930381 70 17702392757816453374
20905425 154 18194404385824822061
23419403 2 16038950356396707074
3411729 13 17980782449661802081
35225 105 17751097978968995658
513532 50 17056069157592352717
59755656 215 18338798906058096613
6287921 2 16693850152266782543
81228 2 18340483482267937600

> <PUBCHEM_SHAPE_MULTIPOLES>
527.83
6.33
3.65
2.09
4.56
0.29
-0.08
1.54
-0.65
-0.94
0.64
-0.32
-1.39
0.04

> <PUBCHEM_SHAPE_SELFOVERLAP>
1170.146

> <PUBCHEM_SHAPE_VOLUME>
283.7

> <PUBCHEM_COORDINATE_TYPE>
2
5
10

$$$$
