56775191
  -OEChem-12032416403D

 38 41  0     1  0  0  0  0  0999 V2000
   -0.3476    2.9788    0.6067 O   0  0  0  0  0  0  0  0  0  0  0  0
   -3.6196    1.6552    1.1757 O   0  0  0  0  0  0  0  0  0  0  0  0
    4.0565    1.4705   -0.6297 O   0  0  0  0  0  0  0  0  0  0  0  0
    2.5359   -1.2104    0.9743 O   0  0  0  0  0  0  0  0  0  0  0  0
    1.7695    1.1142   -0.4361 N   0  0  0  0  0  0  0  0  0  0  0  0
   -1.8584    0.7407   -0.0922 N   0  0  0  0  0  0  0  0  0  0  0  0
    2.9966   -2.4839    1.2851 N   0  0  0  0  0  0  0  0  0  0  0  0
   -0.5787    1.0244   -0.7654 C   0  0  1  0  0  0  0  0  0  0  0  0
   -0.1305    2.4854   -0.7070 C   0  0  2  0  0  0  0  0  0  0  0  0
    0.6044    0.2957   -0.1117 C   0  0  0  0  0  0  0  0  0  0  0  0
    1.3686    2.4110   -0.9646 C   0  0  0  0  0  0  0  0  0  0  0  0
   -1.7268    3.0298    0.8703 C   0  0  0  0  0  0  0  0  0  0  0  0
   -2.4893    1.7261    0.6875 C   0  0  0  0  0  0  0  0  0  0  0  0
   -2.4122   -0.5966   -0.2242 C   0  0  0  0  0  0  0  0  0  0  0  0
    3.1035    0.7479   -0.3454 C   0  0  0  0  0  0  0  0  0  0  0  0
   -3.1578   -1.1484    0.8175 C   0  0  0  0  0  0  0  0  0  0  0  0
   -2.1980   -1.3280   -1.3922 C   0  0  0  0  0  0  0  0  0  0  0  0
    3.4033   -0.6173    0.1149 C   0  0  0  0  0  0  0  0  0  0  0  0
   -3.6893   -2.4319    0.6912 C   0  0  0  0  0  0  0  0  0  0  0  0
   -2.7294   -2.6115   -1.5187 C   0  0  0  0  0  0  0  0  0  0  0  0
    4.4395   -1.4711   -0.1569 C   0  0  0  0  0  0  0  0  0  0  0  0
   -3.4750   -3.1635   -0.4769 C   0  0  0  0  0  0  0  0  0  0  0  0
    4.1347   -2.6170    0.5979 C   0  0  0  0  0  0  0  0  0  0  0  0
   -0.6417    0.7673   -1.8281 H   0  0  0  0  0  0  0  0  0  0  0  0
   -0.6341    3.1319   -1.4348 H   0  0  0  0  0  0  0  0  0  0  0  0
    0.7092   -0.7175   -0.5105 H   0  0  0  0  0  0  0  0  0  0  0  0
    0.5052    0.2566    0.9792 H   0  0  0  0  0  0  0  0  0  0  0  0
    1.5934    2.4077   -2.0367 H   0  0  0  0  0  0  0  0  0  0  0  0
    1.9416    3.2040   -0.4741 H   0  0  0  0  0  0  0  0  0  0  0  0
   -2.1962    3.7945    0.2399 H   0  0  0  0  0  0  0  0  0  0  0  0
   -1.8479    3.3414    1.9132 H   0  0  0  0  0  0  0  0  0  0  0  0
   -3.3096   -0.6321    1.7600 H   0  0  0  0  0  0  0  0  0  0  0  0
   -1.6467   -0.9372   -2.2398 H   0  0  0  0  0  0  0  0  0  0  0  0
   -4.2612   -2.8661    1.5060 H   0  0  0  0  0  0  0  0  0  0  0  0
   -2.5671   -3.1800   -2.4299 H   0  0  0  0  0  0  0  0  0  0  0  0
    5.2873   -1.2952   -0.8021 H   0  0  0  0  0  0  0  0  0  0  0  0
   -3.8877   -4.1633   -0.5749 H   0  0  0  0  0  0  0  0  0  0  0  0
    4.6891   -3.5405    0.6776 H   0  0  0  0  0  0  0  0  0  0  0  0
  1  9  1  0  0  0  0
  1 12  1  0  0  0  0
  2 13  2  0  0  0  0
  3 15  2  0  0  0  0
  4  7  1  0  0  0  0
  4 18  1  0  0  0  0
  5 10  1  0  0  0  0
  5 11  1  0  0  0  0
  5 15  1  0  0  0  0
  6  8  1  0  0  0  0
  6 13  1  0  0  0  0
  6 14  1  0  0  0  0
  7 23  2  0  0  0  0
  8  9  1  0  0  0  0
  8 10  1  0  0  0  0
  8 24  1  0  0  0  0
  9 11  1  0  0  0  0
  9 25  1  0  0  0  0
 10 26  1  0  0  0  0
 10 27  1  0  0  0  0
 11 28  1  0  0  0  0
 11 29  1  0  0  0  0
 12 13  1  0  0  0  0
 12 30  1  0  0  0  0
 12 31  1  0  0  0  0
 14 16  2  0  0  0  0
 14 17  1  0  0  0  0
 15 18  1  0  0  0  0
 16 19  1  0  0  0  0
 16 32  1  0  0  0  0
 17 20  2  0  0  0  0
 17 33  1  0  0  0  0
 18 21  2  0  0  0  0
 19 22  2  0  0  0  0
 19 34  1  0  0  0  0
 20 22  1  0  0  0  0
 20 35  1  0  0  0  0
 21 23  1  0  0  0  0
 21 36  1  0  0  0  0
 22 37  1  0  0  0  0
 23 38  1  0  0  0  0
M  END
> <PUBCHEM_COMPOUND_CID>
56775191

> <PUBCHEM_CONFORMER_RMSD>
0.8

> <PUBCHEM_CONFORMER_DIVERSEORDER>
1
15
10
9
6
24
20
28
23
27
26
19
18
7
11
5
14
22
21
25
16
8
29
4
12
3
17
2
13

> <PUBCHEM_MMFF94_PARTIAL_CHARGES>
30
1 -0.56
10 0.3
11 0.3
12 0.34
13 0.57
14 0.12
15 0.71
16 -0.15
17 -0.15
18 0.05
19 -0.15
2 -0.57
20 -0.15
21 -0.15
22 -0.15
23 0.14
3 -0.57
32 0.15
33 0.15
34 0.15
35 0.15
36 0.15
37 0.15
38 0.15
4 -0.02
5 -0.66
6 -0.48
7 -0.41
8 0.3
9 0.28

> <PUBCHEM_EFFECTIVE_ROTOR_COUNT>
4.2

> <PUBCHEM_PHARMACOPHORE_FEATURES>
8
1 1 acceptor
1 2 acceptor
1 3 acceptor
1 7 acceptor
5 4 7 18 21 23 rings
5 5 8 9 10 11 rings
6 1 6 8 9 12 13 rings
6 14 16 17 19 20 22 rings

> <PUBCHEM_HEAVY_ATOM_COUNT>
23

> <PUBCHEM_ATOM_DEF_STEREO_COUNT>
2

> <PUBCHEM_ATOM_UDEF_STEREO_COUNT>
0

> <PUBCHEM_BOND_DEF_STEREO_COUNT>
0

> <PUBCHEM_BOND_UDEF_STEREO_COUNT>
0

> <PUBCHEM_ISOTOPIC_ATOM_COUNT>
0

> <PUBCHEM_COMPONENT_COUNT>
1

> <PUBCHEM_CACTVS_TAUTO_COUNT>
2

> <PUBCHEM_CONFORMER_ID>
0362521700000001

> <PUBCHEM_MMFF94_ENERGY>
73.8872

> <PUBCHEM_FEATURE_SELFOVERLAP>
40.787

> <PUBCHEM_SHAPE_FINGERPRINT>
10616163 171 18339927021920358326
11552529 35 18202278087407235466
11578080 2 18058995307107223761
11725454 13 13972033492348437011
12174731 88 17104511170243464234
12553582 1 18198058281875690471
12633257 1 17631738162111736977
12788726 201 18270975616992124089
12824470 246 18336262435368797221
13004483 165 18412536618166222299
13140716 1 18411981330059923728
13533116 47 17905889533227286623
13631057 29 18340206405495714388
14787075 74 17838621407154444132
15042514 8 18340775849423726417
15099037 8 18409728473684296560
15375462 189 18124603234602560255
15537594 2 18265071264993859518
16110190 28 17978223860487163530
16728300 4 17608653812955575403
19141452 34 18266178340127719448
19319366 153 17616539896369527188
20291156 8 18410291449376139574
20442098 301 18339358557365676146
20775530 9 18336258020142878194
21315759 227 17679019545765721851
21421861 104 18267326372312255211
21634736 98 18333734594213242510
2255824 54 17759242194808367413
235170 7 16516237569499588646
23559900 14 18412535505801925952
23566358 27 18189069641796893860
23598288 3 18343867731844747103
23728640 28 18270398261787074355
392239 28 17984411108552670312
46194498 28 16952523848004839855
463206 1 17977384154955871750
5486654 36 18334864895839286034
58807428 26 17623303671298172281
59682541 52 17835208493514191167
7097593 13 18410582794208795397

> <PUBCHEM_SHAPE_MULTIPOLES>
434.91
8.21
4.29
1.2
4.92
0.17
-0.08
-6.75
1
-1.48
0.37
-0.53
-0.23
-2.16

> <PUBCHEM_SHAPE_SELFOVERLAP>
953.424

> <PUBCHEM_SHAPE_VOLUME>
234.8

> <PUBCHEM_COORDINATE_TYPE>
2
5
10

$$$$
