56774590
  -OEChem-12032416213D

 48 50  0     1  0  0  0  0  0999 V2000
   -0.4014   -2.4072   -1.3166 O   0  0  0  0  0  0  0  0  0  0  0  0
   -0.2107   -0.1519    2.2317 O   0  0  0  0  0  0  0  0  0  0  0  0
   -3.5982   -2.6743    0.3419 O   0  0  0  0  0  0  0  0  0  0  0  0
    6.7611   -0.7069   -0.2649 O   0  0  0  0  0  0  0  0  0  0  0  0
   -2.1274   -0.8720    0.2721 N   0  0  0  0  0  0  0  0  0  0  0  0
    5.4198    1.2320   -0.2625 N   0  0  0  0  0  0  0  0  0  0  0  0
   -0.7908   -0.3891   -0.0967 C   0  0  1  0  0  0  0  0  0  0  0  0
    0.2243   -0.7206    1.0012 C   0  0  1  0  0  0  0  0  0  0  0  0
   -0.3698   -0.9897   -1.4326 C   0  0  0  0  0  0  0  0  0  0  0  0
   -2.9162   -0.0448    1.1752 C   0  0  0  0  0  0  0  0  0  0  0  0
   -2.5663   -2.1473   -0.0778 C   0  0  0  0  0  0  0  0  0  0  0  0
    1.6002   -0.2036    0.6666 C   0  0  0  0  0  0  0  0  0  0  0  0
   -1.7194   -2.8688   -1.1201 C   0  0  0  0  0  0  0  0  0  0  0  0
   -3.9385    0.7728    0.4398 C   0  0  0  0  0  0  0  0  0  0  0  0
    2.6752   -1.0881    0.5779 C   0  0  0  0  0  0  0  0  0  0  0  0
    1.7984    1.1593    0.4455 C   0  0  0  0  0  0  0  0  0  0  0  0
    3.9484   -0.6097    0.2684 C   0  0  0  0  0  0  0  0  0  0  0  0
    3.0714    1.6378    0.1359 C   0  0  0  0  0  0  0  0  0  0  0  0
   -3.6116    2.0480   -0.0214 C   0  0  0  0  0  0  0  0  0  0  0  0
   -5.2152    0.2570    0.2179 C   0  0  0  0  0  0  0  0  0  0  0  0
    4.1464    0.7533    0.0474 C   0  0  0  0  0  0  0  0  0  0  0  0
   -4.5616    2.8075   -0.7045 C   0  0  0  0  0  0  0  0  0  0  0  0
   -6.1652    1.0162   -0.4652 C   0  0  0  0  0  0  0  0  0  0  0  0
   -5.8384    2.2916   -0.9263 C   0  0  0  0  0  0  0  0  0  0  0  0
    6.6095    0.5035   -0.3942 C   0  0  0  0  0  0  0  0  0  0  0  0
    7.7759    1.3953   -0.7389 C   0  0  0  0  0  0  0  0  0  0  0  0
   -0.8796    0.6957   -0.2272 H   0  0  0  0  0  0  0  0  0  0  0  0
    0.2573   -1.8038    1.1689 H   0  0  0  0  0  0  0  0  0  0  0  0
    0.6359   -0.6889   -1.7388 H   0  0  0  0  0  0  0  0  0  0  0  0
   -1.0489   -0.6772   -2.2367 H   0  0  0  0  0  0  0  0  0  0  0  0
   -2.2891    0.6325    1.7584 H   0  0  0  0  0  0  0  0  0  0  0  0
   -3.4205   -0.6928    1.9030 H   0  0  0  0  0  0  0  0  0  0  0  0
   -1.6565   -3.9224   -0.8285 H   0  0  0  0  0  0  0  0  0  0  0  0
   -2.2560   -2.8208   -2.0750 H   0  0  0  0  0  0  0  0  0  0  0  0
   -0.0912    0.8118    2.1994 H   0  0  0  0  0  0  0  0  0  0  0  0
    2.5345   -2.1525    0.7466 H   0  0  0  0  0  0  0  0  0  0  0  0
    0.9786    1.8688    0.5131 H   0  0  0  0  0  0  0  0  0  0  0  0
    4.7302   -1.3544    0.2174 H   0  0  0  0  0  0  0  0  0  0  0  0
    3.2116    2.7025   -0.0330 H   0  0  0  0  0  0  0  0  0  0  0  0
   -2.6216    2.4634    0.1461 H   0  0  0  0  0  0  0  0  0  0  0  0
   -5.4884   -0.7314    0.5762 H   0  0  0  0  0  0  0  0  0  0  0  0
   -4.3073    3.8005   -1.0632 H   0  0  0  0  0  0  0  0  0  0  0  0
   -7.1599    0.6153   -0.6367 H   0  0  0  0  0  0  0  0  0  0  0  0
   -6.5782    2.8829   -1.4578 H   0  0  0  0  0  0  0  0  0  0  0  0
    5.4819    2.2374   -0.4091 H   0  0  0  0  0  0  0  0  0  0  0  0
    7.9021    2.1576    0.0351 H   0  0  0  0  0  0  0  0  0  0  0  0
    7.5982    1.8792   -1.7034 H   0  0  0  0  0  0  0  0  0  0  0  0
    8.6913    0.8005   -0.8025 H   0  0  0  0  0  0  0  0  0  0  0  0
  1  9  1  0  0  0  0
  1 13  1  0  0  0  0
  2  8  1  0  0  0  0
  2 35  1  0  0  0  0
  3 11  2  0  0  0  0
  4 25  2  0  0  0  0
  5  7  1  0  0  0  0
  5 10  1  0  0  0  0
  5 11  1  0  0  0  0
  6 21  1  0  0  0  0
  6 25  1  0  0  0  0
  6 45  1  0  0  0  0
  7  8  1  0  0  0  0
  7  9  1  0  0  0  0
  7 27  1  0  0  0  0
  8 12  1  0  0  0  0
  8 28  1  0  0  0  0
  9 29  1  0  0  0  0
  9 30  1  0  0  0  0
 10 14  1  0  0  0  0
 10 31  1  0  0  0  0
 10 32  1  0  0  0  0
 11 13  1  0  0  0  0
 12 15  2  0  0  0  0
 12 16  1  0  0  0  0
 13 33  1  0  0  0  0
 13 34  1  0  0  0  0
 14 19  2  0  0  0  0
 14 20  1  0  0  0  0
 15 17  1  0  0  0  0
 15 36  1  0  0  0  0
 16 18  2  0  0  0  0
 16 37  1  0  0  0  0
 17 21  2  0  0  0  0
 17 38  1  0  0  0  0
 18 21  1  0  0  0  0
 18 39  1  0  0  0  0
 19 22  1  0  0  0  0
 19 40  1  0  0  0  0
 20 23  2  0  0  0  0
 20 41  1  0  0  0  0
 22 24  2  0  0  0  0
 22 42  1  0  0  0  0
 23 24  1  0  0  0  0
 23 43  1  0  0  0  0
 24 44  1  0  0  0  0
 25 26  1  0  0  0  0
 26 46  1  0  0  0  0
 26 47  1  0  0  0  0
 26 48  1  0  0  0  0
M  END
> <PUBCHEM_COMPOUND_CID>
56774590

> <PUBCHEM_CONFORMER_RMSD>
0.8

> <PUBCHEM_CONFORMER_DIVERSEORDER>
2
19
18
52
30
49
44
15
10
27
26
35
43
32
12
14
5
40
46
45
36
51
31
50
20
25
6
34
47
28
42
48
29
33
7
23
3
24
38
39
21
16
37
17
4
41
11
8
9
53
22
54
13
1

> <PUBCHEM_MMFF94_PARTIAL_CHARGES>
37
1 -0.56
10 0.44
11 0.57
12 -0.14
13 0.34
14 -0.14
15 -0.15
16 -0.15
17 -0.15
18 -0.15
19 -0.15
2 -0.68
20 -0.15
21 0.12
22 -0.15
23 -0.15
24 -0.15
25 0.57
26 0.06
3 -0.57
35 0.4
36 0.15
37 0.15
38 0.15
39 0.15
4 -0.57
40 0.15
41 0.15
42 0.15
43 0.15
44 0.15
45 0.37
5 -0.66
6 -0.55
7 0.3
8 0.42
9 0.28

> <PUBCHEM_EFFECTIVE_ROTOR_COUNT>
7

> <PUBCHEM_PHARMACOPHORE_FEATURES>
9
1 1 acceptor
1 2 acceptor
1 2 donor
1 3 acceptor
1 4 acceptor
1 6 donor
6 1 5 7 9 11 13 rings
6 12 15 16 17 18 21 rings
6 14 19 20 22 23 24 rings

> <PUBCHEM_HEAVY_ATOM_COUNT>
26

> <PUBCHEM_ATOM_DEF_STEREO_COUNT>
2

> <PUBCHEM_ATOM_UDEF_STEREO_COUNT>
0

> <PUBCHEM_BOND_DEF_STEREO_COUNT>
0

> <PUBCHEM_BOND_UDEF_STEREO_COUNT>
0

> <PUBCHEM_ISOTOPIC_ATOM_COUNT>
0

> <PUBCHEM_COMPONENT_COUNT>
1

> <PUBCHEM_CACTVS_TAUTO_COUNT>
6

> <PUBCHEM_CONFORMER_ID>
03624FBE00000002

> <PUBCHEM_MMFF94_ENERGY>
79.3276

> <PUBCHEM_FEATURE_SELFOVERLAP>
45.673

> <PUBCHEM_SHAPE_FINGERPRINT>
10066227 112 18411701006741681500
10165383 225 18202571666340232305
10411042 1 17904485456999975107
105312 117 18341615897602745213
10835480 77 17846495989658489928
12166972 35 11312049959723549730
12788726 201 17702945816602896256
13103583 49 11386944203856860037
13257819 101 18335414609109417053
13540713 4 17129845369333841018
13583140 156 18260277360316807187
13690498 29 17986106533549246639
13911987 19 18201716216071113785
14251752 14 18409449172673200784
15163728 17 18196940968262645593
15183329 4 18202568358872658904
15961568 22 18187082798431933373
167882 2 18198624320111408415
17780758 139 9871752386445695537
19611394 137 17896616153368160257
19958102 18 17988093192657816692
20511986 3 18272644680608065962
21756936 100 17894911857913988465
21859007 373 18272355469952741456
22224240 67 15357700790342700529
23559900 14 17274820307526484794
23569943 247 11957804087031573292
2838139 119 18408038507323076597
3545911 37 18413109467581580161
392239 28 8069736425342417813
4015057 19 15338831023516333722
4073 2 17749396996590856370
44802255 64 18271813449232178262
484989 97 18058721559293220487
559249 180 18343584062382847502
59755656 520 17095521807464559458
6327066 14 18335134242503755085
6328613 192 18335422357283575164

> <PUBCHEM_SHAPE_MULTIPOLES>
501.63
16.78
2.77
1.18
20.01
0.69
-0.15
-11.36
4.04
-3.54
0.98
-0.35
0.29
0.2

> <PUBCHEM_SHAPE_SELFOVERLAP>
1069.994

> <PUBCHEM_SHAPE_VOLUME>
274.3

> <PUBCHEM_COORDINATE_TYPE>
2
5
10

$$$$
