40777229
  -OEChem-12032416173D

 61 65  0     1  0  0  0  0  0999 V2000
   -4.0162   -2.7163    1.6399 Br  0  0  0  0  0  0  0  0  0  0  0  0
   10.4750   -1.3395   -0.1294 Cl  0  0  0  0  0  0  0  0  0  0  0  0
    4.1710    0.6057    1.7015 O   0  0  0  0  0  0  0  0  0  0  0  0
    0.0513    2.5109    1.3491 N   0  0  2  0  0  0  0  0  0  0  0  0
    2.4282   -0.2946    0.4802 N   0  0  0  0  0  0  0  0  0  0  0  0
   -2.3358    0.3929   -1.9123 N   0  0  0  0  0  0  0  0  0  0  0  0
   -4.2326   -1.0715   -1.6564 N   0  0  0  0  0  0  0  0  0  0  0  0
    4.5674   -0.8909   -0.0631 N   0  0  0  0  0  0  0  0  0  0  0  0
   -0.6019    2.5522   -1.1717 C   0  0  2  0  0  0  0  0  0  0  0  0
   -1.8259    2.1592   -0.2991 C   0  0  2  0  0  0  0  0  0  0  0  0
    1.0346    1.7268    0.5564 C   0  0  2  0  0  0  0  0  0  0  0  0
    0.5544    1.5663   -0.9021 C   0  0  0  0  0  0  0  0  0  0  0  0
   -0.1361    3.9414   -0.6853 C   0  0  0  0  0  0  0  0  0  0  0  0
   -1.3130    1.9595    1.1557 C   0  0  0  0  0  0  0  0  0  0  0  0
    0.0642    3.9033    0.8398 C   0  0  0  0  0  0  0  0  0  0  0  0
    1.3600    0.3778    1.2013 C   0  0  0  0  0  0  0  0  0  0  0  0
   -2.7006    1.0047   -0.7665 C   0  0  0  0  0  0  0  0  0  0  0  0
   -3.8030    0.6409   -0.0204 C   0  0  0  0  0  0  0  0  0  0  0  0
   -4.5394   -0.4146   -0.5185 C   0  0  0  0  0  0  0  0  0  0  0  0
   -3.1346   -0.6222   -2.2935 C   0  0  0  0  0  0  0  0  0  0  0  0
    3.7751   -0.1230    0.7949 C   0  0  0  0  0  0  0  0  0  0  0  0
   -5.7165   -0.8915    0.1672 C   0  0  0  0  0  0  0  0  0  0  0  0
   -2.7645   -1.3224   -3.5572 C   0  0  0  0  0  0  0  0  0  0  0  0
   -5.6536   -1.8924    1.1366 C   0  0  0  0  0  0  0  0  0  0  0  0
   -6.9443   -0.3194   -0.1659 C   0  0  0  0  0  0  0  0  0  0  0  0
    5.9776   -0.9985   -0.0785 C   0  0  0  0  0  0  0  0  0  0  0  0
   -6.8184   -2.3211    1.7731 C   0  0  0  0  0  0  0  0  0  0  0  0
   -8.1091   -0.7480    0.4705 C   0  0  0  0  0  0  0  0  0  0  0  0
   -8.0463   -1.7489    1.4401 C   0  0  0  0  0  0  0  0  0  0  0  0
    6.6042   -1.8199   -1.0158 C   0  0  0  0  0  0  0  0  0  0  0  0
    6.7419   -0.2828    0.8431 C   0  0  0  0  0  0  0  0  0  0  0  0
    7.9950   -1.9257   -1.0315 C   0  0  0  0  0  0  0  0  0  0  0  0
    8.1326   -0.3885    0.8275 C   0  0  0  0  0  0  0  0  0  0  0  0
    8.7592   -1.2099   -0.1097 C   0  0  0  0  0  0  0  0  0  0  0  0
   -0.8501    2.5841   -2.2378 H   0  0  0  0  0  0  0  0  0  0  0  0
   -2.4990    3.0308   -0.3007 H   0  0  0  0  0  0  0  0  0  0  0  0
    1.9766    2.2950    0.5412 H   0  0  0  0  0  0  0  0  0  0  0  0
    0.2261    0.5419   -1.1101 H   0  0  0  0  0  0  0  0  0  0  0  0
    1.3861    1.7799   -1.5849 H   0  0  0  0  0  0  0  0  0  0  0  0
   -0.8776    4.7062   -0.9443 H   0  0  0  0  0  0  0  0  0  0  0  0
    0.8015    4.2159   -1.1839 H   0  0  0  0  0  0  0  0  0  0  0  0
   -1.9991    2.4614    1.8514 H   0  0  0  0  0  0  0  0  0  0  0  0
   -1.3324    0.9048    1.4541 H   0  0  0  0  0  0  0  0  0  0  0  0
    1.0111    4.3902    1.1035 H   0  0  0  0  0  0  0  0  0  0  0  0
   -0.7168    4.4895    1.3408 H   0  0  0  0  0  0  0  0  0  0  0  0
    0.5027   -0.3026    1.1909 H   0  0  0  0  0  0  0  0  0  0  0  0
    1.6705    0.5157    2.2433 H   0  0  0  0  0  0  0  0  0  0  0  0
    2.1767   -0.9090   -0.2878 H   0  0  0  0  0  0  0  0  0  0  0  0
   -4.0767    1.1546    0.8936 H   0  0  0  0  0  0  0  0  0  0  0  0
   -3.3284   -0.8982   -4.3931 H   0  0  0  0  0  0  0  0  0  0  0  0
   -1.6954   -1.2147   -3.7653 H   0  0  0  0  0  0  0  0  0  0  0  0
   -2.9904   -2.3909   -3.4863 H   0  0  0  0  0  0  0  0  0  0  0  0
    4.0794   -1.4419   -0.7647 H   0  0  0  0  0  0  0  0  0  0  0  0
   -7.0140    0.4618   -0.9195 H   0  0  0  0  0  0  0  0  0  0  0  0
   -6.7905   -3.0997    2.5313 H   0  0  0  0  0  0  0  0  0  0  0  0
   -9.0652   -0.3027    0.2112 H   0  0  0  0  0  0  0  0  0  0  0  0
   -8.9533   -2.0826    1.9355 H   0  0  0  0  0  0  0  0  0  0  0  0
    6.0203   -2.3828   -1.7395 H   0  0  0  0  0  0  0  0  0  0  0  0
    6.3305    0.3724    1.5978 H   0  0  0  0  0  0  0  0  0  0  0  0
    8.4696   -2.5694   -1.7676 H   0  0  0  0  0  0  0  0  0  0  0  0
    8.7166    0.1746    1.5511 H   0  0  0  0  0  0  0  0  0  0  0  0
  1 24  1  0  0  0  0
  2 34  1  0  0  0  0
  3 21  2  0  0  0  0
  4 11  1  0  0  0  0
  4 14  1  0  0  0  0
  4 15  1  0  0  0  0
  5 16  1  0  0  0  0
  5 21  1  0  0  0  0
  5 48  1  0  0  0  0
  6 17  2  0  0  0  0
  6 20  1  0  0  0  0
  7 19  1  0  0  0  0
  7 20  2  0  0  0  0
  8 21  1  0  0  0  0
  8 26  1  0  0  0  0
  8 53  1  0  0  0  0
  9 10  1  0  0  0  0
  9 12  1  0  0  0  0
  9 13  1  0  0  0  0
  9 35  1  0  0  0  0
 10 14  1  0  0  0  0
 10 17  1  0  0  0  0
 10 36  1  0  0  0  0
 11 12  1  0  0  0  0
 11 16  1  0  0  0  0
 11 37  1  0  0  0  0
 12 38  1  0  0  0  0
 12 39  1  0  0  0  0
 13 15  1  0  0  0  0
 13 40  1  0  0  0  0
 13 41  1  0  0  0  0
 14 42  1  0  0  0  0
 14 43  1  0  0  0  0
 15 44  1  0  0  0  0
 15 45  1  0  0  0  0
 16 46  1  0  0  0  0
 16 47  1  0  0  0  0
 17 18  1  0  0  0  0
 18 19  2  0  0  0  0
 18 49  1  0  0  0  0
 19 22  1  0  0  0  0
 20 23  1  0  0  0  0
 22 24  1  0  0  0  0
 22 25  2  0  0  0  0
 23 50  1  0  0  0  0
 23 51  1  0  0  0  0
 23 52  1  0  0  0  0
 24 27  2  0  0  0  0
 25 28  1  0  0  0  0
 25 54  1  0  0  0  0
 26 30  2  0  0  0  0
 26 31  1  0  0  0  0
 27 29  1  0  0  0  0
 27 55  1  0  0  0  0
 28 29  2  0  0  0  0
 28 56  1  0  0  0  0
 29 57  1  0  0  0  0
 30 32  1  0  0  0  0
 30 58  1  0  0  0  0
 31 33  2  0  0  0  0
 31 59  1  0  0  0  0
 32 34  2  0  0  0  0
 32 60  1  0  0  0  0
 33 34  1  0  0  0  0
 33 61  1  0  0  0  0
M  END
> <PUBCHEM_COMPOUND_CID>
40777229

> <PUBCHEM_CONFORMER_RMSD>
1

> <PUBCHEM_CONFORMER_DIVERSEORDER>
1
26
288
148
186
196
276
259
185
263
321
50
72
219
301
272
48
283
329
139
242
145
279
285
262
138
307
168
195
54
192
266
294
106
144
91
209
90
77
335
63
124
85
337
71
264
59
211
101
103
280
105
21
31
66
35
134
252
215
172
42
330
121
57
336
43
233
22
295
113
84
225
129
300
151
222
20
206
306
117
304
318
176
188
238
153
123
97
38
278
94
302
107
221
87
270
140
319
193
96
154
244
28
246
36
68
223
267
257
180
161
205
281
82
15
328
47
51
122
274
108
227
277
284
70
230
293
46
170
131
265
324
120
89
203
249
235
65
208
45
11
127
73
92
310
299
136
204
313
317
95
143
102
309
173
137
12
315
311
116
55
217
312
4
212
62
275
76
320
327
184
111
49
29
218
155
34
98
298
273
247
338
130
52
115
8
23
197
37
269
177
133
314
25
167
132
41
112
183
79
268
216
232
58
86
234
261
64
147
239
331
240
165
162
334
305
159
78
256
135
118
6
187
178
303
67
56
125
282
190
228
128
308
326
60
18
100
325
254
163
160
93
289
74
114
2
248
19
179
210
152
39
202
175
3
166
61
200
207
231
110
30
157
258
220
171
32
182
149
290
150
292
237
17
169
332
69
199
83
33
322
164
181
333
316
255
146
241
286
80
158
44
27
141
109
260
201
229
296
198
126
10
250
104
287
236
323
224
226
174
194
14
297
7
9
189
119
13
156
213
253
16
40
291
271
99
142
88
214
81
251
53
75
191
243
24
5
245

> <PUBCHEM_MMFF94_PARTIAL_CHARGES>
41
1 -0.11
10 0.14
11 0.27
14 0.27
15 0.27
16 0.3
17 0.17
18 -0.15
19 0.31
2 -0.18
20 0.48
21 0.69
23 0.14
24 0.11
25 -0.15
26 0.12
27 -0.15
28 -0.15
29 -0.15
3 -0.57
30 -0.15
31 -0.15
32 -0.15
33 -0.15
34 0.18
4 -0.81
48 0.37
49 0.15
5 -0.73
53 0.37
54 0.15
55 0.15
56 0.15
57 0.15
58 0.15
59 0.15
6 -0.62
60 0.15
61 0.15
7 -0.62
8 -0.55

> <PUBCHEM_EFFECTIVE_ROTOR_COUNT>
8.2

> <PUBCHEM_PHARMACOPHORE_FEATURES>
11
1 1 hydrophobe
1 3 acceptor
1 4 cation
1 5 donor
1 6 acceptor
1 8 donor
3 6 7 20 cation
6 22 24 25 27 28 29 rings
6 26 30 31 32 33 34 rings
6 6 7 17 18 19 20 rings
8 4 9 10 11 12 13 14 15 rings

> <PUBCHEM_HEAVY_ATOM_COUNT>
34

> <PUBCHEM_ATOM_DEF_STEREO_COUNT>
3

> <PUBCHEM_ATOM_UDEF_STEREO_COUNT>
0

> <PUBCHEM_BOND_DEF_STEREO_COUNT>
0

> <PUBCHEM_BOND_UDEF_STEREO_COUNT>
0

> <PUBCHEM_ISOTOPIC_ATOM_COUNT>
0

> <PUBCHEM_COMPONENT_COUNT>
1

> <PUBCHEM_CACTVS_TAUTO_COUNT>
3

> <PUBCHEM_CONFORMER_ID>
026E360D00000001

> <PUBCHEM_MMFF94_ENERGY>
99.4113

> <PUBCHEM_FEATURE_SELFOVERLAP>
55.875

> <PUBCHEM_SHAPE_FINGERPRINT>
10076449 9 17603872212885149227
10653451 467 18342742935703028714
10674148 151 17967250897634372601
11476731 47 18042127729902472860
11477941 20 15357694197467908623
11607047 191 14476972155720875359
11621639 254 14490195998931859655
11756154 5 18335700567821500914
11828042 226 18201156677029316056
12539747 363 18343022185586305728
13150687 139 12179841680455797744
13631057 29 18187366493869117480
13673619 4 18409727369915151041
13690498 29 18260257534663794861
14068700 675 17968100811327136380
14420673 8 18187930629713885211
14705955 166 15051465877316744155
14950920 106 15266479864063040122
15289351 153 8286214842383393044
15350500 55 11887682749347452907
15461852 350 17822011970478925526
15510800 12 18409168826787709578
15669420 48 15574717997286103419
15684393 108 18409174307804478086
16067689 302 18410859902248511316
16758388 162 10663825127405168126
18335252 98 18272652321450038710
19246450 95 17346328051272079537
195137 95 11312062027948570754
20105231 36 17846782880631217510
20554085 129 8069748442771838116
208703 8 18334014986752784492
21344244 246 17823145673935878364
21585481 151 18411141364071412051
21716022 299 17969237783127464421
21795232 338 17632289069324935200
21927370 108 18343023272761202776
23522609 53 14619935158943628712
2747138 104 18410007741617815576
335507 130 18131068230626410684
3552219 110 18130794469068904120
437815 12 18408325514549428443
4461854 278 17918276463516235854
54039377 194 18409168818187231742
5470011 282 17894914031911517990
54728670 133 16342866417382051337
57527295 17 15792000135172600260
6009941 240 18335135337757306245
636775 8 18334018281182740490
9896288 288 17986116219037959977
999808 66 18343584035916562135

> <PUBCHEM_SHAPE_MULTIPOLES>
676.74
27.83
3.54
2.07
49.73
3.31
-1.57
-29.1
3.76
-1.95
0.84
-2.4
-0.67
2.76

> <PUBCHEM_SHAPE_SELFOVERLAP>
1447.072

> <PUBCHEM_SHAPE_VOLUME>
385.5

> <PUBCHEM_COORDINATE_TYPE>
2
5
10

$$$$
