45783382
  -OEChem-12032416213D

 57 61  0     1  0  0  0  0  0999 V2000
   -0.8308    0.5072    3.0680 O   0  0  0  0  0  0  0  0  0  0  0  0
   -0.2667   -2.8020   -1.8635 O   0  0  0  0  0  0  0  0  0  0  0  0
   -3.0457   -0.0710    0.1931 N   0  0  1  0  0  0  0  0  0  0  0  0
   -0.1935   -0.2451    1.0568 N   0  0  0  0  0  0  0  0  0  0  0  0
   -0.3258    3.5028   -0.4360 N   0  0  0  0  0  0  0  0  0  0  0  0
    0.5679    0.5795    3.0504 N   0  0  0  0  0  0  0  0  0  0  0  0
    1.6494   -1.8690   -0.0396 N   0  0  0  0  0  0  0  0  0  0  0  0
    3.8807   -1.0818   -0.0148 N   0  0  0  0  0  0  0  0  0  0  0  0
   -2.6827   -0.1643    1.6213 C   0  0  1  0  0  0  0  0  0  0  0  0
   -3.1958   -1.5464    2.0659 C   0  0  0  0  0  0  0  0  0  0  0  0
   -4.2328   -0.9070    0.0129 C   0  0  0  0  0  0  0  0  0  0  0  0
   -3.8845   -2.1283    0.8396 C   0  0  0  0  0  0  0  0  0  0  0  0
   -3.2659    1.2978   -0.2555 C   0  0  0  0  0  0  0  0  0  0  0  0
   -1.1972    0.0114    1.8571 C   0  0  0  0  0  0  0  0  0  0  0  0
   -1.9698    2.0143   -0.5270 C   0  0  0  0  0  0  0  0  0  0  0  0
   -0.9624    1.6217   -1.4524 C   0  0  0  0  0  0  0  0  0  0  0  0
   -1.5495    3.1739    0.0823 C   0  0  0  0  0  0  0  0  0  0  0  0
    0.0576    2.5725   -1.3755 C   0  0  0  0  0  0  0  0  0  0  0  0
    0.8685    0.1193    1.8323 C   0  0  0  0  0  0  0  0  0  0  0  0
   -0.8202    0.5456   -2.3507 C   0  0  0  0  0  0  0  0  0  0  0  0
    1.2174    2.5005   -2.1552 C   0  0  0  0  0  0  0  0  0  0  0  0
    2.2187    0.0095    1.3604 C   0  0  0  0  0  0  0  0  0  0  0  0
    0.3345    0.4606   -3.1371 C   0  0  0  0  0  0  0  0  0  0  0  0
    1.3364    1.4242   -3.0391 C   0  0  0  0  0  0  0  0  0  0  0  0
    2.6168   -0.9539    0.4477 C   0  0  0  0  0  0  0  0  0  0  0  0
    3.1793    0.8992    1.8286 C   0  0  0  0  0  0  0  0  0  0  0  0
    4.4903    0.7994    1.3760 C   0  0  0  0  0  0  0  0  0  0  0  0
    1.9650   -2.8937   -0.9799 C   0  0  0  0  0  0  0  0  0  0  0  0
    4.7869   -0.1994    0.4626 C   0  0  0  0  0  0  0  0  0  0  0  0
    0.7142   -3.6821   -1.3288 C   0  0  0  0  0  0  0  0  0  0  0  0
   -1.4605   -3.4952   -2.1999 C   0  0  0  0  0  0  0  0  0  0  0  0
   -3.2190    0.5938    2.2094 H   0  0  0  0  0  0  0  0  0  0  0  0
   -3.9270   -1.4257    2.8745 H   0  0  0  0  0  0  0  0  0  0  0  0
   -2.4068   -2.2170    2.4235 H   0  0  0  0  0  0  0  0  0  0  0  0
   -4.3981   -1.1669   -1.0373 H   0  0  0  0  0  0  0  0  0  0  0  0
   -5.1351   -0.4239    0.4086 H   0  0  0  0  0  0  0  0  0  0  0  0
   -4.7648   -2.7222    1.1023 H   0  0  0  0  0  0  0  0  0  0  0  0
   -3.1875   -2.7750    0.2950 H   0  0  0  0  0  0  0  0  0  0  0  0
   -3.8893    1.8657    0.4473 H   0  0  0  0  0  0  0  0  0  0  0  0
   -3.8143    1.2890   -1.2080 H   0  0  0  0  0  0  0  0  0  0  0  0
   -2.0092    3.7946    0.8388 H   0  0  0  0  0  0  0  0  0  0  0  0
    0.2187    4.3107   -0.1674 H   0  0  0  0  0  0  0  0  0  0  0  0
   -1.5938   -0.2104   -2.4447 H   0  0  0  0  0  0  0  0  0  0  0  0
    1.9986    3.2493   -2.0787 H   0  0  0  0  0  0  0  0  0  0  0  0
    0.4497   -0.3675   -3.8314 H   0  0  0  0  0  0  0  0  0  0  0  0
    2.2256    1.3378   -3.6583 H   0  0  0  0  0  0  0  0  0  0  0  0
    2.9359    1.6853    2.5389 H   0  0  0  0  0  0  0  0  0  0  0  0
    0.8391   -2.0189    0.5525 H   0  0  0  0  0  0  0  0  0  0  0  0
    5.2555    1.4832    1.7252 H   0  0  0  0  0  0  0  0  0  0  0  0
    2.3632   -2.4396   -1.8953 H   0  0  0  0  0  0  0  0  0  0  0  0
    2.7225   -3.5743   -0.5751 H   0  0  0  0  0  0  0  0  0  0  0  0
    5.7944   -0.3191    0.0781 H   0  0  0  0  0  0  0  0  0  0  0  0
    0.9597   -4.4523   -2.0689 H   0  0  0  0  0  0  0  0  0  0  0  0
    0.3145   -4.1712   -0.4320 H   0  0  0  0  0  0  0  0  0  0  0  0
   -1.2679   -4.2160   -3.0003 H   0  0  0  0  0  0  0  0  0  0  0  0
   -1.8702   -4.0083   -1.3251 H   0  0  0  0  0  0  0  0  0  0  0  0
   -2.1949   -2.7674   -2.5549 H   0  0  0  0  0  0  0  0  0  0  0  0
  1  6  1  0  0  0  0
  1 14  1  0  0  0  0
  2 30  1  0  0  0  0
  2 31  1  0  0  0  0
  3  9  1  0  0  0  0
  3 11  1  0  0  0  0
  3 13  1  0  0  0  0
  4 14  2  0  0  0  0
  4 19  1  0  0  0  0
  5 17  1  0  0  0  0
  5 18  1  0  0  0  0
  5 42  1  0  0  0  0
  6 19  2  0  0  0  0
  7 25  1  0  0  0  0
  7 28  1  0  0  0  0
  7 48  1  0  0  0  0
  8 25  1  0  0  0  0
  8 29  2  0  0  0  0
  9 10  1  0  0  0  0
  9 14  1  0  0  0  0
  9 32  1  0  0  0  0
 10 12  1  0  0  0  0
 10 33  1  0  0  0  0
 10 34  1  0  0  0  0
 11 12  1  0  0  0  0
 11 35  1  0  0  0  0
 11 36  1  0  0  0  0
 12 37  1  0  0  0  0
 12 38  1  0  0  0  0
 13 15  1  0  0  0  0
 13 39  1  0  0  0  0
 13 40  1  0  0  0  0
 15 16  1  0  0  0  0
 15 17  2  0  0  0  0
 16 18  1  0  0  0  0
 16 20  2  0  0  0  0
 17 41  1  0  0  0  0
 18 21  2  0  0  0  0
 19 22  1  0  0  0  0
 20 23  1  0  0  0  0
 20 43  1  0  0  0  0
 21 24  1  0  0  0  0
 21 44  1  0  0  0  0
 22 25  2  0  0  0  0
 22 26  1  0  0  0  0
 23 24  2  0  0  0  0
 23 45  1  0  0  0  0
 24 46  1  0  0  0  0
 26 27  2  0  0  0  0
 26 47  1  0  0  0  0
 27 29  1  0  0  0  0
 27 49  1  0  0  0  0
 28 30  1  0  0  0  0
 28 50  1  0  0  0  0
 28 51  1  0  0  0  0
 29 52  1  0  0  0  0
 30 53  1  0  0  0  0
 30 54  1  0  0  0  0
 31 55  1  0  0  0  0
 31 56  1  0  0  0  0
 31 57  1  0  0  0  0
M  END
> <PUBCHEM_COMPOUND_CID>
45783382

> <PUBCHEM_CONFORMER_RMSD>
1

> <PUBCHEM_CONFORMER_DIVERSEORDER>
1
134
175
10
197
89
172
166
155
99
93
115
3
173
146
204
8
40
19
135
114
143
36
207
30
153
11
184
140
72
203
202
46
199
136
110
117
176
4
192
123
196
73
12
169
205
200
6
181
105
206
195
69
70
170
71
193
152
60
190
119
38
159
120
151
47
157
138
118
112
78
79
131
33
32
156
147
14
126
194
201
132
54
59
150
84
106
13
162
88
63
108
75
16
57
145
51
122
160
101
29
42
81
127
22
187
178
66
154
85
149
2
189
130
41
191
180
64
48
103
7
92
26
124
17
50
167
171
125
116
139
161
44
198
80
49
31
27
90
142
97
20
24
83
58
185
98
76
65
141
164
182
100
43
87
137
15
111
9
21
68
174
133
129
74
34
109
18
113
165
96
94
148
144
62
61
25
86
128
168
95
53
52
104
158
188
56
5
177
102
67
55
183
186
163
37
107
23
77
121
82
179
45
28
39
35
91

> <PUBCHEM_MMFF94_PARTIAL_CHARGES>
38
1 -0.02
11 0.27
13 0.45
14 0.3
15 -0.18
17 -0.3
18 -0.15
19 0.46
2 -0.56
20 -0.15
21 -0.15
22 0.05
23 -0.15
24 -0.15
25 0.41
26 -0.15
27 -0.15
28 0.37
29 0.16
3 -0.81
30 0.28
31 0.28
4 -0.57
41 0.15
42 0.27
43 0.15
44 0.15
45 0.15
46 0.15
47 0.15
48 0.4
49 0.15
5 0.03
52 0.15
6 -0.41
7 -0.87
8 -0.62
9 0.45

> <PUBCHEM_EFFECTIVE_ROTOR_COUNT>
9

> <PUBCHEM_PHARMACOPHORE_FEATURES>
13
1 2 acceptor
1 3 cation
1 5 cation
1 5 donor
1 7 cation
1 7 donor
1 8 acceptor
3 4 6 19 cation
5 1 4 6 14 19 rings
5 3 9 10 11 12 rings
5 5 15 16 17 18 rings
6 16 18 20 21 23 24 rings
6 8 22 25 26 27 29 rings

> <PUBCHEM_HEAVY_ATOM_COUNT>
31

> <PUBCHEM_ATOM_DEF_STEREO_COUNT>
1

> <PUBCHEM_ATOM_UDEF_STEREO_COUNT>
0

> <PUBCHEM_BOND_DEF_STEREO_COUNT>
0

> <PUBCHEM_BOND_UDEF_STEREO_COUNT>
0

> <PUBCHEM_ISOTOPIC_ATOM_COUNT>
0

> <PUBCHEM_COMPONENT_COUNT>
1

> <PUBCHEM_CACTVS_TAUTO_COUNT>
8

> <PUBCHEM_CONFORMER_ID>
02BA995600000001

> <PUBCHEM_MMFF94_ENERGY>
65.692

> <PUBCHEM_FEATURE_SELFOVERLAP>
66.065

> <PUBCHEM_SHAPE_FINGERPRINT>
11578080 2 17840337448077898424
12156800 1 18193583123769369084
133893 2 16662644144144810157
16090146 7 18335991917977454619
17492 54 15936414446234735780
20600515 1 17458350731745775769
20691752 17 16199057001075616649
20905425 154 17172118297118367737
23557571 272 18188214208200762267
238 59 17695309660913239462
3411729 13 13109870218260825259
35225 105 17202181092537145007
469060 322 18048564261805908034
6287921 2 18337681797780646684
9925002 15 17906730663246816486

> <PUBCHEM_SHAPE_MULTIPOLES>
596.34
6.37
3.95
3.36
2.17
0.3
0.56
2.31
-3.26
-1.05
3.11
0.36
0.27
0.28

> <PUBCHEM_SHAPE_SELFOVERLAP>
1302.581

> <PUBCHEM_SHAPE_VOLUME>
326.4

> <PUBCHEM_COORDINATE_TYPE>
2
5
10

$$$$
