51136661
  -OEChem-12032416143D

 62 65  0     1  0  0  0  0  0999 V2000
    0.0376   -2.4127    1.7017 O   0  0  0  0  0  0  0  0  0  0  0  0
   -6.7087    1.2588    0.9746 O   0  0  0  0  0  0  0  0  0  0  0  0
    3.4537   -3.6229   -1.1718 O   0  0  0  0  0  0  0  0  0  0  0  0
   -6.3220   -0.7426   -0.0384 O   0  0  0  0  0  0  0  0  0  0  0  0
    5.0462    1.6333    0.8884 O   0  0  0  0  0  0  0  0  0  0  0  0
   -1.1246   -1.8821   -0.2155 N   0  0  0  0  0  0  0  0  0  0  0  0
    1.2517   -2.1384   -0.2353 N   0  0  0  0  0  0  0  0  0  0  0  0
   -0.9305    2.9619   -0.9892 N   0  0  0  0  0  0  0  0  0  0  0  0
   -2.1871    0.3325   -0.6100 C   0  0  2  0  0  0  0  0  0  0  0  0
   -3.5337   -0.2725   -0.1374 C   0  0  1  0  0  0  0  0  0  0  0  0
   -3.3154   -1.4492    0.8287 C   0  0  0  0  0  0  0  0  0  0  0  0
   -1.2727   -0.7760   -1.1731 C   0  0  0  0  0  0  0  0  0  0  0  0
   -2.3834   -2.4884    0.2147 C   0  0  0  0  0  0  0  0  0  0  0  0
   -1.4519    1.1309    0.4750 C   0  0  0  0  0  0  0  0  0  0  0  0
   -4.4753    0.7622    0.4780 C   0  0  0  0  0  0  0  0  0  0  0  0
   -0.4679    2.0797   -0.1659 C   0  0  0  0  0  0  0  0  0  0  0  0
    0.0546   -2.1595    0.4906 C   0  0  0  0  0  0  0  0  0  0  0  0
   -5.9085    0.3102    0.4236 C   0  0  0  0  0  0  0  0  0  0  0  0
    0.9729    1.9510    0.1709 C   0  0  0  0  0  0  0  0  0  0  0  0
    2.5346   -2.1001    0.4652 C   0  0  0  0  0  0  0  0  0  0  0  0
    1.3661   -2.4728   -1.6605 C   0  0  0  0  0  0  0  0  0  0  0  0
    1.8821    2.5592   -0.7039 C   0  0  0  0  0  0  0  0  0  0  0  0
    1.3521    3.2755   -1.9103 C   0  0  0  0  0  0  0  0  0  0  0  0
    0.0171    3.9222   -1.5651 C   0  0  0  0  0  0  0  0  0  0  0  0
    3.2940   -3.3981    0.2327 C   0  0  0  0  0  0  0  0  0  0  0  0
    2.1861   -3.7505   -1.8226 C   0  0  0  0  0  0  0  0  0  0  0  0
    1.4272    1.2513    1.2904 C   0  0  0  0  0  0  0  0  0  0  0  0
    3.2542    2.4406   -0.4651 C   0  0  0  0  0  0  0  0  0  0  0  0
    2.7984    1.1516    1.5291 C   0  0  0  0  0  0  0  0  0  0  0  0
    3.7097    1.7417    0.6529 C   0  0  0  0  0  0  0  0  0  0  0  0
    5.4435    0.9031    2.0479 C   0  0  0  0  0  0  0  0  0  0  0  0
   -2.4245    1.0016   -1.4480 H   0  0  0  0  0  0  0  0  0  0  0  0
   -4.0124   -0.6818   -1.0396 H   0  0  0  0  0  0  0  0  0  0  0  0
   -2.8830   -1.0846    1.7689 H   0  0  0  0  0  0  0  0  0  0  0  0
   -4.2655   -1.9313    1.0827 H   0  0  0  0  0  0  0  0  0  0  0  0
   -0.2949   -0.3629   -1.4348 H   0  0  0  0  0  0  0  0  0  0  0  0
   -1.7127   -1.1965   -2.0852 H   0  0  0  0  0  0  0  0  0  0  0  0
   -2.1877   -3.2910    0.9340 H   0  0  0  0  0  0  0  0  0  0  0  0
   -2.8464   -2.9441   -0.6684 H   0  0  0  0  0  0  0  0  0  0  0  0
   -2.1462    1.7719    1.0300 H   0  0  0  0  0  0  0  0  0  0  0  0
   -1.0169    0.4556    1.2077 H   0  0  0  0  0  0  0  0  0  0  0  0
   -4.4152    1.6995   -0.0878 H   0  0  0  0  0  0  0  0  0  0  0  0
   -4.2167    0.9589    1.5243 H   0  0  0  0  0  0  0  0  0  0  0  0
    2.3997   -1.9159    1.5346 H   0  0  0  0  0  0  0  0  0  0  0  0
    3.0994   -1.2686    0.0314 H   0  0  0  0  0  0  0  0  0  0  0  0
    1.8720   -1.6301   -2.1447 H   0  0  0  0  0  0  0  0  0  0  0  0
    0.3869   -2.6168   -2.1217 H   0  0  0  0  0  0  0  0  0  0  0  0
    1.2281    2.5506   -2.7237 H   0  0  0  0  0  0  0  0  0  0  0  0
    2.0535    4.0474   -2.2463 H   0  0  0  0  0  0  0  0  0  0  0  0
   -0.4230    4.3440   -2.4754 H   0  0  0  0  0  0  0  0  0  0  0  0
    0.1539    4.7531   -0.8617 H   0  0  0  0  0  0  0  0  0  0  0  0
    2.7758   -4.2544    0.6801 H   0  0  0  0  0  0  0  0  0  0  0  0
    4.2915   -3.3362    0.6783 H   0  0  0  0  0  0  0  0  0  0  0  0
    2.3709   -3.9450   -2.8836 H   0  0  0  0  0  0  0  0  0  0  0  0
    1.6568   -4.6177   -1.4098 H   0  0  0  0  0  0  0  0  0  0  0  0
    0.7614    0.7975    2.0146 H   0  0  0  0  0  0  0  0  0  0  0  0
    3.9689    2.8930   -1.1480 H   0  0  0  0  0  0  0  0  0  0  0  0
   -7.6536    0.9958    0.9560 H   0  0  0  0  0  0  0  0  0  0  0  0
    3.0877    0.6026    2.4190 H   0  0  0  0  0  0  0  0  0  0  0  0
    5.0933    1.3853    2.9669 H   0  0  0  0  0  0  0  0  0  0  0  0
    5.1373   -0.1469    1.9868 H   0  0  0  0  0  0  0  0  0  0  0  0
    6.5379    0.9151    2.0780 H   0  0  0  0  0  0  0  0  0  0  0  0
  1 17  2  0  0  0  0
  2 18  1  0  0  0  0
  2 58  1  0  0  0  0
  3 25  1  0  0  0  0
  3 26  1  0  0  0  0
  4 18  2  0  0  0  0
  5 30  1  0  0  0  0
  5 31  1  0  0  0  0
  6 12  1  0  0  0  0
  6 13  1  0  0  0  0
  6 17  1  0  0  0  0
  7 17  1  0  0  0  0
  7 20  1  0  0  0  0
  7 21  1  0  0  0  0
  8 16  2  0  0  0  0
  8 24  1  0  0  0  0
  9 10  1  0  0  0  0
  9 12  1  0  0  0  0
  9 14  1  0  0  0  0
  9 32  1  0  0  0  0
 10 11  1  0  0  0  0
 10 15  1  0  0  0  0
 10 33  1  0  0  0  0
 11 13  1  0  0  0  0
 11 34  1  0  0  0  0
 11 35  1  0  0  0  0
 12 36  1  0  0  0  0
 12 37  1  0  0  0  0
 13 38  1  0  0  0  0
 13 39  1  0  0  0  0
 14 16  1  0  0  0  0
 14 40  1  0  0  0  0
 14 41  1  0  0  0  0
 15 18  1  0  0  0  0
 15 42  1  0  0  0  0
 15 43  1  0  0  0  0
 16 19  1  0  0  0  0
 19 22  2  0  0  0  0
 19 27  1  0  0  0  0
 20 25  1  0  0  0  0
 20 44  1  0  0  0  0
 20 45  1  0  0  0  0
 21 26  1  0  0  0  0
 21 46  1  0  0  0  0
 21 47  1  0  0  0  0
 22 23  1  0  0  0  0
 22 28  1  0  0  0  0
 23 24  1  0  0  0  0
 23 48  1  0  0  0  0
 23 49  1  0  0  0  0
 24 50  1  0  0  0  0
 24 51  1  0  0  0  0
 25 52  1  0  0  0  0
 25 53  1  0  0  0  0
 26 54  1  0  0  0  0
 26 55  1  0  0  0  0
 27 29  2  0  0  0  0
 27 56  1  0  0  0  0
 28 30  2  0  0  0  0
 28 57  1  0  0  0  0
 29 30  1  0  0  0  0
 29 59  1  0  0  0  0
 31 60  1  0  0  0  0
 31 61  1  0  0  0  0
 31 62  1  0  0  0  0
M  END
> <PUBCHEM_COMPOUND_CID>
51136661

> <PUBCHEM_CONFORMER_RMSD>
1

> <PUBCHEM_CONFORMER_DIVERSEORDER>
1
111
6
119
191
132
172
125
123
56
17
38
185
23
215
177
213
139
82
224
196
140
165
175
128
212
34
98
214
181
205
29
25
93
87
78
187
94
157
211
28
20
222
5
161
189
201
21
218
217
203
159
116
75
136
204
173
50
131
73
168
227
59
16
228
164
33
109
120
62
208
54
174
176
133
193
190
55
84
61
210
31
37
188
77
209
9
86
35
18
198
220
206
53
184
118
22
160
170
142
30
148
79
126
68
70
153
202
129
167
14
47
147
166
92
85
200
44
26
52
179
110
195
3
154
145
146
100
96
88
117
57
178
199
143
155
43
138
158
216
4
101
90
81
171
186
83
12
42
13
95
91
151
51
63
106
112
141
169
39
27
67
122
219
223
180
99
46
137
104
114
15
124
36
40
226
107
89
66
135
41
49
58
192
134
45
60
2
152
10
221
225
144
11
113
19
105
149
156
115
71
162
102
7
108
74
80
32
72
24
8
197
121
103
194
64
127
229
76
69
130
163
97
65
150
183
207
48
182

> <PUBCHEM_MMFF94_PARTIAL_CHARGES>
32
1 -0.57
12 0.3
13 0.3
14 0.06
15 0.06
16 0.3
17 0.69
18 0.66
19 0.09
2 -0.65
20 0.3
21 0.3
22 -0.14
23 0.14
24 0.25
25 0.28
26 0.28
27 -0.15
28 -0.15
29 -0.15
3 -0.56
30 0.08
31 0.28
4 -0.57
5 -0.36
56 0.15
57 0.15
58 0.5
59 0.15
6 -0.66
7 -0.66
8 -0.7

> <PUBCHEM_EFFECTIVE_ROTOR_COUNT>
9.8

> <PUBCHEM_PHARMACOPHORE_FEATURES>
11
1 1 acceptor
1 2 acceptor
1 3 acceptor
1 4 acceptor
1 5 acceptor
1 8 acceptor
3 2 4 18 anion
6 19 22 27 28 29 30 rings
6 3 7 20 21 25 26 rings
6 6 9 10 11 12 13 rings
6 8 16 19 22 23 24 rings

> <PUBCHEM_HEAVY_ATOM_COUNT>
31

> <PUBCHEM_ATOM_DEF_STEREO_COUNT>
2

> <PUBCHEM_ATOM_UDEF_STEREO_COUNT>
0

> <PUBCHEM_BOND_DEF_STEREO_COUNT>
0

> <PUBCHEM_BOND_UDEF_STEREO_COUNT>
0

> <PUBCHEM_ISOTOPIC_ATOM_COUNT>
0

> <PUBCHEM_COMPONENT_COUNT>
1

> <PUBCHEM_CACTVS_TAUTO_COUNT>
1

> <PUBCHEM_CONFORMER_ID>
030C489500000001

> <PUBCHEM_MMFF94_ENERGY>
91.4955

> <PUBCHEM_FEATURE_SELFOVERLAP>
55.908

> <PUBCHEM_SHAPE_FINGERPRINT>
11513181 2 17989204820182983543
11578080 2 17387390386299589135
12422481 6 18339344302516901594
12633257 1 17895745330909578529
12741549 16 17271999853278775818
12788726 201 17755882825987724571
13140716 1 18122340443899609801
133893 2 18124631684455360201
14725015 67 18119243956930711659
14790565 3 18049166871129034325
15081414 286 18408605846954418957
15403338 16 17315041503247924794
15420108 30 18130494340611279318
15664445 248 18261971720504684332
15840311 113 17986962839361005609
16110190 28 18117829122369518696
17093844 170 18410862087727280580
17980427 26 17058054883538680672
1979834 28 18412826906073076160
20691752 17 18115887229619522289
20739085 24 18337681810860675249
20905425 154 18411133598522101014
22113638 7 17977370965690729692
22182313 1 18189885431869113021
23559900 14 18337686243230157655
3411729 13 18412546513602112891
3493558 16 16984071817344373355
4017518 198 18058178400601542126
4093350 32 17275112699487388447
5104073 3 18270414823930087059
513532 50 17846789502415272236
5265222 85 17979648049982921380
59755656 215 18412829079326709504
6287921 2 18130501938218300686

> <PUBCHEM_SHAPE_MULTIPOLES>
593.68
10.2
5.27
1.64
12.84
1.73
-0.18
-1.56
4.81
-5.12
-2.77
-1.49
-0.11
1.05

> <PUBCHEM_SHAPE_SELFOVERLAP>
1255.137

> <PUBCHEM_SHAPE_VOLUME>
328.2

> <PUBCHEM_COORDINATE_TYPE>
2
5
10

$$$$
