40779501
  -OEChem-12032416163D

 69 73  0     1  0  0  0  0  0999 V2000
   -1.5454   -1.5516   -1.4035 O   0  0  0  0  0  0  0  0  0  0  0  0
   -3.5804   -5.3363    1.0494 O   0  0  0  0  0  0  0  0  0  0  0  0
    3.4715   -2.9382   -0.3793 O   0  0  0  0  0  0  0  0  0  0  0  0
    6.1201   -2.2773    0.1413 O   0  0  0  0  0  0  0  0  0  0  0  0
   -3.3593    3.0245   -0.7206 N   0  0  2  0  0  0  0  0  0  0  0  0
    1.3381    3.6038   -0.2237 N   0  0  0  0  0  0  0  0  0  0  0  0
   -3.6292   -0.7349   -0.8982 N   0  0  0  0  0  0  0  0  0  0  0  0
    2.5101    2.9544   -0.3260 N   0  0  0  0  0  0  0  0  0  0  0  0
   -3.0955   -2.9954   -0.4583 N   0  0  0  0  0  0  0  0  0  0  0  0
   -1.9987    2.6731    1.4722 C   0  0  2  0  0  0  0  0  0  0  0  0
   -1.1118    3.3362    0.3823 C   0  0  2  0  0  0  0  0  0  0  0  0
   -3.5164    1.6251   -0.2437 C   0  0  2  0  0  0  0  0  0  0  0  0
   -2.5582    1.3398    0.9327 C   0  0  0  0  0  0  0  0  0  0  0  0
   -3.2029    3.6120    1.6983 C   0  0  0  0  0  0  0  0  0  0  0  0
   -1.9236    3.3271   -0.9445 C   0  0  0  0  0  0  0  0  0  0  0  0
   -3.8617    3.9263    0.3437 C   0  0  0  0  0  0  0  0  0  0  0  0
   -3.3550    0.6035   -1.3713 C   0  0  0  0  0  0  0  0  0  0  0  0
    0.3062    2.8162    0.1952 C   0  0  0  0  0  0  0  0  0  0  0  0
    0.8405    1.5643    0.3792 C   0  0  0  0  0  0  0  0  0  0  0  0
    2.2000    1.7089    0.0436 C   0  0  0  0  0  0  0  0  0  0  0  0
    1.2790    5.0092   -0.5528 C   0  0  0  0  0  0  0  0  0  0  0  0
   -2.6776   -1.7468   -0.9492 C   0  0  0  0  0  0  0  0  0  0  0  0
    3.2070    0.6803    0.0677 C   0  0  0  0  0  0  0  0  0  0  0  0
   -2.1587   -4.1212   -0.4804 C   0  0  0  0  0  0  0  0  0  0  0  0
   -4.4602   -3.3514   -0.0443 C   0  0  0  0  0  0  0  0  0  0  0  0
    2.8533   -0.6478   -0.1698 C   0  0  0  0  0  0  0  0  0  0  0  0
    4.5364    1.0119    0.3293 C   0  0  0  0  0  0  0  0  0  0  0  0
   -2.2347   -4.9191    0.8118 C   0  0  0  0  0  0  0  0  0  0  0  0
   -4.4383   -4.2072    1.2178 C   0  0  0  0  0  0  0  0  0  0  0  0
    3.8289   -1.6445   -0.1459 C   0  0  0  0  0  0  0  0  0  0  0  0
    5.5120    0.0151    0.3535 C   0  0  0  0  0  0  0  0  0  0  0  0
    5.1582   -1.3130    0.1158 C   0  0  0  0  0  0  0  0  0  0  0  0
    2.0921   -3.1926   -0.6387 C   0  0  0  0  0  0  0  0  0  0  0  0
    7.4544   -1.8543    0.4162 C   0  0  0  0  0  0  0  0  0  0  0  0
   -1.4441    2.5159    2.4033 H   0  0  0  0  0  0  0  0  0  0  0  0
   -1.0062    4.3863    0.6942 H   0  0  0  0  0  0  0  0  0  0  0  0
   -4.5470    1.5104    0.1246 H   0  0  0  0  0  0  0  0  0  0  0  0
   -1.7529    0.6668    0.6372 H   0  0  0  0  0  0  0  0  0  0  0  0
   -3.1121    0.8306    1.7318 H   0  0  0  0  0  0  0  0  0  0  0  0
   -2.8789    4.5422    2.1795 H   0  0  0  0  0  0  0  0  0  0  0  0
   -3.9268    3.1347    2.3700 H   0  0  0  0  0  0  0  0  0  0  0  0
   -1.8431    4.3134   -1.4205 H   0  0  0  0  0  0  0  0  0  0  0  0
   -1.4945    2.6319   -1.6751 H   0  0  0  0  0  0  0  0  0  0  0  0
   -4.9514    3.8344    0.4292 H   0  0  0  0  0  0  0  0  0  0  0  0
   -3.6762    4.9711    0.0639 H   0  0  0  0  0  0  0  0  0  0  0  0
   -2.3589    0.6449   -1.8211 H   0  0  0  0  0  0  0  0  0  0  0  0
   -4.0810    0.8067   -2.1670 H   0  0  0  0  0  0  0  0  0  0  0  0
    0.3359    0.6755    0.7243 H   0  0  0  0  0  0  0  0  0  0  0  0
   -4.5754   -0.9114   -0.5930 H   0  0  0  0  0  0  0  0  0  0  0  0
    1.0585    5.5686    0.3594 H   0  0  0  0  0  0  0  0  0  0  0  0
    2.2436    5.3289   -0.9566 H   0  0  0  0  0  0  0  0  0  0  0  0
    0.5021    5.1629   -1.3049 H   0  0  0  0  0  0  0  0  0  0  0  0
   -1.1340   -3.7798   -0.6543 H   0  0  0  0  0  0  0  0  0  0  0  0
   -2.4539   -4.7496   -1.3292 H   0  0  0  0  0  0  0  0  0  0  0  0
   -4.8874   -3.9246   -0.8756 H   0  0  0  0  0  0  0  0  0  0  0  0
   -5.1007   -2.4885    0.1294 H   0  0  0  0  0  0  0  0  0  0  0  0
    1.8119   -0.8617   -0.3839 H   0  0  0  0  0  0  0  0  0  0  0  0
    4.8405    2.0372    0.5266 H   0  0  0  0  0  0  0  0  0  0  0  0
   -1.6120   -5.8159    0.7373 H   0  0  0  0  0  0  0  0  0  0  0  0
   -1.8784   -4.3328    1.6671 H   0  0  0  0  0  0  0  0  0  0  0  0
   -4.1033   -3.6253    2.0849 H   0  0  0  0  0  0  0  0  0  0  0  0
   -5.4445   -4.5789    1.4353 H   0  0  0  0  0  0  0  0  0  0  0  0
    6.5231    0.3455    0.5650 H   0  0  0  0  0  0  0  0  0  0  0  0
    1.9882   -4.2712   -0.7973 H   0  0  0  0  0  0  0  0  0  0  0  0
    1.7567   -2.7040   -1.5600 H   0  0  0  0  0  0  0  0  0  0  0  0
    1.4643   -2.9383    0.2223 H   0  0  0  0  0  0  0  0  0  0  0  0
    8.0860   -2.7486    0.3973 H   0  0  0  0  0  0  0  0  0  0  0  0
    7.5427   -1.4242    1.4197 H   0  0  0  0  0  0  0  0  0  0  0  0
    7.8327   -1.1816   -0.3609 H   0  0  0  0  0  0  0  0  0  0  0  0
  1 22  2  0  0  0  0
  2 28  1  0  0  0  0
  2 29  1  0  0  0  0
  3 30  1  0  0  0  0
  3 33  1  0  0  0  0
  4 32  1  0  0  0  0
  4 34  1  0  0  0  0
  5 12  1  0  0  0  0
  5 15  1  0  0  0  0
  5 16  1  0  0  0  0
  6  8  1  0  0  0  0
  6 18  1  0  0  0  0
  6 21  1  0  0  0  0
  7 17  1  0  0  0  0
  7 22  1  0  0  0  0
  7 49  1  0  0  0  0
  8 20  2  0  0  0  0
  9 22  1  0  0  0  0
  9 24  1  0  0  0  0
  9 25  1  0  0  0  0
 10 11  1  0  0  0  0
 10 13  1  0  0  0  0
 10 14  1  0  0  0  0
 10 35  1  0  0  0  0
 11 15  1  0  0  0  0
 11 18  1  0  0  0  0
 11 36  1  0  0  0  0
 12 13  1  0  0  0  0
 12 17  1  0  0  0  0
 12 37  1  0  0  0  0
 13 38  1  0  0  0  0
 13 39  1  0  0  0  0
 14 16  1  0  0  0  0
 14 40  1  0  0  0  0
 14 41  1  0  0  0  0
 15 42  1  0  0  0  0
 15 43  1  0  0  0  0
 16 44  1  0  0  0  0
 16 45  1  0  0  0  0
 17 46  1  0  0  0  0
 17 47  1  0  0  0  0
 18 19  2  0  0  0  0
 19 20  1  0  0  0  0
 19 48  1  0  0  0  0
 20 23  1  0  0  0  0
 21 50  1  0  0  0  0
 21 51  1  0  0  0  0
 21 52  1  0  0  0  0
 23 26  2  0  0  0  0
 23 27  1  0  0  0  0
 24 28  1  0  0  0  0
 24 53  1  0  0  0  0
 24 54  1  0  0  0  0
 25 29  1  0  0  0  0
 25 55  1  0  0  0  0
 25 56  1  0  0  0  0
 26 30  1  0  0  0  0
 26 57  1  0  0  0  0
 27 31  2  0  0  0  0
 27 58  1  0  0  0  0
 28 59  1  0  0  0  0
 28 60  1  0  0  0  0
 29 61  1  0  0  0  0
 29 62  1  0  0  0  0
 30 32  2  0  0  0  0
 31 32  1  0  0  0  0
 31 63  1  0  0  0  0
 33 64  1  0  0  0  0
 33 65  1  0  0  0  0
 33 66  1  0  0  0  0
 34 67  1  0  0  0  0
 34 68  1  0  0  0  0
 34 69  1  0  0  0  0
M  END
> <PUBCHEM_COMPOUND_CID>
40779501

> <PUBCHEM_CONFORMER_RMSD>
1

> <PUBCHEM_CONFORMER_DIVERSEORDER>
1
41
74
9
37
7
32
73
20
57
55
52
79
103
42
104
30
66
59
92
40
19
63
44
106
91
88
96
62
36
84
12
87
99
43
85
54
8
10
51
102
17
65
33
64
98
78
82
26
5
23
101
45
107
81
95
69
13
31
49
60
15
105
90
72
34
71
4
70
38
86
27
94
76
89
53
80
21
29
75
97
39
11
16
14
93
61
50
6
48
28
18
24
47
56
58
83
46
2
100
35
25
67
3
22
68
77

> <PUBCHEM_MMFF94_PARTIAL_CHARGES>
36
1 -0.57
11 0.18
12 0.27
15 0.27
16 0.27
17 0.3
18 -0.33
19 -0.15
2 -0.56
20 0.23
21 0.26
22 0.69
23 0.05
24 0.3
25 0.3
26 -0.15
27 -0.15
28 0.28
29 0.28
3 -0.36
30 0.08
31 -0.15
32 0.08
33 0.28
34 0.28
4 -0.36
48 0.15
49 0.37
5 -0.81
57 0.15
58 0.15
6 0.31
63 0.15
7 -0.73
8 -0.71
9 -0.66

> <PUBCHEM_EFFECTIVE_ROTOR_COUNT>
10.4

> <PUBCHEM_PHARMACOPHORE_FEATURES>
11
1 1 acceptor
1 2 acceptor
1 3 acceptor
1 4 acceptor
1 5 cation
1 7 donor
1 8 acceptor
5 6 8 18 19 20 rings
6 2 9 24 25 28 29 rings
6 23 26 27 30 31 32 rings
8 5 10 11 12 13 14 15 16 rings

> <PUBCHEM_HEAVY_ATOM_COUNT>
34

> <PUBCHEM_ATOM_DEF_STEREO_COUNT>
3

> <PUBCHEM_ATOM_UDEF_STEREO_COUNT>
0

> <PUBCHEM_BOND_DEF_STEREO_COUNT>
0

> <PUBCHEM_BOND_UDEF_STEREO_COUNT>
0

> <PUBCHEM_ISOTOPIC_ATOM_COUNT>
0

> <PUBCHEM_COMPONENT_COUNT>
1

> <PUBCHEM_CACTVS_TAUTO_COUNT>
2

> <PUBCHEM_CONFORMER_ID>
026E3EED00000001

> <PUBCHEM_MMFF94_ENERGY>
101.3029

> <PUBCHEM_FEATURE_SELFOVERLAP>
55.828

> <PUBCHEM_SHAPE_FINGERPRINT>
10190108 129 17833285481113580768
10290309 65 17617096906536476644
10319688 45 18337666400676694976
11014199 57 18337673130283078324
11135609 12 18266170815413738577
11285246 1 18041835233157757635
117089 54 18120940765555519379
11756154 5 18409724080065057067
12107183 9 17908722949169811931
13560911 43 18117835719143737178
1361 2 18051412860326286777
14659021 117 18337379483522200920
14856354 85 18339925914372366422
14866123 147 18413389831074267089
15320467 1 18338796697917755846
15400415 2 17906452126518983368
15483637 11 18410856542560621434
15728490 83 18409169938889366338
16112460 7 17697881363224418922
16719943 64 18195240023046443382
16993438 75 18335709312158722594
17492 89 18266455584551087504
17627616 140 17688868631914968879
17909252 39 18122906701088398464
19311894 1 18337388240939743050
20775530 9 18121770892607198271
23466295 7 18409167740308754241
325973 47 18194960970500047895
3383291 50 18339079290255318139
3737641 26 17834682973577540173
4394409 98 17610582399089383303
4435113 14 17773328837900783454
4616759 239 17987219055455161720
463206 1 18339361868801675384
5309563 4 17979637063197868351
5912855 24 18196667408705297137
613672 6 17979609528051237683

> <PUBCHEM_SHAPE_MULTIPOLES>
651.32
12.5
8.7
1.14
19.68
4.36
-0.12
9.48
-1.58
-10.6
-1.38
-1.26
-0.09
0.16

> <PUBCHEM_SHAPE_SELFOVERLAP>
1392.824

> <PUBCHEM_SHAPE_VOLUME>
358.5

> <PUBCHEM_COORDINATE_TYPE>
2
5
10

$$$$
