40780906
  -OEChem-12032416383D

 68 71  0     1  0  0  0  0  0999 V2000
   -0.2390    0.6519    2.3840 O   0  0  0  0  0  0  0  0  0  0  0  0
   -1.9170    3.1391    1.5270 O   0  0  0  0  0  0  0  0  0  0  0  0
   -5.2761    0.4147    1.3072 O   0  0  0  0  0  0  0  0  0  0  0  0
   -7.6101   -2.1165   -2.1502 O   0  0  0  0  0  0  0  0  0  0  0  0
   -7.5802   -0.7043   -0.3743 O   0  0  0  0  0  0  0  0  0  0  0  0
   -3.1039   -0.3183    1.6686 N   0  0  0  0  0  0  0  0  0  0  0  0
    0.4677    2.8711   -0.4276 N   0  0  0  0  0  0  0  0  0  0  0  0
    2.3132    1.4790   -0.6547 N   0  0  0  0  0  0  0  0  0  0  0  0
    1.4734    2.7563   -2.5177 N   0  0  0  0  0  0  0  0  0  0  0  0
    6.8404   -2.6530    0.9456 N   0  0  0  0  0  0  0  0  0  0  0  0
   -1.9374    1.7560    1.1369 C   0  0  1  0  0  0  0  0  0  0  0  0
   -0.5005    1.2724    1.1139 C   0  0  1  0  0  0  0  0  0  0  0  0
   -2.5909    0.9166    2.2109 C   0  0  2  0  0  0  0  0  0  0  0  0
    0.3128    2.5372    0.9714 C   0  0  2  0  0  0  0  0  0  0  0  0
   -1.4407    0.6614    3.1687 C   0  0  0  0  0  0  0  0  0  0  0  0
   -0.5552    3.5711    1.6649 C   0  0  0  0  0  0  0  0  0  0  0  0
   -4.4185   -0.4646    1.2585 C   0  0  0  0  0  0  0  0  0  0  0  0
   -4.7240   -1.8525    0.7179 C   0  0  0  0  0  0  0  0  0  0  0  0
   -4.5748   -1.9998   -0.8178 C   0  0  0  0  0  0  0  0  0  0  0  0
    1.4622    2.3466   -1.2349 C   0  0  0  0  0  0  0  0  0  0  0  0
   -5.5283   -1.0706   -1.6064 C   0  0  0  0  0  0  0  0  0  0  0  0
   -3.1293   -1.6775   -1.2517 C   0  0  0  0  0  0  0  0  0  0  0  0
   -4.8482   -3.4745   -1.1824 C   0  0  0  0  0  0  0  0  0  0  0  0
   -6.9975   -1.2580   -1.2976 C   0  0  0  0  0  0  0  0  0  0  0  0
    3.2670    0.9850   -1.4713 C   0  0  0  0  0  0  0  0  0  0  0  0
    2.4528    2.2231   -3.2771 C   0  0  0  0  0  0  0  0  0  0  0  0
    3.3866    1.3240   -2.8036 C   0  0  0  0  0  0  0  0  0  0  0  0
    4.1811    0.0546   -0.8534 C   0  0  0  0  0  0  0  0  0  0  0  0
    5.5469    0.3357   -0.8213 C   0  0  0  0  0  0  0  0  0  0  0  0
    3.6985   -1.1256   -0.2876 C   0  0  0  0  0  0  0  0  0  0  0  0
    6.4303   -0.5633   -0.2239 C   0  0  0  0  0  0  0  0  0  0  0  0
    4.5818   -2.0248    0.3098 C   0  0  0  0  0  0  0  0  0  0  0  0
    5.9477   -1.7436    0.3417 C   0  0  0  0  0  0  0  0  0  0  0  0
    8.2616   -2.3706    0.9840 C   0  0  0  0  0  0  0  0  0  0  0  0
    6.3479   -3.8785    1.5428 C   0  0  0  0  0  0  0  0  0  0  0  0
   -2.4247    1.6988    0.1583 H   0  0  0  0  0  0  0  0  0  0  0  0
   -0.3201    0.5179    0.3415 H   0  0  0  0  0  0  0  0  0  0  0  0
   -3.4056    1.4416    2.7214 H   0  0  0  0  0  0  0  0  0  0  0  0
    1.2872    2.4948    1.4716 H   0  0  0  0  0  0  0  0  0  0  0  0
   -1.3477    1.4765    3.8947 H   0  0  0  0  0  0  0  0  0  0  0  0
   -1.5230   -0.2814    3.7181 H   0  0  0  0  0  0  0  0  0  0  0  0
   -0.3356    3.6091    2.7376 H   0  0  0  0  0  0  0  0  0  0  0  0
   -0.4534    4.5823    1.2589 H   0  0  0  0  0  0  0  0  0  0  0  0
   -2.4547   -1.0888    1.5375 H   0  0  0  0  0  0  0  0  0  0  0  0
   -0.2082    3.4824   -0.8716 H   0  0  0  0  0  0  0  0  0  0  0  0
   -4.0681   -2.5741    1.2236 H   0  0  0  0  0  0  0  0  0  0  0  0
   -5.7404   -2.1116    1.0389 H   0  0  0  0  0  0  0  0  0  0  0  0
   -5.2918   -0.0150   -1.4231 H   0  0  0  0  0  0  0  0  0  0  0  0
   -5.3912   -1.2086   -2.6874 H   0  0  0  0  0  0  0  0  0  0  0  0
   -2.8873   -0.6197   -1.1054 H   0  0  0  0  0  0  0  0  0  0  0  0
   -2.4023   -2.2732   -0.6882 H   0  0  0  0  0  0  0  0  0  0  0  0
   -2.9806   -1.8967   -2.3156 H   0  0  0  0  0  0  0  0  0  0  0  0
   -5.8377   -3.7971   -0.8412 H   0  0  0  0  0  0  0  0  0  0  0  0
   -4.1108   -4.1391   -0.7175 H   0  0  0  0  0  0  0  0  0  0  0  0
   -4.7987   -3.6315   -2.2658 H   0  0  0  0  0  0  0  0  0  0  0  0
    2.4660    2.5485   -4.3118 H   0  0  0  0  0  0  0  0  0  0  0  0
    4.1528    0.9187   -3.4529 H   0  0  0  0  0  0  0  0  0  0  0  0
   -8.5600   -2.2317   -1.9341 H   0  0  0  0  0  0  0  0  0  0  0  0
    5.9425    1.2529   -1.2516 H   0  0  0  0  0  0  0  0  0  0  0  0
    2.6371   -1.3628   -0.3057 H   0  0  0  0  0  0  0  0  0  0  0  0
    7.4830   -0.2985   -0.2233 H   0  0  0  0  0  0  0  0  0  0  0  0
    4.1572   -2.9287    0.7349 H   0  0  0  0  0  0  0  0  0  0  0  0
    8.6758   -2.2850   -0.0268 H   0  0  0  0  0  0  0  0  0  0  0  0
    8.4676   -1.4520    1.5446 H   0  0  0  0  0  0  0  0  0  0  0  0
    8.8202   -3.1711    1.4818 H   0  0  0  0  0  0  0  0  0  0  0  0
    5.6515   -3.6677    2.3621 H   0  0  0  0  0  0  0  0  0  0  0  0
    5.8565   -4.5128    0.7966 H   0  0  0  0  0  0  0  0  0  0  0  0
    7.1609   -4.4753    1.9713 H   0  0  0  0  0  0  0  0  0  0  0  0
  1 12  1  0  0  0  0
  1 15  1  0  0  0  0
  2 11  1  0  0  0  0
  2 16  1  0  0  0  0
  3 17  2  0  0  0  0
  4 24  1  0  0  0  0
  4 58  1  0  0  0  0
  5 24  2  0  0  0  0
  6 13  1  0  0  0  0
  6 17  1  0  0  0  0
  6 44  1  0  0  0  0
  7 14  1  0  0  0  0
  7 20  1  0  0  0  0
  7 45  1  0  0  0  0
  8 20  1  0  0  0  0
  8 25  2  0  0  0  0
  9 20  2  0  0  0  0
  9 26  1  0  0  0  0
 10 33  1  0  0  0  0
 10 34  1  0  0  0  0
 10 35  1  0  0  0  0
 11 12  1  0  0  0  0
 11 13  1  0  0  0  0
 11 36  1  0  0  0  0
 12 14  1  0  0  0  0
 12 37  1  0  0  0  0
 13 15  1  0  0  0  0
 13 38  1  0  0  0  0
 14 16  1  0  0  0  0
 14 39  1  0  0  0  0
 15 40  1  0  0  0  0
 15 41  1  0  0  0  0
 16 42  1  0  0  0  0
 16 43  1  0  0  0  0
 17 18  1  0  0  0  0
 18 19  1  0  0  0  0
 18 46  1  0  0  0  0
 18 47  1  0  0  0  0
 19 21  1  0  0  0  0
 19 22  1  0  0  0  0
 19 23  1  0  0  0  0
 21 24  1  0  0  0  0
 21 48  1  0  0  0  0
 21 49  1  0  0  0  0
 22 50  1  0  0  0  0
 22 51  1  0  0  0  0
 22 52  1  0  0  0  0
 23 53  1  0  0  0  0
 23 54  1  0  0  0  0
 23 55  1  0  0  0  0
 25 27  1  0  0  0  0
 25 28  1  0  0  0  0
 26 27  2  0  0  0  0
 26 56  1  0  0  0  0
 27 57  1  0  0  0  0
 28 29  2  0  0  0  0
 28 30  1  0  0  0  0
 29 31  1  0  0  0  0
 29 59  1  0  0  0  0
 30 32  2  0  0  0  0
 30 60  1  0  0  0  0
 31 33  2  0  0  0  0
 31 61  1  0  0  0  0
 32 33  1  0  0  0  0
 32 62  1  0  0  0  0
 34 63  1  0  0  0  0
 34 64  1  0  0  0  0
 34 65  1  0  0  0  0
 35 66  1  0  0  0  0
 35 67  1  0  0  0  0
 35 68  1  0  0  0  0
M  END
> <PUBCHEM_COMPOUND_CID>
40780906

> <PUBCHEM_CONFORMER_RMSD>
1.2

> <PUBCHEM_CONFORMER_DIVERSEORDER>
1
15
143
98
93
7
47
99
69
123
23
41
51
100
25
140
121
157
146
82
40
131
71
13
145
134
154
84
4
141
105
60
96
144
101
153
80
118
79
91
167
117
87
76
14
165
104
30
128
160
111
88
77
89
166
159
114
46
83
106
94
37
135
156
102
158
136
53
155
85
122
49
148
68
33
113
92
28
31
108
115
90
32
162
125
119
78
110
130
95
152
61
132
36
138
97
74
55
137
72
52
142
109
35
164
73
29
126
127
16
18
133
161
149
62
56
67
10
163
86
5
147
65
66
50
150
22
107
9
17
8
120
20
151
43
54
57
59
48
81
58
64
24
139
70
75
129
27
103
124
26
12
34
45
19
63
2
3
116
42
39
112
11
38
44
21
6

> <PUBCHEM_MMFF94_PARTIAL_CHARGES>
40
1 -0.56
10 -0.84
11 0.28
12 0.28
13 0.3
14 0.37
15 0.28
16 0.28
17 0.57
18 0.06
2 -0.56
20 0.72
21 0.06
24 0.66
25 0.31
26 0.16
27 -0.15
29 -0.15
3 -0.57
30 -0.15
31 -0.15
32 -0.15
33 0.1
34 0.37
35 0.37
4 -0.65
44 0.37
45 0.4
5 -0.57
56 0.15
57 0.15
58 0.5
59 0.15
6 -0.73
60 0.15
61 0.15
62 0.15
7 -0.87
8 -0.62
9 -0.62

> <PUBCHEM_EFFECTIVE_ROTOR_COUNT>
11.2

> <PUBCHEM_PHARMACOPHORE_FEATURES>
16
1 1 acceptor
1 10 cation
1 2 acceptor
1 3 acceptor
1 4 acceptor
1 5 acceptor
1 6 donor
1 7 donor
1 8 acceptor
3 19 22 23 hydrophobe
3 4 5 24 anion
4 7 8 9 20 cation
5 1 11 12 13 15 rings
5 2 11 12 14 16 rings
6 28 29 30 31 32 33 rings
6 8 9 20 25 26 27 rings

> <PUBCHEM_HEAVY_ATOM_COUNT>
35

> <PUBCHEM_ATOM_DEF_STEREO_COUNT>
4

> <PUBCHEM_ATOM_UDEF_STEREO_COUNT>
0

> <PUBCHEM_BOND_DEF_STEREO_COUNT>
0

> <PUBCHEM_BOND_UDEF_STEREO_COUNT>
0

> <PUBCHEM_ISOTOPIC_ATOM_COUNT>
0

> <PUBCHEM_COMPONENT_COUNT>
1

> <PUBCHEM_CACTVS_TAUTO_COUNT>
6

> <PUBCHEM_CONFORMER_ID>
026E446A00000001

> <PUBCHEM_MMFF94_ENERGY>
115.0775

> <PUBCHEM_FEATURE_SELFOVERLAP>
81.963

> <PUBCHEM_SHAPE_FINGERPRINT>
10254770 206 18060410340107376215
10622 236 18334301933401603514
11135609 149 17968380147072796404
11135926 11 17170995632271803260
11211813 140 18343579634060594703
11410812 94 12973894706882835574
11720765 8 18261951963359794972
1200032 147 9151172074011358800
12373685 5 18342177786394114112
12758862 65 16845009129779661930
12977781 61 18198314369285488001
13782708 43 16155427335533997385
14068700 675 18344142588050111640
14340393 91 17895177897395702095
14508693 111 17773895261733413398
15163728 17 11963384163474731865
15183329 4 16370721539058634281
15320294 125 18343587326236389215
15350500 16 18272360971293890927
15419009 47 18042116562396321733
19304671 126 16081365314787517453
20156587 76 17969759970315580592
21136928 129 13398330427462837610
21223535 225 17168138988881956133
21315763 87 14333142892213136957
21458453 9 15123220104565766206
21585480 29 18341044126425269058
3986486 107 15936403420890332534
437795 139 18130507517791885001
437795 70 16008745801350643285
4394409 98 18202281403797566063
4408954 87 13973680672230735477
46194498 28 15503810578669111708
463206 1 18268164195587418891
4756261 7 14905613615055086174
50009960 94 16772087350331530639
5223283 242 16660362571644001853
613672 6 17131004199255666791
636783 160 18333736845483013716
6523845 18 15140973846327520801
6712543 237 17559681629300190466
96874 4 18413102861911816406

> <PUBCHEM_SHAPE_MULTIPOLES>
666.03
20.38
4.4
2.97
1.43
0.04
0.4
25.66
3.37
2.29
-0.19
-1
-1.7
-6.88

> <PUBCHEM_SHAPE_SELFOVERLAP>
1419.246

> <PUBCHEM_SHAPE_VOLUME>
369.8

> <PUBCHEM_COORDINATE_TYPE>
2
5
10

$$$$
