40780140
  -OEChem-12032416173D

 64 68  0     1  0  0  0  0  0999 V2000
   -1.3325    0.8703   -1.1514 O   0  0  0  0  0  0  0  0  0  0  0  0
    3.2262    2.9471   -0.7153 N   0  0  2  0  0  0  0  0  0  0  0  0
    4.1216   -1.7186   -0.4259 N   0  0  0  0  0  0  0  0  0  0  0  0
   -0.5321    2.9830   -0.6538 N   0  0  0  0  0  0  0  0  0  0  0  0
    3.5392   -2.9254   -0.5292 N   0  0  0  0  0  0  0  0  0  0  0  0
   -2.6893    2.4339   -0.0448 N   0  0  0  0  0  0  0  0  0  0  0  0
   -5.4340   -2.7247   -0.9552 N   0  0  0  0  0  0  0  0  0  0  0  0
    3.1008    1.4965    1.4441 C   0  0  2  0  0  0  0  0  0  0  0  0
    3.7450    0.6892    0.2833 C   0  0  2  0  0  0  0  0  0  0  0  0
    1.8537    3.0000   -0.1465 C   0  0  2  0  0  0  0  0  0  0  0  0
    1.7038    1.9880    1.0097 C   0  0  0  0  0  0  0  0  0  0  0  0
    3.6007    1.5415   -1.0099 C   0  0  0  0  0  0  0  0  0  0  0  0
    3.9773    2.7498    1.6548 C   0  0  0  0  0  0  0  0  0  0  0  0
    4.1626    3.4707    0.3081 C   0  0  0  0  0  0  0  0  0  0  0  0
    3.3012   -0.7520    0.0774 C   0  0  0  0  0  0  0  0  0  0  0  0
    0.7730    2.8111   -1.2132 C   0  0  0  0  0  0  0  0  0  0  0  0
    2.0985   -1.3694    0.3200 C   0  0  0  0  0  0  0  0  0  0  0  0
    1.3081   -3.8433   -0.0221 C   0  0  0  0  0  0  0  0  0  0  0  0
    2.3035   -2.7058   -0.0719 C   0  0  0  0  0  0  0  0  0  0  0  0
    0.8173   -4.1352    1.4072 C   0  0  0  0  0  0  0  0  0  0  0  0
    0.0343   -3.6156   -0.8623 C   0  0  0  0  0  0  0  0  0  0  0  0
   -0.6404   -4.5368    1.2410 C   0  0  0  0  0  0  0  0  0  0  0  0
   -1.1232   -3.6218    0.1295 C   0  0  0  0  0  0  0  0  0  0  0  0
    5.4968   -1.5615   -0.8392 C   0  0  0  0  0  0  0  0  0  0  0  0
   -1.5189    1.9808   -0.6599 C   0  0  0  0  0  0  0  0  0  0  0  0
   -3.8996    1.7269    0.1456 C   0  0  0  0  0  0  0  0  0  0  0  0
   -4.0185    0.4124   -0.3057 C   0  0  0  0  0  0  0  0  0  0  0  0
   -4.9742    2.3444    0.7855 C   0  0  0  0  0  0  0  0  0  0  0  0
   -5.2120   -0.2846   -0.1173 C   0  0  0  0  0  0  0  0  0  0  0  0
   -6.1677    1.6474    0.9742 C   0  0  0  0  0  0  0  0  0  0  0  0
   -6.2867    0.3330    0.5227 C   0  0  0  0  0  0  0  0  0  0  0  0
   -5.3345   -1.6310   -0.5797 C   0  0  0  0  0  0  0  0  0  0  0  0
    3.0382    0.9031    2.3624 H   0  0  0  0  0  0  0  0  0  0  0  0
    4.8174    0.6399    0.5248 H   0  0  0  0  0  0  0  0  0  0  0  0
    1.7011    4.0090    0.2656 H   0  0  0  0  0  0  0  0  0  0  0  0
    1.0639    1.1514    0.7278 H   0  0  0  0  0  0  0  0  0  0  0  0
    1.2146    2.4822    1.8588 H   0  0  0  0  0  0  0  0  0  0  0  0
    4.5571    1.5387   -1.5493 H   0  0  0  0  0  0  0  0  0  0  0  0
    2.8869    1.0935   -1.7106 H   0  0  0  0  0  0  0  0  0  0  0  0
    4.9547    2.4696    2.0647 H   0  0  0  0  0  0  0  0  0  0  0  0
    3.5011    3.4198    2.3809 H   0  0  0  0  0  0  0  0  0  0  0  0
    4.0102    4.5491    0.4388 H   0  0  0  0  0  0  0  0  0  0  0  0
    5.1965    3.3608   -0.0431 H   0  0  0  0  0  0  0  0  0  0  0  0
    0.8414    1.8316   -1.6954 H   0  0  0  0  0  0  0  0  0  0  0  0
    0.8832    3.5701   -1.9962 H   0  0  0  0  0  0  0  0  0  0  0  0
    1.1960   -0.9430    0.7283 H   0  0  0  0  0  0  0  0  0  0  0  0
    1.8007   -4.7475   -0.4076 H   0  0  0  0  0  0  0  0  0  0  0  0
    0.8809   -3.2504    2.0520 H   0  0  0  0  0  0  0  0  0  0  0  0
    1.4043   -4.9271    1.8844 H   0  0  0  0  0  0  0  0  0  0  0  0
   -0.0870   -4.4493   -1.5653 H   0  0  0  0  0  0  0  0  0  0  0  0
    0.0518   -2.6938   -1.4529 H   0  0  0  0  0  0  0  0  0  0  0  0
   -0.7737    3.8923   -0.2719 H   0  0  0  0  0  0  0  0  0  0  0  0
   -1.2139   -4.4106    2.1637 H   0  0  0  0  0  0  0  0  0  0  0  0
   -0.7130   -5.5857    0.9305 H   0  0  0  0  0  0  0  0  0  0  0  0
   -2.0558   -3.9703   -0.3236 H   0  0  0  0  0  0  0  0  0  0  0  0
   -1.2898   -2.6098    0.5178 H   0  0  0  0  0  0  0  0  0  0  0  0
    6.0995   -1.3371    0.0441 H   0  0  0  0  0  0  0  0  0  0  0  0
    5.8471   -2.4903   -1.2977 H   0  0  0  0  0  0  0  0  0  0  0  0
    5.5552   -0.7520   -1.5699 H   0  0  0  0  0  0  0  0  0  0  0  0
   -2.6776    3.3860    0.3120 H   0  0  0  0  0  0  0  0  0  0  0  0
   -3.2214   -0.1200   -0.8069 H   0  0  0  0  0  0  0  0  0  0  0  0
   -4.8948    3.3682    1.1421 H   0  0  0  0  0  0  0  0  0  0  0  0
   -7.0044    2.1283    1.4726 H   0  0  0  0  0  0  0  0  0  0  0  0
   -7.2236   -0.1971    0.6771 H   0  0  0  0  0  0  0  0  0  0  0  0
  1 25  2  0  0  0  0
  2 10  1  0  0  0  0
  2 12  1  0  0  0  0
  2 14  1  0  0  0  0
  3  5  1  0  0  0  0
  3 15  1  0  0  0  0
  3 24  1  0  0  0  0
  4 16  1  0  0  0  0
  4 25  1  0  0  0  0
  4 52  1  0  0  0  0
  5 19  2  0  0  0  0
  6 25  1  0  0  0  0
  6 26  1  0  0  0  0
  6 60  1  0  0  0  0
  7 32  3  0  0  0  0
  8  9  1  0  0  0  0
  8 11  1  0  0  0  0
  8 13  1  0  0  0  0
  8 33  1  0  0  0  0
  9 12  1  0  0  0  0
  9 15  1  0  0  0  0
  9 34  1  0  0  0  0
 10 11  1  0  0  0  0
 10 16  1  0  0  0  0
 10 35  1  0  0  0  0
 11 36  1  0  0  0  0
 11 37  1  0  0  0  0
 12 38  1  0  0  0  0
 12 39  1  0  0  0  0
 13 14  1  0  0  0  0
 13 40  1  0  0  0  0
 13 41  1  0  0  0  0
 14 42  1  0  0  0  0
 14 43  1  0  0  0  0
 15 17  2  0  0  0  0
 16 44  1  0  0  0  0
 16 45  1  0  0  0  0
 17 19  1  0  0  0  0
 17 46  1  0  0  0  0
 18 19  1  0  0  0  0
 18 20  1  0  0  0  0
 18 21  1  0  0  0  0
 18 47  1  0  0  0  0
 20 22  1  0  0  0  0
 20 48  1  0  0  0  0
 20 49  1  0  0  0  0
 21 23  1  0  0  0  0
 21 50  1  0  0  0  0
 21 51  1  0  0  0  0
 22 23  1  0  0  0  0
 22 53  1  0  0  0  0
 22 54  1  0  0  0  0
 23 55  1  0  0  0  0
 23 56  1  0  0  0  0
 24 57  1  0  0  0  0
 24 58  1  0  0  0  0
 24 59  1  0  0  0  0
 26 27  1  0  0  0  0
 26 28  2  0  0  0  0
 27 29  2  0  0  0  0
 27 61  1  0  0  0  0
 28 30  1  0  0  0  0
 28 62  1  0  0  0  0
 29 31  1  0  0  0  0
 29 32  1  0  0  0  0
 30 31  2  0  0  0  0
 30 63  1  0  0  0  0
 31 64  1  0  0  0  0
M  END
> <PUBCHEM_COMPOUND_CID>
40780140

> <PUBCHEM_CONFORMER_RMSD>
1.2

> <PUBCHEM_CONFORMER_DIVERSEORDER>
1
29
108
125
127
59
80
120
130
45
90
67
118
50
100
27
79
135
8
60
47
64
140
133
14
26
17
111
97
30
119
55
38
35
114
89
42
68
73
61
112
128
39
121
56
36
31
142
63
74
116
91
71
69
106
57
117
101
129
88
58
43
96
6
32
21
66
93
22
37
65
75
138
10
46
113
141
107
9
124
98
137
94
83
122
13
126
102
11
48
87
24
49
40
15
52
44
78
85
81
20
76
105
18
134
103
51
62
4
53
70
82
104
109
25
77
19
34
16
23
95
7
115
72
2
28
41
99
54
139
12
110
131
123
86
132
5
84
92
33
3
136

> <PUBCHEM_MMFF94_PARTIAL_CHARGES>
32
1 -0.57
10 0.27
12 0.27
14 0.27
15 -0.33
16 0.3
17 -0.15
18 0.18
19 0.11
2 -0.81
24 0.26
25 0.69
26 0.12
27 -0.15
28 -0.15
29 0.07
3 0.31
30 -0.15
31 -0.15
32 0.48
4 -0.73
46 0.15
5 -0.71
52 0.37
6 -0.55
60 0.37
61 0.15
62 0.15
63 0.15
64 0.15
7 -0.56
9 0.18

> <PUBCHEM_EFFECTIVE_ROTOR_COUNT>
9.2

> <PUBCHEM_PHARMACOPHORE_FEATURES>
10
1 1 acceptor
1 2 cation
1 4 donor
1 5 acceptor
1 6 donor
1 7 acceptor
5 18 20 21 22 23 rings
5 3 5 15 17 19 rings
6 26 27 28 29 30 31 rings
8 2 8 9 10 11 12 13 14 rings

> <PUBCHEM_HEAVY_ATOM_COUNT>
32

> <PUBCHEM_ATOM_DEF_STEREO_COUNT>
3

> <PUBCHEM_ATOM_UDEF_STEREO_COUNT>
0

> <PUBCHEM_BOND_DEF_STEREO_COUNT>
0

> <PUBCHEM_BOND_UDEF_STEREO_COUNT>
0

> <PUBCHEM_ISOTOPIC_ATOM_COUNT>
0

> <PUBCHEM_COMPONENT_COUNT>
1

> <PUBCHEM_CACTVS_TAUTO_COUNT>
3

> <PUBCHEM_CONFORMER_ID>
026E416C00000001

> <PUBCHEM_MMFF94_ENERGY>
70.4366

> <PUBCHEM_FEATURE_SELFOVERLAP>
50.796

> <PUBCHEM_SHAPE_FINGERPRINT>
10316853 100 18408328778265760474
10816530 23 18122625225827293168
10864689 126 18051133592614619775
11136131 41 18334564781458917570
114674 6 18337107865548064960
11513181 2 18201443643960644207
12107183 9 17910404883658449801
12788726 201 17110170862990767204
12925494 130 17979913814096078153
13383661 66 17628088793342157214
13402501 40 18263369104998387763
1361 2 18408323311051811865
14863182 85 18334297578373993388
14904385 31 18192991736510621537
15001296 14 18336259128787207331
15110567 62 18336832978692529016
15320467 1 18266460906390152615
15968369 153 17767963495586963967
16112460 7 18411132580113724242
20764821 26 18335703861881776267
20775530 9 17761769564102763326
21133410 38 18271811272153432275
23559900 14 18266171743480264289
3117164 225 17982176617510539297
3246872 21 18266177240874638943
325973 47 18121221141341725475
338550 245 18410012169185564261
3737641 26 17977671904894859630
373842 8 18191869144240702083
394071 54 18127702517959145699
437795 70 18199488592370395462
5309563 4 18050006584400200197
5776283 40 18338530702888838478
653340 110 17692806403987125592
6609424 69 17541424483170590211
86090 222 18188219710296474827
9543594 6 18412823590474498047

> <PUBCHEM_SHAPE_MULTIPOLES>
622.79
13.25
6.78
1.23
18.03
5.58
0.23
-4.2
0.51
-3.21
0.83
-0.44
-0.11
-0.03

> <PUBCHEM_SHAPE_SELFOVERLAP>
1336.067

> <PUBCHEM_SHAPE_VOLUME>
340.3

> <PUBCHEM_COORDINATE_TYPE>
2
5
10

$$$$
