40780380
  -OEChem-12032416313D

 59 62  0     1  0  0  0  0  0999 V2000
   -4.2565   -0.2417   -0.3788 N   0  0  0  0  0  0  0  0  0  0  0  0
    2.5979   -0.5779    0.0226 N   0  0  0  0  0  0  0  0  0  0  0  0
    2.3746   -1.8622   -0.3043 N   0  0  0  0  0  0  0  0  0  0  0  0
   -6.7359    1.1030   -1.2043 N   0  0  0  0  0  0  0  0  0  0  0  0
   -1.0502   -0.4994    0.3472 C   0  0  2  0  0  0  0  0  0  0  0  0
   -1.8864   -0.7551   -0.9215 C   0  0  0  0  0  0  0  0  0  0  0  0
   -3.2450   -1.2905   -0.4387 C   0  0  1  0  0  0  0  0  0  0  0  0
    0.4252   -0.7626    0.1529 C   0  0  0  0  0  0  0  0  0  0  0  0
   -1.7191   -1.3899    1.3530 C   0  0  0  0  0  0  0  0  0  0  0  0
   -2.9143   -1.8106    0.9253 C   0  0  0  0  0  0  0  0  0  0  0  0
    1.4631    0.1240    0.3056 C   0  0  0  0  0  0  0  0  0  0  0  0
    1.0456   -1.9691   -0.2228 C   0  0  0  0  0  0  0  0  0  0  0  0
   -5.5903   -0.8095   -0.2297 C   0  0  0  0  0  0  0  0  0  0  0  0
    1.4665    1.5501    0.6905 C   0  0  0  0  0  0  0  0  0  0  0  0
    0.4037   -3.2627   -0.5164 C   0  0  0  0  0  0  0  0  0  0  0  0
    3.9036   -0.0867    0.0461 C   0  0  0  0  0  0  0  0  0  0  0  0
   -6.6487    0.2585   -0.1522 C   0  0  0  0  0  0  0  0  0  0  0  0
    4.2464    0.9436    0.9218 C   0  0  0  0  0  0  0  0  0  0  0  0
    4.8653   -0.6238   -0.8096 C   0  0  0  0  0  0  0  0  0  0  0  0
    6.5128    0.8995    0.0861 C   0  0  0  0  0  0  0  0  0  0  0  0
    7.9073    1.4277    0.1075 C   0  0  0  0  0  0  0  0  0  0  0  0
    5.5509    1.4366    0.9418 C   0  0  0  0  0  0  0  0  0  0  0  0
    6.1699   -0.1305   -0.7897 C   0  0  0  0  0  0  0  0  0  0  0  0
   -7.4653    0.3246    0.9653 C   0  0  0  0  0  0  0  0  0  0  0  0
    8.9360    0.3584    0.5216 C   0  0  0  0  0  0  0  0  0  0  0  0
    8.3196    2.0562   -1.2372 C   0  0  0  0  0  0  0  0  0  0  0  0
   -8.4337    1.3216    1.0054 C   0  0  0  0  0  0  0  0  0  0  0  0
   -7.6889    2.0590   -1.1296 C   0  0  0  0  0  0  0  0  0  0  0  0
   -8.5542    2.2093   -0.0580 C   0  0  0  0  0  0  0  0  0  0  0  0
   -1.2008    0.5358    0.6772 H   0  0  0  0  0  0  0  0  0  0  0  0
   -1.9762    0.1600   -1.5205 H   0  0  0  0  0  0  0  0  0  0  0  0
   -1.4266   -1.4920   -1.5893 H   0  0  0  0  0  0  0  0  0  0  0  0
   -3.5552   -2.1020   -1.1083 H   0  0  0  0  0  0  0  0  0  0  0  0
   -1.3058   -1.6296    2.3228 H   0  0  0  0  0  0  0  0  0  0  0  0
   -3.5707   -2.4409    1.5088 H   0  0  0  0  0  0  0  0  0  0  0  0
   -4.2248    0.3082   -1.2375 H   0  0  0  0  0  0  0  0  0  0  0  0
   -5.6435   -1.4389    0.6663 H   0  0  0  0  0  0  0  0  0  0  0  0
   -5.8322   -1.4515   -1.0865 H   0  0  0  0  0  0  0  0  0  0  0  0
    1.5903    1.6803    1.7696 H   0  0  0  0  0  0  0  0  0  0  0  0
    2.1780    2.1587    0.1257 H   0  0  0  0  0  0  0  0  0  0  0  0
    0.4921    1.9953    0.4542 H   0  0  0  0  0  0  0  0  0  0  0  0
   -0.0286   -3.2643   -1.5213 H   0  0  0  0  0  0  0  0  0  0  0  0
    1.1316   -4.0813   -0.4763 H   0  0  0  0  0  0  0  0  0  0  0  0
   -0.3809   -3.5058    0.2039 H   0  0  0  0  0  0  0  0  0  0  0  0
    3.5967    1.3236    1.6976 H   0  0  0  0  0  0  0  0  0  0  0  0
    4.6269   -1.4191   -1.5114 H   0  0  0  0  0  0  0  0  0  0  0  0
    7.9720    2.2280    0.8572 H   0  0  0  0  0  0  0  0  0  0  0  0
    5.8089    2.2211    1.6484 H   0  0  0  0  0  0  0  0  0  0  0  0
    6.9024   -0.5617   -1.4664 H   0  0  0  0  0  0  0  0  0  0  0  0
   -7.3667   -0.3705    1.7920 H   0  0  0  0  0  0  0  0  0  0  0  0
    9.9328    0.8020    0.6185 H   0  0  0  0  0  0  0  0  0  0  0  0
    8.6694   -0.0841    1.4879 H   0  0  0  0  0  0  0  0  0  0  0  0
    9.0019   -0.4523   -0.2119 H   0  0  0  0  0  0  0  0  0  0  0  0
    7.6093    2.8349   -1.5367 H   0  0  0  0  0  0  0  0  0  0  0  0
    9.3100    2.5173   -1.1576 H   0  0  0  0  0  0  0  0  0  0  0  0
    8.3615    1.3132   -2.0410 H   0  0  0  0  0  0  0  0  0  0  0  0
   -9.0933    1.4068    1.8637 H   0  0  0  0  0  0  0  0  0  0  0  0
   -7.7416    2.7258   -1.9839 H   0  0  0  0  0  0  0  0  0  0  0  0
   -9.3017    2.9942   -0.0482 H   0  0  0  0  0  0  0  0  0  0  0  0
  1  7  1  0  0  0  0
  1 13  1  0  0  0  0
  1 36  1  0  0  0  0
  2  3  1  0  0  0  0
  2 11  1  0  0  0  0
  2 16  1  0  0  0  0
  3 12  2  0  0  0  0
  4 17  1  0  0  0  0
  4 28  2  0  0  0  0
  5  6  1  0  0  0  0
  5  8  1  0  0  0  0
  5  9  1  0  0  0  0
  5 30  1  0  0  0  0
  6  7  1  0  0  0  0
  6 31  1  0  0  0  0
  6 32  1  0  0  0  0
  7 10  1  0  0  0  0
  7 33  1  0  0  0  0
  8 11  2  0  0  0  0
  8 12  1  0  0  0  0
  9 10  2  0  0  0  0
  9 34  1  0  0  0  0
 10 35  1  0  0  0  0
 11 14  1  0  0  0  0
 12 15  1  0  0  0  0
 13 17  1  0  0  0  0
 13 37  1  0  0  0  0
 13 38  1  0  0  0  0
 14 39  1  0  0  0  0
 14 40  1  0  0  0  0
 14 41  1  0  0  0  0
 15 42  1  0  0  0  0
 15 43  1  0  0  0  0
 15 44  1  0  0  0  0
 16 18  2  0  0  0  0
 16 19  1  0  0  0  0
 17 24  2  0  0  0  0
 18 22  1  0  0  0  0
 18 45  1  0  0  0  0
 19 23  2  0  0  0  0
 19 46  1  0  0  0  0
 20 21  1  0  0  0  0
 20 22  2  0  0  0  0
 20 23  1  0  0  0  0
 21 25  1  0  0  0  0
 21 26  1  0  0  0  0
 21 47  1  0  0  0  0
 22 48  1  0  0  0  0
 23 49  1  0  0  0  0
 24 27  1  0  0  0  0
 24 50  1  0  0  0  0
 25 51  1  0  0  0  0
 25 52  1  0  0  0  0
 25 53  1  0  0  0  0
 26 54  1  0  0  0  0
 26 55  1  0  0  0  0
 26 56  1  0  0  0  0
 27 29  2  0  0  0  0
 27 57  1  0  0  0  0
 28 29  1  0  0  0  0
 28 58  1  0  0  0  0
 29 59  1  0  0  0  0
M  END
> <PUBCHEM_COMPOUND_CID>
40780380

> <PUBCHEM_CONFORMER_RMSD>
0.8

> <PUBCHEM_CONFORMER_DIVERSEORDER>
4
257
201
129
240
229
250
213
209
203
98
194
117
101
190
128
71
52
75
31
182
212
67
28
127
196
219
239
76
238
135
68
55
107
138
206
146
218
261
174
115
158
160
103
147
12
35
63
152
100
143
173
54
27
225
167
92
177
132
220
208
48
267
237
110
207
246
184
180
258
233
216
144
74
32
61
226
166
254
159
82
200
125
211
264
162
90
66
263
72
21
234
181
156
187
161
235
171
22
223
245
99
102
149
244
178
199
134
191
108
210
50
228
131
15
169
116
222
157
93
70
202
154
224
109
23
266
148
45
164
227
113
11
20
37
155
59
215
195
168
73
123
119
96
94
252
46
16
10
165
30
91
141
105
217
104
19
124
39
64
65
243
44
58
186
176
121
6
175
262
198
136
79
78
137
153
249
9
253
204
57
40
114
24
43
236
18
26
95
62
142
265
49
34
188
81
247
260
269
77
69
97
197
60
230
126
42
150
84
151
36
268
241
38
179
111
118
163
170
189
221
139
80
88
7
130
256
1
29
33
13
193
231
232
242
17
106
140
120
133
53
85
185
56
3
248
47
87
51
2
172
25
112
86
122
89
41
259
145
5
255
14
251
83
183
8
205
192
214

> <PUBCHEM_MMFF94_PARTIAL_CHARGES>
37
1 -0.9
10 -0.29
11 -0.33
12 0.11
13 0.41
14 0.18
15 0.18
16 -0.02
17 0.17
18 -0.15
19 -0.15
2 0.59
20 -0.14
21 0.14
22 -0.15
23 -0.15
24 -0.15
27 -0.15
28 0.16
29 -0.15
3 -0.71
34 0.15
35 0.15
36 0.36
4 -0.62
45 0.15
46 0.15
48 0.15
49 0.15
5 0.32
50 0.15
57 0.15
58 0.15
59 0.15
7 0.41
8 -0.18
9 -0.29

> <PUBCHEM_EFFECTIVE_ROTOR_COUNT>
6.6

> <PUBCHEM_PHARMACOPHORE_FEATURES>
9
1 1 cation
1 1 donor
1 3 acceptor
1 4 acceptor
3 21 25 26 hydrophobe
5 2 3 8 11 12 rings
5 5 6 7 9 10 rings
6 16 18 19 20 22 23 rings
6 4 17 24 27 28 29 rings

> <PUBCHEM_HEAVY_ATOM_COUNT>
29

> <PUBCHEM_ATOM_DEF_STEREO_COUNT>
2

> <PUBCHEM_ATOM_UDEF_STEREO_COUNT>
0

> <PUBCHEM_BOND_DEF_STEREO_COUNT>
0

> <PUBCHEM_BOND_UDEF_STEREO_COUNT>
0

> <PUBCHEM_ISOTOPIC_ATOM_COUNT>
0

> <PUBCHEM_COMPONENT_COUNT>
1

> <PUBCHEM_CACTVS_TAUTO_COUNT>
1

> <PUBCHEM_CONFORMER_ID>
026E425C00000004

> <PUBCHEM_MMFF94_ENERGY>
78.4522

> <PUBCHEM_FEATURE_SELFOVERLAP>
45.671

> <PUBCHEM_SHAPE_FINGERPRINT>
10 15 17967531260208979585
10533779 47 16081358619577184944
106641 1 14490192725881611369
11135609 99 8574415540168944201
11181472 205 18130796598775921024
11297750 10 17463686490088743366
11386260 185 15267053783605568768
11409948 41 15912780380220281348
11456790 92 14346062158346034220
11607047 141 17169823384555068778
12539765 74 18412270553759550022
12838862 33 18131339818129496088
13690498 29 16915642891621679255
15183329 4 17560798802239065531
15510800 12 10303524066097584125
15690457 1 9295290530098468972
15706992 2 18040727973335327261
1577012 14 18411129234809279135
16087824 20 18413389817419972560
1768 4 18410863149217088849
1818759 1 8574713520029726768
18335252 114 17775563126314929441
19302320 297 17967819365972345141
20105231 36 12107777485997401008
2026 5 11095625372214817572
21033648 29 18340193207087529312
21095123 293 18113622304618428828
21150785 3 15769777957091703344
21424621 283 18187365386026017915
21585482 111 18339360743927049321
21781055 127 16950856791151455078
21792934 111 18201430364902088984
23389318 12 12391508720101183064
23576562 1 16772932844766644289
24771293 8 18259703394257470709
249057 3 16271923852550776340
3178227 256 12179845000560053052
3633792 109 18131637768632792146
3711267 37 18339935869332072201
395649 100 11240008837164673171
4073 2 18333735719627283827
4093350 32 18410009897407081050
4169191 19 18342738490912491497
504579 68 15841554084742861564
5385378 56 17821723901641304434
54039377 194 9079116665663112690
5718773 13 9799698094878954589
5758199 1 17967250888949342843
5937810 71 17988085487940909145
59682541 35 11386368162515702548
636775 72 18261110756262124077
636775 8 9439410155228781384
9962374 69 11242263986530284873

> <PUBCHEM_SHAPE_MULTIPOLES>
576.88
29.3
2.44
1.11
10.49
0.66
0.01
-24.89
-1.93
1.2
-0.31
0.36
-0.18
0.67

> <PUBCHEM_SHAPE_SELFOVERLAP>
1242.855

> <PUBCHEM_SHAPE_VOLUME>
320.3

> <PUBCHEM_COORDINATE_TYPE>
2
5
10

$$$$
