7142364
  -OEChem-12032416163D

 60 63  0     1  0  0  0  0  0999 V2000
    8.2606    1.8437   -0.0890 F   0  0  0  0  0  0  0  0  0  0  0  0
    6.3717    2.7840   -0.5911 F   0  0  0  0  0  0  0  0  0  0  0  0
    6.7785    2.1962    1.4626 F   0  0  0  0  0  0  0  0  0  0  0  0
   -6.0674   -0.2611   -1.9628 O   0  0  0  0  0  0  0  0  0  0  0  0
   -3.3774   -1.7745    0.4957 O   0  0  0  0  0  0  0  0  0  0  0  0
    0.4113    1.9081    0.6480 O   0  0  0  0  0  0  0  0  0  0  0  0
   -4.2670    0.7310   -0.8773 N   0  0  0  0  0  0  0  0  0  0  0  0
   -1.4505    0.8129   -0.1797 N   0  0  0  0  0  0  0  0  0  0  0  0
   -1.1240   -1.9810    0.7385 N   0  0  0  0  0  0  0  0  0  0  0  0
   -2.0047   -0.3393   -0.8770 C   0  0  2  0  0  0  0  0  0  0  0  0
   -3.2727    0.0027   -1.6696 C   0  0  0  0  0  0  0  0  0  0  0  0
   -3.7546    1.6577    0.1359 C   0  0  0  0  0  0  0  0  0  0  0  0
   -2.2904    2.0076   -0.0849 C   0  0  0  0  0  0  0  0  0  0  0  0
   -7.4752    0.4133    0.6233 C   0  0  0  0  0  0  0  0  0  0  0  0
   -6.5834    1.3073   -0.2561 C   0  0  0  0  0  0  0  0  0  0  0  0
   -5.6259    0.5159   -1.1132 C   0  0  0  0  0  0  0  0  0  0  0  0
   -2.2450   -1.3948    0.1907 C   0  0  0  0  0  0  0  0  0  0  0  0
   -0.1225    0.8789    0.2311 C   0  0  0  0  0  0  0  0  0  0  0  0
    0.7034   -0.3577    0.1999 C   0  0  0  0  0  0  0  0  0  0  0  0
   -8.3211   -0.5434   -0.2341 C   0  0  0  0  0  0  0  0  0  0  0  0
   -8.4031    1.2575    1.5136 C   0  0  0  0  0  0  0  0  0  0  0  0
   -6.5539   -0.4245    1.5297 C   0  0  0  0  0  0  0  0  0  0  0  0
    0.2284   -1.6356    0.5365 C   0  0  0  0  0  0  0  0  0  0  0  0
    2.0819   -0.1687   -0.0112 C   0  0  0  0  0  0  0  0  0  0  0  0
    1.1535   -2.6780    0.7228 C   0  0  0  0  0  0  0  0  0  0  0  0
    2.9800   -1.2257    0.1297 C   0  0  0  0  0  0  0  0  0  0  0  0
    2.5171   -2.4783    0.5105 C   0  0  0  0  0  0  0  0  0  0  0  0
    4.3931   -1.0126   -0.0960 C   0  0  0  0  0  0  0  0  0  0  0  0
    4.9556    0.2423    0.1374 C   0  0  0  0  0  0  0  0  0  0  0  0
    5.1930   -2.0622   -0.5484 C   0  0  0  0  0  0  0  0  0  0  0  0
    6.3179    0.4477   -0.0816 C   0  0  0  0  0  0  0  0  0  0  0  0
    6.5551   -1.8568   -0.7674 C   0  0  0  0  0  0  0  0  0  0  0  0
    7.1175   -0.6019   -0.5338 C   0  0  0  0  0  0  0  0  0  0  0  0
    6.9201    1.7893    0.1675 C   0  0  0  0  0  0  0  0  0  0  0  0
   -1.2619   -0.7286   -1.5844 H   0  0  0  0  0  0  0  0  0  0  0  0
   -3.0170    0.6563   -2.5130 H   0  0  0  0  0  0  0  0  0  0  0  0
   -3.7201   -0.9048   -2.0905 H   0  0  0  0  0  0  0  0  0  0  0  0
   -3.8998    1.1913    1.1159 H   0  0  0  0  0  0  0  0  0  0  0  0
   -4.3108    2.5974    0.1014 H   0  0  0  0  0  0  0  0  0  0  0  0
   -2.1629    2.5596   -1.0244 H   0  0  0  0  0  0  0  0  0  0  0  0
   -1.9315    2.6544    0.7231 H   0  0  0  0  0  0  0  0  0  0  0  0
   -7.2098    1.8863   -0.9485 H   0  0  0  0  0  0  0  0  0  0  0  0
   -6.1161    2.0504    0.3855 H   0  0  0  0  0  0  0  0  0  0  0  0
   -8.8405   -0.0049   -1.0343 H   0  0  0  0  0  0  0  0  0  0  0  0
   -7.7335   -1.3510   -0.6802 H   0  0  0  0  0  0  0  0  0  0  0  0
   -9.0880   -1.0330    0.3785 H   0  0  0  0  0  0  0  0  0  0  0  0
   -7.8277    1.9337    2.1559 H   0  0  0  0  0  0  0  0  0  0  0  0
   -9.0768    1.8692    0.9035 H   0  0  0  0  0  0  0  0  0  0  0  0
   -9.0194    0.6258    2.1631 H   0  0  0  0  0  0  0  0  0  0  0  0
   -7.1450   -1.0341    2.2237 H   0  0  0  0  0  0  0  0  0  0  0  0
   -5.9265   -1.1159    0.9595 H   0  0  0  0  0  0  0  0  0  0  0  0
   -5.9002    0.2136    2.1343 H   0  0  0  0  0  0  0  0  0  0  0  0
   -1.2926   -2.8271    1.2775 H   0  0  0  0  0  0  0  0  0  0  0  0
    2.4238    0.8197   -0.3104 H   0  0  0  0  0  0  0  0  0  0  0  0
    0.8139   -3.6702    1.0150 H   0  0  0  0  0  0  0  0  0  0  0  0
    3.1785   -3.3232    0.6804 H   0  0  0  0  0  0  0  0  0  0  0  0
    4.3738    1.0759    0.5222 H   0  0  0  0  0  0  0  0  0  0  0  0
    4.7942   -3.0475   -0.7734 H   0  0  0  0  0  0  0  0  0  0  0  0
    7.1768   -2.6719   -1.1265 H   0  0  0  0  0  0  0  0  0  0  0  0
    8.1801   -0.4613   -0.7118 H   0  0  0  0  0  0  0  0  0  0  0  0
  1 34  1  0  0  0  0
  2 34  1  0  0  0  0
  3 34  1  0  0  0  0
  4 16  2  0  0  0  0
  5 17  2  0  0  0  0
  6 18  2  0  0  0  0
  7 11  1  0  0  0  0
  7 12  1  0  0  0  0
  7 16  1  0  0  0  0
  8 10  1  0  0  0  0
  8 13  1  0  0  0  0
  8 18  1  0  0  0  0
  9 17  1  0  0  0  0
  9 23  1  0  0  0  0
  9 53  1  0  0  0  0
 10 11  1  0  0  0  0
 10 17  1  0  0  0  0
 10 35  1  0  0  0  0
 11 36  1  0  0  0  0
 11 37  1  0  0  0  0
 12 13  1  0  0  0  0
 12 38  1  0  0  0  0
 12 39  1  0  0  0  0
 13 40  1  0  0  0  0
 13 41  1  0  0  0  0
 14 15  1  0  0  0  0
 14 20  1  0  0  0  0
 14 21  1  0  0  0  0
 14 22  1  0  0  0  0
 15 16  1  0  0  0  0
 15 42  1  0  0  0  0
 15 43  1  0  0  0  0
 18 19  1  0  0  0  0
 19 23  2  0  0  0  0
 19 24  1  0  0  0  0
 20 44  1  0  0  0  0
 20 45  1  0  0  0  0
 20 46  1  0  0  0  0
 21 47  1  0  0  0  0
 21 48  1  0  0  0  0
 21 49  1  0  0  0  0
 22 50  1  0  0  0  0
 22 51  1  0  0  0  0
 22 52  1  0  0  0  0
 23 25  1  0  0  0  0
 24 26  2  0  0  0  0
 24 54  1  0  0  0  0
 25 27  2  0  0  0  0
 25 55  1  0  0  0  0
 26 27  1  0  0  0  0
 26 28  1  0  0  0  0
 27 56  1  0  0  0  0
 28 29  2  0  0  0  0
 28 30  1  0  0  0  0
 29 31  1  0  0  0  0
 29 57  1  0  0  0  0
 30 32  2  0  0  0  0
 30 58  1  0  0  0  0
 31 33  2  0  0  0  0
 31 34  1  0  0  0  0
 32 33  1  0  0  0  0
 32 59  1  0  0  0  0
 33 60  1  0  0  0  0
M  END
> <PUBCHEM_COMPOUND_CID>
7142364

> <PUBCHEM_CONFORMER_RMSD>
0.8

> <PUBCHEM_CONFORMER_DIVERSEORDER>
8
54
11
45
13
53
38
1
50
41
35
15
48
27
36
19
10
44
5
23
40
39
52
30
31
9
33
18
49
7
28
4
3
29
46
47
34
17
42
22
37
55
24
12
51
26
21
25
2
32
16
20
6
14
43

> <PUBCHEM_MMFF94_PARTIAL_CHARGES>
36
1 -0.34
10 0.36
11 0.3
12 0.3
13 0.3
15 0.06
16 0.57
17 0.57
18 0.54
19 0.09
2 -0.34
23 0.12
24 -0.15
25 -0.15
27 -0.15
29 -0.15
3 -0.34
30 -0.15
31 -0.14
32 -0.15
33 -0.15
34 1.16
4 -0.57
5 -0.57
53 0.37
54 0.15
55 0.15
56 0.15
57 0.15
58 0.15
59 0.15
6 -0.57
60 0.15
7 -0.66
8 -0.66
9 -0.55

> <PUBCHEM_EFFECTIVE_ROTOR_COUNT>
6

> <PUBCHEM_PHARMACOPHORE_FEATURES>
9
1 4 acceptor
1 5 acceptor
1 6 acceptor
1 9 donor
4 14 20 21 22 hydrophobe
6 19 23 24 25 26 27 rings
6 28 29 30 31 32 33 rings
6 7 8 10 11 12 13 rings
7 8 9 10 17 18 19 23 rings

> <PUBCHEM_HEAVY_ATOM_COUNT>
34

> <PUBCHEM_ATOM_DEF_STEREO_COUNT>
1

> <PUBCHEM_ATOM_UDEF_STEREO_COUNT>
0

> <PUBCHEM_BOND_DEF_STEREO_COUNT>
0

> <PUBCHEM_BOND_UDEF_STEREO_COUNT>
0

> <PUBCHEM_ISOTOPIC_ATOM_COUNT>
0

> <PUBCHEM_COMPONENT_COUNT>
1

> <PUBCHEM_CACTVS_TAUTO_COUNT>
3

> <PUBCHEM_CONFORMER_ID>
006CFBDC00000008

> <PUBCHEM_MMFF94_ENERGY>
118.2988

> <PUBCHEM_FEATURE_SELFOVERLAP>
45.7

> <PUBCHEM_SHAPE_FINGERPRINT>
10 15 17821446872076388360
10299344 5 17775564226142815167
10391435 84 17676491666424576691
10835480 77 18409444821887186724
11007060 377 18334582309109507297
11181472 205 16773249396044461905
11409948 8 18188498003013727137
12539765 74 18060144210494608191
12664476 115 18334298661221891662
13914758 101 10087642594076389671
14251764 18 17775001289406689461
14394314 77 18338803295568329929
14461889 52 17240490199299466634
14849402 71 18341896316324164129
14856354 85 16630520740230544045
150020 25 18186802444240570311
15064981 194 18265912422070967078
15064986 266 18339371759863314832
15131766 46 14330833968786179258
15183329 4 16343703218612563715
15276724 80 18270960150535621893
15347591 1 17972311816370269641
15461852 350 13912618138719880627
15840311 113 18409735053869691156
15849732 13 17967818232395734927
16126227 98 18410012160917629675
16992787 43 18411702088487877745
18335252 98 17530973441007791307
18608769 82 18334015016970633587
19302320 297 18114179779226960588
20105231 36 18342184328125132655
20157964 124 18412261727933740710
21033648 29 18336538435006004362
21267235 1 18341615863053251815
21521721 280 18410856555392574698
21781055 127 15410629090424467603
21792965 270 18042136516724791897
22224240 67 17967251996634258099
23522609 53 17703242753446145585
23559900 14 18339915025791909520
2747138 104 17822302257868905453
34797466 226 18131072602444409662
3552219 110 18060427893807383905
4073 2 18260550052291521586
4093350 32 17847064372291359766
4112364 45 17241056499854698590
4258327 124 16951431921384201990
4339292 15 16153996850639192611
437795 51 18410011043851346369
44317340 157 18273493477530250294
504579 68 16056883554776743346
5104073 3 18040996216224772410
5109719 28 18260270763231488480
5758199 1 18410012130873691395
59682541 35 17967823751913935443
6691757 9 13407090158352907121

> <PUBCHEM_SHAPE_MULTIPOLES>
645.33
25.39
2.58
1.17
3.88
0.15
0.13
9.48
-0.86
-4.04
-0.48
1.74
0.02
0.57

> <PUBCHEM_SHAPE_SELFOVERLAP>
1403.673

> <PUBCHEM_SHAPE_VOLUME>
352.4

> <PUBCHEM_COORDINATE_TYPE>
2
5
10

$$$$
