11887644
  -OEChem-12032416413D

 57 61  0     1  0  0  0  0  0999 V2000
   -0.2241    0.3552   -0.2620 O   0  0  0  0  0  0  0  0  0  0  0  0
   -2.9025    0.3131   -1.8245 O   0  0  0  0  0  0  0  0  0  0  0  0
    2.1568    4.4068   -0.0760 O   0  0  0  0  0  0  0  0  0  0  0  0
   -5.0618   -0.6988   -0.9228 O   0  0  0  0  0  0  0  0  0  0  0  0
    5.8688   -0.5103   -0.1117 O   0  0  0  0  0  0  0  0  0  0  0  0
   -2.5461    1.7333   -0.0326 N   0  0  0  0  0  0  0  0  0  0  0  0
   -0.0917    4.3804    0.1403 N   0  0  0  0  0  0  0  0  0  0  0  0
    1.0562    2.3263   -0.1742 N   0  0  0  0  0  0  0  0  0  0  0  0
   -1.3676    3.7299    0.1812 C   0  0  1  0  0  0  0  0  0  0  0  0
   -1.3862    2.4285   -0.5922 C   0  0  1  0  0  0  0  0  0  0  0  0
   -1.8252    3.3122    1.5782 C   0  0  0  0  0  0  0  0  0  0  0  0
   -2.9142    2.2913    1.2699 C   0  0  0  0  0  0  0  0  0  0  0  0
   -0.1433    1.5844   -0.3228 C   0  0  0  0  0  0  0  0  0  0  0  0
   -3.2443    0.7589   -0.7280 C   0  0  0  0  0  0  0  0  0  0  0  0
    1.1199    3.7377   -0.0231 C   0  0  0  0  0  0  0  0  0  0  0  0
    2.3044    1.5902   -0.1574 C   0  0  0  0  0  0  0  0  0  0  0  0
   -4.4879    0.2431   -0.0493 C   0  0  0  0  0  0  0  0  0  0  0  0
    3.3804    2.0839    0.5679 C   0  0  0  0  0  0  0  0  0  0  0  0
    2.4072    0.4016   -0.8672 C   0  0  0  0  0  0  0  0  0  0  0  0
    4.5819    1.3755    0.5836 C   0  0  0  0  0  0  0  0  0  0  0  0
    3.6088   -0.3069   -0.8512 C   0  0  0  0  0  0  0  0  0  0  0  0
    4.6960    0.1801   -0.1259 C   0  0  0  0  0  0  0  0  0  0  0  0
   -5.8185   -1.7031   -0.3614 C   0  0  0  0  0  0  0  0  0  0  0  0
   -6.5032   -1.4612    0.8201 C   0  0  0  0  0  0  0  0  0  0  0  0
   -5.8818   -2.9392   -0.9870 C   0  0  0  0  0  0  0  0  0  0  0  0
    5.8068   -1.8809    0.0767 C   0  0  0  0  0  0  0  0  0  0  0  0
   -7.2689   -2.4789    1.3893 C   0  0  0  0  0  0  0  0  0  0  0  0
   -6.6475   -3.9569   -0.4180 C   0  0  0  0  0  0  0  0  0  0  0  0
   -7.3410   -3.7267    0.7703 C   0  0  0  0  0  0  0  0  0  0  0  0
    4.9818   -2.3886    1.0640 C   0  0  0  0  0  0  0  0  0  0  0  0
    6.5721   -2.7066   -0.7267 C   0  0  0  0  0  0  0  0  0  0  0  0
    4.9201   -3.7690    1.2544 C   0  0  0  0  0  0  0  0  0  0  0  0
    6.5103   -4.0870   -0.5363 C   0  0  0  0  0  0  0  0  0  0  0  0
    5.6842   -4.6182    0.4542 C   0  0  0  0  0  0  0  0  0  0  0  0
   -2.1018    4.4284   -0.2409 H   0  0  0  0  0  0  0  0  0  0  0  0
   -1.4869    2.5633   -1.6743 H   0  0  0  0  0  0  0  0  0  0  0  0
   -1.0081    2.8413    2.1386 H   0  0  0  0  0  0  0  0  0  0  0  0
   -2.1942    4.1517    2.1750 H   0  0  0  0  0  0  0  0  0  0  0  0
   -2.9753    1.5008    2.0230 H   0  0  0  0  0  0  0  0  0  0  0  0
   -3.8933    2.7720    1.1724 H   0  0  0  0  0  0  0  0  0  0  0  0
   -0.0725    5.3888    0.2576 H   0  0  0  0  0  0  0  0  0  0  0  0
   -4.1796   -0.2091    0.9011 H   0  0  0  0  0  0  0  0  0  0  0  0
   -5.1850    1.0714    0.1127 H   0  0  0  0  0  0  0  0  0  0  0  0
    3.3249    2.9626    1.2011 H   0  0  0  0  0  0  0  0  0  0  0  0
    1.6244    0.0209   -1.5144 H   0  0  0  0  0  0  0  0  0  0  0  0
    5.4206    1.7501    1.1644 H   0  0  0  0  0  0  0  0  0  0  0  0
    3.6828   -1.2140   -1.4455 H   0  0  0  0  0  0  0  0  0  0  0  0
   -6.4909   -0.4967    1.3179 H   0  0  0  0  0  0  0  0  0  0  0  0
   -5.3425   -3.1213   -1.9119 H   0  0  0  0  0  0  0  0  0  0  0  0
   -7.8136   -2.2984    2.3115 H   0  0  0  0  0  0  0  0  0  0  0  0
   -6.7039   -4.9285   -0.9001 H   0  0  0  0  0  0  0  0  0  0  0  0
   -7.9383   -4.5186    1.2126 H   0  0  0  0  0  0  0  0  0  0  0  0
    4.3954   -1.7476    1.7158 H   0  0  0  0  0  0  0  0  0  0  0  0
    7.2155   -2.2945   -1.4981 H   0  0  0  0  0  0  0  0  0  0  0  0
    4.2811   -4.1826    2.0292 H   0  0  0  0  0  0  0  0  0  0  0  0
    7.1056   -4.7483   -1.1592 H   0  0  0  0  0  0  0  0  0  0  0  0
    5.6372   -5.6930    0.6033 H   0  0  0  0  0  0  0  0  0  0  0  0
  1 13  2  0  0  0  0
  2 14  2  0  0  0  0
  3 15  2  0  0  0  0
  4 17  1  0  0  0  0
  4 23  1  0  0  0  0
  5 22  1  0  0  0  0
  5 26  1  0  0  0  0
  6 10  1  0  0  0  0
  6 12  1  0  0  0  0
  6 14  1  0  0  0  0
  7  9  1  0  0  0  0
  7 15  1  0  0  0  0
  7 41  1  0  0  0  0
  8 13  1  0  0  0  0
  8 15  1  0  0  0  0
  8 16  1  0  0  0  0
  9 10  1  0  0  0  0
  9 11  1  0  0  0  0
  9 35  1  0  0  0  0
 10 13  1  0  0  0  0
 10 36  1  0  0  0  0
 11 12  1  0  0  0  0
 11 37  1  0  0  0  0
 11 38  1  0  0  0  0
 12 39  1  0  0  0  0
 12 40  1  0  0  0  0
 14 17  1  0  0  0  0
 16 18  2  0  0  0  0
 16 19  1  0  0  0  0
 17 42  1  0  0  0  0
 17 43  1  0  0  0  0
 18 20  1  0  0  0  0
 18 44  1  0  0  0  0
 19 21  2  0  0  0  0
 19 45  1  0  0  0  0
 20 22  2  0  0  0  0
 20 46  1  0  0  0  0
 21 22  1  0  0  0  0
 21 47  1  0  0  0  0
 23 24  2  0  0  0  0
 23 25  1  0  0  0  0
 24 27  1  0  0  0  0
 24 48  1  0  0  0  0
 25 28  2  0  0  0  0
 25 49  1  0  0  0  0
 26 30  2  0  0  0  0
 26 31  1  0  0  0  0
 27 29  2  0  0  0  0
 27 50  1  0  0  0  0
 28 29  1  0  0  0  0
 28 51  1  0  0  0  0
 29 52  1  0  0  0  0
 30 32  1  0  0  0  0
 30 53  1  0  0  0  0
 31 33  2  0  0  0  0
 31 54  1  0  0  0  0
 32 34  2  0  0  0  0
 32 55  1  0  0  0  0
 33 34  1  0  0  0  0
 33 56  1  0  0  0  0
 34 57  1  0  0  0  0
M  END
> <PUBCHEM_COMPOUND_CID>
11887644

> <PUBCHEM_CONFORMER_RMSD>
1

> <PUBCHEM_CONFORMER_DIVERSEORDER>
1
108
146
200
65
33
68
177
13
147
19
164
113
211
100
110
165
96
59
138
78
28
143
208
57
101
77
74
47
205
191
188
61
202
207
123
136
15
58
134
7
148
42
60
67
18
194
160
182
168
162
187
14
112
178
129
8
122
199
141
80
137
17
128
154
84
181
173
41
206
79
106
20
156
117
163
70
53
55
142
157
149
153
49
5
119
12
86
48
131
4
95
139
37
99
144
87
184
71
135
27
105
179
169
161
34
85
155
16
109
30
29
98
192
38
82
159
64
11
197
204
183
152
66
35
97
198
124
170
171
166
40
193
76
132
72
140
103
145
81
115
88
185
127
195
45
116
52
94
201
51
43
26
172
189
25
121
209
3
39
46
62
203
104
31
73
22
24
130
196
150
63
21
180
167
126
69
83
174
118
125
56
111
175
190
93
186
91
210
44
89
90
2
50
10
9
92
158
151
107
23
133
75
120
176
102
6
32
36
54
114

> <PUBCHEM_MMFF94_PARTIAL_CHARGES>
48
1 -0.57
10 0.36
12 0.3
13 0.57
14 0.57
15 0.69
16 0.12
17 0.34
18 -0.15
19 -0.15
2 -0.57
20 -0.15
21 -0.15
22 0.08
23 0.08
24 -0.15
25 -0.15
26 0.08
27 -0.15
28 -0.15
29 -0.15
3 -0.57
30 -0.15
31 -0.15
32 -0.15
33 -0.15
34 -0.15
4 -0.36
41 0.37
44 0.15
45 0.15
46 0.15
47 0.15
48 0.15
49 0.15
5 -0.17
50 0.15
51 0.15
52 0.15
53 0.15
54 0.15
55 0.15
56 0.15
57 0.15
6 -0.66
7 -0.73
8 -0.24
9 0.3

> <PUBCHEM_EFFECTIVE_ROTOR_COUNT>
8

> <PUBCHEM_PHARMACOPHORE_FEATURES>
11
1 1 acceptor
1 2 acceptor
1 3 acceptor
1 4 acceptor
1 5 acceptor
1 7 donor
5 6 9 10 11 12 rings
6 16 18 19 20 21 22 rings
6 23 24 25 27 28 29 rings
6 26 30 31 32 33 34 rings
6 7 8 9 10 13 15 rings

> <PUBCHEM_HEAVY_ATOM_COUNT>
34

> <PUBCHEM_ATOM_DEF_STEREO_COUNT>
2

> <PUBCHEM_ATOM_UDEF_STEREO_COUNT>
0

> <PUBCHEM_BOND_DEF_STEREO_COUNT>
0

> <PUBCHEM_BOND_UDEF_STEREO_COUNT>
0

> <PUBCHEM_ISOTOPIC_ATOM_COUNT>
0

> <PUBCHEM_COMPONENT_COUNT>
1

> <PUBCHEM_CACTVS_TAUTO_COUNT>
2

> <PUBCHEM_CONFORMER_ID>
00B5641C00000001

> <PUBCHEM_MMFF94_ENERGY>
131.289

> <PUBCHEM_FEATURE_SELFOVERLAP>
56.028

> <PUBCHEM_SHAPE_FINGERPRINT>
10280341 67 7925329790215301054
10622 236 18411697673213732349
11227688 84 18260270698690655635
11399510 152 17846483838599904888
11497681 19 18335424552401773340
117089 54 18410016528493571074
11761917 116 18411426081875018878
11963148 33 18197210566926679110
12107183 9 18271540758223223401
12166972 35 18113339738461003373
12559416 138 18271514347710074726
12975358 362 9943242722620976159
1361 4 18410856521671431786
13782708 43 18040989700701056159
13911852 28 18411415159450898637
13947947 140 18059297556571394527
14211702 104 18410573951098187654
15064981 113 13623527922968614218
15347590 135 18129649929051119376
15347591 1 18409731750755887028
15467298 65 17829043217715263530
15728490 83 18411419479935134891
16728300 4 18272936059752916127
17492 89 18411979169665669093
18393751 57 17768222946494075856
19246450 95 17982750584513712705
19319366 153 17693658521230610901
208703 8 18338509747163788794
229767 8 18339364063430146206
23569914 152 11820094597832007576
24893989 43 17627239196743991278
2748736 6 9367345907827933047
2835820 82 18266457784424286191
32027 91 18340196497264443615
393628 194 8862676707052697919
3991529 202 18337410313763173667
4461854 278 17775005726161395342
4756088 132 18265883825895295947
484985 159 18120931703279818853
50009960 94 18044351891327087234
5104073 3 17989205919431068448
5718773 13 18409728456441500678
6057620 51 18334867138835445236
6058803 2 18267324057594901944
6201320 77 17532964742828894411
6201460 15 17899970539448263986
6327066 14 9151173138746237349
70251023 43 18335983163631916001
7970288 3 18410570695322819823
9831232 110 18262233438736665613

> <PUBCHEM_SHAPE_MULTIPOLES>
655.41
20.9
7.36
1.18
12.4
1.14
0.12
37.54
1.88
-1.81
1.34
0.76
0.26
-0.44

> <PUBCHEM_SHAPE_SELFOVERLAP>
1446.692

> <PUBCHEM_SHAPE_VOLUME>
349.3

> <PUBCHEM_COORDINATE_TYPE>
2
5
10

$$$$
