28960454
  -OEChem-12032416413D

 59 63  0     1  0  0  0  0  0999 V2000
    2.0828   -2.0491   -1.5731 O   0  0  0  0  0  0  0  0  0  0  0  0
    2.4987   -3.8947   -0.2320 O   0  0  0  0  0  0  0  0  0  0  0  0
    3.1091   -2.3153    2.0884 O   0  0  0  0  0  0  0  0  0  0  0  0
    4.4191    3.5903   -0.0100 O   0  0  0  0  0  0  0  0  0  0  0  0
   -4.7221   -1.4479   -0.7229 O   0  0  0  0  0  0  0  0  0  0  0  0
    0.1542   -1.0849    0.3497 N   0  0  0  0  0  0  0  0  0  0  0  0
    3.1704    0.3766   -0.3818 N   0  0  0  0  0  0  0  0  0  0  0  0
   -2.4949   -0.0240    0.2232 N   0  0  0  0  0  0  0  0  0  0  0  0
    1.1821   -2.0773    0.6667 C   0  0  2  0  0  0  0  0  0  0  0  0
    2.4588   -1.3903    1.2044 C   0  0  2  0  0  0  0  0  0  0  0  0
    3.4618   -0.9782    0.0991 C   0  0  1  0  0  0  0  0  0  0  0  0
    3.4340   -1.9364   -1.1137 C   0  0  1  0  0  0  0  0  0  0  0  0
    1.5085   -2.9144   -0.5842 C   0  0  1  0  0  0  0  0  0  0  0  0
    3.7287   -3.3851   -0.7689 C   0  0  0  0  0  0  0  0  0  0  0  0
   -0.5282   -0.6418    1.5714 C   0  0  0  0  0  0  0  0  0  0  0  0
   -0.8232   -1.6398   -0.5949 C   0  0  0  0  0  0  0  0  0  0  0  0
   -1.5677    0.4380    1.2606 C   0  0  0  0  0  0  0  0  0  0  0  0
   -1.8716   -0.5930   -0.9785 C   0  0  0  0  0  0  0  0  0  0  0  0
    3.6219    1.3671    0.5802 C   0  0  0  0  0  0  0  0  0  0  0  0
   -3.7459    0.5882    0.0877 C   0  0  0  0  0  0  0  0  0  0  0  0
    3.3420    2.7707    0.1130 C   0  0  0  0  0  0  0  0  0  0  0  0
   -4.8426   -0.1336   -0.3830 C   0  0  0  0  0  0  0  0  0  0  0  0
   -3.8906    1.9326    0.4302 C   0  0  0  0  0  0  0  0  0  0  0  0
    2.1877    3.4347   -0.2316 C   0  0  0  0  0  0  0  0  0  0  0  0
   -6.0842    0.4890   -0.5114 C   0  0  0  0  0  0  0  0  0  0  0  0
   -5.1323    2.5553    0.3016 C   0  0  0  0  0  0  0  0  0  0  0  0
   -6.2290    1.8335   -0.1692 C   0  0  0  0  0  0  0  0  0  0  0  0
    2.5808    4.7463   -0.5897 C   0  0  0  0  0  0  0  0  0  0  0  0
    3.9473    4.7904   -0.4380 C   0  0  0  0  0  0  0  0  0  0  0  0
   -4.9557   -2.4068    0.3066 C   0  0  0  0  0  0  0  0  0  0  0  0
    0.8131   -2.7827    1.4258 H   0  0  0  0  0  0  0  0  0  0  0  0
    2.2038   -0.5538    1.8566 H   0  0  0  0  0  0  0  0  0  0  0  0
    4.4871   -1.0104    0.4927 H   0  0  0  0  0  0  0  0  0  0  0  0
    4.0838   -1.5807   -1.9207 H   0  0  0  0  0  0  0  0  0  0  0  0
    0.6747   -3.4879   -0.9963 H   0  0  0  0  0  0  0  0  0  0  0  0
    3.9477   -3.9650   -1.6720 H   0  0  0  0  0  0  0  0  0  0  0  0
    4.5464   -3.5179   -0.0555 H   0  0  0  0  0  0  0  0  0  0  0  0
    0.1746   -0.2194    2.2966 H   0  0  0  0  0  0  0  0  0  0  0  0
   -1.0268   -1.4885    2.0632 H   0  0  0  0  0  0  0  0  0  0  0  0
   -1.3242   -2.5246   -0.1794 H   0  0  0  0  0  0  0  0  0  0  0  0
   -0.3859   -1.9006   -1.5625 H   0  0  0  0  0  0  0  0  0  0  0  0
    3.6557    0.5345   -1.2653 H   0  0  0  0  0  0  0  0  0  0  0  0
   -2.1065    0.6667    2.1886 H   0  0  0  0  0  0  0  0  0  0  0  0
   -1.0576    1.3513    0.9278 H   0  0  0  0  0  0  0  0  0  0  0  0
   -1.3946    0.2198   -1.5432 H   0  0  0  0  0  0  0  0  0  0  0  0
   -2.5906   -1.0586   -1.6590 H   0  0  0  0  0  0  0  0  0  0  0  0
    3.8766   -1.8606    2.4754 H   0  0  0  0  0  0  0  0  0  0  0  0
    4.7009    1.2657    0.7531 H   0  0  0  0  0  0  0  0  0  0  0  0
    3.1274    1.2604    1.5506 H   0  0  0  0  0  0  0  0  0  0  0  0
   -3.0571    2.5314    0.7857 H   0  0  0  0  0  0  0  0  0  0  0  0
    1.1869    3.0266   -0.2258 H   0  0  0  0  0  0  0  0  0  0  0  0
   -6.9429   -0.0666   -0.8784 H   0  0  0  0  0  0  0  0  0  0  0  0
   -5.2447    3.6031    0.5647 H   0  0  0  0  0  0  0  0  0  0  0  0
   -7.1954    2.3186   -0.2701 H   0  0  0  0  0  0  0  0  0  0  0  0
    1.9475    5.5580   -0.9171 H   0  0  0  0  0  0  0  0  0  0  0  0
    4.6914    5.5595   -0.5857 H   0  0  0  0  0  0  0  0  0  0  0  0
   -4.8064   -3.4045   -0.1152 H   0  0  0  0  0  0  0  0  0  0  0  0
   -5.9843   -2.3321    0.6734 H   0  0  0  0  0  0  0  0  0  0  0  0
   -4.2510   -2.2682    1.1326 H   0  0  0  0  0  0  0  0  0  0  0  0
  1 12  1  0  0  0  0
  1 13  1  0  0  0  0
  2 13  1  0  0  0  0
  2 14  1  0  0  0  0
  3 10  1  0  0  0  0
  3 47  1  0  0  0  0
  4 21  1  0  0  0  0
  4 29  1  0  0  0  0
  5 22  1  0  0  0  0
  5 30  1  0  0  0  0
  6  9  1  0  0  0  0
  6 15  1  0  0  0  0
  6 16  1  0  0  0  0
  7 11  1  0  0  0  0
  7 19  1  0  0  0  0
  7 42  1  0  0  0  0
  8 17  1  0  0  0  0
  8 18  1  0  0  0  0
  8 20  1  0  0  0  0
  9 10  1  0  0  0  0
  9 13  1  0  0  0  0
  9 31  1  0  0  0  0
 10 11  1  0  0  0  0
 10 32  1  0  0  0  0
 11 12  1  0  0  0  0
 11 33  1  0  0  0  0
 12 14  1  0  0  0  0
 12 34  1  0  0  0  0
 13 35  1  0  0  0  0
 14 36  1  0  0  0  0
 14 37  1  0  0  0  0
 15 17  1  0  0  0  0
 15 38  1  0  0  0  0
 15 39  1  0  0  0  0
 16 18  1  0  0  0  0
 16 40  1  0  0  0  0
 16 41  1  0  0  0  0
 17 43  1  0  0  0  0
 17 44  1  0  0  0  0
 18 45  1  0  0  0  0
 18 46  1  0  0  0  0
 19 21  1  0  0  0  0
 19 48  1  0  0  0  0
 19 49  1  0  0  0  0
 20 22  1  0  0  0  0
 20 23  2  0  0  0  0
 21 24  2  0  0  0  0
 22 25  2  0  0  0  0
 23 26  1  0  0  0  0
 23 50  1  0  0  0  0
 24 28  1  0  0  0  0
 24 51  1  0  0  0  0
 25 27  1  0  0  0  0
 25 52  1  0  0  0  0
 26 27  2  0  0  0  0
 26 53  1  0  0  0  0
 27 54  1  0  0  0  0
 28 29  2  0  0  0  0
 28 55  1  0  0  0  0
 29 56  1  0  0  0  0
 30 57  1  0  0  0  0
 30 58  1  0  0  0  0
 30 59  1  0  0  0  0
M  END
> <PUBCHEM_COMPOUND_CID>
28960454

> <PUBCHEM_CONFORMER_RMSD>
1

> <PUBCHEM_CONFORMER_DIVERSEORDER>
1
26
45
101
25
120
74
94
110
85
41
81
57
21
42
92
51
67
103
53
84
52
127
71
82
48
124
114
76
50
16
70
28
91
95
117
13
37
7
58
73
39
123
89
79
90
112
113
116
121
111
33
125
18
106
83
62
63
86
36
108
119
15
9
19
104
64
44
97
31
43
27
72
46
2
68
11
118
96
22
17
54
60
59
20
34
105
88
80
10
65
8
4
55
122
61
38
47
24
3
35
98
5
77
23
66
87
14
32
107
30
49
102
40
69
100
126
78
75
56
93
99
115
109
6
12
29

> <PUBCHEM_MMFF94_PARTIAL_CHARGES>
39
1 -0.56
10 0.28
11 0.27
12 0.28
13 0.56
14 0.28
15 0.27
16 0.27
17 0.37
18 0.37
19 0.45
2 -0.56
20 0.1
21 -0.04
22 0.08
23 -0.15
24 -0.15
25 -0.15
26 -0.15
27 -0.15
28 -0.15
29 -0.01
3 -0.68
30 0.28
4 -0.28
42 0.36
47 0.4
5 -0.36
50 0.15
51 0.15
52 0.15
53 0.15
54 0.15
55 0.15
56 0.15
6 -0.81
7 -0.9
8 -0.84
9 0.27

> <PUBCHEM_EFFECTIVE_ROTOR_COUNT>
8.4

> <PUBCHEM_PHARMACOPHORE_FEATURES>
14
1 1 acceptor
1 2 acceptor
1 3 acceptor
1 3 donor
1 4 acceptor
1 5 acceptor
1 6 cation
1 7 cation
1 7 donor
1 8 cation
5 4 21 24 28 29 rings
6 20 22 23 25 26 27 rings
6 6 8 15 16 17 18 rings
8 1 2 9 10 11 12 13 14 rings

> <PUBCHEM_HEAVY_ATOM_COUNT>
30

> <PUBCHEM_ATOM_DEF_STEREO_COUNT>
5

> <PUBCHEM_ATOM_UDEF_STEREO_COUNT>
0

> <PUBCHEM_BOND_DEF_STEREO_COUNT>
0

> <PUBCHEM_BOND_UDEF_STEREO_COUNT>
0

> <PUBCHEM_ISOTOPIC_ATOM_COUNT>
0

> <PUBCHEM_COMPONENT_COUNT>
1

> <PUBCHEM_CACTVS_TAUTO_COUNT>
1

> <PUBCHEM_CONFORMER_ID>
01B9E6C600000001

> <PUBCHEM_MMFF94_ENERGY>
103.3388

> <PUBCHEM_FEATURE_SELFOVERLAP>
71.1

> <PUBCHEM_SHAPE_FINGERPRINT>
10483366 6 18339095826396762476
10675989 125 18412268358509716976
10937287 8 18123469638241345908
12166972 35 18129100018095811041
12788726 201 17540264142368568682
13583140 156 18188788132344550123
13590594 115 17978240361276189400
1361 2 18266457796533442477
13761468 95 16821131220770431452
13944108 23 18334582291761671068
14251764 38 18409168826930413393
14790565 3 18051130585989461893
14849402 71 18260827107846793072
15082195 135 18269817827406971469
15357212 105 18267325225967970361
15400415 2 18123189271182653157
15439362 3 18340207518304109820
15664445 248 18269561550455000686
16988056 13 18338239263293180260
17844677 252 18341337695728938155
17980427 23 18125689440791340906
18681886 176 18269833129816959730
21133410 127 18113616815360743861
21860390 5 18411703145365954156
22149856 69 17775290461419014819
23522609 53 17775022189245469345
23559900 14 18340769226373711535
244849 19 17969244329199811897
245318 6 17752212943879002237
249057 3 18197218049287307015
3004659 81 17844240731710549555
3103668 31 17329157866717293820
3298306 158 18198341960228899625
3411729 13 18335979852174810880
34797466 226 18343305860302767135
3493558 16 18411425007716462953
474 4 18411698824533726632
53794403 172 18409454703795045300
550186 72 17834112327401381559
6086070 43 17899392222237753407
7288768 16 17752760509617693208
9981440 41 18121782995561632432

> <PUBCHEM_SHAPE_MULTIPOLES>
573.1
12.86
6
1.19
18.41
5.57
-0.29
5.95
1.39
-9.93
1.17
-0.59
-0.67
-0.36

> <PUBCHEM_SHAPE_SELFOVERLAP>
1236.637

> <PUBCHEM_SHAPE_VOLUME>
312.8

> <PUBCHEM_COORDINATE_TYPE>
2
5
10

$$$$
