40778256
  -OEChem-12032416253D

 48 49  0     1  0  0  0  0  0999 V2000
   -1.2715    0.2469   -1.0229 O   0  0  0  0  0  0  0  0  0  0  0  0
   -0.0102    3.0159   -1.0211 O   0  0  0  0  0  0  0  0  0  0  0  0
   -1.2931    2.8896    1.4092 O   0  0  0  0  0  0  0  0  0  0  0  0
   -4.4199    0.4098   -1.2212 O   0  0  0  0  0  0  0  0  0  0  0  0
    2.3560   -0.1999   -0.4668 N   0  0  0  0  0  0  0  0  0  0  0  0
   -5.1186   -0.8094    0.6299 N   0  0  0  0  0  0  0  0  0  0  0  0
    5.0851   -0.7231    1.3731 N   0  0  0  0  0  0  0  0  0  0  0  0
    0.2490    1.8794   -0.1978 C   0  0  1  0  0  0  0  0  0  0  0  0
   -0.8733    1.6869    0.8009 C   0  0  2  0  0  0  0  0  0  0  0  0
    0.1223    0.6300   -1.0624 C   0  0  1  0  0  0  0  0  0  0  0  0
   -1.9582    1.0811   -0.0732 C   0  0  2  0  0  0  0  0  0  0  0  0
    0.9423   -0.5419   -0.5404 C   0  0  0  0  0  0  0  0  0  0  0  0
   -2.9639    0.2505    0.7037 C   0  0  0  0  0  0  0  0  0  0  0  0
   -4.2293   -0.0233   -0.0879 C   0  0  0  0  0  0  0  0  0  0  0  0
    3.1372   -1.3189    0.0427 C   0  0  0  0  0  0  0  0  0  0  0  0
   -6.4042   -1.2193    0.1131 C   0  0  0  0  0  0  0  0  0  0  0  0
    4.6018   -0.9833    0.1377 C   0  0  0  0  0  0  0  0  0  0  0  0
   -7.4135   -1.3489    1.2465 C   0  0  0  0  0  0  0  0  0  0  0  0
   -6.2768   -2.5233   -0.6645 C   0  0  0  0  0  0  0  0  0  0  0  0
    5.3683   -0.9578   -1.0164 C   0  0  0  0  0  0  0  0  0  0  0  0
    6.7177   -0.6456   -0.8945 C   0  0  0  0  0  0  0  0  0  0  0  0
    6.4010   -0.4233    1.4523 C   0  0  0  0  0  0  0  0  0  0  0  0
    7.2517   -0.3721    0.3599 C   0  0  0  0  0  0  0  0  0  0  0  0
    1.2193    2.0391    0.2793 H   0  0  0  0  0  0  0  0  0  0  0  0
   -0.5674    0.9817    1.5831 H   0  0  0  0  0  0  0  0  0  0  0  0
    0.3768    0.8299   -2.1100 H   0  0  0  0  0  0  0  0  0  0  0  0
   -2.4719    1.8738   -0.6324 H   0  0  0  0  0  0  0  0  0  0  0  0
    0.7856   -1.4040   -1.2017 H   0  0  0  0  0  0  0  0  0  0  0  0
    0.5693   -0.8465    0.4458 H   0  0  0  0  0  0  0  0  0  0  0  0
   -3.2647    0.7793    1.6164 H   0  0  0  0  0  0  0  0  0  0  0  0
   -2.5265   -0.7142    0.9882 H   0  0  0  0  0  0  0  0  0  0  0  0
    0.7158    3.0797   -1.6651 H   0  0  0  0  0  0  0  0  0  0  0  0
   -0.5196    3.2767    1.8535 H   0  0  0  0  0  0  0  0  0  0  0  0
    2.6870    0.0599   -1.3959 H   0  0  0  0  0  0  0  0  0  0  0  0
    3.0181   -2.2038   -0.5957 H   0  0  0  0  0  0  0  0  0  0  0  0
    2.7798   -1.5981    1.0421 H   0  0  0  0  0  0  0  0  0  0  0  0
   -4.8361   -1.1637    1.5396 H   0  0  0  0  0  0  0  0  0  0  0  0
   -6.7562   -0.4422   -0.5761 H   0  0  0  0  0  0  0  0  0  0  0  0
   -7.5123   -0.4019    1.7883 H   0  0  0  0  0  0  0  0  0  0  0  0
   -8.4012   -1.6238    0.8621 H   0  0  0  0  0  0  0  0  0  0  0  0
   -7.1046   -2.1117    1.9701 H   0  0  0  0  0  0  0  0  0  0  0  0
   -7.2439   -2.8297   -1.0764 H   0  0  0  0  0  0  0  0  0  0  0  0
   -5.9059   -3.3319   -0.0247 H   0  0  0  0  0  0  0  0  0  0  0  0
   -5.5741   -2.4154   -1.4980 H   0  0  0  0  0  0  0  0  0  0  0  0
    4.9428   -1.1742   -1.9905 H   0  0  0  0  0  0  0  0  0  0  0  0
    7.3521   -0.6159   -1.7752 H   0  0  0  0  0  0  0  0  0  0  0  0
    6.7683   -0.2180    2.4524 H   0  0  0  0  0  0  0  0  0  0  0  0
    8.3008   -0.1264    0.4786 H   0  0  0  0  0  0  0  0  0  0  0  0
  1 10  1  0  0  0  0
  1 11  1  0  0  0  0
  2  8  1  0  0  0  0
  2 32  1  0  0  0  0
  3  9  1  0  0  0  0
  3 33  1  0  0  0  0
  4 14  2  0  0  0  0
  5 12  1  0  0  0  0
  5 15  1  0  0  0  0
  5 34  1  0  0  0  0
  6 14  1  0  0  0  0
  6 16  1  0  0  0  0
  6 37  1  0  0  0  0
  7 17  1  0  0  0  0
  7 22  2  0  0  0  0
  8  9  1  0  0  0  0
  8 10  1  0  0  0  0
  8 24  1  0  0  0  0
  9 11  1  0  0  0  0
  9 25  1  0  0  0  0
 10 12  1  0  0  0  0
 10 26  1  0  0  0  0
 11 13  1  0  0  0  0
 11 27  1  0  0  0  0
 12 28  1  0  0  0  0
 12 29  1  0  0  0  0
 13 14  1  0  0  0  0
 13 30  1  0  0  0  0
 13 31  1  0  0  0  0
 15 17  1  0  0  0  0
 15 35  1  0  0  0  0
 15 36  1  0  0  0  0
 16 18  1  0  0  0  0
 16 19  1  0  0  0  0
 16 38  1  0  0  0  0
 17 20  2  0  0  0  0
 18 39  1  0  0  0  0
 18 40  1  0  0  0  0
 18 41  1  0  0  0  0
 19 42  1  0  0  0  0
 19 43  1  0  0  0  0
 19 44  1  0  0  0  0
 20 21  1  0  0  0  0
 20 45  1  0  0  0  0
 21 23  2  0  0  0  0
 21 46  1  0  0  0  0
 22 23  1  0  0  0  0
 22 47  1  0  0  0  0
 23 48  1  0  0  0  0
M  END
> <PUBCHEM_COMPOUND_CID>
40778256

> <PUBCHEM_CONFORMER_RMSD>
1

> <PUBCHEM_CONFORMER_DIVERSEORDER>
1
60
98
62
156
113
49
72
26
95
29
140
145
169
91
157
69
27
124
90
122
10
32
136
155
47
88
138
109
20
120
164
116
134
86
21
126
15
137
101
25
115
18
118
57
16
89
11
123
112
153
58
87
143
166
65
135
36
17
78
125
8
84
103
44
3
12
53
71
167
148
151
48
163
63
67
105
130
158
110
14
147
146
79
142
24
128
108
82
97
13
96
168
28
59
56
31
131
51
22
68
152
162
141
55
92
35
38
114
19
4
23
132
54
133
93
106
64
61
161
41
129
81
6
46
33
77
154
150
85
9
74
107
159
139
45
76
83
100
170
119
42
111
43
37
75
117
144
160
30
127
52
104
34
39
165
66
40
94
50
80
5
7
70
2
149
99
73
121
102

> <PUBCHEM_MMFF94_PARTIAL_CHARGES>
29
1 -0.56
10 0.28
11 0.28
12 0.27
13 0.06
14 0.57
15 0.41
16 0.3
17 0.17
2 -0.68
20 -0.15
21 -0.15
22 0.16
23 -0.15
3 -0.68
32 0.4
33 0.4
34 0.36
37 0.37
4 -0.57
45 0.15
46 0.15
47 0.15
48 0.15
5 -0.9
6 -0.73
7 -0.62
8 0.28
9 0.28

> <PUBCHEM_EFFECTIVE_ROTOR_COUNT>
9

> <PUBCHEM_PHARMACOPHORE_FEATURES>
13
1 1 acceptor
1 2 acceptor
1 2 donor
1 3 acceptor
1 3 donor
1 4 acceptor
1 5 cation
1 5 donor
1 6 donor
1 7 acceptor
3 16 18 19 hydrophobe
5 1 8 9 10 11 rings
6 7 17 20 21 22 23 rings

> <PUBCHEM_HEAVY_ATOM_COUNT>
23

> <PUBCHEM_ATOM_DEF_STEREO_COUNT>
4

> <PUBCHEM_ATOM_UDEF_STEREO_COUNT>
0

> <PUBCHEM_BOND_DEF_STEREO_COUNT>
0

> <PUBCHEM_BOND_UDEF_STEREO_COUNT>
0

> <PUBCHEM_ISOTOPIC_ATOM_COUNT>
0

> <PUBCHEM_COMPONENT_COUNT>
1

> <PUBCHEM_CACTVS_TAUTO_COUNT>
2

> <PUBCHEM_CONFORMER_ID>
026E3A1000000001

> <PUBCHEM_MMFF94_ENERGY>
47.6832

> <PUBCHEM_FEATURE_SELFOVERLAP>
65.983

> <PUBCHEM_SHAPE_FINGERPRINT>
10 15 14979961380614273659
106641 1 17775283893332272330
10753850 27 18186522116062215251
11823591 26 9727637168173219225
12166972 35 18040438818893872844
12293681 160 13045936911208501581
12516196 113 18410576184174719682
12916748 109 18059855031311509434
12977781 61 16663480936802214688
13073987 5 17916582017708599546
13177829 20 17132113571712051203
13685833 64 18334297586799747851
14251752 14 11025793206473846446
15052358 14 11386368119181076370
15183329 4 12757143572012561958
15188451 53 17313376804515935818
15301273 46 17274830125294299551
15350500 55 11599462256612328603
15927050 60 17623007211396681148
18006028 8 18412826893493999139
18335252 114 9583243803370907555
18335252 98 18272374162024693334
200 152 17312825940078284676
20028762 73 18342741835985828798
20567600 70 18337392737897134883
20621476 66 10519694601684677698
21150785 3 15430036578070811835
21267235 1 18412270535930391974
21521239 73 15213016059311491387
21637258 2 18114176454188394127
22224240 67 16702020876971794727
23198884 109 14345793847069207223
23559900 14 16081661087683982093
2747138 104 18202004339208559210
2838139 119 9727632778811932683
293599 30 9007057959154808109
3009799 131 14129060326736066974
4015057 19 15357994364321392700
5104073 3 17915460485298336986
5219985 9 18334013904347211493
56616090 89 18411139121243797976
57724786 102 13182435795503664402
59682541 35 18340764927606677866
59682541 52 14345785042259383968
5969126 39 17385435510285625815

> <PUBCHEM_SHAPE_MULTIPOLES>
434.91
20.75
2.28
1.28
2.63
1.46
0.17
-15.94
4.09
-2.57
0
0.4
0.11
-0.01

> <PUBCHEM_SHAPE_SELFOVERLAP>
887.74

> <PUBCHEM_SHAPE_VOLUME>
252.1

> <PUBCHEM_COORDINATE_TYPE>
2
5
10

$$$$
