26742909
  -OEChem-12032416193D

 53 56  0     1  0  0  0  0  0999 V2000
   -9.4164   -0.7602    0.8081 F   0  0  0  0  0  0  0  0  0  0  0  0
    4.2358    0.6617   -1.4054 O   0  0  0  0  0  0  0  0  0  0  0  0
   -3.6361   -0.6810   -1.6241 O   0  0  0  0  0  0  0  0  0  0  0  0
    0.0961    3.3582    0.8281 N   0  0  0  0  0  0  0  0  0  0  0  0
    4.7042   -0.4271    0.6226 N   0  0  0  0  0  0  0  0  0  0  0  0
   -2.2546   -0.6048   -1.7532 N   0  0  0  0  0  0  0  0  0  0  0  0
    1.6379    1.3231   -0.6510 C   0  0  1  0  0  0  0  0  0  0  0  0
    0.1265    1.1749   -0.3545 C   0  0  2  0  0  0  0  0  0  0  0  0
    2.0076    2.8159   -0.6395 C   0  0  0  0  0  0  0  0  0  0  0  0
   -0.2824    1.9471    0.9112 C   0  0  0  0  0  0  0  0  0  0  0  0
    1.5342    3.5243    0.6290 C   0  0  0  0  0  0  0  0  0  0  0  0
   -0.3263   -0.2829   -0.2641 C   0  0  0  0  0  0  0  0  0  0  0  0
    2.5411    0.5301    0.3010 C   0  0  0  0  0  0  0  0  0  0  0  0
   -1.8013   -0.4140   -0.5109 C   0  0  0  0  0  0  0  0  0  0  0  0
    3.9179    0.2768   -0.2849 C   0  0  0  0  0  0  0  0  0  0  0  0
   -2.8405   -0.3618    0.4342 C   0  0  0  0  0  0  0  0  0  0  0  0
   -3.9728   -0.5350   -0.3171 C   0  0  0  0  0  0  0  0  0  0  0  0
    6.0429   -0.8542    0.4547 C   0  0  0  0  0  0  0  0  0  0  0  0
   -5.3760   -0.5920   -0.0270 C   0  0  0  0  0  0  0  0  0  0  0  0
    6.6839   -1.5551    1.4762 C   0  0  0  0  0  0  0  0  0  0  0  0
    6.7214   -0.5748   -0.7316 C   0  0  0  0  0  0  0  0  0  0  0  0
   -5.8230   -0.4525    1.2870 C   0  0  0  0  0  0  0  0  0  0  0  0
   -6.2940   -0.7878   -1.0588 C   0  0  0  0  0  0  0  0  0  0  0  0
    8.0036   -1.9765    1.3114 C   0  0  0  0  0  0  0  0  0  0  0  0
    8.0408   -0.9963   -0.8964 C   0  0  0  0  0  0  0  0  0  0  0  0
   -7.1877   -0.5092    1.5692 C   0  0  0  0  0  0  0  0  0  0  0  0
   -7.6588   -0.8446   -0.7767 C   0  0  0  0  0  0  0  0  0  0  0  0
    8.6818   -1.6971    0.1252 C   0  0  0  0  0  0  0  0  0  0  0  0
   -8.1057   -0.7052    0.5373 C   0  0  0  0  0  0  0  0  0  0  0  0
    1.7973    0.9492   -1.6719 H   0  0  0  0  0  0  0  0  0  0  0  0
   -0.3974    1.6443   -1.2021 H   0  0  0  0  0  0  0  0  0  0  0  0
    1.5430    3.2999   -1.5093 H   0  0  0  0  0  0  0  0  0  0  0  0
    3.0880    2.9576   -0.7535 H   0  0  0  0  0  0  0  0  0  0  0  0
   -1.3675    1.9150    1.0450 H   0  0  0  0  0  0  0  0  0  0  0  0
    0.1617    1.4939    1.8061 H   0  0  0  0  0  0  0  0  0  0  0  0
    2.0835    3.1721    1.5091 H   0  0  0  0  0  0  0  0  0  0  0  0
    1.7503    4.5945    0.5357 H   0  0  0  0  0  0  0  0  0  0  0  0
   -0.0912   -0.7134    0.7171 H   0  0  0  0  0  0  0  0  0  0  0  0
    0.2026   -0.8893   -1.0112 H   0  0  0  0  0  0  0  0  0  0  0  0
    2.1214   -0.4620    0.4984 H   0  0  0  0  0  0  0  0  0  0  0  0
    2.6520    1.0276    1.2700 H   0  0  0  0  0  0  0  0  0  0  0  0
   -0.1826    3.8334    1.6860 H   0  0  0  0  0  0  0  0  0  0  0  0
   -2.7665   -0.2217    1.5027 H   0  0  0  0  0  0  0  0  0  0  0  0
    4.2842   -0.6724    1.5168 H   0  0  0  0  0  0  0  0  0  0  0  0
    6.1669   -1.7795    2.4056 H   0  0  0  0  0  0  0  0  0  0  0  0
    6.2932   -0.0379   -1.5662 H   0  0  0  0  0  0  0  0  0  0  0  0
   -5.1322   -0.2988    2.1119 H   0  0  0  0  0  0  0  0  0  0  0  0
   -5.9853   -0.9009   -2.0949 H   0  0  0  0  0  0  0  0  0  0  0  0
    8.5028   -2.5221    2.1068 H   0  0  0  0  0  0  0  0  0  0  0  0
    8.5703   -0.7794   -1.8197 H   0  0  0  0  0  0  0  0  0  0  0  0
   -7.5365   -0.4008    2.5920 H   0  0  0  0  0  0  0  0  0  0  0  0
   -8.3742   -0.9973   -1.5793 H   0  0  0  0  0  0  0  0  0  0  0  0
    9.7092   -2.0251   -0.0032 H   0  0  0  0  0  0  0  0  0  0  0  0
  1 29  1  0  0  0  0
  2 15  2  0  0  0  0
  3  6  1  0  0  0  0
  3 17  1  0  0  0  0
  4 10  1  0  0  0  0
  4 11  1  0  0  0  0
  4 42  1  0  0  0  0
  5 15  1  0  0  0  0
  5 18  1  0  0  0  0
  5 44  1  0  0  0  0
  6 14  2  0  0  0  0
  7  8  1  0  0  0  0
  7  9  1  0  0  0  0
  7 13  1  0  0  0  0
  7 30  1  0  0  0  0
  8 10  1  0  0  0  0
  8 12  1  0  0  0  0
  8 31  1  0  0  0  0
  9 11  1  0  0  0  0
  9 32  1  0  0  0  0
  9 33  1  0  0  0  0
 10 34  1  0  0  0  0
 10 35  1  0  0  0  0
 11 36  1  0  0  0  0
 11 37  1  0  0  0  0
 12 14  1  0  0  0  0
 12 38  1  0  0  0  0
 12 39  1  0  0  0  0
 13 15  1  0  0  0  0
 13 40  1  0  0  0  0
 13 41  1  0  0  0  0
 14 16  1  0  0  0  0
 16 17  2  0  0  0  0
 16 43  1  0  0  0  0
 17 19  1  0  0  0  0
 18 20  2  0  0  0  0
 18 21  1  0  0  0  0
 19 22  2  0  0  0  0
 19 23  1  0  0  0  0
 20 24  1  0  0  0  0
 20 45  1  0  0  0  0
 21 25  2  0  0  0  0
 21 46  1  0  0  0  0
 22 26  1  0  0  0  0
 22 47  1  0  0  0  0
 23 27  2  0  0  0  0
 23 48  1  0  0  0  0
 24 28  2  0  0  0  0
 24 49  1  0  0  0  0
 25 28  1  0  0  0  0
 25 50  1  0  0  0  0
 26 29  2  0  0  0  0
 26 51  1  0  0  0  0
 27 29  1  0  0  0  0
 27 52  1  0  0  0  0
 28 53  1  0  0  0  0
M  END
> <PUBCHEM_COMPOUND_CID>
26742909

> <PUBCHEM_CONFORMER_RMSD>
1

> <PUBCHEM_CONFORMER_DIVERSEORDER>
1
38
3
81
85
60
98
92
57
95
71
52
21
25
28
67
30
72
50
80
59
42
51
29
86
22
63
99
62
19
11
49
27
82
32
54
91
77
26
43
89
37
94
13
40
39
83
74
7
33
47
76
17
5
93
36
90
35
15
66
61
18
41
55
100
10
45
24
2
48
84
44
56
87
69
73
20
78
70
88
58
96
31
75
8
79
97
14
68
64
16
23
46
53
34
65
12
6
9
4

> <PUBCHEM_MMFF94_PARTIAL_CHARGES>
38
1 -0.19
10 0.27
11 0.27
12 0.18
13 0.06
14 0.11
15 0.57
16 -0.15
17 0.09
18 0.12
19 0.05
2 -0.57
20 -0.15
21 -0.15
22 -0.15
23 -0.15
24 -0.15
25 -0.15
26 -0.15
27 -0.15
28 -0.15
29 0.19
3 -0.02
4 -0.9
42 0.36
43 0.15
44 0.37
45 0.15
46 0.15
47 0.15
48 0.15
49 0.15
5 -0.55
50 0.15
51 0.15
52 0.15
53 0.15
6 -0.41

> <PUBCHEM_EFFECTIVE_ROTOR_COUNT>
8.2

> <PUBCHEM_PHARMACOPHORE_FEATURES>
9
1 2 acceptor
1 4 cation
1 4 donor
1 5 donor
1 6 acceptor
5 3 6 14 16 17 rings
6 18 20 21 24 25 28 rings
6 19 22 23 26 27 29 rings
6 4 7 8 9 10 11 rings

> <PUBCHEM_HEAVY_ATOM_COUNT>
29

> <PUBCHEM_ATOM_DEF_STEREO_COUNT>
2

> <PUBCHEM_ATOM_UDEF_STEREO_COUNT>
0

> <PUBCHEM_BOND_DEF_STEREO_COUNT>
0

> <PUBCHEM_BOND_UDEF_STEREO_COUNT>
0

> <PUBCHEM_ISOTOPIC_ATOM_COUNT>
0

> <PUBCHEM_COMPONENT_COUNT>
1

> <PUBCHEM_CACTVS_TAUTO_COUNT>
2

> <PUBCHEM_CONFORMER_ID>
0198107D00000001

> <PUBCHEM_MMFF94_ENERGY>
60.6585

> <PUBCHEM_FEATURE_SELFOVERLAP>
45.672

> <PUBCHEM_SHAPE_FINGERPRINT>
10 15 13614519662656626666
10190108 129 18131350774918687734
10280341 67 15840727167275692795
10299344 5 17894632547579994263
10753850 27 18334008381303903992
10904742 90 9151170957198510024
11273773 46 17894632539053630251
11297750 10 18409156715165694116
11456790 92 18272099309908328089
11476731 38 18334863836242860884
12166972 35 17967814951478739556
12592606 108 18409728491249794299
12758862 56 18411978091697203379
13673619 4 18113333111252703468
13685833 64 18407476665744906862
13782708 43 17969789764350998419
14150022 121 16486980548673860496
14216079 64 18412263918034901502
14347424 109 17704068538661201120
14428016 86 9583520928267985262
150020 25 15574719101129823018
15131766 46 14547014465547371922
15183329 4 15285635465853918480
15392192 104 16630240416188920406
15419008 145 18272376331062598585
15773216 30 14924210574460035920
17134984 74 16588020196295777882
1754911 235 12468355756430201595
19301679 30 18268995285224721942
20105231 36 15430042067619109721
20771845 65 18408040724127854412
21150785 3 13695588849532235742
21267235 1 18409449172420012660
21365058 113 17168145667355758653
21781055 127 16988025854130670529
21792934 111 18059850662391279800
21792961 116 18260540078796789462
22224240 67 10879992462666918412
23559900 14 17823418374172518109
246663 6 17894632547606439491
249057 3 18412261765966382703
3004659 81 17894908534405762404
3178227 256 18335142007118693763
3383291 50 18342177769367192955
4098825 35 17167859725755023172
4107672 100 16443336543053699975
439807 62 17894633651882279622
4403749 210 11887372742650125636
5104073 3 17844530118327703883
5219985 9 18412261731754161932
54039377 194 18334577919647545302
5470011 282 17167866366223193254
57527293 21 17203029886435733308
6058803 2 17484509397840433653
9663363 56 18410849963266303168
9962374 69 18341044224623753055

> <PUBCHEM_SHAPE_MULTIPOLES>
562.85
28.64
2.51
1.38
3.44
3.18
0.01
-24.14
-4.85
-3.36
-0.7
0.45
-0.24
-1.16

> <PUBCHEM_SHAPE_SELFOVERLAP>
1212.802

> <PUBCHEM_SHAPE_VOLUME>
308.5

> <PUBCHEM_COORDINATE_TYPE>
2
5
10

$$$$
