40533565
  -OEChem-12032416113D

 50 54  0     1  0  0  0  0  0999 V2000
    2.6369   -1.5115   -0.5324 S   0  0  0  0  0  0  0  0  0  0  0  0
    2.6844   -1.8584   -1.9370 O   0  0  0  0  0  0  0  0  0  0  0  0
    2.1428   -2.4525    0.4505 O   0  0  0  0  0  0  0  0  0  0  0  0
   -2.8900    0.7026   -1.8532 O   0  0  0  0  0  0  0  0  0  0  0  0
    1.8054   -0.0271   -0.3500 N   0  0  2  0  0  0  0  0  0  0  0  0
   -1.1074    1.1936   -0.4318 N   0  0  0  0  0  0  0  0  0  0  0  0
   -6.9129   -0.3121    0.7218 N   0  0  0  0  0  0  0  0  0  0  0  0
    1.0996    2.1809   -1.2773 C   0  0  1  0  0  0  0  0  0  0  0  0
    0.8094    1.7162    1.1167 C   0  0  2  0  0  0  0  0  0  0  0  0
    1.1922    2.7989    0.1115 C   0  0  0  0  0  0  0  0  0  0  0  0
    2.0667    0.9927   -1.4056 C   0  0  0  0  0  0  0  0  0  0  0  0
    1.8128    0.5521    1.0267 C   0  0  0  0  0  0  0  0  0  0  0  0
   -0.3565    1.7830   -1.5488 C   0  0  0  0  0  0  0  0  0  0  0  0
   -0.6020    1.2165    0.8701 C   0  0  0  0  0  0  0  0  0  0  0  0
   -1.3544    0.7788    1.8922 C   0  0  0  0  0  0  0  0  0  0  0  0
   -2.3970    0.7069   -0.7239 C   0  0  0  0  0  0  0  0  0  0  0  0
   -3.2025    0.1894    0.4375 C   0  0  0  0  0  0  0  0  0  0  0  0
   -2.6709    0.2529    1.6674 C   0  0  0  0  0  0  0  0  0  0  0  0
    4.2605   -1.0193   -0.0433 C   0  0  0  0  0  0  0  0  0  0  0  0
   -4.5448   -0.3848    0.2399 C   0  0  0  0  0  0  0  0  0  0  0  0
    4.6435   -1.1105    1.2948 C   0  0  0  0  0  0  0  0  0  0  0  0
    5.1599   -0.5388   -0.9950 C   0  0  0  0  0  0  0  0  0  0  0  0
   -4.7371   -1.4955   -0.5743 C   0  0  0  0  0  0  0  0  0  0  0  0
    5.9260   -0.7210    1.6814 C   0  0  0  0  0  0  0  0  0  0  0  0
    6.4424   -0.1497   -0.6086 C   0  0  0  0  0  0  0  0  0  0  0  0
   -5.6555    0.1648    0.8599 C   0  0  0  0  0  0  0  0  0  0  0  0
    6.8253   -0.2406    0.7296 C   0  0  0  0  0  0  0  0  0  0  0  0
   -6.0160   -2.0150   -0.7414 C   0  0  0  0  0  0  0  0  0  0  0  0
   -7.0608   -1.3925   -0.0774 C   0  0  0  0  0  0  0  0  0  0  0  0
    1.3945    2.9256   -2.0273 H   0  0  0  0  0  0  0  0  0  0  0  0
    0.8749    2.1497    2.1234 H   0  0  0  0  0  0  0  0  0  0  0  0
    0.5223    3.6638    0.1957 H   0  0  0  0  0  0  0  0  0  0  0  0
    2.2095    3.1610    0.3039 H   0  0  0  0  0  0  0  0  0  0  0  0
    3.0936    1.3628   -1.3180 H   0  0  0  0  0  0  0  0  0  0  0  0
    1.9471    0.5444   -2.3975 H   0  0  0  0  0  0  0  0  0  0  0  0
    1.5471   -0.2196    1.7579 H   0  0  0  0  0  0  0  0  0  0  0  0
    2.8086    0.9355    1.2718 H   0  0  0  0  0  0  0  0  0  0  0  0
   -0.4165    1.1029   -2.4079 H   0  0  0  0  0  0  0  0  0  0  0  0
   -0.9166    2.6830   -1.8379 H   0  0  0  0  0  0  0  0  0  0  0  0
   -0.9832    0.7788    2.9117 H   0  0  0  0  0  0  0  0  0  0  0  0
   -3.2029   -0.1116    2.5413 H   0  0  0  0  0  0  0  0  0  0  0  0
    3.9597   -1.4801    2.0536 H   0  0  0  0  0  0  0  0  0  0  0  0
    4.8826   -0.4565   -2.0420 H   0  0  0  0  0  0  0  0  0  0  0  0
   -3.9014   -1.9705   -1.0819 H   0  0  0  0  0  0  0  0  0  0  0  0
    6.2242   -0.7913    2.7234 H   0  0  0  0  0  0  0  0  0  0  0  0
    7.1427    0.2253   -1.3493 H   0  0  0  0  0  0  0  0  0  0  0  0
   -5.5774    1.0356    1.5045 H   0  0  0  0  0  0  0  0  0  0  0  0
    7.8238    0.0629    1.0306 H   0  0  0  0  0  0  0  0  0  0  0  0
   -6.1895   -2.8806   -1.3704 H   0  0  0  0  0  0  0  0  0  0  0  0
   -8.0774   -1.7593   -0.1744 H   0  0  0  0  0  0  0  0  0  0  0  0
  1  2  2  0  0  0  0
  1  3  2  0  0  0  0
  1  5  1  0  0  0  0
  1 19  1  0  0  0  0
  4 16  2  0  0  0  0
  5 11  1  0  0  0  0
  5 12  1  0  0  0  0
  6 13  1  0  0  0  0
  6 14  1  0  0  0  0
  6 16  1  0  0  0  0
  7 26  1  0  0  0  0
  7 29  2  0  0  0  0
  8 10  1  0  0  0  0
  8 11  1  0  0  0  0
  8 13  1  0  0  0  0
  8 30  1  0  0  0  0
  9 10  1  0  0  0  0
  9 12  1  0  0  0  0
  9 14  1  0  0  0  0
  9 31  1  0  0  0  0
 10 32  1  0  0  0  0
 10 33  1  0  0  0  0
 11 34  1  0  0  0  0
 11 35  1  0  0  0  0
 12 36  1  0  0  0  0
 12 37  1  0  0  0  0
 13 38  1  0  0  0  0
 13 39  1  0  0  0  0
 14 15  2  0  0  0  0
 15 18  1  0  0  0  0
 15 40  1  0  0  0  0
 16 17  1  0  0  0  0
 17 18  2  0  0  0  0
 17 20  1  0  0  0  0
 18 41  1  0  0  0  0
 19 21  2  0  0  0  0
 19 22  1  0  0  0  0
 20 23  1  0  0  0  0
 20 26  2  0  0  0  0
 21 24  1  0  0  0  0
 21 42  1  0  0  0  0
 22 25  2  0  0  0  0
 22 43  1  0  0  0  0
 23 28  2  0  0  0  0
 23 44  1  0  0  0  0
 24 27  2  0  0  0  0
 24 45  1  0  0  0  0
 25 27  1  0  0  0  0
 25 46  1  0  0  0  0
 26 47  1  0  0  0  0
 27 48  1  0  0  0  0
 28 29  1  0  0  0  0
 28 49  1  0  0  0  0
 29 50  1  0  0  0  0
M  END
> <PUBCHEM_COMPOUND_CID>
40533565

> <PUBCHEM_CONFORMER_RMSD>
0.8

> <PUBCHEM_CONFORMER_DIVERSEORDER>
1
8
9
6
4
11
10
5
3
12
7
2

> <PUBCHEM_MMFF94_PARTIAL_CHARGES>
38
1 1.45
11 0.36
12 0.36
13 0.3
14 -0.03
15 -0.15
16 0.62
17 -0.01
18 -0.15
19 -0.01
2 -0.65
20 0.03
21 -0.15
22 -0.15
23 -0.15
24 -0.15
25 -0.15
26 0.16
27 -0.15
28 -0.15
29 0.16
3 -0.65
4 -0.57
40 0.15
41 0.15
42 0.15
43 0.15
44 0.15
45 0.15
46 0.15
47 0.15
48 0.15
49 0.15
5 -0.85
50 0.15
6 -0.47
7 -0.62
9 0.14

> <PUBCHEM_EFFECTIVE_ROTOR_COUNT>
4

> <PUBCHEM_PHARMACOPHORE_FEATURES>
9
1 2 acceptor
1 3 acceptor
1 4 acceptor
1 7 acceptor
6 19 21 22 24 25 27 rings
6 5 8 9 10 11 12 rings
6 6 14 15 16 17 18 rings
6 6 8 9 10 13 14 rings
6 7 20 23 26 28 29 rings

> <PUBCHEM_HEAVY_ATOM_COUNT>
29

> <PUBCHEM_ATOM_DEF_STEREO_COUNT>
2

> <PUBCHEM_ATOM_UDEF_STEREO_COUNT>
0

> <PUBCHEM_BOND_DEF_STEREO_COUNT>
0

> <PUBCHEM_BOND_UDEF_STEREO_COUNT>
0

> <PUBCHEM_ISOTOPIC_ATOM_COUNT>
0

> <PUBCHEM_COMPONENT_COUNT>
1

> <PUBCHEM_CACTVS_TAUTO_COUNT>
3

> <PUBCHEM_CONFORMER_ID>
026A7E3D00000001

> <PUBCHEM_MMFF94_ENERGY>
71.6846

> <PUBCHEM_FEATURE_SELFOVERLAP>
47.276

> <PUBCHEM_SHAPE_FINGERPRINT>
10 15 15339120160276583568
10447042 23 17676207957690318730
10670039 82 14562800046270251551
10930396 42 17677870492845636680
11315621 136 18190743240160172491
11828532 37 13768511798324029859
11963148 33 18335410258393104570
12107698 1 17894066307913681373
12516196 113 18343584031848305440
12596602 18 16773801376509413187
12892183 10 16988568939891996272
13540713 4 16228035836922695233
13685833 64 18335422382926278321
14068700 675 18412262848034319633
14251751 18 18413669115280079159
14341114 176 15626504982417578370
14347332 77 18114178623226448445
1454969 45 18409174329183939580
14955137 171 16272209700136783712
15021287 119 18187661184793085321
15183329 4 13840260369074600762
15510800 12 18340499966616696443
15728490 51 17775281707615840382
15927050 60 17340113856238781680
17349148 13 16734122141573854636
17492 89 17826221896985200010
1813 80 18339653256124997188
18335252 114 11891322184380481531
18393751 57 17916565641056329146
19784866 240 18342182176266687801
19958102 18 15430313573465309162
20028762 73 18272370897285507542
20465049 17 11746940888514827399
20567600 70 18342175613156096699
21403212 168 11527951127677824496
21637258 2 18409162229749558517
22393880 68 12757438292816093581
22956985 138 17906453230573855654
23522609 53 18044124330515920805
23559900 14 16588311643500824829
24893992 56 9655571916698998687
2838139 119 8070026662226602255
3004659 81 18412829114039629091
3009799 131 16298386872859909384
329604 57 17675928681588949772
3383291 50 18130508647733430855
3737641 26 17631174091615060534
4058900 60 9006786414375198765
4066623 53 16081085999983911804
4098825 35 17458059353002145477
4149490 64 18265617778888336891
4325135 7 18411421709318190358
439807 62 17458343040050387351
46194498 28 17603871134516042373
463206 1 18338236093480578411
5104073 3 17345192199731079866
513532 50 13407072635054378092
59682541 35 18131062767169684042
59755656 520 10303807662228885241
613672 6 18114761359788201882
6669772 16 17459752712889403344

> <PUBCHEM_SHAPE_MULTIPOLES>
568.1
16.87
2.24
1.7
6.82
0.35
0
-10.81
-2.04
-0.12
0.52
-0.62
0.24
-0.67

> <PUBCHEM_SHAPE_SELFOVERLAP>
1241.153

> <PUBCHEM_SHAPE_VOLUME>
307.4

> <PUBCHEM_COORDINATE_TYPE>
2
5
10

$$$$
