26742970
  -OEChem-12032416353D

 59 60  0     1  0  0  0  0  0999 V2000
   -4.3968   -1.6268   -0.9303 O   0  0  0  0  0  0  0  0  0  0  0  0
    3.4754   -0.2815   -1.4177 O   0  0  0  0  0  0  0  0  0  0  0  0
   -0.6070    2.9071    0.2335 N   0  0  0  0  0  0  0  0  0  0  0  0
    4.0421   -0.8067    0.7740 N   0  0  0  0  0  0  0  0  0  0  0  0
   -3.0232   -1.5845   -1.1366 N   0  0  0  0  0  0  0  0  0  0  0  0
    7.7385   -0.5691    0.3868 N   0  0  0  0  0  0  0  0  0  0  0  0
    0.8911    0.5597   -0.7422 C   0  0  1  0  0  0  0  0  0  0  0  0
   -0.6041    0.4935   -0.3497 C   0  0  2  0  0  0  0  0  0  0  0  0
    1.2444    2.0053   -1.1306 C   0  0  0  0  0  0  0  0  0  0  0  0
   -0.9658    1.5649    0.6927 C   0  0  0  0  0  0  0  0  0  0  0  0
   -1.0363   -0.8921    0.1319 C   0  0  0  0  0  0  0  0  0  0  0  0
    0.8191    3.0158   -0.0662 C   0  0  0  0  0  0  0  0  0  0  0  0
    1.8439    0.0373    0.3397 C   0  0  0  0  0  0  0  0  0  0  0  0
   -2.5192   -1.0814   -0.0062 C   0  0  0  0  0  0  0  0  0  0  0  0
    3.1919   -0.3566   -0.2253 C   0  0  0  0  0  0  0  0  0  0  0  0
   -3.5171   -0.7901    0.9399 C   0  0  0  0  0  0  0  0  0  0  0  0
   -4.6785   -1.1512    0.3096 C   0  0  0  0  0  0  0  0  0  0  0  0
    5.3937   -1.2501    0.5197 C   0  0  0  0  0  0  0  0  0  0  0  0
   -6.0946   -1.1250    0.6952 C   0  0  0  0  0  0  0  0  0  0  0  0
    6.3800   -0.0957    0.6181 C   0  0  0  0  0  0  0  0  0  0  0  0
   -6.8743    0.0464    0.0567 C   0  0  0  0  0  0  0  0  0  0  0  0
   -8.3362    0.0904    0.5008 C   0  0  0  0  0  0  0  0  0  0  0  0
   -9.0689    1.2744   -0.1099 C   0  0  0  0  0  0  0  0  0  0  0  0
    8.7139    0.3596    0.9616 C   0  0  0  0  0  0  0  0  0  0  0  0
    7.9879   -0.7435   -1.0455 C   0  0  0  0  0  0  0  0  0  0  0  0
    1.0107   -0.0638   -1.6391 H   0  0  0  0  0  0  0  0  0  0  0  0
   -1.1697    0.7297   -1.2648 H   0  0  0  0  0  0  0  0  0  0  0  0
    0.7370    2.2500   -2.0736 H   0  0  0  0  0  0  0  0  0  0  0  0
    2.3173    2.1121   -1.3258 H   0  0  0  0  0  0  0  0  0  0  0  0
   -2.0436    1.5687    0.8791 H   0  0  0  0  0  0  0  0  0  0  0  0
   -0.4779    1.3564    1.6530 H   0  0  0  0  0  0  0  0  0  0  0  0
   -0.7537   -1.0563    1.1790 H   0  0  0  0  0  0  0  0  0  0  0  0
   -0.5339   -1.6702   -0.4576 H   0  0  0  0  0  0  0  0  0  0  0  0
    1.4102    2.9010    0.8491 H   0  0  0  0  0  0  0  0  0  0  0  0
    1.0192    4.0261   -0.4405 H   0  0  0  0  0  0  0  0  0  0  0  0
    1.4458   -0.8710    0.8044 H   0  0  0  0  0  0  0  0  0  0  0  0
    1.9935    0.7661    1.1427 H   0  0  0  0  0  0  0  0  0  0  0  0
   -0.8533    3.5868    0.9524 H   0  0  0  0  0  0  0  0  0  0  0  0
   -3.4109   -0.3813    1.9339 H   0  0  0  0  0  0  0  0  0  0  0  0
    3.7140   -0.8229    1.7354 H   0  0  0  0  0  0  0  0  0  0  0  0
    5.6223   -2.0199    1.2654 H   0  0  0  0  0  0  0  0  0  0  0  0
    5.4123   -1.7213   -0.4678 H   0  0  0  0  0  0  0  0  0  0  0  0
   -6.5693   -2.0721    0.4105 H   0  0  0  0  0  0  0  0  0  0  0  0
   -6.1738   -1.0543    1.7871 H   0  0  0  0  0  0  0  0  0  0  0  0
    6.1076    0.7206   -0.0641 H   0  0  0  0  0  0  0  0  0  0  0  0
    6.2913    0.3180    1.6323 H   0  0  0  0  0  0  0  0  0  0  0  0
   -6.8248   -0.0359   -1.0367 H   0  0  0  0  0  0  0  0  0  0  0  0
   -6.3837    0.9922    0.3215 H   0  0  0  0  0  0  0  0  0  0  0  0
   -8.8403   -0.8380    0.2086 H   0  0  0  0  0  0  0  0  0  0  0  0
   -8.3903    0.1592    1.5935 H   0  0  0  0  0  0  0  0  0  0  0  0
   -8.6074    2.2200    0.1922 H   0  0  0  0  0  0  0  0  0  0  0  0
  -10.1125    1.2853    0.2199 H   0  0  0  0  0  0  0  0  0  0  0  0
   -9.0586    1.2205   -1.2032 H   0  0  0  0  0  0  0  0  0  0  0  0
    8.5743    0.4449    2.0451 H   0  0  0  0  0  0  0  0  0  0  0  0
    8.6386    1.3610    0.5222 H   0  0  0  0  0  0  0  0  0  0  0  0
    9.7342   -0.0094    0.8080 H   0  0  0  0  0  0  0  0  0  0  0  0
    7.3315   -1.5017   -1.4831 H   0  0  0  0  0  0  0  0  0  0  0  0
    9.0112   -1.1003   -1.2116 H   0  0  0  0  0  0  0  0  0  0  0  0
    7.8608    0.1903   -1.6056 H   0  0  0  0  0  0  0  0  0  0  0  0
  1  5  1  0  0  0  0
  1 17  1  0  0  0  0
  2 15  2  0  0  0  0
  3 10  1  0  0  0  0
  3 12  1  0  0  0  0
  3 38  1  0  0  0  0
  4 15  1  0  0  0  0
  4 18  1  0  0  0  0
  4 40  1  0  0  0  0
  5 14  2  0  0  0  0
  6 20  1  0  0  0  0
  6 24  1  0  0  0  0
  6 25  1  0  0  0  0
  7  8  1  0  0  0  0
  7  9  1  0  0  0  0
  7 13  1  0  0  0  0
  7 26  1  0  0  0  0
  8 10  1  0  0  0  0
  8 11  1  0  0  0  0
  8 27  1  0  0  0  0
  9 12  1  0  0  0  0
  9 28  1  0  0  0  0
  9 29  1  0  0  0  0
 10 30  1  0  0  0  0
 10 31  1  0  0  0  0
 11 14  1  0  0  0  0
 11 32  1  0  0  0  0
 11 33  1  0  0  0  0
 12 34  1  0  0  0  0
 12 35  1  0  0  0  0
 13 15  1  0  0  0  0
 13 36  1  0  0  0  0
 13 37  1  0  0  0  0
 14 16  1  0  0  0  0
 16 17  2  0  0  0  0
 16 39  1  0  0  0  0
 17 19  1  0  0  0  0
 18 20  1  0  0  0  0
 18 41  1  0  0  0  0
 18 42  1  0  0  0  0
 19 21  1  0  0  0  0
 19 43  1  0  0  0  0
 19 44  1  0  0  0  0
 20 45  1  0  0  0  0
 20 46  1  0  0  0  0
 21 22  1  0  0  0  0
 21 47  1  0  0  0  0
 21 48  1  0  0  0  0
 22 23  1  0  0  0  0
 22 49  1  0  0  0  0
 22 50  1  0  0  0  0
 23 51  1  0  0  0  0
 23 52  1  0  0  0  0
 23 53  1  0  0  0  0
 24 54  1  0  0  0  0
 24 55  1  0  0  0  0
 24 56  1  0  0  0  0
 25 57  1  0  0  0  0
 25 58  1  0  0  0  0
 25 59  1  0  0  0  0
M  END
> <PUBCHEM_COMPOUND_CID>
26742970

> <PUBCHEM_CONFORMER_RMSD>
1.2

> <PUBCHEM_CONFORMER_DIVERSEORDER>
1
42
157
47
133
57
149
122
71
23
5
105
12
74
98
56
101
85
66
32
63
29
9
103
140
8
67
121
91
143
15
136
104
129
58
16
64
44
87
78
3
86
36
69
13
117
114
41
100
126
52
7
37
125
61
110
156
72
147
135
75
48
137
19
59
21
144
65
119
111
27
73
130
80
34
20
18
152
79
28
46
88
141
109
24
81
99
94
92
108
139
102
83
107
89
50
120
43
25
17
22
96
45
2
128
90
116
53
77
39
14
11
60
40
51
26
82
10
93
148
115
55
151
150
76
54
123
153
113
142
70
155
4
97
106
124
62
95
131
127
134
31
138
38
154
132
33
30
68
145
35
84
118
49
112
6
146

> <PUBCHEM_MMFF94_PARTIAL_CHARGES>
22
1 -0.02
10 0.27
11 0.18
12 0.27
13 0.06
14 0.11
15 0.57
16 -0.15
17 -0.04
18 0.3
19 0.18
2 -0.57
20 0.27
24 0.27
25 0.27
3 -0.9
38 0.36
39 0.15
4 -0.73
40 0.37
5 -0.41
6 -0.81

> <PUBCHEM_EFFECTIVE_ROTOR_COUNT>
12.2

> <PUBCHEM_PHARMACOPHORE_FEATURES>
9
1 2 acceptor
1 23 hydrophobe
1 3 cation
1 3 donor
1 4 donor
1 5 acceptor
1 6 cation
5 1 5 14 16 17 rings
6 3 7 8 9 10 12 rings

> <PUBCHEM_HEAVY_ATOM_COUNT>
25

> <PUBCHEM_ATOM_DEF_STEREO_COUNT>
2

> <PUBCHEM_ATOM_UDEF_STEREO_COUNT>
0

> <PUBCHEM_BOND_DEF_STEREO_COUNT>
0

> <PUBCHEM_BOND_UDEF_STEREO_COUNT>
0

> <PUBCHEM_ISOTOPIC_ATOM_COUNT>
0

> <PUBCHEM_COMPONENT_COUNT>
1

> <PUBCHEM_CACTVS_TAUTO_COUNT>
2

> <PUBCHEM_CONFORMER_ID>
019810BA00000001

> <PUBCHEM_MMFF94_ENERGY>
23.6393

> <PUBCHEM_FEATURE_SELFOVERLAP>
45.67

> <PUBCHEM_SHAPE_FINGERPRINT>
10670039 82 11242237559206817542
10674148 151 15936407840912703141
11211813 89 18333729109418744909
11265709 11 18409165528379497836
12516196 113 18408884057840107866
12592606 108 18409164442117113091
12838862 33 18341037562797277567
14117953 113 18273219689853877774
14123256 10 8934999274527691299
14251764 18 18187083949202930599
14251764 46 16774078471320919602
14257110 125 9727635003134999779
15131766 46 15552163823262216648
15183329 4 8646777703507140810
15301273 46 17704077283129972542
15461852 350 16630520765794548023
15849732 13 18202845461467277863
16087824 20 18337390423574725301
18006028 8 18410291419564290152
20238998 120 18342175570243912416
20832881 197 18333452066916634785
21095086 128 12973606642787346427
21150785 3 8142086463655804090
21267235 1 18335143098541156962
21304253 13 18201437003782786097
21304303 172 18272097049843705929
21344244 181 12901542403992660649
21344244 246 11170174438221239112
21403212 168 12823298983754281068
21792934 111 18411695500271861312
21792961 116 17967803912531833463
22224240 67 17060336336381356246
23198884 109 12685087082145466406
23559900 14 17896320405893598064
25147074 1 18263662748092760460
3004659 81 17749107816199943466
335352 9 18408884045250540303
4017518 198 17346885545784261398
4098825 35 16660362584396801140
4325135 7 18343865529043469082
5104073 3 18127984211947930291
5219985 9 18260543433588422412
5283156 175 18113900442906157578
5381727 24 10592043544755302796
6081469 158 17775568615562552858
6126387 218 18412260636473879953
6523845 18 9295288313800288186
6691757 9 16630531769654507679
9663363 56 18408880746172311890

> <PUBCHEM_SHAPE_MULTIPOLES>
482.83
25.85
2.14
1.05
2.81
1.88
-0.16
-4.95
3.88
-0.94
-0.11
0.71
-0.08
-0.08

> <PUBCHEM_SHAPE_SELFOVERLAP>
960.017

> <PUBCHEM_SHAPE_VOLUME>
286.7

> <PUBCHEM_COORDINATE_TYPE>
2
5
10

$$$$
