11879867
  -OEChem-12032416113D

 62 66  0     1  0  0  0  0  0999 V2000
    3.5790   -2.6206    0.1656 S   0  0  0  0  0  0  0  0  0  0  0  0
   -5.2453    0.1390    2.4955 F   0  0  0  0  0  0  0  0  0  0  0  0
    2.0400    0.3662    2.4974 O   0  0  0  0  0  0  0  0  0  0  0  0
   -1.0729    0.5971   -2.1115 O   0  0  0  0  0  0  0  0  0  0  0  0
    3.9998   -2.4105   -1.2062 O   0  0  0  0  0  0  0  0  0  0  0  0
    4.0028   -3.7841    0.9206 O   0  0  0  0  0  0  0  0  0  0  0  0
   -2.8379   -1.9559   -2.2319 O   0  0  0  0  0  0  0  0  0  0  0  0
   -0.6084    2.6439   -1.0767 N   0  0  0  0  0  0  0  0  0  0  0  0
    1.8796    1.9231    0.7541 N   0  0  0  0  0  0  0  0  0  0  0  0
    3.8831   -1.2201    1.0890 N   0  0  0  0  0  0  0  0  0  0  0  0
   -2.3107   -3.1583   -0.2736 N   0  0  0  0  0  0  0  0  0  0  0  0
    0.3153    3.9487    0.8310 C   0  0  1  0  0  0  0  0  0  0  0  0
    1.7024    3.5488   -1.1638 C   0  0  2  0  0  0  0  0  0  0  0  0
    1.3302    4.5899   -0.1092 C   0  0  0  0  0  0  0  0  0  0  0  0
   -0.9392    3.5134    0.0520 C   0  0  0  0  0  0  0  0  0  0  0  0
    0.9846    2.7720    1.5519 C   0  0  0  0  0  0  0  0  0  0  0  0
    0.4462    3.1558   -1.9667 C   0  0  0  0  0  0  0  0  0  0  0  0
    2.3065    2.3132   -0.5228 C   0  0  0  0  0  0  0  0  0  0  0  0
    3.2149    1.5798   -1.1920 C   0  0  0  0  0  0  0  0  0  0  0  0
    2.3637    0.7526    1.3751 C   0  0  0  0  0  0  0  0  0  0  0  0
   -1.2712    1.4227   -1.2219 C   0  0  0  0  0  0  0  0  0  0  0  0
    3.3438   -0.0267    0.5777 C   0  0  0  0  0  0  0  0  0  0  0  0
    3.7515    0.3710   -0.6280 C   0  0  0  0  0  0  0  0  0  0  0  0
   -2.3135    1.0868   -0.2463 C   0  0  0  0  0  0  0  0  0  0  0  0
   -3.6333    1.4606   -0.4862 C   0  0  0  0  0  0  0  0  0  0  0  0
   -1.9788    0.3944    0.9147 C   0  0  0  0  0  0  0  0  0  0  0  0
    1.7978   -2.7827    0.0329 C   0  0  0  0  0  0  0  0  0  0  0  0
   -4.6248    1.1399    0.4410 C   0  0  0  0  0  0  0  0  0  0  0  0
   -2.9704    0.0737    1.8418 C   0  0  0  0  0  0  0  0  0  0  0  0
   -4.2935    0.4465    1.6050 C   0  0  0  0  0  0  0  0  0  0  0  0
    1.1672   -2.1788   -1.0250 C   0  0  0  0  0  0  0  0  0  0  0  0
    1.1379   -3.5043    0.9946 C   0  0  0  0  0  0  0  0  0  0  0  0
   -0.2181   -2.3052   -1.1281 C   0  0  0  0  0  0  0  0  0  0  0  0
   -0.2474   -3.6308    0.8915 C   0  0  0  0  0  0  0  0  0  0  0  0
   -0.9253   -3.0312   -0.1699 C   0  0  0  0  0  0  0  0  0  0  0  0
   -3.1565   -2.6326   -1.2596 C   0  0  0  0  0  0  0  0  0  0  0  0
   -4.5987   -2.9975   -1.0118 C   0  0  0  0  0  0  0  0  0  0  0  0
    0.0009    4.6820    1.5841 H   0  0  0  0  0  0  0  0  0  0  0  0
    2.4271    4.0011   -1.8529 H   0  0  0  0  0  0  0  0  0  0  0  0
    0.9021    5.4807   -0.5848 H   0  0  0  0  0  0  0  0  0  0  0  0
    2.2185    4.9171    0.4455 H   0  0  0  0  0  0  0  0  0  0  0  0
   -1.6565    3.0960    0.7583 H   0  0  0  0  0  0  0  0  0  0  0  0
   -1.4215    4.4009   -0.3783 H   0  0  0  0  0  0  0  0  0  0  0  0
    0.2355    2.1387    2.0411 H   0  0  0  0  0  0  0  0  0  0  0  0
    1.6092    3.1718    2.3627 H   0  0  0  0  0  0  0  0  0  0  0  0
    0.6770    2.3977   -2.7233 H   0  0  0  0  0  0  0  0  0  0  0  0
    0.0350    4.0285   -2.4879 H   0  0  0  0  0  0  0  0  0  0  0  0
    3.5507    1.8598   -2.1850 H   0  0  0  0  0  0  0  0  0  0  0  0
    4.5164   -0.1257   -1.2111 H   0  0  0  0  0  0  0  0  0  0  0  0
    3.7566   -1.3350    2.1033 H   0  0  0  0  0  0  0  0  0  0  0  0
   -3.9018    2.0006   -1.3903 H   0  0  0  0  0  0  0  0  0  0  0  0
   -0.9520    0.0959    1.1075 H   0  0  0  0  0  0  0  0  0  0  0  0
   -5.6550    1.4297    0.2567 H   0  0  0  0  0  0  0  0  0  0  0  0
   -2.7125   -0.4678    2.7470 H   0  0  0  0  0  0  0  0  0  0  0  0
    1.6967   -1.6137   -1.7840 H   0  0  0  0  0  0  0  0  0  0  0  0
    1.6474   -3.9680    1.8324 H   0  0  0  0  0  0  0  0  0  0  0  0
   -0.6700   -1.8472   -1.9944 H   0  0  0  0  0  0  0  0  0  0  0  0
   -0.7864   -4.1970    1.6469 H   0  0  0  0  0  0  0  0  0  0  0  0
   -2.7531   -3.7022    0.4644 H   0  0  0  0  0  0  0  0  0  0  0  0
   -4.8964   -2.6827   -0.0076 H   0  0  0  0  0  0  0  0  0  0  0  0
   -5.2384   -2.4946   -1.7423 H   0  0  0  0  0  0  0  0  0  0  0  0
   -4.7258   -4.0792   -1.1091 H   0  0  0  0  0  0  0  0  0  0  0  0
  1  5  2  0  0  0  0
  1  6  2  0  0  0  0
  1 10  1  0  0  0  0
  1 27  1  0  0  0  0
  2 30  1  0  0  0  0
  3 20  2  0  0  0  0
  4 21  2  0  0  0  0
  7 36  2  0  0  0  0
  8 15  1  0  0  0  0
  8 17  1  0  0  0  0
  8 21  1  0  0  0  0
  9 16  1  0  0  0  0
  9 18  1  0  0  0  0
  9 20  1  0  0  0  0
 10 22  1  0  0  0  0
 10 50  1  0  0  0  0
 11 35  1  0  0  0  0
 11 36  1  0  0  0  0
 11 59  1  0  0  0  0
 12 14  1  0  0  0  0
 12 15  1  0  0  0  0
 12 16  1  0  0  0  0
 12 38  1  0  0  0  0
 13 14  1  0  0  0  0
 13 17  1  0  0  0  0
 13 18  1  0  0  0  0
 13 39  1  0  0  0  0
 14 40  1  0  0  0  0
 14 41  1  0  0  0  0
 15 42  1  0  0  0  0
 15 43  1  0  0  0  0
 16 44  1  0  0  0  0
 16 45  1  0  0  0  0
 17 46  1  0  0  0  0
 17 47  1  0  0  0  0
 18 19  2  0  0  0  0
 19 23  1  0  0  0  0
 19 48  1  0  0  0  0
 20 22  1  0  0  0  0
 21 24  1  0  0  0  0
 22 23  2  0  0  0  0
 23 49  1  0  0  0  0
 24 25  2  0  0  0  0
 24 26  1  0  0  0  0
 25 28  1  0  0  0  0
 25 51  1  0  0  0  0
 26 29  2  0  0  0  0
 26 52  1  0  0  0  0
 27 31  2  0  0  0  0
 27 32  1  0  0  0  0
 28 30  2  0  0  0  0
 28 53  1  0  0  0  0
 29 30  1  0  0  0  0
 29 54  1  0  0  0  0
 31 33  1  0  0  0  0
 31 55  1  0  0  0  0
 32 34  2  0  0  0  0
 32 56  1  0  0  0  0
 33 35  2  0  0  0  0
 33 57  1  0  0  0  0
 34 35  1  0  0  0  0
 34 58  1  0  0  0  0
 36 37  1  0  0  0  0
 37 60  1  0  0  0  0
 37 61  1  0  0  0  0
 37 62  1  0  0  0  0
M  END
> <PUBCHEM_COMPOUND_CID>
11879867

> <PUBCHEM_CONFORMER_RMSD>
1

> <PUBCHEM_CONFORMER_DIVERSEORDER>
2
39
13
49
77
69
32
50
15
19
33
61
9
60
7
66
51
40
14
74
16
55
63
75
68
41
48
67
46
64
59
31
65
12
79
26
47
42
20
8
37
28
4
58
70
43
78
21
57
23
36
73
72
76
1
52
54
62
25
30
3
6
17
18
22
38
34
71
44
56
35
24
45
29
53
27
10
5
11

> <PUBCHEM_MMFF94_PARTIAL_CHARGES>
47
1 1.45
10 -0.75
11 -0.55
13 0.14
15 0.3
16 0.3
17 0.3
18 -0.03
19 -0.15
2 -0.19
20 0.62
21 0.54
22 0.21
23 -0.15
24 0.09
25 -0.15
26 -0.15
27 -0.01
28 -0.15
29 -0.15
3 -0.57
30 0.19
31 -0.15
32 -0.15
33 -0.15
34 -0.15
35 0.12
36 0.57
37 0.06
4 -0.57
48 0.15
49 0.15
5 -0.65
50 0.42
51 0.15
52 0.15
53 0.15
54 0.15
55 0.15
56 0.15
57 0.15
58 0.15
59 0.37
6 -0.65
7 -0.57
8 -0.66
9 -0.47

> <PUBCHEM_EFFECTIVE_ROTOR_COUNT>
8

> <PUBCHEM_PHARMACOPHORE_FEATURES>
12
1 10 donor
1 11 donor
1 3 acceptor
1 4 acceptor
1 5 acceptor
1 6 acceptor
1 7 acceptor
6 24 25 26 28 29 30 rings
6 27 31 32 33 34 35 rings
6 8 12 13 14 15 17 rings
6 9 12 13 14 16 18 rings
6 9 18 19 20 22 23 rings

> <PUBCHEM_HEAVY_ATOM_COUNT>
37

> <PUBCHEM_ATOM_DEF_STEREO_COUNT>
2

> <PUBCHEM_ATOM_UDEF_STEREO_COUNT>
0

> <PUBCHEM_BOND_DEF_STEREO_COUNT>
0

> <PUBCHEM_BOND_UDEF_STEREO_COUNT>
0

> <PUBCHEM_ISOTOPIC_ATOM_COUNT>
0

> <PUBCHEM_COMPONENT_COUNT>
1

> <PUBCHEM_CACTVS_TAUTO_COUNT>
2

> <PUBCHEM_CONFORMER_ID>
00B545BB00000002

> <PUBCHEM_MMFF94_ENERGY>
101.3074

> <PUBCHEM_FEATURE_SELFOVERLAP>
62.497

> <PUBCHEM_SHAPE_FINGERPRINT>
10675989 125 17765978886025742933
1100329 8 18338795615765098783
12156800 1 14931597355594695492
12788726 201 17482280713973186417
13122387 1 18338230569840918748
13140716 1 18339910520729996526
1361 2 18049704253932888053
14117953 113 18053101727397652901
14725015 67 17903066746710271107
15297060 5 17549270684108126945
20764821 26 18335974268780597366
21796203 349 18117587117836069832
2818148 4 18411982464084699678
3027735 51 18051968418899318063
338550 245 18340205288788341091
35225 105 17412491364835581937
463206 1 18341320090198867549
5309563 4 18265339404429490601
563151 40 17396172451864396772
9981440 41 16826129059184164771

> <PUBCHEM_SHAPE_MULTIPOLES>
708.75
7.8
6.56
1.97
5.33
0.21
0.25
3.17
1.36
-2.85
-0.59
0.88
-0.3
-1.69

> <PUBCHEM_SHAPE_SELFOVERLAP>
1542.589

> <PUBCHEM_SHAPE_VOLUME>
389.1

> <PUBCHEM_COORDINATE_TYPE>
2
5
10

$$$$
