45784034
  -OEChem-12032416273D

 72 74  0     1  0  0  0  0  0999 V2000
    3.8964    1.7856   -0.8170 O   0  0  0  0  0  0  0  0  0  0  0  0
   -7.8159    0.8197   -0.3557 O   0  0  0  0  0  0  0  0  0  0  0  0
   -1.4387   -0.2653    0.4348 N   0  0  0  0  0  0  0  0  0  0  0  0
   -4.1795    0.6266    0.2082 N   0  0  0  0  0  0  0  0  0  0  0  0
    3.7019    0.9909    1.2651 N   0  0  0  0  0  0  0  0  0  0  0  0
    3.4457    2.3490    1.3006 N   0  0  0  0  0  0  0  0  0  0  0  0
    0.6668   -1.9544   -0.7074 C   0  0  1  0  0  0  0  0  0  0  0  0
    0.4423   -1.8088    0.8157 C   0  0  2  0  0  0  0  0  0  0  0  0
    1.9312   -1.1985   -1.1395 C   0  0  0  0  0  0  0  0  0  0  0  0
    3.2013   -1.6512   -0.3876 C   0  0  2  0  0  0  0  0  0  0  0  0
    0.7326   -3.4299   -1.1246 C   0  0  0  0  0  0  0  0  0  0  0  0
   -0.1892   -0.4581    1.1681 C   0  0  0  0  0  0  0  0  0  0  0  0
    1.7130   -1.9836    1.6076 C   0  0  0  0  0  0  0  0  0  0  0  0
    2.9529   -1.9289    1.0873 C   0  0  0  0  0  0  0  0  0  0  0  0
    4.3049   -0.6120   -0.6213 C   0  0  0  0  0  0  0  0  0  0  0  0
   -2.5359   -1.0045    1.0711 C   0  0  0  0  0  0  0  0  0  0  0  0
   -1.7708    1.1613    0.3364 C   0  0  0  0  0  0  0  0  0  0  0  0
   -0.6618   -4.0484   -1.1147 C   0  0  0  0  0  0  0  0  0  0  0  0
    1.3745   -3.5652   -2.5017 C   0  0  0  0  0  0  0  0  0  0  0  0
   -3.8480   -0.8003    0.3058 C   0  0  0  0  0  0  0  0  0  0  0  0
   -3.0825    1.3645   -0.4297 C   0  0  0  0  0  0  0  0  0  0  0  0
    4.1513   -2.2040    1.9537 C   0  0  0  0  0  0  0  0  0  0  0  0
    3.9598    0.7064    0.0099 C   0  0  0  0  0  0  0  0  0  0  0  0
   -5.4299    0.8201   -0.5233 C   0  0  0  0  0  0  0  0  0  0  0  0
   -6.6254    0.6053    0.3910 C   0  0  0  0  0  0  0  0  0  0  0  0
    3.5708    2.7708    0.0639 C   0  0  0  0  0  0  0  0  0  0  0  0
    3.4084    4.1233   -0.4840 C   0  0  0  0  0  0  0  0  0  0  0  0
    1.9295    4.5368   -0.6444 C   0  0  0  0  0  0  0  0  0  0  0  0
   -8.9749    0.6131    0.4401 C   0  0  0  0  0  0  0  0  0  0  0  0
    1.1692    3.6397   -1.6084 C   0  0  0  0  0  0  0  0  0  0  0  0
   -0.1657   -1.5067   -1.2647 H   0  0  0  0  0  0  0  0  0  0  0  0
   -0.2281   -2.6006    1.1641 H   0  0  0  0  0  0  0  0  0  0  0  0
    1.7374   -0.1358   -0.9453 H   0  0  0  0  0  0  0  0  0  0  0  0
    2.0967   -1.2260   -2.2221 H   0  0  0  0  0  0  0  0  0  0  0  0
    3.5544   -2.5939   -0.8223 H   0  0  0  0  0  0  0  0  0  0  0  0
    1.3511   -4.0019   -0.4217 H   0  0  0  0  0  0  0  0  0  0  0  0
    0.5225    0.3375    0.9084 H   0  0  0  0  0  0  0  0  0  0  0  0
   -0.3461   -0.3671    2.2520 H   0  0  0  0  0  0  0  0  0  0  0  0
    1.5879   -2.1856    2.6694 H   0  0  0  0  0  0  0  0  0  0  0  0
    4.4617   -0.4742   -1.6986 H   0  0  0  0  0  0  0  0  0  0  0  0
    5.2634   -0.9558   -0.2158 H   0  0  0  0  0  0  0  0  0  0  0  0
   -2.3283   -2.0794    1.0825 H   0  0  0  0  0  0  0  0  0  0  0  0
   -2.6698   -0.6880    2.1146 H   0  0  0  0  0  0  0  0  0  0  0  0
   -1.8491    1.6143    1.3341 H   0  0  0  0  0  0  0  0  0  0  0  0
   -0.9775    1.6919   -0.2028 H   0  0  0  0  0  0  0  0  0  0  0  0
   -0.6218   -5.0909   -1.4500 H   0  0  0  0  0  0  0  0  0  0  0  0
   -1.1077   -4.0548   -0.1168 H   0  0  0  0  0  0  0  0  0  0  0  0
   -1.3417   -3.5126   -1.7862 H   0  0  0  0  0  0  0  0  0  0  0  0
    2.4487   -3.3696   -2.5078 H   0  0  0  0  0  0  0  0  0  0  0  0
    1.2657   -4.5951   -2.8633 H   0  0  0  0  0  0  0  0  0  0  0  0
    0.8872   -2.9199   -3.2413 H   0  0  0  0  0  0  0  0  0  0  0  0
   -3.7621   -1.2529   -0.6917 H   0  0  0  0  0  0  0  0  0  0  0  0
   -4.6330   -1.3444    0.8423 H   0  0  0  0  0  0  0  0  0  0  0  0
   -3.3089    2.4377   -0.4368 H   0  0  0  0  0  0  0  0  0  0  0  0
   -2.9548    1.0492   -1.4742 H   0  0  0  0  0  0  0  0  0  0  0  0
    4.7709   -2.9854    1.5010 H   0  0  0  0  0  0  0  0  0  0  0  0
    3.8638   -2.5583    2.9499 H   0  0  0  0  0  0  0  0  0  0  0  0
    4.7656   -1.3111    2.0938 H   0  0  0  0  0  0  0  0  0  0  0  0
   -5.5002    1.8506   -0.8984 H   0  0  0  0  0  0  0  0  0  0  0  0
   -5.4965    0.1847   -1.4164 H   0  0  0  0  0  0  0  0  0  0  0  0
   -6.6402   -0.4148    0.7897 H   0  0  0  0  0  0  0  0  0  0  0  0
   -6.5922    1.3094    1.2315 H   0  0  0  0  0  0  0  0  0  0  0  0
    3.9001    4.8393    0.1851 H   0  0  0  0  0  0  0  0  0  0  0  0
    3.9148    4.2044   -1.4533 H   0  0  0  0  0  0  0  0  0  0  0  0
    1.8905    5.5699   -1.0087 H   0  0  0  0  0  0  0  0  0  0  0  0
    1.4303    4.5189    0.3320 H   0  0  0  0  0  0  0  0  0  0  0  0
   -9.0134   -0.4189    0.8021 H   0  0  0  0  0  0  0  0  0  0  0  0
   -8.9908    1.3098    1.2838 H   0  0  0  0  0  0  0  0  0  0  0  0
   -9.8558    0.7973   -0.1808 H   0  0  0  0  0  0  0  0  0  0  0  0
    1.6476    3.6282   -2.5929 H   0  0  0  0  0  0  0  0  0  0  0  0
    1.1100    2.6104   -1.2424 H   0  0  0  0  0  0  0  0  0  0  0  0
    0.1453    4.0062   -1.7343 H   0  0  0  0  0  0  0  0  0  0  0  0
  1 23  1  0  0  0  0
  1 26  1  0  0  0  0
  2 25  1  0  0  0  0
  2 29  1  0  0  0  0
  3 12  1  0  0  0  0
  3 16  1  0  0  0  0
  3 17  1  0  0  0  0
  4 20  1  0  0  0  0
  4 21  1  0  0  0  0
  4 24  1  0  0  0  0
  5  6  1  0  0  0  0
  5 23  2  0  0  0  0
  6 26  2  0  0  0  0
  7  8  1  0  0  0  0
  7  9  1  0  0  0  0
  7 11  1  0  0  0  0
  7 31  1  0  0  0  0
  8 12  1  0  0  0  0
  8 13  1  0  0  0  0
  8 32  1  0  0  0  0
  9 10  1  0  0  0  0
  9 33  1  0  0  0  0
  9 34  1  0  0  0  0
 10 14  1  0  0  0  0
 10 15  1  0  0  0  0
 10 35  1  0  0  0  0
 11 18  1  0  0  0  0
 11 19  1  0  0  0  0
 11 36  1  0  0  0  0
 12 37  1  0  0  0  0
 12 38  1  0  0  0  0
 13 14  2  0  0  0  0
 13 39  1  0  0  0  0
 14 22  1  0  0  0  0
 15 23  1  0  0  0  0
 15 40  1  0  0  0  0
 15 41  1  0  0  0  0
 16 20  1  0  0  0  0
 16 42  1  0  0  0  0
 16 43  1  0  0  0  0
 17 21  1  0  0  0  0
 17 44  1  0  0  0  0
 17 45  1  0  0  0  0
 18 46  1  0  0  0  0
 18 47  1  0  0  0  0
 18 48  1  0  0  0  0
 19 49  1  0  0  0  0
 19 50  1  0  0  0  0
 19 51  1  0  0  0  0
 20 52  1  0  0  0  0
 20 53  1  0  0  0  0
 21 54  1  0  0  0  0
 21 55  1  0  0  0  0
 22 56  1  0  0  0  0
 22 57  1  0  0  0  0
 22 58  1  0  0  0  0
 24 25  1  0  0  0  0
 24 59  1  0  0  0  0
 24 60  1  0  0  0  0
 25 61  1  0  0  0  0
 25 62  1  0  0  0  0
 26 27  1  0  0  0  0
 27 28  1  0  0  0  0
 27 63  1  0  0  0  0
 27 64  1  0  0  0  0
 28 30  1  0  0  0  0
 28 65  1  0  0  0  0
 28 66  1  0  0  0  0
 29 67  1  0  0  0  0
 29 68  1  0  0  0  0
 29 69  1  0  0  0  0
 30 70  1  0  0  0  0
 30 71  1  0  0  0  0
 30 72  1  0  0  0  0
M  END
> <PUBCHEM_COMPOUND_CID>
45784034

> <PUBCHEM_CONFORMER_RMSD>
1

> <PUBCHEM_CONFORMER_DIVERSEORDER>
7
62
41
44
6
53
90
56
86
27
89
108
67
106
113
116
93
49
79
78
101
45
65
61
68
114
98
91
99
88
42
77
40
37
34
72
30
84
75
63
82
80
87
59
52
35
15
18
97
55
110
112
111
85
24
58
48
115
39
23
60
28
32
50
43
70
17
25
71
96
22
20
19
36
29
47
10
83
69
109
51
103
26
76
16
21
14
38
54
105
74
2
31
95
81
64
107
46
57
9
73
3
12
33
102
92
4
1
5
100
13
94
8
66
11
104

> <PUBCHEM_MMFF94_PARTIAL_CHARGES>
24
1 -0.28
10 0.14
12 0.27
13 -0.29
14 -0.28
15 0.18
16 0.27
17 0.27
2 -0.56
20 0.27
21 0.27
22 0.14
23 0.3
24 0.27
25 0.28
26 0.3
27 0.18
29 0.28
3 -0.81
39 0.15
4 -0.81
5 -0.34
6 -0.34
8 0.14

> <PUBCHEM_EFFECTIVE_ROTOR_COUNT>
12

> <PUBCHEM_PHARMACOPHORE_FEATURES>
8
1 2 acceptor
1 3 cation
1 30 hydrophobe
1 4 cation
3 11 18 19 hydrophobe
5 1 5 6 23 26 rings
6 3 4 16 17 20 21 rings
6 7 8 9 10 13 14 rings

> <PUBCHEM_HEAVY_ATOM_COUNT>
30

> <PUBCHEM_ATOM_DEF_STEREO_COUNT>
3

> <PUBCHEM_ATOM_UDEF_STEREO_COUNT>
0

> <PUBCHEM_BOND_DEF_STEREO_COUNT>
0

> <PUBCHEM_BOND_UDEF_STEREO_COUNT>
0

> <PUBCHEM_ISOTOPIC_ATOM_COUNT>
0

> <PUBCHEM_COMPONENT_COUNT>
1

> <PUBCHEM_CACTVS_TAUTO_COUNT>
1

> <PUBCHEM_CONFORMER_ID>
02BA9BE200000007

> <PUBCHEM_MMFF94_ENERGY>
48.0886

> <PUBCHEM_FEATURE_SELFOVERLAP>
40.598

> <PUBCHEM_SHAPE_FINGERPRINT>
10673678 19 18341899627780378777
10675989 125 18338801246346859505
10871710 139 17114954838362463908
12539745 222 16300338364750809298
13583140 156 17968083257532150690
1361 2 18412544323306052429
14117953 113 18413393124797413788
15664445 248 18267030457713511247
15849732 13 18271233921291037066
18681886 176 18340200787631414882
20715895 44 18341896324248726001
21344244 78 17898550009363784514
21475661 188 18189055455282492680
21716022 299 15193903132875160846
21860390 5 18410014291326767318
22149856 69 17774730771398336875
23227448 37 18195530522139599238
23558518 356 17832978722212284090
23559900 14 18341339898324818862
249057 3 18342459223085189222
255183 451 17556873420452096847
3298306 158 18192719057706378617
3388396 114 15890811471545233588
34797466 226 18342743979875323711
394071 54 18339373985262944921
46194498 28 18339924810359880005
5109719 28 18334587867124346369
8509985 295 11025804184552861795

> <PUBCHEM_SHAPE_MULTIPOLES>
585.72
14.18
5.46
1.63
43.04
2.96
0.18
7.37
-2.23
-7.43
2.8
-1.54
-1.22
-0.49

> <PUBCHEM_SHAPE_SELFOVERLAP>
1185.711

> <PUBCHEM_SHAPE_VOLUME>
342.2

> <PUBCHEM_COORDINATE_TYPE>
2
5
10

$$$$
