11880086
  -OEChem-12032416123D

 63 66  0     1  0  0  0  0  0999 V2000
   -5.0810   -2.1631    0.6762 S   0  0  0  0  0  0  0  0  0  0  0  0
   -4.5929    4.4718    0.7145 S   0  0  0  0  0  0  0  0  0  0  0  0
   -1.2749    0.2466   -2.0843 O   0  0  0  0  0  0  0  0  0  0  0  0
   -1.8953   -3.7476   -2.3399 O   0  0  0  0  0  0  0  0  0  0  0  0
    3.6490    2.2817   -0.2861 O   0  0  0  0  0  0  0  0  0  0  0  0
    1.0079    3.0659   -0.4438 O   0  0  0  0  0  0  0  0  0  0  0  0
    6.7387    1.2756    0.7934 O   0  0  0  0  0  0  0  0  0  0  0  0
   -0.7032   -2.1232   -1.1690 N   0  0  0  0  0  0  0  0  0  0  0  0
    3.1788   -0.9382    0.2615 N   0  0  0  0  0  0  0  0  0  0  0  0
   -1.0701    1.3161   -0.0268 N   0  0  0  0  0  0  0  0  0  0  0  0
    3.5179   -1.9079    1.1204 N   0  0  0  0  0  0  0  0  0  0  0  0
    4.7207   -1.6033    1.5951 N   0  0  0  0  0  0  0  0  0  0  0  0
   -2.9680   -3.6522    0.6530 N   0  0  0  0  0  0  0  0  0  0  0  0
    4.5974    1.0745   -1.9710 N   0  0  0  0  0  0  0  0  0  0  0  0
   -0.2667    4.0922   -2.0559 N   0  0  0  0  0  0  0  0  0  0  0  0
    7.2197   -0.4392    2.2161 N   0  0  0  0  0  0  0  0  0  0  0  0
    1.8872   -0.9948   -0.4355 C   0  0  2  0  0  0  0  0  0  0  0  0
    0.6954   -0.9258    0.5347 C   0  0  0  0  0  0  0  0  0  0  0  0
   -0.6598   -1.0408   -0.1681 C   0  0  1  0  0  0  0  0  0  0  0  0
    1.7672   -2.2191   -1.3527 C   0  0  0  0  0  0  0  0  0  0  0  0
    0.4348   -2.2069   -2.0927 C   0  0  0  0  0  0  0  0  0  0  0  0
   -1.0419    0.2252   -0.8786 C   0  0  0  0  0  0  0  0  0  0  0  0
   -1.8177   -2.9533   -1.4035 C   0  0  0  0  0  0  0  0  0  0  0  0
    4.1411    0.0120    0.1571 C   0  0  0  0  0  0  0  0  0  0  0  0
   -1.3872    2.6553   -0.4677 C   0  0  1  0  0  0  0  0  0  0  0  0
    5.1166   -0.4302    1.0150 C   0  0  0  0  0  0  0  0  0  0  0  0
   -2.9304   -2.8509   -0.4689 C   0  0  0  0  0  0  0  0  0  0  0  0
   -2.0100    3.5033    0.6481 C   0  0  0  0  0  0  0  0  0  0  0  0
    4.0947    1.1748   -0.6686 C   0  0  0  0  0  0  0  0  0  0  0  0
   -0.0892    3.2855   -0.9515 C   0  0  0  0  0  0  0  0  0  0  0  0
   -3.9846   -1.9803   -0.6300 C   0  0  0  0  0  0  0  0  0  0  0  0
    6.3721    0.1923    1.3010 C   0  0  0  0  0  0  0  0  0  0  0  0
   -3.4762    3.2007    0.8485 C   0  0  0  0  0  0  0  0  0  0  0  0
   -4.0591   -3.3757    1.3320 C   0  0  0  0  0  0  0  0  0  0  0  0
   -4.0400    1.9982    1.1339 C   0  0  0  0  0  0  0  0  0  0  0  0
   -4.4462   -4.0348    2.5984 C   0  0  0  0  0  0  0  0  0  0  0  0
   -5.4555    2.1120    1.2503 C   0  0  0  0  0  0  0  0  0  0  0  0
   -5.8893    3.4033    1.0456 C   0  0  0  0  0  0  0  0  0  0  0  0
    1.8496   -0.0999   -1.0698 H   0  0  0  0  0  0  0  0  0  0  0  0
    0.7717   -1.7690    1.2358 H   0  0  0  0  0  0  0  0  0  0  0  0
    0.7784   -0.0260    1.1537 H   0  0  0  0  0  0  0  0  0  0  0  0
   -1.4191   -1.2125    0.6014 H   0  0  0  0  0  0  0  0  0  0  0  0
    2.5916   -2.2337   -2.0757 H   0  0  0  0  0  0  0  0  0  0  0  0
    1.8462   -3.1411   -0.7622 H   0  0  0  0  0  0  0  0  0  0  0  0
    0.3609   -3.1134   -2.7027 H   0  0  0  0  0  0  0  0  0  0  0  0
    0.3918   -1.3615   -2.7867 H   0  0  0  0  0  0  0  0  0  0  0  0
   -0.8690    1.1857    0.9596 H   0  0  0  0  0  0  0  0  0  0  0  0
   -2.0771    2.5771   -1.3182 H   0  0  0  0  0  0  0  0  0  0  0  0
   -1.4845    3.3360    1.5980 H   0  0  0  0  0  0  0  0  0  0  0  0
   -1.8747    4.5677    0.4141 H   0  0  0  0  0  0  0  0  0  0  0  0
   -4.1630   -1.2661   -1.4216 H   0  0  0  0  0  0  0  0  0  0  0  0
    4.5934    1.8749   -2.5944 H   0  0  0  0  0  0  0  0  0  0  0  0
    4.9784    0.2071   -2.3355 H   0  0  0  0  0  0  0  0  0  0  0  0
    0.5218    4.5616   -2.4889 H   0  0  0  0  0  0  0  0  0  0  0  0
   -1.1785    4.2623   -2.4679 H   0  0  0  0  0  0  0  0  0  0  0  0
   -3.4960    1.0728    1.2679 H   0  0  0  0  0  0  0  0  0  0  0  0
    8.1179   -0.0349    2.4594 H   0  0  0  0  0  0  0  0  0  0  0  0
    6.9706   -1.3144    2.6659 H   0  0  0  0  0  0  0  0  0  0  0  0
   -4.5229   -3.3071    3.4127 H   0  0  0  0  0  0  0  0  0  0  0  0
   -5.4071   -4.5493    2.4961 H   0  0  0  0  0  0  0  0  0  0  0  0
   -3.6984   -4.7805    2.8875 H   0  0  0  0  0  0  0  0  0  0  0  0
   -6.1216    1.2893    1.4755 H   0  0  0  0  0  0  0  0  0  0  0  0
   -6.9056    3.7703    1.0753 H   0  0  0  0  0  0  0  0  0  0  0  0
  1 31  1  0  0  0  0
  1 34  1  0  0  0  0
  2 33  1  0  0  0  0
  2 38  1  0  0  0  0
  3 22  2  0  0  0  0
  4 23  2  0  0  0  0
  5 29  2  0  0  0  0
  6 30  2  0  0  0  0
  7 32  2  0  0  0  0
  8 19  1  0  0  0  0
  8 21  1  0  0  0  0
  8 23  1  0  0  0  0
  9 11  1  0  0  0  0
  9 17  1  0  0  0  0
  9 24  1  0  0  0  0
 10 22  1  0  0  0  0
 10 25  1  0  0  0  0
 10 47  1  0  0  0  0
 11 12  2  0  0  0  0
 12 26  1  0  0  0  0
 13 27  1  0  0  0  0
 13 34  2  0  0  0  0
 14 29  1  0  0  0  0
 14 52  1  0  0  0  0
 14 53  1  0  0  0  0
 15 30  1  0  0  0  0
 15 54  1  0  0  0  0
 15 55  1  0  0  0  0
 16 32  1  0  0  0  0
 16 57  1  0  0  0  0
 16 58  1  0  0  0  0
 17 18  1  0  0  0  0
 17 20  1  0  0  0  0
 17 39  1  0  0  0  0
 18 19  1  0  0  0  0
 18 40  1  0  0  0  0
 18 41  1  0  0  0  0
 19 22  1  0  0  0  0
 19 42  1  0  0  0  0
 20 21  1  0  0  0  0
 20 43  1  0  0  0  0
 20 44  1  0  0  0  0
 21 45  1  0  0  0  0
 21 46  1  0  0  0  0
 23 27  1  0  0  0  0
 24 26  2  0  0  0  0
 24 29  1  0  0  0  0
 25 28  1  0  0  0  0
 25 30  1  0  0  0  0
 25 48  1  0  0  0  0
 26 32  1  0  0  0  0
 27 31  2  0  0  0  0
 28 33  1  0  0  0  0
 28 49  1  0  0  0  0
 28 50  1  0  0  0  0
 31 51  1  0  0  0  0
 33 35  2  0  0  0  0
 34 36  1  0  0  0  0
 35 37  1  0  0  0  0
 35 56  1  0  0  0  0
 36 59  1  0  0  0  0
 36 60  1  0  0  0  0
 36 61  1  0  0  0  0
 37 38  2  0  0  0  0
 37 62  1  0  0  0  0
 38 63  1  0  0  0  0
M  END
> <PUBCHEM_COMPOUND_CID>
11880086

> <PUBCHEM_CONFORMER_RMSD>
1.2

> <PUBCHEM_CONFORMER_DIVERSEORDER>
1
83
25
81
42
84
66
67
90
123
102
119
96
33
74
68
78
41
112
8
86
21
107
92
114
20
24
95
16
52
34
109
116
98
76
85
106
54
89
101
115
13
31
100
27
65
37
111
93
117
59
94
3
108
113
43
32
39
28
69
122
56
70
44
53
121
104
103
23
51
49
97
110
91
87
88
48
50
11
73
82
77
45
60
118
71
58
57
4
75
99
36
61
10
38
26
105
64
40
120
80
6
55
35
30
7
15
63
72
5
62
18
9
17
22
46
29
19
79
47
12
2
14

> <PUBCHEM_MMFF94_PARTIAL_CHARGES>
47
1 -0.08
10 -0.73
11 -0.42
12 -0.23
13 -0.57
14 -0.8
15 -0.8
16 -0.8
17 0.26
19 0.36
2 -0.08
21 0.3
22 0.57
23 0.72
24 -0.24
25 0.36
26 0.14
27 0.14
28 0.18
29 0.71
3 -0.57
30 0.57
31 -0.11
32 0.72
33 -0.14
34 0.2
35 -0.15
36 0.18
37 -0.15
38 -0.11
4 -0.57
47 0.37
5 -0.57
51 0.15
52 0.37
53 0.37
54 0.37
55 0.37
56 0.15
57 0.37
58 0.37
6 -0.57
62 0.15
63 0.15
7 -0.57
8 -0.66
9 0.31

> <PUBCHEM_EFFECTIVE_ROTOR_COUNT>
12.2

> <PUBCHEM_PHARMACOPHORE_FEATURES>
14
1 10 donor
1 13 acceptor
1 14 donor
1 15 donor
1 16 donor
1 3 acceptor
1 4 acceptor
1 5 acceptor
1 6 acceptor
1 7 acceptor
5 1 13 27 31 34 rings
5 2 33 35 37 38 rings
5 9 11 12 24 26 rings
6 8 17 18 19 20 21 rings

> <PUBCHEM_HEAVY_ATOM_COUNT>
38

> <PUBCHEM_ATOM_DEF_STEREO_COUNT>
3

> <PUBCHEM_ATOM_UDEF_STEREO_COUNT>
0

> <PUBCHEM_BOND_DEF_STEREO_COUNT>
0

> <PUBCHEM_BOND_UDEF_STEREO_COUNT>
0

> <PUBCHEM_ISOTOPIC_ATOM_COUNT>
0

> <PUBCHEM_COMPONENT_COUNT>
1

> <PUBCHEM_CACTVS_TAUTO_COUNT>
16

> <PUBCHEM_CONFORMER_ID>
00B5469600000001

> <PUBCHEM_MMFF94_ENERGY>
79.9316

> <PUBCHEM_FEATURE_SELFOVERLAP>
71.056

> <PUBCHEM_SHAPE_FINGERPRINT>
10074138 170 18336533933373999619
10675989 125 17402061487893238949
11513181 2 17845942827587117455
12422481 6 18341336612727013184
12788726 201 18338527459487163126
14068700 675 18128237073847084295
14294032 229 18131068268764281294
14395042 24 18408323311495202921
14784336 7 16686812741200157607
14910700 183 17975703792694218625
14950920 106 18114460166542944778
14955137 171 17907881826162292335
15324884 4 17842589312833285679
15338160 23 18413384341209335608
15475509 84 18191883412522466507
16114785 44 17845918685438938807
21033648 29 17560540472551937291
354706 109 18049427163696313345
3552219 110 17896893242755980428
469060 322 17530676606964013140
5047190 48 18340780225953443725
5104073 3 18264469768658724642

> <PUBCHEM_SHAPE_MULTIPOLES>
715.55
14.11
6.57
2.05
16.3
1.26
-0.16
4.01
10.49
-12.11
0.05
0.57
-1.27
-0.68

> <PUBCHEM_SHAPE_SELFOVERLAP>
1507.862

> <PUBCHEM_SHAPE_VOLUME>
403.9

> <PUBCHEM_COORDINATE_TYPE>
2
5
10

$$$$
