75536382
  -OEChem-12032416303D

 48 50  0     1  0  0  0  0  0999 V2000
    2.4948    0.0370    0.7888 O   0  0  0  0  0  0  0  0  0  0  0  0
    5.2642    0.4033    1.7293 O   0  0  0  0  0  0  0  0  0  0  0  0
   -1.6016   -1.8999   -1.0813 O   0  0  0  0  0  0  0  0  0  0  0  0
   -5.1690    1.8164    2.0001 O   0  0  0  0  0  0  0  0  0  0  0  0
    1.5805    2.1316   -0.9128 N   0  0  0  0  0  0  0  0  0  0  0  0
   -0.3093   -2.3949   -0.9551 N   0  0  0  0  0  0  0  0  0  0  0  0
    3.3888    1.0777    0.3728 C   0  0  1  0  0  0  0  0  0  0  0  0
    4.8456    0.5966    0.3756 C   0  0  2  0  0  0  0  0  0  0  0  0
    2.5824   -1.1763    0.0377 C   0  0  1  0  0  0  0  0  0  0  0  0
    5.0214   -0.7292   -0.3599 C   0  0  0  0  0  0  0  0  0  0  0  0
    3.9945   -1.7549    0.1113 C   0  0  0  0  0  0  0  0  0  0  0  0
    2.9586    1.6692   -0.9680 C   0  0  0  0  0  0  0  0  0  0  0  0
    1.5658   -2.1505    0.6205 C   0  0  0  0  0  0  0  0  0  0  0  0
    0.1669   -1.8372    0.1617 C   0  0  0  0  0  0  0  0  0  0  0  0
    1.0192    2.2515   -2.2608 C   0  0  0  0  0  0  0  0  0  0  0  0
    1.4916    3.4157   -0.2129 C   0  0  0  0  0  0  0  0  0  0  0  0
   -0.7707   -0.9896    0.7767 C   0  0  0  0  0  0  0  0  0  0  0  0
   -1.8647   -1.0642   -0.0443 C   0  0  0  0  0  0  0  0  0  0  0  0
   -3.1713   -0.4733   -0.0373 C   0  0  0  0  0  0  0  0  0  0  0  0
   -3.5387    0.3960    0.9898 C   0  0  0  0  0  0  0  0  0  0  0  0
   -4.0759   -0.7698   -1.0571 C   0  0  0  0  0  0  0  0  0  0  0  0
   -4.8104    0.9690    0.9973 C   0  0  0  0  0  0  0  0  0  0  0  0
   -5.3477   -0.1971   -1.0495 C   0  0  0  0  0  0  0  0  0  0  0  0
   -5.7150    0.6726   -0.0225 C   0  0  0  0  0  0  0  0  0  0  0  0
    3.3124    1.8458    1.1505 H   0  0  0  0  0  0  0  0  0  0  0  0
    5.5010    1.3622   -0.0543 H   0  0  0  0  0  0  0  0  0  0  0  0
    2.3287   -0.9785   -1.0104 H   0  0  0  0  0  0  0  0  0  0  0  0
    6.0275   -1.1314   -0.1933 H   0  0  0  0  0  0  0  0  0  0  0  0
    4.9088   -0.5731   -1.4391 H   0  0  0  0  0  0  0  0  0  0  0  0
    4.0717   -2.6631   -0.4972 H   0  0  0  0  0  0  0  0  0  0  0  0
    4.2259   -2.0356    1.1467 H   0  0  0  0  0  0  0  0  0  0  0  0
    3.0541    0.9011   -1.7440 H   0  0  0  0  0  0  0  0  0  0  0  0
    3.6402    2.4770   -1.2664 H   0  0  0  0  0  0  0  0  0  0  0  0
    1.5918   -2.1253    1.7174 H   0  0  0  0  0  0  0  0  0  0  0  0
    1.8029   -3.1779    0.3153 H   0  0  0  0  0  0  0  0  0  0  0  0
    6.2017    0.1453    1.7130 H   0  0  0  0  0  0  0  0  0  0  0  0
    1.0197    1.2794   -2.7665 H   0  0  0  0  0  0  0  0  0  0  0  0
    1.5768    2.9652   -2.8780 H   0  0  0  0  0  0  0  0  0  0  0  0
   -0.0265    2.5760   -2.2149 H   0  0  0  0  0  0  0  0  0  0  0  0
    1.8005    3.3327    0.8332 H   0  0  0  0  0  0  0  0  0  0  0  0
    0.4517    3.7622   -0.1890 H   0  0  0  0  0  0  0  0  0  0  0  0
    2.0952    4.1940   -0.6943 H   0  0  0  0  0  0  0  0  0  0  0  0
   -0.6561   -0.4134    1.6832 H   0  0  0  0  0  0  0  0  0  0  0  0
   -2.8512    0.6421    1.7956 H   0  0  0  0  0  0  0  0  0  0  0  0
   -3.8274   -1.4422   -1.8742 H   0  0  0  0  0  0  0  0  0  0  0  0
   -6.0524   -0.4278   -1.8432 H   0  0  0  0  0  0  0  0  0  0  0  0
   -6.7088    1.1122   -0.0282 H   0  0  0  0  0  0  0  0  0  0  0  0
   -6.0809    2.1181    1.8467 H   0  0  0  0  0  0  0  0  0  0  0  0
  1  7  1  0  0  0  0
  1  9  1  0  0  0  0
  2  8  1  0  0  0  0
  2 36  1  0  0  0  0
  3  6  1  0  0  0  0
  3 18  1  0  0  0  0
  4 22  1  0  0  0  0
  4 48  1  0  0  0  0
  5 12  1  0  0  0  0
  5 15  1  0  0  0  0
  5 16  1  0  0  0  0
  6 14  2  0  0  0  0
  7  8  1  0  0  0  0
  7 12  1  0  0  0  0
  7 25  1  0  0  0  0
  8 10  1  0  0  0  0
  8 26  1  0  0  0  0
  9 11  1  0  0  0  0
  9 13  1  0  0  0  0
  9 27  1  0  0  0  0
 10 11  1  0  0  0  0
 10 28  1  0  0  0  0
 10 29  1  0  0  0  0
 11 30  1  0  0  0  0
 11 31  1  0  0  0  0
 12 32  1  0  0  0  0
 12 33  1  0  0  0  0
 13 14  1  0  0  0  0
 13 34  1  0  0  0  0
 13 35  1  0  0  0  0
 14 17  1  0  0  0  0
 15 37  1  0  0  0  0
 15 38  1  0  0  0  0
 15 39  1  0  0  0  0
 16 40  1  0  0  0  0
 16 41  1  0  0  0  0
 16 42  1  0  0  0  0
 17 18  2  0  0  0  0
 17 43  1  0  0  0  0
 18 19  1  0  0  0  0
 19 20  2  0  0  0  0
 19 21  1  0  0  0  0
 20 22  1  0  0  0  0
 20 44  1  0  0  0  0
 21 23  2  0  0  0  0
 21 45  1  0  0  0  0
 22 24  2  0  0  0  0
 23 24  1  0  0  0  0
 23 46  1  0  0  0  0
 24 47  1  0  0  0  0
M  END
> <PUBCHEM_COMPOUND_CID>
75536382

> <PUBCHEM_CONFORMER_RMSD>
1

> <PUBCHEM_CONFORMER_DIVERSEORDER>
1
54
72
67
86
50
94
92
88
45
11
23
21
56
102
33
48
75
82
58
85
42
19
80
16
76
73
41
107
69
77
79
100
103
90
96
43
83
66
37
46
13
91
81
106
28
93
40
17
60
14
105
35
65
52
95
34
47
15
26
57
109
10
89
74
98
101
29
71
59
44
68
51
30
6
31
9
53
5
78
110
2
63
84
39
24
12
25
104
64
36
3
61
22
32
49
97
7
8
18
4
99
38
27
87
62
20
70
55
108

> <PUBCHEM_MMFF94_PARTIAL_CHARGES>
29
1 -0.56
12 0.27
13 0.18
14 0.11
15 0.27
16 0.27
17 -0.15
18 0.09
19 0.05
2 -0.68
20 -0.15
21 -0.15
22 0.08
23 -0.15
24 -0.15
3 -0.02
36 0.4
4 -0.53
43 0.15
44 0.15
45 0.15
46 0.15
47 0.15
48 0.45
5 -0.81
6 -0.41
7 0.28
8 0.28
9 0.28

> <PUBCHEM_EFFECTIVE_ROTOR_COUNT>
6.2

> <PUBCHEM_PHARMACOPHORE_FEATURES>
9
1 1 acceptor
1 2 acceptor
1 2 donor
1 4 donor
1 5 cation
1 6 acceptor
5 3 6 14 17 18 rings
6 1 7 8 9 10 11 rings
6 19 20 21 22 23 24 rings

> <PUBCHEM_HEAVY_ATOM_COUNT>
24

> <PUBCHEM_ATOM_DEF_STEREO_COUNT>
3

> <PUBCHEM_ATOM_UDEF_STEREO_COUNT>
0

> <PUBCHEM_BOND_DEF_STEREO_COUNT>
0

> <PUBCHEM_BOND_UDEF_STEREO_COUNT>
0

> <PUBCHEM_ISOTOPIC_ATOM_COUNT>
0

> <PUBCHEM_COMPONENT_COUNT>
1

> <PUBCHEM_CACTVS_TAUTO_COUNT>
3

> <PUBCHEM_CONFORMER_ID>
048097FE00000001

> <PUBCHEM_MMFF94_ENERGY>
51.079

> <PUBCHEM_FEATURE_SELFOVERLAP>
45.673

> <PUBCHEM_SHAPE_FINGERPRINT>
10447042 23 11815902236692739132
10688039 33 17386282095621509932
10906281 52 18188778379006381856
11045977 3 17603876615263817259
11545043 162 15574715798669114025
12166972 35 18343864433135926721
12236239 1 18202278087613223351
12422481 6 18191026698921001225
12507557 5 18260266365342985963
12633257 1 17603863437813458146
13075007 39 17241346762123733169
13402501 40 17822559526467945877
13583140 156 17749110002465339963
14251764 75 18047769366270387405
14464042 87 18273218573347250169
15081414 286 18408325458656850628
15238133 3 17749390377961590206
15475509 8 18269294399710732380
1601671 61 18334576850047538700
18785283 64 17459768079601621013
20567600 347 12967134904276888532
21033648 144 18261667181605601015
21033648 29 17022892459270125677
21033650 10 16700923559697422785
21298829 104 18413106152057251265
21304253 335 18272090500181336312
21315763 76 18336532885565405357
235170 7 14405191646860391681
338550 245 18262810570424931821
3459 110 17824001102429128843
34797466 226 16056597698511267771
3680242 22 18186512190535219290
4409770 3 15603729329103851551
474 4 18335138704721333819
508706 21 17676764263361183533
5104073 3 18042963353889674920
513532 50 17846227639732148854
57724786 102 17749966547497866773
6328613 192 18266184005970753084
653340 110 18196929981309495976
7064713 232 18343580750308765824
8509985 295 18186801391973387854
9971528 1 18412262822675517398
9981440 41 17258205797124459720

> <PUBCHEM_SHAPE_MULTIPOLES>
460.47
12.75
2.9
1.45
7.6
1.41
0.04
2.39
-2.89
-1.9
0.69
0.68
0.65
-1.48

> <PUBCHEM_SHAPE_SELFOVERLAP>
972.365

> <PUBCHEM_SHAPE_VOLUME>
260.2

> <PUBCHEM_COORDINATE_TYPE>
2
5
10

$$$$
