7156382
  -OEChem-12032416213D

 64 69  0     1  0  0  0  0  0999 V2000
   -1.5748   -1.4185    1.8891 O   0  0  0  0  0  0  0  0  0  0  0  0
    4.9428    4.4913    1.2161 O   0  0  0  0  0  0  0  0  0  0  0  0
    3.0747   -1.2293    0.0199 N   0  0  2  0  0  0  0  0  0  0  0  0
    0.0812   -2.2365    0.4657 N   0  0  0  0  0  0  0  0  0  0  0  0
    4.9398    2.5618   -0.0782 N   0  0  0  0  0  0  0  0  0  0  0  0
    2.2864   -3.2180    1.3277 C   0  0  1  0  0  0  0  0  0  0  0  0
    1.8617   -3.1157   -1.0816 C   0  0  2  0  0  0  0  0  0  0  0  0
    2.2375   -4.0582    0.0584 C   0  0  0  0  0  0  0  0  0  0  0  0
    3.3334   -2.0938    1.1778 C   0  0  0  0  0  0  0  0  0  0  0  0
    2.9375   -2.0138   -1.2164 C   0  0  0  0  0  0  0  0  0  0  0  0
    4.1148   -0.2129   -0.1183 C   0  0  0  0  0  0  0  0  0  0  0  0
    0.8795   -2.6784    1.6182 C   0  0  0  0  0  0  0  0  0  0  0  0
    0.4965   -2.4977   -0.8421 C   0  0  0  0  0  0  0  0  0  0  0  0
    3.7651    0.7459   -1.2639 C   0  0  0  0  0  0  0  0  0  0  0  0
    4.2740    0.5598    1.1975 C   0  0  0  0  0  0  0  0  0  0  0  0
    4.7916    1.8739   -1.3668 C   0  0  0  0  0  0  0  0  0  0  0  0
    5.2897    1.6910    1.0459 C   0  0  0  0  0  0  0  0  0  0  0  0
   -0.2999   -2.1862   -1.8768 C   0  0  0  0  0  0  0  0  0  0  0  0
   -1.1603   -1.6341    0.7488 C   0  0  0  0  0  0  0  0  0  0  0  0
   -2.0165   -1.2646   -0.4327 C   0  0  0  0  0  0  0  0  0  0  0  0
   -1.5717   -1.5551   -1.6646 C   0  0  0  0  0  0  0  0  0  0  0  0
    4.8134    3.9361    0.1219 C   0  0  0  0  0  0  0  0  0  0  0  0
   -3.3141   -0.5899   -0.2543 C   0  0  0  0  0  0  0  0  0  0  0  0
    4.4960    4.7697   -1.0938 C   0  0  0  0  0  0  0  0  0  0  0  0
   -3.3794    0.8041   -0.2245 C   0  0  0  0  0  0  0  0  0  0  0  0
   -4.4770   -1.3430   -0.1158 C   0  0  0  0  0  0  0  0  0  0  0  0
   -4.6088    1.4615   -0.0554 C   0  0  0  0  0  0  0  0  0  0  0  0
   -5.7070   -0.7065    0.0527 C   0  0  0  0  0  0  0  0  0  0  0  0
   -5.7900    0.6950    0.0851 C   0  0  0  0  0  0  0  0  0  0  0  0
   -4.6917    2.8632   -0.0234 C   0  0  0  0  0  0  0  0  0  0  0  0
   -7.0195    1.3527    0.2542 C   0  0  0  0  0  0  0  0  0  0  0  0
   -5.9215    3.5000    0.1455 C   0  0  0  0  0  0  0  0  0  0  0  0
   -7.0831    2.7461    0.2842 C   0  0  0  0  0  0  0  0  0  0  0  0
    2.5949   -3.8478    2.1716 H   0  0  0  0  0  0  0  0  0  0  0  0
    1.8450   -3.6980   -2.0124 H   0  0  0  0  0  0  0  0  0  0  0  0
    1.5065   -4.8705    0.1555 H   0  0  0  0  0  0  0  0  0  0  0  0
    3.2125   -4.5227   -0.1326 H   0  0  0  0  0  0  0  0  0  0  0  0
    3.2844   -1.5334    2.1165 H   0  0  0  0  0  0  0  0  0  0  0  0
    4.3324   -2.5449    1.1090 H   0  0  0  0  0  0  0  0  0  0  0  0
    3.8949   -2.4777   -1.4894 H   0  0  0  0  0  0  0  0  0  0  0  0
    2.6261   -1.3883   -2.0585 H   0  0  0  0  0  0  0  0  0  0  0  0
    5.0774   -0.6919   -0.3498 H   0  0  0  0  0  0  0  0  0  0  0  0
    0.2923   -3.4755    2.0948 H   0  0  0  0  0  0  0  0  0  0  0  0
    0.9217   -1.8598    2.3478 H   0  0  0  0  0  0  0  0  0  0  0  0
    2.7680    1.1777   -1.1057 H   0  0  0  0  0  0  0  0  0  0  0  0
    3.7623    0.2475   -2.2378 H   0  0  0  0  0  0  0  0  0  0  0  0
    4.6511   -0.0709    2.0086 H   0  0  0  0  0  0  0  0  0  0  0  0
    3.3096    0.9794    1.5129 H   0  0  0  0  0  0  0  0  0  0  0  0
    5.7764    1.4721   -1.6337 H   0  0  0  0  0  0  0  0  0  0  0  0
    4.4960    2.5586   -2.1637 H   0  0  0  0  0  0  0  0  0  0  0  0
    5.3486    2.2621    1.9779 H   0  0  0  0  0  0  0  0  0  0  0  0
    6.2893    1.2865    0.8466 H   0  0  0  0  0  0  0  0  0  0  0  0
    0.0012   -2.3727   -2.9023 H   0  0  0  0  0  0  0  0  0  0  0  0
   -2.1493   -1.3088   -2.5508 H   0  0  0  0  0  0  0  0  0  0  0  0
    4.4479    5.8252   -0.8088 H   0  0  0  0  0  0  0  0  0  0  0  0
    3.5243    4.4828   -1.5046 H   0  0  0  0  0  0  0  0  0  0  0  0
    5.2805    4.6565   -1.8467 H   0  0  0  0  0  0  0  0  0  0  0  0
   -2.4661    1.3880   -0.3326 H   0  0  0  0  0  0  0  0  0  0  0  0
   -4.4431   -2.4298   -0.1360 H   0  0  0  0  0  0  0  0  0  0  0  0
   -6.6022   -1.3157    0.1592 H   0  0  0  0  0  0  0  0  0  0  0  0
   -3.7967    3.4727   -0.1298 H   0  0  0  0  0  0  0  0  0  0  0  0
   -7.9402    0.7836    0.3644 H   0  0  0  0  0  0  0  0  0  0  0  0
   -5.9718    4.5847    0.1687 H   0  0  0  0  0  0  0  0  0  0  0  0
   -8.0402    3.2424    0.4157 H   0  0  0  0  0  0  0  0  0  0  0  0
  1 19  2  0  0  0  0
  2 22  2  0  0  0  0
  3  9  1  0  0  0  0
  3 10  1  0  0  0  0
  3 11  1  0  0  0  0
  4 12  1  0  0  0  0
  4 13  1  0  0  0  0
  4 19  1  0  0  0  0
  5 16  1  0  0  0  0
  5 17  1  0  0  0  0
  5 22  1  0  0  0  0
  6  8  1  0  0  0  0
  6  9  1  0  0  0  0
  6 12  1  0  0  0  0
  6 34  1  0  0  0  0
  7  8  1  0  0  0  0
  7 10  1  0  0  0  0
  7 13  1  0  0  0  0
  7 35  1  0  0  0  0
  8 36  1  0  0  0  0
  8 37  1  0  0  0  0
  9 38  1  0  0  0  0
  9 39  1  0  0  0  0
 10 40  1  0  0  0  0
 10 41  1  0  0  0  0
 11 14  1  0  0  0  0
 11 15  1  0  0  0  0
 11 42  1  0  0  0  0
 12 43  1  0  0  0  0
 12 44  1  0  0  0  0
 13 18  2  0  0  0  0
 14 16  1  0  0  0  0
 14 45  1  0  0  0  0
 14 46  1  0  0  0  0
 15 17  1  0  0  0  0
 15 47  1  0  0  0  0
 15 48  1  0  0  0  0
 16 49  1  0  0  0  0
 16 50  1  0  0  0  0
 17 51  1  0  0  0  0
 17 52  1  0  0  0  0
 18 21  1  0  0  0  0
 18 53  1  0  0  0  0
 19 20  1  0  0  0  0
 20 21  2  0  0  0  0
 20 23  1  0  0  0  0
 21 54  1  0  0  0  0
 22 24  1  0  0  0  0
 23 25  2  0  0  0  0
 23 26  1  0  0  0  0
 24 55  1  0  0  0  0
 24 56  1  0  0  0  0
 24 57  1  0  0  0  0
 25 27  1  0  0  0  0
 25 58  1  0  0  0  0
 26 28  2  0  0  0  0
 26 59  1  0  0  0  0
 27 29  1  0  0  0  0
 27 30  2  0  0  0  0
 28 29  1  0  0  0  0
 28 60  1  0  0  0  0
 29 31  2  0  0  0  0
 30 32  1  0  0  0  0
 30 61  1  0  0  0  0
 31 33  1  0  0  0  0
 31 62  1  0  0  0  0
 32 33  2  0  0  0  0
 32 63  1  0  0  0  0
 33 64  1  0  0  0  0
M  END
> <PUBCHEM_COMPOUND_CID>
7156382

> <PUBCHEM_CONFORMER_RMSD>
0.8

> <PUBCHEM_CONFORMER_DIVERSEORDER>
1
29
17
6
30
23
22
27
16
20
18
9
28
13
15
21
4
5
25
8
14
24
12
19
3
26
2
7
10
11

> <PUBCHEM_MMFF94_PARTIAL_CHARGES>
36
1 -0.57
10 0.27
11 0.27
12 0.3
13 -0.03
16 0.3
17 0.3
18 -0.15
19 0.62
2 -0.57
20 -0.01
21 -0.15
22 0.57
23 0.03
24 0.06
25 -0.15
26 -0.15
28 -0.15
3 -0.81
30 -0.15
31 -0.15
32 -0.15
33 -0.15
4 -0.47
5 -0.66
53 0.15
54 0.15
58 0.15
59 0.15
60 0.15
61 0.15
62 0.15
63 0.15
64 0.15
7 0.14
9 0.27

> <PUBCHEM_EFFECTIVE_ROTOR_COUNT>
5.2

> <PUBCHEM_PHARMACOPHORE_FEATURES>
9
1 1 acceptor
1 2 acceptor
1 3 cation
6 23 25 26 27 28 29 rings
6 27 29 30 31 32 33 rings
6 3 6 7 8 9 10 rings
6 4 13 18 19 20 21 rings
6 4 6 7 8 12 13 rings
6 5 11 14 15 16 17 rings

> <PUBCHEM_HEAVY_ATOM_COUNT>
33

> <PUBCHEM_ATOM_DEF_STEREO_COUNT>
2

> <PUBCHEM_ATOM_UDEF_STEREO_COUNT>
0

> <PUBCHEM_BOND_DEF_STEREO_COUNT>
0

> <PUBCHEM_BOND_UDEF_STEREO_COUNT>
0

> <PUBCHEM_ISOTOPIC_ATOM_COUNT>
0

> <PUBCHEM_COMPONENT_COUNT>
1

> <PUBCHEM_CACTVS_TAUTO_COUNT>
1

> <PUBCHEM_CONFORMER_ID>
006D329E00000001

> <PUBCHEM_MMFF94_ENERGY>
90.3906

> <PUBCHEM_FEATURE_SELFOVERLAP>
47.254

> <PUBCHEM_SHAPE_FINGERPRINT>
10673678 19 18272371949504424119
10675989 125 18413672405046511744
10816530 23 18408043992371328195
10864689 126 18198630020166493496
10917259 69 18192436497427834380
10928967 22 10013656525584807548
10937287 8 18339642373252842854
11386260 185 17982729680131838191
11479125 193 18340209699308700993
11505856 67 17982440796099768895
11720765 8 17845386466619728630
11796584 16 7925330983920160091
12047536 79 14490197107212751119
12236239 1 17461175262293333479
12633257 1 16153985876148697518
12925494 130 18334860524063731833
13782708 43 11675467136137529761
13944108 23 18340209579313561304
14251764 75 18411981407438290040
14429114 114 18411416241456187633
14739800 52 18335983095212430639
14790565 3 18411698828496345453
14849402 71 18261108539942785810
15001296 14 18338800005469971873
15082195 135 17987524693237779799
15142526 21 18260829327696441562
15198563 99 17479454989985163926
15406563 185 18269299952492562892
15439362 3 18342740750329364886
15475509 35 10881700021499650127
15513586 35 15943447180810711452
15979999 66 17841165346580862630
16988056 13 18197787600916471662
19053607 189 18411695521794450032
19302320 297 18408039607051021408
19438510 23 18335699498600913000
21315764 268 18046626707859208373
21641784 216 16271081498259222811
21792938 324 17761182464329413874
22122407 14 18336836307571700385
23559900 14 17841434726776783775
23569914 2 17390185362296481773
27425 322 18334854962376781595
2838139 119 18341330089035966966
3411729 13 18410855430337703975
34797466 226 18059580127487400359
376196 1 18409734001830069746
484985 159 10052180595507441310
5104073 3 18041284253943328571
5109719 28 18338811103865606625
5219985 13 18269837682644953540
5223283 242 17410799972481870887
5265222 85 18124035899177391281
5364581 5 18408890642483902369
5372103 7 16127228170160488112
550186 72 17978229692778067871
57091435 61 18409729564632422040
5951187 136 18342747303910901532
6036956 94 17471290029458981524
6176135 31 18409441488413186888
6201320 77 12102430736802528093
7288768 16 17969778786224536194
9849439 229 18338232790581857124

> <PUBCHEM_SHAPE_MULTIPOLES>
652.44
16.92
6.17
1.47
19.99
5.18
0.05
21.57
-1.61
-8.11
-0.13
-1.43
-0.68
-0.76

> <PUBCHEM_SHAPE_SELFOVERLAP>
1437.913

> <PUBCHEM_SHAPE_VOLUME>
343.5

> <PUBCHEM_COORDINATE_TYPE>
2
5
10

$$$$
