45783587
  -OEChem-12032416273D

 57 61  0     1  0  0  0  0  0999 V2000
   -4.4934   -0.9240    1.0547 O   0  0  0  0  0  0  0  0  0  0  0  0
    2.4149   -0.3576   -2.0193 O   0  0  0  0  0  0  0  0  0  0  0  0
    4.8079   -0.5834    0.5442 N   0  0  1  0  0  0  0  0  0  0  0  0
    1.7839   -1.2025   -0.0432 N   0  0  0  0  0  0  0  0  0  0  0  0
    1.0234   -0.2100   -1.9590 N   0  0  0  0  0  0  0  0  0  0  0  0
   -2.9672   -0.3441   -0.5934 N   0  0  0  0  0  0  0  0  0  0  0  0
    2.7175    3.4108   -0.7868 N   0  0  0  0  0  0  0  0  0  0  0  0
    4.2597   -1.2220   -0.6690 C   0  0  1  0  0  0  0  0  0  0  0  0
    4.5718   -2.7201   -0.4976 C   0  0  0  0  0  0  0  0  0  0  0  0
    5.3486   -2.8178    0.8076 C   0  0  0  0  0  0  0  0  0  0  0  0
    5.9187   -1.4255    0.9886 C   0  0  0  0  0  0  0  0  0  0  0  0
   -5.4749   -0.3864    0.1748 C   0  0  0  0  0  0  0  0  0  0  0  0
   -5.6412    1.1084    0.4438 C   0  0  0  0  0  0  0  0  0  0  0  0
   -6.7921   -1.1404    0.3536 C   0  0  0  0  0  0  0  0  0  0  0  0
    5.2186    0.7982    0.3305 C   0  0  0  0  0  0  0  0  0  0  0  0
   -6.7531    1.7116   -0.4085 C   0  0  0  0  0  0  0  0  0  0  0  0
   -7.9040   -0.5375   -0.4984 C   0  0  0  0  0  0  0  0  0  0  0  0
   -8.0688    0.9569   -0.2316 C   0  0  0  0  0  0  0  0  0  0  0  0
    2.7813   -0.9501   -0.8527 C   0  0  0  0  0  0  0  0  0  0  0  0
    4.0453    1.7415    0.3511 C   0  0  0  0  0  0  0  0  0  0  0  0
    0.7261   -0.7310   -0.7648 C   0  0  0  0  0  0  0  0  0  0  0  0
   -3.1937   -0.8867    0.6240 C   0  0  0  0  0  0  0  0  0  0  0  0
    3.2197    1.8342    1.4662 C   0  0  0  0  0  0  0  0  0  0  0  0
    3.7540    2.5442   -0.7400 C   0  0  0  0  0  0  0  0  0  0  0  0
   -0.6153   -0.7968   -0.2646 C   0  0  0  0  0  0  0  0  0  0  0  0
   -2.1994   -1.3972    1.4427 C   0  0  0  0  0  0  0  0  0  0  0  0
   -0.8881   -1.3476    0.9827 C   0  0  0  0  0  0  0  0  0  0  0  0
   -1.6805   -0.3132   -1.0070 C   0  0  0  0  0  0  0  0  0  0  0  0
    2.1433    2.7145    1.4560 C   0  0  0  0  0  0  0  0  0  0  0  0
    1.9371    3.4736    0.3154 C   0  0  0  0  0  0  0  0  0  0  0  0
    4.7948   -0.8780   -1.5655 H   0  0  0  0  0  0  0  0  0  0  0  0
    3.6834   -3.3603   -0.4708 H   0  0  0  0  0  0  0  0  0  0  0  0
    5.2049   -3.0611   -1.3260 H   0  0  0  0  0  0  0  0  0  0  0  0
    4.6651   -3.0614    1.6306 H   0  0  0  0  0  0  0  0  0  0  0  0
    6.1248   -3.5878    0.7707 H   0  0  0  0  0  0  0  0  0  0  0  0
    6.1897   -1.2344    2.0315 H   0  0  0  0  0  0  0  0  0  0  0  0
    6.8073   -1.2934    0.3583 H   0  0  0  0  0  0  0  0  0  0  0  0
   -5.2009   -0.5390   -0.8783 H   0  0  0  0  0  0  0  0  0  0  0  0
   -4.7027    1.6416    0.2531 H   0  0  0  0  0  0  0  0  0  0  0  0
   -5.8603    1.2678    1.5077 H   0  0  0  0  0  0  0  0  0  0  0  0
   -7.0835   -1.1270    1.4120 H   0  0  0  0  0  0  0  0  0  0  0  0
   -6.6526   -2.1978    0.0980 H   0  0  0  0  0  0  0  0  0  0  0  0
    5.8810    1.1211    1.1459 H   0  0  0  0  0  0  0  0  0  0  0  0
    5.8067    0.9111   -0.5897 H   0  0  0  0  0  0  0  0  0  0  0  0
   -6.8938    2.7647   -0.1403 H   0  0  0  0  0  0  0  0  0  0  0  0
   -6.4575    1.6872   -1.4646 H   0  0  0  0  0  0  0  0  0  0  0  0
   -7.6776   -0.6956   -1.5601 H   0  0  0  0  0  0  0  0  0  0  0  0
   -8.8479   -1.0548   -0.2930 H   0  0  0  0  0  0  0  0  0  0  0  0
   -8.8250    1.3709   -0.9080 H   0  0  0  0  0  0  0  0  0  0  0  0
   -8.4385    1.1052    0.7906 H   0  0  0  0  0  0  0  0  0  0  0  0
    3.4053    1.2302    2.3500 H   0  0  0  0  0  0  0  0  0  0  0  0
    4.3593    2.5163   -1.6407 H   0  0  0  0  0  0  0  0  0  0  0  0
   -2.4292   -1.8233    2.4132 H   0  0  0  0  0  0  0  0  0  0  0  0
   -0.1000   -1.7447    1.6171 H   0  0  0  0  0  0  0  0  0  0  0  0
   -1.5530    0.1321   -1.9893 H   0  0  0  0  0  0  0  0  0  0  0  0
    1.4864    2.8032    2.3136 H   0  0  0  0  0  0  0  0  0  0  0  0
    1.1110    4.1746    0.2567 H   0  0  0  0  0  0  0  0  0  0  0  0
  1 12  1  0  0  0  0
  1 22  1  0  0  0  0
  2  5  1  0  0  0  0
  2 19  1  0  0  0  0
  3  8  1  0  0  0  0
  3 11  1  0  0  0  0
  3 15  1  0  0  0  0
  4 19  2  0  0  0  0
  4 21  1  0  0  0  0
  5 21  2  0  0  0  0
  6 22  2  0  0  0  0
  6 28  1  0  0  0  0
  7 24  1  0  0  0  0
  7 30  2  0  0  0  0
  8  9  1  0  0  0  0
  8 19  1  0  0  0  0
  8 31  1  0  0  0  0
  9 10  1  0  0  0  0
  9 32  1  0  0  0  0
  9 33  1  0  0  0  0
 10 11  1  0  0  0  0
 10 34  1  0  0  0  0
 10 35  1  0  0  0  0
 11 36  1  0  0  0  0
 11 37  1  0  0  0  0
 12 13  1  0  0  0  0
 12 14  1  0  0  0  0
 12 38  1  0  0  0  0
 13 16  1  0  0  0  0
 13 39  1  0  0  0  0
 13 40  1  0  0  0  0
 14 17  1  0  0  0  0
 14 41  1  0  0  0  0
 14 42  1  0  0  0  0
 15 20  1  0  0  0  0
 15 43  1  0  0  0  0
 15 44  1  0  0  0  0
 16 18  1  0  0  0  0
 16 45  1  0  0  0  0
 16 46  1  0  0  0  0
 17 18  1  0  0  0  0
 17 47  1  0  0  0  0
 17 48  1  0  0  0  0
 18 49  1  0  0  0  0
 18 50  1  0  0  0  0
 20 23  1  0  0  0  0
 20 24  2  0  0  0  0
 21 25  1  0  0  0  0
 22 26  1  0  0  0  0
 23 29  2  0  0  0  0
 23 51  1  0  0  0  0
 24 52  1  0  0  0  0
 25 27  1  0  0  0  0
 25 28  2  0  0  0  0
 26 27  2  0  0  0  0
 26 53  1  0  0  0  0
 27 54  1  0  0  0  0
 28 55  1  0  0  0  0
 29 30  1  0  0  0  0
 29 56  1  0  0  0  0
 30 57  1  0  0  0  0
M  END
> <PUBCHEM_COMPOUND_CID>
45783587

> <PUBCHEM_CONFORMER_RMSD>
1.2

> <PUBCHEM_CONFORMER_DIVERSEORDER>
1
57
37
7
45
60
70
9
42
50
39
48
28
51
3
20
18
53
12
56
11
72
65
69
33
40
36
55
6
47
68
34
49
2
76
10
59
35
19
71
24
61
17
54
66
75
25
23
22
32
27
64
21
62
4
8
29
46
15
74
26
43
5
67
13
63
38
30
41
73
16
44
14
58
52
31

> <PUBCHEM_MMFF94_PARTIAL_CHARGES>
30
1 -0.36
11 0.27
12 0.28
15 0.41
19 0.3
2 -0.02
20 -0.14
21 0.46
22 0.39
23 -0.15
24 0.16
25 0.05
26 -0.15
27 -0.15
28 0.16
29 -0.15
3 -0.81
30 0.16
4 -0.57
5 -0.41
51 0.15
52 0.15
53 0.15
54 0.15
55 0.15
56 0.15
57 0.15
6 -0.62
7 -0.62
8 0.45

> <PUBCHEM_EFFECTIVE_ROTOR_COUNT>
8.2

> <PUBCHEM_PHARMACOPHORE_FEATURES>
8
1 3 cation
1 7 acceptor
3 4 5 21 cation
5 2 4 5 19 21 rings
5 3 8 9 10 11 rings
6 12 13 14 16 17 18 rings
6 6 22 25 26 27 28 rings
6 7 20 23 24 29 30 rings

> <PUBCHEM_HEAVY_ATOM_COUNT>
30

> <PUBCHEM_ATOM_DEF_STEREO_COUNT>
1

> <PUBCHEM_ATOM_UDEF_STEREO_COUNT>
0

> <PUBCHEM_BOND_DEF_STEREO_COUNT>
0

> <PUBCHEM_BOND_UDEF_STEREO_COUNT>
0

> <PUBCHEM_ISOTOPIC_ATOM_COUNT>
0

> <PUBCHEM_COMPONENT_COUNT>
1

> <PUBCHEM_CACTVS_TAUTO_COUNT>
1

> <PUBCHEM_CONFORMER_ID>
02BA9A2300000001

> <PUBCHEM_MMFF94_ENERGY>
59.3351

> <PUBCHEM_FEATURE_SELFOVERLAP>
40.599

> <PUBCHEM_SHAPE_FINGERPRINT>
10162869 55 18130774699159893031
11089746 13 18408887317894371719
11186622 174 18410853252863150819
11456790 92 18334861559060991937
11828532 37 18041569138970695187
12107698 1 18342455911606927009
13533116 47 18333733490101121218
13878862 14 18340472443901216013
14556957 393 16988570074708083321
15131766 46 17984974049631664172
15183329 4 17275109448851325353
15348495 7 18260554463090870995
15419008 47 18113330886818606885
19301679 30 18052251792458204578
20157964 124 18272936024449321583
21033648 29 18261946457443134752
21315763 129 18413108338675152481
21344244 181 13046227122729136096
21344244 246 8141820421641833304
21344244 78 18201993288600786738
21360442 67 10159691400458872893
21641784 216 15984839124992816249
21792938 703 12391219557434362117
21859007 373 17895183364962643389
220451 1 12035453852709757411
23559900 14 17531257196010664807
249057 25 17846225445125134241
249057 3 18202565081438514390
2838139 119 18201432585158198009
3044373 193 18341618152655805875
394071 54 15719673289491948412
397830 11 18116725191346664683
4073 2 18042409191128682763
4112364 45 16844994814890684528
4144715 1 18410022039453213059
44555599 121 18201167559948332201
5104073 3 16226626207122704129
68570916 9 18200592618441003807
8509985 295 18413673517616289312

> <PUBCHEM_SHAPE_MULTIPOLES>
580.74
19.7
3.3
1.36
37.85
2.51
0.13
-1.64
-1.15
-5.65
-0.44
-0.82
0
0.56

> <PUBCHEM_SHAPE_SELFOVERLAP>
1255.54

> <PUBCHEM_SHAPE_VOLUME>
316.1

> <PUBCHEM_COORDINATE_TYPE>
2
5
10

$$$$
