75367694
  -OEChem-12032416393D

 48 50  0     1  0  0  0  0  0999 V2000
   -5.9049   -0.8320   -0.2009 S   0  0  0  0  0  0  0  0  0  0  0  0
    1.2600    4.1115    0.5784 O   0  0  0  0  0  0  0  0  0  0  0  0
   -0.2568    0.7774    0.4035 O   0  0  0  0  0  0  0  0  0  0  0  0
    4.3847    0.8631    0.0318 O   0  0  0  0  0  0  0  0  0  0  0  0
   -6.7483    0.3462   -0.0528 O   0  0  0  0  0  0  0  0  0  0  0  0
   -6.0109   -1.6506   -1.4003 O   0  0  0  0  0  0  0  0  0  0  0  0
    2.4954    1.8740   -0.8395 N   0  0  0  0  0  0  0  0  0  0  0  0
    2.5549   -0.4619   -0.5131 N   0  0  0  0  0  0  0  0  0  0  0  0
    4.8082   -3.1397    0.6934 N   0  0  0  0  0  0  0  0  0  0  0  0
    0.1023    2.0544   -0.1228 C   0  0  2  0  0  0  0  0  0  0  0  0
    1.0909    1.8589   -1.2742 C   0  0  0  0  0  0  0  0  0  0  0  0
    0.5822    2.9415    1.0263 C   0  0  0  0  0  0  0  0  0  0  0  0
    3.1018    3.2055   -0.7571 C   0  0  0  0  0  0  0  0  0  0  0  0
    2.6770    3.9422    0.5070 C   0  0  0  0  0  0  0  0  0  0  0  0
    3.2388    0.7498   -0.4101 C   0  0  0  0  0  0  0  0  0  0  0  0
   -1.5656    0.4039    0.2642 C   0  0  0  0  0  0  0  0  0  0  0  0
   -2.5764    1.1779    0.8342 C   0  0  0  0  0  0  0  0  0  0  0  0
   -1.8892   -0.7508   -0.4482 C   0  0  0  0  0  0  0  0  0  0  0  0
   -4.2342   -0.3578   -0.0200 C   0  0  0  0  0  0  0  0  0  0  0  0
   -3.9106    0.7972    0.6922 C   0  0  0  0  0  0  0  0  0  0  0  0
   -3.2235   -1.1318   -0.5902 C   0  0  0  0  0  0  0  0  0  0  0  0
    3.0242   -1.7530   -0.1665 C   0  0  0  0  0  0  0  0  0  0  0  0
   -6.2228   -1.8759    1.2035 C   0  0  0  0  0  0  0  0  0  0  0  0
    2.2193   -2.8754   -0.3271 C   0  0  0  0  0  0  0  0  0  0  0  0
    4.2994   -1.9371    0.3433 C   0  0  0  0  0  0  0  0  0  0  0  0
    2.7074   -4.1298    0.0219 C   0  0  0  0  0  0  0  0  0  0  0  0
    3.9968   -4.2076    0.5231 C   0  0  0  0  0  0  0  0  0  0  0  0
   -0.7727    2.5422   -0.5769 H   0  0  0  0  0  0  0  0  0  0  0  0
    0.8717    0.9488   -1.8392 H   0  0  0  0  0  0  0  0  0  0  0  0
    0.9686    2.6797   -1.9923 H   0  0  0  0  0  0  0  0  0  0  0  0
   -0.2900    3.2774    1.5984 H   0  0  0  0  0  0  0  0  0  0  0  0
    1.1899    2.3740    1.7434 H   0  0  0  0  0  0  0  0  0  0  0  0
    2.8088    3.7705   -1.6491 H   0  0  0  0  0  0  0  0  0  0  0  0
    4.1935    3.1191   -0.7735 H   0  0  0  0  0  0  0  0  0  0  0  0
    3.0501    3.4448    1.4101 H   0  0  0  0  0  0  0  0  0  0  0  0
    3.1166    4.9453    0.4916 H   0  0  0  0  0  0  0  0  0  0  0  0
    1.5982   -0.4568   -0.8456 H   0  0  0  0  0  0  0  0  0  0  0  0
   -2.3431    2.0728    1.4034 H   0  0  0  0  0  0  0  0  0  0  0  0
   -1.1056   -1.3573   -0.8939 H   0  0  0  0  0  0  0  0  0  0  0  0
   -4.6813    1.4098    1.1515 H   0  0  0  0  0  0  0  0  0  0  0  0
   -3.4516   -2.0383   -1.1436 H   0  0  0  0  0  0  0  0  0  0  0  0
   -7.2600   -2.2132    1.1471 H   0  0  0  0  0  0  0  0  0  0  0  0
   -5.5499   -2.7347    1.1670 H   0  0  0  0  0  0  0  0  0  0  0  0
   -6.0678   -1.2993    2.1174 H   0  0  0  0  0  0  0  0  0  0  0  0
    1.2112   -2.7859   -0.7228 H   0  0  0  0  0  0  0  0  0  0  0  0
    5.0161   -1.1476    0.5120 H   0  0  0  0  0  0  0  0  0  0  0  0
    2.0979   -5.0185   -0.0948 H   0  0  0  0  0  0  0  0  0  0  0  0
    4.4244   -5.1626    0.8101 H   0  0  0  0  0  0  0  0  0  0  0  0
  1  5  2  0  0  0  0
  1  6  2  0  0  0  0
  1 19  1  0  0  0  0
  1 23  1  0  0  0  0
  2 12  1  0  0  0  0
  2 14  1  0  0  0  0
  3 10  1  0  0  0  0
  3 16  1  0  0  0  0
  4 15  2  0  0  0  0
  7 11  1  0  0  0  0
  7 13  1  0  0  0  0
  7 15  1  0  0  0  0
  8 15  1  0  0  0  0
  8 22  1  0  0  0  0
  8 37  1  0  0  0  0
  9 25  1  0  0  0  0
  9 27  2  0  0  0  0
 10 11  1  0  0  0  0
 10 12  1  0  0  0  0
 10 28  1  0  0  0  0
 11 29  1  0  0  0  0
 11 30  1  0  0  0  0
 12 31  1  0  0  0  0
 12 32  1  0  0  0  0
 13 14  1  0  0  0  0
 13 33  1  0  0  0  0
 13 34  1  0  0  0  0
 14 35  1  0  0  0  0
 14 36  1  0  0  0  0
 16 17  2  0  0  0  0
 16 18  1  0  0  0  0
 17 20  1  0  0  0  0
 17 38  1  0  0  0  0
 18 21  2  0  0  0  0
 18 39  1  0  0  0  0
 19 20  2  0  0  0  0
 19 21  1  0  0  0  0
 20 40  1  0  0  0  0
 21 41  1  0  0  0  0
 22 24  1  0  0  0  0
 22 25  2  0  0  0  0
 23 42  1  0  0  0  0
 23 43  1  0  0  0  0
 23 44  1  0  0  0  0
 24 26  2  0  0  0  0
 24 45  1  0  0  0  0
 25 46  1  0  0  0  0
 26 27  1  0  0  0  0
 26 47  1  0  0  0  0
 27 48  1  0  0  0  0
M  END
> <PUBCHEM_COMPOUND_CID>
75367694

> <PUBCHEM_CONFORMER_RMSD>
1.2

> <PUBCHEM_CONFORMER_DIVERSEORDER>
1
91
21
16
82
13
103
85
42
88
4
35
31
84
17
113
116
49
58
50
90
106
68
36
18
108
73
78
71
41
100
70
77
63
118
34
80
92
19
2
38
69
56
33
99
66
32
45
10
40
53
55
12
23
15
86
7
115
47
29
94
26
39
51
43
76
24
72
81
62
61
74
22
75
14
110
102
65
27
44
5
101
87
114
98
89
105
9
107
57
67
60
64
20
117
109
30
59
46
104
8
3
54
28
97
83
48
79
25
52
37
96
6
11
112
95
93
111

> <PUBCHEM_MMFF94_PARTIAL_CHARGES>
36
1 1.2
10 0.28
11 0.3
12 0.28
13 0.3
14 0.28
15 0.69
16 0.08
17 -0.15
18 -0.15
19 -0.01
2 -0.56
20 -0.15
21 -0.15
22 0.12
23 0.11
24 -0.15
25 0.16
26 -0.15
27 0.16
3 -0.36
37 0.37
38 0.15
39 0.15
4 -0.57
40 0.15
41 0.15
45 0.15
46 0.15
47 0.15
48 0.15
5 -0.65
6 -0.65
7 -0.66
8 -0.55
9 -0.62

> <PUBCHEM_EFFECTIVE_ROTOR_COUNT>
7.4

> <PUBCHEM_PHARMACOPHORE_FEATURES>
10
1 2 acceptor
1 3 acceptor
1 4 acceptor
1 5 acceptor
1 6 acceptor
1 8 donor
1 9 acceptor
6 16 17 18 19 20 21 rings
6 9 22 24 25 26 27 rings
7 2 7 10 11 12 13 14 rings

> <PUBCHEM_HEAVY_ATOM_COUNT>
27

> <PUBCHEM_ATOM_DEF_STEREO_COUNT>
1

> <PUBCHEM_ATOM_UDEF_STEREO_COUNT>
0

> <PUBCHEM_BOND_DEF_STEREO_COUNT>
0

> <PUBCHEM_BOND_UDEF_STEREO_COUNT>
0

> <PUBCHEM_ISOTOPIC_ATOM_COUNT>
0

> <PUBCHEM_COMPONENT_COUNT>
1

> <PUBCHEM_CACTVS_TAUTO_COUNT>
2

> <PUBCHEM_CONFORMER_ID>
047E050E00000001

> <PUBCHEM_MMFF94_ENERGY>
81.781

> <PUBCHEM_FEATURE_SELFOVERLAP>
50.768

> <PUBCHEM_SHAPE_FINGERPRINT>
10411042 1 18266177219558330870
10622 236 17844223311819304143
1100329 8 18196087970851811540
11014199 57 18050854312798765518
11135609 149 18193247815778286381
11552529 35 17619345408406057466
11719270 70 18265330784715386304
12107183 9 18125732184300765025
12553582 1 18195820570018751926
12730499 353 18192722365105094057
13004483 165 18122899824892898522
13533116 47 18410858802235151817
1361 2 18410291424007483578
13785724 45 18127143969661939991
138480 1 18410575046593929196
13911852 28 18338233743774556939
13955234 65 18340487892851003001
14429380 30 18191309278031854786
14675020 138 18198897209764960560
15250474 111 18129654339861426855
15927050 60 17981608474582499758
16992752 21 18123762959329001990
17492 89 18337675217658640475
18681886 176 15983994798104113468
19026451 147 18409166576388785834
19319366 153 18125723640961862629
19427546 62 17834397100312407196
20511986 3 17631443626482448157
20645477 70 18259984911303145457
20775530 9 18267010670741396562
21285901 2 17603579746644341557
21344244 78 18271514317475816248
23559900 14 18409721847330773347
23569914 152 17760611843680245375
314194 84 18412546531046128851
3421961 26 18410009931555010584
345986 75 17989212520911515737
4015057 19 18408038516435036363
4058900 60 18122077660689390044
444735 79 18266441141620947114
46194498 28 17676486185065073444
463206 1 18409452479213086346
50009960 94 18041541624978596587
5104073 3 18272099288248901137
5309563 4 18266739087053295614
56633871 153 17836657318345784875
59682541 52 18337657707857346205
613672 6 18050266108068632262
6299153 45 18269564841164977073
7970288 3 18191586345976636810
9777508 108 17331681761446723528

> <PUBCHEM_SHAPE_MULTIPOLES>
515.21
13.43
5.64
1.01
21.79
0.27
-0.05
10.23
0.4
-10.32
0.96
0.48
-0.15
-1.07

> <PUBCHEM_SHAPE_SELFOVERLAP>
1075.579

> <PUBCHEM_SHAPE_VOLUME>
291.8

> <PUBCHEM_COORDINATE_TYPE>
2
5
10

$$$$
