75536495
  -OEChem-12032416343D

 35 35  0     1  0  0  0  0  0999 V2000
    0.4166    1.3399    0.0972 O   0  0  0  0  0  0  0  0  0  0  0  0
   -0.4409   -2.1142   -0.3921 O   0  0  0  0  0  0  0  0  0  0  0  0
    4.0563   -1.2488    0.6100 O   0  0  0  0  0  0  0  0  0  0  0  0
   -2.8598   -0.1123   -0.5254 N   0  0  0  0  0  0  0  0  0  0  0  0
    3.1202    0.5677   -0.5083 N   0  0  0  0  0  0  0  0  0  0  0  0
   -1.5491    0.0066    0.0923 C   0  0  1  0  0  0  0  0  0  0  0  0
   -0.4528   -0.7253   -0.6595 C   0  0  1  0  0  0  0  0  0  0  0  0
    0.7890   -0.0319   -0.1159 C   0  0  1  0  0  0  0  0  0  0  0  0
   -1.0188    1.4310    0.0858 C   0  0  0  0  0  0  0  0  0  0  0  0
    1.9767   -0.1008   -1.0592 C   0  0  0  0  0  0  0  0  0  0  0  0
   -3.9126    0.3084    0.3914 C   0  0  0  0  0  0  0  0  0  0  0  0
   -5.1585    0.6842   -0.4042 C   0  0  0  0  0  0  0  0  0  0  0  0
   -4.2162   -0.8018    1.3935 C   0  0  0  0  0  0  0  0  0  0  0  0
    4.0709   -0.0644    0.2851 C   0  0  0  0  0  0  0  0  0  0  0  0
    5.1789    0.8620    0.7093 C   0  0  0  0  0  0  0  0  0  0  0  0
   -1.5538   -0.3808    1.1186 H   0  0  0  0  0  0  0  0  0  0  0  0
   -0.5480   -0.5744   -1.7421 H   0  0  0  0  0  0  0  0  0  0  0  0
    1.0711   -0.4491    0.8599 H   0  0  0  0  0  0  0  0  0  0  0  0
   -1.3000    1.9759   -0.8228 H   0  0  0  0  0  0  0  0  0  0  0  0
   -1.3495    2.0116    0.9522 H   0  0  0  0  0  0  0  0  0  0  0  0
   -3.0218   -1.0740   -0.8227 H   0  0  0  0  0  0  0  0  0  0  0  0
    1.7494    0.4060   -2.0035 H   0  0  0  0  0  0  0  0  0  0  0  0
    2.2373   -1.1422   -1.2763 H   0  0  0  0  0  0  0  0  0  0  0  0
   -3.6143    1.2080    0.9437 H   0  0  0  0  0  0  0  0  0  0  0  0
   -0.3588   -2.2402    0.5683 H   0  0  0  0  0  0  0  0  0  0  0  0
    3.2313    1.5568   -0.7121 H   0  0  0  0  0  0  0  0  0  0  0  0
   -5.9565    1.0265    0.2635 H   0  0  0  0  0  0  0  0  0  0  0  0
   -4.9441    1.4957   -1.1087 H   0  0  0  0  0  0  0  0  0  0  0  0
   -5.5428   -0.1679   -0.9764 H   0  0  0  0  0  0  0  0  0  0  0  0
   -5.0492   -0.5094    2.0429 H   0  0  0  0  0  0  0  0  0  0  0  0
   -3.3675   -1.0234    2.0469 H   0  0  0  0  0  0  0  0  0  0  0  0
   -4.5066   -1.7308    0.8892 H   0  0  0  0  0  0  0  0  0  0  0  0
    4.7660    1.8061    1.0760 H   0  0  0  0  0  0  0  0  0  0  0  0
    5.7585    0.3989    1.5126 H   0  0  0  0  0  0  0  0  0  0  0  0
    5.8352    1.0578   -0.1430 H   0  0  0  0  0  0  0  0  0  0  0  0
  1  8  1  0  0  0  0
  1  9  1  0  0  0  0
  2  7  1  0  0  0  0
  2 25  1  0  0  0  0
  3 14  2  0  0  0  0
  4  6  1  0  0  0  0
  4 11  1  0  0  0  0
  4 21  1  0  0  0  0
  5 10  1  0  0  0  0
  5 14  1  0  0  0  0
  5 26  1  0  0  0  0
  6  7  1  0  0  0  0
  6  9  1  0  0  0  0
  6 16  1  0  0  0  0
  7  8  1  0  0  0  0
  7 17  1  0  0  0  0
  8 10  1  0  0  0  0
  8 18  1  0  0  0  0
  9 19  1  0  0  0  0
  9 20  1  0  0  0  0
 10 22  1  0  0  0  0
 10 23  1  0  0  0  0
 11 12  1  0  0  0  0
 11 13  1  0  0  0  0
 11 24  1  0  0  0  0
 12 27  1  0  0  0  0
 12 28  1  0  0  0  0
 12 29  1  0  0  0  0
 13 30  1  0  0  0  0
 13 31  1  0  0  0  0
 13 32  1  0  0  0  0
 14 15  1  0  0  0  0
 15 33  1  0  0  0  0
 15 34  1  0  0  0  0
 15 35  1  0  0  0  0
M  END
> <PUBCHEM_COMPOUND_CID>
75536495

> <PUBCHEM_CONFORMER_RMSD>
0.8

> <PUBCHEM_CONFORMER_DIVERSEORDER>
1
4
23
26
28
16
19
20
17
30
31
25
6
12
7
9
2
11
5
18
21
14
3
27
15
29
13
22
24
8
10

> <PUBCHEM_MMFF94_PARTIAL_CHARGES>
16
1 -0.56
10 0.3
11 0.27
14 0.57
15 0.06
2 -0.68
21 0.36
25 0.4
26 0.37
3 -0.57
4 -0.9
5 -0.73
6 0.27
7 0.28
8 0.28
9 0.28

> <PUBCHEM_EFFECTIVE_ROTOR_COUNT>
6

> <PUBCHEM_PHARMACOPHORE_FEATURES>
9
1 1 acceptor
1 2 acceptor
1 2 donor
1 3 acceptor
1 4 cation
1 4 donor
1 5 donor
3 11 12 13 hydrophobe
5 1 6 7 8 9 rings

> <PUBCHEM_HEAVY_ATOM_COUNT>
15

> <PUBCHEM_ATOM_DEF_STEREO_COUNT>
3

> <PUBCHEM_ATOM_UDEF_STEREO_COUNT>
0

> <PUBCHEM_BOND_DEF_STEREO_COUNT>
0

> <PUBCHEM_BOND_UDEF_STEREO_COUNT>
0

> <PUBCHEM_ISOTOPIC_ATOM_COUNT>
0

> <PUBCHEM_COMPONENT_COUNT>
1

> <PUBCHEM_CACTVS_TAUTO_COUNT>
2

> <PUBCHEM_CONFORMER_ID>
0480986F00000001

> <PUBCHEM_MMFF94_ENERGY>
18.7139

> <PUBCHEM_FEATURE_SELFOVERLAP>
45.671

> <PUBCHEM_SHAPE_FINGERPRINT>
10465860 250 18113339721502692601
11132069 177 18130793360402150415
11401426 45 18272366473500158741
12251169 10 18411697712543554252
124424 183 18186521012514076337
13533116 47 18336541613050058498
13675066 3 18259984877053969070
14123238 8 15841550773481370861
14251718 22 14333401260054979949
14252887 29 18130238085518493526
14943859 89 18273214205275572639
15048467 5 15410899548161282657
17834076 25 16056881338330940860
17846911 113 18202002122741599140
19026448 5 16443358601773415207
200 152 14345790548217754292
20510252 161 18059576837057180904
20645477 56 18343016722814321412
22485316 2 18260267460084749931
23402539 116 18272642463439622789
23559900 14 17967536778914894240
265663 24 17095244734881950505
26918003 58 17967250896842815105
3286 77 15068622720869625406
366044 4 18343300374943929223
4072396 5 18338791213518331707
42 15 17821729429368987626
4990 188 12685089272214628224
5374978 207 18413384324604485864
69090 78 17561360681912297622

> <PUBCHEM_SHAPE_MULTIPOLES>
281.12
10.6
1.34
0.97
1.86
0.28
-0.11
-1.15
-2.81
0.06
-0.03
-0.23
0.13
0.39

> <PUBCHEM_SHAPE_SELFOVERLAP>
548.443

> <PUBCHEM_SHAPE_VOLUME>
171.7

> <PUBCHEM_COORDINATE_TYPE>
2
5
10

$$$$
