9424610
  -OEChem-12032416333D

 66 70  0     1  0  0  0  0  0999 V2000
    2.6344   -3.3134    2.2238 O   0  0  0  0  0  0  0  0  0  0  0  0
    4.5264    3.9140    1.9795 O   0  0  0  0  0  0  0  0  0  0  0  0
   -3.0122   -1.0274    2.0050 O   0  0  0  0  0  0  0  0  0  0  0  0
   -4.9466    0.5712    1.0355 O   0  0  0  0  0  0  0  0  0  0  0  0
    2.6014   -0.1145   -1.6425 N   0  0  2  0  0  0  0  0  0  0  0  0
    1.5666   -2.3731    0.3634 N   0  0  0  0  0  0  0  0  0  0  0  0
    4.4410    2.1160    0.5101 N   0  0  0  0  0  0  0  0  0  0  0  0
   -1.5221   -0.3932    0.3286 N   0  0  0  0  0  0  0  0  0  0  0  0
    2.5115   -2.5932   -2.0094 C   0  0  1  0  0  0  0  0  0  0  0  0
    0.4343   -1.3541   -1.6371 C   0  0  2  0  0  0  0  0  0  0  0  0
    1.0555   -2.4992   -2.4335 C   0  0  0  0  0  0  0  0  0  0  0  0
    3.2385   -1.2631   -2.2981 C   0  0  0  0  0  0  0  0  0  0  0  0
    1.1702   -0.0363   -1.9709 C   0  0  0  0  0  0  0  0  0  0  0  0
    3.2869    1.1328   -1.9857 C   0  0  0  0  0  0  0  0  0  0  0  0
    2.5597   -2.9854   -0.5298 C   0  0  0  0  0  0  0  0  0  0  0  0
    0.4842   -1.6252   -0.1348 C   0  0  0  0  0  0  0  0  0  0  0  0
    4.7868    1.0205   -1.6763 C   0  0  0  0  0  0  0  0  0  0  0  0
    2.6790    2.3089   -1.2076 C   0  0  0  0  0  0  0  0  0  0  0  0
    5.0745    0.9809   -0.1740 C   0  0  0  0  0  0  0  0  0  0  0  0
    2.9991    2.2467    0.2862 C   0  0  0  0  0  0  0  0  0  0  0  0
   -0.4518   -1.1518    0.7188 C   0  0  0  0  0  0  0  0  0  0  0  0
    1.7180   -2.6530    1.7337 C   0  0  0  0  0  0  0  0  0  0  0  0
   -0.3439   -1.4136    2.1339 C   0  0  0  0  0  0  0  0  0  0  0  0
    0.6746   -2.1119    2.6393 C   0  0  0  0  0  0  0  0  0  0  0  0
    5.0901    3.0004    1.3716 C   0  0  0  0  0  0  0  0  0  0  0  0
    6.5749    2.8051    1.5485 C   0  0  0  0  0  0  0  0  0  0  0  0
   -2.7348   -0.3799    0.9985 C   0  0  0  0  0  0  0  0  0  0  0  0
   -3.7231    0.5540    0.3313 C   0  0  0  0  0  0  0  0  0  0  0  0
   -6.0841    0.8377    0.3107 C   0  0  0  0  0  0  0  0  0  0  0  0
   -6.0049    1.6502   -0.8118 C   0  0  0  0  0  0  0  0  0  0  0  0
   -7.2946    0.2906    0.7131 C   0  0  0  0  0  0  0  0  0  0  0  0
   -7.1592    1.9211   -1.5465 C   0  0  0  0  0  0  0  0  0  0  0  0
   -8.4488    0.5614   -0.0218 C   0  0  0  0  0  0  0  0  0  0  0  0
   -8.3811    1.3768   -1.1516 C   0  0  0  0  0  0  0  0  0  0  0  0
    3.0126   -3.3775   -2.5907 H   0  0  0  0  0  0  0  0  0  0  0  0
   -0.6066   -1.2679   -1.9723 H   0  0  0  0  0  0  0  0  0  0  0  0
    0.9813   -2.3023   -3.5100 H   0  0  0  0  0  0  0  0  0  0  0  0
    0.5290   -3.4425   -2.2417 H   0  0  0  0  0  0  0  0  0  0  0  0
    3.2858   -1.1117   -3.3849 H   0  0  0  0  0  0  0  0  0  0  0  0
    4.2590   -1.4207   -1.9385 H   0  0  0  0  0  0  0  0  0  0  0  0
    0.6633    0.7456   -1.4001 H   0  0  0  0  0  0  0  0  0  0  0  0
    1.0297    0.1944   -3.0356 H   0  0  0  0  0  0  0  0  0  0  0  0
    3.1751    1.3342   -3.0601 H   0  0  0  0  0  0  0  0  0  0  0  0
    2.3966   -4.0693   -0.4516 H   0  0  0  0  0  0  0  0  0  0  0  0
    3.5598   -2.8033   -0.1164 H   0  0  0  0  0  0  0  0  0  0  0  0
    5.3034    0.2137   -2.2018 H   0  0  0  0  0  0  0  0  0  0  0  0
    5.2611    1.9321   -2.0704 H   0  0  0  0  0  0  0  0  0  0  0  0
    3.1385    3.2272   -1.6024 H   0  0  0  0  0  0  0  0  0  0  0  0
    1.6092    2.4566   -1.3704 H   0  0  0  0  0  0  0  0  0  0  0  0
    4.6758    0.0650    0.2776 H   0  0  0  0  0  0  0  0  0  0  0  0
    6.1548    0.9676   -0.0191 H   0  0  0  0  0  0  0  0  0  0  0  0
    2.6130    3.1453    0.7781 H   0  0  0  0  0  0  0  0  0  0  0  0
    2.5119    1.3851    0.7574 H   0  0  0  0  0  0  0  0  0  0  0  0
   -0.9961   -0.9476    2.8615 H   0  0  0  0  0  0  0  0  0  0  0  0
    0.7888   -2.2659    3.7059 H   0  0  0  0  0  0  0  0  0  0  0  0
   -1.4907    0.0333   -0.5930 H   0  0  0  0  0  0  0  0  0  0  0  0
    7.0883    2.9203    0.5903 H   0  0  0  0  0  0  0  0  0  0  0  0
    6.7785    1.8208    1.9785 H   0  0  0  0  0  0  0  0  0  0  0  0
    6.9623    3.5638    2.2357 H   0  0  0  0  0  0  0  0  0  0  0  0
   -3.2928    1.5622    0.3194 H   0  0  0  0  0  0  0  0  0  0  0  0
   -3.8476    0.1857   -0.6960 H   0  0  0  0  0  0  0  0  0  0  0  0
   -5.0785    2.1140   -1.1358 H   0  0  0  0  0  0  0  0  0  0  0  0
   -7.3507   -0.3446    1.5923 H   0  0  0  0  0  0  0  0  0  0  0  0
   -7.1081    2.5609   -2.4228 H   0  0  0  0  0  0  0  0  0  0  0  0
   -9.4005    0.1379    0.2859 H   0  0  0  0  0  0  0  0  0  0  0  0
   -9.2802    1.5890   -1.7228 H   0  0  0  0  0  0  0  0  0  0  0  0
  1 22  2  0  0  0  0
  2 25  2  0  0  0  0
  3 27  2  0  0  0  0
  4 28  1  0  0  0  0
  4 29  1  0  0  0  0
  5 12  1  0  0  0  0
  5 13  1  0  0  0  0
  5 14  1  0  0  0  0
  6 15  1  0  0  0  0
  6 16  1  0  0  0  0
  6 22  1  0  0  0  0
  7 19  1  0  0  0  0
  7 20  1  0  0  0  0
  7 25  1  0  0  0  0
  8 21  1  0  0  0  0
  8 27  1  0  0  0  0
  8 56  1  0  0  0  0
  9 11  1  0  0  0  0
  9 12  1  0  0  0  0
  9 15  1  0  0  0  0
  9 35  1  0  0  0  0
 10 11  1  0  0  0  0
 10 13  1  0  0  0  0
 10 16  1  0  0  0  0
 10 36  1  0  0  0  0
 11 37  1  0  0  0  0
 11 38  1  0  0  0  0
 12 39  1  0  0  0  0
 12 40  1  0  0  0  0
 13 41  1  0  0  0  0
 13 42  1  0  0  0  0
 14 17  1  0  0  0  0
 14 18  1  0  0  0  0
 14 43  1  0  0  0  0
 15 44  1  0  0  0  0
 15 45  1  0  0  0  0
 16 21  2  0  0  0  0
 17 19  1  0  0  0  0
 17 46  1  0  0  0  0
 17 47  1  0  0  0  0
 18 20  1  0  0  0  0
 18 48  1  0  0  0  0
 18 49  1  0  0  0  0
 19 50  1  0  0  0  0
 19 51  1  0  0  0  0
 20 52  1  0  0  0  0
 20 53  1  0  0  0  0
 21 23  1  0  0  0  0
 22 24  1  0  0  0  0
 23 24  2  0  0  0  0
 23 54  1  0  0  0  0
 24 55  1  0  0  0  0
 25 26  1  0  0  0  0
 26 57  1  0  0  0  0
 26 58  1  0  0  0  0
 26 59  1  0  0  0  0
 27 28  1  0  0  0  0
 28 60  1  0  0  0  0
 28 61  1  0  0  0  0
 29 30  2  0  0  0  0
 29 31  1  0  0  0  0
 30 32  1  0  0  0  0
 30 62  1  0  0  0  0
 31 33  2  0  0  0  0
 31 63  1  0  0  0  0
 32 34  2  0  0  0  0
 32 64  1  0  0  0  0
 33 34  1  0  0  0  0
 33 65  1  0  0  0  0
 34 66  1  0  0  0  0
M  END
> <PUBCHEM_COMPOUND_CID>
9424610

> <PUBCHEM_CONFORMER_RMSD>
1

> <PUBCHEM_CONFORMER_DIVERSEORDER>
1
21
75
61
45
20
39
83
16
81
10
77
54
3
30
78
52
85
19
82
50
51
55
31
25
37
27
26
57
74
68
44
63
47
76
36
34
60
56
48
11
73
79
84
41
46
33
49
87
42
15
12
22
9
5
24
86
8
88
32
53
38
80
23
40
70
4
35
29
28
6
64
43
71
59
67
7
62
72
18
14
69
13
66
65
2
58
17

> <PUBCHEM_MMFF94_PARTIAL_CHARGES>
38
1 -0.57
10 0.14
12 0.27
13 0.27
14 0.27
15 0.3
16 -0.03
19 0.3
2 -0.57
20 0.3
21 0.11
22 0.62
23 -0.15
24 -0.14
25 0.57
26 0.06
27 0.57
28 0.34
29 0.08
3 -0.57
30 -0.15
31 -0.15
32 -0.15
33 -0.15
34 -0.15
4 -0.36
5 -0.81
54 0.15
55 0.15
56 0.37
6 -0.47
62 0.15
63 0.15
64 0.15
65 0.15
66 0.15
7 -0.66
8 -0.54

> <PUBCHEM_EFFECTIVE_ROTOR_COUNT>
9.2

> <PUBCHEM_PHARMACOPHORE_FEATURES>
11
1 1 acceptor
1 2 acceptor
1 3 acceptor
1 4 acceptor
1 5 cation
1 8 donor
6 29 30 31 32 33 34 rings
6 5 9 10 11 12 13 rings
6 6 16 21 22 23 24 rings
6 6 9 10 11 15 16 rings
6 7 14 17 18 19 20 rings

> <PUBCHEM_HEAVY_ATOM_COUNT>
34

> <PUBCHEM_ATOM_DEF_STEREO_COUNT>
2

> <PUBCHEM_ATOM_UDEF_STEREO_COUNT>
0

> <PUBCHEM_BOND_DEF_STEREO_COUNT>
0

> <PUBCHEM_BOND_UDEF_STEREO_COUNT>
0

> <PUBCHEM_ISOTOPIC_ATOM_COUNT>
0

> <PUBCHEM_COMPONENT_COUNT>
1

> <PUBCHEM_CACTVS_TAUTO_COUNT>
2

> <PUBCHEM_CONFORMER_ID>
008FCEE200000001

> <PUBCHEM_MMFF94_ENERGY>
99.7056

> <PUBCHEM_FEATURE_SELFOVERLAP>
57.376

> <PUBCHEM_SHAPE_FINGERPRINT>
11115154 58 17613166169562962635
12156800 1 16412914284868943218
12166972 35 17201369464019795247
12422481 6 15864338164614716031
12633257 1 17024582524891022450
12778500 126 11891338655711735903
13150687 139 17560530585668486964
13165053 68 18269828877920779711
13383668 362 16950004725147502547
13636023 20 16486983859999030960
14461889 52 17313682520351343115
14675020 138 17167865244972445899
14904525 67 18198628740550966257
15064986 96 17314482895754054296
15350500 185 17560793399012673328
15669420 48 9583522036670598760
15684393 108 17346602968255455743
16120349 189 18127691737170032252
17492 54 14907909322699279080
20511986 3 18408038516477227959
20554085 129 18260267477365144936
21033648 29 18188493600635487212
21304303 282 17913759789829015838
21403212 168 18407754842392449738
21968339 14 18341620260930925638
23522609 53 16127838296076899219
3388396 114 17346055436402106768
3411729 13 18409443691677889249
3918712 181 17385734595209187693
4093350 32 18342741763598268341
4112364 45 18341034277547768480
4366758 6 17417806297192574664
437795 139 11021624911324508788
44249763 50 18335422413650666151
44317340 157 18261687978528350687
5109719 28 18042985323043727321
513532 50 18334580096679090583
5372103 7 17988077910806338864
57091435 61 18259993669158440461
57359948 33 17559386947736777793
6677587 24 18129361749118763101

> <PUBCHEM_SHAPE_MULTIPOLES>
656.3
18.86
4.07
2.73
48.01
0.29
-0.09
19.76
1.18
-7.71
-1.45
-2.56
-1.21
3.36

> <PUBCHEM_SHAPE_SELFOVERLAP>
1413.096

> <PUBCHEM_SHAPE_VOLUME>
351.8

> <PUBCHEM_COORDINATE_TYPE>
2
5
10

$$$$
