56773963
  -OEChem-12032416223D

 60 63  0     1  0  0  0  0  0999 V2000
   -0.6479    1.4478   -1.2852 S   0  0  0  0  0  0  0  0  0  0  0  0
   -0.7601    1.5783   -2.7217 O   0  0  0  0  0  0  0  0  0  0  0  0
    0.0797    2.4224   -0.5016 O   0  0  0  0  0  0  0  0  0  0  0  0
    1.0917   -6.4591    0.0840 O   0  0  0  0  0  0  0  0  0  0  0  0
   -0.8805   -5.3472   -0.1496 O   0  0  0  0  0  0  0  0  0  0  0  0
   -6.4574    1.3770    2.1349 O   0  0  0  0  0  0  0  0  0  0  0  0
   -0.0584   -0.1173   -0.9111 N   0  0  1  0  0  0  0  0  0  0  0  0
    3.2608   -0.2508    2.1501 N   0  0  0  0  0  0  0  0  0  0  0  0
   -7.2145    0.5898    0.1186 N   0  0  0  0  0  0  0  0  0  0  0  0
    1.1101   -1.6186    0.6875 C   0  0  2  0  0  0  0  0  0  0  0  0
    0.3962   -2.8293    0.0388 C   0  0  1  0  0  0  0  0  0  0  0  0
    0.2459   -0.3570    0.5309 C   0  0  0  0  0  0  0  0  0  0  0  0
   -0.0038   -2.5321   -1.4144 C   0  0  0  0  0  0  0  0  0  0  0  0
   -0.8186   -1.2468   -1.5180 C   0  0  0  0  0  0  0  0  0  0  0  0
    2.5273   -1.3697    0.1556 C   0  0  0  0  0  0  0  0  0  0  0  0
    1.2087   -4.1213    0.1211 C   0  0  0  0  0  0  0  0  0  0  0  0
    3.1404   -0.1865    0.8651 C   0  0  0  0  0  0  0  0  0  0  0  0
    0.3319   -5.3369    0.0008 C   0  0  0  0  0  0  0  0  0  0  0  0
    3.5659    0.9877    0.0613 C   0  0  0  0  0  0  0  0  0  0  0  0
   -2.2800    1.3277   -0.6237 C   0  0  0  0  0  0  0  0  0  0  0  0
    3.7605    2.1895    0.7539 C   0  0  0  0  0  0  0  0  0  0  0  0
    3.9118    0.8727    2.8325 C   0  0  0  0  0  0  0  0  0  0  0  0
    3.5165    2.2159    2.2335 C   0  0  0  0  0  0  0  0  0  0  0  0
    3.7558    0.9280   -1.3207 C   0  0  0  0  0  0  0  0  0  0  0  0
   -3.3262    0.8744   -1.4274 C   0  0  0  0  0  0  0  0  0  0  0  0
   -2.5242    1.6886    0.7014 C   0  0  0  0  0  0  0  0  0  0  0  0
    4.1222    3.3412    0.0495 C   0  0  0  0  0  0  0  0  0  0  0  0
    4.1324    2.0796   -2.0133 C   0  0  0  0  0  0  0  0  0  0  0  0
    4.3123    3.2834   -1.3313 C   0  0  0  0  0  0  0  0  0  0  0  0
   -4.6165    0.7821   -0.9059 C   0  0  0  0  0  0  0  0  0  0  0  0
   -3.8147    1.5963    1.2227 C   0  0  0  0  0  0  0  0  0  0  0  0
   -4.8608    1.1429    0.4193 C   0  0  0  0  0  0  0  0  0  0  0  0
   -6.2064    1.0472    0.9623 C   0  0  0  0  0  0  0  0  0  0  0  0
    1.1834   -1.8267    1.7643 H   0  0  0  0  0  0  0  0  0  0  0  0
   -0.5351   -2.9708    0.6072 H   0  0  0  0  0  0  0  0  0  0  0  0
   -0.6946   -0.5116    1.0739 H   0  0  0  0  0  0  0  0  0  0  0  0
    0.7262    0.5143    0.9819 H   0  0  0  0  0  0  0  0  0  0  0  0
   -0.5955   -3.3553   -1.8302 H   0  0  0  0  0  0  0  0  0  0  0  0
    0.8909   -2.4458   -2.0432 H   0  0  0  0  0  0  0  0  0  0  0  0
   -1.7726   -1.3911   -1.0008 H   0  0  0  0  0  0  0  0  0  0  0  0
   -1.0167   -1.0456   -2.5756 H   0  0  0  0  0  0  0  0  0  0  0  0
    2.4969   -1.2602   -0.9257 H   0  0  0  0  0  0  0  0  0  0  0  0
    3.1704   -2.2329    0.3653 H   0  0  0  0  0  0  0  0  0  0  0  0
    1.9712   -4.1572   -0.6648 H   0  0  0  0  0  0  0  0  0  0  0  0
    1.7033   -4.1830    1.0978 H   0  0  0  0  0  0  0  0  0  0  0  0
    4.9992    0.7309    2.7943 H   0  0  0  0  0  0  0  0  0  0  0  0
    3.6245    0.8530    3.8895 H   0  0  0  0  0  0  0  0  0  0  0  0
    4.0977    3.0122    2.7116 H   0  0  0  0  0  0  0  0  0  0  0  0
    2.4531    2.4168    2.4110 H   0  0  0  0  0  0  0  0  0  0  0  0
    3.6556    0.0147   -1.8944 H   0  0  0  0  0  0  0  0  0  0  0  0
   -3.1587    0.5876   -2.4618 H   0  0  0  0  0  0  0  0  0  0  0  0
   -1.7240    2.0412    1.3460 H   0  0  0  0  0  0  0  0  0  0  0  0
    4.2592    4.2856    0.5691 H   0  0  0  0  0  0  0  0  0  0  0  0
    0.5502   -7.2736    0.0089 H   0  0  0  0  0  0  0  0  0  0  0  0
    4.2883    2.0387   -3.0877 H   0  0  0  0  0  0  0  0  0  0  0  0
    4.6003    4.1775   -1.8767 H   0  0  0  0  0  0  0  0  0  0  0  0
   -5.3791    0.4226   -1.5862 H   0  0  0  0  0  0  0  0  0  0  0  0
   -3.9797    1.8824    2.2581 H   0  0  0  0  0  0  0  0  0  0  0  0
   -7.1000    0.3059   -0.8457 H   0  0  0  0  0  0  0  0  0  0  0  0
   -8.1638    0.5205    0.4719 H   0  0  0  0  0  0  0  0  0  0  0  0
  1  2  2  0  0  0  0
  1  3  2  0  0  0  0
  1  7  1  0  0  0  0
  1 20  1  0  0  0  0
  4 18  1  0  0  0  0
  4 54  1  0  0  0  0
  5 18  2  0  0  0  0
  6 33  2  0  0  0  0
  7 12  1  0  0  0  0
  7 14  1  0  0  0  0
  8 17  2  0  0  0  0
  8 22  1  0  0  0  0
  9 33  1  0  0  0  0
  9 59  1  0  0  0  0
  9 60  1  0  0  0  0
 10 11  1  0  0  0  0
 10 12  1  0  0  0  0
 10 15  1  0  0  0  0
 10 34  1  0  0  0  0
 11 13  1  0  0  0  0
 11 16  1  0  0  0  0
 11 35  1  0  0  0  0
 12 36  1  0  0  0  0
 12 37  1  0  0  0  0
 13 14  1  0  0  0  0
 13 38  1  0  0  0  0
 13 39  1  0  0  0  0
 14 40  1  0  0  0  0
 14 41  1  0  0  0  0
 15 17  1  0  0  0  0
 15 42  1  0  0  0  0
 15 43  1  0  0  0  0
 16 18  1  0  0  0  0
 16 44  1  0  0  0  0
 16 45  1  0  0  0  0
 17 19  1  0  0  0  0
 19 21  1  0  0  0  0
 19 24  2  0  0  0  0
 20 25  2  0  0  0  0
 20 26  1  0  0  0  0
 21 23  1  0  0  0  0
 21 27  2  0  0  0  0
 22 23  1  0  0  0  0
 22 46  1  0  0  0  0
 22 47  1  0  0  0  0
 23 48  1  0  0  0  0
 23 49  1  0  0  0  0
 24 28  1  0  0  0  0
 24 50  1  0  0  0  0
 25 30  1  0  0  0  0
 25 51  1  0  0  0  0
 26 31  2  0  0  0  0
 26 52  1  0  0  0  0
 27 29  1  0  0  0  0
 27 53  1  0  0  0  0
 28 29  2  0  0  0  0
 28 55  1  0  0  0  0
 29 56  1  0  0  0  0
 30 32  2  0  0  0  0
 30 57  1  0  0  0  0
 31 32  1  0  0  0  0
 31 58  1  0  0  0  0
 32 33  1  0  0  0  0
M  END
> <PUBCHEM_COMPOUND_CID>
56773963

> <PUBCHEM_CONFORMER_RMSD>
1

> <PUBCHEM_CONFORMER_DIVERSEORDER>
1
23
171
112
169
22
136
37
174
66
172
154
153
54
85
173
130
77
131
45
132
103
110
160
145
129
43
86
170
42
84
76
168
87
40
16
65
11
128
97
100
121
156
106
142
140
32
124
95
137
35
7
92
147
82
133
91
163
148
38
69
96
125
122
144
29
5
150
48
151
28
44
175
107
24
78
72
146
165
55
115
102
20
58
143
104
134
70
155
67
141
105
116
162
34
81
47
159
135
31
120
89
71
114
12
126
176
99
26
149
167
109
94
75
113
52
4
80
152
117
79
119
33
138
157
74
61
53
158
50
64
63
62
73
90
36
17
10
68
127
166
51
108
56
57
59
9
98
161
83
88
118
46
111
164
2
15
39
101
49
8
30
3
41
13
6
27
123
93
25
19
14
60
18
21
139

> <PUBCHEM_MMFF94_PARTIAL_CHARGES>
41
1 1.45
12 0.36
14 0.36
15 0.06
16 0.06
17 0.3
18 0.66
19 0.09
2 -0.65
20 -0.01
21 -0.14
22 0.25
23 0.14
24 -0.15
25 -0.15
26 -0.15
27 -0.15
28 -0.15
29 -0.15
3 -0.65
30 -0.15
31 -0.15
32 0.09
33 0.54
4 -0.65
5 -0.57
50 0.15
51 0.15
52 0.15
53 0.15
54 0.5
55 0.15
56 0.15
57 0.15
58 0.15
59 0.37
6 -0.57
60 0.37
7 -0.85
8 -0.7
9 -0.8

> <PUBCHEM_EFFECTIVE_ROTOR_COUNT>
8.6

> <PUBCHEM_PHARMACOPHORE_FEATURES>
12
1 2 acceptor
1 3 acceptor
1 4 acceptor
1 5 acceptor
1 6 acceptor
1 8 acceptor
1 9 donor
3 4 5 18 anion
6 19 21 24 27 28 29 rings
6 20 25 26 30 31 32 rings
6 7 10 11 12 13 14 rings
6 8 17 19 21 22 23 rings

> <PUBCHEM_HEAVY_ATOM_COUNT>
33

> <PUBCHEM_ATOM_DEF_STEREO_COUNT>
2

> <PUBCHEM_ATOM_UDEF_STEREO_COUNT>
0

> <PUBCHEM_BOND_DEF_STEREO_COUNT>
0

> <PUBCHEM_BOND_UDEF_STEREO_COUNT>
0

> <PUBCHEM_ISOTOPIC_ATOM_COUNT>
0

> <PUBCHEM_COMPONENT_COUNT>
1

> <PUBCHEM_CACTVS_TAUTO_COUNT>
2

> <PUBCHEM_CONFORMER_ID>
03624D4B00000001

> <PUBCHEM_MMFF94_ENERGY>
78.9093

> <PUBCHEM_FEATURE_SELFOVERLAP>
60.999

> <PUBCHEM_SHAPE_FINGERPRINT>
10165383 225 18336559265476343444
10794284 68 17248394790355276219
11070050 100 18272374157059378041
12160290 23 17981301685142120534
12293681 4 16394645464606171175
12788726 201 17835227223085417558
13583140 156 16445282665528505628
14468879 13 16772378737728918388
14790565 3 18337673121893779525
14840074 17 18259989309861756373
150020 26 17977366262511922384
15183329 4 10737283537853617817
15297060 5 18341066197528628984
15419008 42 17752463388666039013
16090146 7 18047720936245297598
19319366 153 18272640234573141963
1979834 28 18261395516482211717
20505436 4 17822577235061295996
21033650 10 17843395439365341966
21049683 271 18050009883690269678
21716022 299 17691997876594374278
22956985 138 18048315544123076251
23559900 14 17756986714634724013
244849 19 17487624259180687312
25222932 49 16588885597202683241
3178227 256 18339084765990980498
4015057 19 17472393484409443917
4616759 239 15956930972517278034
469060 322 16300063752361509284
57527573 199 17559653197022854560
57527585 21 16908885429816047108
59444896 2 17172101847578565935
6442390 28 18411140276758493706
6523845 18 18410857646651865220
6679774 75 18187359909853844202
9658208 31 18199473332266416272

> <PUBCHEM_SHAPE_MULTIPOLES>
638.68
11.6
6.26
2.15
17.84
15.31
0.39
-13.5
4.29
-3.45
-0.43
-1.27
-1.47
-1.29

> <PUBCHEM_SHAPE_SELFOVERLAP>
1360.59

> <PUBCHEM_SHAPE_VOLUME>
354.2

> <PUBCHEM_COORDINATE_TYPE>
2
5
10

$$$$
