40777987
  -OEChem-12032416173D

 66 69  0     1  0  0  0  0  0999 V2000
   -4.0344    0.9278    0.9526 O   0  0  0  0  0  0  0  0  0  0  0  0
   -5.8731    2.2279   -1.0927 O   0  0  0  0  0  0  0  0  0  0  0  0
   -6.2163   -0.4652   -1.5371 O   0  0  0  0  0  0  0  0  0  0  0  0
   -1.8189    2.9027    1.3351 O   0  0  0  0  0  0  0  0  0  0  0  0
   -1.9181   -1.2027    1.6792 O   0  0  0  0  0  0  0  0  0  0  0  0
    0.0246    2.0498    0.2064 N   0  0  0  0  0  0  0  0  0  0  0  0
    2.8719    1.5764   -0.0153 N   0  0  0  0  0  0  0  0  0  0  0  0
   -3.6758   -2.0425    0.4318 N   0  0  0  0  0  0  0  0  0  0  0  0
   -1.5244   -2.6662   -0.1134 N   0  0  0  0  0  0  0  0  0  0  0  0
   -3.7151    1.7884   -0.1647 C   0  0  2  0  0  0  0  0  0  0  0  0
   -4.7002    1.4355   -1.2738 C   0  0  1  0  0  0  0  0  0  0  0  0
   -4.9984   -0.0200   -0.9792 C   0  0  1  0  0  0  0  0  0  0  0  0
   -5.0322   -0.0226    0.5399 C   0  0  1  0  0  0  0  0  0  0  0  0
   -2.2650    1.5312   -0.5513 C   0  0  0  0  0  0  0  0  0  0  0  0
   -4.7268   -1.3805    1.1465 C   0  0  0  0  0  0  0  0  0  0  0  0
   -1.3429    2.2255    0.4208 C   0  0  0  0  0  0  0  0  0  0  0  0
    0.5880    1.2450   -0.8800 C   0  0  0  0  0  0  0  0  0  0  0  0
    0.9821    2.6846    1.1084 C   0  0  0  0  0  0  0  0  0  0  0  0
    2.0301    1.6275   -1.2134 C   0  0  0  0  0  0  0  0  0  0  0  0
    2.2459    1.8452    1.2823 C   0  0  0  0  0  0  0  0  0  0  0  0
    4.2369    1.3156   -0.1060 C   0  0  0  0  0  0  0  0  0  0  0  0
   -2.3147   -1.9060    0.7531 C   0  0  0  0  0  0  0  0  0  0  0  0
    4.9468    1.7011   -1.2433 C   0  0  0  0  0  0  0  0  0  0  0  0
    4.8942    0.6688    0.9405 C   0  0  0  0  0  0  0  0  0  0  0  0
    6.3140    1.4397   -1.3341 C   0  0  0  0  0  0  0  0  0  0  0  0
    6.2614    0.4074    0.8498 C   0  0  0  0  0  0  0  0  0  0  0  0
    6.9712    0.7927   -0.2875 C   0  0  0  0  0  0  0  0  0  0  0  0
   -0.1157   -2.7931   -0.1174 C   0  0  0  0  0  0  0  0  0  0  0  0
    0.5091   -3.6027   -1.0661 C   0  0  0  0  0  0  0  0  0  0  0  0
    0.6487   -2.1088    0.8276 C   0  0  0  0  0  0  0  0  0  0  0  0
    1.8983   -3.7279   -1.0697 C   0  0  0  0  0  0  0  0  0  0  0  0
    2.0378   -2.2339    0.8239 C   0  0  0  0  0  0  0  0  0  0  0  0
    2.6627   -3.0434   -0.1247 C   0  0  0  0  0  0  0  0  0  0  0  0
    4.1480   -3.1773   -0.1286 C   0  0  0  0  0  0  0  0  0  0  0  0
   -3.8709    2.8232    0.1615 H   0  0  0  0  0  0  0  0  0  0  0  0
   -4.3347    1.6083   -2.2901 H   0  0  0  0  0  0  0  0  0  0  0  0
   -4.1855   -0.6192   -1.4005 H   0  0  0  0  0  0  0  0  0  0  0  0
   -5.9971    0.3289    0.9255 H   0  0  0  0  0  0  0  0  0  0  0  0
   -2.0817    1.9612   -1.5422 H   0  0  0  0  0  0  0  0  0  0  0  0
   -2.0329    0.4646   -0.5723 H   0  0  0  0  0  0  0  0  0  0  0  0
   -5.6064   -2.0288    1.0778 H   0  0  0  0  0  0  0  0  0  0  0  0
   -4.4429   -1.2836    2.1998 H   0  0  0  0  0  0  0  0  0  0  0  0
   -0.0240    1.3432   -1.7804 H   0  0  0  0  0  0  0  0  0  0  0  0
    0.5342    0.2024   -0.5629 H   0  0  0  0  0  0  0  0  0  0  0  0
    0.5165    2.8687    2.0825 H   0  0  0  0  0  0  0  0  0  0  0  0
    1.2277    3.6614    0.6736 H   0  0  0  0  0  0  0  0  0  0  0  0
    2.3925    0.9310   -1.9794 H   0  0  0  0  0  0  0  0  0  0  0  0
    2.0599    2.6404   -1.6332 H   0  0  0  0  0  0  0  0  0  0  0  0
    2.9304    2.3962    1.9389 H   0  0  0  0  0  0  0  0  0  0  0  0
    1.9952    0.8958    1.7700 H   0  0  0  0  0  0  0  0  0  0  0  0
   -5.6291    3.1529   -1.2673 H   0  0  0  0  0  0  0  0  0  0  0  0
   -6.1745   -0.3056   -2.4953 H   0  0  0  0  0  0  0  0  0  0  0  0
   -3.9296   -2.6592   -0.3340 H   0  0  0  0  0  0  0  0  0  0  0  0
    4.4679    2.2198   -2.0691 H   0  0  0  0  0  0  0  0  0  0  0  0
    4.3679    0.3438    1.8336 H   0  0  0  0  0  0  0  0  0  0  0  0
   -2.0135   -3.1938   -0.8322 H   0  0  0  0  0  0  0  0  0  0  0  0
    6.8677    1.7424   -2.2180 H   0  0  0  0  0  0  0  0  0  0  0  0
    6.7727   -0.0995    1.6629 H   0  0  0  0  0  0  0  0  0  0  0  0
    8.0357    0.5888   -0.3582 H   0  0  0  0  0  0  0  0  0  0  0  0
   -0.0749   -4.1408   -1.8082 H   0  0  0  0  0  0  0  0  0  0  0  0
    0.2388   -1.4636    1.5919 H   0  0  0  0  0  0  0  0  0  0  0  0
    2.3742   -4.3599   -1.8147 H   0  0  0  0  0  0  0  0  0  0  0  0
    2.6228   -1.6968    1.5655 H   0  0  0  0  0  0  0  0  0  0  0  0
    4.5880   -2.4538   -0.8223 H   0  0  0  0  0  0  0  0  0  0  0  0
    4.5660   -3.0025    0.8687 H   0  0  0  0  0  0  0  0  0  0  0  0
    4.4508   -4.1854   -0.4310 H   0  0  0  0  0  0  0  0  0  0  0  0
  1 10  1  0  0  0  0
  1 13  1  0  0  0  0
  2 11  1  0  0  0  0
  2 51  1  0  0  0  0
  3 12  1  0  0  0  0
  3 52  1  0  0  0  0
  4 16  2  0  0  0  0
  5 22  2  0  0  0  0
  6 16  1  0  0  0  0
  6 17  1  0  0  0  0
  6 18  1  0  0  0  0
  7 19  1  0  0  0  0
  7 20  1  0  0  0  0
  7 21  1  0  0  0  0
  8 15  1  0  0  0  0
  8 22  1  0  0  0  0
  8 53  1  0  0  0  0
  9 22  1  0  0  0  0
  9 28  1  0  0  0  0
  9 56  1  0  0  0  0
 10 11  1  0  0  0  0
 10 14  1  0  0  0  0
 10 35  1  0  0  0  0
 11 12  1  0  0  0  0
 11 36  1  0  0  0  0
 12 13  1  0  0  0  0
 12 37  1  0  0  0  0
 13 15  1  0  0  0  0
 13 38  1  0  0  0  0
 14 16  1  0  0  0  0
 14 39  1  0  0  0  0
 14 40  1  0  0  0  0
 15 41  1  0  0  0  0
 15 42  1  0  0  0  0
 17 19  1  0  0  0  0
 17 43  1  0  0  0  0
 17 44  1  0  0  0  0
 18 20  1  0  0  0  0
 18 45  1  0  0  0  0
 18 46  1  0  0  0  0
 19 47  1  0  0  0  0
 19 48  1  0  0  0  0
 20 49  1  0  0  0  0
 20 50  1  0  0  0  0
 21 23  2  0  0  0  0
 21 24  1  0  0  0  0
 23 25  1  0  0  0  0
 23 54  1  0  0  0  0
 24 26  2  0  0  0  0
 24 55  1  0  0  0  0
 25 27  2  0  0  0  0
 25 57  1  0  0  0  0
 26 27  1  0  0  0  0
 26 58  1  0  0  0  0
 27 59  1  0  0  0  0
 28 29  2  0  0  0  0
 28 30  1  0  0  0  0
 29 31  1  0  0  0  0
 29 60  1  0  0  0  0
 30 32  2  0  0  0  0
 30 61  1  0  0  0  0
 31 33  2  0  0  0  0
 31 62  1  0  0  0  0
 32 33  1  0  0  0  0
 32 63  1  0  0  0  0
 33 34  1  0  0  0  0
 34 64  1  0  0  0  0
 34 65  1  0  0  0  0
 34 66  1  0  0  0  0
M  END
> <PUBCHEM_COMPOUND_CID>
40777987

> <PUBCHEM_CONFORMER_RMSD>
1.2

> <PUBCHEM_CONFORMER_DIVERSEORDER>
2
50
71
42
46
9
92
13
73
87
41
20
3
5
37
56
32
75
80
100
78
25
70
45
81
93
27
72
97
16
12
64
43
63
89
76
48
62
26
35
84
14
59
79
86
47
60
99
90
40
65
31
52
23
98
44
101
8
74
57
55
49
22
69
77
88
7
17
34
94
36
58
51
38
21
15
28
54
24
10
30
82
83
19
67
61
39
53
33
66
91
85
29
4
18
96
68
6
1
11
95
102

> <PUBCHEM_MMFF94_PARTIAL_CHARGES>
47
1 -0.56
10 0.28
11 0.28
12 0.28
13 0.28
14 0.06
15 0.3
16 0.57
17 0.3
18 0.3
19 0.37
2 -0.68
20 0.37
21 0.1
22 0.69
23 -0.15
24 -0.15
25 -0.15
26 -0.15
27 -0.15
28 0.12
29 -0.15
3 -0.68
30 -0.15
31 -0.15
32 -0.15
33 -0.14
34 0.14
4 -0.57
5 -0.57
51 0.4
52 0.4
53 0.37
54 0.15
55 0.15
56 0.37
57 0.15
58 0.15
59 0.15
6 -0.66
60 0.15
61 0.15
62 0.15
63 0.15
7 -0.84
8 -0.73
9 -0.55

> <PUBCHEM_EFFECTIVE_ROTOR_COUNT>
11.2

> <PUBCHEM_PHARMACOPHORE_FEATURES>
14
1 1 acceptor
1 2 acceptor
1 2 donor
1 3 acceptor
1 3 donor
1 4 acceptor
1 5 acceptor
1 7 cation
1 8 donor
1 9 donor
5 1 10 11 12 13 rings
6 21 23 24 25 26 27 rings
6 28 29 30 31 32 33 rings
6 6 7 17 18 19 20 rings

> <PUBCHEM_HEAVY_ATOM_COUNT>
34

> <PUBCHEM_ATOM_DEF_STEREO_COUNT>
4

> <PUBCHEM_ATOM_UDEF_STEREO_COUNT>
0

> <PUBCHEM_BOND_DEF_STEREO_COUNT>
0

> <PUBCHEM_BOND_UDEF_STEREO_COUNT>
0

> <PUBCHEM_ISOTOPIC_ATOM_COUNT>
0

> <PUBCHEM_COMPONENT_COUNT>
1

> <PUBCHEM_CACTVS_TAUTO_COUNT>
3

> <PUBCHEM_CONFORMER_ID>
026E390300000002

> <PUBCHEM_MMFF94_ENERGY>
103.6462

> <PUBCHEM_FEATURE_SELFOVERLAP>
71.11

> <PUBCHEM_SHAPE_FINGERPRINT>
11135926 11 18411700954880177741
11136131 41 18263074441016583178
11200772 71 17901968644734517660
11513181 2 18059577914935834007
11524674 6 18272649073336204293
11578080 2 16879046582644750359
12422481 6 18186513302916086618
12596602 18 13542470864611936212
13111901 51 18267874886675392857
13402501 40 18409731772261488474
14747281 78 17026821959473381589
15183329 4 17531239582592513240
15351339 4 18339354172272788777
15968369 153 18201709631907231034
16067689 134 16683444310114714261
16112460 7 18269848510215510689
18681886 176 18262235642113780768
20028762 73 18131066090809570446
20511986 3 17895749725257896680
20721686 56 18408605842290368603
20764821 26 18340212881895011538
21344244 246 18412538808710839623
21585483 110 18411418414682791446
23559900 14 18409441488645042009
3298306 158 18411416236828137838
3383291 50 18272368728036495474
338550 245 18334018319884490550
373842 8 18337389340899822218
4093350 32 17345768386509599423
4144715 1 18187374246101484082
5085150 59 18411974780772990994
5265222 85 18118978120568125508
59755656 215 18411138039396855342
6287921 2 17912643510147268651

> <PUBCHEM_SHAPE_MULTIPOLES>
650.43
14.64
4.68
1.41
2.82
3.81
0.04
-6.06
3.06
1.5
0.34
-0.3
-0.25
0.56

> <PUBCHEM_SHAPE_SELFOVERLAP>
1381.71

> <PUBCHEM_SHAPE_VOLUME>
360.8

> <PUBCHEM_COORDINATE_TYPE>
2
5
10

$$$$
