75367060
  -OEChem-12032416393D

 51 52  0     1  0  0  0  0  0999 V2000
    0.3679    0.1092   -0.3217 O   0  0  0  0  0  0  0  0  0  0  0  0
   -1.4534   -2.5945    1.1876 O   0  0  0  0  0  0  0  0  0  0  0  0
    2.9260   -0.3204   -1.9024 O   0  0  0  0  0  0  0  0  0  0  0  0
   -3.1962   -0.5959   -0.4989 N   0  0  0  0  0  0  0  0  0  0  0  0
    2.7374   -1.4799    0.1028 N   0  0  0  0  0  0  0  0  0  0  0  0
   -4.0666    0.5262   -0.1972 C   0  0  0  0  0  0  0  0  0  0  0  0
   -1.8980   -0.4366    0.1359 C   0  0  1  0  0  0  0  0  0  0  0  0
   -1.0693   -1.7077    0.1549 C   0  0  1  0  0  0  0  0  0  0  0  0
   -5.2071    0.6732   -1.1972 C   0  0  0  0  0  0  0  0  0  0  0  0
   -4.8101    0.3575    1.1224 C   0  0  0  0  0  0  0  0  0  0  0  0
    0.3271   -1.1440    0.3808 C   0  0  1  0  0  0  0  0  0  0  0  0
   -6.2085    1.5686   -0.4724 C   0  0  0  0  0  0  0  0  0  0  0  0
   -5.9530    1.3642    1.0235 C   0  0  0  0  0  0  0  0  0  0  0  0
   -0.9808    0.5092   -0.6220 C   0  0  0  0  0  0  0  0  0  0  0  0
    1.4313   -2.0537   -0.1276 C   0  0  0  0  0  0  0  0  0  0  0  0
    4.7400    1.1607    0.4170 C   0  0  0  0  0  0  0  0  0  0  0  0
    4.7434   -0.1918   -0.3344 C   0  0  0  0  0  0  0  0  0  0  0  0
    3.3767   -0.6577   -0.8095 C   0  0  0  0  0  0  0  0  0  0  0  0
    4.2016    2.2391   -0.5436 C   0  0  0  0  0  0  0  0  0  0  0  0
    3.8298    1.1150    1.6551 C   0  0  0  0  0  0  0  0  0  0  0  0
    6.1620    1.5590    0.8468 C   0  0  0  0  0  0  0  0  0  0  0  0
   -3.5117    1.4743   -0.1911 H   0  0  0  0  0  0  0  0  0  0  0  0
   -2.0164   -0.0979    1.1745 H   0  0  0  0  0  0  0  0  0  0  0  0
   -1.1329   -2.2345   -0.8054 H   0  0  0  0  0  0  0  0  0  0  0  0
   -5.6725   -0.2978   -1.4104 H   0  0  0  0  0  0  0  0  0  0  0  0
   -4.8812    1.1041   -2.1492 H   0  0  0  0  0  0  0  0  0  0  0  0
   -4.1791    0.5451    1.9967 H   0  0  0  0  0  0  0  0  0  0  0  0
   -5.2260   -0.6536    1.2201 H   0  0  0  0  0  0  0  0  0  0  0  0
   -3.6302   -1.4678   -0.1983 H   0  0  0  0  0  0  0  0  0  0  0  0
    0.4954   -0.9279    1.4441 H   0  0  0  0  0  0  0  0  0  0  0  0
   -7.2382    1.3194   -0.7478 H   0  0  0  0  0  0  0  0  0  0  0  0
   -6.0423    2.6194   -0.7366 H   0  0  0  0  0  0  0  0  0  0  0  0
   -5.6644    2.3164    1.4835 H   0  0  0  0  0  0  0  0  0  0  0  0
   -6.8466    1.0053    1.5441 H   0  0  0  0  0  0  0  0  0  0  0  0
   -1.1062    0.4302   -1.7080 H   0  0  0  0  0  0  0  0  0  0  0  0
   -1.1179    1.5558   -0.3344 H   0  0  0  0  0  0  0  0  0  0  0  0
    1.4046   -3.0209    0.3843 H   0  0  0  0  0  0  0  0  0  0  0  0
    1.3215   -2.2263   -1.2043 H   0  0  0  0  0  0  0  0  0  0  0  0
   -1.3972   -2.1203    2.0344 H   0  0  0  0  0  0  0  0  0  0  0  0
    3.1925   -1.6915    0.9858 H   0  0  0  0  0  0  0  0  0  0  0  0
    5.1807   -0.9685    0.3066 H   0  0  0  0  0  0  0  0  0  0  0  0
    5.3925   -0.1348   -1.2181 H   0  0  0  0  0  0  0  0  0  0  0  0
    3.1498    2.0760   -0.8011 H   0  0  0  0  0  0  0  0  0  0  0  0
    4.7793    2.2675   -1.4744 H   0  0  0  0  0  0  0  0  0  0  0  0
    4.2655    3.2341   -0.0873 H   0  0  0  0  0  0  0  0  0  0  0  0
    2.7782    0.9664    1.3897 H   0  0  0  0  0  0  0  0  0  0  0  0
    3.8865    2.0540    2.2180 H   0  0  0  0  0  0  0  0  0  0  0  0
    4.1281    0.3064    2.3315 H   0  0  0  0  0  0  0  0  0  0  0  0
    6.5830    0.8183    1.5356 H   0  0  0  0  0  0  0  0  0  0  0  0
    6.8306    1.6273   -0.0186 H   0  0  0  0  0  0  0  0  0  0  0  0
    6.1706    2.5304    1.3537 H   0  0  0  0  0  0  0  0  0  0  0  0
  1 11  1  0  0  0  0
  1 14  1  0  0  0  0
  2  8  1  0  0  0  0
  2 39  1  0  0  0  0
  3 18  2  0  0  0  0
  4  6  1  0  0  0  0
  4  7  1  0  0  0  0
  4 29  1  0  0  0  0
  5 15  1  0  0  0  0
  5 18  1  0  0  0  0
  5 40  1  0  0  0  0
  6  9  1  0  0  0  0
  6 10  1  0  0  0  0
  6 22  1  0  0  0  0
  7  8  1  0  0  0  0
  7 14  1  0  0  0  0
  7 23  1  0  0  0  0
  8 11  1  0  0  0  0
  8 24  1  0  0  0  0
  9 12  1  0  0  0  0
  9 25  1  0  0  0  0
  9 26  1  0  0  0  0
 10 13  1  0  0  0  0
 10 27  1  0  0  0  0
 10 28  1  0  0  0  0
 11 15  1  0  0  0  0
 11 30  1  0  0  0  0
 12 13  1  0  0  0  0
 12 31  1  0  0  0  0
 12 32  1  0  0  0  0
 13 33  1  0  0  0  0
 13 34  1  0  0  0  0
 14 35  1  0  0  0  0
 14 36  1  0  0  0  0
 15 37  1  0  0  0  0
 15 38  1  0  0  0  0
 16 17  1  0  0  0  0
 16 19  1  0  0  0  0
 16 20  1  0  0  0  0
 16 21  1  0  0  0  0
 17 18  1  0  0  0  0
 17 41  1  0  0  0  0
 17 42  1  0  0  0  0
 19 43  1  0  0  0  0
 19 44  1  0  0  0  0
 19 45  1  0  0  0  0
 20 46  1  0  0  0  0
 20 47  1  0  0  0  0
 20 48  1  0  0  0  0
 21 49  1  0  0  0  0
 21 50  1  0  0  0  0
 21 51  1  0  0  0  0
M  END
> <PUBCHEM_COMPOUND_CID>
75367060

> <PUBCHEM_CONFORMER_RMSD>
1

> <PUBCHEM_CONFORMER_DIVERSEORDER>
1
91
8
7
106
55
34
123
2
103
86
116
115
101
42
66
19
52
99
87
36
100
128
70
38
105
88
92
40
80
71
63
20
14
68
89
72
83
97
30
125
46
129
31
15
44
50
121
4
82
112
64
117
107
133
51
122
13
18
79
127
98
25
93
62
132
48
60
114
49
69
96
43
35
131
108
113
39
28
47
94
54
126
124
84
75
130
16
23
3
111
21
90
10
65
119
109
73
58
26
11
22
45
12
104
102
118
134
95
74
17
59
24
61
29
6
56
76
67
120
110
27
41
53
85
37
78
9
81
32
77
33
5
57

> <PUBCHEM_MMFF94_PARTIAL_CHARGES>
16
1 -0.56
11 0.28
14 0.28
15 0.3
17 0.06
18 0.57
2 -0.68
29 0.36
3 -0.57
39 0.4
4 -0.9
40 0.37
5 -0.73
6 0.27
7 0.27
8 0.28

> <PUBCHEM_EFFECTIVE_ROTOR_COUNT>
9

> <PUBCHEM_PHARMACOPHORE_FEATURES>
10
1 1 acceptor
1 2 acceptor
1 2 donor
1 3 acceptor
1 4 cation
1 4 donor
1 5 donor
4 16 19 20 21 hydrophobe
5 1 7 8 11 14 rings
5 6 9 10 12 13 rings

> <PUBCHEM_HEAVY_ATOM_COUNT>
21

> <PUBCHEM_ATOM_DEF_STEREO_COUNT>
3

> <PUBCHEM_ATOM_UDEF_STEREO_COUNT>
0

> <PUBCHEM_BOND_DEF_STEREO_COUNT>
0

> <PUBCHEM_BOND_UDEF_STEREO_COUNT>
0

> <PUBCHEM_ISOTOPIC_ATOM_COUNT>
0

> <PUBCHEM_COMPONENT_COUNT>
1

> <PUBCHEM_CACTVS_TAUTO_COUNT>
2

> <PUBCHEM_CONFORMER_ID>
047E029400000001

> <PUBCHEM_MMFF94_ENERGY>
37.9385

> <PUBCHEM_FEATURE_SELFOVERLAP>
50.746

> <PUBCHEM_SHAPE_FINGERPRINT>
10 15 17748835137337549033
10692045 39 17968366841517035490
11089746 13 18131631162376673626
11595378 159 16878214273448140517
117890 112 18343864424461634764
12236239 1 18059574642840069111
12403259 118 16877946031824305631
12403259 415 18115021901178233774
12633257 1 18114731750763606900
12969540 114 18341601604009690839
13150687 139 9798827377314598090
13533116 47 18263643970527228322
13551218 46 11241970373928828169
13668630 136 10303803286047483581
13685833 64 9583514339176490037
13955234 65 18191024504061338155
14123256 34 11314298417989290840
1420 369 8502653709941245571
14211702 104 10737873979698152225
14251740 57 13118275937294644048
14251764 30 12396840183407782136
14251764 75 17972891538066611180
14366163 111 17632858611694167130
14528608 73 17703784825578929453
15183329 4 16200434658880274921
15348495 7 17458350774727500401
16079462 125 17822566111016703237
17349148 13 10881687875553520309
17834072 33 17131827677387728461
17870717 6 13542459861527728637
17959699 21 18131354093936279577
17980427 23 17896036723293096694
18222031 100 10231750068127296263
18785283 64 17532389731995622565
193927 3 10231752310168783583
20645477 56 18113335310339106367
20715895 44 18410291419601707184
21033648 29 17749387014859786085
21150785 3 16415471675658139229
21315763 76 18343298180073554024
21452121 103 18260261906781927754
21618674 25 18411418410345775446
22224240 67 18186526489003606555
22289505 5 17775287158103470896
23559900 14 18410301298411584158
25122255 55 9367050191209303765
2767999 5 18409163312002332365
2838139 119 17989483021999027209
2916195 48 18409730660281534193
293599 30 18335704918860326111
3004659 81 15625668193907852174
3014063 24 11170204189422294361
3472631 163 18343300392102413836
34797466 226 17561086886954251637
351380 3 7925915880713287264
3680242 22 18259980466476205160
4340502 62 18040157292699327187
465052 167 10809343326187226384
474 4 18412263956124961872
495365 180 18273491261037189574
5104073 3 18259704497247038067
53917941 68 18335129917529775055
543368 44 18131630084999512209
59682541 52 16486969549494833341
960060 61 14908183036232125724

> <PUBCHEM_SHAPE_MULTIPOLES>
404.6
15.67
2.19
1.26
6.88
0.49
0.02
-11.64
1.08
-1.03
0.39
-0.11
-0.15
0.81

> <PUBCHEM_SHAPE_SELFOVERLAP>
811.416

> <PUBCHEM_SHAPE_VOLUME>
241.5

> <PUBCHEM_COORDINATE_TYPE>
2
5
10

$$$$
