71693248
  -OEChem-12032416233D

 45 47  0     1  0  0  0  0  0999 V2000
   -4.3286   -1.3284   -0.0148 O   0  0  0  0  0  0  0  0  0  0  0  0
   -3.8383    2.6542   -1.1494 O   0  0  0  0  0  0  0  0  0  0  0  0
   -7.6570    0.0047    0.0949 O   0  0  0  0  0  0  0  0  0  0  0  0
    2.8893   -0.8872   -1.5232 O   0  0  0  0  0  0  0  0  0  0  0  0
   -5.6414    1.0619    0.3903 N   0  0  0  0  0  0  0  0  0  0  0  0
    1.9200   -1.1306    0.6067 N   0  0  0  0  0  0  0  0  0  0  0  0
   -4.1902    1.0007    0.5389 C   0  0  1  0  0  0  0  0  0  0  0  0
   -3.6110   -0.1283   -0.3279 C   0  0  1  0  0  0  0  0  0  0  0  0
   -2.1421   -0.3939   -0.0793 C   0  0  0  0  0  0  0  0  0  0  0  0
   -3.5809    2.3621    0.2116 C   0  0  0  0  0  0  0  0  0  0  0  0
   -5.6779   -1.2465   -0.4242 C   0  0  0  0  0  0  0  0  0  0  0  0
   -6.4271   -0.0214    0.0638 C   0  0  0  0  0  0  0  0  0  0  0  0
   -1.6955   -0.6961    1.2071 C   0  0  0  0  0  0  0  0  0  0  0  0
   -1.2347   -0.3369   -1.1373 C   0  0  0  0  0  0  0  0  0  0  0  0
    0.5658   -0.8847    0.3777 C   0  0  0  0  0  0  0  0  0  0  0  0
   -0.3415   -0.9416    1.4355 C   0  0  0  0  0  0  0  0  0  0  0  0
    0.1192   -0.5824   -0.9088 C   0  0  0  0  0  0  0  0  0  0  0  0
    2.9744   -1.1189   -0.3215 C   0  0  0  0  0  0  0  0  0  0  0  0
    4.2991   -1.4418    0.3517 C   0  0  0  0  0  0  0  0  0  0  0  0
    5.3208   -0.3426    0.2217 C   0  0  0  0  0  0  0  0  0  0  0  0
    6.1950   -0.3272   -0.8651 C   0  0  0  0  0  0  0  0  0  0  0  0
    5.3922    0.6605    1.1883 C   0  0  0  0  0  0  0  0  0  0  0  0
    7.1407    0.6912   -0.9854 C   0  0  0  0  0  0  0  0  0  0  0  0
    6.3377    1.6790    1.0680 C   0  0  0  0  0  0  0  0  0  0  0  0
    7.2120    1.6942   -0.0189 C   0  0  0  0  0  0  0  0  0  0  0  0
   -4.0354    0.7893    1.6035 H   0  0  0  0  0  0  0  0  0  0  0  0
   -3.7646    0.0844   -1.3950 H   0  0  0  0  0  0  0  0  0  0  0  0
   -6.1167    1.8973    0.7189 H   0  0  0  0  0  0  0  0  0  0  0  0
   -2.4999    2.3735    0.3802 H   0  0  0  0  0  0  0  0  0  0  0  0
   -4.0342    3.1487    0.8245 H   0  0  0  0  0  0  0  0  0  0  0  0
   -6.1925   -2.1340   -0.0424 H   0  0  0  0  0  0  0  0  0  0  0  0
   -5.7295   -1.2711   -1.5187 H   0  0  0  0  0  0  0  0  0  0  0  0
   -2.3866   -0.7577    2.0430 H   0  0  0  0  0  0  0  0  0  0  0  0
   -1.5688   -0.1019   -2.1444 H   0  0  0  0  0  0  0  0  0  0  0  0
   -0.0080   -1.1786    2.4427 H   0  0  0  0  0  0  0  0  0  0  0  0
    0.7593   -0.5195   -1.7775 H   0  0  0  0  0  0  0  0  0  0  0  0
   -3.4435    3.5229   -1.3361 H   0  0  0  0  0  0  0  0  0  0  0  0
    2.1551   -1.3404    1.5741 H   0  0  0  0  0  0  0  0  0  0  0  0
    4.6800   -2.3628   -0.1086 H   0  0  0  0  0  0  0  0  0  0  0  0
    4.1656   -1.6870    1.4122 H   0  0  0  0  0  0  0  0  0  0  0  0
    6.1482   -1.1020   -1.6258 H   0  0  0  0  0  0  0  0  0  0  0  0
    4.7151    0.6601    2.0383 H   0  0  0  0  0  0  0  0  0  0  0  0
    7.8210    0.7034   -1.8319 H   0  0  0  0  0  0  0  0  0  0  0  0
    6.3930    2.4605    1.8202 H   0  0  0  0  0  0  0  0  0  0  0  0
    7.9480    2.4873   -0.1126 H   0  0  0  0  0  0  0  0  0  0  0  0
  1  8  1  0  0  0  0
  1 11  1  0  0  0  0
  2 10  1  0  0  0  0
  2 37  1  0  0  0  0
  3 12  2  0  0  0  0
  4 18  2  0  0  0  0
  5  7  1  0  0  0  0
  5 12  1  0  0  0  0
  5 28  1  0  0  0  0
  6 15  1  0  0  0  0
  6 18  1  0  0  0  0
  6 38  1  0  0  0  0
  7  8  1  0  0  0  0
  7 10  1  0  0  0  0
  7 26  1  0  0  0  0
  8  9  1  0  0  0  0
  8 27  1  0  0  0  0
  9 13  2  0  0  0  0
  9 14  1  0  0  0  0
 10 29  1  0  0  0  0
 10 30  1  0  0  0  0
 11 12  1  0  0  0  0
 11 31  1  0  0  0  0
 11 32  1  0  0  0  0
 13 16  1  0  0  0  0
 13 33  1  0  0  0  0
 14 17  2  0  0  0  0
 14 34  1  0  0  0  0
 15 16  2  0  0  0  0
 15 17  1  0  0  0  0
 16 35  1  0  0  0  0
 17 36  1  0  0  0  0
 18 19  1  0  0  0  0
 19 20  1  0  0  0  0
 19 39  1  0  0  0  0
 19 40  1  0  0  0  0
 20 21  2  0  0  0  0
 20 22  1  0  0  0  0
 21 23  1  0  0  0  0
 21 41  1  0  0  0  0
 22 24  2  0  0  0  0
 22 42  1  0  0  0  0
 23 25  2  0  0  0  0
 23 43  1  0  0  0  0
 24 25  1  0  0  0  0
 24 44  1  0  0  0  0
 25 45  1  0  0  0  0
M  END
> <PUBCHEM_COMPOUND_CID>
71693248

> <PUBCHEM_CONFORMER_RMSD>
0.8

> <PUBCHEM_CONFORMER_DIVERSEORDER>
1
27
23
59
62
44
20
15
58
55
26
4
10
6
43
39
50
40
42
63
28
48
38
9
45
32
14
54
31
61
22
33
19
25
41
16
52
36
17
12
34
24
51
53
13
35
57
11
30
21
29
56
7
8
47
3
49
2
18
46
37
60
5

> <PUBCHEM_MMFF94_PARTIAL_CHARGES>
37
1 -0.56
10 0.28
11 0.34
12 0.57
13 -0.15
14 -0.15
15 0.12
16 -0.15
17 -0.15
18 0.57
19 0.2
2 -0.68
20 -0.14
21 -0.15
22 -0.15
23 -0.15
24 -0.15
25 -0.15
28 0.37
3 -0.57
33 0.15
34 0.15
35 0.15
36 0.15
37 0.4
38 0.37
4 -0.57
41 0.15
42 0.15
43 0.15
44 0.15
45 0.15
5 -0.73
6 -0.55
7 0.3
8 0.42
9 -0.14

> <PUBCHEM_EFFECTIVE_ROTOR_COUNT>
7

> <PUBCHEM_PHARMACOPHORE_FEATURES>
10
1 1 acceptor
1 2 acceptor
1 2 donor
1 3 acceptor
1 4 acceptor
1 5 donor
1 6 donor
6 1 5 7 8 11 12 rings
6 20 21 22 23 24 25 rings
6 9 13 14 15 16 17 rings

> <PUBCHEM_HEAVY_ATOM_COUNT>
25

> <PUBCHEM_ATOM_DEF_STEREO_COUNT>
2

> <PUBCHEM_ATOM_UDEF_STEREO_COUNT>
0

> <PUBCHEM_BOND_DEF_STEREO_COUNT>
0

> <PUBCHEM_BOND_UDEF_STEREO_COUNT>
0

> <PUBCHEM_ISOTOPIC_ATOM_COUNT>
0

> <PUBCHEM_COMPONENT_COUNT>
1

> <PUBCHEM_CACTVS_TAUTO_COUNT>
9

> <PUBCHEM_CONFORMER_ID>
0445F3C000000001

> <PUBCHEM_MMFF94_ENERGY>
71.075

> <PUBCHEM_FEATURE_SELFOVERLAP>
50.75

> <PUBCHEM_SHAPE_FINGERPRINT>
10 15 18187083957555319729
10087517 78 18187081732878811725
10299344 5 10592044661267100658
10595046 47 18410571756253815963
10670039 82 16415211048795243928
11315181 36 18342460344830678635
11524674 6 12251904806464493401
11719270 70 12829484840314454360
11796584 16 8646766699236874468
11991303 11 16702014322666708772
12236239 1 18040715814889586811
12596602 18 18187362086710380416
13533116 47 18041838412114610194
13540713 5 15576708229888033430
14251764 18 16588027947783390066
14528608 73 17988924488062861018
14556957 393 16271659948364941872
14840074 17 14548737292092163933
14849402 71 18261117429960950068
14933364 13 18201721756056354850
15183329 4 16272214093909133720
15348495 7 11963686537877751462
15419008 145 18262786373607711200
15537594 2 13830129464504240341
16994733 274 18334573521137174713
17857418 61 10881403132133259560
18335252 98 18202569492633729655
19377110 9 17385720275122875338
2026 5 12246585318630191508
20281389 69 18335136471427770304
21033648 29 18339353180689159688
21130935 74 17748825181171204859
21150785 3 17561084713094196446
21267235 1 13183018536618814651
21424621 283 18188213104678990953
21641784 216 16200164174719412328
221357 26 14692575421019011666
22224240 67 17385723608002069355
23035841 295 11024108741695901487
23522609 53 11958898246570967922
23559900 14 18340199791251223619
23569914 2 17688818226358936332
23569943 247 12031250380543337692
23576562 1 16629662072983630177
25122255 55 8574425461205858840
2916195 48 18334573521236985152
29717793 49 11312053262526747090
34797466 226 17917716790295007446
4073 2 18334861649060814402
4098825 35 18059862705600604390
4325135 7 18411982472674211878
44317340 157 17060333076727733048
5104073 3 15720219588257971992
5265222 85 17846213422831892103
5758199 1 18186522103008781339
59682541 35 18041005063872790937
59682541 52 17274837839931133716
59755656 215 10303820877515927692

> <PUBCHEM_SHAPE_MULTIPOLES>
481.05
21.58
1.87
1.19
8.58
1.17
0
7.59
-0.91
-0.35
-0.06
0.81
-0.01
0.59

> <PUBCHEM_SHAPE_SELFOVERLAP>
1026.999

> <PUBCHEM_SHAPE_VOLUME>
263.8

> <PUBCHEM_COORDINATE_TYPE>
2
5
10

$$$$
