38028073
  -OEChem-12032416243D

 64 66  0     1  0  0  0  0  0999 V2000
    8.3887    0.4263   -0.7091 Cl  0  0  0  0  0  0  0  0  0  0  0  0
    2.3365    1.4381    0.6193 S   0  0  0  0  0  0  0  0  0  0  0  0
   -4.6493   -1.4180   -0.3250 O   0  0  0  0  0  0  0  0  0  0  0  0
   -5.8001    3.2996    0.6127 O   0  0  0  0  0  0  0  0  0  0  0  0
    2.1500    1.2283    2.0423 O   0  0  0  0  0  0  0  0  0  0  0  0
    1.9769    2.7070    0.0158 O   0  0  0  0  0  0  0  0  0  0  0  0
    1.5777    0.1770   -0.2388 N   0  0  0  0  0  0  0  0  0  0  0  0
   -4.7500    0.8993   -0.4249 N   0  0  0  0  0  0  0  0  0  0  0  0
   -0.4931   -1.7526    0.7451 C   0  0  1  0  0  0  0  0  0  0  0  0
    0.6710   -2.0960   -0.2177 C   0  0  1  0  0  0  0  0  0  0  0  0
   -1.8203   -2.3000    0.1984 C   0  0  0  0  0  0  0  0  0  0  0  0
   -2.1550   -1.7327   -1.1941 C   0  0  2  0  0  0  0  0  0  0  0  0
   -0.2466   -2.3016    2.1539 C   0  0  0  0  0  0  0  0  0  0  0  0
   -0.9629   -1.7916   -2.1276 C   0  0  0  0  0  0  0  0  0  0  0  0
    0.2908   -1.9680   -1.6742 C   0  0  0  0  0  0  0  0  0  0  0  0
    1.9000   -1.2254    0.0677 C   0  0  0  0  0  0  0  0  0  0  0  0
   -2.7018   -0.3045   -1.0917 C   0  0  0  0  0  0  0  0  0  0  0  0
   -1.0284   -1.4929    3.1843 C   0  0  0  0  0  0  0  0  0  0  0  0
   -0.6257   -3.7773    2.2236 C   0  0  0  0  0  0  0  0  0  0  0  0
   -1.2501   -1.6887   -3.5997 C   0  0  0  0  0  0  0  0  0  0  0  0
   -4.1202   -0.3336   -0.5808 C   0  0  0  0  0  0  0  0  0  0  0  0
   -6.1250    0.9618    0.0703 C   0  0  0  0  0  0  0  0  0  0  0  0
   -4.1989    2.1947   -0.8371 C   0  0  0  0  0  0  0  0  0  0  0  0
   -6.2586    2.0473    1.1290 C   0  0  0  0  0  0  0  0  0  0  0  0
   -4.4166    3.2326    0.2569 C   0  0  0  0  0  0  0  0  0  0  0  0
    4.0406    1.1532    0.2452 C   0  0  0  0  0  0  0  0  0  0  0  0
    4.6198    1.7561   -0.8713 C   0  0  0  0  0  0  0  0  0  0  0  0
    4.8060    0.3257    1.0669 C   0  0  0  0  0  0  0  0  0  0  0  0
    5.9644    1.5314   -1.1665 C   0  0  0  0  0  0  0  0  0  0  0  0
    6.1506    0.1009    0.7718 C   0  0  0  0  0  0  0  0  0  0  0  0
    6.7298    0.7037   -0.3448 C   0  0  0  0  0  0  0  0  0  0  0  0
   -0.5775   -0.6616    0.8172 H   0  0  0  0  0  0  0  0  0  0  0  0
    0.9715   -3.1410   -0.0711 H   0  0  0  0  0  0  0  0  0  0  0  0
   -2.6372   -2.1114    0.9009 H   0  0  0  0  0  0  0  0  0  0  0  0
   -1.7648   -3.3886    0.0677 H   0  0  0  0  0  0  0  0  0  0  0  0
   -2.9197   -2.3920   -1.6291 H   0  0  0  0  0  0  0  0  0  0  0  0
    0.8113   -2.2118    2.4207 H   0  0  0  0  0  0  0  0  0  0  0  0
    1.1034   -2.0497   -2.3937 H   0  0  0  0  0  0  0  0  0  0  0  0
    2.7361   -1.5353   -0.5706 H   0  0  0  0  0  0  0  0  0  0  0  0
    2.2239   -1.3325    1.1053 H   0  0  0  0  0  0  0  0  0  0  0  0
   -2.7266    0.1685   -2.0795 H   0  0  0  0  0  0  0  0  0  0  0  0
   -2.0873    0.3150   -0.4317 H   0  0  0  0  0  0  0  0  0  0  0  0
   -2.1097   -1.5497    3.0258 H   0  0  0  0  0  0  0  0  0  0  0  0
   -0.7363   -0.4375    3.1569 H   0  0  0  0  0  0  0  0  0  0  0  0
   -0.8247   -1.8634    4.1951 H   0  0  0  0  0  0  0  0  0  0  0  0
   -1.7078   -3.9450    2.2119 H   0  0  0  0  0  0  0  0  0  0  0  0
   -0.2708   -4.1950    3.1740 H   0  0  0  0  0  0  0  0  0  0  0  0
   -0.1593   -4.3716    1.4324 H   0  0  0  0  0  0  0  0  0  0  0  0
   -1.9801   -2.4480   -3.8987 H   0  0  0  0  0  0  0  0  0  0  0  0
   -0.3506   -1.8442   -4.2053 H   0  0  0  0  0  0  0  0  0  0  0  0
   -1.6485   -0.7026   -3.8545 H   0  0  0  0  0  0  0  0  0  0  0  0
    1.2844    0.3747   -1.2034 H   0  0  0  0  0  0  0  0  0  0  0  0
   -6.4442   -0.0046    0.4718 H   0  0  0  0  0  0  0  0  0  0  0  0
   -6.7566    1.1966   -0.7946 H   0  0  0  0  0  0  0  0  0  0  0  0
   -4.7437    2.4845   -1.7434 H   0  0  0  0  0  0  0  0  0  0  0  0
   -3.1389    2.1378   -1.0883 H   0  0  0  0  0  0  0  0  0  0  0  0
   -7.3079    2.1656    1.4165 H   0  0  0  0  0  0  0  0  0  0  0  0
   -5.6887    1.7980    2.0319 H   0  0  0  0  0  0  0  0  0  0  0  0
   -3.8248    3.0002    1.1503 H   0  0  0  0  0  0  0  0  0  0  0  0
   -4.1128    4.2222   -0.0983 H   0  0  0  0  0  0  0  0  0  0  0  0
    4.0406    2.3982   -1.5287 H   0  0  0  0  0  0  0  0  0  0  0  0
    4.3751   -0.1558    1.9400 H   0  0  0  0  0  0  0  0  0  0  0  0
    6.4021    2.0064   -2.0408 H   0  0  0  0  0  0  0  0  0  0  0  0
    6.7348   -0.5469    1.4204 H   0  0  0  0  0  0  0  0  0  0  0  0
  1 31  1  0  0  0  0
  2  5  2  0  0  0  0
  2  6  2  0  0  0  0
  2  7  1  0  0  0  0
  2 26  1  0  0  0  0
  3 21  2  0  0  0  0
  4 24  1  0  0  0  0
  4 25  1  0  0  0  0
  7 16  1  0  0  0  0
  7 52  1  0  0  0  0
  8 21  1  0  0  0  0
  8 22  1  0  0  0  0
  8 23  1  0  0  0  0
  9 10  1  0  0  0  0
  9 11  1  0  0  0  0
  9 13  1  0  0  0  0
  9 32  1  0  0  0  0
 10 15  1  0  0  0  0
 10 16  1  0  0  0  0
 10 33  1  0  0  0  0
 11 12  1  0  0  0  0
 11 34  1  0  0  0  0
 11 35  1  0  0  0  0
 12 14  1  0  0  0  0
 12 17  1  0  0  0  0
 12 36  1  0  0  0  0
 13 18  1  0  0  0  0
 13 19  1  0  0  0  0
 13 37  1  0  0  0  0
 14 15  2  0  0  0  0
 14 20  1  0  0  0  0
 15 38  1  0  0  0  0
 16 39  1  0  0  0  0
 16 40  1  0  0  0  0
 17 21  1  0  0  0  0
 17 41  1  0  0  0  0
 17 42  1  0  0  0  0
 18 43  1  0  0  0  0
 18 44  1  0  0  0  0
 18 45  1  0  0  0  0
 19 46  1  0  0  0  0
 19 47  1  0  0  0  0
 19 48  1  0  0  0  0
 20 49  1  0  0  0  0
 20 50  1  0  0  0  0
 20 51  1  0  0  0  0
 22 24  1  0  0  0  0
 22 53  1  0  0  0  0
 22 54  1  0  0  0  0
 23 25  1  0  0  0  0
 23 55  1  0  0  0  0
 23 56  1  0  0  0  0
 24 57  1  0  0  0  0
 24 58  1  0  0  0  0
 25 59  1  0  0  0  0
 25 60  1  0  0  0  0
 26 27  2  0  0  0  0
 26 28  1  0  0  0  0
 27 29  1  0  0  0  0
 27 61  1  0  0  0  0
 28 30  2  0  0  0  0
 28 62  1  0  0  0  0
 29 31  2  0  0  0  0
 29 63  1  0  0  0  0
 30 31  1  0  0  0  0
 30 64  1  0  0  0  0
M  END
> <PUBCHEM_COMPOUND_CID>
38028073

> <PUBCHEM_CONFORMER_RMSD>
1.4

> <PUBCHEM_CONFORMER_DIVERSEORDER>
1
77
87
14
70
22
52
32
53
57
72
5
61
63
29
91
45
64
81
26
40
54
44
79
34
82
3
20
2
42
90
49
89
47
71
7
27
24
25
41
15
13
84
65
11
17
83
6
66
16
85
74
88
21
60
59
68
37
43
80
18
75
67
31
33
12
55
69
39
19
23
35
8
50
58
36
78
30
62
28
51
86
76
10
73
38
48
4
9
46
56

> <PUBCHEM_MMFF94_PARTIAL_CHARGES>
32
1 -0.18
10 0.14
12 0.14
14 -0.28
15 -0.29
16 0.36
17 0.06
2 1.45
20 0.14
21 0.57
22 0.3
23 0.3
24 0.28
25 0.28
26 -0.01
27 -0.15
28 -0.15
29 -0.15
3 -0.57
30 -0.15
31 0.18
38 0.15
4 -0.56
5 -0.65
52 0.42
6 -0.65
61 0.15
62 0.15
63 0.15
64 0.15
7 -0.91
8 -0.66

> <PUBCHEM_EFFECTIVE_ROTOR_COUNT>
10

> <PUBCHEM_PHARMACOPHORE_FEATURES>
9
1 3 acceptor
1 4 acceptor
1 5 acceptor
1 6 acceptor
1 7 donor
3 13 18 19 hydrophobe
6 26 27 28 29 30 31 rings
6 4 8 22 23 24 25 rings
6 9 10 11 12 14 15 rings

> <PUBCHEM_HEAVY_ATOM_COUNT>
31

> <PUBCHEM_ATOM_DEF_STEREO_COUNT>
3

> <PUBCHEM_ATOM_UDEF_STEREO_COUNT>
0

> <PUBCHEM_BOND_DEF_STEREO_COUNT>
0

> <PUBCHEM_BOND_UDEF_STEREO_COUNT>
0

> <PUBCHEM_ISOTOPIC_ATOM_COUNT>
0

> <PUBCHEM_COMPONENT_COUNT>
1

> <PUBCHEM_CACTVS_TAUTO_COUNT>
1

> <PUBCHEM_CONFORMER_ID>
0244432900000001

> <PUBCHEM_MMFF94_ENERGY>
56.8989

> <PUBCHEM_FEATURE_SELFOVERLAP>
45.69

> <PUBCHEM_SHAPE_FINGERPRINT>
10483366 6 17346600738038807729
10577160 103 13973956602652488762
10670039 82 18342731936323107541
10674148 151 18411416212287520432
10985338 8 17699842917727605953
11578080 2 17895209809029571618
11763715 3 17255413037553095886
1200032 147 18058176033826739273
12107698 1 18268145538492143007
14020679 6 18186522128704498088
15183329 4 18333724737200033868
15297060 5 17418095369813581353
15392192 29 18041828525611793106
15604295 49 18128812135857122424
16628084 112 17971467400320404818
17980427 26 18190729861010361951
19303781 99 9870877158148156617
19304152 47 17676771968506359453
19438510 23 18340774745548417003
20511986 3 16845001425515278910
21304303 282 15697463051516047739
21315759 148 14201666517141703384
21458453 9 12974183898855454820
21756936 100 18410849992814486631
21859007 373 17917417744865922192
22122407 14 18335429023019915192
23559900 14 15553876841014776034
244849 19 18192459431313075683
2838139 119 18201431502024189989
3411729 13 18267586797870630061
38570 142 18334577919130580514
392239 28 18041853925673275995
4280585 95 10879989155657917543
4394409 98 17132114641406704662
508180 173 17989488545701309112
59755656 520 18113333132838224882
6328613 192 18187929538512688436
6376802 137 17608382551675852187
7288768 16 18113337518284553971
7808743 9 18272081678904066335

> <PUBCHEM_SHAPE_MULTIPOLES>
610.25
16.83
3.83
2.43
16.97
0.05
-0.27
16.22
-0.86
-4.82
1.24
-1.03
-2.21
-1.22

> <PUBCHEM_SHAPE_SELFOVERLAP>
1241.104

> <PUBCHEM_SHAPE_VOLUME>
356.5

> <PUBCHEM_COORDINATE_TYPE>
2
5
10

$$$$
