26744604
  -OEChem-12032416283D

 42 44  0     1  0  0  0  0  0999 V2000
   -1.6918   -0.3377   -2.6125 Cl  0  0  0  0  0  0  0  0  0  0  0  0
   -5.3778   -2.1912    0.3107 F   0  0  0  0  0  0  0  0  0  0  0  0
    5.0258   -0.7066   -1.9400 O   0  0  0  0  0  0  0  0  0  0  0  0
    1.1783    2.0724    1.4461 O   0  0  0  0  0  0  0  0  0  0  0  0
    2.9536   -0.8709    0.4769 N   0  0  2  0  0  0  0  0  0  0  0  0
    0.5519    1.0595   -0.4508 N   0  0  0  0  0  0  0  0  0  0  0  0
   -0.1263    2.5095    1.1837 N   0  0  0  0  0  0  0  0  0  0  0  0
    2.8891    0.5992    0.4899 C   0  0  1  0  0  0  0  0  0  0  0  0
    3.7991    0.9515   -0.6957 C   0  0  0  0  0  0  0  0  0  0  0  0
    3.7138   -0.2416   -1.6507 C   0  0  2  0  0  0  0  0  0  0  0  0
    2.9126   -1.3109   -0.9153 C   0  0  0  0  0  0  0  0  0  0  0  0
    2.0211   -1.5722    1.3397 C   0  0  0  0  0  0  0  0  0  0  0  0
    1.5008    1.2226    0.4361 C   0  0  0  0  0  0  0  0  0  0  0  0
    2.1150   -1.0373    2.7659 C   0  0  0  0  0  0  0  0  0  0  0  0
    2.3152   -3.0684    1.2952 C   0  0  0  0  0  0  0  0  0  0  0  0
   -0.4261    1.8687    0.0501 C   0  0  0  0  0  0  0  0  0  0  0  0
   -1.7262    2.0260   -0.6114 C   0  0  0  0  0  0  0  0  0  0  0  0
   -2.7001    0.8730   -0.3892 C   0  0  0  0  0  0  0  0  0  0  0  0
   -2.7425   -0.2255   -1.2476 C   0  0  0  0  0  0  0  0  0  0  0  0
   -3.5623    0.9365    0.7055 C   0  0  0  0  0  0  0  0  0  0  0  0
   -3.6470   -1.2607   -1.0115 C   0  0  0  0  0  0  0  0  0  0  0  0
   -4.4670   -0.0986    0.9417 C   0  0  0  0  0  0  0  0  0  0  0  0
   -4.5092   -1.1973    0.0832 C   0  0  0  0  0  0  0  0  0  0  0  0
    3.3777    0.9743    1.3988 H   0  0  0  0  0  0  0  0  0  0  0  0
    3.4834    1.8740   -1.1957 H   0  0  0  0  0  0  0  0  0  0  0  0
    4.8309    1.0976   -0.3515 H   0  0  0  0  0  0  0  0  0  0  0  0
    3.2284    0.0287   -2.5945 H   0  0  0  0  0  0  0  0  0  0  0  0
    1.8828   -1.3238   -1.2929 H   0  0  0  0  0  0  0  0  0  0  0  0
    3.3601   -2.2996   -1.0565 H   0  0  0  0  0  0  0  0  0  0  0  0
    0.9872   -1.4324    0.9980 H   0  0  0  0  0  0  0  0  0  0  0  0
    3.1442   -1.0778    3.1416 H   0  0  0  0  0  0  0  0  0  0  0  0
    1.7543   -0.0121    2.8712 H   0  0  0  0  0  0  0  0  0  0  0  0
    1.5020   -1.6477    3.4395 H   0  0  0  0  0  0  0  0  0  0  0  0
    3.3659   -3.2820    1.5233 H   0  0  0  0  0  0  0  0  0  0  0  0
    2.0741   -3.5111    0.3233 H   0  0  0  0  0  0  0  0  0  0  0  0
    1.7066   -3.5996    2.0363 H   0  0  0  0  0  0  0  0  0  0  0  0
    5.4995    0.0166   -2.3854 H   0  0  0  0  0  0  0  0  0  0  0  0
   -1.5811    2.2044   -1.6834 H   0  0  0  0  0  0  0  0  0  0  0  0
   -2.2087    2.9503   -0.2623 H   0  0  0  0  0  0  0  0  0  0  0  0
   -3.5398    1.7850    1.3842 H   0  0  0  0  0  0  0  0  0  0  0  0
   -3.6928   -2.1238   -1.6706 H   0  0  0  0  0  0  0  0  0  0  0  0
   -5.1381   -0.0500    1.7941 H   0  0  0  0  0  0  0  0  0  0  0  0
  1 19  1  0  0  0  0
  2 23  1  0  0  0  0
  3 10  1  0  0  0  0
  3 37  1  0  0  0  0
  4  7  1  0  0  0  0
  4 13  1  0  0  0  0
  5  8  1  0  0  0  0
  5 11  1  0  0  0  0
  5 12  1  0  0  0  0
  6 13  2  0  0  0  0
  6 16  1  0  0  0  0
  7 16  2  0  0  0  0
  8  9  1  0  0  0  0
  8 13  1  0  0  0  0
  8 24  1  0  0  0  0
  9 10  1  0  0  0  0
  9 25  1  0  0  0  0
  9 26  1  0  0  0  0
 10 11  1  0  0  0  0
 10 27  1  0  0  0  0
 11 28  1  0  0  0  0
 11 29  1  0  0  0  0
 12 14  1  0  0  0  0
 12 15  1  0  0  0  0
 12 30  1  0  0  0  0
 14 31  1  0  0  0  0
 14 32  1  0  0  0  0
 14 33  1  0  0  0  0
 15 34  1  0  0  0  0
 15 35  1  0  0  0  0
 15 36  1  0  0  0  0
 16 17  1  0  0  0  0
 17 18  1  0  0  0  0
 17 38  1  0  0  0  0
 17 39  1  0  0  0  0
 18 19  2  0  0  0  0
 18 20  1  0  0  0  0
 19 21  1  0  0  0  0
 20 22  2  0  0  0  0
 20 40  1  0  0  0  0
 21 23  2  0  0  0  0
 21 41  1  0  0  0  0
 22 23  1  0  0  0  0
 22 42  1  0  0  0  0
M  END
> <PUBCHEM_COMPOUND_CID>
26744604

> <PUBCHEM_CONFORMER_RMSD>
0.8

> <PUBCHEM_CONFORMER_DIVERSEORDER>
1
46
4
43
39
123
76
125
18
34
126
97
89
49
83
60
17
64
98
115
79
106
81
41
107
117
101
110
12
91
118
108
45
2
50
111
31
86
35
121
19
21
54
69
87
80
71
6
42
67
72
59
78
96
55
40
38
112
16
63
94
53
95
73
27
122
7
103
93
77
24
113
44
100
14
124
51
114
104
68
84
70
109
127
13
20
15
25
58
90
92
105
66
119
10
11
3
120
74
102
48
32
75
33
128
82
61
56
116
52
9
85
23
22
5
28
57
26
62
37
88
8
36
65
47
30
29
99

> <PUBCHEM_MMFF94_PARTIAL_CHARGES>
24
1 -0.18
10 0.28
11 0.27
12 0.27
13 0.3
16 0.34
17 0.32
18 -0.14
19 0.18
2 -0.19
20 -0.15
21 -0.15
22 -0.15
23 0.19
3 -0.68
37 0.4
4 -0.02
40 0.15
41 0.15
42 0.15
5 -0.81
6 -0.57
7 -0.41
8 0.45

> <PUBCHEM_EFFECTIVE_ROTOR_COUNT>
5

> <PUBCHEM_PHARMACOPHORE_FEATURES>
8
1 3 acceptor
1 3 donor
1 5 cation
3 12 14 15 hydrophobe
3 6 7 16 cation
5 4 6 7 13 16 rings
5 5 8 9 10 11 rings
6 18 19 20 21 22 23 rings

> <PUBCHEM_HEAVY_ATOM_COUNT>
23

> <PUBCHEM_ATOM_DEF_STEREO_COUNT>
2

> <PUBCHEM_ATOM_UDEF_STEREO_COUNT>
0

> <PUBCHEM_BOND_DEF_STEREO_COUNT>
0

> <PUBCHEM_BOND_UDEF_STEREO_COUNT>
0

> <PUBCHEM_ISOTOPIC_ATOM_COUNT>
0

> <PUBCHEM_COMPONENT_COUNT>
1

> <PUBCHEM_CACTVS_TAUTO_COUNT>
1

> <PUBCHEM_CONFORMER_ID>
0198171C00000001

> <PUBCHEM_MMFF94_ENERGY>
43.4301

> <PUBCHEM_FEATURE_SELFOVERLAP>
40.596

> <PUBCHEM_SHAPE_FINGERPRINT>
10928967 22 18412538812774055311
11552529 35 14691137344975841381
11578080 2 17973976515704275388
12156800 1 12631527362126520155
12160290 23 17555439639977809720
12403259 327 14261635053292758023
12553582 1 18343292656934950221
12596599 1 18059843004833745255
12633257 1 13686300166626102687
12670546 177 16443358592977973140
12714826 92 18340764836837981533
13103583 49 17488766526769610257
13224815 77 18187919556359345603
13533116 47 17773029985580902495
13726171 33 17986692401843908504
14251764 30 18202013126416800055
14252887 29 17846491565214284344
14787075 74 18340207517829265128
15295992 7 13973964337455681767
15375462 189 18341608213621610553
15537594 2 18334871489130790315
15664445 248 16950558943474452637
16752209 62 17842546349705587581
17349148 13 17822006455234437888
1813 80 18335424603345950989
18981168 100 8717413761331804081
19784866 135 17345482483416305636
20291156 8 18341328920641182609
20442098 301 17703495662473758437
20645477 70 18057300959735968693
21033648 29 15984818173936715003
21054139 6 18186806881221335774
21731516 1 18269819974152179841
22749437 52 8358251566484211063
22950370 63 18130520681339360708
235170 7 16588022403096675111
238 59 17168439177125724016
312425 83 16154538766945846583
3737641 26 18335996272072296947
3797600 57 18261110768534849462
6328613 192 9007051388656847814
6669772 16 17605833840883471088
7097593 13 17345184709134080797
8509985 295 13182752432601880791

> <PUBCHEM_SHAPE_MULTIPOLES>
441.24
9.61
2.59
2.13
4.66
0.82
-0.35
4.37
-2.2
-0.3
1.16
-1.2
0.32
-0.73

> <PUBCHEM_SHAPE_SELFOVERLAP>
928.035

> <PUBCHEM_SHAPE_VOLUME>
253.4

> <PUBCHEM_COORDINATE_TYPE>
2
5
10

$$$$
