26744309
  -OEChem-12032416403D

 48 51  0     1  0  0  0  0  0999 V2000
    4.3994    2.7946   -2.2953 O   0  0  0  0  0  0  0  0  0  0  0  0
    0.6266    1.9618    1.8947 O   0  0  0  0  0  0  0  0  0  0  0  0
   -5.6335   -1.4660   -1.9939 O   0  5  0  0  0  0  0  0  0  0  0  0
   -3.5233   -1.4437   -2.5986 O   0  0  0  0  0  0  0  0  0  0  0  0
    2.7384    0.1727   -0.5241 N   0  0  1  0  0  0  0  0  0  0  0  0
   -0.1085    0.7872    0.1349 N   0  0  0  0  0  0  0  0  0  0  0  0
   -0.7552    1.8180    2.0722 N   0  0  0  0  0  0  0  0  0  0  0  0
   -4.4390   -1.1352   -1.7982 N   0  3  0  0  0  0  0  0  0  0  0  0
    3.1119   -1.0028    0.2599 C   0  0  0  0  0  0  0  0  0  0  0  0
    2.3789    1.3381    0.3091 C   0  0  1  0  0  0  0  0  0  0  0  0
    3.8181    0.6118   -1.4060 C   0  0  0  0  0  0  0  0  0  0  0  0
    1.9459   -1.4180    1.1639 C   0  0  0  0  0  0  0  0  0  0  0  0
    3.5193   -2.1456   -0.6766 C   0  0  0  0  0  0  0  0  0  0  0  0
    2.7399    2.5635   -0.5510 C   0  0  0  0  0  0  0  0  0  0  0  0
    3.3367    1.9867   -1.8286 C   0  0  1  0  0  0  0  0  0  0  0  0
    2.2719   -2.6908    1.9436 C   0  0  0  0  0  0  0  0  0  0  0  0
    3.8440   -3.4171    0.1057 C   0  0  0  0  0  0  0  0  0  0  0  0
    2.6898   -3.8279    1.0157 C   0  0  0  0  0  0  0  0  0  0  0  0
    0.9246    1.3267    0.7310 C   0  0  0  0  0  0  0  0  0  0  0  0
   -1.1162    1.1146    0.9948 C   0  0  0  0  0  0  0  0  0  0  0  0
   -2.4742    0.7247    0.7473 C   0  0  0  0  0  0  0  0  0  0  0  0
   -2.7928   -0.0089   -0.3956 C   0  0  0  0  0  0  0  0  0  0  0  0
   -3.4763    1.0788    1.6507 C   0  0  0  0  0  0  0  0  0  0  0  0
   -4.1137   -0.3884   -0.6351 C   0  0  0  0  0  0  0  0  0  0  0  0
   -4.7971    0.6995    1.4112 C   0  0  0  0  0  0  0  0  0  0  0  0
   -5.1158   -0.0343    0.2685 C   0  0  0  0  0  0  0  0  0  0  0  0
    3.9741   -0.7655    0.9001 H   0  0  0  0  0  0  0  0  0  0  0  0
    3.0053    1.3753    1.2118 H   0  0  0  0  0  0  0  0  0  0  0  0
    3.9379   -0.0200   -2.2921 H   0  0  0  0  0  0  0  0  0  0  0  0
    4.7876    0.6787   -0.8948 H   0  0  0  0  0  0  0  0  0  0  0  0
    1.0386   -1.5947    0.5729 H   0  0  0  0  0  0  0  0  0  0  0  0
    1.7285   -0.6639    1.9244 H   0  0  0  0  0  0  0  0  0  0  0  0
    4.4110   -1.8925   -1.2606 H   0  0  0  0  0  0  0  0  0  0  0  0
    2.7131   -2.3591   -1.3907 H   0  0  0  0  0  0  0  0  0  0  0  0
    1.8773    3.1973   -0.7874 H   0  0  0  0  0  0  0  0  0  0  0  0
    3.4706    3.1928   -0.0275 H   0  0  0  0  0  0  0  0  0  0  0  0
    2.5730    1.9086   -2.6123 H   0  0  0  0  0  0  0  0  0  0  0  0
    1.3993   -2.9974    2.5315 H   0  0  0  0  0  0  0  0  0  0  0  0
    3.0811   -2.4865    2.6559 H   0  0  0  0  0  0  0  0  0  0  0  0
    4.7450   -3.2544    0.7101 H   0  0  0  0  0  0  0  0  0  0  0  0
    4.0702   -4.2316   -0.5918 H   0  0  0  0  0  0  0  0  0  0  0  0
    2.9816   -4.7009    1.6103 H   0  0  0  0  0  0  0  0  0  0  0  0
    1.8325   -4.1310    0.4022 H   0  0  0  0  0  0  0  0  0  0  0  0
    4.0370    3.6790   -2.4750 H   0  0  0  0  0  0  0  0  0  0  0  0
   -2.0076   -0.2830   -1.0968 H   0  0  0  0  0  0  0  0  0  0  0  0
   -3.2663    1.6495    2.5518 H   0  0  0  0  0  0  0  0  0  0  0  0
   -5.5774    0.9752    2.1147 H   0  0  0  0  0  0  0  0  0  0  0  0
   -6.1553   -0.3123    0.1149 H   0  0  0  0  0  0  0  0  0  0  0  0
  1 15  1  0  0  0  0
  1 44  1  0  0  0  0
  2  7  1  0  0  0  0
  2 19  1  0  0  0  0
  3  8  1  0  0  0  0
  4  8  2  0  0  0  0
  5  9  1  0  0  0  0
  5 10  1  0  0  0  0
  5 11  1  0  0  0  0
  6 19  2  0  0  0  0
  6 20  1  0  0  0  0
  7 20  2  0  0  0  0
  8 24  1  0  0  0  0
  9 12  1  0  0  0  0
  9 13  1  0  0  0  0
  9 27  1  0  0  0  0
 10 14  1  0  0  0  0
 10 19  1  0  0  0  0
 10 28  1  0  0  0  0
 11 15  1  0  0  0  0
 11 29  1  0  0  0  0
 11 30  1  0  0  0  0
 12 16  1  0  0  0  0
 12 31  1  0  0  0  0
 12 32  1  0  0  0  0
 13 17  1  0  0  0  0
 13 33  1  0  0  0  0
 13 34  1  0  0  0  0
 14 15  1  0  0  0  0
 14 35  1  0  0  0  0
 14 36  1  0  0  0  0
 15 37  1  0  0  0  0
 16 18  1  0  0  0  0
 16 38  1  0  0  0  0
 16 39  1  0  0  0  0
 17 18  1  0  0  0  0
 17 40  1  0  0  0  0
 17 41  1  0  0  0  0
 18 42  1  0  0  0  0
 18 43  1  0  0  0  0
 20 21  1  0  0  0  0
 21 22  2  0  0  0  0
 21 23  1  0  0  0  0
 22 24  1  0  0  0  0
 22 45  1  0  0  0  0
 23 25  2  0  0  0  0
 23 46  1  0  0  0  0
 24 26  2  0  0  0  0
 25 26  1  0  0  0  0
 25 47  1  0  0  0  0
 26 48  1  0  0  0  0
M  CHG  2   3  -1   8   1
M  END
> <PUBCHEM_COMPOUND_CID>
26744309

> <PUBCHEM_CONFORMER_RMSD>
0.8

> <PUBCHEM_CONFORMER_DIVERSEORDER>
1
22
14
32
43
23
37
46
16
10
39
4
38
24
17
18
6
29
42
36
45
7
21
40
25
12
3
13
31
35
19
34
9
5
33
44
20
28
27
26
41
11
30
15
8
2

> <PUBCHEM_MMFF94_PARTIAL_CHARGES>
25
1 -0.68
10 0.45
11 0.27
15 0.28
19 0.3
2 -0.02
20 0.46
21 0.05
22 -0.15
23 -0.15
24 0.13
25 -0.15
26 -0.15
3 -0.52
4 -0.52
44 0.4
45 0.15
46 0.15
47 0.15
48 0.15
5 -0.81
6 -0.57
7 -0.41
8 0.91
9 0.27

> <PUBCHEM_EFFECTIVE_ROTOR_COUNT>
6.2

> <PUBCHEM_PHARMACOPHORE_FEATURES>
11
1 1 acceptor
1 1 donor
1 3 acceptor
1 3 anion
1 4 acceptor
1 5 cation
3 6 7 20 cation
5 2 6 7 19 20 rings
5 5 10 11 14 15 rings
6 21 22 23 24 25 26 rings
6 9 12 13 16 17 18 rings

> <PUBCHEM_HEAVY_ATOM_COUNT>
26

> <PUBCHEM_ATOM_DEF_STEREO_COUNT>
2

> <PUBCHEM_ATOM_UDEF_STEREO_COUNT>
0

> <PUBCHEM_BOND_DEF_STEREO_COUNT>
0

> <PUBCHEM_BOND_UDEF_STEREO_COUNT>
0

> <PUBCHEM_ISOTOPIC_ATOM_COUNT>
0

> <PUBCHEM_COMPONENT_COUNT>
1

> <PUBCHEM_CACTVS_TAUTO_COUNT>
1

> <PUBCHEM_CONFORMER_ID>
019815F500000001

> <PUBCHEM_MMFF94_ENERGY>
51.4705

> <PUBCHEM_FEATURE_SELFOVERLAP>
55.903

> <PUBCHEM_SHAPE_FINGERPRINT>
10042902 136 17987516996946802262
10498660 4 14634865332299051373
10622 236 18195804072691126395
10928967 22 17989205992867518303
11069576 57 18411412878512515542
11186622 123 17843953978377086839
11315621 136 18335423490796589602
11545043 162 15051745183123777805
11725454 13 16444191000748158568
11796584 16 17418380194643210177
12553582 1 17704355476820247021
12788726 201 17844831207950901857
13009979 54 17912938175585626682
13257819 101 16516539957157048476
13911987 19 17681025033874709468
14480069 147 18409171043508474531
14508693 111 17701228534122903743
14863182 85 18413383229598971538
15003188 105 17555422352976686143
15250474 111 18272929440691816007
15342816 4 17918273177148438841
15537594 2 18201451302245235865
15842332 3 18055095197571357744
16989713 51 17328860999111648102
17138139 8 18058167404773341198
17818456 19 17840032840370668761
1813 80 18193842526840910994
20511986 3 18272366455925040241
20600515 1 16629959911036399889
20626108 58 17989194932977934851
20645477 70 17967824837823288488
20775530 9 17975409118803492042
21054139 6 18199747110651235196
21065201 7 16343714196638987489
21315764 21 17972007328784974311
21703447 108 17129275814469596793
235170 7 17312821597956090599
238 59 17968393277072000714
25222932 49 17487030496197864039
3004659 81 18270407083227835503
312425 83 17895460467483344117
34797466 226 17022904592837592637
4409770 3 17544496596795259856
44802255 64 14929920450920405686
46194498 28 16444217290005392878
463206 1 18342174466305006675
474144 1 18343578534216762135
504843 32 17390243855692578212
5223283 242 17315903383156808037
59025328 239 18115856426324812420
59682541 52 18116691007791399471
633830 44 17822011974109540745
7471813 234 18264491676927788936
86090 222 16752932946990313799
960060 61 18409725179819089541

> <PUBCHEM_SHAPE_MULTIPOLES>
491.67
11.19
3.7
2.24
11.91
1.95
-0.7
3.09
-4.92
-6.91
-0.08
1.58
-0.13
-4.01

> <PUBCHEM_SHAPE_SELFOVERLAP>
1059.729

> <PUBCHEM_SHAPE_VOLUME>
271.4

> <PUBCHEM_COORDINATE_TYPE>
2
5
10

$$$$
