7155482
  -OEChem-12032416403D

 57 62  0     1  0  0  0  0  0999 V2000
    5.8760   -1.0095   -0.1189 S   0  0  0  0  0  0  0  0  0  0  0  0
    0.9889    3.0435    1.2306 O   0  0  0  0  0  0  0  0  0  0  0  0
   -3.1080    0.2112    2.6310 O   0  0  0  0  0  0  0  0  0  0  0  0
    3.1282   -0.7207   -0.9512 O   0  0  0  0  0  0  0  0  0  0  0  0
   -3.4978    1.0004    0.4630 N   0  0  0  0  0  0  0  0  0  0  0  0
   -0.7935    2.5249   -0.1882 N   0  0  0  0  0  0  0  0  0  0  0  0
    2.7403    1.4206   -0.1294 N   0  0  0  0  0  0  0  0  0  0  0  0
   -3.1572    3.4475    0.1642 C   0  0  1  0  0  0  0  0  0  0  0  0
   -2.7078    1.9126   -1.7075 C   0  0  2  0  0  0  0  0  0  0  0  0
   -3.2963    3.2751   -1.3445 C   0  0  0  0  0  0  0  0  0  0  0  0
   -3.9155    2.3308    0.9045 C   0  0  0  0  0  0  0  0  0  0  0  0
   -1.6663    3.4694    0.5236 C   0  0  0  0  0  0  0  0  0  0  0  0
   -3.5031    0.8001   -0.9952 C   0  0  0  0  0  0  0  0  0  0  0  0
   -1.2454    1.8276   -1.3134 C   0  0  0  0  0  0  0  0  0  0  0  0
   -0.3983    1.0584   -2.0177 C   0  0  0  0  0  0  0  0  0  0  0  0
    0.5409    2.4365    0.2569 C   0  0  0  0  0  0  0  0  0  0  0  0
   -3.1147    0.0497    1.4119 C   0  0  0  0  0  0  0  0  0  0  0  0
    1.4458    1.5475   -0.5388 C   0  0  0  0  0  0  0  0  0  0  0  0
    0.9736    0.9167   -1.6192 C   0  0  0  0  0  0  0  0  0  0  0  0
   -2.6587   -1.2579    0.9291 C   0  0  0  0  0  0  0  0  0  0  0  0
   -1.3084   -1.4634    0.6567 C   0  0  0  0  0  0  0  0  0  0  0  0
   -3.5763   -2.2849    0.7465 C   0  0  0  0  0  0  0  0  0  0  0  0
   -0.8559   -2.7098    0.1940 C   0  0  0  0  0  0  0  0  0  0  0  0
   -3.1444   -3.5297    0.2880 C   0  0  0  0  0  0  0  0  0  0  0  0
    3.5085    0.2877   -0.3613 C   0  0  0  0  0  0  0  0  0  0  0  0
   -1.7876   -3.7585    0.0071 C   0  0  0  0  0  0  0  0  0  0  0  0
    0.5011   -2.9386   -0.0865 C   0  0  0  0  0  0  0  0  0  0  0  0
   -1.3350   -5.0050   -0.4556 C   0  0  0  0  0  0  0  0  0  0  0  0
    4.9062    0.3432    0.1404 C   0  0  0  0  0  0  0  0  0  0  0  0
    0.9332   -4.1832   -0.5455 C   0  0  0  0  0  0  0  0  0  0  0  0
    0.0169   -5.2143   -0.7298 C   0  0  0  0  0  0  0  0  0  0  0  0
    5.4903    1.3642    0.7853 C   0  0  0  0  0  0  0  0  0  0  0  0
    6.8398    1.0350    1.1022 C   0  0  0  0  0  0  0  0  0  0  0  0
    7.1803   -0.2271    0.6676 C   0  0  0  0  0  0  0  0  0  0  0  0
   -3.5990    4.4048    0.4672 H   0  0  0  0  0  0  0  0  0  0  0  0
   -2.8097    1.7728   -2.7915 H   0  0  0  0  0  0  0  0  0  0  0  0
   -2.7724    4.0798   -1.8756 H   0  0  0  0  0  0  0  0  0  0  0  0
   -4.3512    3.3283   -1.6403 H   0  0  0  0  0  0  0  0  0  0  0  0
   -4.9900    2.4102    0.6990 H   0  0  0  0  0  0  0  0  0  0  0  0
   -3.7861    2.4386    1.9866 H   0  0  0  0  0  0  0  0  0  0  0  0
   -1.2659    4.4672    0.2980 H   0  0  0  0  0  0  0  0  0  0  0  0
   -1.5292    3.3271    1.6030 H   0  0  0  0  0  0  0  0  0  0  0  0
   -3.1132   -0.1823   -1.2724 H   0  0  0  0  0  0  0  0  0  0  0  0
   -4.5525    0.8258   -1.3140 H   0  0  0  0  0  0  0  0  0  0  0  0
   -0.7280    0.4995   -2.8873 H   0  0  0  0  0  0  0  0  0  0  0  0
    1.5758    0.3048   -2.2795 H   0  0  0  0  0  0  0  0  0  0  0  0
    3.0636    2.1145    0.5375 H   0  0  0  0  0  0  0  0  0  0  0  0
   -0.6000   -0.6526    0.8147 H   0  0  0  0  0  0  0  0  0  0  0  0
   -4.6315   -2.1309    0.9568 H   0  0  0  0  0  0  0  0  0  0  0  0
   -3.8784   -4.3212    0.1513 H   0  0  0  0  0  0  0  0  0  0  0  0
    1.2328   -2.1500    0.0623 H   0  0  0  0  0  0  0  0  0  0  0  0
   -2.0334   -5.8254   -0.6066 H   0  0  0  0  0  0  0  0  0  0  0  0
    1.9860   -4.3472   -0.7564 H   0  0  0  0  0  0  0  0  0  0  0  0
    0.3541   -6.1832   -1.0865 H   0  0  0  0  0  0  0  0  0  0  0  0
    5.0405    2.3137    1.0418 H   0  0  0  0  0  0  0  0  0  0  0  0
    7.5265    1.6908    1.6216 H   0  0  0  0  0  0  0  0  0  0  0  0
    8.1327   -0.7269    0.7742 H   0  0  0  0  0  0  0  0  0  0  0  0
  1 29  1  0  0  0  0
  1 34  1  0  0  0  0
  2 16  2  0  0  0  0
  3 17  2  0  0  0  0
  4 25  2  0  0  0  0
  5 11  1  0  0  0  0
  5 13  1  0  0  0  0
  5 17  1  0  0  0  0
  6 12  1  0  0  0  0
  6 14  1  0  0  0  0
  6 16  1  0  0  0  0
  7 18  1  0  0  0  0
  7 25  1  0  0  0  0
  7 47  1  0  0  0  0
  8 10  1  0  0  0  0
  8 11  1  0  0  0  0
  8 12  1  0  0  0  0
  8 35  1  0  0  0  0
  9 10  1  0  0  0  0
  9 13  1  0  0  0  0
  9 14  1  0  0  0  0
  9 36  1  0  0  0  0
 10 37  1  0  0  0  0
 10 38  1  0  0  0  0
 11 39  1  0  0  0  0
 11 40  1  0  0  0  0
 12 41  1  0  0  0  0
 12 42  1  0  0  0  0
 13 43  1  0  0  0  0
 13 44  1  0  0  0  0
 14 15  2  0  0  0  0
 15 19  1  0  0  0  0
 15 45  1  0  0  0  0
 16 18  1  0  0  0  0
 17 20  1  0  0  0  0
 18 19  2  0  0  0  0
 19 46  1  0  0  0  0
 20 21  2  0  0  0  0
 20 22  1  0  0  0  0
 21 23  1  0  0  0  0
 21 48  1  0  0  0  0
 22 24  2  0  0  0  0
 22 49  1  0  0  0  0
 23 26  1  0  0  0  0
 23 27  2  0  0  0  0
 24 26  1  0  0  0  0
 24 50  1  0  0  0  0
 25 29  1  0  0  0  0
 26 28  2  0  0  0  0
 27 30  1  0  0  0  0
 27 51  1  0  0  0  0
 28 31  1  0  0  0  0
 28 52  1  0  0  0  0
 29 32  2  0  0  0  0
 30 31  2  0  0  0  0
 30 53  1  0  0  0  0
 31 54  1  0  0  0  0
 32 33  1  0  0  0  0
 32 55  1  0  0  0  0
 33 34  2  0  0  0  0
 33 56  1  0  0  0  0
 34 57  1  0  0  0  0
M  END
> <PUBCHEM_COMPOUND_CID>
7155482

> <PUBCHEM_CONFORMER_RMSD>
0.8

> <PUBCHEM_CONFORMER_DIVERSEORDER>
1
5
43
44
39
27
10
49
34
40
32
17
24
42
50
46
48
15
7
38
21
25
41
19
14
12
20
45
33
26
16
23
13
47
28
37
9
2
22
29
6
11
36
4
35
8
30
31
18
3

> <PUBCHEM_MMFF94_PARTIAL_CHARGES>
43
1 -0.08
11 0.3
12 0.3
13 0.3
14 -0.03
15 -0.15
16 0.62
17 0.54
18 0.12
19 -0.15
2 -0.57
20 0.09
21 -0.15
22 -0.15
24 -0.15
25 0.71
27 -0.15
28 -0.15
29 -0.05
3 -0.57
30 -0.15
31 -0.15
32 -0.15
33 -0.15
34 -0.11
4 -0.57
45 0.15
46 0.15
47 0.37
48 0.15
49 0.15
5 -0.66
50 0.15
51 0.15
52 0.15
53 0.15
54 0.15
55 0.15
56 0.15
57 0.15
6 -0.47
7 -0.54
9 0.14

> <PUBCHEM_EFFECTIVE_ROTOR_COUNT>
6

> <PUBCHEM_PHARMACOPHORE_FEATURES>
10
1 2 acceptor
1 3 acceptor
1 4 acceptor
1 7 donor
5 1 29 32 33 34 rings
6 20 21 22 23 24 26 rings
6 23 26 27 28 30 31 rings
6 5 8 9 10 11 13 rings
6 6 14 15 16 18 19 rings
6 6 8 9 10 12 14 rings

> <PUBCHEM_HEAVY_ATOM_COUNT>
34

> <PUBCHEM_ATOM_DEF_STEREO_COUNT>
2

> <PUBCHEM_ATOM_UDEF_STEREO_COUNT>
0

> <PUBCHEM_BOND_DEF_STEREO_COUNT>
0

> <PUBCHEM_BOND_UDEF_STEREO_COUNT>
0

> <PUBCHEM_ISOTOPIC_ATOM_COUNT>
0

> <PUBCHEM_COMPONENT_COUNT>
1

> <PUBCHEM_CACTVS_TAUTO_COUNT>
2

> <PUBCHEM_CONFORMER_ID>
006D2F1A00000001

> <PUBCHEM_MMFF94_ENERGY>
99.1357

> <PUBCHEM_FEATURE_SELFOVERLAP>
52.357

> <PUBCHEM_SHAPE_FINGERPRINT>
10290309 65 18411986824009436582
10483366 6 18265595741585500279
11014199 57 17833270101315676722
11112241 14 18200308806115698228
11200772 71 17972347198701199948
11513181 2 18127127476903478487
11524674 6 18336819797654279468
12422481 6 17968942968598710922
12522641 33 18190166894551869837
12633257 1 18127714792184887345
12788726 201 18117289266407203646
13004483 165 18047753985991519303
144659 39 17896309221745700408
14659021 117 18197197334285225604
14674994 50 18189881179830027687
14844126 61 18335699498221137442
14904385 31 18267572526005568266
15230672 131 18263927636702469310
15439362 3 17832980551647488365
15927050 60 18196648498174542525
16728300 4 17967805020691711019
19930381 70 17905615398121870251
20764821 26 18193272988344614054
20775530 9 17547587327558799175
21133410 38 18128539267909528019
229767 44 18339368572813296450
238918 7 18341621382324078534
244849 19 17845671261300451038
25019877 29 17488481830626606511
3027735 51 18411694379680626879
3383291 50 18411131459428128779
3882209 13 17407936143954972926
4403749 210 18335973225852831836
4409770 3 18335409201328879094
469060 322 16660638566627518902
484985 159 18261659467475422799
50150288 127 16197913336888626800
5080951 261 17824793781841230120
5085150 59 18336249168088115291
5265222 85 18262821604433013212
56638632 33 17696193990764164617
653340 110 18411415146550360650
9981440 41 18336827472824069561

> <PUBCHEM_SHAPE_MULTIPOLES>
671
11.26
6.67
1.52
26.96
8.09
-0.01
-4.22
-3.84
-6.33
0.96
-1.01
-0.71
1.26

> <PUBCHEM_SHAPE_SELFOVERLAP>
1491.735

> <PUBCHEM_SHAPE_VOLUME>
356.8

> <PUBCHEM_COORDINATE_TYPE>
2
5
10

$$$$
