51137512
  -OEChem-12032416253D

 53 57  0     1  0  0  0  0  0999 V2000
    2.2697   -0.8466    0.2991 O   0  0  0  0  0  0  0  0  0  0  0  0
    7.5996    2.4253   -0.4621 O   0  0  0  0  0  0  0  0  0  0  0  0
   -1.7611   -0.4596    0.0532 N   0  0  1  0  0  0  0  0  0  0  0  0
   -5.4552    2.0192    0.5335 N   0  0  0  0  0  0  0  0  0  0  0  0
    2.2759   -3.0823    0.3756 N   0  0  0  0  0  0  0  0  0  0  0  0
    3.5799   -2.6572    0.2033 N   0  0  0  0  0  0  0  0  0  0  0  0
    0.0527   -1.8414    0.6014 C   0  0  2  0  0  0  0  0  0  0  0  0
   -0.6184   -1.1238   -0.5775 C   0  0  0  0  0  0  0  0  0  0  0  0
   -0.3747   -1.0370    1.8414 C   0  0  0  0  0  0  0  0  0  0  0  0
   -1.2329    0.0982    1.2982 C   0  0  0  0  0  0  0  0  0  0  0  0
   -2.3536    0.5577   -0.8024 C   0  0  0  0  0  0  0  0  0  0  0  0
    1.5462   -1.9925    0.4263 C   0  0  0  0  0  0  0  0  0  0  0  0
   -3.7468    0.9197   -0.3609 C   0  0  0  0  0  0  0  0  0  0  0  0
   -4.9270    0.1521   -0.5677 C   0  0  0  0  0  0  0  0  0  0  0  0
   -4.1037    2.0616    0.3186 C   0  0  0  0  0  0  0  0  0  0  0  0
   -5.9843    0.8642    0.0030 C   0  0  0  0  0  0  0  0  0  0  0  0
   -5.1981   -1.0839   -1.1874 C   0  0  0  0  0  0  0  0  0  0  0  0
    3.5284   -1.3462    0.1641 C   0  0  0  0  0  0  0  0  0  0  0  0
   -7.3043    0.4001   -0.0153 C   0  0  0  0  0  0  0  0  0  0  0  0
   -6.2042    3.0487    1.2210 C   0  0  0  0  0  0  0  0  0  0  0  0
   -6.5138   -1.5607   -1.2132 C   0  0  0  0  0  0  0  0  0  0  0  0
   -7.5491   -0.8284   -0.6355 C   0  0  0  0  0  0  0  0  0  0  0  0
    4.5741   -0.3778    0.0045 C   0  0  0  0  0  0  0  0  0  0  0  0
    5.8968   -0.7967   -0.1405 C   0  0  0  0  0  0  0  0  0  0  0  0
    4.2684    0.9832   -0.0067 C   0  0  0  0  0  0  0  0  0  0  0  0
    6.9136    0.1452   -0.2963 C   0  0  0  0  0  0  0  0  0  0  0  0
    5.2853    1.9251   -0.1625 C   0  0  0  0  0  0  0  0  0  0  0  0
    6.6078    1.5061   -0.3072 C   0  0  0  0  0  0  0  0  0  0  0  0
    8.9289    1.9275   -0.6080 C   0  0  0  0  0  0  0  0  0  0  0  0
   -0.3714   -2.8511    0.6916 H   0  0  0  0  0  0  0  0  0  0  0  0
   -0.9383   -1.8372   -1.3449 H   0  0  0  0  0  0  0  0  0  0  0  0
    0.0575   -0.3966   -1.0466 H   0  0  0  0  0  0  0  0  0  0  0  0
    0.4685   -0.6554    2.4267 H   0  0  0  0  0  0  0  0  0  0  0  0
   -0.9737   -1.6780    2.5004 H   0  0  0  0  0  0  0  0  0  0  0  0
   -0.6046    0.9802    1.1187 H   0  0  0  0  0  0  0  0  0  0  0  0
   -2.0219    0.3686    2.0069 H   0  0  0  0  0  0  0  0  0  0  0  0
   -1.7255    1.4559   -0.8703 H   0  0  0  0  0  0  0  0  0  0  0  0
   -2.4371    0.1733   -1.8285 H   0  0  0  0  0  0  0  0  0  0  0  0
   -3.5065    2.8951    0.6643 H   0  0  0  0  0  0  0  0  0  0  0  0
   -4.4027   -1.6674   -1.6421 H   0  0  0  0  0  0  0  0  0  0  0  0
   -8.1149    0.9651    0.4326 H   0  0  0  0  0  0  0  0  0  0  0  0
   -5.5280    3.8484    1.5339 H   0  0  0  0  0  0  0  0  0  0  0  0
   -6.6794    2.6019    2.0980 H   0  0  0  0  0  0  0  0  0  0  0  0
   -6.9546    3.4467    0.5333 H   0  0  0  0  0  0  0  0  0  0  0  0
   -6.7288   -2.5135   -1.6897 H   0  0  0  0  0  0  0  0  0  0  0  0
   -8.5636   -1.2176   -0.6671 H   0  0  0  0  0  0  0  0  0  0  0  0
    6.1570   -1.8526   -0.1349 H   0  0  0  0  0  0  0  0  0  0  0  0
    3.2503    1.3482    0.1030 H   0  0  0  0  0  0  0  0  0  0  0  0
    7.9184   -0.2489   -0.4039 H   0  0  0  0  0  0  0  0  0  0  0  0
    5.0415    2.9840   -0.1710 H   0  0  0  0  0  0  0  0  0  0  0  0
    9.2579    1.3901    0.2879 H   0  0  0  0  0  0  0  0  0  0  0  0
    9.0355    1.3248   -1.5164 H   0  0  0  0  0  0  0  0  0  0  0  0
    9.5881    2.7945   -0.7206 H   0  0  0  0  0  0  0  0  0  0  0  0
  1 12  1  0  0  0  0
  1 18  1  0  0  0  0
  2 28  1  0  0  0  0
  2 29  1  0  0  0  0
  3  8  1  0  0  0  0
  3 10  1  0  0  0  0
  3 11  1  0  0  0  0
  4 15  1  0  0  0  0
  4 16  1  0  0  0  0
  4 20  1  0  0  0  0
  5  6  1  0  0  0  0
  5 12  2  0  0  0  0
  6 18  2  0  0  0  0
  7  8  1  0  0  0  0
  7  9  1  0  0  0  0
  7 12  1  0  0  0  0
  7 30  1  0  0  0  0
  8 31  1  0  0  0  0
  8 32  1  0  0  0  0
  9 10  1  0  0  0  0
  9 33  1  0  0  0  0
  9 34  1  0  0  0  0
 10 35  1  0  0  0  0
 10 36  1  0  0  0  0
 11 13  1  0  0  0  0
 11 37  1  0  0  0  0
 11 38  1  0  0  0  0
 13 14  1  0  0  0  0
 13 15  2  0  0  0  0
 14 16  1  0  0  0  0
 14 17  2  0  0  0  0
 15 39  1  0  0  0  0
 16 19  2  0  0  0  0
 17 21  1  0  0  0  0
 17 40  1  0  0  0  0
 18 23  1  0  0  0  0
 19 22  1  0  0  0  0
 19 41  1  0  0  0  0
 20 42  1  0  0  0  0
 20 43  1  0  0  0  0
 20 44  1  0  0  0  0
 21 22  2  0  0  0  0
 21 45  1  0  0  0  0
 22 46  1  0  0  0  0
 23 24  2  0  0  0  0
 23 25  1  0  0  0  0
 24 26  1  0  0  0  0
 24 47  1  0  0  0  0
 25 27  2  0  0  0  0
 25 48  1  0  0  0  0
 26 28  2  0  0  0  0
 26 49  1  0  0  0  0
 27 28  1  0  0  0  0
 27 50  1  0  0  0  0
 29 51  1  0  0  0  0
 29 52  1  0  0  0  0
 29 53  1  0  0  0  0
M  END
> <PUBCHEM_COMPOUND_CID>
51137512

> <PUBCHEM_CONFORMER_RMSD>
0.8

> <PUBCHEM_CONFORMER_DIVERSEORDER>
1
138
61
201
45
49
169
149
98
222
92
171
217
180
60
116
132
43
159
214
24
165
41
18
85
17
212
38
213
145
112
211
32
177
209
110
228
5
135
123
144
95
52
207
117
23
206
226
78
175
173
33
11
168
181
231
68
160
136
208
121
86
119
7
196
125
240
73
194
2
141
100
137
21
203
241
65
54
193
162
176
130
111
199
27
147
90
14
157
106
115
172
185
204
48
198
195
51
91
178
134
6
103
89
56
163
202
35
46
216
80
79
9
225
34
109
237
197
153
4
223
219
215
96
76
88
75
155
205
120
139
99
72
30
16
200
131
118
64
239
19
170
166
167
69
82
229
87
133
107
74
114
70
22
187
146
94
29
104
143
128
84
218
50
182
62
158
39
8
152
102
191
28
220
189
142
190
183
47
26
40
140
224
234
227
221
164
3
12
126
59
71
97
105
127
36
20
232
58
186
53
44
210
174
124
236
108
192
101
13
31
93
37
63
57
42
179
161
122
148
129
67
238
235
81
10
242
184
77
113
233
55
66
230
156
188
151
150
154
25
15
83

> <PUBCHEM_MMFF94_PARTIAL_CHARGES>
36
1 -0.28
10 0.27
11 0.45
12 0.3
13 -0.18
15 -0.3
16 -0.15
17 -0.15
18 0.43
19 -0.15
2 -0.36
20 0.26
21 -0.15
22 -0.15
23 0.05
24 -0.15
25 -0.15
26 -0.15
27 -0.15
28 0.08
29 0.28
3 -0.81
39 0.15
4 0.05
40 0.15
41 0.15
45 0.15
46 0.15
47 0.15
48 0.15
49 0.15
5 -0.34
50 0.15
6 -0.34
7 0.18
8 0.27

> <PUBCHEM_EFFECTIVE_ROTOR_COUNT>
6

> <PUBCHEM_PHARMACOPHORE_FEATURES>
8
1 2 acceptor
1 3 cation
1 4 cation
5 1 5 6 12 18 rings
5 3 7 8 9 10 rings
5 4 13 14 15 16 rings
6 14 16 17 19 21 22 rings
6 23 24 25 26 27 28 rings

> <PUBCHEM_HEAVY_ATOM_COUNT>
29

> <PUBCHEM_ATOM_DEF_STEREO_COUNT>
1

> <PUBCHEM_ATOM_UDEF_STEREO_COUNT>
0

> <PUBCHEM_BOND_DEF_STEREO_COUNT>
0

> <PUBCHEM_BOND_UDEF_STEREO_COUNT>
0

> <PUBCHEM_ISOTOPIC_ATOM_COUNT>
0

> <PUBCHEM_COMPONENT_COUNT>
1

> <PUBCHEM_CACTVS_TAUTO_COUNT>
1

> <PUBCHEM_CONFORMER_ID>
030C4BE800000001

> <PUBCHEM_MMFF94_ENERGY>
66.5164

> <PUBCHEM_FEATURE_SELFOVERLAP>
40.691

> <PUBCHEM_SHAPE_FINGERPRINT>
10 15 14779551201517387622
10299344 5 18201998824834742631
10411042 1 17831859050636950658
10595046 47 18412540977637369867
10674148 151 13039194701496350126
11273773 42 18411419531094596924
11315181 36 18410573977769649301
11374522 155 17968384557978063372
11476731 38 18409728491956351711
12821665 9 18410855486610303951
13673619 4 12463577274869711890
13685833 64 10807938167649131298
13690498 29 17631439233131941927
14040221 310 17986102135481753390
14150023 79 18187364295215984506
14257110 125 18408884053592444516
14394314 77 18339648845627049089
14428016 86 18334295379893257484
14681490 219 18411135805708646784
14849402 71 18409450314370415957
14856354 85 17703788150717242311
14931854 50 17988374728160104544
14933364 13 18272932704676569389
15064981 194 17972328575333081510
15183329 4 18272651250869143088
15301273 46 13262673704528299818
15320295 44 18270400469305182353
15685185 35 18190462860415849492
1577012 14 18412262809368823688
16989713 51 16988266699661131383
16992752 21 18201433745010222215
16993427 108 16811215374266896442
16994733 274 18409164381428304961
18643901 69 12247411107063365080
20105231 36 15195287555912160063
20157964 124 18407759218969873194
21033648 29 16588303822597279895
21150785 3 18202001044620522235
21298829 104 18409453592063303164
21585482 57 18116146847428341340
22224240 67 17675923209711112618
23522609 53 17988095396018393913
24771293 8 18186805772539934588
2838139 119 18260264114663896348
335352 9 18408045096899914214
34797466 226 18201442445754101087
3986486 107 18201175291169066124
4073 2 18260833700157947179
4098825 35 18131354068351313190
4107672 100 17561361803378803551
4258327 124 17386863857726632670
4325135 7 18412260632305643095
445580 167 18411412930072708959
46194498 28 18057608668631399486
497634 4 18340762642847762341
5080951 261 16371017338795347825
513532 50 18270692974238230846
5219985 9 10952056658729099746
5265222 85 17774715463359518247
543368 44 18408322173217833005
5758199 1 18334296465544258166
59682541 35 17603591841820515449
6057620 51 18411132554993000819
6673363 416 18200598106465280504

> <PUBCHEM_SHAPE_MULTIPOLES>
565.14
25.65
2.91
1.08
13.98
0.31
0.22
14.89
-6.33
1.03
0.49
-1.04
-0.09
-2.84

> <PUBCHEM_SHAPE_SELFOVERLAP>
1245.869

> <PUBCHEM_SHAPE_VOLUME>
308.8

> <PUBCHEM_COORDINATE_TYPE>
2
5
10

$$$$
