11912159
  -OEChem-12032416113D

 48 52  0     1  0  0  0  0  0999 V2000
   -1.4244    1.7239   -1.6059 O   0  0  0  0  0  0  0  0  0  0  0  0
    2.1132   -1.0439   -2.1424 O   0  0  0  0  0  0  0  0  0  0  0  0
    3.9845   -2.1945    0.5571 O   0  0  0  0  0  0  0  0  0  0  0  0
    3.1798    0.2487   -0.5413 N   0  0  0  0  0  0  0  0  0  0  0  0
    0.4632    1.8229   -0.2379 N   0  0  0  0  0  0  0  0  0  0  0  0
   -5.3552   -3.4401   -0.9711 N   0  0  0  0  0  0  0  0  0  0  0  0
    2.7396    2.6343   -1.0895 C   0  0  1  0  0  0  0  0  0  0  0  0
    2.5078    1.8501    1.2328 C   0  0  2  0  0  0  0  0  0  0  0  0
    2.9919    3.0117    0.3664 C   0  0  0  0  0  0  0  0  0  0  0  0
    3.5071    1.3486   -1.4505 C   0  0  0  0  0  0  0  0  0  0  0  0
    1.2280    2.4852   -1.3050 C   0  0  0  0  0  0  0  0  0  0  0  0
    3.3110    0.5783    0.8887 C   0  0  0  0  0  0  0  0  0  0  0  0
    1.0291    1.5882    1.0187 C   0  0  0  0  0  0  0  0  0  0  0  0
    0.2805    1.0880    2.0150 C   0  0  0  0  0  0  0  0  0  0  0  0
   -0.8862    1.5263   -0.5154 C   0  0  0  0  0  0  0  0  0  0  0  0
    2.7012   -0.9681   -1.0626 C   0  0  0  0  0  0  0  0  0  0  0  0
   -1.6857    0.9364    0.6131 C   0  0  0  0  0  0  0  0  0  0  0  0
   -1.1005    0.7577    1.8059 C   0  0  0  0  0  0  0  0  0  0  0  0
    2.9000   -2.1619   -0.2525 C   0  0  0  0  0  0  0  0  0  0  0  0
   -3.0556    0.5798    0.4256 C   0  0  0  0  0  0  0  0  0  0  0  0
    2.1663   -3.3123   -0.1468 C   0  0  0  0  0  0  0  0  0  0  0  0
   -3.3919   -0.7059    0.0012 C   0  0  0  0  0  0  0  0  0  0  0  0
   -4.0590    1.5190    0.6655 C   0  0  0  0  0  0  0  0  0  0  0  0
    2.8461   -4.1176    0.7978 C   0  0  0  0  0  0  0  0  0  0  0  0
    3.9453   -3.3931    1.1964 C   0  0  0  0  0  0  0  0  0  0  0  0
   -4.7304   -1.0522   -0.1833 C   0  0  0  0  0  0  0  0  0  0  0  0
   -5.3976    1.1727    0.4811 C   0  0  0  0  0  0  0  0  0  0  0  0
   -5.7333   -0.1129    0.0567 C   0  0  0  0  0  0  0  0  0  0  0  0
   -5.0750   -2.3693   -0.6179 C   0  0  0  0  0  0  0  0  0  0  0  0
    3.1052    3.4340   -1.7454 H   0  0  0  0  0  0  0  0  0  0  0  0
    2.6926    2.1047    2.2844 H   0  0  0  0  0  0  0  0  0  0  0  0
    2.4616    3.9372    0.6236 H   0  0  0  0  0  0  0  0  0  0  0  0
    4.0601    3.1956    0.5345 H   0  0  0  0  0  0  0  0  0  0  0  0
    4.5866    1.5219   -1.3640 H   0  0  0  0  0  0  0  0  0  0  0  0
    3.3099    1.0610   -2.4888 H   0  0  0  0  0  0  0  0  0  0  0  0
    1.0254    1.9716   -2.2532 H   0  0  0  0  0  0  0  0  0  0  0  0
    0.7871    3.4865   -1.4044 H   0  0  0  0  0  0  0  0  0  0  0  0
    4.3774    0.7269    1.0952 H   0  0  0  0  0  0  0  0  0  0  0  0
    2.9568   -0.2464    1.5134 H   0  0  0  0  0  0  0  0  0  0  0  0
    0.7012    0.8819    2.9937 H   0  0  0  0  0  0  0  0  0  0  0  0
   -1.6383    0.3398    2.6521 H   0  0  0  0  0  0  0  0  0  0  0  0
    1.2554   -3.5505   -0.6773 H   0  0  0  0  0  0  0  0  0  0  0  0
   -2.6101   -1.4400   -0.1879 H   0  0  0  0  0  0  0  0  0  0  0  0
   -3.8151    2.5262    0.9953 H   0  0  0  0  0  0  0  0  0  0  0  0
    2.5694   -5.1024    1.1451 H   0  0  0  0  0  0  0  0  0  0  0  0
    4.7524   -3.5793    1.8898 H   0  0  0  0  0  0  0  0  0  0  0  0
   -6.1784    1.9043    0.6676 H   0  0  0  0  0  0  0  0  0  0  0  0
   -6.7813   -0.3676   -0.0826 H   0  0  0  0  0  0  0  0  0  0  0  0
  1 15  2  0  0  0  0
  2 16  2  0  0  0  0
  3 19  1  0  0  0  0
  3 25  1  0  0  0  0
  4 10  1  0  0  0  0
  4 12  1  0  0  0  0
  4 16  1  0  0  0  0
  5 11  1  0  0  0  0
  5 13  1  0  0  0  0
  5 15  1  0  0  0  0
  6 29  3  0  0  0  0
  7  9  1  0  0  0  0
  7 10  1  0  0  0  0
  7 11  1  0  0  0  0
  7 30  1  0  0  0  0
  8  9  1  0  0  0  0
  8 12  1  0  0  0  0
  8 13  1  0  0  0  0
  8 31  1  0  0  0  0
  9 32  1  0  0  0  0
  9 33  1  0  0  0  0
 10 34  1  0  0  0  0
 10 35  1  0  0  0  0
 11 36  1  0  0  0  0
 11 37  1  0  0  0  0
 12 38  1  0  0  0  0
 12 39  1  0  0  0  0
 13 14  2  0  0  0  0
 14 18  1  0  0  0  0
 14 40  1  0  0  0  0
 15 17  1  0  0  0  0
 16 19  1  0  0  0  0
 17 18  2  0  0  0  0
 17 20  1  0  0  0  0
 18 41  1  0  0  0  0
 19 21  2  0  0  0  0
 20 22  1  0  0  0  0
 20 23  2  0  0  0  0
 21 24  1  0  0  0  0
 21 42  1  0  0  0  0
 22 26  2  0  0  0  0
 22 43  1  0  0  0  0
 23 27  1  0  0  0  0
 23 44  1  0  0  0  0
 24 25  2  0  0  0  0
 24 45  1  0  0  0  0
 25 46  1  0  0  0  0
 26 28  1  0  0  0  0
 26 29  1  0  0  0  0
 27 28  2  0  0  0  0
 27 47  1  0  0  0  0
 28 48  1  0  0  0  0
M  END
> <PUBCHEM_COMPOUND_CID>
11912159

> <PUBCHEM_CONFORMER_RMSD>
0.8

> <PUBCHEM_CONFORMER_DIVERSEORDER>
1
22
13
4
17
15
6
9
19
12
23
18
10
5
8
20
11
2
16
14
3
21
7

> <PUBCHEM_MMFF94_PARTIAL_CHARGES>
36
1 -0.57
10 0.3
11 0.3
12 0.3
13 -0.03
14 -0.15
15 0.62
16 0.71
17 -0.01
18 -0.15
19 0.05
2 -0.57
20 0.03
21 -0.15
22 -0.15
23 -0.15
24 -0.15
25 -0.01
26 0.07
27 -0.15
28 -0.15
29 0.48
3 -0.28
4 -0.66
40 0.15
41 0.15
42 0.15
43 0.15
44 0.15
45 0.15
46 0.15
47 0.15
48 0.15
5 -0.47
6 -0.56
8 0.14

> <PUBCHEM_EFFECTIVE_ROTOR_COUNT>
4

> <PUBCHEM_PHARMACOPHORE_FEATURES>
9
1 1 acceptor
1 2 acceptor
1 3 acceptor
1 6 acceptor
5 3 19 21 24 25 rings
6 20 22 23 26 27 28 rings
6 4 7 8 9 10 12 rings
6 5 13 14 15 17 18 rings
6 5 7 8 9 11 13 rings

> <PUBCHEM_HEAVY_ATOM_COUNT>
29

> <PUBCHEM_ATOM_DEF_STEREO_COUNT>
2

> <PUBCHEM_ATOM_UDEF_STEREO_COUNT>
0

> <PUBCHEM_BOND_DEF_STEREO_COUNT>
0

> <PUBCHEM_BOND_UDEF_STEREO_COUNT>
0

> <PUBCHEM_ISOTOPIC_ATOM_COUNT>
0

> <PUBCHEM_COMPONENT_COUNT>
1

> <PUBCHEM_CACTVS_TAUTO_COUNT>
1

> <PUBCHEM_CONFORMER_ID>
00B5C3DF00000001

> <PUBCHEM_MMFF94_ENERGY>
72.1909

> <PUBCHEM_FEATURE_SELFOVERLAP>
47.268

> <PUBCHEM_SHAPE_FINGERPRINT>
10074138 170 16401084823285086736
11186622 123 18128252479520748007
11796584 16 17988373623910215869
11963148 33 17979907539259920735
12107183 9 18052546469826312417
12293681 25 17828733211269869948
13533116 47 18413392034181649345
13583140 156 17703500095444893657
1361 2 18047193226287465501
14068700 675 18119250554802214546
14117953 113 17836931101273568943
14251751 18 18191301581043583299
15250474 111 18342172293716121559
17138139 8 17628072617919885239
17818456 19 17984433944804554073
19301679 30 18266187313454280419
19315092 285 18130781300181677107
19958102 18 18336812144992944063
20567600 347 18267017452452208530
20626108 58 18339637854498679346
20691752 17 17894631469970178643
20764821 26 17832143097375723411
20775438 99 18188202221322521235
20775530 9 18120932802738627118
21033648 29 14476962225524534729
21054139 6 18269559510392819348
21421861 104 18130515145100077584
21503847 285 8574720100009184704
22393880 68 18272101529546739029
23559900 14 18272931588059120489
238 59 18263945352645123026
239999 70 17632025259469916300
25222932 49 17344902143145525925
3004659 81 18201727210675415765
338550 245 18411978096007987763
404807 78 17466510426827780291
4280585 95 18117262667158268850
4340502 62 17844809389765204240
439807 62 18410012169977465451
444735 86 18057030527331497367
463206 1 18117003186651143115
5326457 24 18411701015415414411
57527573 199 16185483817487731624
633830 44 17312828178009908257
6433294 58 18411982468353624211
6823239 73 17560258937038782126
7970288 3 17912376324912452334

> <PUBCHEM_SHAPE_MULTIPOLES>
564.26
11.19
4.59
1.59
16.41
4.49
-0.02
6.45
-0.74
-4.26
-0.03
-0.9
-0.39
-2.02

> <PUBCHEM_SHAPE_SELFOVERLAP>
1258.038

> <PUBCHEM_SHAPE_VOLUME>
293

> <PUBCHEM_COORDINATE_TYPE>
2
5
10

$$$$
