38030608
  -OEChem-12032416363D

 73 76  0     1  0  0  0  0  0999 V2000
   -2.4360    0.1427    1.0170 O   0  0  0  0  0  0  0  0  0  0  0  0
    7.6223   -3.1003    0.9197 O   0  0  0  0  0  0  0  0  0  0  0  0
    2.7492    0.9395   -0.5516 N   0  0  0  0  0  0  0  0  0  0  0  0
    5.2580   -1.7447    0.0988 N   0  0  0  0  0  0  0  0  0  0  0  0
   -3.4193    1.7685    2.1979 N   0  0  0  0  0  0  0  0  0  0  0  0
   -4.3870    0.8407    1.8603 N   0  0  0  0  0  0  0  0  0  0  0  0
    0.0077    1.8809   -1.3462 C   0  0  1  0  0  0  0  0  0  0  0  0
    1.2988    2.7361   -1.3893 C   0  0  1  0  0  0  0  0  0  0  0  0
   -1.1321    2.6641   -0.6773 C   0  0  0  0  0  0  0  0  0  0  0  0
   -0.7806    3.0901    0.7607 C   0  0  2  0  0  0  0  0  0  0  0  0
   -0.4235    1.4312   -2.7458 C   0  0  0  0  0  0  0  0  0  0  0  0
    0.6021    3.7040    0.8440 C   0  0  0  0  0  0  0  0  0  0  0  0
    1.5133    3.5464   -0.1324 C   0  0  0  0  0  0  0  0  0  0  0  0
    2.5318    1.8637   -1.6510 C   0  0  0  0  0  0  0  0  0  0  0  0
   -0.9187    1.9144    1.7344 C   0  0  0  0  0  0  0  0  0  0  0  0
   -1.1875    2.5472   -3.4512 C   0  0  0  0  0  0  0  0  0  0  0  0
   -1.2706    0.1657   -2.6605 C   0  0  0  0  0  0  0  0  0  0  0  0
    0.8985    4.5426    2.0561 C   0  0  0  0  0  0  0  0  0  0  0  0
   -2.2971    1.3202    1.6854 C   0  0  0  0  0  0  0  0  0  0  0  0
    3.9144    0.0979   -0.7960 C   0  0  0  0  0  0  0  0  0  0  0  0
    4.1006   -0.8893    0.3523 C   0  0  0  0  0  0  0  0  0  0  0  0
    5.2002   -2.9589    0.9245 C   0  0  0  0  0  0  0  0  0  0  0  0
    6.5095   -1.0192    0.3572 C   0  0  0  0  0  0  0  0  0  0  0  0
   -3.7681   -0.0899    1.1719 C   0  0  0  0  0  0  0  0  0  0  0  0
    6.4238   -3.8293    0.6525 C   0  0  0  0  0  0  0  0  0  0  0  0
    7.7019   -1.9354    0.0973 C   0  0  0  0  0  0  0  0  0  0  0  0
   -4.2694   -1.2911    0.5697 C   0  0  0  0  0  0  0  0  0  0  0  0
   -5.6226   -1.6127    0.6771 C   0  0  0  0  0  0  0  0  0  0  0  0
   -3.4044   -2.1372   -0.1241 C   0  0  0  0  0  0  0  0  0  0  0  0
   -6.1105   -2.7805    0.0909 C   0  0  0  0  0  0  0  0  0  0  0  0
   -3.8923   -3.3050   -0.7103 C   0  0  0  0  0  0  0  0  0  0  0  0
   -5.2453   -3.6267   -0.6028 C   0  0  0  0  0  0  0  0  0  0  0  0
   -5.7672   -4.8756   -1.2292 C   0  0  0  0  0  0  0  0  0  0  0  0
    0.1951    0.9844   -0.7421 H   0  0  0  0  0  0  0  0  0  0  0  0
    1.2317    3.4612   -2.2104 H   0  0  0  0  0  0  0  0  0  0  0  0
   -2.0792    2.1193   -0.7160 H   0  0  0  0  0  0  0  0  0  0  0  0
   -1.3097    3.6036   -1.2186 H   0  0  0  0  0  0  0  0  0  0  0  0
   -1.5124    3.8606    1.0439 H   0  0  0  0  0  0  0  0  0  0  0  0
    0.4510    1.1831   -3.3556 H   0  0  0  0  0  0  0  0  0  0  0  0
    2.4737    4.0504   -0.0410 H   0  0  0  0  0  0  0  0  0  0  0  0
    3.4105    2.5119   -1.7710 H   0  0  0  0  0  0  0  0  0  0  0  0
    2.4219    1.3158   -2.5924 H   0  0  0  0  0  0  0  0  0  0  0  0
   -0.7409    2.2480    2.7639 H   0  0  0  0  0  0  0  0  0  0  0  0
   -0.1745    1.1353    1.5299 H   0  0  0  0  0  0  0  0  0  0  0  0
   -0.6478    3.4987   -3.4442 H   0  0  0  0  0  0  0  0  0  0  0  0
   -1.3249    2.2776   -4.5057 H   0  0  0  0  0  0  0  0  0  0  0  0
   -2.1951    2.7001   -3.0505 H   0  0  0  0  0  0  0  0  0  0  0  0
   -1.5439   -0.1798   -3.6637 H   0  0  0  0  0  0  0  0  0  0  0  0
   -0.7174   -0.6448   -2.1739 H   0  0  0  0  0  0  0  0  0  0  0  0
   -2.1996    0.3245   -2.1047 H   0  0  0  0  0  0  0  0  0  0  0  0
    0.8829    3.9318    2.9635 H   0  0  0  0  0  0  0  0  0  0  0  0
    1.8834    5.0184    1.9972 H   0  0  0  0  0  0  0  0  0  0  0  0
    0.1545    5.3392    2.1583 H   0  0  0  0  0  0  0  0  0  0  0  0
    2.8774    1.4453    0.3236 H   0  0  0  0  0  0  0  0  0  0  0  0
    4.7936    0.7405   -0.9097 H   0  0  0  0  0  0  0  0  0  0  0  0
    3.7825   -0.4587   -1.7326 H   0  0  0  0  0  0  0  0  0  0  0  0
    4.1873   -0.3693    1.3157 H   0  0  0  0  0  0  0  0  0  0  0  0
    3.1918   -1.5043    0.4088 H   0  0  0  0  0  0  0  0  0  0  0  0
    4.2987   -3.5373    0.6922 H   0  0  0  0  0  0  0  0  0  0  0  0
    5.1696   -2.6924    1.9891 H   0  0  0  0  0  0  0  0  0  0  0  0
    6.5412   -0.6720    1.3983 H   0  0  0  0  0  0  0  0  0  0  0  0
    6.6141   -0.1462   -0.2936 H   0  0  0  0  0  0  0  0  0  0  0  0
    6.4128   -4.7039    1.3107 H   0  0  0  0  0  0  0  0  0  0  0  0
    6.4397   -4.1932   -0.3821 H   0  0  0  0  0  0  0  0  0  0  0  0
    7.7612   -2.2342   -0.9565 H   0  0  0  0  0  0  0  0  0  0  0  0
    8.6326   -1.4160    0.3469 H   0  0  0  0  0  0  0  0  0  0  0  0
   -6.3151   -0.9677    1.2125 H   0  0  0  0  0  0  0  0  0  0  0  0
   -2.3444   -1.9206   -0.2293 H   0  0  0  0  0  0  0  0  0  0  0  0
   -7.1670   -3.0195    0.1799 H   0  0  0  0  0  0  0  0  0  0  0  0
   -3.2090   -3.9555   -1.2499 H   0  0  0  0  0  0  0  0  0  0  0  0
   -6.6145   -5.2772   -0.6631 H   0  0  0  0  0  0  0  0  0  0  0  0
   -6.0940   -4.6735   -2.2540 H   0  0  0  0  0  0  0  0  0  0  0  0
   -4.9994   -5.6564   -1.2532 H   0  0  0  0  0  0  0  0  0  0  0  0
  1 19  1  0  0  0  0
  1 24  1  0  0  0  0
  2 25  1  0  0  0  0
  2 26  1  0  0  0  0
  3 14  1  0  0  0  0
  3 20  1  0  0  0  0
  3 54  1  0  0  0  0
  4 21  1  0  0  0  0
  4 22  1  0  0  0  0
  4 23  1  0  0  0  0
  5  6  1  0  0  0  0
  5 19  2  0  0  0  0
  6 24  2  0  0  0  0
  7  8  1  0  0  0  0
  7  9  1  0  0  0  0
  7 11  1  0  0  0  0
  7 34  1  0  0  0  0
  8 13  1  0  0  0  0
  8 14  1  0  0  0  0
  8 35  1  0  0  0  0
  9 10  1  0  0  0  0
  9 36  1  0  0  0  0
  9 37  1  0  0  0  0
 10 12  1  0  0  0  0
 10 15  1  0  0  0  0
 10 38  1  0  0  0  0
 11 16  1  0  0  0  0
 11 17  1  0  0  0  0
 11 39  1  0  0  0  0
 12 13  2  0  0  0  0
 12 18  1  0  0  0  0
 13 40  1  0  0  0  0
 14 41  1  0  0  0  0
 14 42  1  0  0  0  0
 15 19  1  0  0  0  0
 15 43  1  0  0  0  0
 15 44  1  0  0  0  0
 16 45  1  0  0  0  0
 16 46  1  0  0  0  0
 16 47  1  0  0  0  0
 17 48  1  0  0  0  0
 17 49  1  0  0  0  0
 17 50  1  0  0  0  0
 18 51  1  0  0  0  0
 18 52  1  0  0  0  0
 18 53  1  0  0  0  0
 20 21  1  0  0  0  0
 20 55  1  0  0  0  0
 20 56  1  0  0  0  0
 21 57  1  0  0  0  0
 21 58  1  0  0  0  0
 22 25  1  0  0  0  0
 22 59  1  0  0  0  0
 22 60  1  0  0  0  0
 23 26  1  0  0  0  0
 23 61  1  0  0  0  0
 23 62  1  0  0  0  0
 24 27  1  0  0  0  0
 25 63  1  0  0  0  0
 25 64  1  0  0  0  0
 26 65  1  0  0  0  0
 26 66  1  0  0  0  0
 27 28  2  0  0  0  0
 27 29  1  0  0  0  0
 28 30  1  0  0  0  0
 28 67  1  0  0  0  0
 29 31  2  0  0  0  0
 29 68  1  0  0  0  0
 30 32  2  0  0  0  0
 30 69  1  0  0  0  0
 31 32  1  0  0  0  0
 31 70  1  0  0  0  0
 32 33  1  0  0  0  0
 33 71  1  0  0  0  0
 33 72  1  0  0  0  0
 33 73  1  0  0  0  0
M  END
> <PUBCHEM_COMPOUND_CID>
38030608

> <PUBCHEM_CONFORMER_RMSD>
1.2

> <PUBCHEM_CONFORMER_DIVERSEORDER>
1
80
120
84
60
126
157
67
51
52
111
124
50
148
49
139
44
74
119
32
116
142
91
133
53
64
103
131
136
37
161
54
11
135
20
149
121
29
154
56
87
105
109
26
30
153
79
90
73
110
82
145
113
130
33
115
146
100
7
125
81
104
61
62
152
141
137
83
160
144
66
3
93
106
45
88
36
156
155
38
75
94
10
99
31
78
140
16
127
58
86
92
150
101
107
159
6
70
39
19
14
162
134
12
15
123
96
138
102
41
117
122
22
18
151
158
97
35
55
43
114
72
69
108
112
89
98
77
27
128
17
132
25
13
85
8
63
143
46
129
118
65
47
34
68
5
71
76
48
95
9
147
21
40
4
57
2
23
24
42
59
28

> <PUBCHEM_MMFF94_PARTIAL_CHARGES>
34
1 -0.28
10 0.14
12 -0.28
13 -0.29
14 0.27
15 0.18
18 0.14
19 0.3
2 -0.56
20 0.27
21 0.27
22 0.27
23 0.27
24 0.43
25 0.28
26 0.28
27 0.05
28 -0.15
29 -0.15
3 -0.9
30 -0.15
31 -0.15
32 -0.14
33 0.14
4 -0.81
40 0.15
5 -0.34
54 0.36
6 -0.34
67 0.15
68 0.15
69 0.15
70 0.15
8 0.14

> <PUBCHEM_EFFECTIVE_ROTOR_COUNT>
11

> <PUBCHEM_PHARMACOPHORE_FEATURES>
9
1 2 acceptor
1 3 cation
1 3 donor
1 4 cation
3 11 16 17 hydrophobe
5 1 5 6 19 24 rings
6 2 4 22 23 25 26 rings
6 27 28 29 30 31 32 rings
6 7 8 9 10 12 13 rings

> <PUBCHEM_HEAVY_ATOM_COUNT>
33

> <PUBCHEM_ATOM_DEF_STEREO_COUNT>
3

> <PUBCHEM_ATOM_UDEF_STEREO_COUNT>
0

> <PUBCHEM_BOND_DEF_STEREO_COUNT>
0

> <PUBCHEM_BOND_UDEF_STEREO_COUNT>
0

> <PUBCHEM_ISOTOPIC_ATOM_COUNT>
0

> <PUBCHEM_COMPONENT_COUNT>
1

> <PUBCHEM_CACTVS_TAUTO_COUNT>
1

> <PUBCHEM_CONFORMER_ID>
02444D1000000001

> <PUBCHEM_MMFF94_ENERGY>
57.7655

> <PUBCHEM_FEATURE_SELFOVERLAP>
45.671

> <PUBCHEM_SHAPE_FINGERPRINT>
10079526 769 18187943797740593582
10622 236 18339644541868546267
11135609 149 18195507406815601093
11478447 58 17764018465015536274
11607047 403 17911508011758828944
11963148 33 17121692620017366759
12977781 61 18194935600207747817
131258 38 17981599674262698798
13947947 140 18410863191571448839
14068700 675 18341899609919858874
14340393 91 17749096790728745471
14674994 50 18043246834215705749
14950920 106 18059855013878777832
15163728 17 8430319038921072552
15419009 47 18260822667067121221
15911013 46 18194120943753336898
16728300 4 18343301504916240279
16989713 51 18189619333524233534
19304671 126 15285921450124388807
19315092 285 18269560609756708301
19319366 153 17334494299147352333
20775530 9 17895195459342843264
21033648 29 15912781495978308297
21585480 29 18341890819008306882
22956985 138 18270112543657813832
25222932 49 16836291300242015111
32027 91 18342169016666338313
4017518 198 17401209971665528828
437795 70 17023447721427454847
484985 159 18192143794197322812
50080093 196 18117003178251528706
57527585 21 11272353758196238148
5776283 40 10953754321092563895
6201460 15 18196090173226990975
66674814 147 18113623425335659762
96874 4 18411418444589852610

> <PUBCHEM_SHAPE_MULTIPOLES>
647.46
16.81
6.89
2.49
19.26
1.71
1.53
33.09
-4.23
0.42
-0.63
-1.63
-2.68
-3.46

> <PUBCHEM_SHAPE_SELFOVERLAP>
1350.858

> <PUBCHEM_SHAPE_VOLUME>
367.6

> <PUBCHEM_COORDINATE_TYPE>
2
5
10

$$$$
