51136852
  -OEChem-12032416223D

 58 62  0     1  0  0  0  0  0999 V2000
   -1.2817    2.8421   -2.0596 F   0  0  0  0  0  0  0  0  0  0  0  0
   -1.2595    4.2168    0.3038 F   0  0  0  0  0  0  0  0  0  0  0  0
   -2.5635   -0.8493    2.0384 O   0  0  0  0  0  0  0  0  0  0  0  0
   -4.5257   -1.0698   -0.8685 N   0  0  1  0  0  0  0  0  0  0  0  0
    4.7470   -0.3201   -0.0301 N   0  0  0  0  0  0  0  0  0  0  0  0
    7.5775   -0.0907   -0.3388 N   0  0  0  0  0  0  0  0  0  0  0  0
   -1.5599   -1.4033    0.1142 N   0  0  0  0  0  0  0  0  0  0  0  0
   -1.2074   -0.5404    2.2035 N   0  0  0  0  0  0  0  0  0  0  0  0
    2.9194   -0.0798    1.4551 N   0  0  0  0  0  0  0  0  0  0  0  0
   -4.0762   -1.7678    0.3526 C   0  0  1  0  0  0  0  0  0  0  0  0
   -4.1685   -3.2647    0.0040 C   0  0  0  0  0  0  0  0  0  0  0  0
   -4.7360   -3.3101   -1.4077 C   0  0  0  0  0  0  0  0  0  0  0  0
   -5.4473   -1.9796   -1.5492 C   0  0  0  0  0  0  0  0  0  0  0  0
   -5.1343    0.2264   -0.5983 C   0  0  0  0  0  0  0  0  0  0  0  0
   -2.6847   -1.3522    0.7819 C   0  0  0  0  0  0  0  0  0  0  0  0
   -4.0990    1.2926   -0.3570 C   0  0  0  0  0  0  0  0  0  0  0  0
    5.5474   -1.5022   -0.3644 C   0  0  0  0  0  0  0  0  0  0  0  0
    5.4731    0.7734    0.6280 C   0  0  0  0  0  0  0  0  0  0  0  0
    6.8255   -1.0944   -1.1016 C   0  0  0  0  0  0  0  0  0  0  0  0
    6.7527    1.1078   -0.1420 C   0  0  0  0  0  0  0  0  0  0  0  0
    3.3820   -0.4609    0.2432 C   0  0  0  0  0  0  0  0  0  0  0  0
   -0.6822   -0.8949    1.0270 C   0  0  0  0  0  0  0  0  0  0  0  0
   -3.1510    1.5790   -1.3393 C   0  0  0  0  0  0  0  0  0  0  0  0
   -4.0879    1.9941    0.8485 C   0  0  0  0  0  0  0  0  0  0  0  0
    8.8219    0.2505   -1.0271 C   0  0  0  0  0  0  0  0  0  0  0  0
    0.7136   -0.7559    0.7324 C   0  0  0  0  0  0  0  0  0  0  0  0
    2.5854   -0.9897   -0.7597 C   0  0  0  0  0  0  0  0  0  0  0  0
    1.2268   -1.1366   -0.5026 C   0  0  0  0  0  0  0  0  0  0  0  0
    1.5938   -0.2377    1.6686 C   0  0  0  0  0  0  0  0  0  0  0  0
   -2.1920    2.5670   -1.1163 C   0  0  0  0  0  0  0  0  0  0  0  0
   -3.1287    2.9820    1.0717 C   0  0  0  0  0  0  0  0  0  0  0  0
   -2.1808    3.2684    0.0893 C   0  0  0  0  0  0  0  0  0  0  0  0
   -4.7708   -1.5832    1.1843 H   0  0  0  0  0  0  0  0  0  0  0  0
   -4.8630   -3.7608    0.6930 H   0  0  0  0  0  0  0  0  0  0  0  0
   -3.2111   -3.7943    0.0559 H   0  0  0  0  0  0  0  0  0  0  0  0
   -5.4056   -4.1621   -1.5573 H   0  0  0  0  0  0  0  0  0  0  0  0
   -3.9186   -3.3864   -2.1355 H   0  0  0  0  0  0  0  0  0  0  0  0
   -5.5916   -1.7106   -2.6001 H   0  0  0  0  0  0  0  0  0  0  0  0
   -6.4250   -2.0161   -1.0519 H   0  0  0  0  0  0  0  0  0  0  0  0
   -5.7116    0.5570   -1.4734 H   0  0  0  0  0  0  0  0  0  0  0  0
   -5.8569    0.1721    0.2265 H   0  0  0  0  0  0  0  0  0  0  0  0
    4.9938   -2.2014   -1.0012 H   0  0  0  0  0  0  0  0  0  0  0  0
    5.7995   -2.0388    0.5594 H   0  0  0  0  0  0  0  0  0  0  0  0
    5.7162    0.4861    1.6591 H   0  0  0  0  0  0  0  0  0  0  0  0
    4.8528    1.6775    0.6703 H   0  0  0  0  0  0  0  0  0  0  0  0
    7.4388   -1.9923   -1.2456 H   0  0  0  0  0  0  0  0  0  0  0  0
    6.5676   -0.7115   -2.0984 H   0  0  0  0  0  0  0  0  0  0  0  0
    7.3111    1.8582    0.4308 H   0  0  0  0  0  0  0  0  0  0  0  0
    6.4919    1.5616   -1.1077 H   0  0  0  0  0  0  0  0  0  0  0  0
    9.4534   -0.6376   -1.1417 H   0  0  0  0  0  0  0  0  0  0  0  0
    8.6439    0.6776   -2.0207 H   0  0  0  0  0  0  0  0  0  0  0  0
    9.4001    0.9726   -0.4399 H   0  0  0  0  0  0  0  0  0  0  0  0
   -3.1493    1.0443   -2.2854 H   0  0  0  0  0  0  0  0  0  0  0  0
   -4.8188    1.7802    1.6236 H   0  0  0  0  0  0  0  0  0  0  0  0
    2.9818   -1.2726   -1.7294 H   0  0  0  0  0  0  0  0  0  0  0  0
    0.5917   -1.5465   -1.2836 H   0  0  0  0  0  0  0  0  0  0  0  0
    1.2738    0.0833    2.6555 H   0  0  0  0  0  0  0  0  0  0  0  0
   -3.1188    3.5275    2.0106 H   0  0  0  0  0  0  0  0  0  0  0  0
  1 30  1  0  0  0  0
  2 32  1  0  0  0  0
  3  8  1  0  0  0  0
  3 15  1  0  0  0  0
  4 10  1  0  0  0  0
  4 13  1  0  0  0  0
  4 14  1  0  0  0  0
  5 17  1  0  0  0  0
  5 18  1  0  0  0  0
  5 21  1  0  0  0  0
  6 19  1  0  0  0  0
  6 20  1  0  0  0  0
  6 25  1  0  0  0  0
  7 15  2  0  0  0  0
  7 22  1  0  0  0  0
  8 22  2  0  0  0  0
  9 21  2  0  0  0  0
  9 29  1  0  0  0  0
 10 11  1  0  0  0  0
 10 15  1  0  0  0  0
 10 33  1  0  0  0  0
 11 12  1  0  0  0  0
 11 34  1  0  0  0  0
 11 35  1  0  0  0  0
 12 13  1  0  0  0  0
 12 36  1  0  0  0  0
 12 37  1  0  0  0  0
 13 38  1  0  0  0  0
 13 39  1  0  0  0  0
 14 16  1  0  0  0  0
 14 40  1  0  0  0  0
 14 41  1  0  0  0  0
 16 23  2  0  0  0  0
 16 24  1  0  0  0  0
 17 19  1  0  0  0  0
 17 42  1  0  0  0  0
 17 43  1  0  0  0  0
 18 20  1  0  0  0  0
 18 44  1  0  0  0  0
 18 45  1  0  0  0  0
 19 46  1  0  0  0  0
 19 47  1  0  0  0  0
 20 48  1  0  0  0  0
 20 49  1  0  0  0  0
 21 27  1  0  0  0  0
 22 26  1  0  0  0  0
 23 30  1  0  0  0  0
 23 53  1  0  0  0  0
 24 31  2  0  0  0  0
 24 54  1  0  0  0  0
 25 50  1  0  0  0  0
 25 51  1  0  0  0  0
 25 52  1  0  0  0  0
 26 28  1  0  0  0  0
 26 29  2  0  0  0  0
 27 28  2  0  0  0  0
 27 55  1  0  0  0  0
 28 56  1  0  0  0  0
 29 57  1  0  0  0  0
 30 32  2  0  0  0  0
 31 32  1  0  0  0  0
 31 58  1  0  0  0  0
M  END
> <PUBCHEM_COMPOUND_CID>
51136852

> <PUBCHEM_CONFORMER_RMSD>
1

> <PUBCHEM_CONFORMER_DIVERSEORDER>
1
39
97
183
108
184
170
41
169
55
21
45
111
144
120
164
76
8
179
130
185
60
143
147
100
59
148
66
124
146
174
165
77
137
23
10
31
33
101
15
35
25
109
89
22
88
152
134
36
136
28
79
64
178
24
14
11
132
57
106
131
34
78
127
156
54
17
163
159
94
18
154
73
13
122
117
74
87
53
160
84
182
37
140
126
19
51
121
2
43
12
27
86
166
91
47
63
48
4
71
171
135
129
26
155
38
103
125
44
158
173
128
82
9
102
112
99
42
172
40
123
110
62
118
149
142
61
141
167
98
29
72
30
20
161
92
95
93
7
75
70
107
175
138
16
133
6
96
32
168
151
153
81
52
139
157
177
162
68
145
50
113
180
65
67
58
49
119
115
114
46
176
116
90
80
150
3
104
85
69
83
56
181
105
5

> <PUBCHEM_MMFF94_PARTIAL_CHARGES>
36
1 -0.19
10 0.45
13 0.27
14 0.41
15 0.3
16 -0.14
17 0.37
18 0.37
19 0.27
2 -0.19
20 0.27
21 0.41
22 0.46
23 -0.15
24 -0.15
25 0.27
26 0.05
27 -0.15
28 -0.15
29 0.16
3 -0.02
30 0.19
31 -0.15
32 0.19
4 -0.81
5 -0.84
53 0.15
54 0.15
55 0.15
56 0.15
57 0.15
58 0.15
6 -0.81
7 -0.57
8 -0.41
9 -0.62

> <PUBCHEM_EFFECTIVE_ROTOR_COUNT>
7.2

> <PUBCHEM_PHARMACOPHORE_FEATURES>
9
1 4 cation
1 6 cation
3 5 9 21 cation
3 7 8 22 cation
5 3 7 8 15 22 rings
5 4 10 11 12 13 rings
6 16 23 24 30 31 32 rings
6 5 6 17 18 19 20 rings
6 9 21 26 27 28 29 rings

> <PUBCHEM_HEAVY_ATOM_COUNT>
32

> <PUBCHEM_ATOM_DEF_STEREO_COUNT>
1

> <PUBCHEM_ATOM_UDEF_STEREO_COUNT>
0

> <PUBCHEM_BOND_DEF_STEREO_COUNT>
0

> <PUBCHEM_BOND_UDEF_STEREO_COUNT>
0

> <PUBCHEM_ISOTOPIC_ATOM_COUNT>
0

> <PUBCHEM_COMPONENT_COUNT>
1

> <PUBCHEM_CACTVS_TAUTO_COUNT>
1

> <PUBCHEM_CONFORMER_ID>
030C495400000001

> <PUBCHEM_MMFF94_ENERGY>
74.5371

> <PUBCHEM_FEATURE_SELFOVERLAP>
45.676

> <PUBCHEM_SHAPE_FINGERPRINT>
10087517 78 18186522085976546668
10165383 225 17987805103853418193
10291535 26 18333740095717988225
10454371 7 18410015425150901060
10670039 82 18334010593022066488
11101153 10 18265618856508591076
11135926 11 15410900631010013126
11477941 20 18410848888976405828
11524674 6 8070033259080162969
11578080 2 18057054514143070382
12082328 90 18059857243050732382
12655364 131 15503473986609597248
13761468 95 17826791439111689821
13782708 43 17917994997102851206
13947920 75 18186516600876008955
14713325 29 18342176631522236087
15183329 4 18260545602942487410
15419008 47 18131064961439413384
15461852 350 18342463651839497830
15604295 49 18268711779557259300
15876981 60 18334862748793072725
17492 54 17897420858694043373
17686467 74 18264205992914828720
20771845 65 17772473650083358979
20775438 99 17041455784919294711
21033650 10 18335702715093685115
21236236 1 18335703823458899852
21779490 97 17970044807730353738
21927370 108 17968954088337586323
255183 451 17907289207234484959
4098825 35 18272375217821705138
4169191 19 16950861314057616350
469060 322 17532111448654152129
497634 4 17775010093504168595
531348 171 18341895126016913994
563151 97 18187644670058328234
58260988 114 14548443804582121999
5969126 39 18413106194811245191
6608658 132 18040988531789424156
7237137 82 18411136930984024160

> <PUBCHEM_SHAPE_MULTIPOLES>
608.24
18.48
3.77
1.61
43.35
2.38
0.22
-4.33
-6.91
-7.52
-0.85
-0.91
0.03
-0.36

> <PUBCHEM_SHAPE_SELFOVERLAP>
1319.32

> <PUBCHEM_SHAPE_VOLUME>
335.5

> <PUBCHEM_COORDINATE_TYPE>
2
5
10

$$$$
