7050317
  -OEChem-12032416123D

 40 42  0     1  0  0  0  0  0999 V2000
   -7.3088   -1.2621    0.3494 Cl  0  0  0  0  0  0  0  0  0  0  0  0
   -2.4619   -2.3008    0.2671 O   0  0  0  0  0  0  0  0  0  0  0  0
   -3.7607    1.8556   -1.2366 O   0  0  0  0  0  0  0  0  0  0  0  0
    2.7642   -0.2592    2.3090 O   0  0  0  0  0  0  0  0  0  0  0  0
   -1.6949    0.9748   -0.5704 N   0  0  0  0  0  0  0  0  0  0  0  0
   -3.4688   -0.3675   -0.5762 N   0  0  0  0  0  0  0  0  0  0  0  0
    1.6696    0.7208    0.5430 N   0  0  0  0  0  0  0  0  0  0  0  0
    6.0221   -0.7365   -1.4761 N   0  0  0  0  0  0  0  0  0  0  0  0
   -1.1618   -0.2885   -0.1126 C   0  0  1  0  0  0  0  0  0  0  0  0
   -0.5220   -0.1370    1.2627 C   0  0  0  0  0  0  0  0  0  0  0  0
    0.4740    1.0360    1.2923 C   0  0  2  0  0  0  0  0  0  0  0  0
   -0.1773    2.3316    0.7733 C   0  0  0  0  0  0  0  0  0  0  0  0
   -0.8369    2.1446   -0.5945 C   0  0  0  0  0  0  0  0  0  0  0  0
   -2.4247   -1.1347   -0.1030 C   0  0  0  0  0  0  0  0  0  0  0  0
   -3.0612    0.9282   -0.8495 C   0  0  0  0  0  0  0  0  0  0  0  0
   -4.8332   -0.8353   -0.7178 C   0  0  0  0  0  0  0  0  0  0  0  0
    2.7605    0.0768    1.1233 C   0  0  0  0  0  0  0  0  0  0  0  0
   -5.6414   -0.6724    0.5586 C   0  0  0  0  0  0  0  0  0  0  0  0
    3.8886   -0.2043    0.2242 C   0  0  0  0  0  0  0  0  0  0  0  0
    5.1665   -0.3022    0.7431 C   0  0  0  0  0  0  0  0  0  0  0  0
    3.6581   -0.3678   -1.1292 C   0  0  0  0  0  0  0  0  0  0  0  0
    6.1955   -0.5687   -0.1458 C   0  0  0  0  0  0  0  0  0  0  0  0
    4.7545   -0.6315   -1.9343 C   0  0  0  0  0  0  0  0  0  0  0  0
   -0.4645   -0.6702   -0.8656 H   0  0  0  0  0  0  0  0  0  0  0  0
   -0.0335   -1.0758    1.5505 H   0  0  0  0  0  0  0  0  0  0  0  0
   -1.3021    0.0482    2.0136 H   0  0  0  0  0  0  0  0  0  0  0  0
    0.7708    1.2042    2.3349 H   0  0  0  0  0  0  0  0  0  0  0  0
   -0.9456    2.6442    1.4925 H   0  0  0  0  0  0  0  0  0  0  0  0
    0.5610    3.1401    0.7182 H   0  0  0  0  0  0  0  0  0  0  0  0
   -0.0875    1.9899   -1.3776 H   0  0  0  0  0  0  0  0  0  0  0  0
   -1.4259    3.0281   -0.8605 H   0  0  0  0  0  0  0  0  0  0  0  0
    1.6952    1.0015   -0.4308 H   0  0  0  0  0  0  0  0  0  0  0  0
   -4.8006   -1.8932   -1.0035 H   0  0  0  0  0  0  0  0  0  0  0  0
   -5.3061   -0.2755   -1.5331 H   0  0  0  0  0  0  0  0  0  0  0  0
   -5.1915   -1.2335    1.3838 H   0  0  0  0  0  0  0  0  0  0  0  0
   -5.6952    0.3790    0.8579 H   0  0  0  0  0  0  0  0  0  0  0  0
    5.3763   -0.1751    1.7993 H   0  0  0  0  0  0  0  0  0  0  0  0
    2.6754   -0.3362   -1.5844 H   0  0  0  0  0  0  0  0  0  0  0  0
    7.2201   -0.6560    0.2006 H   0  0  0  0  0  0  0  0  0  0  0  0
    4.6369   -0.7781   -3.0029 H   0  0  0  0  0  0  0  0  0  0  0  0
  1 18  1  0  0  0  0
  2 14  2  0  0  0  0
  3 15  2  0  0  0  0
  4 17  2  0  0  0  0
  5  9  1  0  0  0  0
  5 13  1  0  0  0  0
  5 15  1  0  0  0  0
  6 14  1  0  0  0  0
  6 15  1  0  0  0  0
  6 16  1  0  0  0  0
  7 11  1  0  0  0  0
  7 17  1  0  0  0  0
  7 32  1  0  0  0  0
  8 22  2  0  0  0  0
  8 23  1  0  0  0  0
  9 10  1  0  0  0  0
  9 14  1  0  0  0  0
  9 24  1  0  0  0  0
 10 11  1  0  0  0  0
 10 25  1  0  0  0  0
 10 26  1  0  0  0  0
 11 12  1  0  0  0  0
 11 27  1  0  0  0  0
 12 13  1  0  0  0  0
 12 28  1  0  0  0  0
 12 29  1  0  0  0  0
 13 30  1  0  0  0  0
 13 31  1  0  0  0  0
 16 18  1  0  0  0  0
 16 33  1  0  0  0  0
 16 34  1  0  0  0  0
 17 19  1  0  0  0  0
 18 35  1  0  0  0  0
 18 36  1  0  0  0  0
 19 20  2  0  0  0  0
 19 21  1  0  0  0  0
 20 22  1  0  0  0  0
 20 37  1  0  0  0  0
 21 23  2  0  0  0  0
 21 38  1  0  0  0  0
 22 39  1  0  0  0  0
 23 40  1  0  0  0  0
M  END
> <PUBCHEM_COMPOUND_CID>
7050317

> <PUBCHEM_CONFORMER_RMSD>
0.8

> <PUBCHEM_CONFORMER_DIVERSEORDER>
1
16
17
29
13
28
4
15
27
26
25
7
14
3
21
10
12
5
18
24
6
9
8
22
2
20
19
23
11

> <PUBCHEM_MMFF94_PARTIAL_CHARGES>
26
1 -0.29
11 0.3
13 0.3
14 0.57
15 0.69
16 0.3
17 0.54
18 0.29
19 0.09
2 -0.57
20 -0.15
21 -0.15
22 0.16
23 0.16
3 -0.57
32 0.37
37 0.15
38 0.15
39 0.15
4 -0.57
40 0.15
5 -0.66
6 -0.42
7 -0.73
8 -0.62
9 0.36

> <PUBCHEM_EFFECTIVE_ROTOR_COUNT>
6

> <PUBCHEM_PHARMACOPHORE_FEATURES>
8
1 2 acceptor
1 3 acceptor
1 4 acceptor
1 7 donor
1 8 acceptor
5 5 6 9 14 15 rings
6 5 9 10 11 12 13 rings
6 8 19 20 21 22 23 rings

> <PUBCHEM_HEAVY_ATOM_COUNT>
23

> <PUBCHEM_ATOM_DEF_STEREO_COUNT>
2

> <PUBCHEM_ATOM_UDEF_STEREO_COUNT>
0

> <PUBCHEM_BOND_DEF_STEREO_COUNT>
0

> <PUBCHEM_BOND_UDEF_STEREO_COUNT>
0

> <PUBCHEM_ISOTOPIC_ATOM_COUNT>
0

> <PUBCHEM_COMPONENT_COUNT>
1

> <PUBCHEM_CACTVS_TAUTO_COUNT>
2

> <PUBCHEM_CONFORMER_ID>
006B944D00000001

> <PUBCHEM_MMFF94_ENERGY>
40.8625

> <PUBCHEM_FEATURE_SELFOVERLAP>
40.709

> <PUBCHEM_SHAPE_FINGERPRINT>
11128504 68 17167581604936611268
12236239 1 17095518474506575070
12633257 1 11383829398161308370
12788726 201 18114738244205454721
13402501 40 17989209248204770118
13533116 47 16343703252809018778
13544653 18 16917065551686747728
13685833 64 17847064393223143190
13914758 101 14117518689087251665
14251732 14 18040435503542785289
14251764 18 14476957904797840897
14251764 30 18342176674287201819
14386348 63 17989203750793875598
14617045 38 18412265034125375491
14767858 380 17022902371812148763
15527383 91 16200151006302092200
15537594 2 18260821618562571651
1813 80 18341897402301874229
19141452 34 17346594222568261799
20157964 124 13623521347146999264
20403669 9 18060702780113974470
20645477 70 17489580191165086426
20871999 31 18187363216234089761
21267235 1 18334295383650232635
21521721 280 14345798245310994705
2297311 6 18409449185236381765
23016692 55 18334857238350102583
23175994 123 17774999111584191409
23557571 272 18343577426647832504
23559900 14 18341884200289785928
23622692 88 12751239207630412880
2838139 119 13839977811724148270
2871803 45 17988925531718964382
3004659 81 18408044030982731036
345986 75 15051176658461724354
34797466 226 18340493348219020148
351380 180 8214142958213811098
4072396 5 12391520788838004129
4325135 7 15285358440220993451
437815 12 18202567306521074315
474 4 15213023743656803808
5104073 3 16486693533901701610
5207 217 14634874167030811913
59755656 215 18343299246032285559

> <PUBCHEM_SHAPE_MULTIPOLES>
437.67
15.45
1.78
1.53
1.97
0.73
-0.08
-8.58
2
1.4
0.19
-1.31
0.08
1.55

> <PUBCHEM_SHAPE_SELFOVERLAP>
922.153

> <PUBCHEM_SHAPE_VOLUME>
247

> <PUBCHEM_COORDINATE_TYPE>
2
5
10

$$$$
