75536521
  -OEChem-12032416313D

 55 56  0     1  0  0  0  0  0999 V2000
    1.8714    0.1789    0.0407 O   0  0  0  0  0  0  0  0  0  0  0  0
    0.2326   -2.9941    0.4304 O   0  0  0  0  0  0  0  0  0  0  0  0
    4.1578    0.6124   -1.9117 O   0  0  0  0  0  0  0  0  0  0  0  0
   -7.8631    0.6987   -0.7485 O   0  0  0  0  0  0  0  0  0  0  0  0
   -1.6947   -0.5371    0.0768 N   0  0  0  0  0  0  0  0  0  0  0  0
    4.2413   -1.3232   -0.6283 N   0  0  0  0  0  0  0  0  0  0  0  0
   -0.3138   -0.6165    0.5244 C   0  0  1  0  0  0  0  0  0  0  0  0
    0.4798   -1.7247   -0.1424 C   0  0  1  0  0  0  0  0  0  0  0  0
    1.9066   -1.2563    0.1097 C   0  0  1  0  0  0  0  0  0  0  0  0
    0.5025    0.6082    0.1450 C   0  0  0  0  0  0  0  0  0  0  0  0
    2.9029   -1.7946   -0.9017 C   0  0  0  0  0  0  0  0  0  0  0  0
    6.3273    0.9931    0.5404 C   0  0  0  0  0  0  0  0  0  0  0  0
   -2.4892    0.2977    0.9699 C   0  0  0  0  0  0  0  0  0  0  0  0
    6.1892    0.1157   -0.7265 C   0  0  0  0  0  0  0  0  0  0  0  0
    4.7573   -0.1535   -1.1597 C   0  0  0  0  0  0  0  0  0  0  0  0
    7.8057    1.2243    0.8955 C   0  0  0  0  0  0  0  0  0  0  0  0
    5.6090    0.3615    1.7440 C   0  0  0  0  0  0  0  0  0  0  0  0
    5.6773    2.3596    0.2476 C   0  0  0  0  0  0  0  0  0  0  0  0
   -3.9195    0.4050    0.5125 C   0  0  0  0  0  0  0  0  0  0  0  0
   -4.9157   -0.3235    1.1626 C   0  0  0  0  0  0  0  0  0  0  0  0
   -4.2488    1.2323   -0.5613 C   0  0  0  0  0  0  0  0  0  0  0  0
   -6.2411   -0.2246    0.7391 C   0  0  0  0  0  0  0  0  0  0  0  0
   -5.5740    1.3313   -0.9849 C   0  0  0  0  0  0  0  0  0  0  0  0
   -6.5701    0.6028   -0.3346 C   0  0  0  0  0  0  0  0  0  0  0  0
   -8.8308   -0.0734   -0.0389 C   0  0  0  0  0  0  0  0  0  0  0  0
   -0.2755   -0.7782    1.6111 H   0  0  0  0  0  0  0  0  0  0  0  0
    0.2632   -1.7735   -1.2169 H   0  0  0  0  0  0  0  0  0  0  0  0
    2.2349   -1.5265    1.1221 H   0  0  0  0  0  0  0  0  0  0  0  0
    0.2164    1.0135   -0.8324 H   0  0  0  0  0  0  0  0  0  0  0  0
    0.4303    1.4105    0.8855 H   0  0  0  0  0  0  0  0  0  0  0  0
    2.9304   -2.8886   -0.8759 H   0  0  0  0  0  0  0  0  0  0  0  0
    2.6315   -1.4768   -1.9148 H   0  0  0  0  0  0  0  0  0  0  0  0
   -2.0940   -1.4761    0.0607 H   0  0  0  0  0  0  0  0  0  0  0  0
    4.8170   -1.8832   -0.0065 H   0  0  0  0  0  0  0  0  0  0  0  0
   -2.0756    1.3128    1.0260 H   0  0  0  0  0  0  0  0  0  0  0  0
   -2.4632   -0.1025    1.9919 H   0  0  0  0  0  0  0  0  0  0  0  0
    0.4256   -2.9429    1.3819 H   0  0  0  0  0  0  0  0  0  0  0  0
    6.6988   -0.8437   -0.5677 H   0  0  0  0  0  0  0  0  0  0  0  0
    6.7019    0.5882   -1.5747 H   0  0  0  0  0  0  0  0  0  0  0  0
    7.9109    1.8695    1.7748 H   0  0  0  0  0  0  0  0  0  0  0  0
    8.3406    1.6997    0.0657 H   0  0  0  0  0  0  0  0  0  0  0  0
    8.3070    0.2751    1.1149 H   0  0  0  0  0  0  0  0  0  0  0  0
    5.9857   -0.6485    1.9396 H   0  0  0  0  0  0  0  0  0  0  0  0
    5.7693    0.9551    2.6516 H   0  0  0  0  0  0  0  0  0  0  0  0
    4.5267    0.2980    1.5926 H   0  0  0  0  0  0  0  0  0  0  0  0
    6.1117    2.8242   -0.6448 H   0  0  0  0  0  0  0  0  0  0  0  0
    5.8302    3.0510    1.0849 H   0  0  0  0  0  0  0  0  0  0  0  0
    4.5956    2.2796    0.0969 H   0  0  0  0  0  0  0  0  0  0  0  0
   -4.6724   -0.9734    1.9990 H   0  0  0  0  0  0  0  0  0  0  0  0
   -3.4813    1.8050   -1.0754 H   0  0  0  0  0  0  0  0  0  0  0  0
   -6.9641   -0.8181    1.2881 H   0  0  0  0  0  0  0  0  0  0  0  0
   -5.8244    1.9773   -1.8219 H   0  0  0  0  0  0  0  0  0  0  0  0
   -9.8037    0.1241   -0.5009 H   0  0  0  0  0  0  0  0  0  0  0  0
   -8.9051    0.2385    1.0084 H   0  0  0  0  0  0  0  0  0  0  0  0
   -8.6412   -1.1474   -0.1399 H   0  0  0  0  0  0  0  0  0  0  0  0
  1  9  1  0  0  0  0
  1 10  1  0  0  0  0
  2  8  1  0  0  0  0
  2 37  1  0  0  0  0
  3 15  2  0  0  0  0
  4 24  1  0  0  0  0
  4 25  1  0  0  0  0
  5  7  1  0  0  0  0
  5 13  1  0  0  0  0
  5 33  1  0  0  0  0
  6 11  1  0  0  0  0
  6 15  1  0  0  0  0
  6 34  1  0  0  0  0
  7  8  1  0  0  0  0
  7 10  1  0  0  0  0
  7 26  1  0  0  0  0
  8  9  1  0  0  0  0
  8 27  1  0  0  0  0
  9 11  1  0  0  0  0
  9 28  1  0  0  0  0
 10 29  1  0  0  0  0
 10 30  1  0  0  0  0
 11 31  1  0  0  0  0
 11 32  1  0  0  0  0
 12 14  1  0  0  0  0
 12 16  1  0  0  0  0
 12 17  1  0  0  0  0
 12 18  1  0  0  0  0
 13 19  1  0  0  0  0
 13 35  1  0  0  0  0
 13 36  1  0  0  0  0
 14 15  1  0  0  0  0
 14 38  1  0  0  0  0
 14 39  1  0  0  0  0
 16 40  1  0  0  0  0
 16 41  1  0  0  0  0
 16 42  1  0  0  0  0
 17 43  1  0  0  0  0
 17 44  1  0  0  0  0
 17 45  1  0  0  0  0
 18 46  1  0  0  0  0
 18 47  1  0  0  0  0
 18 48  1  0  0  0  0
 19 20  2  0  0  0  0
 19 21  1  0  0  0  0
 20 22  1  0  0  0  0
 20 49  1  0  0  0  0
 21 23  2  0  0  0  0
 21 50  1  0  0  0  0
 22 24  2  0  0  0  0
 22 51  1  0  0  0  0
 23 24  1  0  0  0  0
 23 52  1  0  0  0  0
 25 53  1  0  0  0  0
 25 54  1  0  0  0  0
 25 55  1  0  0  0  0
M  END
> <PUBCHEM_COMPOUND_CID>
75536521

> <PUBCHEM_CONFORMER_RMSD>
1

> <PUBCHEM_CONFORMER_DIVERSEORDER>
1
128
151
120
31
163
16
76
134
183
93
135
171
90
125
70
102
41
133
58
132
25
188
123
145
88
63
81
153
40
52
108
165
80
55
103
138
148
101
62
28
68
116
37
78
99
61
83
106
33
181
71
182
117
115
44
160
23
35
167
82
175
96
26
126
154
109
158
18
189
13
79
155
121
140
57
20
180
2
32
67
144
113
56
87
136
30
66
73
42
97
75
146
104
19
77
53
111
173
161
27
156
139
150
141
184
152
17
100
162
14
47
84
10
12
59
178
51
122
15
177
105
110
46
131
50
149
174
114
159
137
34
187
119
39
29
185
6
74
65
64
112
89
22
91
11
9
38
85
179
176
124
24
49
170
95
54
129
186
60
168
107
69
5
98
48
4
21
157
7
36
130
86
8
142
166
118
43
147
127
94
92
169
72
164
45
172
143
3

> <PUBCHEM_MMFF94_PARTIAL_CHARGES>
28
1 -0.56
10 0.28
11 0.3
13 0.41
14 0.06
15 0.57
19 -0.14
2 -0.68
20 -0.15
21 -0.15
22 -0.15
23 -0.15
24 0.08
25 0.28
3 -0.57
33 0.36
34 0.37
37 0.4
4 -0.36
49 0.15
5 -0.9
50 0.15
51 0.15
52 0.15
6 -0.73
7 0.27
8 0.28
9 0.28

> <PUBCHEM_EFFECTIVE_ROTOR_COUNT>
10

> <PUBCHEM_PHARMACOPHORE_FEATURES>
11
1 1 acceptor
1 2 acceptor
1 2 donor
1 3 acceptor
1 4 acceptor
1 5 cation
1 5 donor
1 6 donor
4 12 16 17 18 hydrophobe
5 1 7 8 9 10 rings
6 19 20 21 22 23 24 rings

> <PUBCHEM_HEAVY_ATOM_COUNT>
25

> <PUBCHEM_ATOM_DEF_STEREO_COUNT>
3

> <PUBCHEM_ATOM_UDEF_STEREO_COUNT>
0

> <PUBCHEM_BOND_DEF_STEREO_COUNT>
0

> <PUBCHEM_BOND_UDEF_STEREO_COUNT>
0

> <PUBCHEM_ISOTOPIC_ATOM_COUNT>
0

> <PUBCHEM_COMPONENT_COUNT>
1

> <PUBCHEM_CACTVS_TAUTO_COUNT>
2

> <PUBCHEM_CONFORMER_ID>
0480988900000001

> <PUBCHEM_MMFF94_ENERGY>
65.3471

> <PUBCHEM_FEATURE_SELFOVERLAP>
55.822

> <PUBCHEM_SHAPE_FINGERPRINT>
10 15 18186519920980440672
10299344 5 14333410047526301973
10638233 991 16917349238133701601
10666366 153 9295296023635850163
11315181 36 17632860829094673747
11719270 70 18187082832295578370
12516196 113 18413108342833203653
12592606 108 8790878580536130369
13673619 4 12175619564637723811
13685833 64 8862943879423153136
13914758 101 12973597825293379807
14117953 113 18343027714295502364
14123256 10 17560799935245599769
14170010 4 18272370884162825736
14216079 64 10665220449982773456
14251764 18 16008750216698329171
14344974 204 9582357657973468333
14347424 109 12973891420552047718
14461889 52 18113345227471698043
14617045 38 12391514174219655772
14681490 219 16988844969087936912
14767858 380 17275105028855003088
15183329 4 17385449799557825581
15352257 5 11384111951333312885
20157964 124 18273498957924221006
20554085 129 17748821925632830601
21150785 3 17060337426901752309
21267235 1 9223232948665829051
21521721 280 18202288000028464803
220451 1 14261354630904840095
22224240 67 18333168375621053379
23016692 55 11383832666958130378
23081809 10 16773522066359626323
23424782 7 18130786806714975895
23522609 53 15625685863013177683
246663 6 10447930581071384496
28498 318 8646773287758586171
335352 9 18272942609868270926
34797466 226 16917353623485259820
4325135 7 15698282213685830144
4340502 62 18335141986234733334
439807 62 10087652502903973824
465052 167 8862941676358163992

> <PUBCHEM_SHAPE_MULTIPOLES>
481.05
24.9
1.85
1.24
17.87
0.69
-0.05
-11.08
-0.12
-2.15
-0.04
-0.95
-0.12
1.58

> <PUBCHEM_SHAPE_SELFOVERLAP>
981.702

> <PUBCHEM_SHAPE_VOLUME>
280.9

> <PUBCHEM_COORDINATE_TYPE>
2
5
10

$$$$
