51137101
  -OEChem-12032416223D

 48 51  0     1  0  0  0  0  0999 V2000
    8.4434   -0.5049   -0.0772 F   0  0  0  0  0  0  0  0  0  0  0  0
   -0.9716   -0.2406   -0.2332 N   0  0  1  0  0  0  0  0  0  0  0  0
    3.6571   -1.2977    0.4120 N   0  0  0  0  0  0  0  0  0  0  0  0
    3.1158    0.8182    0.0002 N   0  0  0  0  0  0  0  0  0  0  0  0
   -7.3341   -0.1045    0.3608 N   0  0  0  0  0  0  0  0  0  0  0  0
    1.2042   -0.7684    0.4643 C   0  0  1  0  0  0  0  0  0  0  0  0
    0.4691   -0.0226    1.5915 C   0  0  0  0  0  0  0  0  0  0  0  0
    0.3559   -0.5124   -0.7886 C   0  0  0  0  0  0  0  0  0  0  0  0
   -0.7283    0.6324    0.9152 C   0  0  0  0  0  0  0  0  0  0  0  0
    2.6532   -0.3785    0.2846 C   0  0  0  0  0  0  0  0  0  0  0  0
   -1.8683    0.3630   -1.2079 C   0  0  0  0  0  0  0  0  0  0  0  0
   -3.3108    0.2393   -0.7945 C   0  0  0  0  0  0  0  0  0  0  0  0
    4.8468   -0.6511    0.1952 C   0  0  0  0  0  0  0  0  0  0  0  0
    4.4823    0.6679   -0.0597 C   0  0  0  0  0  0  0  0  0  0  0  0
   -3.9741   -0.9800   -0.9320 C   0  0  0  0  0  0  0  0  0  0  0  0
   -3.9837    1.3444   -0.2732 C   0  0  0  0  0  0  0  0  0  0  0  0
    6.1701   -1.0935    0.1999 C   0  0  0  0  0  0  0  0  0  0  0  0
    5.4843    1.6159   -0.3276 C   0  0  0  0  0  0  0  0  0  0  0  0
   -5.3103   -1.0944   -0.5486 C   0  0  0  0  0  0  0  0  0  0  0  0
   -5.3200    1.2302    0.1102 C   0  0  0  0  0  0  0  0  0  0  0  0
   -5.9832    0.0109   -0.0275 C   0  0  0  0  0  0  0  0  0  0  0  0
    7.1545   -0.1367   -0.0687 C   0  0  0  0  0  0  0  0  0  0  0  0
    6.8199    1.1944   -0.3280 C   0  0  0  0  0  0  0  0  0  0  0  0
   -8.0399    1.0360    0.9104 C   0  0  0  0  0  0  0  0  0  0  0  0
   -8.0323   -1.3671    0.2225 C   0  0  0  0  0  0  0  0  0  0  0  0
    1.1591   -1.8420    0.6985 H   0  0  0  0  0  0  0  0  0  0  0  0
    0.1283   -0.7450    2.3438 H   0  0  0  0  0  0  0  0  0  0  0  0
    1.0931    0.7186    2.1019 H   0  0  0  0  0  0  0  0  0  0  0  0
    0.3486   -1.3867   -1.4487 H   0  0  0  0  0  0  0  0  0  0  0  0
    0.7342    0.3460   -1.3597 H   0  0  0  0  0  0  0  0  0  0  0  0
   -0.4642    1.6522    0.6069 H   0  0  0  0  0  0  0  0  0  0  0  0
   -1.5839    0.6825    1.5958 H   0  0  0  0  0  0  0  0  0  0  0  0
   -1.7712   -0.1546   -2.1729 H   0  0  0  0  0  0  0  0  0  0  0  0
   -1.6077    1.4093   -1.4176 H   0  0  0  0  0  0  0  0  0  0  0  0
    3.5464   -2.2798    0.6274 H   0  0  0  0  0  0  0  0  0  0  0  0
   -3.4599   -1.8480   -1.3367 H   0  0  0  0  0  0  0  0  0  0  0  0
   -3.4775    2.2993   -0.1595 H   0  0  0  0  0  0  0  0  0  0  0  0
    6.4276   -2.1270    0.4015 H   0  0  0  0  0  0  0  0  0  0  0  0
    5.2346    2.6524   -0.5302 H   0  0  0  0  0  0  0  0  0  0  0  0
   -5.7816   -2.0640   -0.6751 H   0  0  0  0  0  0  0  0  0  0  0  0
   -5.7987    2.1185    0.5101 H   0  0  0  0  0  0  0  0  0  0  0  0
    7.6074    1.9148   -0.5334 H   0  0  0  0  0  0  0  0  0  0  0  0
   -7.5683    1.3850    1.8359 H   0  0  0  0  0  0  0  0  0  0  0  0
   -8.0858    1.8588    0.1883 H   0  0  0  0  0  0  0  0  0  0  0  0
   -9.0763    0.7869    1.1642 H   0  0  0  0  0  0  0  0  0  0  0  0
   -8.0708   -1.6857   -0.8251 H   0  0  0  0  0  0  0  0  0  0  0  0
   -7.5597   -2.1490    0.8273 H   0  0  0  0  0  0  0  0  0  0  0  0
   -9.0711   -1.2949    0.5637 H   0  0  0  0  0  0  0  0  0  0  0  0
  1 22  1  0  0  0  0
  2  8  1  0  0  0  0
  2  9  1  0  0  0  0
  2 11  1  0  0  0  0
  3 10  1  0  0  0  0
  3 13  1  0  0  0  0
  3 35  1  0  0  0  0
  4 10  2  0  0  0  0
  4 14  1  0  0  0  0
  5 21  1  0  0  0  0
  5 24  1  0  0  0  0
  5 25  1  0  0  0  0
  6  7  1  0  0  0  0
  6  8  1  0  0  0  0
  6 10  1  0  0  0  0
  6 26  1  0  0  0  0
  7  9  1  0  0  0  0
  7 27  1  0  0  0  0
  7 28  1  0  0  0  0
  8 29  1  0  0  0  0
  8 30  1  0  0  0  0
  9 31  1  0  0  0  0
  9 32  1  0  0  0  0
 11 12  1  0  0  0  0
 11 33  1  0  0  0  0
 11 34  1  0  0  0  0
 12 15  2  0  0  0  0
 12 16  1  0  0  0  0
 13 14  2  0  0  0  0
 13 17  1  0  0  0  0
 14 18  1  0  0  0  0
 15 19  1  0  0  0  0
 15 36  1  0  0  0  0
 16 20  2  0  0  0  0
 16 37  1  0  0  0  0
 17 22  2  0  0  0  0
 17 38  1  0  0  0  0
 18 23  2  0  0  0  0
 18 39  1  0  0  0  0
 19 21  2  0  0  0  0
 19 40  1  0  0  0  0
 20 21  1  0  0  0  0
 20 41  1  0  0  0  0
 22 23  1  0  0  0  0
 23 42  1  0  0  0  0
 24 43  1  0  0  0  0
 24 44  1  0  0  0  0
 24 45  1  0  0  0  0
 25 46  1  0  0  0  0
 25 47  1  0  0  0  0
 25 48  1  0  0  0  0
M  END
> <PUBCHEM_COMPOUND_CID>
51137101

> <PUBCHEM_CONFORMER_RMSD>
0.8

> <PUBCHEM_CONFORMER_DIVERSEORDER>
1
39
49
46
18
45
37
36
28
9
47
26
32
13
17
30
40
20
31
33
5
43
22
34
2
41
50
29
44
21
35
10
16
15
4
3
42
27
11
12
14
6
24
8
7
19
23
25
48
38

> <PUBCHEM_MMFF94_PARTIAL_CHARGES>
32
1 -0.19
10 0.01
11 0.41
12 -0.14
13 -0.15
14 0.23
15 -0.15
16 -0.15
17 -0.15
18 -0.15
19 -0.15
2 -0.81
20 -0.15
21 0.1
22 0.19
23 -0.15
24 0.37
25 0.37
3 0.03
35 0.27
36 0.15
37 0.15
38 0.15
39 0.15
4 -0.57
40 0.15
41 0.15
42 0.15
5 -0.84
6 0.18
8 0.27
9 0.27

> <PUBCHEM_EFFECTIVE_ROTOR_COUNT>
5

> <PUBCHEM_PHARMACOPHORE_FEATURES>
8
1 2 cation
1 3 donor
1 5 cation
3 3 4 10 cation
5 2 6 7 8 9 rings
5 3 4 10 13 14 rings
6 12 15 16 19 20 21 rings
6 13 14 17 18 22 23 rings

> <PUBCHEM_HEAVY_ATOM_COUNT>
25

> <PUBCHEM_ATOM_DEF_STEREO_COUNT>
1

> <PUBCHEM_ATOM_UDEF_STEREO_COUNT>
0

> <PUBCHEM_BOND_DEF_STEREO_COUNT>
0

> <PUBCHEM_BOND_UDEF_STEREO_COUNT>
0

> <PUBCHEM_ISOTOPIC_ATOM_COUNT>
0

> <PUBCHEM_COMPONENT_COUNT>
1

> <PUBCHEM_CACTVS_TAUTO_COUNT>
2

> <PUBCHEM_CONFORMER_ID>
030C4A4D00000001

> <PUBCHEM_MMFF94_ENERGY>
66.8544

> <PUBCHEM_FEATURE_SELFOVERLAP>
40.705

> <PUBCHEM_SHAPE_FINGERPRINT>
10 15 18343867710839395551
10299344 5 18341894099851526479
10595046 47 18335980887245715272
106641 1 13984666971082482060
10670039 82 11311782744460326251
11315181 36 18407760336098856193
11524674 6 16200430304057731055
11638347 137 15574708080765948912
11646440 116 16805326586822786372
12166972 35 18260267456397165404
12236239 1 18272367573238470860
12516196 113 16225764116575261893
12730499 353 17749105570127441266
12838862 33 13758067455561724236
13533116 47 16805872997658497688
14123256 10 16660644050999763467
14251752 14 17775565329960024440
14251764 18 18201999941394123991
14251764 46 18410575080368131111
14849402 71 18261398913337873269
14856354 85 17989208174900172247
14933364 13 18411136930831212157
15183329 4 18343294860152946244
15419008 47 15430029980969131613
15461852 350 12324247165718894921
15716309 27 18408039607076849071
15849732 13 11891335352612892234
18006028 8 11959731572893493706
18335252 98 18411141328988759275
19489759 90 7853857200406972415
20157964 124 18261111877237310994
21095086 128 18407758144774264527
21150785 3 12468359054822114503
21267235 1 18411420609131433396
21315763 28 18335420153775110380
21521721 280 18259705622432900066
21792961 116 17632295623043900485
22224240 67 16732983136972770971
23035841 295 18343863320913411531
23516275 137 18200050438401696275
23536379 177 18412260623462260284
23569943 247 17025986334477578346
2747138 104 16877950442487264533
28498 318 12103570770776437512
29717793 49 17917715695853735556
335352 9 16415473861901942193
34797466 226 18341899597451681972
3545911 37 17822008709986720662
4073 2 18113622334646029514
4325135 7 18334575746019430077
5283156 175 17561367258372358142
5385378 56 15697731332964824047
5758199 1 18040716969570910994
59682541 35 16298391287638234541
59755656 215 14117525324310434157
59755656 520 18113893887995240818
6009941 240 12751232627598214341
9663363 56 15626219104603556187

> <PUBCHEM_SHAPE_MULTIPOLES>
487.29
25.57
1.36
0.98
2.99
0.13
-0.08
-0.01
-1.33
0.2
0.03
0.58
0.02
-0.83

> <PUBCHEM_SHAPE_SELFOVERLAP>
1060.232

> <PUBCHEM_SHAPE_VOLUME>
271.9

> <PUBCHEM_COORDINATE_TYPE>
2
5
10

$$$$
