45783826
  -OEChem-12032416263D

 53 56  0     1  0  0  0  0  0999 V2000
   -0.0434    1.5001   -1.3880 F   0  0  0  0  0  0  0  0  0  0  0  0
    1.2638    3.2439   -1.5494 F   0  0  0  0  0  0  0  0  0  0  0  0
   -0.8205    3.4093   -2.1850 F   0  0  0  0  0  0  0  0  0  0  0  0
   -1.3805   -2.0913    1.6286 O   0  0  0  0  0  0  0  0  0  0  0  0
   -0.3340    3.2590    0.0449 O   0  0  0  0  0  0  0  0  0  0  0  0
   -3.5400   -0.7876   -0.8179 N   0  0  1  0  0  0  0  0  0  0  0  0
   -0.5168   -1.5070   -0.3537 N   0  0  0  0  0  0  0  0  0  0  0  0
   -0.0133   -1.8786    1.8468 N   0  0  0  0  0  0  0  0  0  0  0  0
    4.0573   -0.9709    1.1998 N   0  0  0  0  0  0  0  0  0  0  0  0
    5.7927   -0.3271   -0.2999 N   0  0  0  0  0  0  0  0  0  0  0  0
   -3.0140   -2.0150   -0.1878 C   0  0  1  0  0  0  0  0  0  0  0  0
   -3.1438   -3.0988   -1.2739 C   0  0  0  0  0  0  0  0  0  0  0  0
   -3.8076   -2.4023   -2.4534 C   0  0  0  0  0  0  0  0  0  0  0  0
   -4.5148   -1.2219   -1.8187 C   0  0  0  0  0  0  0  0  0  0  0  0
   -4.1167    0.1477    0.1394 C   0  0  0  0  0  0  0  0  0  0  0  0
   -1.5925   -1.8516    0.3080 C   0  0  0  0  0  0  0  0  0  0  0  0
   -3.0575    0.9513    0.8459 C   0  0  0  0  0  0  0  0  0  0  0  0
   -2.1761    1.7432    0.1097 C   0  0  0  0  0  0  0  0  0  0  0  0
   -2.9569    0.9036    2.2363 C   0  0  0  0  0  0  0  0  0  0  0  0
    0.4263   -1.5371    0.6319 C   0  0  0  0  0  0  0  0  0  0  0  0
   -1.1943    2.4873    0.7638 C   0  0  0  0  0  0  0  0  0  0  0  0
   -1.9750    1.6475    2.8905 C   0  0  0  0  0  0  0  0  0  0  0  0
    1.8008   -1.2221    0.3692 C   0  0  0  0  0  0  0  0  0  0  0  0
   -1.0937    2.4396    2.1544 C   0  0  0  0  0  0  0  0  0  0  0  0
    2.2243   -0.8721   -0.9083 C   0  0  0  0  0  0  0  0  0  0  0  0
    2.7481   -1.2564    1.3796 C   0  0  0  0  0  0  0  0  0  0  0  0
    3.5632   -0.5716   -1.1328 C   0  0  0  0  0  0  0  0  0  0  0  0
    4.4317   -0.6350   -0.0551 C   0  0  0  0  0  0  0  0  0  0  0  0
    0.0011    2.8446   -1.2748 C   0  0  0  0  0  0  0  0  0  0  0  0
    6.7533   -0.3658    0.7805 C   0  0  0  0  0  0  0  0  0  0  0  0
    6.2288    0.0352   -1.6303 C   0  0  0  0  0  0  0  0  0  0  0  0
   -3.6480   -2.3217    0.6562 H   0  0  0  0  0  0  0  0  0  0  0  0
   -3.7938   -3.9054   -0.9130 H   0  0  0  0  0  0  0  0  0  0  0  0
   -2.1901   -3.5468   -1.5729 H   0  0  0  0  0  0  0  0  0  0  0  0
   -4.4937   -3.0629   -2.9915 H   0  0  0  0  0  0  0  0  0  0  0  0
   -3.0430   -2.0557   -3.1598 H   0  0  0  0  0  0  0  0  0  0  0  0
   -4.7287   -0.4391   -2.5530 H   0  0  0  0  0  0  0  0  0  0  0  0
   -5.4561   -1.5457   -1.3567 H   0  0  0  0  0  0  0  0  0  0  0  0
   -4.7502    0.8763   -0.3862 H   0  0  0  0  0  0  0  0  0  0  0  0
   -4.7810   -0.3583    0.8522 H   0  0  0  0  0  0  0  0  0  0  0  0
   -2.3047    1.7962   -0.9679 H   0  0  0  0  0  0  0  0  0  0  0  0
   -3.6351    0.2892    2.8224 H   0  0  0  0  0  0  0  0  0  0  0  0
   -1.8956    1.6091    3.9730 H   0  0  0  0  0  0  0  0  0  0  0  0
   -0.3302    3.0161    2.6694 H   0  0  0  0  0  0  0  0  0  0  0  0
    1.5331   -0.8257   -1.7460 H   0  0  0  0  0  0  0  0  0  0  0  0
    2.4998   -1.5193    2.4036 H   0  0  0  0  0  0  0  0  0  0  0  0
    3.8505   -0.3037   -2.1422 H   0  0  0  0  0  0  0  0  0  0  0  0
    6.4818    0.3482    1.5659 H   0  0  0  0  0  0  0  0  0  0  0  0
    6.8034   -1.3685    1.2190 H   0  0  0  0  0  0  0  0  0  0  0  0
    7.7634   -0.1090    0.4443 H   0  0  0  0  0  0  0  0  0  0  0  0
    6.0576   -0.7783   -2.3444 H   0  0  0  0  0  0  0  0  0  0  0  0
    5.7350    0.9492   -1.9794 H   0  0  0  0  0  0  0  0  0  0  0  0
    7.3050    0.2414   -1.6564 H   0  0  0  0  0  0  0  0  0  0  0  0
  1 29  1  0  0  0  0
  2 29  1  0  0  0  0
  3 29  1  0  0  0  0
  4  8  1  0  0  0  0
  4 16  1  0  0  0  0
  5 21  1  0  0  0  0
  5 29  1  0  0  0  0
  6 11  1  0  0  0  0
  6 14  1  0  0  0  0
  6 15  1  0  0  0  0
  7 16  2  0  0  0  0
  7 20  1  0  0  0  0
  8 20  2  0  0  0  0
  9 26  1  0  0  0  0
  9 28  2  0  0  0  0
 10 28  1  0  0  0  0
 10 30  1  0  0  0  0
 10 31  1  0  0  0  0
 11 12  1  0  0  0  0
 11 16  1  0  0  0  0
 11 32  1  0  0  0  0
 12 13  1  0  0  0  0
 12 33  1  0  0  0  0
 12 34  1  0  0  0  0
 13 14  1  0  0  0  0
 13 35  1  0  0  0  0
 13 36  1  0  0  0  0
 14 37  1  0  0  0  0
 14 38  1  0  0  0  0
 15 17  1  0  0  0  0
 15 39  1  0  0  0  0
 15 40  1  0  0  0  0
 17 18  2  0  0  0  0
 17 19  1  0  0  0  0
 18 21  1  0  0  0  0
 18 41  1  0  0  0  0
 19 22  2  0  0  0  0
 19 42  1  0  0  0  0
 20 23  1  0  0  0  0
 21 24  2  0  0  0  0
 22 24  1  0  0  0  0
 22 43  1  0  0  0  0
 23 25  1  0  0  0  0
 23 26  2  0  0  0  0
 24 44  1  0  0  0  0
 25 27  2  0  0  0  0
 25 45  1  0  0  0  0
 26 46  1  0  0  0  0
 27 28  1  0  0  0  0
 27 47  1  0  0  0  0
 30 48  1  0  0  0  0
 30 49  1  0  0  0  0
 30 50  1  0  0  0  0
 31 51  1  0  0  0  0
 31 52  1  0  0  0  0
 31 53  1  0  0  0  0
M  END
> <PUBCHEM_COMPOUND_CID>
45783826

> <PUBCHEM_CONFORMER_RMSD>
1

> <PUBCHEM_CONFORMER_DIVERSEORDER>
1
94
108
115
85
104
18
89
86
123
103
124
97
10
140
65
58
63
62
71
48
51
122
130
145
139
147
141
23
80
40
2
28
41
144
4
96
33
57
25
129
38
52
13
118
134
99
83
39
75
119
32
82
133
44
126
127
36
107
77
73
143
132
35
148
19
110
109
22
31
68
3
87
49
17
26
9
76
42
114
116
84
78
50
66
142
138
79
102
125
128
27
91
70
7
37
81
34
56
88
98
61
113
74
135
43
20
90
117
29
21
12
146
72
69
95
5
92
11
111
30
120
60
106
112
24
101
54
131
47
53
14
136
46
59
64
67
55
121
6
137
45
105
15
100
8
16
93

> <PUBCHEM_MMFF94_PARTIAL_CHARGES>
36
1 -0.34
10 -0.84
11 0.45
14 0.27
15 0.41
16 0.3
17 -0.14
18 -0.15
19 -0.15
2 -0.34
20 0.46
21 0.08
22 -0.15
23 0.05
24 -0.15
25 -0.15
26 0.16
27 -0.15
28 0.41
29 1.3
3 -0.34
30 0.37
31 0.37
4 -0.02
41 0.15
42 0.15
43 0.15
44 0.15
45 0.15
46 0.15
47 0.15
5 -0.36
6 -0.81
7 -0.57
8 -0.41
9 -0.62

> <PUBCHEM_EFFECTIVE_ROTOR_COUNT>
8

> <PUBCHEM_PHARMACOPHORE_FEATURES>
8
1 5 acceptor
1 6 cation
3 7 8 20 cation
3 9 10 28 cation
5 4 7 8 16 20 rings
5 6 11 12 13 14 rings
6 17 18 19 21 22 24 rings
6 9 23 25 26 27 28 rings

> <PUBCHEM_HEAVY_ATOM_COUNT>
31

> <PUBCHEM_ATOM_DEF_STEREO_COUNT>
1

> <PUBCHEM_ATOM_UDEF_STEREO_COUNT>
0

> <PUBCHEM_BOND_DEF_STEREO_COUNT>
0

> <PUBCHEM_BOND_UDEF_STEREO_COUNT>
0

> <PUBCHEM_ISOTOPIC_ATOM_COUNT>
0

> <PUBCHEM_COMPONENT_COUNT>
1

> <PUBCHEM_CACTVS_TAUTO_COUNT>
1

> <PUBCHEM_CONFORMER_ID>
02BA9B1200000001

> <PUBCHEM_MMFF94_ENERGY>
84.0305

> <PUBCHEM_FEATURE_SELFOVERLAP>
40.598

> <PUBCHEM_SHAPE_FINGERPRINT>
10871710 139 18261673654121503949
11488393 25 17046536631844756427
12156800 1 16886326453253129333
12166972 35 17677051368480797910
12788726 201 18114449077337734426
13761468 95 17907315260210112220
14068700 675 18129934697739958191
14142880 1 18193285096194791513
14840074 17 18263659372111056017
14910302 57 17846218787673195742
17492 54 18263908966014546053
17686467 74 18197768003196932314
18336668 15 18411980291200317809
20600515 1 17975102608219222402
20642791 239 18187352273253622351
20775438 99 16831184068357456407
21304303 64 17822292345406218005
21623110 236 18338806718493273464
21927370 108 18262529185721402210
23419403 2 17552304069523169433
23557571 272 17775567550268569635
2818148 4 17766008568751090731
35225 105 17556553492990964845
469060 322 18260830375662738592
531348 171 17773889614316227478
57527295 17 17410500205618676367
57527585 103 17970375760603395539
7471813 234 18127969926016239510

> <PUBCHEM_SHAPE_MULTIPOLES>
579.5
10.74
3.87
2.39
19.91
1.96
-0.01
-5.09
-2.17
-4.27
-1.14
-0.87
1
-2.33

> <PUBCHEM_SHAPE_SELFOVERLAP>
1254.773

> <PUBCHEM_SHAPE_VOLUME>
321.6

> <PUBCHEM_COORDINATE_TYPE>
2
5
10

$$$$
