26744634
  -OEChem-12032416173D

 55 57  0     1  0  0  0  0  0999 V2000
   -3.0038   -0.7662   -0.7180 O   0  0  0  0  0  0  0  0  0  0  0  0
   -5.5333   -0.8509    0.9698 O   0  0  0  0  0  0  0  0  0  0  0  0
   -5.2947    1.8064    0.2989 O   0  0  0  0  0  0  0  0  0  0  0  0
   -1.1417   -3.0278    0.3939 O   0  0  0  0  0  0  0  0  0  0  0  0
   -0.5152   -0.0103   -2.2081 O   0  0  0  0  0  0  0  0  0  0  0  0
    3.9584    2.9970    1.1056 O   0  0  0  0  0  0  0  0  0  0  0  0
   -1.7907    1.7231   -1.3411 N   0  0  0  0  0  0  0  0  0  0  0  0
    0.3552   -1.8400    1.7165 N   0  0  0  0  0  0  0  0  0  0  0  0
    1.9486   -2.7095   -0.7651 N   0  0  0  0  0  0  0  0  0  0  0  0
   -4.2772   -0.2198    1.2154 C   0  0  2  0  0  0  0  0  0  0  0  0
   -4.1289    1.0118    0.3463 C   0  0  1  0  0  0  0  0  0  0  0  0
   -3.1782   -1.1261    0.6716 C   0  0  2  0  0  0  0  0  0  0  0  0
   -3.8038    0.3947   -1.0036 C   0  0  1  0  0  0  0  0  0  0  0  0
   -1.8419   -0.9306    1.3747 C   0  0  0  0  0  0  0  0  0  0  0  0
   -3.0389    1.3289   -1.9242 C   0  0  0  0  0  0  0  0  0  0  0  0
   -0.8641   -2.0560    1.0915 C   0  0  0  0  0  0  0  0  0  0  0  0
   -0.6096    1.0110   -1.5324 C   0  0  0  0  0  0  0  0  0  0  0  0
    1.4671   -2.7574    1.6155 C   0  0  0  0  0  0  0  0  0  0  0  0
    0.5943    1.5357   -0.8380 C   0  0  0  0  0  0  0  0  0  0  0  0
    2.3832   -2.4072    0.4788 C   0  0  0  0  0  0  0  0  0  0  0  0
    1.8638    1.2896   -1.3610 C   0  0  0  0  0  0  0  0  0  0  0  0
    0.4554    2.2730    0.3380 C   0  0  0  0  0  0  0  0  0  0  0  0
    3.6010   -1.8044    0.7499 C   0  0  0  0  0  0  0  0  0  0  0  0
    2.9944    1.7803   -0.7079 C   0  0  0  0  0  0  0  0  0  0  0  0
    1.5859    2.7638    0.9911 C   0  0  0  0  0  0  0  0  0  0  0  0
    2.8553    2.5174    0.4682 C   0  0  0  0  0  0  0  0  0  0  0  0
    4.4257   -1.4914   -0.3249 C   0  0  0  0  0  0  0  0  0  0  0  0
    2.7772   -2.3907   -1.7847 C   0  0  0  0  0  0  0  0  0  0  0  0
    4.0133   -1.7869   -1.6196 C   0  0  0  0  0  0  0  0  0  0  0  0
    3.7432    3.7424    2.3030 C   0  0  0  0  0  0  0  0  0  0  0  0
   -4.2140   -0.0068    2.2862 H   0  0  0  0  0  0  0  0  0  0  0  0
   -3.3050    1.6248    0.7278 H   0  0  0  0  0  0  0  0  0  0  0  0
   -3.4863   -2.1774    0.7002 H   0  0  0  0  0  0  0  0  0  0  0  0
   -4.7163    0.0628   -1.5146 H   0  0  0  0  0  0  0  0  0  0  0  0
   -1.9945   -0.9146    2.4610 H   0  0  0  0  0  0  0  0  0  0  0  0
   -1.3730    0.0127    1.0836 H   0  0  0  0  0  0  0  0  0  0  0  0
   -3.6163    2.2362   -2.1283 H   0  0  0  0  0  0  0  0  0  0  0  0
   -2.8347    0.8278   -2.8769 H   0  0  0  0  0  0  0  0  0  0  0  0
   -5.5707   -1.6493    1.5237 H   0  0  0  0  0  0  0  0  0  0  0  0
   -5.5118    2.0608    1.2119 H   0  0  0  0  0  0  0  0  0  0  0  0
   -1.7858    2.5903   -0.8148 H   0  0  0  0  0  0  0  0  0  0  0  0
    0.4915   -0.9908    2.2574 H   0  0  0  0  0  0  0  0  0  0  0  0
    1.0871   -3.7756    1.4726 H   0  0  0  0  0  0  0  0  0  0  0  0
    1.9954   -2.7379    2.5749 H   0  0  0  0  0  0  0  0  0  0  0  0
    1.9903    0.7269   -2.2818 H   0  0  0  0  0  0  0  0  0  0  0  0
   -0.5125    2.4616    0.7930 H   0  0  0  0  0  0  0  0  0  0  0  0
    3.9141   -1.5737    1.7624 H   0  0  0  0  0  0  0  0  0  0  0  0
    3.9805    1.5926   -1.1234 H   0  0  0  0  0  0  0  0  0  0  0  0
    1.4067    3.3226    1.9033 H   0  0  0  0  0  0  0  0  0  0  0  0
    5.3869   -1.0161   -0.1542 H   0  0  0  0  0  0  0  0  0  0  0  0
    2.4085   -2.6399   -2.7741 H   0  0  0  0  0  0  0  0  0  0  0  0
    4.6388   -1.5499   -2.4724 H   0  0  0  0  0  0  0  0  0  0  0  0
    4.7268    4.0471    2.6751 H   0  0  0  0  0  0  0  0  0  0  0  0
    3.2832    3.1263    3.0831 H   0  0  0  0  0  0  0  0  0  0  0  0
    3.1765    4.6596    2.1100 H   0  0  0  0  0  0  0  0  0  0  0  0
  1 12  1  0  0  0  0
  1 13  1  0  0  0  0
  2 10  1  0  0  0  0
  2 39  1  0  0  0  0
  3 11  1  0  0  0  0
  3 40  1  0  0  0  0
  4 16  2  0  0  0  0
  5 17  2  0  0  0  0
  6 26  1  0  0  0  0
  6 30  1  0  0  0  0
  7 15  1  0  0  0  0
  7 17  1  0  0  0  0
  7 41  1  0  0  0  0
  8 16  1  0  0  0  0
  8 18  1  0  0  0  0
  8 42  1  0  0  0  0
  9 20  1  0  0  0  0
  9 28  2  0  0  0  0
 10 11  1  0  0  0  0
 10 12  1  0  0  0  0
 10 31  1  0  0  0  0
 11 13  1  0  0  0  0
 11 32  1  0  0  0  0
 12 14  1  0  0  0  0
 12 33  1  0  0  0  0
 13 15  1  0  0  0  0
 13 34  1  0  0  0  0
 14 16  1  0  0  0  0
 14 35  1  0  0  0  0
 14 36  1  0  0  0  0
 15 37  1  0  0  0  0
 15 38  1  0  0  0  0
 17 19  1  0  0  0  0
 18 20  1  0  0  0  0
 18 43  1  0  0  0  0
 18 44  1  0  0  0  0
 19 21  2  0  0  0  0
 19 22  1  0  0  0  0
 20 23  2  0  0  0  0
 21 24  1  0  0  0  0
 21 45  1  0  0  0  0
 22 25  2  0  0  0  0
 22 46  1  0  0  0  0
 23 27  1  0  0  0  0
 23 47  1  0  0  0  0
 24 26  2  0  0  0  0
 24 48  1  0  0  0  0
 25 26  1  0  0  0  0
 25 49  1  0  0  0  0
 27 29  2  0  0  0  0
 27 50  1  0  0  0  0
 28 29  1  0  0  0  0
 28 51  1  0  0  0  0
 29 52  1  0  0  0  0
 30 53  1  0  0  0  0
 30 54  1  0  0  0  0
 30 55  1  0  0  0  0
M  END
> <PUBCHEM_COMPOUND_CID>
26744634

> <PUBCHEM_CONFORMER_RMSD>
1.2

> <PUBCHEM_CONFORMER_DIVERSEORDER>
2
13
97
89
43
49
142
75
92
24
116
110
68
53
117
59
101
57
26
143
17
157
70
126
23
112
87
113
38
56
46
148
35
78
139
103
124
144
33
7
134
120
64
79
137
147
94
73
128
74
85
30
58
1
140
108
91
98
100
42
80
114
115
96
131
48
102
9
88
135
138
146
153
32
31
10
106
61
125
123
121
52
62
156
154
132
145
72
104
105
65
60
82
21
8
76
130
150
25
67
15
93
111
158
99
27
151
119
81
16
84
136
5
34
118
129
37
54
71
39
40
141
152
29
83
133
11
149
19
155
122
36
50
86
69
51
107
66
77
3
41
127
28
95
47
55
14
90
22
63
20
18
109
12
44
4
45
6

> <PUBCHEM_MMFF94_PARTIAL_CHARGES>
42
1 -0.56
10 0.28
11 0.28
12 0.28
13 0.28
14 0.06
15 0.3
16 0.57
17 0.54
18 0.44
19 0.09
2 -0.68
20 0.17
21 -0.15
22 -0.15
23 -0.15
24 -0.15
25 -0.15
26 0.08
27 -0.15
28 0.16
29 -0.15
3 -0.68
30 0.28
39 0.4
4 -0.57
40 0.4
41 0.37
42 0.37
45 0.15
46 0.15
47 0.15
48 0.15
49 0.15
5 -0.57
50 0.15
51 0.15
52 0.15
6 -0.36
7 -0.73
8 -0.73
9 -0.62

> <PUBCHEM_EFFECTIVE_ROTOR_COUNT>
11

> <PUBCHEM_PHARMACOPHORE_FEATURES>
14
1 1 acceptor
1 2 acceptor
1 2 donor
1 3 acceptor
1 3 donor
1 4 acceptor
1 5 acceptor
1 6 acceptor
1 7 donor
1 8 donor
1 9 acceptor
5 1 10 11 12 13 rings
6 19 21 22 24 25 26 rings
6 9 20 23 27 28 29 rings

> <PUBCHEM_HEAVY_ATOM_COUNT>
30

> <PUBCHEM_ATOM_DEF_STEREO_COUNT>
4

> <PUBCHEM_ATOM_UDEF_STEREO_COUNT>
0

> <PUBCHEM_BOND_DEF_STEREO_COUNT>
0

> <PUBCHEM_BOND_UDEF_STEREO_COUNT>
0

> <PUBCHEM_ISOTOPIC_ATOM_COUNT>
0

> <PUBCHEM_COMPONENT_COUNT>
1

> <PUBCHEM_CACTVS_TAUTO_COUNT>
4

> <PUBCHEM_CONFORMER_ID>
0198173A00000002

> <PUBCHEM_MMFF94_ENERGY>
79.8357

> <PUBCHEM_FEATURE_SELFOVERLAP>
71.064

> <PUBCHEM_SHAPE_FINGERPRINT>
11112241 14 18058434577662099504
11370993 70 18052819431755426920
12156800 1 16404167789754711458
12166972 35 17241900783114855226
12422481 6 18044063922338219552
12597179 24 18266730467238464464
12788726 201 17907584627473301852
13402501 40 18260554424377954278
13617811 41 17023185973277992773
14178342 30 17975699703246938439
14251757 17 18187930525684655696
14790565 3 16816854696163915829
20691752 17 17023182760004124731
20715895 44 16087261703694849399
20764821 26 18040431135498014958
22182313 1 17967521381588981141
23559900 14 18260270745698295805
238918 7 18121215648083737914
35225 105 17048532232784703252
3524813 1 18041003916399571974
394222 165 17274537754081024476
437795 51 18341623641888073132
508706 21 17894630387686159211
5265222 85 17758132762713947372
56638632 33 15942003066101174675
57527585 103 16808139305529765851
5895379 119 17056987090492091233
9862522 239 17835229426761862490

> <PUBCHEM_SHAPE_MULTIPOLES>
567.23
9.34
4.4
2.07
7.43
1.03
0.22
0.94
-1.12
-5.54
-1.84
-0.59
0.27
2.75

> <PUBCHEM_SHAPE_SELFOVERLAP>
1202.19

> <PUBCHEM_SHAPE_VOLUME>
315.4

> <PUBCHEM_COORDINATE_TYPE>
2
5
10

$$$$
