51138121
  -OEChem-12032416323D

 61 64  0     1  0  0  0  0  0999 V2000
   -2.1777    2.2194   -1.6566 O   0  0  0  0  0  0  0  0  0  0  0  0
   -0.8169   -0.3824   -0.7266 N   0  0  0  0  0  0  0  0  0  0  0  0
   -3.1391    1.3537    0.2788 N   0  0  0  0  0  0  0  0  0  0  0  0
    3.8628    1.2583    0.2286 N   0  0  0  0  0  0  0  0  0  0  0  0
   -4.4732    1.8645    0.0820 C   0  0  0  0  0  0  0  0  0  0  0  0
   -0.2001   -1.4107    0.1220 C   0  0  2  0  0  0  0  0  0  0  0  0
   -0.8184    0.9568   -0.1556 C   0  0  1  0  0  0  0  0  0  0  0  0
   -5.1973    2.0710    1.4063 C   0  0  0  0  0  0  0  0  0  0  0  0
   -5.3659    0.8607   -0.6381 C   0  0  0  0  0  0  0  0  0  0  0  0
    0.3518    1.7896   -0.6754 C   0  0  0  0  0  0  0  0  0  0  0  0
    1.2958   -1.2368    0.4040 C   0  0  0  0  0  0  0  0  0  0  0  0
   -5.7241    0.6870    1.7754 C   0  0  0  0  0  0  0  0  0  0  0  0
   -5.8721   -0.0752    0.4583 C   0  0  0  0  0  0  0  0  0  0  0  0
    2.0325   -0.0327    0.2104 C   0  0  0  0  0  0  0  0  0  0  0  0
    1.6894    1.2872   -0.2458 C   0  0  0  0  0  0  0  0  0  0  0  0
   -0.5165   -2.7406   -0.5856 C   0  0  0  0  0  0  0  0  0  0  0  0
   -2.1034    1.5772   -0.6123 C   0  0  0  0  0  0  0  0  0  0  0  0
    3.3970   -0.0019    0.5206 C   0  0  0  0  0  0  0  0  0  0  0  0
   -1.9631   -3.1994   -0.3779 C   0  0  0  0  0  0  0  0  0  0  0  0
    2.8446    2.0425   -0.2269 C   0  0  0  0  0  0  0  0  0  0  0  0
    2.0092   -2.3214    0.9751 C   0  0  0  0  0  0  0  0  0  0  0  0
    4.0925   -1.0957    1.0388 C   0  0  0  0  0  0  0  0  0  0  0  0
    3.3688   -2.2575    1.2739 C   0  0  0  0  0  0  0  0  0  0  0  0
   -2.1678   -4.5507   -1.0669 C   0  0  0  0  0  0  0  0  0  0  0  0
   -2.9831   -2.1900   -0.9066 C   0  0  0  0  0  0  0  0  0  0  0  0
    5.2274    1.7114    0.3934 C   0  0  0  0  0  0  0  0  0  0  0  0
    6.1177    1.2704   -0.7308 C   0  0  0  0  0  0  0  0  0  0  0  0
    7.2292    0.5454   -0.5623 C   0  0  0  0  0  0  0  0  0  0  0  0
   -4.4052    2.8012   -0.4817 H   0  0  0  0  0  0  0  0  0  0  0  0
   -0.6976   -1.4107    1.1016 H   0  0  0  0  0  0  0  0  0  0  0  0
   -0.8048    0.9354    0.9425 H   0  0  0  0  0  0  0  0  0  0  0  0
   -6.0450    2.7522    1.2619 H   0  0  0  0  0  0  0  0  0  0  0  0
   -4.5588    2.4886    2.1912 H   0  0  0  0  0  0  0  0  0  0  0  0
   -4.8554    0.3158   -1.4382 H   0  0  0  0  0  0  0  0  0  0  0  0
   -6.2213    1.3838   -1.0835 H   0  0  0  0  0  0  0  0  0  0  0  0
    0.2344    2.8255   -0.3281 H   0  0  0  0  0  0  0  0  0  0  0  0
    0.3445    1.8370   -1.7735 H   0  0  0  0  0  0  0  0  0  0  0  0
   -5.0092    0.1685    2.4249 H   0  0  0  0  0  0  0  0  0  0  0  0
   -6.6720    0.7512    2.3190 H   0  0  0  0  0  0  0  0  0  0  0  0
   -6.9127   -0.3633    0.2756 H   0  0  0  0  0  0  0  0  0  0  0  0
   -5.2848   -0.9973    0.4953 H   0  0  0  0  0  0  0  0  0  0  0  0
   -0.4053   -0.3850   -1.6591 H   0  0  0  0  0  0  0  0  0  0  0  0
    0.1190   -3.5560   -0.2284 H   0  0  0  0  0  0  0  0  0  0  0  0
   -0.2876   -2.6687   -1.6593 H   0  0  0  0  0  0  0  0  0  0  0  0
   -2.9728    0.7581    1.0851 H   0  0  0  0  0  0  0  0  0  0  0  0
   -2.1445   -3.3431    0.6949 H   0  0  0  0  0  0  0  0  0  0  0  0
    3.0114    3.0760   -0.5013 H   0  0  0  0  0  0  0  0  0  0  0  0
    1.4972   -3.2456    1.2331 H   0  0  0  0  0  0  0  0  0  0  0  0
    5.1489   -1.0490    1.2784 H   0  0  0  0  0  0  0  0  0  0  0  0
    3.8656   -3.1220    1.7063 H   0  0  0  0  0  0  0  0  0  0  0  0
   -1.4691   -5.2989   -0.6779 H   0  0  0  0  0  0  0  0  0  0  0  0
   -3.1823   -4.9259   -0.8947 H   0  0  0  0  0  0  0  0  0  0  0  0
   -2.0154   -4.4731   -2.1490 H   0  0  0  0  0  0  0  0  0  0  0  0
   -3.9814   -2.6419   -0.9404 H   0  0  0  0  0  0  0  0  0  0  0  0
   -3.0673   -1.3316   -0.2404 H   0  0  0  0  0  0  0  0  0  0  0  0
   -2.7468   -1.8568   -1.9223 H   0  0  0  0  0  0  0  0  0  0  0  0
    5.5822    1.3618    1.3697 H   0  0  0  0  0  0  0  0  0  0  0  0
    5.2167    2.8070    0.4348 H   0  0  0  0  0  0  0  0  0  0  0  0
    5.8445    1.5758   -1.7378 H   0  0  0  0  0  0  0  0  0  0  0  0
    7.8360    0.2637   -1.4158 H   0  0  0  0  0  0  0  0  0  0  0  0
    7.5513    0.2217    0.4212 H   0  0  0  0  0  0  0  0  0  0  0  0
  1 17  2  0  0  0  0
  2  6  1  0  0  0  0
  2  7  1  0  0  0  0
  2 42  1  0  0  0  0
  3  5  1  0  0  0  0
  3 17  1  0  0  0  0
  3 45  1  0  0  0  0
  4 18  1  0  0  0  0
  4 20  1  0  0  0  0
  4 26  1  0  0  0  0
  5  8  1  0  0  0  0
  5  9  1  0  0  0  0
  5 29  1  0  0  0  0
  6 11  1  0  0  0  0
  6 16  1  0  0  0  0
  6 30  1  0  0  0  0
  7 10  1  0  0  0  0
  7 17  1  0  0  0  0
  7 31  1  0  0  0  0
  8 12  1  0  0  0  0
  8 32  1  0  0  0  0
  8 33  1  0  0  0  0
  9 13  1  0  0  0  0
  9 34  1  0  0  0  0
  9 35  1  0  0  0  0
 10 15  1  0  0  0  0
 10 36  1  0  0  0  0
 10 37  1  0  0  0  0
 11 14  2  0  0  0  0
 11 21  1  0  0  0  0
 12 13  1  0  0  0  0
 12 38  1  0  0  0  0
 12 39  1  0  0  0  0
 13 40  1  0  0  0  0
 13 41  1  0  0  0  0
 14 15  1  0  0  0  0
 14 18  1  0  0  0  0
 15 20  2  0  0  0  0
 16 19  1  0  0  0  0
 16 43  1  0  0  0  0
 16 44  1  0  0  0  0
 18 22  2  0  0  0  0
 19 24  1  0  0  0  0
 19 25  1  0  0  0  0
 19 46  1  0  0  0  0
 20 47  1  0  0  0  0
 21 23  2  0  0  0  0
 21 48  1  0  0  0  0
 22 23  1  0  0  0  0
 22 49  1  0  0  0  0
 23 50  1  0  0  0  0
 24 51  1  0  0  0  0
 24 52  1  0  0  0  0
 24 53  1  0  0  0  0
 25 54  1  0  0  0  0
 25 55  1  0  0  0  0
 25 56  1  0  0  0  0
 26 27  1  0  0  0  0
 26 57  1  0  0  0  0
 26 58  1  0  0  0  0
 27 28  2  0  0  0  0
 27 59  1  0  0  0  0
 28 60  1  0  0  0  0
 28 61  1  0  0  0  0
M  END
> <PUBCHEM_COMPOUND_CID>
51138121

> <PUBCHEM_CONFORMER_RMSD>
1

> <PUBCHEM_CONFORMER_DIVERSEORDER>
1
52
28
22
11
7
40
57
61
56
59
54
18
34
6
41
60
47
13
58
36
42
14
31
26
50
8
32
48
33
12
4
23
15
29
17
55
30
25
2
44
20
51
19
5
3
49
45
21
43
46
39
35
9
10
37
38
53
16
27
24

> <PUBCHEM_MMFF94_PARTIAL_CHARGES>
28
1 -0.57
10 0.18
11 -0.14
15 -0.18
17 0.57
18 -0.15
2 -0.9
20 -0.3
21 -0.15
22 -0.15
23 -0.15
26 0.39
27 -0.29
28 -0.3
3 -0.73
4 0.05
42 0.36
45 0.37
47 0.15
48 0.15
49 0.15
5 0.3
50 0.15
59 0.15
6 0.41
60 0.15
61 0.15
7 0.33

> <PUBCHEM_EFFECTIVE_ROTOR_COUNT>
8.8

> <PUBCHEM_PHARMACOPHORE_FEATURES>
11
1 1 acceptor
1 2 cation
1 2 donor
1 28 hydrophobe
1 3 donor
1 4 cation
3 19 24 25 hydrophobe
5 4 14 15 18 20 rings
5 5 8 9 12 13 rings
6 11 14 18 21 22 23 rings
7 2 6 7 10 11 14 15 rings

> <PUBCHEM_HEAVY_ATOM_COUNT>
28

> <PUBCHEM_ATOM_DEF_STEREO_COUNT>
2

> <PUBCHEM_ATOM_UDEF_STEREO_COUNT>
0

> <PUBCHEM_BOND_DEF_STEREO_COUNT>
0

> <PUBCHEM_BOND_UDEF_STEREO_COUNT>
0

> <PUBCHEM_ISOTOPIC_ATOM_COUNT>
0

> <PUBCHEM_COMPONENT_COUNT>
1

> <PUBCHEM_CACTVS_TAUTO_COUNT>
2

> <PUBCHEM_CONFORMER_ID>
030C4E4900000001

> <PUBCHEM_MMFF94_ENERGY>
56.861

> <PUBCHEM_FEATURE_SELFOVERLAP>
55.952

> <PUBCHEM_SHAPE_FINGERPRINT>
10493431 412 18411699893791010465
10675989 125 15018490054373072004
11115154 58 17338410713023257023
11513181 2 18131914862537698815
12422481 6 18263641775840735443
12788726 201 18057871636604866719
13140716 1 18336537240393490970
13540713 5 18262499482212977402
13583140 156 17024854971298078107
14341114 328 17917151598775190457
14790565 3 18411418388617296141
14840074 17 18260268542796459813
14866123 147 18339360884932495687
14955137 171 18050566244688670002
15927050 60 18413108355338739422
16112460 7 18412263900174446794
19319366 153 17895196576192881330
20028762 73 18201144452739722431
20261772 1 18408601440222638027
20739085 24 18192162507565341437
21197605 99 18335147514016048931
21236236 1 18341048635138213519
23558518 356 17976825611627996148
25147074 1 18260815021782682306
283562 15 17976528735315040026
3009799 131 11239997828757330420
350125 39 18408038524597222002
5104073 3 18264754606430920984
563151 40 18335430092630497162
59755656 215 18343310262470010092
59755656 520 18342177773487502572
6438718 38 17988632047686874391
6669772 16 18271250422027634262
7064713 232 18272364227427305539

> <PUBCHEM_SHAPE_MULTIPOLES>
555.41
14.17
3.97
1.23
3.8
4.5
-0.19
-8.39
-2.28
-2.56
0.92
-0.79
0.05
-2.11

> <PUBCHEM_SHAPE_SELFOVERLAP>
1179.738

> <PUBCHEM_SHAPE_VOLUME>
311.3

> <PUBCHEM_COORDINATE_TYPE>
2
5
10

$$$$
