86769372
  -OEChem-12032416393D

 58 60  0     1  0  0  0  0  0999 V2000
    2.4467    0.0262    0.6980 O   0  0  0  0  0  0  0  0  0  0  0  0
    4.7980    1.4928    1.7024 O   0  0  0  0  0  0  0  0  0  0  0  0
    0.2273    3.6908   -0.2157 O   0  0  0  0  0  0  0  0  0  0  0  0
   -0.4391   -3.3975   -1.2996 O   0  0  0  0  0  0  0  0  0  0  0  0
   -2.9945   -3.7285    0.7199 O   0  0  0  0  0  0  0  0  0  0  0  0
   -1.4379    2.1326   -0.6515 N   0  0  0  0  0  0  0  0  0  0  0  0
    0.7778    1.5705   -0.9850 N   0  0  0  0  0  0  0  0  0  0  0  0
    0.9402   -3.3053   -1.1582 N   0  0  0  0  0  0  0  0  0  0  0  0
    2.8244    1.3577    0.3244 C   0  0  1  0  0  0  0  0  0  0  0  0
    4.3485    1.5325    0.3454 C   0  0  2  0  0  0  0  0  0  0  0  0
    3.0422   -1.0156   -0.0791 C   0  0  1  0  0  0  0  0  0  0  0  0
    5.0711    0.4251   -0.4169 C   0  0  0  0  0  0  0  0  0  0  0  0
    4.5660   -0.9503    0.0095 C   0  0  0  0  0  0  0  0  0  0  0  0
   -2.5653    2.9641   -0.2928 C   0  0  0  0  0  0  0  0  0  0  0  0
   -3.7942    2.6221   -1.1420 C   0  0  0  0  0  0  0  0  0  0  0  0
   -2.8763    2.8552    1.2037 C   0  0  0  0  0  0  0  0  0  0  0  0
   -4.4085    1.2739   -0.7654 C   0  0  0  0  0  0  0  0  0  0  0  0
   -3.4920    1.5064    1.5764 C   0  0  0  0  0  0  0  0  0  0  0  0
   -4.7194    1.1937    0.7261 C   0  0  0  0  0  0  0  0  0  0  0  0
    2.1972    1.7535   -1.0107 C   0  0  0  0  0  0  0  0  0  0  0  0
    2.5237   -2.3432    0.4603 C   0  0  0  0  0  0  0  0  0  0  0  0
   -0.1173    2.5683   -0.5833 C   0  0  0  0  0  0  0  0  0  0  0  0
    1.1266   -2.6324   -0.0191 C   0  0  0  0  0  0  0  0  0  0  0  0
   -0.0865   -2.2776    0.5958 C   0  0  0  0  0  0  0  0  0  0  0  0
   -1.0395   -2.7819   -0.2491 C   0  0  0  0  0  0  0  0  0  0  0  0
   -2.5073   -2.7855   -0.2389 C   0  0  0  0  0  0  0  0  0  0  0  0
   -4.4120   -3.7476    0.7455 C   0  0  0  0  0  0  0  0  0  0  0  0
    2.3976    1.9992    1.1060 H   0  0  0  0  0  0  0  0  0  0  0  0
    4.6248    2.5147   -0.0537 H   0  0  0  0  0  0  0  0  0  0  0  0
    2.7380   -0.9084   -1.1272 H   0  0  0  0  0  0  0  0  0  0  0  0
    6.1518    0.4777   -0.2406 H   0  0  0  0  0  0  0  0  0  0  0  0
    4.9105    0.5516   -1.4940 H   0  0  0  0  0  0  0  0  0  0  0  0
    4.8851   -1.1384    1.0426 H   0  0  0  0  0  0  0  0  0  0  0  0
    5.0226   -1.7238   -0.6184 H   0  0  0  0  0  0  0  0  0  0  0  0
   -2.2820    4.0024   -0.5060 H   0  0  0  0  0  0  0  0  0  0  0  0
   -3.5318    2.6169   -2.2068 H   0  0  0  0  0  0  0  0  0  0  0  0
   -4.5513    3.4048   -1.0047 H   0  0  0  0  0  0  0  0  0  0  0  0
   -3.5804    3.6508    1.4792 H   0  0  0  0  0  0  0  0  0  0  0  0
   -1.9693    3.0161    1.7985 H   0  0  0  0  0  0  0  0  0  0  0  0
   -3.7289    0.4601   -1.0438 H   0  0  0  0  0  0  0  0  0  0  0  0
   -5.3301    1.1211   -1.3387 H   0  0  0  0  0  0  0  0  0  0  0  0
   -3.7714    1.5115    2.6361 H   0  0  0  0  0  0  0  0  0  0  0  0
   -2.7467    0.7116    1.4495 H   0  0  0  0  0  0  0  0  0  0  0  0
   -5.5211    1.9017    0.9696 H   0  0  0  0  0  0  0  0  0  0  0  0
   -5.0924    0.1928    0.9713 H   0  0  0  0  0  0  0  0  0  0  0  0
    2.4227    2.8017   -1.2364 H   0  0  0  0  0  0  0  0  0  0  0  0
    2.5747    1.1496   -1.8405 H   0  0  0  0  0  0  0  0  0  0  0  0
    2.5272   -2.3417    1.5578 H   0  0  0  0  0  0  0  0  0  0  0  0
    3.1731   -3.1668    0.1364 H   0  0  0  0  0  0  0  0  0  0  0  0
   -1.6050    1.1615   -0.8962 H   0  0  0  0  0  0  0  0  0  0  0  0
    0.4033    0.6670   -1.2583 H   0  0  0  0  0  0  0  0  0  0  0  0
    5.7573    1.6524    1.6990 H   0  0  0  0  0  0  0  0  0  0  0  0
   -0.2465   -1.7348    1.5157 H   0  0  0  0  0  0  0  0  0  0  0  0
   -2.8736   -1.7855    0.0217 H   0  0  0  0  0  0  0  0  0  0  0  0
   -2.8966   -3.0436   -1.2309 H   0  0  0  0  0  0  0  0  0  0  0  0
   -4.7337   -4.4778    1.4930 H   0  0  0  0  0  0  0  0  0  0  0  0
   -4.8111   -4.0481   -0.2281 H   0  0  0  0  0  0  0  0  0  0  0  0
   -4.8055   -2.7658    1.0268 H   0  0  0  0  0  0  0  0  0  0  0  0
  1  9  1  0  0  0  0
  1 11  1  0  0  0  0
  2 10  1  0  0  0  0
  2 52  1  0  0  0  0
  3 22  2  0  0  0  0
  4  8  1  0  0  0  0
  4 25  1  0  0  0  0
  5 26  1  0  0  0  0
  5 27  1  0  0  0  0
  6 14  1  0  0  0  0
  6 22  1  0  0  0  0
  6 50  1  0  0  0  0
  7 20  1  0  0  0  0
  7 22  1  0  0  0  0
  7 51  1  0  0  0  0
  8 23  2  0  0  0  0
  9 10  1  0  0  0  0
  9 20  1  0  0  0  0
  9 28  1  0  0  0  0
 10 12  1  0  0  0  0
 10 29  1  0  0  0  0
 11 13  1  0  0  0  0
 11 21  1  0  0  0  0
 11 30  1  0  0  0  0
 12 13  1  0  0  0  0
 12 31  1  0  0  0  0
 12 32  1  0  0  0  0
 13 33  1  0  0  0  0
 13 34  1  0  0  0  0
 14 15  1  0  0  0  0
 14 16  1  0  0  0  0
 14 35  1  0  0  0  0
 15 17  1  0  0  0  0
 15 36  1  0  0  0  0
 15 37  1  0  0  0  0
 16 18  1  0  0  0  0
 16 38  1  0  0  0  0
 16 39  1  0  0  0  0
 17 19  1  0  0  0  0
 17 40  1  0  0  0  0
 17 41  1  0  0  0  0
 18 19  1  0  0  0  0
 18 42  1  0  0  0  0
 18 43  1  0  0  0  0
 19 44  1  0  0  0  0
 19 45  1  0  0  0  0
 20 46  1  0  0  0  0
 20 47  1  0  0  0  0
 21 23  1  0  0  0  0
 21 48  1  0  0  0  0
 21 49  1  0  0  0  0
 23 24  1  0  0  0  0
 24 25  2  0  0  0  0
 24 53  1  0  0  0  0
 25 26  1  0  0  0  0
 26 54  1  0  0  0  0
 26 55  1  0  0  0  0
 27 56  1  0  0  0  0
 27 57  1  0  0  0  0
 27 58  1  0  0  0  0
M  END
> <PUBCHEM_COMPOUND_CID>
86769372

> <PUBCHEM_CONFORMER_RMSD>
1.2

> <PUBCHEM_CONFORMER_DIVERSEORDER>
1
82
95
54
19
22
61
81
17
30
85
20
77
35
78
32
65
87
44
21
94
7
76
90
11
70
45
98
89
83
25
29
53
97
67
34
48
88
5
96
18
46
57
23
37
36
31
68
38
55
74
39
50
80
63
79
14
41
73
27
28
13
59
58
10
71
92
84
33
24
64
99
93
2
72
49
40
42
43
15
47
62
69
16
91
60
66
56
75
12
4
86
51
6
52
26
8
9
3

> <PUBCHEM_MMFF94_PARTIAL_CHARGES>
24
1 -0.56
10 0.28
11 0.28
14 0.3
2 -0.68
20 0.3
21 0.18
22 0.69
23 0.11
24 -0.15
25 -0.04
26 0.46
27 0.28
3 -0.57
4 -0.02
5 -0.56
50 0.37
51 0.37
52 0.4
53 0.15
6 -0.73
7 -0.73
8 -0.41
9 0.28

> <PUBCHEM_EFFECTIVE_ROTOR_COUNT>
11.4

> <PUBCHEM_PHARMACOPHORE_FEATURES>
11
1 1 acceptor
1 2 acceptor
1 2 donor
1 3 acceptor
1 5 acceptor
1 6 donor
1 7 donor
1 8 acceptor
5 4 8 23 24 25 rings
6 1 9 10 11 12 13 rings
6 14 15 16 17 18 19 rings

> <PUBCHEM_HEAVY_ATOM_COUNT>
27

> <PUBCHEM_ATOM_DEF_STEREO_COUNT>
3

> <PUBCHEM_ATOM_UDEF_STEREO_COUNT>
0

> <PUBCHEM_BOND_DEF_STEREO_COUNT>
0

> <PUBCHEM_BOND_UDEF_STEREO_COUNT>
0

> <PUBCHEM_ISOTOPIC_ATOM_COUNT>
0

> <PUBCHEM_COMPONENT_COUNT>
1

> <PUBCHEM_CACTVS_TAUTO_COUNT>
3

> <PUBCHEM_CONFORMER_ID>
052BFEDC00000001

> <PUBCHEM_MMFF94_ENERGY>
30.8931

> <PUBCHEM_FEATURE_SELFOVERLAP>
55.874

> <PUBCHEM_SHAPE_FINGERPRINT>
10064457 181 18341335479388884304
10190206 1 17539435505944615180
10670039 82 18265068001330301086
11014199 57 17762341718335273202
11513181 2 18131067112864925911
12100795 323 18338521833053534195
12156800 1 18120970340820996830
12422481 6 18191566602670581026
12553582 1 16033233768047964356
12596602 18 17417801829836275641
12788726 201 17904779012832797188
13122387 1 17906173945617846439
13140716 1 18337099104005081330
13402501 40 18118410535743182425
13533116 47 17839173009894219505
13561361 72 18409448106772251363
1361 2 18192143803436467461
17138139 8 17841393121411958181
21133410 90 17560805497845187169
21197605 99 18410579479063826563
21673915 165 18411697647459830725
3052486 1 18263093244023695462
338550 245 18260837028540810524
373842 8 18337116769485261643
463206 1 18410012135422203901
469060 322 17095792317358205598
6287921 2 17840588094047941959
653340 110 18269269230733119376

> <PUBCHEM_SHAPE_MULTIPOLES>
511.36
10.06
6.03
1.21
1.84
4.33
-0.15
-3.27
-2.07
-5.4
0.37
-0.39
-0.32
0.83

> <PUBCHEM_SHAPE_SELFOVERLAP>
1044.787

> <PUBCHEM_SHAPE_VOLUME>
294.3

> <PUBCHEM_COORDINATE_TYPE>
2
5
10

$$$$
