51137087
  -OEChem-12032416243D

 36 39  0     1  0  0  0  0  0999 V2000
    2.2712    0.2484    1.8894 S   0  0  0  0  0  0  0  0  0  0  0  0
   -4.0272   -1.7777   -1.1635 S   0  0  0  0  0  0  0  0  0  0  0  0
   -2.2090    1.4145   -0.1631 N   0  0  1  0  0  0  0  0  0  0  0  0
    1.8207    0.4016   -0.6454 N   0  0  0  0  0  0  0  0  0  0  0  0
   -0.0590    1.2593    0.7605 C   0  0  1  0  0  0  0  0  0  0  0  0
   -0.2541    2.6547    0.1421 C   0  0  0  0  0  0  0  0  0  0  0  0
   -1.1960    0.4120    0.1737 C   0  0  0  0  0  0  0  0  0  0  0  0
   -1.4625    2.5141   -0.7744 C   0  0  0  0  0  0  0  0  0  0  0  0
   -3.2403    0.8874   -1.0445 C   0  0  0  0  0  0  0  0  0  0  0  0
    1.3059    0.6505    0.5360 C   0  0  0  0  0  0  0  0  0  0  0  0
   -4.0009   -0.2432   -0.4041 C   0  0  0  0  0  0  0  0  0  0  0  0
    3.5066   -0.3172    0.8278 C   0  0  0  0  0  0  0  0  0  0  0  0
    3.0829   -0.1537   -0.4946 C   0  0  0  0  0  0  0  0  0  0  0  0
   -4.7236   -0.2344    0.7687 C   0  0  0  0  0  0  0  0  0  0  0  0
    4.7602   -0.8660    1.1425 C   0  0  0  0  0  0  0  0  0  0  0  0
    3.9466   -0.5546   -1.5370 C   0  0  0  0  0  0  0  0  0  0  0  0
   -5.3061   -1.5043    1.0476 C   0  0  0  0  0  0  0  0  0  0  0  0
   -5.0069   -2.4352    0.0774 C   0  0  0  0  0  0  0  0  0  0  0  0
    5.5955   -1.2544    0.0921 C   0  0  0  0  0  0  0  0  0  0  0  0
    5.1959   -1.1017   -1.2310 C   0  0  0  0  0  0  0  0  0  0  0  0
   -0.2386    1.3620    1.8408 H   0  0  0  0  0  0  0  0  0  0  0  0
   -0.4669    3.3796    0.9379 H   0  0  0  0  0  0  0  0  0  0  0  0
    0.6225    3.0142   -0.4072 H   0  0  0  0  0  0  0  0  0  0  0  0
   -0.8620   -0.1389   -0.7159 H   0  0  0  0  0  0  0  0  0  0  0  0
   -1.5501   -0.3140    0.9138 H   0  0  0  0  0  0  0  0  0  0  0  0
   -2.0467    3.4388   -0.8134 H   0  0  0  0  0  0  0  0  0  0  0  0
   -1.1297    2.2660   -1.7905 H   0  0  0  0  0  0  0  0  0  0  0  0
   -3.9631    1.6829   -1.2694 H   0  0  0  0  0  0  0  0  0  0  0  0
   -2.8141    0.5753   -2.0076 H   0  0  0  0  0  0  0  0  0  0  0  0
   -4.8332    0.6386    1.3995 H   0  0  0  0  0  0  0  0  0  0  0  0
    5.0788   -0.9883    2.1731 H   0  0  0  0  0  0  0  0  0  0  0  0
    3.6445   -0.4398   -2.5742 H   0  0  0  0  0  0  0  0  0  0  0  0
   -5.9141   -1.7239    1.9156 H   0  0  0  0  0  0  0  0  0  0  0  0
   -5.3167   -3.4700    0.0379 H   0  0  0  0  0  0  0  0  0  0  0  0
    6.5700   -1.6815    0.3138 H   0  0  0  0  0  0  0  0  0  0  0  0
    5.8590   -1.4095   -2.0349 H   0  0  0  0  0  0  0  0  0  0  0  0
  1 10  1  0  0  0  0
  1 12  1  0  0  0  0
  2 11  1  0  0  0  0
  2 18  1  0  0  0  0
  3  7  1  0  0  0  0
  3  8  1  0  0  0  0
  3  9  1  0  0  0  0
  4 10  2  0  0  0  0
  4 13  1  0  0  0  0
  5  6  1  0  0  0  0
  5  7  1  0  0  0  0
  5 10  1  0  0  0  0
  5 21  1  0  0  0  0
  6  8  1  0  0  0  0
  6 22  1  0  0  0  0
  6 23  1  0  0  0  0
  7 24  1  0  0  0  0
  7 25  1  0  0  0  0
  8 26  1  0  0  0  0
  8 27  1  0  0  0  0
  9 11  1  0  0  0  0
  9 28  1  0  0  0  0
  9 29  1  0  0  0  0
 11 14  2  0  0  0  0
 12 13  1  0  0  0  0
 12 15  2  0  0  0  0
 13 16  2  0  0  0  0
 14 17  1  0  0  0  0
 14 30  1  0  0  0  0
 15 19  1  0  0  0  0
 15 31  1  0  0  0  0
 16 20  1  0  0  0  0
 16 32  1  0  0  0  0
 17 18  2  0  0  0  0
 17 33  1  0  0  0  0
 18 34  1  0  0  0  0
 19 20  2  0  0  0  0
 19 35  1  0  0  0  0
 20 36  1  0  0  0  0
M  END
> <PUBCHEM_COMPOUND_CID>
51137087

> <PUBCHEM_CONFORMER_RMSD>
0.6

> <PUBCHEM_CONFORMER_DIVERSEORDER>
1
74
142
112
122
75
155
134
179
21
170
164
163
180
183
58
24
40
162
151
184
101
18
130
19
177
102
38
93
125
187
153
131
127
133
175
56
48
126
165
158
92
124
123
181
159
77
94
137
105
115
42
178
34
188
103
171
185
141
95
29
78
139
52
154
76
106
161
9
91
145
147
14
35
64
146
60
173
87
169
84
166
160
39
66
45
59
17
182
44
10
186
176
143
32
168
30
136
16
63
47
37
174
28
53
5
97
138
88
36
129
156
7
172
46
71
12
8
67
13
86
49
2
31
26
96
23
6
27
15
110
33
4
70
43
62
50
11
61
98
128
55
149
3
79
104
157
41
85
51
108
90
25
144
82
114
69
54
121
68
135
57
99
120
100
80
81
119
72
83
118
73
132
89
140
167
20
150
116
148
22
113
65
117
152
109
111
107

> <PUBCHEM_MMFF94_PARTIAL_CHARGES>
26
1 -0.08
10 0.2
11 -0.14
12 0.04
13 0.23
14 -0.15
15 -0.15
16 -0.15
17 -0.15
18 -0.11
19 -0.15
2 -0.08
20 -0.15
3 -0.81
30 0.15
31 0.15
32 0.15
33 0.15
34 0.15
35 0.15
36 0.15
4 -0.57
5 0.18
7 0.27
8 0.27
9 0.45

> <PUBCHEM_EFFECTIVE_ROTOR_COUNT>
4

> <PUBCHEM_PHARMACOPHORE_FEATURES>
6
1 3 cation
1 4 acceptor
5 1 4 10 12 13 rings
5 2 11 14 17 18 rings
5 3 5 6 7 8 rings
6 12 13 15 16 19 20 rings

> <PUBCHEM_HEAVY_ATOM_COUNT>
20

> <PUBCHEM_ATOM_DEF_STEREO_COUNT>
1

> <PUBCHEM_ATOM_UDEF_STEREO_COUNT>
0

> <PUBCHEM_BOND_DEF_STEREO_COUNT>
0

> <PUBCHEM_BOND_UDEF_STEREO_COUNT>
0

> <PUBCHEM_ISOTOPIC_ATOM_COUNT>
0

> <PUBCHEM_COMPONENT_COUNT>
1

> <PUBCHEM_CACTVS_TAUTO_COUNT>
1

> <PUBCHEM_CONFORMER_ID>
030C4A3F00000001

> <PUBCHEM_MMFF94_ENERGY>
34.6712

> <PUBCHEM_FEATURE_SELFOVERLAP>
30.519

> <PUBCHEM_SHAPE_FINGERPRINT>
10042902 136 18340768268622144775
10692045 39 10159437383192190268
10928967 22 18334568088309838035
10968037 57 18341047532228631415
11045515 52 17603585205616775373
11046707 91 18408882928068569081
11089746 13 11963389670012493324
11128504 68 17240488026066859982
11370993 144 16702024158184084703
11543360 7 15213293141027300657
11552529 35 14834401506640786996
11796584 16 17980196392957991662
12236239 1 17676205732918000986
12553582 1 18334286600589987387
12633257 1 15841548595758878861
12670546 177 15647051568821854275
12969540 114 12973604443220752321
13103583 49 16200437991743156651
13402501 40 18202568375451765511
13544653 18 17774996903765292001
13740256 8 18411419539842760777
14123255 352 9151175350543741967
14251732 14 18337685169498389566
14251751 18 18412542106965868334
14251757 5 17314243326241124619
14251758 9 11671794770936770724
14251764 30 18188216515215995755
14347329 18 8790888510105049062
14466204 15 10952052238606462811
14528608 73 14490190526763683178
14576447 43 17749106677970202842
14848178 96 8718563726093231055
14950920 106 16128370523602165963
14951699 99 10303228241508783586
15188451 53 17203038712503816903
15209294 21 11312052140912515716
15537594 2 18187647977446487763
17138139 8 17676481808472611738
17349148 13 17676769790682964562
17780758 139 17846781802113910355
1813 80 18410294752606994949
18222031 100 18341325695442334357
18785283 64 17416386857550897064
19141452 34 17846495959224161247
193927 3 18342740723530509965
19784866 34 8934736500023080421
200 152 17313386699324208272
20374829 77 18410009936108395207
20403669 9 18412824720341177167
20621476 21 18131079203524605870
21054139 6 17821444634852510850
22950370 63 18410018766566553973
23016692 55 18261111889853187515
231179 274 12396305837783226524
23402539 116 17894912884427203900
235170 7 15285348518804497451
23557571 272 18200022924550378264
23559900 14 18337941342380342464
2767999 5 9151176432854687395
2838139 119 12035439558283357215
2916195 48 10737292354514017446
312425 54 17060344032783681575
312425 83 14346890008585809611
314173 85 18273211993557436169
351380 3 18260831509824404443
3737641 26 18059022665742911278
4028521 119 12251901482032607525
495365 180 11458413627287028936
5104073 3 17059492903841929506
5352402 22 17346882251606744742
5486654 36 18409175428706364057
7495541 125 18201995530610579616
7918774 8 18272099296026685638
7970288 3 18336263539471642467
8217 86 17313959644151831099
9849439 229 10014772478432074159
999808 66 17203055063328151726

> <PUBCHEM_SHAPE_MULTIPOLES>
409.33
13.56
2.33
1.46
0.59
0.74
0.12
-10.91
-0.08
-2.41
-0.35
0.81
-0.2
0.78

> <PUBCHEM_SHAPE_SELFOVERLAP>
867.758

> <PUBCHEM_SHAPE_VOLUME>
232.1

> <PUBCHEM_COORDINATE_TYPE>
2
5
10

$$$$
