11911647
  -OEChem-12032416363D

 64 68  0     1  0  0  0  0  0999 V2000
   -1.8609    0.2694    1.6339 O   0  0  0  0  0  0  0  0  0  0  0  0
    0.2532   -1.7688    0.7455 O   0  0  0  0  0  0  0  0  0  0  0  0
   -3.3125   -1.7489    0.4008 O   0  0  0  0  0  0  0  0  0  0  0  0
   -3.9823   -0.1236   -1.0619 O   0  0  0  0  0  0  0  0  0  0  0  0
    0.7431    1.8522    1.0176 N   0  0  0  0  0  0  0  0  0  0  0  0
    2.9354    1.3352    0.3597 N   0  0  0  0  0  0  0  0  0  0  0  0
    2.0313    3.5436    0.0246 N   0  0  0  0  0  0  0  0  0  0  0  0
   -5.5155   -1.2821    0.2753 N   0  0  0  0  0  0  0  0  0  0  0  0
    8.1709   -2.1227   -0.5446 N   0  0  0  0  0  0  0  0  0  0  0  0
    0.0466   -0.3863    0.3870 C   0  0  1  0  0  0  0  0  0  0  0  0
   -1.4521   -0.1676    0.3275 C   0  0  1  0  0  0  0  0  0  0  0  0
    0.5027    0.5133    1.5116 C   0  0  2  0  0  0  0  0  0  0  0  0
   -1.9721   -1.5496    0.0121 C   0  0  1  0  0  0  0  0  0  0  0  0
   -0.6975    0.5027    2.4424 C   0  0  0  0  0  0  0  0  0  0  0  0
   -1.0183   -2.4329    0.7844 C   0  0  0  0  0  0  0  0  0  0  0  0
    1.9390    2.2557    0.4501 C   0  0  0  0  0  0  0  0  0  0  0  0
   -4.2641   -0.9623   -0.2147 C   0  0  0  0  0  0  0  0  0  0  0  0
    4.0871    1.7623   -0.1982 C   0  0  0  0  0  0  0  0  0  0  0  0
    3.2109    3.9031   -0.5230 C   0  0  0  0  0  0  0  0  0  0  0  0
    4.2841    3.0471   -0.6620 C   0  0  0  0  0  0  0  0  0  0  0  0
   -6.7609   -0.7181   -0.0837 C   0  0  0  0  0  0  0  0  0  0  0  0
    5.1310    0.7695   -0.2855 C   0  0  0  0  0  0  0  0  0  0  0  0
   -7.9163   -1.1788    0.5275 C   0  0  0  0  0  0  0  0  0  0  0  0
   -6.8026    0.2842   -1.0397 C   0  0  0  0  0  0  0  0  0  0  0  0
    4.8035   -0.5810   -0.4251 C   0  0  0  0  0  0  0  0  0  0  0  0
    6.4722    1.1555   -0.2326 C   0  0  0  0  0  0  0  0  0  0  0  0
   -9.1455   -0.6225    0.1734 C   0  0  0  0  0  0  0  0  0  0  0  0
   -8.0317    0.8406   -1.3937 C   0  0  0  0  0  0  0  0  0  0  0  0
    5.8122   -1.5407   -0.5113 C   0  0  0  0  0  0  0  0  0  0  0  0
    7.4808    0.1958   -0.3189 C   0  0  0  0  0  0  0  0  0  0  0  0
    7.1508   -1.1523   -0.4583 C   0  0  0  0  0  0  0  0  0  0  0  0
   -9.2032    0.3871   -0.7871 C   0  0  0  0  0  0  0  0  0  0  0  0
  -10.5174    0.9821   -1.1658 C   0  0  0  0  0  0  0  0  0  0  0  0
    7.9559   -3.3492   -1.2863 C   0  0  0  0  0  0  0  0  0  0  0  0
    9.4420   -1.9121    0.1188 C   0  0  0  0  0  0  0  0  0  0  0  0
    0.5439   -0.2188   -0.5736 H   0  0  0  0  0  0  0  0  0  0  0  0
   -1.7368    0.6081   -0.3881 H   0  0  0  0  0  0  0  0  0  0  0  0
    1.3785    0.1354    2.0516 H   0  0  0  0  0  0  0  0  0  0  0  0
   -1.8550   -1.7614   -1.0592 H   0  0  0  0  0  0  0  0  0  0  0  0
   -0.8302    1.4305    3.0075 H   0  0  0  0  0  0  0  0  0  0  0  0
   -0.6306   -0.3259    3.1561 H   0  0  0  0  0  0  0  0  0  0  0  0
   -1.3208   -2.5583    1.8301 H   0  0  0  0  0  0  0  0  0  0  0  0
   -0.9252   -3.4298    0.3432 H   0  0  0  0  0  0  0  0  0  0  0  0
   -0.0096    2.5311    1.0324 H   0  0  0  0  0  0  0  0  0  0  0  0
   -5.5473   -2.0131    0.9818 H   0  0  0  0  0  0  0  0  0  0  0  0
    3.2690    4.9314   -0.8638 H   0  0  0  0  0  0  0  0  0  0  0  0
    5.1943    3.3956   -1.1329 H   0  0  0  0  0  0  0  0  0  0  0  0
   -7.8824   -1.9650    1.2766 H   0  0  0  0  0  0  0  0  0  0  0  0
   -5.9404    0.6860   -1.5518 H   0  0  0  0  0  0  0  0  0  0  0  0
    3.7705   -0.9168   -0.4780 H   0  0  0  0  0  0  0  0  0  0  0  0
    6.7739    2.1914   -0.1021 H   0  0  0  0  0  0  0  0  0  0  0  0
    5.5209   -2.5826   -0.6093 H   0  0  0  0  0  0  0  0  0  0  0  0
    8.5130    0.5321   -0.2808 H   0  0  0  0  0  0  0  0  0  0  0  0
  -10.0513   -0.9856    0.6518 H   0  0  0  0  0  0  0  0  0  0  0  0
   -8.0655    1.6257   -2.1447 H   0  0  0  0  0  0  0  0  0  0  0  0
  -10.4060    2.0318   -1.4582 H   0  0  0  0  0  0  0  0  0  0  0  0
  -11.2197    0.9567   -0.3257 H   0  0  0  0  0  0  0  0  0  0  0  0
  -10.9527    0.4286   -2.0037 H   0  0  0  0  0  0  0  0  0  0  0  0
    8.9078   -3.8282   -1.5417 H   0  0  0  0  0  0  0  0  0  0  0  0
    7.3761   -4.0647   -0.6937 H   0  0  0  0  0  0  0  0  0  0  0  0
    7.4354   -3.1606   -2.2321 H   0  0  0  0  0  0  0  0  0  0  0  0
    9.3063   -1.4939    1.1226 H   0  0  0  0  0  0  0  0  0  0  0  0
    9.9849   -2.8559    0.2421 H   0  0  0  0  0  0  0  0  0  0  0  0
   10.0789   -1.2408   -0.4667 H   0  0  0  0  0  0  0  0  0  0  0  0
  1 11  1  0  0  0  0
  1 14  1  0  0  0  0
  2 10  1  0  0  0  0
  2 15  1  0  0  0  0
  3 13  1  0  0  0  0
  3 17  1  0  0  0  0
  4 17  2  0  0  0  0
  5 12  1  0  0  0  0
  5 16  1  0  0  0  0
  5 44  1  0  0  0  0
  6 16  1  0  0  0  0
  6 18  2  0  0  0  0
  7 16  2  0  0  0  0
  7 19  1  0  0  0  0
  8 17  1  0  0  0  0
  8 21  1  0  0  0  0
  8 45  1  0  0  0  0
  9 31  1  0  0  0  0
  9 34  1  0  0  0  0
  9 35  1  0  0  0  0
 10 11  1  0  0  0  0
 10 12  1  0  0  0  0
 10 36  1  0  0  0  0
 11 13  1  0  0  0  0
 11 37  1  0  0  0  0
 12 14  1  0  0  0  0
 12 38  1  0  0  0  0
 13 15  1  0  0  0  0
 13 39  1  0  0  0  0
 14 40  1  0  0  0  0
 14 41  1  0  0  0  0
 15 42  1  0  0  0  0
 15 43  1  0  0  0  0
 18 20  1  0  0  0  0
 18 22  1  0  0  0  0
 19 20  2  0  0  0  0
 19 46  1  0  0  0  0
 20 47  1  0  0  0  0
 21 23  2  0  0  0  0
 21 24  1  0  0  0  0
 22 25  2  0  0  0  0
 22 26  1  0  0  0  0
 23 27  1  0  0  0  0
 23 48  1  0  0  0  0
 24 28  2  0  0  0  0
 24 49  1  0  0  0  0
 25 29  1  0  0  0  0
 25 50  1  0  0  0  0
 26 30  2  0  0  0  0
 26 51  1  0  0  0  0
 27 32  2  0  0  0  0
 27 54  1  0  0  0  0
 28 32  1  0  0  0  0
 28 55  1  0  0  0  0
 29 31  2  0  0  0  0
 29 52  1  0  0  0  0
 30 31  1  0  0  0  0
 30 53  1  0  0  0  0
 32 33  1  0  0  0  0
 33 56  1  0  0  0  0
 33 57  1  0  0  0  0
 33 58  1  0  0  0  0
 34 59  1  0  0  0  0
 34 60  1  0  0  0  0
 34 61  1  0  0  0  0
 35 62  1  0  0  0  0
 35 63  1  0  0  0  0
 35 64  1  0  0  0  0
M  END
> <PUBCHEM_COMPOUND_CID>
11911647

> <PUBCHEM_CONFORMER_RMSD>
1

> <PUBCHEM_CONFORMER_DIVERSEORDER>
1
101
70
177
145
92
66
50
99
89
121
150
243
158
43
203
36
137
110
33
229
119
155
139
217
239
85
237
88
38
122
225
147
141
136
37
195
234
102
94
188
178
161
16
105
208
56
26
200
149
74
154
130
162
169
9
113
120
41
146
95
69
49
236
82
220
60
241
223
116
79
179
106
59
240
164
168
87
244
211
32
199
80
10
112
107
210
61
54
165
55
174
201
167
152
192
227
93
157
117
209
57
63
51
224
218
111
142
90
198
115
58
20
191
39
7
156
5
42
35
97
194
221
212
64
91
148
114
197
219
182
216
53
207
104
78
190
44
143
140
189
40
62
98
133
242
8
205
65
124
103
184
230
187
163
45
68
175
126
67
27
172
233
125
76
159
118
131
151
73
46
213
34
171
180
29
193
228
81
170
48
206
12
160
132
144
176
96
11
14
17
28
134
75
138
72
71
123
25
202
100
215
24
181
109
222
173
6
238
19
21
135
232
185
52
84
226
15
183
235
231
153
31
18
86
3
13
196
77
166
22
30
23
245
108
83
214
129
4
186
204
128
47
127
2

> <PUBCHEM_MMFF94_PARTIAL_CHARGES>
46
1 -0.56
10 0.28
11 0.28
12 0.37
13 0.28
14 0.28
15 0.28
16 0.72
17 0.78
18 0.31
19 0.16
2 -0.56
20 -0.15
21 0.12
23 -0.15
24 -0.15
25 -0.15
26 -0.15
27 -0.15
28 -0.15
29 -0.15
3 -0.43
30 -0.15
31 0.1
32 -0.14
33 0.14
34 0.37
35 0.37
4 -0.57
44 0.4
45 0.37
46 0.15
47 0.15
48 0.15
49 0.15
5 -0.87
50 0.15
51 0.15
52 0.15
53 0.15
54 0.15
55 0.15
6 -0.62
7 -0.62
8 -0.55
9 -0.84

> <PUBCHEM_EFFECTIVE_ROTOR_COUNT>
9.2

> <PUBCHEM_PHARMACOPHORE_FEATURES>
13
1 1 acceptor
1 2 acceptor
1 4 acceptor
1 5 donor
1 6 acceptor
1 8 donor
1 9 cation
4 5 6 7 16 cation
5 1 10 11 12 14 rings
5 2 10 11 13 15 rings
6 21 23 24 27 28 32 rings
6 22 25 26 29 30 31 rings
6 6 7 16 18 19 20 rings

> <PUBCHEM_HEAVY_ATOM_COUNT>
35

> <PUBCHEM_ATOM_DEF_STEREO_COUNT>
4

> <PUBCHEM_ATOM_UDEF_STEREO_COUNT>
0

> <PUBCHEM_BOND_DEF_STEREO_COUNT>
0

> <PUBCHEM_BOND_UDEF_STEREO_COUNT>
0

> <PUBCHEM_ISOTOPIC_ATOM_COUNT>
0

> <PUBCHEM_COMPONENT_COUNT>
1

> <PUBCHEM_CACTVS_TAUTO_COUNT>
6

> <PUBCHEM_CONFORMER_ID>
00B5C1DF00000001

> <PUBCHEM_MMFF94_ENERGY>
129.2081

> <PUBCHEM_FEATURE_SELFOVERLAP>
66.688

> <PUBCHEM_SHAPE_FINGERPRINT>
10 15 8286200552478521035
10049733 71 18200317589841537534
10055352 69 11458722624160386470
10258705 36 18116165539528233435
10483366 6 18409448068138599169
106641 1 8646768902676124047
10670039 82 18273214189109028033
10930396 42 13758067468177931722
11146346 171 18261399975328620307
11273773 46 18408890632934475962
11374522 175 18339642218281372142
11720765 8 18129941311853425336
11828042 163 18052827953445951685
11828042 291 18267561582255351439
12013929 94 9439392545904935821
12098696 120 18260540143970547097
12144600 37 18190746517373232835
12559415 135 16630250242741979481
13811026 1 18341613690042269830
14117953 113 18272940410354853454
14747281 78 16226050020460332872
150020 25 18113618989298645319
15183329 4 18410575102070094033
15289351 153 18410849937507425833
15320294 125 17346875646400965524
15350500 16 17060337413826933496
15439362 3 18047474706245075340
15444296 9 18202567259319094053
15684389 69 12468353544858992399
15728490 51 10665232557933528281
15773216 30 17168416044205912274
15840311 113 18187365493347771301
16664035 1 18343582962939941304
16992610 120 15791737386084137843
18335252 114 18410567423212082573
18393751 57 10879989134800642752
19301676 85 18409737231836036530
19315958 150 18265615558053160380
19611394 137 17460324463800117913
19841028 212 18413108360451208714
20105231 36 18187368744712029699
21133410 58 18411982477313090798
21792934 111 18272362080265463024
21792961 116 18342177765926268251
23559900 14 18269272529652949458
249057 3 18411980282035584783
3103668 31 18114456743533683700
3633792 109 18411983598087915192
439807 62 18408324380920655222
474113 269 17917713470433078190
5223283 242 18334581264873856660
57303763 176 18129103312774070785
5758199 1 15647047175787638049
57676310 78 18201431429337131631
58902169 19 18130499825226085359
59682541 35 10519982668882150271
6081469 158 18409731738566544534
6204607 403 12179851575850062246
6636798 310 17345755163033815322
9689198 14 17676766565685017793

> <PUBCHEM_SHAPE_MULTIPOLES>
671.9
33.16
3.36
1.28
37.28
1.89
-0.44
-12.44
14.28
-7.87
0.56
0.94
0.08
2.1

> <PUBCHEM_SHAPE_SELFOVERLAP>
1464.627

> <PUBCHEM_SHAPE_VOLUME>
366.2

> <PUBCHEM_COORDINATE_TYPE>
2
5
10

$$$$
