56774725
  -OEChem-12032416273D

 51 53  0     1  0  0  0  0  0999 V2000
    6.2731   -1.5548    0.7394 S   0  0  0  0  0  0  0  0  0  0  0  0
   -2.6329    2.2768    0.9735 O   0  0  0  0  0  0  0  0  0  0  0  0
   -2.3366   -0.7382   -1.9481 O   0  0  0  0  0  0  0  0  0  0  0  0
   -5.9636    1.5597   -0.2238 O   0  0  0  0  0  0  0  0  0  0  0  0
    4.5717    1.6224   -0.6856 O   0  0  0  0  0  0  0  0  0  0  0  0
   -4.1593    0.1150    0.0475 N   0  0  0  0  0  0  0  0  0  0  0  0
    3.6735   -0.4530   -0.0416 N   0  0  0  0  0  0  0  0  0  0  0  0
   -2.7232   -0.0209    0.3214 C   0  0  1  0  0  0  0  0  0  0  0  0
   -1.9078    0.1904   -0.9578 C   0  0  1  0  0  0  0  0  0  0  0  0
   -4.8486   -1.0374   -0.5170 C   0  0  0  0  0  0  0  0  0  0  0  0
   -2.3042    0.9624    1.4077 C   0  0  0  0  0  0  0  0  0  0  0  0
   -6.1225   -1.3920    0.2579 C   0  0  0  0  0  0  0  0  0  0  0  0
   -4.8107    1.3423    0.1532 C   0  0  0  0  0  0  0  0  0  0  0  0
   -4.0296    2.4395    0.8677 C   0  0  0  0  0  0  0  0  0  0  0  0
   -0.4299    0.0200   -0.7145 C   0  0  0  0  0  0  0  0  0  0  0  0
   -5.7777   -1.7226    1.7104 C   0  0  0  0  0  0  0  0  0  0  0  0
   -6.8644   -2.5674   -0.3828 C   0  0  0  0  0  0  0  0  0  0  0  0
    0.4472    1.0695   -0.9883 C   0  0  0  0  0  0  0  0  0  0  0  0
    0.0607   -1.1869   -0.2163 C   0  0  0  0  0  0  0  0  0  0  0  0
    1.8148    0.9122   -0.7640 C   0  0  0  0  0  0  0  0  0  0  0  0
    1.4284   -1.3444    0.0079 C   0  0  0  0  0  0  0  0  0  0  0  0
    2.3054   -0.2949   -0.2660 C   0  0  0  0  0  0  0  0  0  0  0  0
    4.6962    0.4806   -0.2557 C   0  0  0  0  0  0  0  0  0  0  0  0
    6.0629    0.0231    0.1083 C   0  0  0  0  0  0  0  0  0  0  0  0
    7.2560    0.7053    0.0138 C   0  0  0  0  0  0  0  0  0  0  0  0
    8.3572   -0.0779    0.4651 C   0  0  0  0  0  0  0  0  0  0  0  0
    7.9640   -1.3287    0.8876 C   0  0  0  0  0  0  0  0  0  0  0  0
   -2.5794   -1.0344    0.7161 H   0  0  0  0  0  0  0  0  0  0  0  0
   -2.1097    1.1845   -1.3745 H   0  0  0  0  0  0  0  0  0  0  0  0
   -4.1802   -1.9054   -0.5372 H   0  0  0  0  0  0  0  0  0  0  0  0
   -5.1082   -0.7871   -1.5528 H   0  0  0  0  0  0  0  0  0  0  0  0
   -2.8247    0.7526    2.3514 H   0  0  0  0  0  0  0  0  0  0  0  0
   -1.2337    0.9269    1.6271 H   0  0  0  0  0  0  0  0  0  0  0  0
   -6.8243   -0.5529    0.2665 H   0  0  0  0  0  0  0  0  0  0  0  0
   -4.2098    3.3791    0.3350 H   0  0  0  0  0  0  0  0  0  0  0  0
   -4.4500    2.5438    1.8750 H   0  0  0  0  0  0  0  0  0  0  0  0
   -5.3490   -0.8603    2.2311 H   0  0  0  0  0  0  0  0  0  0  0  0
   -6.6761   -2.0191    2.2628 H   0  0  0  0  0  0  0  0  0  0  0  0
   -5.0604   -2.5484    1.7715 H   0  0  0  0  0  0  0  0  0  0  0  0
   -7.7818   -2.7982    0.1688 H   0  0  0  0  0  0  0  0  0  0  0  0
   -7.1438   -2.3307   -1.4148 H   0  0  0  0  0  0  0  0  0  0  0  0
   -6.2419   -3.4685   -0.3981 H   0  0  0  0  0  0  0  0  0  0  0  0
   -2.1583   -1.6397   -1.6319 H   0  0  0  0  0  0  0  0  0  0  0  0
    0.0781    2.0155   -1.3756 H   0  0  0  0  0  0  0  0  0  0  0  0
   -0.6013   -2.0208   -0.0010 H   0  0  0  0  0  0  0  0  0  0  0  0
    2.4282    1.7701   -1.0001 H   0  0  0  0  0  0  0  0  0  0  0  0
    1.7973   -2.2909    0.3952 H   0  0  0  0  0  0  0  0  0  0  0  0
    3.9512   -1.3606    0.3259 H   0  0  0  0  0  0  0  0  0  0  0  0
    7.3433    1.7175   -0.3603 H   0  0  0  0  0  0  0  0  0  0  0  0
    9.3856    0.2588    0.4792 H   0  0  0  0  0  0  0  0  0  0  0  0
    8.5888   -2.1205    1.2762 H   0  0  0  0  0  0  0  0  0  0  0  0
  1 24  1  0  0  0  0
  1 27  1  0  0  0  0
  2 11  1  0  0  0  0
  2 14  1  0  0  0  0
  3  9  1  0  0  0  0
  3 43  1  0  0  0  0
  4 13  2  0  0  0  0
  5 23  2  0  0  0  0
  6  8  1  0  0  0  0
  6 10  1  0  0  0  0
  6 13  1  0  0  0  0
  7 22  1  0  0  0  0
  7 23  1  0  0  0  0
  7 48  1  0  0  0  0
  8  9  1  0  0  0  0
  8 11  1  0  0  0  0
  8 28  1  0  0  0  0
  9 15  1  0  0  0  0
  9 29  1  0  0  0  0
 10 12  1  0  0  0  0
 10 30  1  0  0  0  0
 10 31  1  0  0  0  0
 11 32  1  0  0  0  0
 11 33  1  0  0  0  0
 12 16  1  0  0  0  0
 12 17  1  0  0  0  0
 12 34  1  0  0  0  0
 13 14  1  0  0  0  0
 14 35  1  0  0  0  0
 14 36  1  0  0  0  0
 15 18  2  0  0  0  0
 15 19  1  0  0  0  0
 16 37  1  0  0  0  0
 16 38  1  0  0  0  0
 16 39  1  0  0  0  0
 17 40  1  0  0  0  0
 17 41  1  0  0  0  0
 17 42  1  0  0  0  0
 18 20  1  0  0  0  0
 18 44  1  0  0  0  0
 19 21  2  0  0  0  0
 19 45  1  0  0  0  0
 20 22  2  0  0  0  0
 20 46  1  0  0  0  0
 21 22  1  0  0  0  0
 21 47  1  0  0  0  0
 23 24  1  0  0  0  0
 24 25  2  0  0  0  0
 25 26  1  0  0  0  0
 25 49  1  0  0  0  0
 26 27  2  0  0  0  0
 26 50  1  0  0  0  0
 27 51  1  0  0  0  0
M  END
> <PUBCHEM_COMPOUND_CID>
56774725

> <PUBCHEM_CONFORMER_RMSD>
1

> <PUBCHEM_CONFORMER_DIVERSEORDER>
1
20
18
8
16
12
21
14
13
4
6
11
17
15
19
10
9
3
2
7
5

> <PUBCHEM_MMFF94_PARTIAL_CHARGES>
33
1 -0.08
10 0.3
11 0.28
13 0.57
14 0.34
15 -0.14
18 -0.15
19 -0.15
2 -0.56
20 -0.15
21 -0.15
22 0.12
23 0.71
24 -0.05
25 -0.15
26 -0.15
27 -0.11
3 -0.68
4 -0.57
43 0.4
44 0.15
45 0.15
46 0.15
47 0.15
48 0.37
49 0.15
5 -0.57
50 0.15
51 0.15
6 -0.66
7 -0.55
8 0.3
9 0.42

> <PUBCHEM_EFFECTIVE_ROTOR_COUNT>
8

> <PUBCHEM_PHARMACOPHORE_FEATURES>
10
1 2 acceptor
1 3 acceptor
1 3 donor
1 4 acceptor
1 5 acceptor
1 7 donor
3 12 16 17 hydrophobe
5 1 24 25 26 27 rings
6 15 18 19 20 21 22 rings
6 2 6 8 11 13 14 rings

> <PUBCHEM_HEAVY_ATOM_COUNT>
27

> <PUBCHEM_ATOM_DEF_STEREO_COUNT>
2

> <PUBCHEM_ATOM_UDEF_STEREO_COUNT>
0

> <PUBCHEM_BOND_DEF_STEREO_COUNT>
0

> <PUBCHEM_BOND_UDEF_STEREO_COUNT>
0

> <PUBCHEM_ISOTOPIC_ATOM_COUNT>
0

> <PUBCHEM_COMPONENT_COUNT>
1

> <PUBCHEM_CACTVS_TAUTO_COUNT>
4

> <PUBCHEM_CONFORMER_ID>
0362504500000001

> <PUBCHEM_MMFF94_ENERGY>
71.7883

> <PUBCHEM_FEATURE_SELFOVERLAP>
50.747

> <PUBCHEM_SHAPE_FINGERPRINT>
10 15 17917710223516832392
10100884 174 18192709171093447667
10299344 5 18333450937577644918
11135609 99 18116155665545709215
11315181 36 18260548935536207645
11524674 6 15791737395048294496
11646440 116 16487257681855066952
12166972 35 18261394493879413180
12236239 1 18410855452034151420
12596602 18 18334857221022690248
13073987 5 18202005378822993534
13631057 29 18342174492965970515
13782708 43 16877937214283158018
14251764 18 18334858333951852534
14849402 71 18269275828167623456
14856354 85 18130786819241364303
15183329 4 9439408999339220507
1577012 14 18261966201671941428
21130935 74 18339078195150122458
21267235 1 18260828173541949390
21315759 40 18114183051437574030
21315763 28 18411418427836504192
23081809 10 17967825946125414860
23522609 53 17970375679605730916
23559900 14 17969786483185667065
23569917 315 18334582356233815338
23569943 247 17975979757497797490
249057 25 18261404359519480148
3383291 50 18334296508479017058
34797466 226 16773523265304380820
3663271 9 18409729526515793546
4015057 19 16515979171688043077
4339292 15 17632002161747702831
4340502 62 16558753417051385302
5104073 3 17916034464173899323
5385378 56 15123522388990972494
59755656 520 18333726923048620234
9996256 80 18408321077774442718

> <PUBCHEM_SHAPE_MULTIPOLES>
526.06
22.97
2.15
1.18
27.7
0.08
0.06
-7.67
5.39
-3.35
0.45
-0.99
-0.04
-1.3

> <PUBCHEM_SHAPE_SELFOVERLAP>
1100.31

> <PUBCHEM_SHAPE_VOLUME>
298.3

> <PUBCHEM_COORDINATE_TYPE>
2
5
10

$$$$
