45360523
  -OEChem-12032416193D

 74 79  0     1  0  0  0  0  0999 V2000
    4.0745    3.1844   -0.1599 O   0  0  0  0  0  0  0  0  0  0  0  0
    0.8984   -2.6755   -1.6362 O   0  0  0  0  0  0  0  0  0  0  0  0
   -0.8654    1.1309    2.2741 O   0  0  0  0  0  0  0  0  0  0  0  0
   -1.5279   -2.3682   -0.5971 O   0  0  0  0  0  0  0  0  0  0  0  0
    2.1181    2.2398   -0.9834 N   0  0  0  0  0  0  0  0  0  0  0  0
    6.8180   -0.4318    1.5341 N   0  0  0  0  0  0  0  0  0  0  0  0
   -1.8951    1.7803    0.2318 N   0  0  0  0  0  0  0  0  0  0  0  0
   -3.2109    1.1937    1.9790 N   0  0  0  0  0  0  0  0  0  0  0  0
    2.2209   -2.4692   -2.0097 N   0  0  0  0  0  0  0  0  0  0  0  0
    4.1196    0.0676    0.4497 C   0  0  1  0  0  0  0  0  0  0  0  0
    4.8248   -1.3051    0.3381 C   0  0  2  0  0  0  0  0  0  0  0  0
    4.6998    0.8337    1.6504 C   0  0  0  0  0  0  0  0  0  0  0  0
    4.1969    0.9142   -0.8264 C   0  0  0  0  0  0  0  0  0  0  0  0
    6.3558   -1.1601    0.3520 C   0  0  0  0  0  0  0  0  0  0  0  0
   -0.7450    2.0639   -0.5908 C   0  0  0  0  0  0  0  0  0  0  0  0
    6.2260    0.9017    1.6167 C   0  0  0  0  0  0  0  0  0  0  0  0
    4.3728   -2.1138   -0.8786 C   0  0  0  0  0  0  0  0  0  0  0  0
    0.1195    0.8116   -0.7724 C   0  0  0  0  0  0  0  0  0  0  0  0
    0.0798    3.2078    0.0076 C   0  0  0  0  0  0  0  0  0  0  0  0
    1.3790    1.1200   -1.5794 C   0  0  0  0  0  0  0  0  0  0  0  0
    1.3393    3.4682   -0.8144 C   0  0  0  0  0  0  0  0  0  0  0  0
    3.4654    2.2174   -0.6246 C   0  0  0  0  0  0  0  0  0  0  0  0
    2.8900   -2.3480   -0.8596 C   0  0  0  0  0  0  0  0  0  0  0  0
   -3.2299    1.8940   -0.1751 C   0  0  0  0  0  0  0  0  0  0  0  0
   -1.8514    1.3419    1.5818 C   0  0  0  0  0  0  0  0  0  0  0  0
   -4.0336    1.5316    0.9042 C   0  0  0  0  0  0  0  0  0  0  0  0
    2.0506   -2.4679    0.2614 C   0  0  0  0  0  0  0  0  0  0  0  0
   -3.7743    2.2792   -1.3823 C   0  0  0  0  0  0  0  0  0  0  0  0
    0.8097   -2.6727   -0.2814 C   0  0  0  0  0  0  0  0  0  0  0  0
   -5.4093    1.5351    0.8345 C   0  0  0  0  0  0  0  0  0  0  0  0
   -5.1699    2.2907   -1.4777 C   0  0  0  0  0  0  0  0  0  0  0  0
   -5.9783    1.9227   -0.3815 C   0  0  0  0  0  0  0  0  0  0  0  0
   -0.5273   -2.8792    0.2880 C   0  0  0  0  0  0  0  0  0  0  0  0
   -2.8207   -2.4367   -0.1591 C   0  0  0  0  0  0  0  0  0  0  0  0
   -3.1052   -2.9837    1.0921 C   0  0  0  0  0  0  0  0  0  0  0  0
   -3.8555   -1.9595   -0.9634 C   0  0  0  0  0  0  0  0  0  0  0  0
   -4.4248   -3.0536    1.5390 C   0  0  0  0  0  0  0  0  0  0  0  0
   -5.1749   -2.0292   -0.5165 C   0  0  0  0  0  0  0  0  0  0  0  0
   -5.4596   -2.5764    0.7348 C   0  0  0  0  0  0  0  0  0  0  0  0
    3.0591   -0.0798    0.6814 H   0  0  0  0  0  0  0  0  0  0  0  0
    4.5679   -1.8758    1.2434 H   0  0  0  0  0  0  0  0  0  0  0  0
    4.2747    1.8320    1.7771 H   0  0  0  0  0  0  0  0  0  0  0  0
    4.4070    0.2942    2.5633 H   0  0  0  0  0  0  0  0  0  0  0  0
    3.8635    0.4019   -1.7273 H   0  0  0  0  0  0  0  0  0  0  0  0
    5.2395    1.1738   -1.0497 H   0  0  0  0  0  0  0  0  0  0  0  0
    6.7114   -0.6625   -0.5585 H   0  0  0  0  0  0  0  0  0  0  0  0
    6.8143   -2.1558    0.3647 H   0  0  0  0  0  0  0  0  0  0  0  0
   -1.0821    2.3815   -1.5840 H   0  0  0  0  0  0  0  0  0  0  0  0
    6.5740    1.5271    0.7871 H   0  0  0  0  0  0  0  0  0  0  0  0
    6.5777    1.3798    2.5378 H   0  0  0  0  0  0  0  0  0  0  0  0
    4.6776   -1.6330   -1.8151 H   0  0  0  0  0  0  0  0  0  0  0  0
    4.8653   -3.0951   -0.8658 H   0  0  0  0  0  0  0  0  0  0  0  0
    0.4180    0.4029    0.1995 H   0  0  0  0  0  0  0  0  0  0  0  0
   -0.4597    0.0353   -1.2840 H   0  0  0  0  0  0  0  0  0  0  0  0
   -0.5237    4.1221    0.0584 H   0  0  0  0  0  0  0  0  0  0  0  0
    0.3805    2.9735    1.0357 H   0  0  0  0  0  0  0  0  0  0  0  0
    1.1127    1.4179   -2.6005 H   0  0  0  0  0  0  0  0  0  0  0  0
    1.9659    0.2133   -1.6559 H   0  0  0  0  0  0  0  0  0  0  0  0
    1.0763    3.8290   -1.8158 H   0  0  0  0  0  0  0  0  0  0  0  0
    1.9390    4.2475   -0.3336 H   0  0  0  0  0  0  0  0  0  0  0  0
    7.8337   -0.3489    1.5034 H   0  0  0  0  0  0  0  0  0  0  0  0
    2.2934   -2.4242    1.3127 H   0  0  0  0  0  0  0  0  0  0  0  0
   -3.5400    0.8924    2.8879 H   0  0  0  0  0  0  0  0  0  0  0  0
   -3.1711    2.5645   -2.2351 H   0  0  0  0  0  0  0  0  0  0  0  0
   -6.0284    1.2508    1.6769 H   0  0  0  0  0  0  0  0  0  0  0  0
   -5.6419    2.5869   -2.4111 H   0  0  0  0  0  0  0  0  0  0  0  0
   -7.0599    1.9407   -0.4874 H   0  0  0  0  0  0  0  0  0  0  0  0
   -0.5615   -2.3446    1.2459 H   0  0  0  0  0  0  0  0  0  0  0  0
   -0.6701   -3.9561    0.4398 H   0  0  0  0  0  0  0  0  0  0  0  0
   -2.3562   -3.3792    1.7690 H   0  0  0  0  0  0  0  0  0  0  0  0
   -3.6394   -1.5299   -1.9377 H   0  0  0  0  0  0  0  0  0  0  0  0
   -4.6478   -3.4799    2.5128 H   0  0  0  0  0  0  0  0  0  0  0  0
   -5.9805   -1.6558   -1.1420 H   0  0  0  0  0  0  0  0  0  0  0  0
   -6.4869   -2.6295    1.0829 H   0  0  0  0  0  0  0  0  0  0  0  0
  1 22  2  0  0  0  0
  2  9  1  0  0  0  0
  2 29  1  0  0  0  0
  3 25  2  0  0  0  0
  4 33  1  0  0  0  0
  4 34  1  0  0  0  0
  5 20  1  0  0  0  0
  5 21  1  0  0  0  0
  5 22  1  0  0  0  0
  6 14  1  0  0  0  0
  6 16  1  0  0  0  0
  6 61  1  0  0  0  0
  7 15  1  0  0  0  0
  7 24  1  0  0  0  0
  7 25  1  0  0  0  0
  8 25  1  0  0  0  0
  8 26  1  0  0  0  0
  8 63  1  0  0  0  0
  9 23  2  0  0  0  0
 10 11  1  0  0  0  0
 10 12  1  0  0  0  0
 10 13  1  0  0  0  0
 10 40  1  0  0  0  0
 11 14  1  0  0  0  0
 11 17  1  0  0  0  0
 11 41  1  0  0  0  0
 12 16  1  0  0  0  0
 12 42  1  0  0  0  0
 12 43  1  0  0  0  0
 13 22  1  0  0  0  0
 13 44  1  0  0  0  0
 13 45  1  0  0  0  0
 14 46  1  0  0  0  0
 14 47  1  0  0  0  0
 15 18  1  0  0  0  0
 15 19  1  0  0  0  0
 15 48  1  0  0  0  0
 16 49  1  0  0  0  0
 16 50  1  0  0  0  0
 17 23  1  0  0  0  0
 17 51  1  0  0  0  0
 17 52  1  0  0  0  0
 18 20  1  0  0  0  0
 18 53  1  0  0  0  0
 18 54  1  0  0  0  0
 19 21  1  0  0  0  0
 19 55  1  0  0  0  0
 19 56  1  0  0  0  0
 20 57  1  0  0  0  0
 20 58  1  0  0  0  0
 21 59  1  0  0  0  0
 21 60  1  0  0  0  0
 23 27  1  0  0  0  0
 24 26  1  0  0  0  0
 24 28  2  0  0  0  0
 26 30  2  0  0  0  0
 27 29  2  0  0  0  0
 27 62  1  0  0  0  0
 28 31  1  0  0  0  0
 28 64  1  0  0  0  0
 29 33  1  0  0  0  0
 30 32  1  0  0  0  0
 30 65  1  0  0  0  0
 31 32  2  0  0  0  0
 31 66  1  0  0  0  0
 32 67  1  0  0  0  0
 33 68  1  0  0  0  0
 33 69  1  0  0  0  0
 34 35  2  0  0  0  0
 34 36  1  0  0  0  0
 35 37  1  0  0  0  0
 35 70  1  0  0  0  0
 36 38  2  0  0  0  0
 36 71  1  0  0  0  0
 37 39  2  0  0  0  0
 37 72  1  0  0  0  0
 38 39  1  0  0  0  0
 38 73  1  0  0  0  0
 39 74  1  0  0  0  0
M  END
> <PUBCHEM_COMPOUND_CID>
45360523

> <PUBCHEM_CONFORMER_RMSD>
1.6

> <PUBCHEM_CONFORMER_DIVERSEORDER>
3
114
35
128
44
58
36
68
78
110
1
67
28
123
41
74
126
122
27
90
26
127
141
51
93
94
66
63
39
118
134
54
130
10
42
87
71
143
11
45
60
133
96
73
34
139
50
120
6
33
8
121
83
146
104
112
129
14
76
12
108
99
132
125
86
16
57
144
124
140
92
137
40
101
23
31
9
56
89
20
136
142
98
25
88
69
116
49
15
85
103
117
46
61
97
64
22
131
52
53
30
106
47
82
84
80
119
75
135
18
77
79
72
38
95
29
91
70
4
48
113
62
59
102
43
32
17
37
100
138
115
81
7
24
145
21
2
19
13
109
107
55
105
111
5
65

> <PUBCHEM_MMFF94_PARTIAL_CHARGES>
46
1 -0.57
13 0.06
14 0.27
15 0.3
16 0.27
17 0.18
2 -0.02
20 0.3
21 0.3
22 0.57
23 0.11
24 0.12
25 0.69
26 0.12
27 -0.15
28 -0.15
29 -0.04
3 -0.57
30 -0.15
31 -0.15
32 -0.15
33 0.46
34 0.08
35 -0.15
36 -0.15
37 -0.15
38 -0.15
39 -0.15
4 -0.36
5 -0.66
6 -0.9
61 0.36
62 0.15
63 0.37
64 0.15
65 0.15
66 0.15
67 0.15
7 -0.48
70 0.15
71 0.15
72 0.15
73 0.15
74 0.15
8 -0.55
9 -0.41

> <PUBCHEM_EFFECTIVE_ROTOR_COUNT>
11.4

> <PUBCHEM_PHARMACOPHORE_FEATURES>
13
1 1 acceptor
1 3 acceptor
1 4 acceptor
1 6 cation
1 6 donor
1 8 donor
1 9 acceptor
5 2 9 23 27 29 rings
5 7 8 24 25 26 rings
6 24 26 28 30 31 32 rings
6 34 35 36 37 38 39 rings
6 5 15 18 19 20 21 rings
6 6 10 11 12 14 16 rings

> <PUBCHEM_HEAVY_ATOM_COUNT>
39

> <PUBCHEM_ATOM_DEF_STEREO_COUNT>
2

> <PUBCHEM_ATOM_UDEF_STEREO_COUNT>
0

> <PUBCHEM_BOND_DEF_STEREO_COUNT>
0

> <PUBCHEM_BOND_UDEF_STEREO_COUNT>
0

> <PUBCHEM_ISOTOPIC_ATOM_COUNT>
0

> <PUBCHEM_COMPONENT_COUNT>
1

> <PUBCHEM_CACTVS_TAUTO_COUNT>
2

> <PUBCHEM_CONFORMER_ID>
02B4258B00000003

> <PUBCHEM_MMFF94_ENERGY>
97.3341

> <PUBCHEM_FEATURE_SELFOVERLAP>
66.076

> <PUBCHEM_SHAPE_FINGERPRINT>
10838868 158 17390807908946660939
10864689 126 17904204724044174479
10939801 23 17977385263732491936
1100329 8 18265061245410184047
11135609 12 18335988644579040339
11513181 2 18131360708371195183
12422481 6 18409739477374931811
13111901 51 18271252629720023257
13560911 43 17972324189701817435
1361 2 18192993712554338329
13811026 1 18409443700684593903
14117953 113 18338235938655897956
14394314 77 18128817448372796033
15001296 14 18049166858201155083
15968369 153 18201718465926796781
16112460 7 18198067976154525665
20764821 26 18264232286039918124
21133410 90 17561072631873511272
22223350 30 17552638462359918003
23572383 38 18412262800710070647
24941158 1 16127554574457863326
3027735 51 18196103350876302459
338550 245 18334863839298170533
354706 109 18268686429298561586
3633792 109 18196365919692715957
373842 8 18410292557446085818
4144715 1 18261119603430835522
460360 51 18187939412146084191
463206 1 18410017602551633429
469060 322 17530963566350522190
508706 21 18260274048892006283
513202 73 17969231195617127523

> <PUBCHEM_SHAPE_MULTIPOLES>
754.22
14.79
5.04
1.71
5.95
0.86
-0.35
0.61
-3.8
-2.97
0.8
0.13
-0.06
1.3

> <PUBCHEM_SHAPE_SELFOVERLAP>
1633.788

> <PUBCHEM_SHAPE_VOLUME>
407.2

> <PUBCHEM_COORDINATE_TYPE>
2
5
10

$$$$
