11882057
  -OEChem-12032416363D

 60 62  0     1  0  0  0  0  0999 V2000
    5.9753    0.7020    1.4570 S   0  0  0  0  0  0  0  0  0  0  0  0
    1.0025    0.8581   -2.0235 O   0  0  0  0  0  0  0  0  0  0  0  0
   -0.2299    2.1222    1.1433 O   0  0  0  0  0  0  0  0  0  0  0  0
   -0.9169   -3.7795   -0.0421 O   0  0  0  0  0  0  0  0  0  0  0  0
    2.7840   -2.6988   -2.1857 O   0  0  0  0  0  0  0  0  0  0  0  0
   -1.2617    1.0190   -0.6301 N   0  0  0  0  0  0  0  0  0  0  0  0
   -2.2524   -1.9478   -0.5452 N   0  0  0  0  0  0  0  0  0  0  0  0
    1.8366   -0.7203   -0.5296 N   0  0  0  0  0  0  0  0  0  0  0  0
   -3.0829   -3.6357    0.7773 N   0  0  0  0  0  0  0  0  0  0  0  0
   -3.3673    2.8363    0.4075 N   0  0  0  0  0  0  0  0  0  0  0  0
    4.2617   -1.1708   -3.0565 N   0  0  0  0  0  0  0  0  0  0  0  0
   -2.5473    5.4725   -0.0863 N   0  0  0  0  0  0  0  0  0  0  0  0
   -1.2919   -1.2379   -1.3564 C   0  0  2  0  0  0  0  0  0  0  0  0
   -0.5067   -0.2248   -0.5234 C   0  0  1  0  0  0  0  0  0  0  0  0
   -1.9940   -0.3704   -2.4031 C   0  0  0  0  0  0  0  0  0  0  0  0
   -2.2968    0.9238   -1.6589 C   0  0  0  0  0  0  0  0  0  0  0  0
    0.8445    0.0489   -1.1131 C   0  0  0  0  0  0  0  0  0  0  0  0
   -1.1046    2.0537    0.2828 C   0  0  0  0  0  0  0  0  0  0  0  0
    3.2227   -0.6623   -0.9341 C   0  0  1  0  0  0  0  0  0  0  0  0
   -1.9851   -3.1766    0.0539 C   0  0  0  0  0  0  0  0  0  0  0  0
   -2.0719    3.1571    0.2184 C   0  0  0  0  0  0  0  0  0  0  0  0
    4.1784   -1.0229    0.2097 C   0  0  0  0  0  0  0  0  0  0  0  0
   -3.0772   -4.8868    1.4984 C   0  0  0  0  0  0  0  0  0  0  0  0
    3.3910   -1.6345   -2.0927 C   0  0  0  0  0  0  0  0  0  0  0  0
    4.3887    0.1273    1.1662 C   0  0  0  0  0  0  0  0  0  0  0  0
   -1.6692    4.4520   -0.0243 C   0  0  0  0  0  0  0  0  0  0  0  0
   -4.4729   -5.4966    1.5115 C   0  0  0  0  0  0  0  0  0  0  0  0
   -2.5491   -4.6858    2.9134 C   0  0  0  0  0  0  0  0  0  0  0  0
    3.4452    0.8278    1.8850 C   0  0  0  0  0  0  0  0  0  0  0  0
   -4.2453    3.8569    0.3457 C   0  0  0  0  0  0  0  0  0  0  0  0
   -3.8426    5.1518    0.1030 C   0  0  0  0  0  0  0  0  0  0  0  0
    4.0326    1.8500    2.6850 C   0  0  0  0  0  0  0  0  0  0  0  0
    5.4026    1.8918    2.5471 C   0  0  0  0  0  0  0  0  0  0  0  0
   -0.6390   -1.9748   -1.8379 H   0  0  0  0  0  0  0  0  0  0  0  0
   -0.4128   -0.5033    0.5329 H   0  0  0  0  0  0  0  0  0  0  0  0
   -2.8950   -0.8259   -2.8257 H   0  0  0  0  0  0  0  0  0  0  0  0
   -1.3044   -0.1606   -3.2297 H   0  0  0  0  0  0  0  0  0  0  0  0
   -2.2795    1.8049   -2.3068 H   0  0  0  0  0  0  0  0  0  0  0  0
   -3.2728    0.8552   -1.1683 H   0  0  0  0  0  0  0  0  0  0  0  0
   -3.1446   -1.5041   -0.3491 H   0  0  0  0  0  0  0  0  0  0  0  0
    1.5742   -1.4173    0.1619 H   0  0  0  0  0  0  0  0  0  0  0  0
    3.4271    0.3537   -1.2966 H   0  0  0  0  0  0  0  0  0  0  0  0
    5.1434   -1.3405   -0.2069 H   0  0  0  0  0  0  0  0  0  0  0  0
    3.7958   -1.8829    0.7753 H   0  0  0  0  0  0  0  0  0  0  0  0
   -3.8949   -3.0310    0.8588 H   0  0  0  0  0  0  0  0  0  0  0  0
   -2.4042   -5.5779    0.9765 H   0  0  0  0  0  0  0  0  0  0  0  0
   -0.6302    4.7184   -0.1795 H   0  0  0  0  0  0  0  0  0  0  0  0
   -5.1897   -4.8407    2.0182 H   0  0  0  0  0  0  0  0  0  0  0  0
   -4.8366   -5.6553    0.4904 H   0  0  0  0  0  0  0  0  0  0  0  0
   -4.4732   -6.4635    2.0253 H   0  0  0  0  0  0  0  0  0  0  0  0
   -2.5232   -5.6341    3.4602 H   0  0  0  0  0  0  0  0  0  0  0  0
   -1.5328   -4.2773    2.8982 H   0  0  0  0  0  0  0  0  0  0  0  0
   -3.1765   -3.9845    3.4750 H   0  0  0  0  0  0  0  0  0  0  0  0
    4.4520   -1.7160   -3.8909 H   0  0  0  0  0  0  0  0  0  0  0  0
    4.7541   -0.2876   -2.9690 H   0  0  0  0  0  0  0  0  0  0  0  0
    2.3834    0.6217    1.8542 H   0  0  0  0  0  0  0  0  0  0  0  0
   -5.2863    3.5998    0.4972 H   0  0  0  0  0  0  0  0  0  0  0  0
   -4.5488    5.9713    0.0531 H   0  0  0  0  0  0  0  0  0  0  0  0
    3.4786    2.5194    3.3301 H   0  0  0  0  0  0  0  0  0  0  0  0
    6.0945    2.5639    3.0349 H   0  0  0  0  0  0  0  0  0  0  0  0
  1 25  1  0  0  0  0
  1 33  1  0  0  0  0
  2 17  2  0  0  0  0
  3 18  2  0  0  0  0
  4 20  2  0  0  0  0
  5 24  2  0  0  0  0
  6 14  1  0  0  0  0
  6 16  1  0  0  0  0
  6 18  1  0  0  0  0
  7 13  1  0  0  0  0
  7 20  1  0  0  0  0
  7 40  1  0  0  0  0
  8 17  1  0  0  0  0
  8 19  1  0  0  0  0
  8 41  1  0  0  0  0
  9 20  1  0  0  0  0
  9 23  1  0  0  0  0
  9 45  1  0  0  0  0
 10 21  2  0  0  0  0
 10 30  1  0  0  0  0
 11 24  1  0  0  0  0
 11 54  1  0  0  0  0
 11 55  1  0  0  0  0
 12 26  2  0  0  0  0
 12 31  1  0  0  0  0
 13 14  1  0  0  0  0
 13 15  1  0  0  0  0
 13 34  1  0  0  0  0
 14 17  1  0  0  0  0
 14 35  1  0  0  0  0
 15 16  1  0  0  0  0
 15 36  1  0  0  0  0
 15 37  1  0  0  0  0
 16 38  1  0  0  0  0
 16 39  1  0  0  0  0
 18 21  1  0  0  0  0
 19 22  1  0  0  0  0
 19 24  1  0  0  0  0
 19 42  1  0  0  0  0
 21 26  1  0  0  0  0
 22 25  1  0  0  0  0
 22 43  1  0  0  0  0
 22 44  1  0  0  0  0
 23 27  1  0  0  0  0
 23 28  1  0  0  0  0
 23 46  1  0  0  0  0
 25 29  2  0  0  0  0
 26 47  1  0  0  0  0
 27 48  1  0  0  0  0
 27 49  1  0  0  0  0
 27 50  1  0  0  0  0
 28 51  1  0  0  0  0
 28 52  1  0  0  0  0
 28 53  1  0  0  0  0
 29 32  1  0  0  0  0
 29 56  1  0  0  0  0
 30 31  2  0  0  0  0
 30 57  1  0  0  0  0
 31 58  1  0  0  0  0
 32 33  2  0  0  0  0
 32 59  1  0  0  0  0
 33 60  1  0  0  0  0
M  END
> <PUBCHEM_COMPOUND_CID>
11882057

> <PUBCHEM_CONFORMER_RMSD>
1.2

> <PUBCHEM_CONFORMER_DIVERSEORDER>
1
12
17
4
3
31
20
35
32
34
28
22
6
15
26
16
5
13
7
33
29
10
19
24
30
25
27
18
2
21
23
14
9
8
11

> <PUBCHEM_MMFF94_PARTIAL_CHARGES>
41
1 -0.08
10 -0.62
11 -0.8
12 -0.62
13 0.3
14 0.36
16 0.3
17 0.57
18 0.54
19 0.36
2 -0.57
20 0.69
21 0.4
22 0.18
23 0.3
24 0.57
25 -0.14
26 0.16
29 -0.15
3 -0.57
30 0.16
31 0.16
32 -0.15
33 -0.11
4 -0.57
40 0.37
41 0.37
45 0.37
47 0.15
5 -0.57
54 0.37
55 0.37
56 0.15
57 0.15
58 0.15
59 0.15
6 -0.66
60 0.15
7 -0.73
8 -0.73
9 -0.73

> <PUBCHEM_EFFECTIVE_ROTOR_COUNT>
13

> <PUBCHEM_PHARMACOPHORE_FEATURES>
14
1 10 acceptor
1 11 donor
1 12 acceptor
1 2 acceptor
1 3 acceptor
1 4 acceptor
1 5 acceptor
1 7 donor
1 8 donor
1 9 donor
3 23 27 28 hydrophobe
5 1 25 29 32 33 rings
5 6 13 14 15 16 rings
6 10 12 21 26 30 31 rings

> <PUBCHEM_HEAVY_ATOM_COUNT>
33

> <PUBCHEM_ATOM_DEF_STEREO_COUNT>
3

> <PUBCHEM_ATOM_UDEF_STEREO_COUNT>
0

> <PUBCHEM_BOND_DEF_STEREO_COUNT>
0

> <PUBCHEM_BOND_UDEF_STEREO_COUNT>
0

> <PUBCHEM_ISOTOPIC_ATOM_COUNT>
0

> <PUBCHEM_COMPONENT_COUNT>
1

> <PUBCHEM_CACTVS_TAUTO_COUNT>
12

> <PUBCHEM_CONFORMER_ID>
00B54E4900000001

> <PUBCHEM_MMFF94_ENERGY>
73.2876

> <PUBCHEM_FEATURE_SELFOVERLAP>
71.105

> <PUBCHEM_SHAPE_FINGERPRINT>
10074138 170 18409161113190067281
10258939 38 17630010902770109663
10305334 12 16904056009383796675
12160290 23 18334570239866699719
12549972 3 18200881669339234246
12788726 201 18116731770408367086
140371 6 18268693056333184132
14363568 33 17183327955634691920
15219462 58 18341610413193921750
15351339 4 16973371262919528414
18681886 176 16405051303250517039
20600515 1 18188478207214138543
21033648 29 18123756357273430764
21049683 118 18122330290638561873
21344244 78 17624998401248408531
21639891 77 18045199782094788167
21796203 349 17542791262312554690
22440779 20 17834161620425143598
23558518 356 18269819978626567020
3380486 145 17912628396173477654
376196 1 17842546358268726725
42626532 9 18340505399944952462
6371380 46 17980200782235278894
6376802 137 17825377742120627850
7288768 16 18267570330322484533
79837 15 18335984151922065555
9658208 31 18267316330472956606
9981440 41 17701507724524392658

> <PUBCHEM_SHAPE_MULTIPOLES>
624.63
10.5
8.47
2.79
13.05
3.22
-0.32
-3.05
6.5
-18.9
4.49
2.62
-2.36
5.47

> <PUBCHEM_SHAPE_SELFOVERLAP>
1298.929

> <PUBCHEM_SHAPE_VOLUME>
356.6

> <PUBCHEM_COORDINATE_TYPE>
2
5
10

$$$$
