40533563
  -OEChem-12032416113D

 51 55  0     1  0  0  0  0  0999 V2000
    4.0193    5.2717    0.0926 Cl  0  0  0  0  0  0  0  0  0  0  0  0
   -1.7382    0.1298    1.9816 O   0  0  0  0  0  0  0  0  0  0  0  0
    2.2240   -0.9765   -2.1155 O   0  0  0  0  0  0  0  0  0  0  0  0
    1.8107   -2.4910   -0.4154 N   0  0  0  0  0  0  0  0  0  0  0  0
   -1.0716   -1.7185    0.7253 N   0  0  0  0  0  0  0  0  0  0  0  0
    3.1541   -0.5912   -0.0258 N   0  0  0  0  0  0  0  0  0  0  0  0
   -5.5118    2.3864   -0.1384 N   0  0  0  0  0  0  0  0  0  0  0  0
    0.6270   -3.4278    1.5856 C   0  0  1  0  0  0  0  0  0  0  0  0
   -0.3521   -3.7019   -0.6504 C   0  0  2  0  0  0  0  0  0  0  0  0
   -0.1015   -4.4101    0.6783 C   0  0  0  0  0  0  0  0  0  0  0  0
    1.9660   -2.9845    0.9625 C   0  0  0  0  0  0  0  0  0  0  0  0
   -0.2975   -2.2355    1.8616 C   0  0  0  0  0  0  0  0  0  0  0  0
    0.9991   -3.3431   -1.2933 C   0  0  0  0  0  0  0  0  0  0  0  0
   -1.1816   -2.4458   -0.4620 C   0  0  0  0  0  0  0  0  0  0  0  0
   -1.9914   -2.0155   -1.4425 C   0  0  0  0  0  0  0  0  0  0  0  0
   -1.7801   -0.5192    0.9349 C   0  0  0  0  0  0  0  0  0  0  0  0
    2.3852   -1.3115   -0.9392 C   0  0  0  0  0  0  0  0  0  0  0  0
   -2.6475   -0.0408   -0.1981 C   0  0  0  0  0  0  0  0  0  0  0  0
   -2.7288   -0.7917   -1.3067 C   0  0  0  0  0  0  0  0  0  0  0  0
   -3.3895    1.2287   -0.1074 C   0  0  0  0  0  0  0  0  0  0  0  0
    3.3610    0.8100    0.0023 C   0  0  0  0  0  0  0  0  0  0  0  0
   -2.7258    2.4352    0.0862 C   0  0  0  0  0  0  0  0  0  0  0  0
   -4.7708    1.2580   -0.2123 C   0  0  0  0  0  0  0  0  0  0  0  0
    4.2335    1.3677    0.9370 C   0  0  0  0  0  0  0  0  0  0  0  0
    2.6924    1.6321   -0.9047 C   0  0  0  0  0  0  0  0  0  0  0  0
   -3.4535    3.6172    0.1676 C   0  0  0  0  0  0  0  0  0  0  0  0
   -4.8319    3.5397    0.0502 C   0  0  0  0  0  0  0  0  0  0  0  0
    4.4371    2.7472    0.9650 C   0  0  0  0  0  0  0  0  0  0  0  0
    2.8959    3.0118   -0.8769 C   0  0  0  0  0  0  0  0  0  0  0  0
    3.7683    3.5692    0.0579 C   0  0  0  0  0  0  0  0  0  0  0  0
    0.8539   -3.9126    2.5433 H   0  0  0  0  0  0  0  0  0  0  0  0
   -0.8795   -4.3982   -1.3155 H   0  0  0  0  0  0  0  0  0  0  0  0
   -1.0471   -4.7298    1.1336 H   0  0  0  0  0  0  0  0  0  0  0  0
    0.5034   -5.3123    0.5261 H   0  0  0  0  0  0  0  0  0  0  0  0
    2.4260   -2.2433    1.6182 H   0  0  0  0  0  0  0  0  0  0  0  0
    2.6501   -3.8400    0.9091 H   0  0  0  0  0  0  0  0  0  0  0  0
   -1.0403   -2.5327    2.6146 H   0  0  0  0  0  0  0  0  0  0  0  0
    0.2676   -1.4069    2.3069 H   0  0  0  0  0  0  0  0  0  0  0  0
    1.5824   -4.2538   -1.4779 H   0  0  0  0  0  0  0  0  0  0  0  0
    0.8435   -2.8651   -2.2665 H   0  0  0  0  0  0  0  0  0  0  0  0
   -2.0861   -2.5552   -2.3789 H   0  0  0  0  0  0  0  0  0  0  0  0
   -3.3333   -0.4929   -2.1582 H   0  0  0  0  0  0  0  0  0  0  0  0
    3.6390   -1.1070    0.7011 H   0  0  0  0  0  0  0  0  0  0  0  0
   -1.6427    2.4724    0.1707 H   0  0  0  0  0  0  0  0  0  0  0  0
   -5.3520    0.3520   -0.3587 H   0  0  0  0  0  0  0  0  0  0  0  0
    4.7607    0.7381    1.6494 H   0  0  0  0  0  0  0  0  0  0  0  0
    1.9803    1.2575   -1.6306 H   0  0  0  0  0  0  0  0  0  0  0  0
   -2.9574    4.5693    0.3171 H   0  0  0  0  0  0  0  0  0  0  0  0
   -5.4450    4.4331    0.1063 H   0  0  0  0  0  0  0  0  0  0  0  0
    5.1197    3.1678    1.6989 H   0  0  0  0  0  0  0  0  0  0  0  0
    2.3630    3.6416   -1.5847 H   0  0  0  0  0  0  0  0  0  0  0  0
  1 30  1  0  0  0  0
  2 16  2  0  0  0  0
  3 17  2  0  0  0  0
  4 11  1  0  0  0  0
  4 13  1  0  0  0  0
  4 17  1  0  0  0  0
  5 12  1  0  0  0  0
  5 14  1  0  0  0  0
  5 16  1  0  0  0  0
  6 17  1  0  0  0  0
  6 21  1  0  0  0  0
  6 43  1  0  0  0  0
  7 23  1  0  0  0  0
  7 27  2  0  0  0  0
  8 10  1  0  0  0  0
  8 11  1  0  0  0  0
  8 12  1  0  0  0  0
  8 31  1  0  0  0  0
  9 10  1  0  0  0  0
  9 13  1  0  0  0  0
  9 14  1  0  0  0  0
  9 32  1  0  0  0  0
 10 33  1  0  0  0  0
 10 34  1  0  0  0  0
 11 35  1  0  0  0  0
 11 36  1  0  0  0  0
 12 37  1  0  0  0  0
 12 38  1  0  0  0  0
 13 39  1  0  0  0  0
 13 40  1  0  0  0  0
 14 15  2  0  0  0  0
 15 19  1  0  0  0  0
 15 41  1  0  0  0  0
 16 18  1  0  0  0  0
 18 19  2  0  0  0  0
 18 20  1  0  0  0  0
 19 42  1  0  0  0  0
 20 22  1  0  0  0  0
 20 23  2  0  0  0  0
 21 24  2  0  0  0  0
 21 25  1  0  0  0  0
 22 26  2  0  0  0  0
 22 44  1  0  0  0  0
 23 45  1  0  0  0  0
 24 28  1  0  0  0  0
 24 46  1  0  0  0  0
 25 29  2  0  0  0  0
 25 47  1  0  0  0  0
 26 27  1  0  0  0  0
 26 48  1  0  0  0  0
 27 49  1  0  0  0  0
 28 30  2  0  0  0  0
 28 50  1  0  0  0  0
 29 30  1  0  0  0  0
 29 51  1  0  0  0  0
M  END
> <PUBCHEM_COMPOUND_CID>
40533563

> <PUBCHEM_CONFORMER_RMSD>
0.8

> <PUBCHEM_CONFORMER_DIVERSEORDER>
1
10
3
25
26
41
39
13
2
32
38
21
29
15
5
30
12
22
27
28
37
8
33
9
6
16
19
17
40
34
4
31
35
18
11
23
36
24
7
20
14

> <PUBCHEM_MMFF94_PARTIAL_CHARGES>
39
1 -0.18
11 0.3
12 0.3
13 0.3
14 -0.03
15 -0.15
16 0.62
17 0.69
18 -0.01
19 -0.15
2 -0.57
20 0.03
21 0.12
22 -0.15
23 0.16
24 -0.15
25 -0.15
26 -0.15
27 0.16
28 -0.15
29 -0.15
3 -0.57
30 0.18
4 -0.66
41 0.15
42 0.15
43 0.37
44 0.15
45 0.15
46 0.15
47 0.15
48 0.15
49 0.15
5 -0.47
50 0.15
51 0.15
6 -0.55
7 -0.62
9 0.14

> <PUBCHEM_EFFECTIVE_ROTOR_COUNT>
5

> <PUBCHEM_PHARMACOPHORE_FEATURES>
9
1 2 acceptor
1 3 acceptor
1 6 donor
1 7 acceptor
6 21 24 25 28 29 30 rings
6 4 8 9 10 11 13 rings
6 5 14 15 16 18 19 rings
6 5 8 9 10 12 14 rings
6 7 20 22 23 26 27 rings

> <PUBCHEM_HEAVY_ATOM_COUNT>
30

> <PUBCHEM_ATOM_DEF_STEREO_COUNT>
2

> <PUBCHEM_ATOM_UDEF_STEREO_COUNT>
0

> <PUBCHEM_BOND_DEF_STEREO_COUNT>
0

> <PUBCHEM_BOND_UDEF_STEREO_COUNT>
0

> <PUBCHEM_ISOTOPIC_ATOM_COUNT>
0

> <PUBCHEM_COMPONENT_COUNT>
1

> <PUBCHEM_CACTVS_TAUTO_COUNT>
6

> <PUBCHEM_CONFORMER_ID>
026A7E3B00000001

> <PUBCHEM_MMFF94_ENERGY>
89.3932

> <PUBCHEM_FEATURE_SELFOVERLAP>
47.241

> <PUBCHEM_SHAPE_FINGERPRINT>
100830 39 17691124160430991800
10439779 11 18266452101707059880
10670039 82 17473843087717828516
10675989 125 18341897325077470057
10937287 8 18410290337026965669
12107183 9 18263343903153688384
12156800 1 14794948976526621942
12788726 201 17904750425514475235
12925494 130 17905609900728482969
13583140 156 17901122832376584627
13590594 115 17257944688681907378
13617811 41 18124292047622669557
13761468 95 17693413283156577140
14251764 38 18267298910433691996
14468879 13 18336273413484651681
14955137 171 17903917760232011506
16067690 210 17040319971847735768
17980427 23 17980166756945626010
18681886 176 17837203780110212715
19930381 70 18339079272828094013
20567600 299 17907015080081141045
21344244 78 17033867526382800067
21591340 35 18268999695707995536
21860390 5 17978513031374738487
3298306 158 18410578362045470497
376196 1 18271803549290245414
469060 322 17186738649779219650
508180 173 18054527819664461062
508706 21 18125452053600994268
56638632 10 18191280725304717114
56638632 33 15662804628695902034
5776283 40 18267326308257096268
6036956 94 17541939136549149029
6201320 215 17477203203906290528
7288768 16 18114461257453503363
9849439 229 18335988656995100061
9981440 41 18338229491714573962

> <PUBCHEM_SHAPE_MULTIPOLES>
587.59
9.29
7.38
1.49
2.7
1.45
0.09
15.93
0.03
-0.05
0.62
0.16
-1.17
0

> <PUBCHEM_SHAPE_SELFOVERLAP>
1286.349

> <PUBCHEM_SHAPE_VOLUME>
314.5

> <PUBCHEM_COORDINATE_TYPE>
2
5
10

$$$$
