51138169
  -OEChem-12032416323D

 47 49  0     1  0  0  0  0  0999 V2000
   -2.8692    3.4262    1.1416 O   0  0  0  0  0  0  0  0  0  0  0  0
   -3.4648    2.5759   -0.8877 O   0  0  0  0  0  0  0  0  0  0  0  0
   -2.0057    0.3849   -0.3479 N   0  0  0  0  0  0  0  0  0  0  0  0
    3.0070    0.7521    0.1442 N   0  0  0  0  0  0  0  0  0  0  0  0
   -1.5798   -0.8516    0.3214 C   0  0  2  0  0  0  0  0  0  0  0  0
   -0.0669   -1.0697    0.4247 C   0  0  0  0  0  0  0  0  0  0  0  0
    0.9217   -0.0593    0.2457 C   0  0  0  0  0  0  0  0  0  0  0  0
   -2.2866   -1.9776   -0.4545 C   0  0  0  0  0  0  0  0  0  0  0  0
   -1.6167    1.6107    0.3344 C   0  0  1  0  0  0  0  0  0  0  0  0
    0.8719    1.3481   -0.0450 C   0  0  0  0  0  0  0  0  0  0  0  0
   -0.3360    2.1985   -0.2548 C   0  0  0  0  0  0  0  0  0  0  0  0
    2.2756   -0.3878    0.3811 C   0  0  0  0  0  0  0  0  0  0  0  0
   -3.7729   -2.1031   -0.1055 C   0  0  0  0  0  0  0  0  0  0  0  0
    2.1740    1.8020   -0.1069 C   0  0  0  0  0  0  0  0  0  0  0  0
    0.4097   -2.3509    0.8025 C   0  0  0  0  0  0  0  0  0  0  0  0
    2.7272   -1.6674    0.7081 C   0  0  0  0  0  0  0  0  0  0  0  0
    1.7659   -2.6449    0.9303 C   0  0  0  0  0  0  0  0  0  0  0  0
   -2.7474    2.5657    0.1015 C   0  0  0  0  0  0  0  0  0  0  0  0
   -4.5592   -0.8269   -0.4089 C   0  0  0  0  0  0  0  0  0  0  0  0
   -4.3755   -3.2781   -0.8791 C   0  0  0  0  0  0  0  0  0  0  0  0
    4.4508    0.8480    0.1731 C   0  0  0  0  0  0  0  0  0  0  0  0
    5.0844    0.3434   -1.0897 C   0  0  0  0  0  0  0  0  0  0  0  0
    5.9925   -0.6381   -1.1287 C   0  0  0  0  0  0  0  0  0  0  0  0
   -1.9590   -0.8493    1.3526 H   0  0  0  0  0  0  0  0  0  0  0  0
   -2.1579   -1.8372   -1.5381 H   0  0  0  0  0  0  0  0  0  0  0  0
   -1.8401   -2.9558   -0.2543 H   0  0  0  0  0  0  0  0  0  0  0  0
   -1.5299    1.4451    1.4163 H   0  0  0  0  0  0  0  0  0  0  0  0
   -0.4554    2.3817   -1.3318 H   0  0  0  0  0  0  0  0  0  0  0  0
   -0.1567    3.1844    0.1958 H   0  0  0  0  0  0  0  0  0  0  0  0
   -1.7050    0.3938   -1.3218 H   0  0  0  0  0  0  0  0  0  0  0  0
   -3.8737   -2.3237    0.9648 H   0  0  0  0  0  0  0  0  0  0  0  0
    2.5629    2.7916   -0.3082 H   0  0  0  0  0  0  0  0  0  0  0  0
   -0.2863   -3.1517    1.0412 H   0  0  0  0  0  0  0  0  0  0  0  0
    3.7810   -1.8996    0.8144 H   0  0  0  0  0  0  0  0  0  0  0  0
    2.0742   -3.6466    1.2180 H   0  0  0  0  0  0  0  0  0  0  0  0
   -5.6364   -1.0246   -0.3532 H   0  0  0  0  0  0  0  0  0  0  0  0
   -4.3672   -0.0457    0.3314 H   0  0  0  0  0  0  0  0  0  0  0  0
   -4.3552   -0.4478   -1.4156 H   0  0  0  0  0  0  0  0  0  0  0  0
   -3.8481   -4.2102   -0.6495 H   0  0  0  0  0  0  0  0  0  0  0  0
   -5.4283   -3.4210   -0.6128 H   0  0  0  0  0  0  0  0  0  0  0  0
   -4.3198   -3.1134   -1.9606 H   0  0  0  0  0  0  0  0  0  0  0  0
    4.7163    1.9027    0.3118 H   0  0  0  0  0  0  0  0  0  0  0  0
    4.8056    0.3134    1.0617 H   0  0  0  0  0  0  0  0  0  0  0  0
    4.7941    0.8198   -2.0229 H   0  0  0  0  0  0  0  0  0  0  0  0
   -3.6045    4.0615    1.0074 H   0  0  0  0  0  0  0  0  0  0  0  0
    6.4201   -0.9537   -2.0740 H   0  0  0  0  0  0  0  0  0  0  0  0
    6.3229   -1.1410   -0.2266 H   0  0  0  0  0  0  0  0  0  0  0  0
  1 18  1  0  0  0  0
  1 45  1  0  0  0  0
  2 18  2  0  0  0  0
  3  5  1  0  0  0  0
  3  9  1  0  0  0  0
  3 30  1  0  0  0  0
  4 12  1  0  0  0  0
  4 14  1  0  0  0  0
  4 21  1  0  0  0  0
  5  6  1  0  0  0  0
  5  8  1  0  0  0  0
  5 24  1  0  0  0  0
  6  7  2  0  0  0  0
  6 15  1  0  0  0  0
  7 10  1  0  0  0  0
  7 12  1  0  0  0  0
  8 13  1  0  0  0  0
  8 25  1  0  0  0  0
  8 26  1  0  0  0  0
  9 11  1  0  0  0  0
  9 18  1  0  0  0  0
  9 27  1  0  0  0  0
 10 11  1  0  0  0  0
 10 14  2  0  0  0  0
 11 28  1  0  0  0  0
 11 29  1  0  0  0  0
 12 16  2  0  0  0  0
 13 19  1  0  0  0  0
 13 20  1  0  0  0  0
 13 31  1  0  0  0  0
 14 32  1  0  0  0  0
 15 17  2  0  0  0  0
 15 33  1  0  0  0  0
 16 17  1  0  0  0  0
 16 34  1  0  0  0  0
 17 35  1  0  0  0  0
 19 36  1  0  0  0  0
 19 37  1  0  0  0  0
 19 38  1  0  0  0  0
 20 39  1  0  0  0  0
 20 40  1  0  0  0  0
 20 41  1  0  0  0  0
 21 22  1  0  0  0  0
 21 42  1  0  0  0  0
 21 43  1  0  0  0  0
 22 23  2  0  0  0  0
 22 44  1  0  0  0  0
 23 46  1  0  0  0  0
 23 47  1  0  0  0  0
M  END
> <PUBCHEM_COMPOUND_CID>
51138169

> <PUBCHEM_CONFORMER_RMSD>
0.8

> <PUBCHEM_CONFORMER_DIVERSEORDER>
1
4
12
5
2
8
10
9
14
11
7
3
13
6

> <PUBCHEM_MMFF94_PARTIAL_CHARGES>
27
1 -0.65
10 -0.18
11 0.18
12 -0.15
14 -0.3
15 -0.15
16 -0.15
17 -0.15
18 0.66
2 -0.57
21 0.39
22 -0.29
23 -0.3
3 -0.9
30 0.36
32 0.15
33 0.15
34 0.15
35 0.15
4 0.05
44 0.15
45 0.5
46 0.15
47 0.15
5 0.41
6 -0.14
9 0.33

> <PUBCHEM_EFFECTIVE_ROTOR_COUNT>
5.8

> <PUBCHEM_PHARMACOPHORE_FEATURES>
11
1 1 acceptor
1 2 acceptor
1 23 hydrophobe
1 3 cation
1 3 donor
1 4 cation
3 1 2 18 anion
3 13 19 20 hydrophobe
5 4 7 10 12 14 rings
6 6 7 12 15 16 17 rings
7 3 5 6 7 9 10 11 rings

> <PUBCHEM_HEAVY_ATOM_COUNT>
23

> <PUBCHEM_ATOM_DEF_STEREO_COUNT>
2

> <PUBCHEM_ATOM_UDEF_STEREO_COUNT>
0

> <PUBCHEM_BOND_DEF_STEREO_COUNT>
0

> <PUBCHEM_BOND_UDEF_STEREO_COUNT>
0

> <PUBCHEM_ISOTOPIC_ATOM_COUNT>
0

> <PUBCHEM_COMPONENT_COUNT>
1

> <PUBCHEM_CACTVS_TAUTO_COUNT>
1

> <PUBCHEM_CONFORMER_ID>
030C4E7900000001

> <PUBCHEM_MMFF94_ENERGY>
48.4648

> <PUBCHEM_FEATURE_SELFOVERLAP>
56.006

> <PUBCHEM_SHAPE_FINGERPRINT>
10369192 42 16195618991334661832
104564 63 18411699902501991571
10616163 171 18411135831578001743
10756046 5 18337953376957515358
10967382 1 17976252757753997899
11578080 2 17169537515726606959
12403260 363 18335415816290619256
12553582 1 18267291209531372211
12788726 201 18408597080905030331
12954195 1 18342748394489637918
13140716 1 18192417590025768050
13540713 5 18188763942972798186
13862211 1 18263918998689417034
14178342 30 18266157505521078360
14251751 93 18343022185854382238
14347332 77 18413670223150033278
14790565 3 18261691289706361548
14931854 50 18336246991399592191
14955137 171 18049737509685702523
15196674 1 18335981970126067570
16087824 20 18410575047396412653
16752209 62 18335422404675395410
16945 1 18262803002981959626
19591789 44 18408887360633041680
20510252 161 18268989958827056208
20691752 17 17313388864499434970
20871999 31 18335996341408549524
20905425 154 18413385453722046119
21236236 1 18409733958811305128
21267235 1 18338241591075757347
21501502 16 18262794064975752970
21641784 216 18040720298323585877
221357 26 18341613758624869302
22393880 68 18410852140566939068
2334 1 18335697226194006578
23402539 116 18340482390987347022
23557571 272 18272658939171442958
23558518 356 18334016060304678195
23559900 14 18341322400691546840
23566358 2 18339643347593221382
244849 19 17346302805311609498
25147074 1 18115019702540411802
283562 15 18337388356671264371
2871803 45 18337385053883734902
350125 39 18409169887692104169
352729 6 18053936265286831667
463206 1 18049999197537200727
59755656 215 18410856551187349759
59755656 520 17985844648076518089
70251023 43 18197782300135784051
7164475 11 18411127031121713267

> <PUBCHEM_SHAPE_MULTIPOLES>
451.63
9.73
3.82
0.96
6.01
0.93
-0.05
-2.59
-3.88
-4.63
0.39
0.31
-0.16
-1.06

> <PUBCHEM_SHAPE_SELFOVERLAP>
961.464

> <PUBCHEM_SHAPE_VOLUME>
252.1

> <PUBCHEM_COORDINATE_TYPE>
2
5
10

$$$$
