11885143
  -OEChem-12032416363D

 62 67  0     1  0  0  0  0  0999 V2000
    3.4341    1.2277    2.1880 O   0  0  0  0  0  0  0  0  0  0  0  0
   -0.7653   -2.0281    1.5854 O   0  0  0  0  0  0  0  0  0  0  0  0
    3.8133   -0.2932    0.4728 N   0  0  0  0  0  0  0  0  0  0  0  0
    1.1195   -1.9879    0.2123 N   0  0  0  0  0  0  0  0  0  0  0  0
    3.4379   -2.6976    1.0350 C   0  0  1  0  0  0  0  0  0  0  0  0
    3.1469   -1.9266   -1.2815 C   0  0  2  0  0  0  0  0  0  0  0  0
    3.6891   -3.0664   -0.4219 C   0  0  0  0  0  0  0  0  0  0  0  0
    4.1536   -1.3826    1.3901 C   0  0  0  0  0  0  0  0  0  0  0  0
    3.9088   -0.6268   -0.9563 C   0  0  0  0  0  0  0  0  0  0  0  0
    1.9252   -2.6121    1.2707 C   0  0  0  0  0  0  0  0  0  0  0  0
    1.6618   -1.7237   -1.0475 C   0  0  0  0  0  0  0  0  0  0  0  0
    3.2559    2.0561   -0.0171 C   0  0  0  0  0  0  0  0  0  0  0  0
    3.5094    0.9685    0.9841 C   0  0  0  0  0  0  0  0  0  0  0  0
    1.7765    2.0705   -0.4082 C   0  0  0  0  0  0  0  0  0  0  0  0
    3.6969    3.4051    0.5552 C   0  0  0  0  0  0  0  0  0  0  0  0
    0.8770   -1.2656   -2.0358 C   0  0  0  0  0  0  0  0  0  0  0  0
    1.4548    3.2232   -1.3557 C   0  0  0  0  0  0  0  0  0  0  0  0
    3.3706    4.5547   -0.3944 C   0  0  0  0  0  0  0  0  0  0  0  0
   -0.2435   -1.7748    0.4981 C   0  0  0  0  0  0  0  0  0  0  0  0
    1.8941    4.5655   -0.7788 C   0  0  0  0  0  0  0  0  0  0  0  0
   -1.0899   -1.2257   -0.6188 C   0  0  0  0  0  0  0  0  0  0  0  0
   -0.5174   -1.0093   -1.8124 C   0  0  0  0  0  0  0  0  0  0  0  0
   -2.5169   -0.9211   -0.4161 C   0  0  0  0  0  0  0  0  0  0  0  0
   -2.9063    0.3459    0.0211 C   0  0  0  0  0  0  0  0  0  0  0  0
   -3.4786   -1.8975   -0.6615 C   0  0  0  0  0  0  0  0  0  0  0  0
   -4.2628    0.6515    0.2186 C   0  0  0  0  0  0  0  0  0  0  0  0
   -4.8308   -1.6113   -0.4710 C   0  0  0  0  0  0  0  0  0  0  0  0
   -5.2395   -0.3417   -0.0313 C   0  0  0  0  0  0  0  0  0  0  0  0
   -4.6713    1.9213    0.6579 C   0  0  0  0  0  0  0  0  0  0  0  0
   -6.5959   -0.0361    0.1663 C   0  0  0  0  0  0  0  0  0  0  0  0
   -6.0234    2.2075    0.8490 C   0  0  0  0  0  0  0  0  0  0  0  0
   -6.9838    1.2307    0.6038 C   0  0  0  0  0  0  0  0  0  0  0  0
    3.8431   -3.4809    1.6875 H   0  0  0  0  0  0  0  0  0  0  0  0
    3.3251   -2.1788   -2.3350 H   0  0  0  0  0  0  0  0  0  0  0  0
    3.1940   -4.0130   -0.6723 H   0  0  0  0  0  0  0  0  0  0  0  0
    4.7619   -3.2068   -0.6024 H   0  0  0  0  0  0  0  0  0  0  0  0
    3.9341   -1.1004    2.4252 H   0  0  0  0  0  0  0  0  0  0  0  0
    5.2396   -1.5218    1.3211 H   0  0  0  0  0  0  0  0  0  0  0  0
    4.9755   -0.7480   -1.1816 H   0  0  0  0  0  0  0  0  0  0  0  0
    3.5348    0.1622   -1.6080 H   0  0  0  0  0  0  0  0  0  0  0  0
    1.5295   -3.6312    1.3804 H   0  0  0  0  0  0  0  0  0  0  0  0
    1.7123   -2.1027    2.2189 H   0  0  0  0  0  0  0  0  0  0  0  0
    3.8796    1.9186   -0.9048 H   0  0  0  0  0  0  0  0  0  0  0  0
    1.1528    2.1564    0.4916 H   0  0  0  0  0  0  0  0  0  0  0  0
    1.4927    1.1330   -0.8847 H   0  0  0  0  0  0  0  0  0  0  0  0
    4.7744    3.3939    0.7614 H   0  0  0  0  0  0  0  0  0  0  0  0
    3.1999    3.5997    1.5147 H   0  0  0  0  0  0  0  0  0  0  0  0
    1.2748   -1.0424   -3.0202 H   0  0  0  0  0  0  0  0  0  0  0  0
    0.3779    3.2434   -1.5581 H   0  0  0  0  0  0  0  0  0  0  0  0
    1.9573    3.0558   -2.3163 H   0  0  0  0  0  0  0  0  0  0  0  0
    3.9830    4.4650   -1.3001 H   0  0  0  0  0  0  0  0  0  0  0  0
    3.6358    5.5082    0.0762 H   0  0  0  0  0  0  0  0  0  0  0  0
    1.7092    5.3597   -1.5108 H   0  0  0  0  0  0  0  0  0  0  0  0
    1.2884    4.7981    0.1056 H   0  0  0  0  0  0  0  0  0  0  0  0
   -1.0823   -0.6125   -2.6510 H   0  0  0  0  0  0  0  0  0  0  0  0
   -2.1489    1.1056    0.2118 H   0  0  0  0  0  0  0  0  0  0  0  0
   -3.1916   -2.8897   -1.0017 H   0  0  0  0  0  0  0  0  0  0  0  0
   -5.5642   -2.3901   -0.6691 H   0  0  0  0  0  0  0  0  0  0  0  0
   -3.9380    2.7002    0.8559 H   0  0  0  0  0  0  0  0  0  0  0  0
   -7.3639   -0.7842   -0.0193 H   0  0  0  0  0  0  0  0  0  0  0  0
   -6.3260    3.1936    1.1893 H   0  0  0  0  0  0  0  0  0  0  0  0
   -8.0361    1.4542    0.7527 H   0  0  0  0  0  0  0  0  0  0  0  0
  1 13  2  0  0  0  0
  2 19  2  0  0  0  0
  3  8  1  0  0  0  0
  3  9  1  0  0  0  0
  3 13  1  0  0  0  0
  4 10  1  0  0  0  0
  4 11  1  0  0  0  0
  4 19  1  0  0  0  0
  5  7  1  0  0  0  0
  5  8  1  0  0  0  0
  5 10  1  0  0  0  0
  5 33  1  0  0  0  0
  6  7  1  0  0  0  0
  6  9  1  0  0  0  0
  6 11  1  0  0  0  0
  6 34  1  0  0  0  0
  7 35  1  0  0  0  0
  7 36  1  0  0  0  0
  8 37  1  0  0  0  0
  8 38  1  0  0  0  0
  9 39  1  0  0  0  0
  9 40  1  0  0  0  0
 10 41  1  0  0  0  0
 10 42  1  0  0  0  0
 11 16  2  0  0  0  0
 12 13  1  0  0  0  0
 12 14  1  0  0  0  0
 12 15  1  0  0  0  0
 12 43  1  0  0  0  0
 14 17  1  0  0  0  0
 14 44  1  0  0  0  0
 14 45  1  0  0  0  0
 15 18  1  0  0  0  0
 15 46  1  0  0  0  0
 15 47  1  0  0  0  0
 16 22  1  0  0  0  0
 16 48  1  0  0  0  0
 17 20  1  0  0  0  0
 17 49  1  0  0  0  0
 17 50  1  0  0  0  0
 18 20  1  0  0  0  0
 18 51  1  0  0  0  0
 18 52  1  0  0  0  0
 19 21  1  0  0  0  0
 20 53  1  0  0  0  0
 20 54  1  0  0  0  0
 21 22  2  0  0  0  0
 21 23  1  0  0  0  0
 22 55  1  0  0  0  0
 23 24  2  0  0  0  0
 23 25  1  0  0  0  0
 24 26  1  0  0  0  0
 24 56  1  0  0  0  0
 25 27  2  0  0  0  0
 25 57  1  0  0  0  0
 26 28  1  0  0  0  0
 26 29  2  0  0  0  0
 27 28  1  0  0  0  0
 27 58  1  0  0  0  0
 28 30  2  0  0  0  0
 29 31  1  0  0  0  0
 29 59  1  0  0  0  0
 30 32  1  0  0  0  0
 30 60  1  0  0  0  0
 31 32  2  0  0  0  0
 31 61  1  0  0  0  0
 32 62  1  0  0  0  0
M  END
> <PUBCHEM_COMPOUND_CID>
11885143

> <PUBCHEM_CONFORMER_RMSD>
0.8

> <PUBCHEM_CONFORMER_DIVERSEORDER>
1
21
24
20
12
29
23
7
22
26
14
5
28
13
27
25
8
30
11
2
15
19
6
9
17
4
10
16
18
3

> <PUBCHEM_MMFF94_PARTIAL_CHARGES>
32
1 -0.57
10 0.3
11 -0.03
12 0.06
13 0.57
16 -0.15
19 0.62
2 -0.57
21 -0.01
22 -0.15
23 0.03
24 -0.15
25 -0.15
27 -0.15
29 -0.15
3 -0.66
30 -0.15
31 -0.15
32 -0.15
4 -0.47
48 0.15
55 0.15
56 0.15
57 0.15
58 0.15
59 0.15
6 0.14
60 0.15
61 0.15
62 0.15
8 0.3
9 0.3

> <PUBCHEM_EFFECTIVE_ROTOR_COUNT>
5.2

> <PUBCHEM_PHARMACOPHORE_FEATURES>
8
1 1 acceptor
1 2 acceptor
6 12 14 15 17 18 20 rings
6 23 24 25 26 27 28 rings
6 26 28 29 30 31 32 rings
6 3 5 6 7 8 9 rings
6 4 11 16 19 21 22 rings
6 4 5 6 7 10 11 rings

> <PUBCHEM_HEAVY_ATOM_COUNT>
32

> <PUBCHEM_ATOM_DEF_STEREO_COUNT>
2

> <PUBCHEM_ATOM_UDEF_STEREO_COUNT>
0

> <PUBCHEM_BOND_DEF_STEREO_COUNT>
0

> <PUBCHEM_BOND_UDEF_STEREO_COUNT>
0

> <PUBCHEM_ISOTOPIC_ATOM_COUNT>
0

> <PUBCHEM_COMPONENT_COUNT>
1

> <PUBCHEM_CACTVS_TAUTO_COUNT>
1

> <PUBCHEM_CONFORMER_ID>
00B55A5700000001

> <PUBCHEM_MMFF94_ENERGY>
85.6286

> <PUBCHEM_FEATURE_SELFOVERLAP>
42.195

> <PUBCHEM_SHAPE_FINGERPRINT>
10190108 129 18262504907252031826
10439779 11 17836086663590799689
10483366 6 18337409218514844860
10674148 151 18270687593119585748
12166972 35 18201443510900442723
12236239 1 18114752521536953127
12422481 6 18270104730478623665
12633257 1 17750776909168435210
12788726 201 17829903036097593614
13944108 23 18408612452635713388
13965767 371 17986926666819046154
14251764 38 18338802311856288401
14849402 71 18334858333672297056
15001296 14 18410856564547245689
15238133 3 18409168797240045750
15475509 84 17540243251278466730
17844677 252 18413675703818492187
20715895 44 17986393296210414401
21033648 29 17488728004628456403
21315764 268 18336826395298929325
21475661 188 18409732906290986614
21792934 111 18188498983152954449
21859007 373 17750504084863085925
21860390 5 18412265043099821638
22122407 14 18338529573064656385
22223350 30 17167868603231268243
23559900 14 17631743642875440463
245318 6 17972044892374195029
3411729 13 18341053003151881428
345986 75 17461711805933238234
3493558 16 18341056293487181329
397830 11 18188503483940817747
4058900 60 17971480843088220764
4144715 1 18270127820703302891
474 4 18265327481399816710
5104073 3 18337403695007203051
513532 50 17917438626944018548
53794403 172 18336273443333586373
54076057 255 18263382338277755156
5776283 40 18192733339322315500
5895379 119 17701838582618412761
6086070 43 17972007315905366543
9896288 288 17396990531749373504
9981440 41 17977107086878552193

> <PUBCHEM_SHAPE_MULTIPOLES>
636.84
13.54
5.05
1.52
25.07
5.78
0.02
4.18
-3.5
-6.97
0.45
-1.23
-0.4
-1.27

> <PUBCHEM_SHAPE_SELFOVERLAP>
1409.178

> <PUBCHEM_SHAPE_VOLUME>
334

> <PUBCHEM_COORDINATE_TYPE>
2
5
10

$$$$
