26743806
  -OEChem-12032416293D

 53 56  0     1  0  0  0  0  0999 V2000
   -3.3126   -1.7018    2.4966 F   0  0  0  0  0  0  0  0  0  0  0  0
    6.2665   -1.5213    1.4028 O   0  0  0  0  0  0  0  0  0  0  0  0
    1.8073   -1.3049   -2.1409 O   0  0  0  0  0  0  0  0  0  0  0  0
   -3.3231    2.3779    1.4699 O   0  0  0  0  0  0  0  0  0  0  0  0
    3.4430    0.5170    0.6004 N   0  0  1  0  0  0  0  0  0  0  0  0
    0.9889   -1.0459   -0.0721 N   0  0  0  0  0  0  0  0  0  0  0  0
    0.4693   -1.7152   -2.1972 N   0  0  0  0  0  0  0  0  0  0  0  0
   -2.3514    2.8886   -0.6165 N   0  0  0  0  0  0  0  0  0  0  0  0
    3.4255   -0.4340   -0.5296 C   0  0  1  0  0  0  0  0  0  0  0  0
    4.3744   -1.5696   -0.1033 C   0  0  0  0  0  0  0  0  0  0  0  0
    4.9109   -1.1451    1.2581 C   0  0  2  0  0  0  0  0  0  0  0  0
    4.7424    0.3623    1.2515 C   0  0  0  0  0  0  0  0  0  0  0  0
    3.1927    1.8943    0.1959 C   0  0  0  0  0  0  0  0  0  0  0  0
    2.0313   -0.9271   -0.8550 C   0  0  0  0  0  0  0  0  0  0  0  0
    1.7260    2.1578   -0.0189 C   0  0  0  0  0  0  0  0  0  0  0  0
    1.2717    2.6025   -1.2605 C   0  0  0  0  0  0  0  0  0  0  0  0
    0.8213    1.9567    1.0236 C   0  0  0  0  0  0  0  0  0  0  0  0
    0.0552   -1.5329   -0.9397 C   0  0  0  0  0  0  0  0  0  0  0  0
   -0.0873    2.8458   -1.4596 C   0  0  0  0  0  0  0  0  0  0  0  0
   -0.5376    2.2004    0.8246 C   0  0  0  0  0  0  0  0  0  0  0  0
   -0.9920    2.6449   -0.4171 C   0  0  0  0  0  0  0  0  0  0  0  0
   -1.2835   -1.8288   -0.5178 C   0  0  0  0  0  0  0  0  0  0  0  0
   -1.6589   -1.6193    0.8092 C   0  0  0  0  0  0  0  0  0  0  0  0
   -2.2099   -2.3255   -1.4346 C   0  0  0  0  0  0  0  0  0  0  0  0
   -2.9609   -1.9063    1.2193 C   0  0  0  0  0  0  0  0  0  0  0  0
   -3.5118   -2.6128   -1.0244 C   0  0  0  0  0  0  0  0  0  0  0  0
   -3.8874   -2.4031    0.3025 C   0  0  0  0  0  0  0  0  0  0  0  0
   -3.3997    2.7452    0.3019 C   0  0  0  0  0  0  0  0  0  0  0  0
   -5.2801   -2.7113    0.7377 C   0  0  0  0  0  0  0  0  0  0  0  0
   -4.7302    3.1114   -0.3067 C   0  0  0  0  0  0  0  0  0  0  0  0
    3.8491    0.0285   -1.4322 H   0  0  0  0  0  0  0  0  0  0  0  0
    3.8790   -2.5445   -0.0289 H   0  0  0  0  0  0  0  0  0  0  0  0
    5.1903   -1.6750   -0.8294 H   0  0  0  0  0  0  0  0  0  0  0  0
    4.3232   -1.5989    2.0655 H   0  0  0  0  0  0  0  0  0  0  0  0
    4.7474    0.7670    2.2690 H   0  0  0  0  0  0  0  0  0  0  0  0
    5.5545    0.8439    0.6906 H   0  0  0  0  0  0  0  0  0  0  0  0
    3.7859    2.1737   -0.6847 H   0  0  0  0  0  0  0  0  0  0  0  0
    3.5101    2.5806    0.9937 H   0  0  0  0  0  0  0  0  0  0  0  0
    6.3112   -2.4894    1.3221 H   0  0  0  0  0  0  0  0  0  0  0  0
    1.9649    2.7613   -2.0823 H   0  0  0  0  0  0  0  0  0  0  0  0
    1.1617    1.6146    1.9975 H   0  0  0  0  0  0  0  0  0  0  0  0
   -0.4274    3.1909   -2.4327 H   0  0  0  0  0  0  0  0  0  0  0  0
   -1.1766    2.0212    1.6779 H   0  0  0  0  0  0  0  0  0  0  0  0
   -0.9606   -1.2330    1.5474 H   0  0  0  0  0  0  0  0  0  0  0  0
   -1.9539   -2.5013   -2.4765 H   0  0  0  0  0  0  0  0  0  0  0  0
   -2.6027    3.2097   -1.5492 H   0  0  0  0  0  0  0  0  0  0  0  0
   -4.2225   -3.0000   -1.7497 H   0  0  0  0  0  0  0  0  0  0  0  0
   -5.2793   -3.5554    1.4350 H   0  0  0  0  0  0  0  0  0  0  0  0
   -5.7267   -1.8414    1.2307 H   0  0  0  0  0  0  0  0  0  0  0  0
   -5.9238   -2.9740   -0.1086 H   0  0  0  0  0  0  0  0  0  0  0  0
   -4.9296    2.4741   -1.1728 H   0  0  0  0  0  0  0  0  0  0  0  0
   -4.7180    4.1595   -0.6186 H   0  0  0  0  0  0  0  0  0  0  0  0
   -5.5264    2.9684    0.4291 H   0  0  0  0  0  0  0  0  0  0  0  0
  1 25  1  0  0  0  0
  2 11  1  0  0  0  0
  2 39  1  0  0  0  0
  3  7  1  0  0  0  0
  3 14  1  0  0  0  0
  4 28  2  0  0  0  0
  5  9  1  0  0  0  0
  5 12  1  0  0  0  0
  5 13  1  0  0  0  0
  6 14  2  0  0  0  0
  6 18  1  0  0  0  0
  7 18  2  0  0  0  0
  8 21  1  0  0  0  0
  8 28  1  0  0  0  0
  8 46  1  0  0  0  0
  9 10  1  0  0  0  0
  9 14  1  0  0  0  0
  9 31  1  0  0  0  0
 10 11  1  0  0  0  0
 10 32  1  0  0  0  0
 10 33  1  0  0  0  0
 11 12  1  0  0  0  0
 11 34  1  0  0  0  0
 12 35  1  0  0  0  0
 12 36  1  0  0  0  0
 13 15  1  0  0  0  0
 13 37  1  0  0  0  0
 13 38  1  0  0  0  0
 15 16  2  0  0  0  0
 15 17  1  0  0  0  0
 16 19  1  0  0  0  0
 16 40  1  0  0  0  0
 17 20  2  0  0  0  0
 17 41  1  0  0  0  0
 18 22  1  0  0  0  0
 19 21  2  0  0  0  0
 19 42  1  0  0  0  0
 20 21  1  0  0  0  0
 20 43  1  0  0  0  0
 22 23  2  0  0  0  0
 22 24  1  0  0  0  0
 23 25  1  0  0  0  0
 23 44  1  0  0  0  0
 24 26  2  0  0  0  0
 24 45  1  0  0  0  0
 25 27  2  0  0  0  0
 26 27  1  0  0  0  0
 26 47  1  0  0  0  0
 27 29  1  0  0  0  0
 28 30  1  0  0  0  0
 29 48  1  0  0  0  0
 29 49  1  0  0  0  0
 29 50  1  0  0  0  0
 30 51  1  0  0  0  0
 30 52  1  0  0  0  0
 30 53  1  0  0  0  0
M  END
> <PUBCHEM_COMPOUND_CID>
26743806

> <PUBCHEM_CONFORMER_RMSD>
0.8

> <PUBCHEM_CONFORMER_DIVERSEORDER>
1
42
173
185
38
24
177
5
189
206
216
170
77
44
183
144
166
200
212
48
228
135
171
157
88
192
158
101
49
17
187
6
151
85
121
108
90
169
133
46
115
167
41
184
217
155
139
107
182
119
201
194
36
178
233
162
84
218
125
229
7
122
174
154
100
91
160
2
81
70
141
143
207
117
191
105
230
93
150
198
145
172
186
163
109
3
23
208
96
74
92
153
104
193
45
75
14
140
73
148
78
12
221
168
16
227
54
52
165
83
190
28
57
156
142
43
98
124
116
4
37
79
195
112
159
220
224
66
149
211
146
8
181
29
67
62
213
97
225
128
214
60
130
110
99
123
82
80
64
33
161
32
114
58
205
231
40
63
68
204
136
219
131
65
11
188
222
215
102
22
89
126
152
103
138
72
226
94
202
147
76
209
47
137
20
69
134
203
164
127
39
111
232
51
21
56
25
35
95
132
197
118
10
18
34
26
13
223
113
15
31
210
61
120
196
55
27
50
129
30
19
179
86
59
53
87
199
9
175
106
71
180
176

> <PUBCHEM_MMFF94_PARTIAL_CHARGES>
38
1 -0.19
11 0.28
12 0.27
13 0.41
14 0.3
15 -0.14
16 -0.15
17 -0.15
18 0.46
19 -0.15
2 -0.68
20 -0.15
21 0.12
22 0.05
23 -0.15
24 -0.15
25 0.19
26 -0.15
27 -0.14
28 0.57
29 0.14
3 -0.02
30 0.06
39 0.4
4 -0.57
40 0.15
41 0.15
42 0.15
43 0.15
44 0.15
45 0.15
46 0.37
47 0.15
5 -0.81
6 -0.57
7 -0.41
8 -0.55
9 0.45

> <PUBCHEM_EFFECTIVE_ROTOR_COUNT>
7

> <PUBCHEM_PHARMACOPHORE_FEATURES>
10
1 2 acceptor
1 2 donor
1 4 acceptor
1 5 cation
1 8 donor
3 6 7 18 cation
5 3 6 7 14 18 rings
5 5 9 10 11 12 rings
6 15 16 17 19 20 21 rings
6 22 23 24 25 26 27 rings

> <PUBCHEM_HEAVY_ATOM_COUNT>
30

> <PUBCHEM_ATOM_DEF_STEREO_COUNT>
2

> <PUBCHEM_ATOM_UDEF_STEREO_COUNT>
0

> <PUBCHEM_BOND_DEF_STEREO_COUNT>
0

> <PUBCHEM_BOND_UDEF_STEREO_COUNT>
0

> <PUBCHEM_ISOTOPIC_ATOM_COUNT>
0

> <PUBCHEM_COMPONENT_COUNT>
1

> <PUBCHEM_CACTVS_TAUTO_COUNT>
2

> <PUBCHEM_CONFORMER_ID>
019813FE00000001

> <PUBCHEM_MMFF94_ENERGY>
68.2827

> <PUBCHEM_FEATURE_SELFOVERLAP>
50.747

> <PUBCHEM_SHAPE_FINGERPRINT>
104564 63 18269000953985440956
10688039 33 18188765170926892501
108634 29 18269560442374147631
11387372 6 17465656794078629378
12035758 1 18267033769122981393
12107698 1 18336543919331302291
12156800 1 18194994930990782333
12422481 6 18199770123228334971
13140716 1 18411694370901073680
13402501 40 18270398283241116897
13692114 37 18200580420659886925
13726171 33 18123223231831402100
13965767 371 17771645699581624680
14725015 67 18409441514925788851
14790565 3 17184184488294292284
14840074 17 17907853252277608896
14866123 147 18190729848045773610
20764821 26 18339095855949700477
21304304 249 18120089481572522132
22182313 1 17845947229738723654
24893992 56 18113610211066253911
24941158 1 15287067171194714341
3052486 1 18335999600808581956
5104073 3 18267844165686071304
513202 73 18338516336144936770
5283268 108 18338805631443950134
56638632 10 16410946236074863240
7064713 232 17345492503348556987

> <PUBCHEM_SHAPE_MULTIPOLES>
572.58
10.13
4.78
1.72
4.38
2.88
-0.08
-5.28
4.7
-5.42
-0.51
-0.08
-0.64
-0.03

> <PUBCHEM_SHAPE_SELFOVERLAP>
1241.63

> <PUBCHEM_SHAPE_VOLUME>
316.1

> <PUBCHEM_COORDINATE_TYPE>
2
5
10

$$$$
