45361649
  -OEChem-12032416193D

 64 66  0     1  0  0  0  0  0999 V2000
   -0.8058   -1.5745   -1.4210 O   0  0  0  0  0  0  0  0  0  0  0  0
   -5.3091    1.0913   -0.5641 O   0  0  0  0  0  0  0  0  0  0  0  0
    5.3153   -0.6597    1.5852 O   0  0  0  0  0  0  0  0  0  0  0  0
    4.2102    0.1332   -0.2960 N   0  0  0  0  0  0  0  0  0  0  0  0
   -5.1704   -1.1656   -0.0541 N   0  0  0  0  0  0  0  0  0  0  0  0
    6.4688   -0.2661   -0.3892 N   0  0  0  0  0  0  0  0  0  0  0  0
    0.2267    1.5702    0.4816 C   0  0  1  0  0  0  0  0  0  0  0  0
    0.3573    0.1354   -0.1292 C   0  0  2  0  0  0  0  0  0  0  0  0
    1.7778   -0.0738   -0.7665 C   0  0  1  0  0  0  0  0  0  0  0  0
   -0.8469   -0.1937   -1.0579 C   0  0  2  0  0  0  0  0  0  0  0  0
   -1.1378    1.7038    1.1982 C   0  0  0  0  0  0  0  0  0  0  0  0
   -2.2111    0.0416   -0.3686 C   0  0  1  0  0  0  0  0  0  0  0  0
    1.3357    1.7704    1.5403 C   0  0  0  0  0  0  0  0  0  0  0  0
    2.8868    0.2033    0.2872 C   0  0  2  0  0  0  0  0  0  0  0  0
   -2.3206    1.4208    0.2815 C   0  0  0  0  0  0  0  0  0  0  0  0
    2.7367    1.5542    0.9863 C   0  0  0  0  0  0  0  0  0  0  0  0
    0.3374    2.6844   -0.5900 C   0  0  0  0  0  0  0  0  0  0  0  0
   -3.3814   -0.1618   -1.3387 C   0  0  1  0  0  0  0  0  0  0  0  0
    1.9852   -1.4767   -1.3619 C   0  0  0  0  0  0  0  0  0  0  0  0
   -4.7168    0.0158   -0.6242 C   0  0  0  0  0  0  0  0  0  0  0  0
   -3.2698    0.8117   -2.5071 C   0  0  0  0  0  0  0  0  0  0  0  0
   -6.4027   -1.2455    0.6768 C   0  0  0  0  0  0  0  0  0  0  0  0
   -6.4679   -0.8797    2.1305 C   0  0  0  0  0  0  0  0  0  0  0  0
   -6.6262   -2.3112    1.7093 C   0  0  0  0  0  0  0  0  0  0  0  0
    5.3284   -0.2974    0.4095 C   0  0  0  0  0  0  0  0  0  0  0  0
    7.7716   -0.6619    0.0912 C   0  0  0  0  0  0  0  0  0  0  0  0
    7.9286   -2.1684    0.0909 C   0  0  0  0  0  0  0  0  0  0  0  0
    0.3025   -0.5834    0.7042 H   0  0  0  0  0  0  0  0  0  0  0  0
    1.9008    0.6318   -1.5979 H   0  0  0  0  0  0  0  0  0  0  0  0
   -0.7320    0.3870   -1.9749 H   0  0  0  0  0  0  0  0  0  0  0  0
   -1.1790    1.0066    2.0460 H   0  0  0  0  0  0  0  0  0  0  0  0
   -1.2466    2.7094    1.6245 H   0  0  0  0  0  0  0  0  0  0  0  0
   -2.3165   -0.7063    0.4315 H   0  0  0  0  0  0  0  0  0  0  0  0
    1.2728    2.7778    1.9710 H   0  0  0  0  0  0  0  0  0  0  0  0
    1.1812    1.0709    2.3729 H   0  0  0  0  0  0  0  0  0  0  0  0
    2.8237   -0.5780    1.0573 H   0  0  0  0  0  0  0  0  0  0  0  0
   -3.2238    1.4837    0.8994 H   0  0  0  0  0  0  0  0  0  0  0  0
   -2.3913    2.2320   -0.4455 H   0  0  0  0  0  0  0  0  0  0  0  0
    2.9995    2.3673    0.2985 H   0  0  0  0  0  0  0  0  0  0  0  0
    3.4577    1.6277    1.8108 H   0  0  0  0  0  0  0  0  0  0  0  0
    1.3108    2.7005   -1.0867 H   0  0  0  0  0  0  0  0  0  0  0  0
    0.1956    3.6717   -0.1348 H   0  0  0  0  0  0  0  0  0  0  0  0
   -0.4114    2.5810   -1.3802 H   0  0  0  0  0  0  0  0  0  0  0  0
   -3.3508   -1.1789   -1.7507 H   0  0  0  0  0  0  0  0  0  0  0  0
    1.7195   -2.2574   -0.6418 H   0  0  0  0  0  0  0  0  0  0  0  0
    3.0245   -1.6438   -1.6630 H   0  0  0  0  0  0  0  0  0  0  0  0
    1.3936   -1.6109   -2.2718 H   0  0  0  0  0  0  0  0  0  0  0  0
    4.3418    0.4880   -1.2384 H   0  0  0  0  0  0  0  0  0  0  0  0
   -0.8554   -2.1028   -0.6061 H   0  0  0  0  0  0  0  0  0  0  0  0
   -4.1405    0.6811   -3.1633 H   0  0  0  0  0  0  0  0  0  0  0  0
   -2.3980    0.6230   -3.1380 H   0  0  0  0  0  0  0  0  0  0  0  0
   -3.2799    1.8661   -2.2224 H   0  0  0  0  0  0  0  0  0  0  0  0
   -7.2613   -0.9864    0.0649 H   0  0  0  0  0  0  0  0  0  0  0  0
   -4.6202   -2.0155   -0.1438 H   0  0  0  0  0  0  0  0  0  0  0  0
   -7.3487   -0.3550    2.4795 H   0  0  0  0  0  0  0  0  0  0  0  0
   -5.5504   -0.6022    2.6350 H   0  0  0  0  0  0  0  0  0  0  0  0
   -5.8153   -2.9934    1.9330 H   0  0  0  0  0  0  0  0  0  0  0  0
   -7.6139   -2.7505    1.7762 H   0  0  0  0  0  0  0  0  0  0  0  0
    6.3810    0.0360   -1.3545 H   0  0  0  0  0  0  0  0  0  0  0  0
    7.9099   -0.2691    1.1040 H   0  0  0  0  0  0  0  0  0  0  0  0
    8.5175   -0.2008   -0.5636 H   0  0  0  0  0  0  0  0  0  0  0  0
    8.9297   -2.4476    0.4336 H   0  0  0  0  0  0  0  0  0  0  0  0
    7.7844   -2.5767   -0.9150 H   0  0  0  0  0  0  0  0  0  0  0  0
    7.1973   -2.6461    0.7510 H   0  0  0  0  0  0  0  0  0  0  0  0
  1 10  1  0  0  0  0
  1 49  1  0  0  0  0
  2 20  2  0  0  0  0
  3 25  2  0  0  0  0
  4 14  1  0  0  0  0
  4 25  1  0  0  0  0
  4 48  1  0  0  0  0
  5 20  1  0  0  0  0
  5 22  1  0  0  0  0
  5 54  1  0  0  0  0
  6 25  1  0  0  0  0
  6 26  1  0  0  0  0
  6 59  1  0  0  0  0
  7  8  1  0  0  0  0
  7 11  1  0  0  0  0
  7 13  1  0  0  0  0
  7 17  1  0  0  0  0
  8  9  1  0  0  0  0
  8 10  1  0  0  0  0
  8 28  1  0  0  0  0
  9 14  1  0  0  0  0
  9 19  1  0  0  0  0
  9 29  1  0  0  0  0
 10 12  1  0  0  0  0
 10 30  1  0  0  0  0
 11 15  1  0  0  0  0
 11 31  1  0  0  0  0
 11 32  1  0  0  0  0
 12 15  1  0  0  0  0
 12 18  1  0  0  0  0
 12 33  1  0  0  0  0
 13 16  1  0  0  0  0
 13 34  1  0  0  0  0
 13 35  1  0  0  0  0
 14 16  1  0  0  0  0
 14 36  1  0  0  0  0
 15 37  1  0  0  0  0
 15 38  1  0  0  0  0
 16 39  1  0  0  0  0
 16 40  1  0  0  0  0
 17 41  1  0  0  0  0
 17 42  1  0  0  0  0
 17 43  1  0  0  0  0
 18 20  1  0  0  0  0
 18 21  1  0  0  0  0
 18 44  1  0  0  0  0
 19 45  1  0  0  0  0
 19 46  1  0  0  0  0
 19 47  1  0  0  0  0
 21 50  1  0  0  0  0
 21 51  1  0  0  0  0
 21 52  1  0  0  0  0
 22 23  1  0  0  0  0
 22 24  1  0  0  0  0
 22 53  1  0  0  0  0
 23 24  1  0  0  0  0
 23 55  1  0  0  0  0
 23 56  1  0  0  0  0
 24 57  1  0  0  0  0
 24 58  1  0  0  0  0
 26 27  1  0  0  0  0
 26 60  1  0  0  0  0
 26 61  1  0  0  0  0
 27 62  1  0  0  0  0
 27 63  1  0  0  0  0
 27 64  1  0  0  0  0
M  END
> <PUBCHEM_COMPOUND_CID>
45361649

> <PUBCHEM_CONFORMER_RMSD>
1

> <PUBCHEM_CONFORMER_DIVERSEORDER>
1
10
67
42
56
74
57
79
24
46
18
78
60
63
62
36
71
61
73
23
75
59
50
54
76
26
64
65
49
31
7
40
13
68
69
66
58
44
22
72
28
27
12
16
47
52
77
25
41
37
19
21
15
45
55
53
48
6
39
35
33
8
38
51
34
11
32
70
29
20
9
3
4
2
80
30
43
14
5
17

> <PUBCHEM_MMFF94_PARTIAL_CHARGES>
24
1 -0.68
10 0.28
14 0.3
18 0.06
2 -0.57
20 0.57
22 0.05
23 -0.2
24 -0.2
25 0.69
26 0.3
3 -0.57
4 -0.73
48 0.37
49 0.4
5 -0.58
53 0.1
54 0.37
55 0.1
56 0.1
57 0.1
58 0.1
59 0.37
6 -0.73

> <PUBCHEM_EFFECTIVE_ROTOR_COUNT>
10.2

> <PUBCHEM_PHARMACOPHORE_FEATURES>
10
1 1 acceptor
1 1 donor
1 2 acceptor
1 21 hydrophobe
1 3 acceptor
1 4 donor
1 5 donor
1 6 donor
6 7 8 10 11 12 15 rings
6 7 8 9 13 14 16 rings

> <PUBCHEM_HEAVY_ATOM_COUNT>
27

> <PUBCHEM_ATOM_DEF_STEREO_COUNT>
6

> <PUBCHEM_ATOM_UDEF_STEREO_COUNT>
1

> <PUBCHEM_BOND_DEF_STEREO_COUNT>
0

> <PUBCHEM_BOND_UDEF_STEREO_COUNT>
0

> <PUBCHEM_ISOTOPIC_ATOM_COUNT>
0

> <PUBCHEM_COMPONENT_COUNT>
1

> <PUBCHEM_CACTVS_TAUTO_COUNT>
6

> <PUBCHEM_CONFORMER_ID>
02B429F100000001

> <PUBCHEM_MMFF94_ENERGY>
67.7953

> <PUBCHEM_FEATURE_SELFOVERLAP>
50.812

> <PUBCHEM_SHAPE_FINGERPRINT>
10076449 9 18334301989367910658
10693767 8 14490733647370077736
10906281 52 17131275795570537636
11646440 116 17704355476588002514
12035758 1 18130503114991652730
12166972 35 17821731654283841180
12236239 1 18408884002480286692
12422481 6 17274283651457996201
12616971 3 17632291324008808893
13140716 1 17773021180022291414
13668630 136 18114181909203249746
13673619 4 18113337544239084133
13685833 64 18410856581431208856
13782708 43 18040428914936716723
13862211 1 17845923087838023620
14251764 30 17967531307195079153
14767858 380 13551187805523174659
14849402 71 16844439608774068856
15131766 46 12174179265125899114
15238133 3 14836130999966405241
18335252 98 18260551160724853968
20982279 24 18266761103510017770
21130935 74 15985096445015769446
21150785 3 15936411148005664754
21267235 1 18273498962240150692
21403212 168 17131840855038345911
21521239 73 14923939059591455512
21781051 124 18338251431020075150
21792961 116 18336539421993797199
22288116 15 14418142841642283547
22393880 68 11314309516553769273
23402539 116 17489293196659814484
23522609 53 17201933732438804560
23559900 14 17773576378066522592
23576562 1 8285615581938272914
23845131 108 16409883742591051929
2838139 119 11600004341076328347
312425 54 15267057047801903062
3178227 256 18202006546948486114
335352 9 17917702509180952676
3383291 50 18413668024179915146
465052 167 18410855473609156200
484989 97 13118868668894433857
5104073 3 17631178476570876082
5283384 27 9583519806722715970
59755656 215 17774719771702008422
6009941 240 18336547115108925193
6058803 2 16626847430089565669
636775 8 18334021575612781526
7495541 125 18113621235360884573
8863177 126 18189617322941267523
999808 66 18410295813194878675

> <PUBCHEM_SHAPE_MULTIPOLES>
523.1
18.94
2.17
1.75
14.25
0.23
-0.11
-15.13
6.19
-0.35
0.5
-2.29
-0.09
2

> <PUBCHEM_SHAPE_SELFOVERLAP>
1063.443

> <PUBCHEM_SHAPE_VOLUME>
301.7

> <PUBCHEM_COORDINATE_TYPE>
2
5
10

$$$$
