86769003
  -OEChem-12032416303D

 43 45  0     1  0  0  0  0  0999 V2000
   -6.5199   -1.8597   -0.1442 S   0  0  0  0  0  0  0  0  0  0  0  0
    0.0945   -0.9008    0.1901 O   0  0  0  0  0  0  0  0  0  0  0  0
   -1.1338    2.4583   -0.1461 O   0  0  0  0  0  0  0  0  0  0  0  0
    3.4766    1.9718   -0.3721 O   0  0  0  0  0  0  0  0  0  0  0  0
   -3.3553    0.2481    0.0903 N   0  0  0  0  0  0  0  0  0  0  0  0
    2.6003    0.2843    0.9573 N   0  0  0  0  0  0  0  0  0  0  0  0
   -1.9634    0.1690   -0.3220 C   0  0  1  0  0  0  0  0  0  0  0  0
   -1.0588    1.1538    0.3954 C   0  0  1  0  0  0  0  0  0  0  0  0
    0.3064    0.5205    0.1636 C   0  0  1  0  0  0  0  0  0  0  0  0
   -1.3132   -1.1560    0.0409 C   0  0  0  0  0  0  0  0  0  0  0  0
    1.3332    0.9061    1.2135 C   0  0  0  0  0  0  0  0  0  0  0  0
   -4.2213   -0.4595   -0.8453 C   0  0  0  0  0  0  0  0  0  0  0  0
   -5.6659   -0.4023   -0.4251 C   0  0  0  0  0  0  0  0  0  0  0  0
    3.5854    0.8765    0.1729 C   0  0  0  0  0  0  0  0  0  0  0  0
   -6.4557    0.7075   -0.2198 C   0  0  0  0  0  0  0  0  0  0  0  0
    4.8322    0.0916   -0.0180 C   0  0  0  0  0  0  0  0  0  0  0  0
   -7.7793    0.3568    0.1736 C   0  0  0  0  0  0  0  0  0  0  0  0
   -7.9509   -1.0077    0.2538 C   0  0  0  0  0  0  0  0  0  0  0  0
    5.6077    0.2809   -1.1618 C   0  0  0  0  0  0  0  0  0  0  0  0
    5.2279   -0.8337    0.9477 C   0  0  0  0  0  0  0  0  0  0  0  0
    6.7791   -0.4553   -1.3401 C   0  0  0  0  0  0  0  0  0  0  0  0
    6.3993   -1.5697    0.7697 C   0  0  0  0  0  0  0  0  0  0  0  0
    7.1749   -1.3806   -0.3742 C   0  0  0  0  0  0  0  0  0  0  0  0
   -1.8770    0.3528   -1.4024 H   0  0  0  0  0  0  0  0  0  0  0  0
   -1.2965    1.2009    1.4655 H   0  0  0  0  0  0  0  0  0  0  0  0
    0.6882    0.7752   -0.8339 H   0  0  0  0  0  0  0  0  0  0  0  0
   -1.6732   -1.5484    0.9990 H   0  0  0  0  0  0  0  0  0  0  0  0
   -1.4623   -1.9240   -0.7241 H   0  0  0  0  0  0  0  0  0  0  0  0
    1.0178    0.5623    2.2048 H   0  0  0  0  0  0  0  0  0  0  0  0
    1.4617    1.9933    1.2475 H   0  0  0  0  0  0  0  0  0  0  0  0
   -3.6345    1.2289    0.1261 H   0  0  0  0  0  0  0  0  0  0  0  0
   -3.9006   -1.5042   -0.9391 H   0  0  0  0  0  0  0  0  0  0  0  0
   -4.1464   -0.0101   -1.8443 H   0  0  0  0  0  0  0  0  0  0  0  0
   -0.9234    2.4086   -1.0939 H   0  0  0  0  0  0  0  0  0  0  0  0
    2.7273   -0.6543    1.3202 H   0  0  0  0  0  0  0  0  0  0  0  0
   -6.1072    1.7247   -0.3464 H   0  0  0  0  0  0  0  0  0  0  0  0
   -8.5659    1.0689    0.3864 H   0  0  0  0  0  0  0  0  0  0  0  0
   -8.8482   -1.5449    0.5269 H   0  0  0  0  0  0  0  0  0  0  0  0
    5.3141    0.9939   -1.9277 H   0  0  0  0  0  0  0  0  0  0  0  0
    4.6705   -0.9892    1.8665 H   0  0  0  0  0  0  0  0  0  0  0  0
    7.3828   -0.3086   -2.2309 H   0  0  0  0  0  0  0  0  0  0  0  0
    6.7118   -2.2852    1.5248 H   0  0  0  0  0  0  0  0  0  0  0  0
    8.0877   -1.9527   -0.5121 H   0  0  0  0  0  0  0  0  0  0  0  0
  1 13  1  0  0  0  0
  1 18  1  0  0  0  0
  2  9  1  0  0  0  0
  2 10  1  0  0  0  0
  3  8  1  0  0  0  0
  3 34  1  0  0  0  0
  4 14  2  0  0  0  0
  5  7  1  0  0  0  0
  5 12  1  0  0  0  0
  5 31  1  0  0  0  0
  6 11  1  0  0  0  0
  6 14  1  0  0  0  0
  6 35  1  0  0  0  0
  7  8  1  0  0  0  0
  7 10  1  0  0  0  0
  7 24  1  0  0  0  0
  8  9  1  0  0  0  0
  8 25  1  0  0  0  0
  9 11  1  0  0  0  0
  9 26  1  0  0  0  0
 10 27  1  0  0  0  0
 10 28  1  0  0  0  0
 11 29  1  0  0  0  0
 11 30  1  0  0  0  0
 12 13  1  0  0  0  0
 12 32  1  0  0  0  0
 12 33  1  0  0  0  0
 13 15  2  0  0  0  0
 14 16  1  0  0  0  0
 15 17  1  0  0  0  0
 15 36  1  0  0  0  0
 16 19  2  0  0  0  0
 16 20  1  0  0  0  0
 17 18  2  0  0  0  0
 17 37  1  0  0  0  0
 18 38  1  0  0  0  0
 19 21  1  0  0  0  0
 19 39  1  0  0  0  0
 20 22  2  0  0  0  0
 20 40  1  0  0  0  0
 21 23  2  0  0  0  0
 21 41  1  0  0  0  0
 22 23  1  0  0  0  0
 22 42  1  0  0  0  0
 23 43  1  0  0  0  0
M  END
> <PUBCHEM_COMPOUND_CID>
86769003

> <PUBCHEM_CONFORMER_RMSD>
1

> <PUBCHEM_CONFORMER_DIVERSEORDER>
1
8
133
89
54
79
103
117
125
113
33
14
122
86
137
151
7
135
9
61
146
166
169
11
26
90
40
120
99
12
130
82
96
163
98
10
6
134
71
155
28
136
46
154
55
70
157
101
36
30
15
104
38
123
45
121
115
17
83
162
143
78
62
19
22
150
132
138
20
128
119
147
112
172
110
158
37
100
39
168
152
23
108
65
59
109
164
170
145
58
131
85
77
80
74
87
93
18
49
68
126
42
69
84
63
88
156
41
124
31
105
3
114
161
52
149
94
4
64
13
107
75
76
66
50
21
165
129
160
29
127
43
97
56
118
116
2
140
44
153
91
73
25
72
171
24
148
47
144
102
53
32
159
81
106
16
48
5
67
174
92
57
142
60
95
27
139
35
141
34
167
111
175
51
173

> <PUBCHEM_MMFF94_PARTIAL_CHARGES>
34
1 -0.08
10 0.28
11 0.3
12 0.45
13 -0.14
14 0.54
15 -0.15
16 0.09
17 -0.15
18 -0.11
19 -0.15
2 -0.56
20 -0.15
21 -0.15
22 -0.15
23 -0.15
3 -0.68
31 0.36
34 0.4
35 0.37
36 0.15
37 0.15
38 0.15
39 0.15
4 -0.57
40 0.15
41 0.15
42 0.15
43 0.15
5 -0.9
6 -0.73
7 0.27
8 0.28
9 0.28

> <PUBCHEM_EFFECTIVE_ROTOR_COUNT>
8

> <PUBCHEM_PHARMACOPHORE_FEATURES>
10
1 2 acceptor
1 3 acceptor
1 3 donor
1 4 acceptor
1 5 cation
1 5 donor
1 6 donor
5 1 13 15 17 18 rings
5 2 7 8 9 10 rings
6 16 19 20 21 22 23 rings

> <PUBCHEM_HEAVY_ATOM_COUNT>
23

> <PUBCHEM_ATOM_DEF_STEREO_COUNT>
3

> <PUBCHEM_ATOM_UDEF_STEREO_COUNT>
0

> <PUBCHEM_BOND_DEF_STEREO_COUNT>
0

> <PUBCHEM_BOND_UDEF_STEREO_COUNT>
0

> <PUBCHEM_ISOTOPIC_ATOM_COUNT>
0

> <PUBCHEM_COMPONENT_COUNT>
1

> <PUBCHEM_CACTVS_TAUTO_COUNT>
2

> <PUBCHEM_CONFORMER_ID>
052BFD6B00000001

> <PUBCHEM_MMFF94_ENERGY>
45.8089

> <PUBCHEM_FEATURE_SELFOVERLAP>
50.747

> <PUBCHEM_SHAPE_FINGERPRINT>
10 15 11600002158889575630
10299344 5 18333450937234909507
11524674 6 17203607112454369087
11638347 137 13326861019771932708
11719270 70 17775569732054077478
12166972 35 18040155132093706197
125118 31 9871476425764368363
13533116 47 17676760990353225114
13668630 136 18343303652367914558
13673619 4 18201998828444258793
13685833 64 17989205949758939970
13885169 127 17988927734689118793
13914758 101 15698007318809981555
14216079 64 18131071511053276310
14251752 14 18413105044197885637
14251764 18 16702306762710898896
14294032 229 18122351181413445105
14344974 204 17843398742628931263
14347424 109 16272203111540673346
14856354 85 18259705623535699767
14933364 13 17967812752101808869
15183329 4 18411985749491607115
15352257 5 18407759248707830587
15849732 13 14923946756173408139
17093844 174 13110965332496262879
20554085 129 11314308386402838516
21095086 128 18410855491222009823
21150785 3 16950002530160431790
21267235 1 18410576184501910305
21315759 40 18408045104402820897
21781051 124 18337679705757462411
220451 1 17095516310460314755
221357 26 17240481399665851044
22224240 67 8070026657731057977
22956985 138 17626679206951653022
23035841 295 18410853270380740563
23081809 10 14779811742723419845
23522609 53 18195275310572321504
23559900 14 18338512066561939520
246663 6 18413110563109541691
28498 318 17846780685053096029
3004659 81 18411418423620781624
328311 84 18342178886406258395
34797466 226 16008751303356989390
4107672 100 17968371248528072813
4339292 15 11959431424797251109
465052 167 18272652380656187652
5207 217 13262396661672878073
5758199 1 11241965959060949013
59755656 215 18202002101246060191
59755656 520 18187078482158540331
6438161 24 18334570227619795474

> <PUBCHEM_SHAPE_MULTIPOLES>
449.61
24.9
1.69
0.99
12.81
0.22
0.04
-10.3
2.92
-0.07
-0.05
-1.28
-0.04
-0.3

> <PUBCHEM_SHAPE_SELFOVERLAP>
937.123

> <PUBCHEM_SHAPE_VOLUME>
256.3

> <PUBCHEM_COORDINATE_TYPE>
2
5
10

$$$$
