26743260
  -OEChem-12032416193D

 64 67  0     1  0  0  0  0  0999 V2000
    0.5789    3.1979    1.7501 O   0  0  0  0  0  0  0  0  0  0  0  0
    0.4445   -1.2237   -1.7146 O   0  0  0  0  0  0  0  0  0  0  0  0
    5.7389   -0.3498   -0.8391 N   0  0  0  0  0  0  0  0  0  0  0  0
    1.9053    2.7943    1.8448 N   0  0  0  0  0  0  0  0  0  0  0  0
    0.4650   -3.1183   -0.3689 N   0  0  0  0  0  0  0  0  0  0  0  0
   -3.3174   -3.4557    1.8640 N   0  0  0  0  0  0  0  0  0  0  0  0
    3.7570    0.5053    0.3884 C   0  0  2  0  0  0  0  0  0  0  0  0
    2.8014   -0.1896   -0.6108 C   0  0  1  0  0  0  0  0  0  0  0  0
    3.5325   -0.3879   -1.9492 C   0  0  0  0  0  0  0  0  0  0  0  0
    5.1112   -0.2184    0.4762 C   0  0  0  0  0  0  0  0  0  0  0  0
   -2.1608    2.2611    0.0216 C   0  0  0  0  0  0  0  0  0  0  0  0
    3.1476    0.6756    1.7806 C   0  0  0  0  0  0  0  0  0  0  0  0
    4.8863   -1.0757   -1.7781 C   0  0  0  0  0  0  0  0  0  0  0  0
    2.2245   -1.5162   -0.1026 C   0  0  0  0  0  0  0  0  0  0  0  0
   -3.6777    2.4872   -0.0323 C   0  0  0  0  0  0  0  0  0  0  0  0
   -1.4266    3.2643   -0.8782 C   0  0  0  0  0  0  0  0  0  0  0  0
   -4.2023    2.4527   -1.4659 C   0  0  0  0  0  0  0  0  0  0  0  0
   -1.9550    3.2287   -2.3105 C   0  0  0  0  0  0  0  0  0  0  0  0
   -1.6523    2.3533    1.4591 C   0  0  0  0  0  0  0  0  0  0  0  0
   -3.4643    3.4448   -2.3593 C   0  0  0  0  0  0  0  0  0  0  0  0
    1.8711    1.4640    1.7262 C   0  0  0  0  0  0  0  0  0  0  0  0
   -0.2104    2.1067    1.5787 C   0  0  0  0  0  0  0  0  0  0  0  0
    0.5636    0.9767    1.5565 C   0  0  0  0  0  0  0  0  0  0  0  0
    0.9566   -1.9065   -0.8317 C   0  0  0  0  0  0  0  0  0  0  0  0
   -0.7368   -3.7316   -0.8862 C   0  0  0  0  0  0  0  0  0  0  0  0
   -1.9591   -3.2982   -0.1297 C   0  0  0  0  0  0  0  0  0  0  0  0
   -2.8503   -2.3797   -0.6733 C   0  0  0  0  0  0  0  0  0  0  0  0
   -2.2356   -3.8021    1.1310 C   0  0  0  0  0  0  0  0  0  0  0  0
   -3.9748   -1.9985    0.0503 C   0  0  0  0  0  0  0  0  0  0  0  0
   -4.1611   -2.5606    1.3029 C   0  0  0  0  0  0  0  0  0  0  0  0
    3.9573    1.5119   -0.0112 H   0  0  0  0  0  0  0  0  0  0  0  0
    1.9737    0.5006   -0.8176 H   0  0  0  0  0  0  0  0  0  0  0  0
    3.6919    0.5954   -2.4125 H   0  0  0  0  0  0  0  0  0  0  0  0
    2.9202   -0.9609   -2.6543 H   0  0  0  0  0  0  0  0  0  0  0  0
    5.7879    0.3526    1.1224 H   0  0  0  0  0  0  0  0  0  0  0  0
    4.9945   -1.2076    0.9359 H   0  0  0  0  0  0  0  0  0  0  0  0
   -1.9544    1.2505   -0.3598 H   0  0  0  0  0  0  0  0  0  0  0  0
    3.8613    1.2157    2.4184 H   0  0  0  0  0  0  0  0  0  0  0  0
    2.9843   -0.2815    2.2870 H   0  0  0  0  0  0  0  0  0  0  0  0
    4.7665   -2.1162   -1.4571 H   0  0  0  0  0  0  0  0  0  0  0  0
    5.3899   -1.1072   -2.7508 H   0  0  0  0  0  0  0  0  0  0  0  0
    1.9594   -1.4807    0.9557 H   0  0  0  0  0  0  0  0  0  0  0  0
    2.9465   -2.3333   -0.2068 H   0  0  0  0  0  0  0  0  0  0  0  0
   -3.9280    3.4557    0.4193 H   0  0  0  0  0  0  0  0  0  0  0  0
   -4.1914    1.7190    0.5580 H   0  0  0  0  0  0  0  0  0  0  0  0
   -0.3522    3.0510   -0.9109 H   0  0  0  0  0  0  0  0  0  0  0  0
   -1.5396    4.2800   -0.4778 H   0  0  0  0  0  0  0  0  0  0  0  0
    6.6273   -0.8403   -0.7412 H   0  0  0  0  0  0  0  0  0  0  0  0
   -5.2745    2.6785   -1.4713 H   0  0  0  0  0  0  0  0  0  0  0  0
   -4.0870    1.4399   -1.8715 H   0  0  0  0  0  0  0  0  0  0  0  0
   -1.7097    2.2610   -2.7656 H   0  0  0  0  0  0  0  0  0  0  0  0
   -1.4534    3.9986   -2.9076 H   0  0  0  0  0  0  0  0  0  0  0  0
   -2.1866    1.6219    2.0793 H   0  0  0  0  0  0  0  0  0  0  0  0
   -1.8957    3.3381    1.8789 H   0  0  0  0  0  0  0  0  0  0  0  0
   -3.8181    3.3456   -3.3916 H   0  0  0  0  0  0  0  0  0  0  0  0
   -3.6968    4.4677   -2.0383 H   0  0  0  0  0  0  0  0  0  0  0  0
    0.2155   -0.0386    1.4481 H   0  0  0  0  0  0  0  0  0  0  0  0
    0.9548   -3.5992    0.3802 H   0  0  0  0  0  0  0  0  0  0  0  0
   -0.6153   -4.8180   -0.8100 H   0  0  0  0  0  0  0  0  0  0  0  0
   -0.8336   -3.4917   -1.9514 H   0  0  0  0  0  0  0  0  0  0  0  0
   -2.6787   -1.9519   -1.6572 H   0  0  0  0  0  0  0  0  0  0  0  0
   -1.5774   -4.5221    1.6076 H   0  0  0  0  0  0  0  0  0  0  0  0
   -4.6815   -1.2820   -0.3526 H   0  0  0  0  0  0  0  0  0  0  0  0
   -5.0220   -2.2955    1.9079 H   0  0  0  0  0  0  0  0  0  0  0  0
  1  4  1  0  0  0  0
  1 22  1  0  0  0  0
  2 24  2  0  0  0  0
  3 10  1  0  0  0  0
  3 13  1  0  0  0  0
  3 48  1  0  0  0  0
  4 21  2  0  0  0  0
  5 24  1  0  0  0  0
  5 25  1  0  0  0  0
  5 58  1  0  0  0  0
  6 28  1  0  0  0  0
  6 30  2  0  0  0  0
  7  8  1  0  0  0  0
  7 10  1  0  0  0  0
  7 12  1  0  0  0  0
  7 31  1  0  0  0  0
  8  9  1  0  0  0  0
  8 14  1  0  0  0  0
  8 32  1  0  0  0  0
  9 13  1  0  0  0  0
  9 33  1  0  0  0  0
  9 34  1  0  0  0  0
 10 35  1  0  0  0  0
 10 36  1  0  0  0  0
 11 15  1  0  0  0  0
 11 16  1  0  0  0  0
 11 19  1  0  0  0  0
 11 37  1  0  0  0  0
 12 21  1  0  0  0  0
 12 38  1  0  0  0  0
 12 39  1  0  0  0  0
 13 40  1  0  0  0  0
 13 41  1  0  0  0  0
 14 24  1  0  0  0  0
 14 42  1  0  0  0  0
 14 43  1  0  0  0  0
 15 17  1  0  0  0  0
 15 44  1  0  0  0  0
 15 45  1  0  0  0  0
 16 18  1  0  0  0  0
 16 46  1  0  0  0  0
 16 47  1  0  0  0  0
 17 20  1  0  0  0  0
 17 49  1  0  0  0  0
 17 50  1  0  0  0  0
 18 20  1  0  0  0  0
 18 51  1  0  0  0  0
 18 52  1  0  0  0  0
 19 22  1  0  0  0  0
 19 53  1  0  0  0  0
 19 54  1  0  0  0  0
 20 55  1  0  0  0  0
 20 56  1  0  0  0  0
 21 23  1  0  0  0  0
 22 23  2  0  0  0  0
 23 57  1  0  0  0  0
 25 26  1  0  0  0  0
 25 59  1  0  0  0  0
 25 60  1  0  0  0  0
 26 27  1  0  0  0  0
 26 28  2  0  0  0  0
 27 29  2  0  0  0  0
 27 61  1  0  0  0  0
 28 62  1  0  0  0  0
 29 30  1  0  0  0  0
 29 63  1  0  0  0  0
 30 64  1  0  0  0  0
M  END
> <PUBCHEM_COMPOUND_CID>
26743260

> <PUBCHEM_CONFORMER_RMSD>
1.4

> <PUBCHEM_CONFORMER_DIVERSEORDER>
1
145
83
55
36
70
35
22
126
85
63
120
13
24
102
18
147
23
30
45
69
67
156
146
20
94
37
32
79
123
47
2
7
60
114
138
8
95
105
144
127
66
29
134
124
152
107
61
44
118
93
111
62
87
81
142
27
119
34
50
153
139
31
48
21
99
71
12
129
116
76
10
109
57
143
39
133
11
15
84
122
92
148
56
19
3
101
25
51
40
73
77
149
82
141
150
103
115
125
128
59
75
108
96
154
4
130
41
140
137
132
89
6
155
46
54
78
117
65
49
104
121
136
106
113
53
68
72
33
16
151
74
14
88
80
5
26
98
97
90
64
112
58
86
9
91
131
28
17
135
100
42
38
43
52
110

> <PUBCHEM_MMFF94_PARTIAL_CHARGES>
28
1 -0.02
10 0.27
12 0.18
13 0.27
14 0.06
19 0.18
2 -0.57
21 0.11
22 -0.04
23 -0.15
24 0.57
25 0.44
26 -0.14
27 -0.15
28 0.16
29 -0.15
3 -0.9
30 0.16
4 -0.41
48 0.36
5 -0.73
57 0.15
58 0.37
6 -0.62
61 0.15
62 0.15
63 0.15
64 0.15

> <PUBCHEM_EFFECTIVE_ROTOR_COUNT>
11.4

> <PUBCHEM_PHARMACOPHORE_FEATURES>
10
1 2 acceptor
1 3 cation
1 3 donor
1 4 acceptor
1 5 donor
1 6 acceptor
5 1 4 21 22 23 rings
6 11 15 16 17 18 20 rings
6 3 7 8 9 10 13 rings
6 6 26 27 28 29 30 rings

> <PUBCHEM_HEAVY_ATOM_COUNT>
30

> <PUBCHEM_ATOM_DEF_STEREO_COUNT>
2

> <PUBCHEM_ATOM_UDEF_STEREO_COUNT>
0

> <PUBCHEM_BOND_DEF_STEREO_COUNT>
0

> <PUBCHEM_BOND_UDEF_STEREO_COUNT>
0

> <PUBCHEM_ISOTOPIC_ATOM_COUNT>
0

> <PUBCHEM_COMPONENT_COUNT>
1

> <PUBCHEM_CACTVS_TAUTO_COUNT>
2

> <PUBCHEM_CONFORMER_ID>
019811DC00000001

> <PUBCHEM_MMFF94_ENERGY>
37.8412

> <PUBCHEM_FEATURE_SELFOVERLAP>
50.747

> <PUBCHEM_SHAPE_FINGERPRINT>
10688039 33 18191872429420892850
108634 29 18131070386125116838
10940486 97 15386954791975575880
11421498 54 17968380164458251058
11513181 2 17056697102642240983
12422481 6 17697858617293923968
13402501 40 18343867727681875603
14790565 3 16688225605263171792
150020 26 17476649049612205859
16067689 391 16984362105758032438
16067689 68 17533467138201699434
19319366 153 16977049172042975904
20739085 24 16969404800117844152
20764821 26 18125989487016553571
22182313 1 17988353858507552296
25223398 141 18334576837094331388
3052486 1 18407757041088631490
35225 105 18194087821149997319
4058900 60 17834681495813904237
4409770 3 18341901766173269910
469060 322 18117023089919469339
508706 21 18411130355584467679
86090 222 18196906969396619077

> <PUBCHEM_SHAPE_MULTIPOLES>
585.72
9.31
6.13
2.35
7.36
2.37
0.14
0.14
2.67
-8.92
-0.03
0.05
-1.51
4.09

> <PUBCHEM_SHAPE_SELFOVERLAP>
1225.029

> <PUBCHEM_SHAPE_VOLUME>
326.2

> <PUBCHEM_COORDINATE_TYPE>
2
5
10

$$$$
