11882062
  -OEChem-12032416363D

 57 58  0     1  0  0  0  0  0999 V2000
   -0.9568    5.1397   -0.1819 S   0  0  0  0  0  0  0  0  0  0  0  0
   -5.1875   -2.3076   -1.1141 S   0  0  0  0  0  0  0  0  0  0  0  0
   -1.1372    1.2089    1.7313 O   0  0  0  0  0  0  0  0  0  0  0  0
   -0.7043    2.1702   -1.7000 O   0  0  0  0  0  0  0  0  0  0  0  0
    2.9596   -2.0753    0.5586 O   0  0  0  0  0  0  0  0  0  0  0  0
   -0.7617   -2.6071    2.8029 O   0  0  0  0  0  0  0  0  0  0  0  0
    0.7336    2.2045    0.1137 N   0  0  0  0  0  0  0  0  0  0  0  0
    3.1362    0.2398    0.5357 N   0  0  0  0  0  0  0  0  0  0  0  0
   -0.9717   -0.8652    0.6873 N   0  0  0  0  0  0  0  0  0  0  0  0
    4.7486   -1.0369   -0.4925 N   0  0  0  0  0  0  0  0  0  0  0  0
   -2.8446   -1.9223    3.4880 N   0  0  0  0  0  0  0  0  0  0  0  0
    1.9317    0.5228    1.2795 C   0  0  2  0  0  0  0  0  0  0  0  0
    0.7507    0.7627    0.3390 C   0  0  1  0  0  0  0  0  0  0  0  0
    2.0488    1.8418    2.0482 C   0  0  0  0  0  0  0  0  0  0  0  0
    1.6393    2.8955    1.0274 C   0  0  0  0  0  0  0  0  0  0  0  0
   -0.5530    0.4179    0.9954 C   0  0  0  0  0  0  0  0  0  0  0  0
    0.0540    2.7837   -0.9472 C   0  0  0  0  0  0  0  0  0  0  0  0
   -2.1859   -1.4476    1.2112 C   0  0  1  0  0  0  0  0  0  0  0  0
    3.5591   -1.0519    0.2314 C   0  0  0  0  0  0  0  0  0  0  0  0
    0.2867    4.2613   -1.1394 C   0  0  0  0  0  0  0  0  0  0  0  0
   -2.7780   -2.5038    0.2701 C   0  0  0  0  0  0  0  0  0  0  0  0
   -1.8388   -2.0700    2.5560 C   0  0  0  0  0  0  0  0  0  0  0  0
   -3.5449   -1.8865   -0.8755 C   0  0  0  0  0  0  0  0  0  0  0  0
    5.4087   -2.2415   -0.9380 C   0  0  0  0  0  0  0  0  0  0  0  0
   -3.1011   -0.9829   -1.8159 C   0  0  0  0  0  0  0  0  0  0  0  0
   -0.4659    6.8366   -0.5762 C   0  0  0  0  0  0  0  0  0  0  0  0
   -4.1231   -0.6316   -2.7444 C   0  0  0  0  0  0  0  0  0  0  0  0
    4.8983   -2.6046   -2.2928 C   0  0  0  0  0  0  0  0  0  0  0  0
   -5.3090   -1.2800   -2.4784 C   0  0  0  0  0  0  0  0  0  0  0  0
    4.3079   -3.7704   -2.5794 C   0  0  0  0  0  0  0  0  0  0  0  0
    1.7519   -0.3110    1.9678 H   0  0  0  0  0  0  0  0  0  0  0  0
    0.8415    0.2462   -0.6240 H   0  0  0  0  0  0  0  0  0  0  0  0
    1.3352    1.8463    2.8811 H   0  0  0  0  0  0  0  0  0  0  0  0
    3.0458    2.0284    2.4590 H   0  0  0  0  0  0  0  0  0  0  0  0
    2.5084    3.2373    0.4549 H   0  0  0  0  0  0  0  0  0  0  0  0
    1.1543    3.7561    1.4939 H   0  0  0  0  0  0  0  0  0  0  0  0
    3.6697    1.0188    0.1613 H   0  0  0  0  0  0  0  0  0  0  0  0
   -0.3636   -1.4592    0.1306 H   0  0  0  0  0  0  0  0  0  0  0  0
   -2.9067   -0.6361    1.3762 H   0  0  0  0  0  0  0  0  0  0  0  0
    0.1603    4.4883   -2.2034 H   0  0  0  0  0  0  0  0  0  0  0  0
    1.2961    4.5662   -0.8583 H   0  0  0  0  0  0  0  0  0  0  0  0
   -1.9843   -3.1407   -0.1429 H   0  0  0  0  0  0  0  0  0  0  0  0
   -3.4364   -3.1728    0.8398 H   0  0  0  0  0  0  0  0  0  0  0  0
    5.1620   -0.1414   -0.7339 H   0  0  0  0  0  0  0  0  0  0  0  0
    5.2445   -3.0396   -0.2064 H   0  0  0  0  0  0  0  0  0  0  0  0
    6.4817   -2.0321   -0.9874 H   0  0  0  0  0  0  0  0  0  0  0  0
   -2.0928   -0.5917   -1.8525 H   0  0  0  0  0  0  0  0  0  0  0  0
   -2.7355   -2.2790    4.4316 H   0  0  0  0  0  0  0  0  0  0  0  0
   -3.7286   -1.4730    3.2717 H   0  0  0  0  0  0  0  0  0  0  0  0
    0.5558    7.0252   -0.2365 H   0  0  0  0  0  0  0  0  0  0  0  0
   -0.5351    7.0120   -1.6528 H   0  0  0  0  0  0  0  0  0  0  0  0
   -1.1364    7.5331   -0.0661 H   0  0  0  0  0  0  0  0  0  0  0  0
   -3.9944    0.0602   -3.5666 H   0  0  0  0  0  0  0  0  0  0  0  0
    5.0309   -1.8803   -3.0927 H   0  0  0  0  0  0  0  0  0  0  0  0
   -6.2407   -1.1998   -3.0203 H   0  0  0  0  0  0  0  0  0  0  0  0
    3.9641   -3.9790   -3.5866 H   0  0  0  0  0  0  0  0  0  0  0  0
    4.1566   -4.5311   -1.8215 H   0  0  0  0  0  0  0  0  0  0  0  0
  1 20  1  0  0  0  0
  1 26  1  0  0  0  0
  2 23  1  0  0  0  0
  2 29  1  0  0  0  0
  3 16  2  0  0  0  0
  4 17  2  0  0  0  0
  5 19  2  0  0  0  0
  6 22  2  0  0  0  0
  7 13  1  0  0  0  0
  7 15  1  0  0  0  0
  7 17  1  0  0  0  0
  8 12  1  0  0  0  0
  8 19  1  0  0  0  0
  8 37  1  0  0  0  0
  9 16  1  0  0  0  0
  9 18  1  0  0  0  0
  9 38  1  0  0  0  0
 10 19  1  0  0  0  0
 10 24  1  0  0  0  0
 10 44  1  0  0  0  0
 11 22  1  0  0  0  0
 11 48  1  0  0  0  0
 11 49  1  0  0  0  0
 12 13  1  0  0  0  0
 12 14  1  0  0  0  0
 12 31  1  0  0  0  0
 13 16  1  0  0  0  0
 13 32  1  0  0  0  0
 14 15  1  0  0  0  0
 14 33  1  0  0  0  0
 14 34  1  0  0  0  0
 15 35  1  0  0  0  0
 15 36  1  0  0  0  0
 17 20  1  0  0  0  0
 18 21  1  0  0  0  0
 18 22  1  0  0  0  0
 18 39  1  0  0  0  0
 20 40  1  0  0  0  0
 20 41  1  0  0  0  0
 21 23  1  0  0  0  0
 21 42  1  0  0  0  0
 21 43  1  0  0  0  0
 23 25  2  0  0  0  0
 24 28  1  0  0  0  0
 24 45  1  0  0  0  0
 24 46  1  0  0  0  0
 25 27  1  0  0  0  0
 25 47  1  0  0  0  0
 26 50  1  0  0  0  0
 26 51  1  0  0  0  0
 26 52  1  0  0  0  0
 27 29  2  0  0  0  0
 27 53  1  0  0  0  0
 28 30  2  0  0  0  0
 28 54  1  0  0  0  0
 29 55  1  0  0  0  0
 30 56  1  0  0  0  0
 30 57  1  0  0  0  0
M  END
> <PUBCHEM_COMPOUND_CID>
11882062

> <PUBCHEM_CONFORMER_RMSD>
1.2

> <PUBCHEM_CONFORMER_DIVERSEORDER>
1
27
21
15
20
2
10
5
7
23
3
22
6
13
16
19
25
18
24
8
26
4
17
11
28
14
9
12

> <PUBCHEM_MMFF94_PARTIAL_CHARGES>
40
1 -0.46
10 -0.73
11 -0.8
12 0.3
13 0.36
15 0.3
16 0.57
17 0.57
18 0.36
19 0.69
2 -0.08
20 0.29
21 0.18
22 0.57
23 -0.14
24 0.44
25 -0.15
26 0.23
27 -0.15
28 -0.29
29 -0.11
3 -0.57
30 -0.3
37 0.37
38 0.37
4 -0.57
44 0.37
47 0.15
48 0.37
49 0.37
5 -0.57
53 0.15
54 0.15
55 0.15
56 0.15
57 0.15
6 -0.57
7 -0.66
8 -0.73
9 -0.73

> <PUBCHEM_EFFECTIVE_ROTOR_COUNT>
15

> <PUBCHEM_PHARMACOPHORE_FEATURES>
12
1 10 donor
1 11 donor
1 26 hydrophobe
1 3 acceptor
1 30 hydrophobe
1 4 acceptor
1 5 acceptor
1 6 acceptor
1 8 donor
1 9 donor
5 2 23 25 27 29 rings
5 7 12 13 14 15 rings

> <PUBCHEM_HEAVY_ATOM_COUNT>
30

> <PUBCHEM_ATOM_DEF_STEREO_COUNT>
3

> <PUBCHEM_ATOM_UDEF_STEREO_COUNT>
0

> <PUBCHEM_BOND_DEF_STEREO_COUNT>
0

> <PUBCHEM_BOND_UDEF_STEREO_COUNT>
0

> <PUBCHEM_ISOTOPIC_ATOM_COUNT>
0

> <PUBCHEM_COMPONENT_COUNT>
1

> <PUBCHEM_CACTVS_TAUTO_COUNT>
12

> <PUBCHEM_CONFORMER_ID>
00B54E4E00000001

> <PUBCHEM_MMFF94_ENERGY>
54.8138

> <PUBCHEM_FEATURE_SELFOVERLAP>
60.948

> <PUBCHEM_SHAPE_FINGERPRINT>
107951 10 17397849890064126212
11991303 11 17835539119310074988
12788726 201 18042952203885691586
12977781 61 17412151311280858994
133893 2 17983877831979637799
14114206 34 18189917334939019426
14114211 68 17097196252717039095
15361156 5 18267324044825012262
15806764 133 17750801141353041163
23559900 14 17975114750366146025
23845131 108 8646765608061889365
437795 70 18340196380989058165
46194498 28 17900531586814879991
484985 159 17129025958620450694
5081480 168 18114753727884069663
59025328 239 18058429032505645687

> <PUBCHEM_SHAPE_MULTIPOLES>
576.7
9.6
7.37
3.1
0.68
15.17
1.1
-15.17
-7.54
3.11
-3.54
-1.91
-2.74
3.2

> <PUBCHEM_SHAPE_SELFOVERLAP>
1153.727

> <PUBCHEM_SHAPE_VOLUME>
341.2

> <PUBCHEM_COORDINATE_TYPE>
2
5
10

$$$$
