45361456
  -OEChem-12032416313D

 75 78  0     1  0  0  0  0  0999 V2000
   -0.7191   -1.5525    1.8299 O   0  0  0  0  0  0  0  0  0  0  0  0
   -5.4073   -1.6128   -0.6228 O   0  0  0  0  0  0  0  0  0  0  0  0
    5.0360    1.7127   -0.1216 O   0  0  0  0  0  0  0  0  0  0  0  0
   -6.0590    1.4306   -0.3971 O   0  0  0  0  0  0  0  0  0  0  0  0
    4.0545   -0.3733   -0.4428 N   0  0  0  0  0  0  0  0  0  0  0  0
   -5.2104   -0.6586    1.4821 N   0  0  0  0  0  0  0  0  0  0  0  0
   -0.0622   -0.2485   -1.6977 C   0  0  1  0  0  0  0  0  0  0  0  0
    0.2103   -0.5410   -0.1847 C   0  0  2  0  0  0  0  0  0  0  0  0
    1.6967   -0.9983    0.0374 C   0  0  1  0  0  0  0  0  0  0  0  0
   -0.8750   -1.4829    0.4118 C   0  0  2  0  0  0  0  0  0  0  0  0
   -1.4965    0.3063   -1.8658 C   0  0  0  0  0  0  0  0  0  0  0  0
    0.9230    0.8383   -2.1865 C   0  0  0  0  0  0  0  0  0  0  0  0
   -2.3121   -0.9753    0.1496 C   0  0  1  0  0  0  0  0  0  0  0  0
    2.6779    0.0679   -0.5257 C   0  0  2  0  0  0  0  0  0  0  0  0
   -2.5644   -0.6313   -1.3183 C   0  0  0  0  0  0  0  0  0  0  0  0
    2.3821    0.4619   -1.9726 C   0  0  0  0  0  0  0  0  0  0  0  0
    0.0901   -1.5109   -2.5836 C   0  0  0  0  0  0  0  0  0  0  0  0
   -3.3668   -1.9803    0.6289 C   0  0  2  0  0  0  0  0  0  0  0  0
    2.0422   -1.2757    1.5103 C   0  0  0  0  0  0  0  0  0  0  0  0
   -3.1869   -3.3129   -0.0898 C   0  0  0  0  0  0  0  0  0  0  0  0
   -4.7651   -1.4125    0.4060 C   0  0  0  0  0  0  0  0  0  0  0  0
    5.1142    0.4934   -0.2473 C   0  0  0  0  0  0  0  0  0  0  0  0
    6.4290   -0.2276   -0.1752 C   0  0  0  0  0  0  0  0  0  0  0  0
    7.5634    0.6417   -0.7217 C   0  0  0  0  0  0  0  0  0  0  0  0
    6.6880   -0.7090    1.2539 C   0  0  0  0  0  0  0  0  0  0  0  0
    8.0058    1.7412    0.2433 C   0  0  0  0  0  0  0  0  0  0  0  0
    7.1233    0.4138    2.1940 C   0  0  0  0  0  0  0  0  0  0  0  0
    8.3083    1.1907    1.6320 C   0  0  0  0  0  0  0  0  0  0  0  0
   -6.5043   -0.0168    1.5043 C   0  0  0  0  0  0  0  0  0  0  0  0
   -6.4608    1.3564    0.8990 C   0  0  0  0  0  0  0  0  0  0  0  0
   -6.7506    2.6093    1.3876 C   0  0  0  0  0  0  0  0  0  0  0  0
   -6.5117    3.5111    0.3232 C   0  0  0  0  0  0  0  0  0  0  0  0
   -6.0927    2.7450   -0.7398 C   0  0  0  0  0  0  0  0  0  0  0  0
    0.1144    0.4135    0.3576 H   0  0  0  0  0  0  0  0  0  0  0  0
    1.8607   -1.9423   -0.4975 H   0  0  0  0  0  0  0  0  0  0  0  0
   -0.7035   -2.4856    0.0160 H   0  0  0  0  0  0  0  0  0  0  0  0
   -1.7045    0.5082   -2.9245 H   0  0  0  0  0  0  0  0  0  0  0  0
   -1.5817    1.2717   -1.3485 H   0  0  0  0  0  0  0  0  0  0  0  0
    0.7600    1.0480   -3.2514 H   0  0  0  0  0  0  0  0  0  0  0  0
    0.7270    1.7795   -1.6554 H   0  0  0  0  0  0  0  0  0  0  0  0
   -2.4523   -0.0514    0.7304 H   0  0  0  0  0  0  0  0  0  0  0  0
    2.5847    0.9728    0.0908 H   0  0  0  0  0  0  0  0  0  0  0  0
   -2.6111   -1.5113   -1.9626 H   0  0  0  0  0  0  0  0  0  0  0  0
   -3.5240   -0.1149   -1.4344 H   0  0  0  0  0  0  0  0  0  0  0  0
    3.0125    1.3129   -2.2617 H   0  0  0  0  0  0  0  0  0  0  0  0
    2.6648   -0.3518   -2.6515 H   0  0  0  0  0  0  0  0  0  0  0  0
    1.1054   -1.9155   -2.5752 H   0  0  0  0  0  0  0  0  0  0  0  0
   -0.1520   -1.2799   -3.6277 H   0  0  0  0  0  0  0  0  0  0  0  0
   -0.5699   -2.3245   -2.2700 H   0  0  0  0  0  0  0  0  0  0  0  0
   -3.2440   -2.1651    1.7039 H   0  0  0  0  0  0  0  0  0  0  0  0
    1.7521   -0.4370    2.1514 H   0  0  0  0  0  0  0  0  0  0  0  0
    3.1137   -1.4471    1.6541 H   0  0  0  0  0  0  0  0  0  0  0  0
    1.5518   -2.1861    1.8661 H   0  0  0  0  0  0  0  0  0  0  0  0
    4.2404   -1.3617   -0.5862 H   0  0  0  0  0  0  0  0  0  0  0  0
   -0.8187   -0.6544    2.1892 H   0  0  0  0  0  0  0  0  0  0  0  0
   -3.2600   -3.2558   -1.1778 H   0  0  0  0  0  0  0  0  0  0  0  0
   -3.9905   -3.9942    0.2192 H   0  0  0  0  0  0  0  0  0  0  0  0
   -2.2555   -3.8178    0.1776 H   0  0  0  0  0  0  0  0  0  0  0  0
    6.3611   -1.1103   -0.8259 H   0  0  0  0  0  0  0  0  0  0  0  0
    7.2770    1.0937   -1.6792 H   0  0  0  0  0  0  0  0  0  0  0  0
    8.4275   -0.0035   -0.9277 H   0  0  0  0  0  0  0  0  0  0  0  0
    7.4812   -1.4676    1.2288 H   0  0  0  0  0  0  0  0  0  0  0  0
    5.8000   -1.2008    1.6685 H   0  0  0  0  0  0  0  0  0  0  0  0
   -4.6002   -0.5209    2.2824 H   0  0  0  0  0  0  0  0  0  0  0  0
    8.9060    2.2243   -0.1554 H   0  0  0  0  0  0  0  0  0  0  0  0
    7.2498    2.5293    0.3169 H   0  0  0  0  0  0  0  0  0  0  0  0
    6.2845    1.0980    2.3692 H   0  0  0  0  0  0  0  0  0  0  0  0
    7.3925   -0.0102    3.1682 H   0  0  0  0  0  0  0  0  0  0  0  0
    9.1861    0.5345    1.5827 H   0  0  0  0  0  0  0  0  0  0  0  0
    8.5639    2.0146    2.3077 H   0  0  0  0  0  0  0  0  0  0  0  0
   -7.2270   -0.6336    0.9592 H   0  0  0  0  0  0  0  0  0  0  0  0
   -6.8219    0.0411    2.5504 H   0  0  0  0  0  0  0  0  0  0  0  0
   -7.0915    2.8455    2.3854 H   0  0  0  0  0  0  0  0  0  0  0  0
   -6.6297    4.5849    0.3299 H   0  0  0  0  0  0  0  0  0  0  0  0
   -5.7960    2.9712   -1.7535 H   0  0  0  0  0  0  0  0  0  0  0  0
  1 10  1  0  0  0  0
  1 55  1  0  0  0  0
  2 21  2  0  0  0  0
  3 22  2  0  0  0  0
  4 30  1  0  0  0  0
  4 33  1  0  0  0  0
  5 14  1  0  0  0  0
  5 22  1  0  0  0  0
  5 54  1  0  0  0  0
  6 21  1  0  0  0  0
  6 29  1  0  0  0  0
  6 64  1  0  0  0  0
  7  8  1  0  0  0  0
  7 11  1  0  0  0  0
  7 12  1  0  0  0  0
  7 17  1  0  0  0  0
  8  9  1  0  0  0  0
  8 10  1  0  0  0  0
  8 34  1  0  0  0  0
  9 14  1  0  0  0  0
  9 19  1  0  0  0  0
  9 35  1  0  0  0  0
 10 13  1  0  0  0  0
 10 36  1  0  0  0  0
 11 15  1  0  0  0  0
 11 37  1  0  0  0  0
 11 38  1  0  0  0  0
 12 16  1  0  0  0  0
 12 39  1  0  0  0  0
 12 40  1  0  0  0  0
 13 15  1  0  0  0  0
 13 18  1  0  0  0  0
 13 41  1  0  0  0  0
 14 16  1  0  0  0  0
 14 42  1  0  0  0  0
 15 43  1  0  0  0  0
 15 44  1  0  0  0  0
 16 45  1  0  0  0  0
 16 46  1  0  0  0  0
 17 47  1  0  0  0  0
 17 48  1  0  0  0  0
 17 49  1  0  0  0  0
 18 20  1  0  0  0  0
 18 21  1  0  0  0  0
 18 50  1  0  0  0  0
 19 51  1  0  0  0  0
 19 52  1  0  0  0  0
 19 53  1  0  0  0  0
 20 56  1  0  0  0  0
 20 57  1  0  0  0  0
 20 58  1  0  0  0  0
 22 23  1  0  0  0  0
 23 24  1  0  0  0  0
 23 25  1  0  0  0  0
 23 59  1  0  0  0  0
 24 26  1  0  0  0  0
 24 60  1  0  0  0  0
 24 61  1  0  0  0  0
 25 27  1  0  0  0  0
 25 62  1  0  0  0  0
 25 63  1  0  0  0  0
 26 28  1  0  0  0  0
 26 65  1  0  0  0  0
 26 66  1  0  0  0  0
 27 28  1  0  0  0  0
 27 67  1  0  0  0  0
 27 68  1  0  0  0  0
 28 69  1  0  0  0  0
 28 70  1  0  0  0  0
 29 30  1  0  0  0  0
 29 71  1  0  0  0  0
 29 72  1  0  0  0  0
 30 31  2  0  0  0  0
 31 32  1  0  0  0  0
 31 73  1  0  0  0  0
 32 33  2  0  0  0  0
 32 74  1  0  0  0  0
 33 75  1  0  0  0  0
M  END
> <PUBCHEM_COMPOUND_CID>
45361456

> <PUBCHEM_CONFORMER_RMSD>
1.2

> <PUBCHEM_CONFORMER_DIVERSEORDER>
1
42
105
14
92
88
39
81
18
79
15
80
27
91
66
56
93
46
53
19
98
6
22
102
90
64
73
84
87
112
60
47
63
119
83
23
28
55
89
41
75
40
95
97
108
48
57
94
82
3
51
21
101
61
7
33
29
86
44
100
59
120
49
11
9
71
34
35
4
103
20
123
37
115
26
67
110
62
30
10
38
113
114
50
96
16
118
65
76
2
106
12
5
116
107
125
72
74
32
36
43
70
85
17
124
99
68
77
13
58
8
31
121
104
25
117
45
78
54
109
111
69
24
52
122

> <PUBCHEM_MMFF94_PARTIAL_CHARGES>
23
1 -0.68
10 0.28
14 0.3
18 0.06
2 -0.57
21 0.57
22 0.57
23 0.06
29 0.48
3 -0.57
30 -0.04
31 -0.15
32 -0.15
33 -0.01
4 -0.28
5 -0.73
54 0.37
55 0.4
6 -0.73
64 0.37
73 0.15
74 0.15
75 0.15

> <PUBCHEM_EFFECTIVE_ROTOR_COUNT>
10.8

> <PUBCHEM_PHARMACOPHORE_FEATURES>
12
1 1 acceptor
1 1 donor
1 2 acceptor
1 20 hydrophobe
1 3 acceptor
1 4 acceptor
1 5 donor
1 6 donor
5 4 30 31 32 33 rings
6 23 24 25 26 27 28 rings
6 7 8 10 11 13 15 rings
6 7 8 9 12 14 16 rings

> <PUBCHEM_HEAVY_ATOM_COUNT>
33

> <PUBCHEM_ATOM_DEF_STEREO_COUNT>
6

> <PUBCHEM_ATOM_UDEF_STEREO_COUNT>
1

> <PUBCHEM_BOND_DEF_STEREO_COUNT>
0

> <PUBCHEM_BOND_UDEF_STEREO_COUNT>
0

> <PUBCHEM_ISOTOPIC_ATOM_COUNT>
0

> <PUBCHEM_COMPONENT_COUNT>
1

> <PUBCHEM_CACTVS_TAUTO_COUNT>
4

> <PUBCHEM_CONFORMER_ID>
02B4293000000001

> <PUBCHEM_MMFF94_ENERGY>
70.7466

> <PUBCHEM_FEATURE_SELFOVERLAP>
60.912

> <PUBCHEM_SHAPE_FINGERPRINT>
10554248 39 15625951898120425172
10625338 86 18131070432921819185
10906281 52 17458926906294411550
11456790 92 18113616807550646992
11578821 258 17845936333565826760
11720765 8 16977604413305463815
12422481 6 17313951789015121751
13668630 136 12251894894143541136
13673619 4 11819283269292194735
13782708 43 11602826821488700189
14344974 204 12180431061907569145
14767858 380 13470688131089488547
14849402 71 17605006973115098804
15021287 119 16732710454348237469
16994733 274 18272365378293963794
19246450 95 17386279892667394189
19841028 212 11675692514510503984
2026 5 11097858497421133049
20982279 24 14274013252953041440
21033648 29 18202272633294667436
21130935 74 18333730226284997706
21756936 100 18411417302897834463
21814621 53 18272940422912876026
21867018 265 9799399053639354744
22149856 69 17967249772695695464
22288116 15 11887949965127926517
23522609 53 17314536848674382060
23559900 14 16589145129333695294
23569914 2 17556253463608992937
23569943 247 16153972621373116875
23576562 1 15697420247819234929
24771293 8 18113900515967886420
2747138 104 13984376682801199268
2838139 119 18201717375353737085
3103668 31 13972528413851374781
3178227 256 15864076481226834194
4093350 32 18342456998698402530
4339292 15 11674882246964029937
437795 83 16056606408958691761
44802255 64 17346878962099672695
4938544 92 18272088327144513343
504843 32 17275100661111147591
5104073 3 17168693129856959168
58083652 198 16733263555519532573
999808 66 14201398287443330289

> <PUBCHEM_SHAPE_MULTIPOLES>
645.69
24.21
2.79
2.09
20.84
0.98
-0.45
18.45
11.76
-6.55
0.37
0.85
-0.12
0.05

> <PUBCHEM_SHAPE_SELFOVERLAP>
1347.755

> <PUBCHEM_SHAPE_VOLUME>
361.6

> <PUBCHEM_COORDINATE_TYPE>
2
5
10

$$$$
