45360651
  -OEChem-12032416293D

 60 63  0     1  0  0  0  0  0999 V2000
   -4.8712   -3.8278    0.1848 F   0  0  0  0  0  0  0  0  0  0  0  0
   -0.1578   -2.2061    2.7020 O   0  0  0  0  0  0  0  0  0  0  0  0
   -4.0144    2.9672   -0.3322 O   0  0  0  0  0  0  0  0  0  0  0  0
   -0.3235    0.8564    0.7228 N   0  0  1  0  0  0  0  0  0  0  0  0
   -0.8900   -0.1338    3.2865 N   0  0  0  0  0  0  0  0  0  0  0  0
    3.2067    0.3299    0.0936 N   0  0  0  0  0  0  0  0  0  0  0  0
   -2.6513    1.7539   -1.7670 N   0  0  0  0  0  0  0  0  0  0  0  0
   -0.2569   -0.5967    0.9237 C   0  0  1  0  0  0  0  0  0  0  0  0
    1.7619    0.3167   -0.0695 C   0  0  1  0  0  0  0  0  0  0  0  0
   -1.3283    1.5300    1.5378 C   0  0  1  0  0  0  0  0  0  0  0  0
    1.1202   -0.9988    0.3726 C   0  0  0  0  0  0  0  0  0  0  0  0
    1.0462    1.3622    0.7747 C   0  0  0  0  0  0  0  0  0  0  0  0
   -1.0869    1.2718    3.0168 C   0  0  0  0  0  0  0  0  0  0  0  0
   -0.4064   -1.0417    2.3757 C   0  0  0  0  0  0  0  0  0  0  0  0
   -1.4183    3.0291    1.2498 C   0  0  0  0  0  0  0  0  0  0  0  0
   -1.6172    3.2934   -0.2363 C   0  0  0  0  0  0  0  0  0  0  0  0
    3.8630   -0.3811   -0.9963 C   0  0  0  0  0  0  0  0  0  0  0  0
   -2.9010    2.6753   -0.7604 C   0  0  0  0  0  0  0  0  0  0  0  0
    5.3602   -0.3909   -0.8383 C   0  0  0  0  0  0  0  0  0  0  0  0
    6.1265    0.6342   -1.3927 C   0  0  0  0  0  0  0  0  0  0  0  0
    5.9809   -1.4249   -0.1374 C   0  0  0  0  0  0  0  0  0  0  0  0
   -3.7100    1.0280   -2.4276 C   0  0  0  0  0  0  0  0  0  0  0  0
    7.5137    0.6254   -1.2464 C   0  0  0  0  0  0  0  0  0  0  0  0
    7.3681   -1.4337    0.0090 C   0  0  0  0  0  0  0  0  0  0  0  0
    8.1345   -0.4085   -0.5457 C   0  0  0  0  0  0  0  0  0  0  0  0
   -4.0203   -0.2695   -1.7296 C   0  0  0  0  0  0  0  0  0  0  0  0
   -3.3477   -1.4358   -2.0942 C   0  0  0  0  0  0  0  0  0  0  0  0
   -4.9807   -0.3053   -0.7187 C   0  0  0  0  0  0  0  0  0  0  0  0
   -3.6355   -2.6380   -1.4479 C   0  0  0  0  0  0  0  0  0  0  0  0
   -5.2686   -1.5073   -0.0725 C   0  0  0  0  0  0  0  0  0  0  0  0
   -4.5960   -2.6737   -0.4370 C   0  0  0  0  0  0  0  0  0  0  0  0
   -1.0573   -1.0825    0.3537 H   0  0  0  0  0  0  0  0  0  0  0  0
    1.4991    0.5102   -1.1207 H   0  0  0  0  0  0  0  0  0  0  0  0
   -2.2996    1.0812    1.2866 H   0  0  0  0  0  0  0  0  0  0  0  0
    1.7342   -1.4996    1.1312 H   0  0  0  0  0  0  0  0  0  0  0  0
    1.0244   -1.6808   -0.4801 H   0  0  0  0  0  0  0  0  0  0  0  0
    1.1594    2.3589    0.3380 H   0  0  0  0  0  0  0  0  0  0  0  0
    1.4422    1.3816    1.7974 H   0  0  0  0  0  0  0  0  0  0  0  0
   -0.2026    1.7992    3.3909 H   0  0  0  0  0  0  0  0  0  0  0  0
   -1.9442    1.5996    3.6149 H   0  0  0  0  0  0  0  0  0  0  0  0
   -0.5187    3.5537    1.5942 H   0  0  0  0  0  0  0  0  0  0  0  0
   -2.2594    3.4524    1.8138 H   0  0  0  0  0  0  0  0  0  0  0  0
   -1.0052   -0.4480    4.2451 H   0  0  0  0  0  0  0  0  0  0  0  0
    3.5329    1.2967    0.1001 H   0  0  0  0  0  0  0  0  0  0  0  0
   -0.7523    2.9793   -0.8281 H   0  0  0  0  0  0  0  0  0  0  0  0
   -1.7060    4.3754   -0.3961 H   0  0  0  0  0  0  0  0  0  0  0  0
    3.5117   -1.4196   -1.0493 H   0  0  0  0  0  0  0  0  0  0  0  0
    3.6127    0.0753   -1.9632 H   0  0  0  0  0  0  0  0  0  0  0  0
   -1.6956    1.5492   -2.0431 H   0  0  0  0  0  0  0  0  0  0  0  0
    5.6547    1.4463   -1.9395 H   0  0  0  0  0  0  0  0  0  0  0  0
    5.3949   -2.2284    0.3008 H   0  0  0  0  0  0  0  0  0  0  0  0
   -4.6081    1.6545   -2.4833 H   0  0  0  0  0  0  0  0  0  0  0  0
   -3.3882    0.8406   -3.4582 H   0  0  0  0  0  0  0  0  0  0  0  0
    8.1104    1.4238   -1.6777 H   0  0  0  0  0  0  0  0  0  0  0  0
    7.8515   -2.2384    0.5551 H   0  0  0  0  0  0  0  0  0  0  0  0
    9.2145   -0.4153   -0.4315 H   0  0  0  0  0  0  0  0  0  0  0  0
   -2.5952   -1.4202   -2.8782 H   0  0  0  0  0  0  0  0  0  0  0  0
   -5.5149    0.5943   -0.4261 H   0  0  0  0  0  0  0  0  0  0  0  0
   -3.1110   -3.5459   -1.7304 H   0  0  0  0  0  0  0  0  0  0  0  0
   -6.0163   -1.5356    0.7146 H   0  0  0  0  0  0  0  0  0  0  0  0
  1 31  1  0  0  0  0
  2 14  2  0  0  0  0
  3 18  2  0  0  0  0
  4  8  1  0  0  0  0
  4 10  1  0  0  0  0
  4 12  1  0  0  0  0
  5 13  1  0  0  0  0
  5 14  1  0  0  0  0
  5 43  1  0  0  0  0
  6  9  1  0  0  0  0
  6 17  1  0  0  0  0
  6 44  1  0  0  0  0
  7 18  1  0  0  0  0
  7 22  1  0  0  0  0
  7 49  1  0  0  0  0
  8 11  1  0  0  0  0
  8 14  1  0  0  0  0
  8 32  1  0  0  0  0
  9 11  1  0  0  0  0
  9 12  1  0  0  0  0
  9 33  1  0  0  0  0
 10 13  1  0  0  0  0
 10 15  1  0  0  0  0
 10 34  1  0  0  0  0
 11 35  1  0  0  0  0
 11 36  1  0  0  0  0
 12 37  1  0  0  0  0
 12 38  1  0  0  0  0
 13 39  1  0  0  0  0
 13 40  1  0  0  0  0
 15 16  1  0  0  0  0
 15 41  1  0  0  0  0
 15 42  1  0  0  0  0
 16 18  1  0  0  0  0
 16 45  1  0  0  0  0
 16 46  1  0  0  0  0
 17 19  1  0  0  0  0
 17 47  1  0  0  0  0
 17 48  1  0  0  0  0
 19 20  2  0  0  0  0
 19 21  1  0  0  0  0
 20 23  1  0  0  0  0
 20 50  1  0  0  0  0
 21 24  2  0  0  0  0
 21 51  1  0  0  0  0
 22 26  1  0  0  0  0
 22 52  1  0  0  0  0
 22 53  1  0  0  0  0
 23 25  2  0  0  0  0
 23 54  1  0  0  0  0
 24 25  1  0  0  0  0
 24 55  1  0  0  0  0
 25 56  1  0  0  0  0
 26 27  2  0  0  0  0
 26 28  1  0  0  0  0
 27 29  1  0  0  0  0
 27 57  1  0  0  0  0
 28 30  2  0  0  0  0
 28 58  1  0  0  0  0
 29 31  2  0  0  0  0
 29 59  1  0  0  0  0
 30 31  1  0  0  0  0
 30 60  1  0  0  0  0
M  END
> <PUBCHEM_COMPOUND_CID>
45360651

> <PUBCHEM_CONFORMER_RMSD>
1

> <PUBCHEM_CONFORMER_DIVERSEORDER>
1
21
257
112
220
117
137
169
72
61
106
97
145
144
202
90
230
65
201
241
245
48
142
255
248
193
209
96
77
38
194
28
260
91
111
254
126
53
123
151
187
23
232
140
26
93
148
95
247
267
149
173
242
200
225
119
206
256
118
191
253
164
107
246
167
158
221
22
30
234
243
141
54
198
122
195
104
50
160
218
239
66
134
45
153
135
236
227
261
124
115
183
192
184
94
25
37
175
44
259
217
130
157
196
231
83
143
71
156
99
41
258
131
210
263
215
70
121
129
81
152
244
10
116
32
55
80
73
62
228
68
211
252
43
179
162
224
86
203
238
128
15
59
166
29
159
186
154
216
219
250
63
251
75
237
64
180
76
190
16
139
120
101
168
17
176
212
189
56
109
204
249
207
58
88
2
235
155
171
181
165
174
39
6
102
136
33
266
103
222
240
108
188
49
132
161
182
133
47
163
14
150
223
92
147
9
74
42
205
213
265
7
85
199
51
20
82
69
100
177
36
113
233
87
178
138
27
52
79
18
264
226
8
114
229
40
125
214
146
98
172
34
197
208
110
127
31
24
89
46
5
19
262
60
105
4
11
13
170
12
57
185
84
35
3
78
67

> <PUBCHEM_MMFF94_PARTIAL_CHARGES>
41
1 -0.19
10 0.27
12 0.27
13 0.3
14 0.57
16 0.06
17 0.41
18 0.57
19 -0.14
2 -0.57
20 -0.15
21 -0.15
22 0.44
23 -0.15
24 -0.15
25 -0.15
26 -0.14
27 -0.15
28 -0.15
29 -0.15
3 -0.57
30 -0.15
31 0.19
4 -0.81
43 0.37
44 0.36
49 0.37
5 -0.73
50 0.15
51 0.15
54 0.15
55 0.15
56 0.15
57 0.15
58 0.15
59 0.15
6 -0.9
60 0.15
7 -0.73
8 0.33
9 0.27

> <PUBCHEM_EFFECTIVE_ROTOR_COUNT>
10.2

> <PUBCHEM_PHARMACOPHORE_FEATURES>
11
1 2 acceptor
1 3 acceptor
1 4 cation
1 5 donor
1 6 cation
1 6 donor
1 7 donor
5 4 8 9 11 12 rings
6 19 20 21 23 24 25 rings
6 26 27 28 29 30 31 rings
6 4 5 8 10 13 14 rings

> <PUBCHEM_HEAVY_ATOM_COUNT>
31

> <PUBCHEM_ATOM_DEF_STEREO_COUNT>
3

> <PUBCHEM_ATOM_UDEF_STEREO_COUNT>
0

> <PUBCHEM_BOND_DEF_STEREO_COUNT>
0

> <PUBCHEM_BOND_UDEF_STEREO_COUNT>
0

> <PUBCHEM_ISOTOPIC_ATOM_COUNT>
0

> <PUBCHEM_COMPONENT_COUNT>
1

> <PUBCHEM_CACTVS_TAUTO_COUNT>
6

> <PUBCHEM_CONFORMER_ID>
02B4260B00000001

> <PUBCHEM_MMFF94_ENERGY>
63.9014

> <PUBCHEM_FEATURE_SELFOVERLAP>
56.01

> <PUBCHEM_SHAPE_FINGERPRINT>
105312 117 16009034934470449544
10554248 39 17240773840137316414
10577160 103 18264766739719533608
10577160 183 16153697718740626656
10674148 151 18131062715466649649
11488393 25 16986281006608355440
12128747 34 11314303923873756284
12422481 6 10087643723758413656
12988421 55 12468918624837468661
13773456 22 18187650275644536795
13941219 33 13901915487923696012
14114207 22 12184692842370261503
14251764 30 18198622318909654991
14932701 244 18409454673845766757
15183329 4 17167574999789073946
17492 54 14996547552200159479
17686467 74 17775278362738475280
17980427 26 15939493998168867641
20101258 96 14764341600961183138
2838139 119 16370443337337432444
3117164 225 9727341442606050246
4015057 19 18114752620152519284
484985 159 15482662451930371117
4938544 92 8646763391943069660
5080951 261 18060138695914497922
6287921 2 17476346679988630599
70634741 139 18201435900682461868
77296 10 18269553845753202622

> <PUBCHEM_SHAPE_MULTIPOLES>
599.03
17.22
3.45
2.6
40.06
0.46
1.75
-9.1
-9.87
-6.6
0.07
-2.12
0.23
-0.26

> <PUBCHEM_SHAPE_SELFOVERLAP>
1273.544

> <PUBCHEM_SHAPE_VOLUME>
334.2

> <PUBCHEM_COORDINATE_TYPE>
2
5
10

$$$$
