11912239
  -OEChem-12032416363D

 64 68  0     1  0  0  0  0  0999 V2000
    0.5595    1.8604    1.9082 O   0  0  0  0  0  0  0  0  0  0  0  0
   -0.5791    3.6271   -0.3980 O   0  0  0  0  0  0  0  0  0  0  0  0
   -4.4057    1.7326    0.4721 O   0  0  0  0  0  0  0  0  0  0  0  0
   -6.6323    0.3637   -0.9461 O   0  0  0  0  0  0  0  0  0  0  0  0
   -6.9733   -1.8075   -0.3543 O   0  0  0  0  0  0  0  0  0  0  0  0
   -2.4111    1.0633    1.4603 N   0  0  0  0  0  0  0  0  0  0  0  0
    1.7776    1.9719   -1.5317 N   0  0  0  0  0  0  0  0  0  0  0  0
    3.3282    0.4586   -0.6967 N   0  0  0  0  0  0  0  0  0  0  0  0
    2.8138    0.5521   -3.0491 N   0  0  0  0  0  0  0  0  0  0  0  0
   -3.9676   -1.4937    0.1775 C   0  0  0  0  0  0  0  0  0  0  0  0
   -0.8505    2.2854    0.0401 C   0  0  1  0  0  0  0  0  0  0  0  0
    0.4669    1.6809    0.4849 C   0  0  1  0  0  0  0  0  0  0  0  0
   -1.6904    2.3026    1.2969 C   0  0  2  0  0  0  0  0  0  0  0  0
   -2.4720   -1.6163   -0.1451 C   0  0  0  0  0  0  0  0  0  0  0  0
   -4.3201   -2.9356    0.5682 C   0  0  0  0  0  0  0  0  0  0  0  0
    1.5121    2.5148   -0.2174 C   0  0  2  0  0  0  0  0  0  0  0  0
   -4.2171   -0.5205    1.3314 C   0  0  0  0  0  0  0  0  0  0  0  0
   -2.3257   -2.9668   -0.8426 C   0  0  0  0  0  0  0  0  0  0  0  0
   -3.5133   -3.8137   -0.3854 C   0  0  0  0  0  0  0  0  0  0  0  0
   -0.6450    2.4789    2.3837 C   0  0  0  0  0  0  0  0  0  0  0  0
   -4.7683   -1.0369   -1.0528 C   0  0  0  0  0  0  0  0  0  0  0  0
    0.8344    3.8678   -0.3353 C   0  0  0  0  0  0  0  0  0  0  0  0
   -3.7192    0.8812    1.0305 C   0  0  0  0  0  0  0  0  0  0  0  0
   -6.2307   -0.9167   -0.7386 C   0  0  0  0  0  0  0  0  0  0  0  0
    2.6790    0.9495   -1.7696 C   0  0  0  0  0  0  0  0  0  0  0  0
    4.1991   -0.5364   -0.9648 C   0  0  0  0  0  0  0  0  0  0  0  0
    3.7005   -0.4457   -3.2449 C   0  0  0  0  0  0  0  0  0  0  0  0
    4.4286   -1.0342   -2.2311 C   0  0  0  0  0  0  0  0  0  0  0  0
    4.8963   -1.0662    0.1827 C   0  0  0  0  0  0  0  0  0  0  0  0
    6.2888   -1.0073    0.2410 C   0  0  0  0  0  0  0  0  0  0  0  0
    4.1779   -1.6366    1.2335 C   0  0  0  0  0  0  0  0  0  0  0  0
    6.9627   -1.5190    1.3499 C   0  0  0  0  0  0  0  0  0  0  0  0
    4.8519   -2.1482    2.3424 C   0  0  0  0  0  0  0  0  0  0  0  0
    6.2443   -2.0894    2.4005 C   0  0  0  0  0  0  0  0  0  0  0  0
   -1.3050    1.7517   -0.8008 H   0  0  0  0  0  0  0  0  0  0  0  0
    0.5263    0.6053    0.2896 H   0  0  0  0  0  0  0  0  0  0  0  0
   -2.4082    3.1298    1.3152 H   0  0  0  0  0  0  0  0  0  0  0  0
   -1.8742   -1.6429    0.7744 H   0  0  0  0  0  0  0  0  0  0  0  0
   -2.0902   -0.8029   -0.7703 H   0  0  0  0  0  0  0  0  0  0  0  0
   -5.3779   -3.1975    0.5522 H   0  0  0  0  0  0  0  0  0  0  0  0
   -3.9738   -3.1375    1.5911 H   0  0  0  0  0  0  0  0  0  0  0  0
    2.4419    2.6292    0.3516 H   0  0  0  0  0  0  0  0  0  0  0  0
   -3.7207   -0.8802    2.2430 H   0  0  0  0  0  0  0  0  0  0  0  0
   -5.2779   -0.4530    1.5996 H   0  0  0  0  0  0  0  0  0  0  0  0
   -1.3701   -3.4401   -0.5947 H   0  0  0  0  0  0  0  0  0  0  0  0
   -2.3540   -2.8417   -1.9312 H   0  0  0  0  0  0  0  0  0  0  0  0
   -4.1214   -4.1015   -1.2506 H   0  0  0  0  0  0  0  0  0  0  0  0
   -3.1870   -4.7365    0.1051 H   0  0  0  0  0  0  0  0  0  0  0  0
   -0.9260    2.0361    3.3442 H   0  0  0  0  0  0  0  0  0  0  0  0
   -0.4233    3.5396    2.5450 H   0  0  0  0  0  0  0  0  0  0  0  0
   -4.6809   -1.7415   -1.8885 H   0  0  0  0  0  0  0  0  0  0  0  0
   -4.3857   -0.0849   -1.4398 H   0  0  0  0  0  0  0  0  0  0  0  0
    1.0192    4.4761    0.5570 H   0  0  0  0  0  0  0  0  0  0  0  0
    1.1425    4.4450   -1.2126 H   0  0  0  0  0  0  0  0  0  0  0  0
   -1.9152    0.2855    1.8851 H   0  0  0  0  0  0  0  0  0  0  0  0
    1.2472    2.3099   -2.3267 H   0  0  0  0  0  0  0  0  0  0  0  0
   -7.5857    0.4842   -0.7490 H   0  0  0  0  0  0  0  0  0  0  0  0
    3.8123   -0.7712   -4.2736 H   0  0  0  0  0  0  0  0  0  0  0  0
    5.1262   -1.8367   -2.4362 H   0  0  0  0  0  0  0  0  0  0  0  0
    6.8678   -0.5617   -0.5646 H   0  0  0  0  0  0  0  0  0  0  0  0
    3.0922   -1.6942    1.2049 H   0  0  0  0  0  0  0  0  0  0  0  0
    8.0468   -1.4720    1.3960 H   0  0  0  0  0  0  0  0  0  0  0  0
    4.2927   -2.5929    3.1604 H   0  0  0  0  0  0  0  0  0  0  0  0
    6.7690   -2.4876    3.2640 H   0  0  0  0  0  0  0  0  0  0  0  0
  1 12  1  0  0  0  0
  1 20  1  0  0  0  0
  2 11  1  0  0  0  0
  2 22  1  0  0  0  0
  3 23  2  0  0  0  0
  4 24  1  0  0  0  0
  4 57  1  0  0  0  0
  5 24  2  0  0  0  0
  6 13  1  0  0  0  0
  6 23  1  0  0  0  0
  6 55  1  0  0  0  0
  7 16  1  0  0  0  0
  7 25  1  0  0  0  0
  7 56  1  0  0  0  0
  8 25  1  0  0  0  0
  8 26  2  0  0  0  0
  9 25  2  0  0  0  0
  9 27  1  0  0  0  0
 10 14  1  0  0  0  0
 10 15  1  0  0  0  0
 10 17  1  0  0  0  0
 10 21  1  0  0  0  0
 11 12  1  0  0  0  0
 11 13  1  0  0  0  0
 11 35  1  0  0  0  0
 12 16  1  0  0  0  0
 12 36  1  0  0  0  0
 13 20  1  0  0  0  0
 13 37  1  0  0  0  0
 14 18  1  0  0  0  0
 14 38  1  0  0  0  0
 14 39  1  0  0  0  0
 15 19  1  0  0  0  0
 15 40  1  0  0  0  0
 15 41  1  0  0  0  0
 16 22  1  0  0  0  0
 16 42  1  0  0  0  0
 17 23  1  0  0  0  0
 17 43  1  0  0  0  0
 17 44  1  0  0  0  0
 18 19  1  0  0  0  0
 18 45  1  0  0  0  0
 18 46  1  0  0  0  0
 19 47  1  0  0  0  0
 19 48  1  0  0  0  0
 20 49  1  0  0  0  0
 20 50  1  0  0  0  0
 21 24  1  0  0  0  0
 21 51  1  0  0  0  0
 21 52  1  0  0  0  0
 22 53  1  0  0  0  0
 22 54  1  0  0  0  0
 26 28  1  0  0  0  0
 26 29  1  0  0  0  0
 27 28  2  0  0  0  0
 27 58  1  0  0  0  0
 28 59  1  0  0  0  0
 29 30  2  0  0  0  0
 29 31  1  0  0  0  0
 30 32  1  0  0  0  0
 30 60  1  0  0  0  0
 31 33  2  0  0  0  0
 31 61  1  0  0  0  0
 32 34  2  0  0  0  0
 32 62  1  0  0  0  0
 33 34  1  0  0  0  0
 33 63  1  0  0  0  0
 34 64  1  0  0  0  0
M  END
> <PUBCHEM_COMPOUND_CID>
11912239

> <PUBCHEM_CONFORMER_RMSD>
1.2

> <PUBCHEM_CONFORMER_DIVERSEORDER>
1
113
33
61
52
8
94
50
47
104
75
6
118
84
79
111
21
93
56
74
68
102
42
72
53
116
83
70
100
48
37
88
107
55
97
90
82
67
114
59
54
58
26
17
63
71
91
31
65
86
85
81
106
115
46
98
66
11
30
27
29
73
62
92
109
25
36
112
60
117
22
105
16
41
34
103
51
99
19
95
44
35
101
13
24
64
18
87
10
96
23
57
3
78
77
108
89
69
12
20
15
110
40
14
45
32
28
9
5
38
7
2
43
80
39
49
76
4

> <PUBCHEM_MMFF94_PARTIAL_CHARGES>
38
1 -0.56
11 0.28
12 0.28
13 0.3
16 0.37
17 0.06
2 -0.56
20 0.28
21 0.06
22 0.28
23 0.57
24 0.66
25 0.72
26 0.31
27 0.16
28 -0.15
3 -0.57
30 -0.15
31 -0.15
32 -0.15
33 -0.15
34 -0.15
4 -0.65
5 -0.57
55 0.37
56 0.4
57 0.5
58 0.15
59 0.15
6 -0.73
60 0.15
61 0.15
62 0.15
63 0.15
64 0.15
7 -0.87
8 -0.62
9 -0.62

> <PUBCHEM_EFFECTIVE_ROTOR_COUNT>
11.2

> <PUBCHEM_PHARMACOPHORE_FEATURES>
15
1 1 acceptor
1 2 acceptor
1 3 acceptor
1 4 acceptor
1 5 acceptor
1 6 donor
1 7 donor
1 8 acceptor
3 4 5 24 anion
4 7 8 9 25 cation
5 1 11 12 13 20 rings
5 10 14 15 18 19 rings
5 2 11 12 16 22 rings
6 29 30 31 32 33 34 rings
6 8 9 25 26 27 28 rings

> <PUBCHEM_HEAVY_ATOM_COUNT>
34

> <PUBCHEM_ATOM_DEF_STEREO_COUNT>
4

> <PUBCHEM_ATOM_UDEF_STEREO_COUNT>
0

> <PUBCHEM_BOND_DEF_STEREO_COUNT>
0

> <PUBCHEM_BOND_UDEF_STEREO_COUNT>
0

> <PUBCHEM_ISOTOPIC_ATOM_COUNT>
0

> <PUBCHEM_COMPONENT_COUNT>
1

> <PUBCHEM_CACTVS_TAUTO_COUNT>
6

> <PUBCHEM_CONFORMER_ID>
00B5C42F00000001

> <PUBCHEM_MMFF94_ENERGY>
100.8735

> <PUBCHEM_FEATURE_SELFOVERLAP>
76.889

> <PUBCHEM_SHAPE_FINGERPRINT>
10254770 206 18339348730375741995
10622 236 17604991412790872194
10794284 68 17913489319306830668
11211813 140 18261661589258014434
11456790 92 18412272748957076595
11720765 8 17821727273364744268
11828532 37 18200026395142676259
12633046 712 17969497289752312319
12712778 12 18272084976753128011
12758862 65 17989202689953148562
12977781 61 18045750534199378788
13828863 39 13110951055196549042
14508693 111 18339653325398485066
14705955 166 16988565637268089410
15001296 14 18337393854203263059
15320294 125 18188773838150290311
15510800 12 18060427914627780367
15684389 69 11527647710283242373
19611394 137 17846777391630812482
20156587 76 17772437262550143413
20775530 9 18055929933144401221
21033648 29 16988571190402534295
21223535 225 15285910308868303500
21315763 87 16200436875067517063
21458453 9 16916206910494137114
21585480 29 16056583387664459645
21987440 362 12037658442269416286
23559900 14 18199190779559064389
23572383 38 17846505811525535215
3383291 50 18131353029697727695
3882209 13 17199922760210708527
4280585 95 18410004433949561665
437795 139 18335135397279829377
4394409 98 18336537223640935343
463206 1 18187375324052670968
4756261 7 17339252921538156506
50009960 94 17914312809754816855
5085150 59 18272364223174750567
5223283 242 14851885794738150022
613672 6 18131077051487267831
66674814 147 17385722483327397130
9961470 85 17837774422138590447

> <PUBCHEM_SHAPE_MULTIPOLES>
650.43
16.73
4.38
2.56
0.73
1.4
-0.83
-15.38
1.81
-2.43
0.81
4.26
-0.08
-3.25

> <PUBCHEM_SHAPE_SELFOVERLAP>
1411.77

> <PUBCHEM_SHAPE_VOLUME>
354

> <PUBCHEM_COORDINATE_TYPE>
2
5
10

$$$$
