11882557
  -OEChem-12032416153D

 61 63  0     1  0  0  0  0  0999 V2000
   -1.7018    3.6433   -2.0010 S   0  0  0  0  0  0  0  0  0  0  0  0
   -1.8373   -2.2481    2.0998 O   0  0  0  0  0  0  0  0  0  0  0  0
    0.4594   -4.1123   -1.3291 O   0  0  0  0  0  0  0  0  0  0  0  0
   -2.3635   -4.3369   -1.6263 O   0  0  0  0  0  0  0  0  0  0  0  0
   -3.4707   -0.3261    2.3912 O   0  0  0  0  0  0  0  0  0  0  0  0
    2.5670   -1.2168    1.3075 O   0  0  0  0  0  0  0  0  0  0  0  0
   -5.9153   -0.0263   -0.7369 O   0  0  0  0  0  0  0  0  0  0  0  0
    1.3968   -1.4356   -0.6738 N   0  0  0  0  0  0  0  0  0  0  0  0
   -3.3479    0.3531    0.1681 N   0  0  0  0  0  0  0  0  0  0  0  0
    3.4886   -0.4996   -0.7288 N   0  0  0  0  0  0  0  0  0  0  0  0
   -6.6189    1.5177    0.8116 N   0  0  0  0  0  0  0  0  0  0  0  0
   -2.0699   -1.5423    0.8865 C   0  0  1  0  0  0  0  0  0  0  0  0
    0.2161   -2.0459   -0.1026 C   0  0  1  0  0  0  0  0  0  0  0  0
   -0.7628   -0.9566    0.3487 C   0  0  0  0  0  0  0  0  0  0  0  0
   -0.4289   -3.0144   -1.1028 C   0  0  2  0  0  0  0  0  0  0  0  0
   -2.7117   -2.4883   -0.1264 C   0  0  0  0  0  0  0  0  0  0  0  0
   -1.7482   -3.5868   -0.5787 C   0  0  1  0  0  0  0  0  0  0  0  0
   -3.0291   -0.4474    1.2516 C   0  0  0  0  0  0  0  0  0  0  0  0
   -4.2685    1.4640    0.2496 C   0  0  1  0  0  0  0  0  0  0  0  0
    2.5047   -1.0602    0.0904 C   0  0  0  0  0  0  0  0  0  0  0  0
   -3.9581    2.5541   -0.7834 C   0  0  0  0  0  0  0  0  0  0  0  0
   -5.6657    0.9037    0.0263 C   0  0  0  0  0  0  0  0  0  0  0  0
   -2.5679    3.1217   -0.6190 C   0  0  0  0  0  0  0  0  0  0  0  0
    4.7539    0.0036   -0.3461 C   0  0  0  0  0  0  0  0  0  0  0  0
   -1.8443    3.2946    0.5404 C   0  0  0  0  0  0  0  0  0  0  0  0
    5.6140    0.5321   -1.3087 C   0  0  0  0  0  0  0  0  0  0  0  0
    5.1415   -0.0290    0.9934 C   0  0  0  0  0  0  0  0  0  0  0  0
   -0.5619    3.8632    0.2908 C   0  0  0  0  0  0  0  0  0  0  0  0
   -0.3543    4.1029   -1.0497 C   0  0  0  0  0  0  0  0  0  0  0  0
    6.8619    1.0283   -0.9315 C   0  0  0  0  0  0  0  0  0  0  0  0
    6.3894    0.4672    1.3704 C   0  0  0  0  0  0  0  0  0  0  0  0
    7.2497    0.9959    0.4080 C   0  0  0  0  0  0  0  0  0  0  0  0
    8.5838    1.5272    0.8104 C   0  0  0  0  0  0  0  0  0  0  0  0
    0.5423   -2.6140    0.7787 H   0  0  0  0  0  0  0  0  0  0  0  0
   -0.9396   -0.2778   -0.4952 H   0  0  0  0  0  0  0  0  0  0  0  0
   -0.2845   -0.3489    1.1291 H   0  0  0  0  0  0  0  0  0  0  0  0
   -0.5849   -2.5307   -2.0748 H   0  0  0  0  0  0  0  0  0  0  0  0
   -3.0688   -1.9565   -1.0174 H   0  0  0  0  0  0  0  0  0  0  0  0
   -3.6064   -2.9618    0.3006 H   0  0  0  0  0  0  0  0  0  0  0  0
   -1.5557   -4.2874    0.2429 H   0  0  0  0  0  0  0  0  0  0  0  0
    1.3900   -1.2022   -1.6621 H   0  0  0  0  0  0  0  0  0  0  0  0
   -2.6630   -2.6900    2.3621 H   0  0  0  0  0  0  0  0  0  0  0  0
    0.6259   -4.5465   -0.4750 H   0  0  0  0  0  0  0  0  0  0  0  0
   -3.1928   -4.7041   -1.2753 H   0  0  0  0  0  0  0  0  0  0  0  0
   -2.9859    0.1274   -0.7526 H   0  0  0  0  0  0  0  0  0  0  0  0
   -4.2158    1.8725    1.2664 H   0  0  0  0  0  0  0  0  0  0  0  0
   -4.0804    2.1429   -1.7946 H   0  0  0  0  0  0  0  0  0  0  0  0
   -4.6839    3.3720   -0.6886 H   0  0  0  0  0  0  0  0  0  0  0  0
    3.2780   -0.4431   -1.7221 H   0  0  0  0  0  0  0  0  0  0  0  0
   -7.5905    1.2282    0.7717 H   0  0  0  0  0  0  0  0  0  0  0  0
   -6.3986    2.2828    1.4410 H   0  0  0  0  0  0  0  0  0  0  0  0
   -2.2038    3.0373    1.5282 H   0  0  0  0  0  0  0  0  0  0  0  0
    5.3239    0.5638   -2.3558 H   0  0  0  0  0  0  0  0  0  0  0  0
    4.5318   -0.4215    1.7948 H   0  0  0  0  0  0  0  0  0  0  0  0
    0.1707    4.0858    1.0556 H   0  0  0  0  0  0  0  0  0  0  0  0
    0.5244    4.5259   -1.5157 H   0  0  0  0  0  0  0  0  0  0  0  0
    7.5226    1.4394   -1.6903 H   0  0  0  0  0  0  0  0  0  0  0  0
    6.6805    0.4387    2.4172 H   0  0  0  0  0  0  0  0  0  0  0  0
    8.5079    2.5932    1.0465 H   0  0  0  0  0  0  0  0  0  0  0  0
    8.9707    1.0000    1.6892 H   0  0  0  0  0  0  0  0  0  0  0  0
    9.3191    1.3962    0.0093 H   0  0  0  0  0  0  0  0  0  0  0  0
  1 23  1  0  0  0  0
  1 29  1  0  0  0  0
  2 12  1  0  0  0  0
  2 42  1  0  0  0  0
  3 15  1  0  0  0  0
  3 43  1  0  0  0  0
  4 17  1  0  0  0  0
  4 44  1  0  0  0  0
  5 18  2  0  0  0  0
  6 20  2  0  0  0  0
  7 22  2  0  0  0  0
  8 13  1  0  0  0  0
  8 20  1  0  0  0  0
  8 41  1  0  0  0  0
  9 18  1  0  0  0  0
  9 19  1  0  0  0  0
  9 45  1  0  0  0  0
 10 20  1  0  0  0  0
 10 24  1  0  0  0  0
 10 49  1  0  0  0  0
 11 22  1  0  0  0  0
 11 50  1  0  0  0  0
 11 51  1  0  0  0  0
 12 14  1  0  0  0  0
 12 16  1  0  0  0  0
 12 18  1  0  0  0  0
 13 14  1  0  0  0  0
 13 15  1  0  0  0  0
 13 34  1  0  0  0  0
 14 35  1  0  0  0  0
 14 36  1  0  0  0  0
 15 17  1  0  0  0  0
 15 37  1  0  0  0  0
 16 17  1  0  0  0  0
 16 38  1  0  0  0  0
 16 39  1  0  0  0  0
 17 40  1  0  0  0  0
 19 21  1  0  0  0  0
 19 22  1  0  0  0  0
 19 46  1  0  0  0  0
 21 23  1  0  0  0  0
 21 47  1  0  0  0  0
 21 48  1  0  0  0  0
 23 25  2  0  0  0  0
 24 26  2  0  0  0  0
 24 27  1  0  0  0  0
 25 28  1  0  0  0  0
 25 52  1  0  0  0  0
 26 30  1  0  0  0  0
 26 53  1  0  0  0  0
 27 31  2  0  0  0  0
 27 54  1  0  0  0  0
 28 29  2  0  0  0  0
 28 55  1  0  0  0  0
 29 56  1  0  0  0  0
 30 32  2  0  0  0  0
 30 57  1  0  0  0  0
 31 32  1  0  0  0  0
 31 58  1  0  0  0  0
 32 33  1  0  0  0  0
 33 59  1  0  0  0  0
 33 60  1  0  0  0  0
 33 61  1  0  0  0  0
M  END
> <PUBCHEM_COMPOUND_CID>
11882557

> <PUBCHEM_CONFORMER_RMSD>
1.2

> <PUBCHEM_CONFORMER_DIVERSEORDER>
1
173
99
98
84
152
143
31
54
87
45
153
148
130
101
137
135
96
74
49
163
109
3
142
22
107
134
24
165
39
92
86
106
166
51
131
9
171
28
59
97
161
177
139
140
42
57
38
150
90
123
113
52
168
44
95
15
34
128
172
160
108
145
118
64
68
29
141
40
100
80
77
154
19
120
133
175
81
164
55
126
20
157
132
167
60
111
37
115
105
88
117
33
149
82
75
174
70
122
67
146
155
48
162
53
76
63
16
17
129
41
151
8
178
65
85
61
144
121
93
35
116
127
72
46
79
25
91
30
26
170
7
62
58
50
43
110
125
69
11
2
138
6
176
119
112
66
71
104
136
159
27
147
12
21
36
103
89
32
158
102
14
156
5
94
83
73
4
10
124
23
169
56
114
13
47
18
78

> <PUBCHEM_MMFF94_PARTIAL_CHARGES>
46
1 -0.08
10 -0.55
11 -0.8
12 0.34
13 0.3
15 0.28
17 0.28
18 0.57
19 0.36
2 -0.68
20 0.69
21 0.18
22 0.57
23 -0.14
24 0.12
25 -0.15
26 -0.15
27 -0.15
28 -0.15
29 -0.11
3 -0.68
30 -0.15
31 -0.15
32 -0.14
33 0.14
4 -0.68
41 0.37
42 0.4
43 0.4
44 0.4
45 0.37
49 0.37
5 -0.57
50 0.37
51 0.37
52 0.15
53 0.15
54 0.15
55 0.15
56 0.15
57 0.15
58 0.15
6 -0.57
7 -0.57
8 -0.73
9 -0.73

> <PUBCHEM_EFFECTIVE_ROTOR_COUNT>
11.2

> <PUBCHEM_PHARMACOPHORE_FEATURES>
16
1 10 donor
1 11 donor
1 2 acceptor
1 2 donor
1 3 acceptor
1 3 donor
1 4 acceptor
1 4 donor
1 5 acceptor
1 6 acceptor
1 7 acceptor
1 8 donor
1 9 donor
5 1 23 25 28 29 rings
6 12 13 14 15 16 17 rings
6 24 26 27 30 31 32 rings

> <PUBCHEM_HEAVY_ATOM_COUNT>
33

> <PUBCHEM_ATOM_DEF_STEREO_COUNT>
5

> <PUBCHEM_ATOM_UDEF_STEREO_COUNT>
0

> <PUBCHEM_BOND_DEF_STEREO_COUNT>
0

> <PUBCHEM_BOND_UDEF_STEREO_COUNT>
0

> <PUBCHEM_ISOTOPIC_ATOM_COUNT>
0

> <PUBCHEM_COMPONENT_COUNT>
1

> <PUBCHEM_CACTVS_TAUTO_COUNT>
12

> <PUBCHEM_CONFORMER_ID>
00B5503D00000001

> <PUBCHEM_MMFF94_ENERGY>
77.1329

> <PUBCHEM_FEATURE_SELFOVERLAP>
81.281

> <PUBCHEM_SHAPE_FINGERPRINT>
10580692 12 18409726224408908546
10864689 126 18268150856084428116
13402501 40 18411698755535344241
13947920 24 18341896260246723648
14068700 686 18121778318574927485
14251764 38 17832424202778530995
14950920 106 17096377296673472594
15513586 35 17831040265748355344
15876981 60 18189898797801751990
15961568 22 18334581196238275733
18393751 57 18337116657699983131
19611394 137 18042703860825292763
20771845 165 18271251517217946830
21859007 373 18338238138375453318
24771293 8 18338805520877815009
25019877 29 17918280861361819199
44249763 50 18129931395500782320
5372103 7 17387671835860255853
6327066 14 18412260610519544151
6608658 132 18336533997418797959
6697151 62 16558480678623814318

> <PUBCHEM_SHAPE_MULTIPOLES>
627.83
17.06
5.6
1.6
33.96
0.1
0.17
9.54
3.56
-6.27
-2.82
-0.26
-0.28
0.43

> <PUBCHEM_SHAPE_SELFOVERLAP>
1313.013

> <PUBCHEM_SHAPE_VOLUME>
355.8

> <PUBCHEM_COORDINATE_TYPE>
2
5
10

$$$$
