71693653
  -OEChem-12032416403D

 48 50  0     1  0  0  0  0  0999 V2000
    3.7251    0.8633    1.3827 O   0  0  0  0  0  0  0  0  0  0  0  0
    4.0628   -0.1592   -2.6185 O   0  0  0  0  0  0  0  0  0  0  0  0
    7.2482    0.4343    1.0704 O   0  0  0  0  0  0  0  0  0  0  0  0
   -3.1758    1.3841   -1.1406 O   0  0  0  0  0  0  0  0  0  0  0  0
    5.5365   -0.6102   -0.1180 N   0  0  0  0  0  0  0  0  0  0  0  0
   -2.3529   -0.2522    0.3339 N   0  0  0  0  0  0  0  0  0  0  0  0
   -5.8453    0.8163   -0.1331 N   0  0  0  0  0  0  0  0  0  0  0  0
   -6.9927    0.1702    0.1358 N   0  0  0  0  0  0  0  0  0  0  0  0
    4.0784   -0.7976   -0.3163 C   0  0  1  0  0  0  0  0  0  0  0  0
    3.2951    0.4692    0.0790 C   0  0  1  0  0  0  0  0  0  0  0  0
    1.7944    0.2769    0.1465 C   0  0  0  0  0  0  0  0  0  0  0  0
    3.7298   -1.2227   -1.7499 C   0  0  0  0  0  0  0  0  0  0  0  0
    5.0587    1.3119    1.3554 C   0  0  0  0  0  0  0  0  0  0  0  0
    6.0554    0.3271    0.7773 C   0  0  0  0  0  0  0  0  0  0  0  0
    6.4415   -1.5994   -0.6971 C   0  0  0  0  0  0  0  0  0  0  0  0
    1.2537   -0.7115    0.9689 C   0  0  0  0  0  0  0  0  0  0  0  0
    0.9528    1.0888   -0.6139 C   0  0  0  0  0  0  0  0  0  0  0  0
   -0.1286   -0.8877    1.0313 C   0  0  0  0  0  0  0  0  0  0  0  0
   -0.4295    0.9126   -0.5517 C   0  0  0  0  0  0  0  0  0  0  0  0
   -0.9702   -0.0757    0.2710 C   0  0  0  0  0  0  0  0  0  0  0  0
   -3.3455    0.4615   -0.3507 C   0  0  0  0  0  0  0  0  0  0  0  0
   -4.7407    0.0170   -0.0948 C   0  0  0  0  0  0  0  0  0  0  0  0
   -5.1973   -1.2392    0.2215 C   0  0  0  0  0  0  0  0  0  0  0  0
   -6.5905   -1.0851    0.3515 C   0  0  0  0  0  0  0  0  0  0  0  0
   -5.8829    2.2306   -0.4246 C   0  0  0  0  0  0  0  0  0  0  0  0
   -7.5804   -2.1233    0.6840 C   0  0  0  0  0  0  0  0  0  0  0  0
    3.8251   -1.6233    0.3603 H   0  0  0  0  0  0  0  0  0  0  0  0
    3.5196    1.2929   -0.6128 H   0  0  0  0  0  0  0  0  0  0  0  0
    2.6605   -1.4342   -1.8513 H   0  0  0  0  0  0  0  0  0  0  0  0
    4.2686   -2.1225   -2.0607 H   0  0  0  0  0  0  0  0  0  0  0  0
    5.3540    1.5240    2.3882 H   0  0  0  0  0  0  0  0  0  0  0  0
    5.1260    2.2488    0.7902 H   0  0  0  0  0  0  0  0  0  0  0  0
    6.0950   -2.6011   -0.4266 H   0  0  0  0  0  0  0  0  0  0  0  0
    7.4641   -1.4754   -0.3310 H   0  0  0  0  0  0  0  0  0  0  0  0
    6.4539   -1.4840   -1.7840 H   0  0  0  0  0  0  0  0  0  0  0  0
    1.8902   -1.3467    1.5783 H   0  0  0  0  0  0  0  0  0  0  0  0
    1.3604    1.8622   -1.2595 H   0  0  0  0  0  0  0  0  0  0  0  0
   -0.5363   -1.6600    1.6786 H   0  0  0  0  0  0  0  0  0  0  0  0
   -1.0134    1.5799   -1.1696 H   0  0  0  0  0  0  0  0  0  0  0  0
    3.8268   -0.4387   -3.5193 H   0  0  0  0  0  0  0  0  0  0  0  0
   -2.6621   -0.9905    0.9621 H   0  0  0  0  0  0  0  0  0  0  0  0
   -4.6134   -2.1412    0.3374 H   0  0  0  0  0  0  0  0  0  0  0  0
   -5.6979    2.3668   -1.4927 H   0  0  0  0  0  0  0  0  0  0  0  0
   -6.8685    2.6275   -0.1658 H   0  0  0  0  0  0  0  0  0  0  0  0
   -5.1224    2.7366    0.1750 H   0  0  0  0  0  0  0  0  0  0  0  0
   -8.1147   -1.8679    1.6050 H   0  0  0  0  0  0  0  0  0  0  0  0
   -7.1023   -3.0969    0.8331 H   0  0  0  0  0  0  0  0  0  0  0  0
   -8.3144   -2.2303   -0.1214 H   0  0  0  0  0  0  0  0  0  0  0  0
  1 10  1  0  0  0  0
  1 13  1  0  0  0  0
  2 12  1  0  0  0  0
  2 40  1  0  0  0  0
  3 14  2  0  0  0  0
  4 21  2  0  0  0  0
  5  9  1  0  0  0  0
  5 14  1  0  0  0  0
  5 15  1  0  0  0  0
  6 20  1  0  0  0  0
  6 21  1  0  0  0  0
  6 41  1  0  0  0  0
  7  8  1  0  0  0  0
  7 22  1  0  0  0  0
  7 25  1  0  0  0  0
  8 24  2  0  0  0  0
  9 10  1  0  0  0  0
  9 12  1  0  0  0  0
  9 27  1  0  0  0  0
 10 11  1  0  0  0  0
 10 28  1  0  0  0  0
 11 16  2  0  0  0  0
 11 17  1  0  0  0  0
 12 29  1  0  0  0  0
 12 30  1  0  0  0  0
 13 14  1  0  0  0  0
 13 31  1  0  0  0  0
 13 32  1  0  0  0  0
 15 33  1  0  0  0  0
 15 34  1  0  0  0  0
 15 35  1  0  0  0  0
 16 18  1  0  0  0  0
 16 36  1  0  0  0  0
 17 19  2  0  0  0  0
 17 37  1  0  0  0  0
 18 20  2  0  0  0  0
 18 38  1  0  0  0  0
 19 20  1  0  0  0  0
 19 39  1  0  0  0  0
 21 22  1  0  0  0  0
 22 23  2  0  0  0  0
 23 24  1  0  0  0  0
 23 42  1  0  0  0  0
 24 26  1  0  0  0  0
 25 43  1  0  0  0  0
 25 44  1  0  0  0  0
 25 45  1  0  0  0  0
 26 46  1  0  0  0  0
 26 47  1  0  0  0  0
 26 48  1  0  0  0  0
M  END
> <PUBCHEM_COMPOUND_CID>
71693653

> <PUBCHEM_CONFORMER_RMSD>
0.8

> <PUBCHEM_CONFORMER_DIVERSEORDER>
1
5
16
22
11
24
37
33
35
21
7
31
20
29
15
27
6
38
19
30
18
32
4
34
26
17
3
23
9
8
28
14
10
36
25
13
2
12

> <PUBCHEM_MMFF94_PARTIAL_CHARGES>
33
1 -0.56
10 0.42
11 -0.14
12 0.28
13 0.34
14 0.57
15 0.3
16 -0.15
17 -0.15
18 -0.15
19 -0.15
2 -0.68
20 0.12
21 0.71
22 -0.24
23 -0.15
24 0.11
25 0.26
26 0.18
3 -0.57
36 0.15
37 0.15
38 0.15
39 0.15
4 -0.57
40 0.4
41 0.37
42 0.15
5 -0.66
6 -0.55
7 0.31
8 -0.71
9 0.3

> <PUBCHEM_EFFECTIVE_ROTOR_COUNT>
6

> <PUBCHEM_PHARMACOPHORE_FEATURES>
10
1 1 acceptor
1 2 acceptor
1 2 donor
1 3 acceptor
1 4 acceptor
1 6 donor
1 8 acceptor
5 7 8 22 23 24 rings
6 1 5 9 10 13 14 rings
6 11 16 17 18 19 20 rings

> <PUBCHEM_HEAVY_ATOM_COUNT>
26

> <PUBCHEM_ATOM_DEF_STEREO_COUNT>
2

> <PUBCHEM_ATOM_UDEF_STEREO_COUNT>
0

> <PUBCHEM_BOND_DEF_STEREO_COUNT>
0

> <PUBCHEM_BOND_UDEF_STEREO_COUNT>
0

> <PUBCHEM_ISOTOPIC_ATOM_COUNT>
0

> <PUBCHEM_COMPONENT_COUNT>
1

> <PUBCHEM_CACTVS_TAUTO_COUNT>
4

> <PUBCHEM_CONFORMER_ID>
0445F55500000001

> <PUBCHEM_MMFF94_ENERGY>
68.4275

> <PUBCHEM_FEATURE_SELFOVERLAP>
50.749

> <PUBCHEM_SHAPE_FINGERPRINT>
10638233 991 15936417744732462813
11315181 36 18186237343173288665
11524674 6 17561082523442241239
11963148 33 17967245425456511819
12166972 35 18260550038768582253
12236239 1 16225765207787124348
12516196 113 18412544314320706184
12730499 353 18131068234446909782
13073987 5 18060141990038232882
13533116 47 15338844127603900430
13685833 64 18272937119623621599
13862211 1 17530961397618357897
14251757 52 12319445624426966090
14251764 18 17167864179530587548
14294032 229 17170111435058696757
14849402 71 18189619517301141229
14856354 85 17385730210068455451
14933364 13 18342737416542952777
15183329 4 16515688844472264615
15419008 47 18413382133649835104
15419008 91 18338781364990368013
15510794 2 18273495668037430959
1577012 14 16660648427339440373
17844677 252 18343026588317549961
18681886 176 18261107513181416393
20157964 124 17489587879341156144
21130935 74 18335416829270360130
21150785 3 17313390041125067934
21267235 1 18113624512906124027
21315759 40 17022618684922045027
21521721 280 17489586792250622378
21623969 137 17704077295624763783
22956985 138 16808676661857460418
2303208 19 18272097089025217343
23035841 295 17822012021480456507
23081809 10 16950567675237773877
23522609 53 17242195495064761181
23536379 177 17846778494487919273
23559900 14 17418081161370442266
23569943 247 18047191843656559242
3004659 81 17312827078407966780
3383291 50 18114748252397763347
34797466 226 18201162143118650641
397830 11 18129372877499949521
4073 2 18339640156970811410
4325135 7 16877940534277033935
4340502 62 17489587879119798678
59755656 215 18259985955049108339

> <PUBCHEM_SHAPE_MULTIPOLES>
491.67
21.73
1.65
1.34
13.47
0.01
0.5
-4.37
-2.22
1.95
0.08
-2.22
-0.04
2.35

> <PUBCHEM_SHAPE_SELFOVERLAP>
1047.017

> <PUBCHEM_SHAPE_VOLUME>
273.5

> <PUBCHEM_COORDINATE_TYPE>
2
5
10

$$$$
