40777163
  -OEChem-12032416183D

 62 66  0     1  0  0  0  0  0999 V2000
    8.3282   -0.0881    1.1762 F   0  0  0  0  0  0  0  0  0  0  0  0
    7.5183    1.6561    2.1909 F   0  0  0  0  0  0  0  0  0  0  0  0
    8.2559    1.8224    0.1523 F   0  0  0  0  0  0  0  0  0  0  0  0
   -6.1228    0.8922    2.1692 O   0  0  0  0  0  0  0  0  0  0  0  0
   -2.4947   -1.8723    1.7785 N   0  0  2  0  0  0  0  0  0  0  0  0
   -4.3518    1.2172    0.7125 N   0  0  0  0  0  0  0  0  0  0  0  0
   -0.1749   -0.7381   -1.9837 N   0  0  0  0  0  0  0  0  0  0  0  0
    1.9813    0.3268   -2.1394 N   0  0  0  0  0  0  0  0  0  0  0  0
   -2.1800   -2.3790   -0.7568 C   0  0  2  0  0  0  0  0  0  0  0  0
   -0.8047   -2.1336   -0.0764 C   0  0  2  0  0  0  0  0  0  0  0  0
   -3.4029   -1.0147    0.9722 C   0  0  2  0  0  0  0  0  0  0  0  0
   -3.0862   -1.1501   -0.5329 C   0  0  0  0  0  0  0  0  0  0  0  0
   -2.8357   -3.5664   -0.0198 C   0  0  0  0  0  0  0  0  0  0  0  0
   -1.0855   -1.6428    1.3726 C   0  0  0  0  0  0  0  0  0  0  0  0
   -2.8338   -3.2871    1.4933 C   0  0  0  0  0  0  0  0  0  0  0  0
   -3.3845    0.4453    1.4297 C   0  0  0  0  0  0  0  0  0  0  0  0
    0.2073   -1.2552   -0.7977 C   0  0  0  0  0  0  0  0  0  0  0  0
   -6.5190    2.2580    0.1832 C   0  0  0  0  0  0  0  0  0  0  0  0
    1.4427   -1.0299   -0.2255 C   0  0  0  0  0  0  0  0  0  0  0  0
   -5.6707    1.3916    1.1337 C   0  0  0  0  0  0  0  0  0  0  0  0
   -6.8592    1.6670   -1.2009 C   0  0  0  0  0  0  0  0  0  0  0  0
   -8.0381    2.3211    0.4446 C   0  0  0  0  0  0  0  0  0  0  0  0
   -8.2215    2.3825   -1.0861 C   0  0  0  0  0  0  0  0  0  0  0  0
    2.2975   -0.2231   -0.9485 C   0  0  0  0  0  0  0  0  0  0  0  0
    0.7475    0.0321   -2.5916 C   0  0  0  0  0  0  0  0  0  0  0  0
    3.6197    0.0885   -0.4604 C   0  0  0  0  0  0  0  0  0  0  0  0
    0.3622    0.6203   -3.9067 C   0  0  0  0  0  0  0  0  0  0  0  0
    3.7755    0.7476    0.7591 C   0  0  0  0  0  0  0  0  0  0  0  0
    4.7415   -0.2699   -1.2078 C   0  0  0  0  0  0  0  0  0  0  0  0
    5.0531    1.0485    1.2310 C   0  0  0  0  0  0  0  0  0  0  0  0
    6.0192    0.0310   -0.7360 C   0  0  0  0  0  0  0  0  0  0  0  0
    6.1750    0.6902    0.4834 C   0  0  0  0  0  0  0  0  0  0  0  0
    7.5409    1.0120    0.9877 C   0  0  0  0  0  0  0  0  0  0  0  0
   -2.0769   -2.6015   -1.8240 H   0  0  0  0  0  0  0  0  0  0  0  0
   -0.3142   -3.1171   -0.0081 H   0  0  0  0  0  0  0  0  0  0  0  0
   -4.4300   -1.3746    1.1345 H   0  0  0  0  0  0  0  0  0  0  0  0
   -2.5979   -0.2519   -0.9269 H   0  0  0  0  0  0  0  0  0  0  0  0
   -4.0218   -1.2764   -1.0919 H   0  0  0  0  0  0  0  0  0  0  0  0
   -2.2903   -4.4944   -0.2276 H   0  0  0  0  0  0  0  0  0  0  0  0
   -3.8629   -3.7062   -0.3780 H   0  0  0  0  0  0  0  0  0  0  0  0
   -0.4260   -2.1791    2.0681 H   0  0  0  0  0  0  0  0  0  0  0  0
   -0.8288   -0.5851    1.5023 H   0  0  0  0  0  0  0  0  0  0  0  0
   -3.8155   -3.5303    1.9183 H   0  0  0  0  0  0  0  0  0  0  0  0
   -2.1217   -3.9497    2.0016 H   0  0  0  0  0  0  0  0  0  0  0  0
   -2.4130    0.9182    1.2544 H   0  0  0  0  0  0  0  0  0  0  0  0
   -3.5994    0.5099    2.5027 H   0  0  0  0  0  0  0  0  0  0  0  0
   -4.0593    1.6582   -0.1548 H   0  0  0  0  0  0  0  0  0  0  0  0
   -6.0900    3.2687    0.0993 H   0  0  0  0  0  0  0  0  0  0  0  0
   -6.9333    0.5734   -1.2214 H   0  0  0  0  0  0  0  0  0  0  0  0
   -6.2246    1.9962   -2.0279 H   0  0  0  0  0  0  0  0  0  0  0  0
   -8.3902    3.1981    0.9943 H   0  0  0  0  0  0  0  0  0  0  0  0
   -8.4660    1.4203    0.8999 H   0  0  0  0  0  0  0  0  0  0  0  0
    1.7243   -1.4693    0.7242 H   0  0  0  0  0  0  0  0  0  0  0  0
   -8.2216    3.4009   -1.4911 H   0  0  0  0  0  0  0  0  0  0  0  0
   -9.0805    1.8379   -1.4854 H   0  0  0  0  0  0  0  0  0  0  0  0
    0.6936   -0.0367   -4.7161 H   0  0  0  0  0  0  0  0  0  0  0  0
   -0.7233    0.7423   -3.9763 H   0  0  0  0  0  0  0  0  0  0  0  0
    0.8234    1.6037   -4.0408 H   0  0  0  0  0  0  0  0  0  0  0  0
    2.9139    1.0404    1.3546 H   0  0  0  0  0  0  0  0  0  0  0  0
    4.6403   -0.7875   -2.1589 H   0  0  0  0  0  0  0  0  0  0  0  0
    5.1529    1.5634    2.1825 H   0  0  0  0  0  0  0  0  0  0  0  0
    6.8874   -0.2528   -1.3249 H   0  0  0  0  0  0  0  0  0  0  0  0
  1 33  1  0  0  0  0
  2 33  1  0  0  0  0
  3 33  1  0  0  0  0
  4 20  2  0  0  0  0
  5 11  1  0  0  0  0
  5 14  1  0  0  0  0
  5 15  1  0  0  0  0
  6 16  1  0  0  0  0
  6 20  1  0  0  0  0
  6 47  1  0  0  0  0
  7 17  2  0  0  0  0
  7 25  1  0  0  0  0
  8 24  1  0  0  0  0
  8 25  2  0  0  0  0
  9 10  1  0  0  0  0
  9 12  1  0  0  0  0
  9 13  1  0  0  0  0
  9 34  1  0  0  0  0
 10 14  1  0  0  0  0
 10 17  1  0  0  0  0
 10 35  1  0  0  0  0
 11 12  1  0  0  0  0
 11 16  1  0  0  0  0
 11 36  1  0  0  0  0
 12 37  1  0  0  0  0
 12 38  1  0  0  0  0
 13 15  1  0  0  0  0
 13 39  1  0  0  0  0
 13 40  1  0  0  0  0
 14 41  1  0  0  0  0
 14 42  1  0  0  0  0
 15 43  1  0  0  0  0
 15 44  1  0  0  0  0
 16 45  1  0  0  0  0
 16 46  1  0  0  0  0
 17 19  1  0  0  0  0
 18 20  1  0  0  0  0
 18 21  1  0  0  0  0
 18 22  1  0  0  0  0
 18 48  1  0  0  0  0
 19 24  2  0  0  0  0
 19 53  1  0  0  0  0
 21 23  1  0  0  0  0
 21 49  1  0  0  0  0
 21 50  1  0  0  0  0
 22 23  1  0  0  0  0
 22 51  1  0  0  0  0
 22 52  1  0  0  0  0
 23 54  1  0  0  0  0
 23 55  1  0  0  0  0
 24 26  1  0  0  0  0
 25 27  1  0  0  0  0
 26 28  2  0  0  0  0
 26 29  1  0  0  0  0
 27 56  1  0  0  0  0
 27 57  1  0  0  0  0
 27 58  1  0  0  0  0
 28 30  1  0  0  0  0
 28 59  1  0  0  0  0
 29 31  2  0  0  0  0
 29 60  1  0  0  0  0
 30 32  2  0  0  0  0
 30 61  1  0  0  0  0
 31 32  1  0  0  0  0
 31 62  1  0  0  0  0
 32 33  1  0  0  0  0
M  END
> <PUBCHEM_COMPOUND_CID>
40777163

> <PUBCHEM_CONFORMER_RMSD>
1

> <PUBCHEM_CONFORMER_DIVERSEORDER>
1
102
107
106
48
69
3
108
85
77
51
76
57
105
99
20
59
50
14
68
111
19
44
46
89
30
62
32
56
93
87
38
23
49
27
96
64
58
15
65
42
22
18
55
2
73
67
74
54
83
104
72
92
88
35
41
70
110
66
52
100
98
7
12
82
95
61
75
10
4
86
80
109
53
17
39
45
9
60
6
94
26
63
81
47
84
101
33
91
97
71
103
29
90
11
13
28
40
25
37
5
34
36
43
16
8
21
78
24
79
31

> <PUBCHEM_MMFF94_PARTIAL_CHARGES>
32
1 -0.34
10 0.14
11 0.27
14 0.27
15 0.27
16 0.3
17 0.17
18 0.05
19 -0.15
2 -0.34
20 0.58
24 0.31
25 0.48
27 0.14
28 -0.15
29 -0.15
3 -0.34
30 -0.15
31 -0.15
32 -0.14
33 1.16
4 -0.57
47 0.37
5 -0.81
53 0.15
59 0.15
6 -0.73
60 0.15
61 0.15
62 0.15
7 -0.62
8 -0.62

> <PUBCHEM_EFFECTIVE_ROTOR_COUNT>
9

> <PUBCHEM_PHARMACOPHORE_FEATURES>
9
1 4 acceptor
1 5 cation
1 6 donor
1 7 acceptor
3 7 8 25 cation
4 18 21 22 23 rings
6 26 28 29 30 31 32 rings
6 7 8 17 19 24 25 rings
8 5 9 10 11 12 13 14 15 rings

> <PUBCHEM_HEAVY_ATOM_COUNT>
33

> <PUBCHEM_ATOM_DEF_STEREO_COUNT>
3

> <PUBCHEM_ATOM_UDEF_STEREO_COUNT>
0

> <PUBCHEM_BOND_DEF_STEREO_COUNT>
0

> <PUBCHEM_BOND_UDEF_STEREO_COUNT>
0

> <PUBCHEM_ISOTOPIC_ATOM_COUNT>
0

> <PUBCHEM_COMPONENT_COUNT>
1

> <PUBCHEM_CACTVS_TAUTO_COUNT>
2

> <PUBCHEM_CONFORMER_ID>
026E35CB00000001

> <PUBCHEM_MMFF94_ENERGY>
83.593

> <PUBCHEM_FEATURE_SELFOVERLAP>
45.672

> <PUBCHEM_SHAPE_FINGERPRINT>
10076449 9 13038895652066891037
10554248 39 15697735731174774164
10577160 103 17417520432553286081
11374522 101 18337112380150231732
11374522 165 17533204281576660589
11961588 58 17846777378413925435
12107183 9 16878235228914824173
12373685 5 17988351599065266742
13103583 49 16950573228177073218
13540713 5 17169852191048539343
13631057 29 11600008730390252231
13673619 4 11602543134640937351
13911987 19 15339124545554418978
14767858 380 14045741508683425853
14931854 50 13470405535580384445
14950920 106 16009897072341452937
15142383 8 18272369777047466600
15350500 185 18410006607904840957
15669420 48 16917064469866581685
15684973 49 18190755316970379839
18643901 69 8574713516109020209
19246450 95 16732978692367583857
19315958 150 18260831462722020098
20105231 36 15357694159751686722
20567600 254 18336550422275447377
21033648 29 18340781406927181030
21304303 282 18411134771476376375
21344244 181 10087627200523763388
21403212 168 17385440991223063711
21585482 111 18058444482648696360
22149856 69 13479135679469030636
23522609 53 16371879363515606174
2838139 119 17702955729703627225
312425 54 18333448764377408850
393628 179 18411693258557817785
393628 194 18060147531032504865
4366758 6 18334574608417495047
484989 97 14763764447893675157
4938544 92 18341050817187561862
5028188 123 18261685874253150974
504843 32 16415200134719349582
5104073 3 17532099478189517604
5372103 7 17775566395418473289
54039377 194 9079111176616079369
5470011 282 11815893457711365784
58083652 198 15936968664704001638
6009941 240 18411419536017240450
6058803 2 16809007906545697439
6691757 9 18334017216025583195
6697151 62 17199977469862834294
999808 66 12757147982943968881

> <PUBCHEM_SHAPE_MULTIPOLES>
631.51
23.32
3.04
2.47
10.81
2.22
1.68
-23.87
-10.92
-6.15
-0.52
0.78
-0.69
1.5

> <PUBCHEM_SHAPE_SELFOVERLAP>
1366.849

> <PUBCHEM_SHAPE_VOLUME>
347.3

> <PUBCHEM_COORDINATE_TYPE>
2
5
10

$$$$
