7155575
  -OEChem-12032416213D

 55 59  0     1  0  0  0  0  0999 V2000
    9.1203   -1.4808    0.0140 Cl  0  0  0  0  0  0  0  0  0  0  0  0
   -0.4385    2.6960    1.5580 O   0  0  0  0  0  0  0  0  0  0  0  0
   -3.7886   -1.1402    2.4652 O   0  0  0  0  0  0  0  0  0  0  0  0
    2.4857   -0.2029   -0.9630 O   0  0  0  0  0  0  0  0  0  0  0  0
   -4.3414   -0.1885    0.4004 N   0  0  0  0  0  0  0  0  0  0  0  0
   -2.0524    1.9755    0.0296 N   0  0  0  0  0  0  0  0  0  0  0  0
    1.6398    1.6963    0.0639 N   0  0  0  0  0  0  0  0  0  0  0  0
   -3.0214   -4.4683   -0.3146 N   0  0  0  0  0  0  0  0  0  0  0  0
    3.8606    1.1859    0.3368 N   0  0  0  0  0  0  0  0  0  0  0  0
   -4.5649    2.2901    0.4179 C   0  0  1  0  0  0  0  0  0  0  0  0
   -3.7731    1.1479   -1.6141 C   0  0  2  0  0  0  0  0  0  0  0  0
   -4.6568    2.2852   -1.1041 C   0  0  0  0  0  0  0  0  0  0  0  0
   -5.0517    0.9461    0.9897 C   0  0  0  0  0  0  0  0  0  0  0  0
   -3.1189    2.6006    0.8247 C   0  0  0  0  0  0  0  0  0  0  0  0
   -4.2969   -0.1968   -1.0709 C   0  0  0  0  0  0  0  0  0  0  0  0
   -2.3306    1.3443   -1.1872 C   0  0  0  0  0  0  0  0  0  0  0  0
   -1.3288    0.8820   -1.9540 C   0  0  0  0  0  0  0  0  0  0  0  0
   -0.7340    2.1334    0.5027 C   0  0  0  0  0  0  0  0  0  0  0  0
   -3.7548   -1.1419    1.2358 C   0  0  0  0  0  0  0  0  0  0  0  0
    0.3515    1.5801   -0.3678 C   0  0  0  0  0  0  0  0  0  0  0  0
    0.0382    1.0028   -1.5326 C   0  0  0  0  0  0  0  0  0  0  0  0
   -3.0120   -2.2403    0.6095 C   0  0  0  0  0  0  0  0  0  0  0  0
   -1.6548   -2.1217    0.3483 C   0  0  0  0  0  0  0  0  0  0  0  0
   -3.6465   -3.4189    0.2648 C   0  0  0  0  0  0  0  0  0  0  0  0
    2.6578    0.7888   -0.2576 C   0  0  0  0  0  0  0  0  0  0  0  0
   -0.9768   -3.1800   -0.2467 C   0  0  0  0  0  0  0  0  0  0  0  0
   -1.6994   -4.3211   -0.5557 C   0  0  0  0  0  0  0  0  0  0  0  0
    5.1202    0.5470    0.2599 C   0  0  0  0  0  0  0  0  0  0  0  0
    6.2027    1.0998    0.9244 C   0  0  0  0  0  0  0  0  0  0  0  0
    5.2455   -0.6183   -0.4787 C   0  0  0  0  0  0  0  0  0  0  0  0
    7.4449    0.4701    0.8480 C   0  0  0  0  0  0  0  0  0  0  0  0
    6.4878   -1.2482   -0.5551 C   0  0  0  0  0  0  0  0  0  0  0  0
    7.5875   -0.7041    0.1085 C   0  0  0  0  0  0  0  0  0  0  0  0
   -5.2135    3.0767    0.8230 H   0  0  0  0  0  0  0  0  0  0  0  0
   -3.8374    1.1287   -2.7098 H   0  0  0  0  0  0  0  0  0  0  0  0
   -4.3279    3.2482   -1.5144 H   0  0  0  0  0  0  0  0  0  0  0  0
   -5.6952    2.1370   -1.4244 H   0  0  0  0  0  0  0  0  0  0  0  0
   -6.1156    0.8074    0.7613 H   0  0  0  0  0  0  0  0  0  0  0  0
   -4.9536    0.9410    2.0804 H   0  0  0  0  0  0  0  0  0  0  0  0
   -2.9563    2.3560    1.8820 H   0  0  0  0  0  0  0  0  0  0  0  0
   -2.9550    3.6835    0.7372 H   0  0  0  0  0  0  0  0  0  0  0  0
   -5.3239   -0.3671   -1.4171 H   0  0  0  0  0  0  0  0  0  0  0  0
   -3.6936   -1.0227   -1.4551 H   0  0  0  0  0  0  0  0  0  0  0  0
   -1.5204    0.3796   -2.8964 H   0  0  0  0  0  0  0  0  0  0  0  0
    0.7681    0.6319   -2.2419 H   0  0  0  0  0  0  0  0  0  0  0  0
    1.8086    2.3247    0.8448 H   0  0  0  0  0  0  0  0  0  0  0  0
   -1.1137   -1.2178    0.6112 H   0  0  0  0  0  0  0  0  0  0  0  0
   -4.7069   -3.5652    0.4456 H   0  0  0  0  0  0  0  0  0  0  0  0
    0.0839   -3.1135   -0.4600 H   0  0  0  0  0  0  0  0  0  0  0  0
   -1.2171   -5.1747   -1.0205 H   0  0  0  0  0  0  0  0  0  0  0  0
    3.8344    2.0384    0.8907 H   0  0  0  0  0  0  0  0  0  0  0  0
    6.1025    2.0138    1.5031 H   0  0  0  0  0  0  0  0  0  0  0  0
    4.4447   -1.1006   -1.0191 H   0  0  0  0  0  0  0  0  0  0  0  0
    8.2932    0.9055    1.3701 H   0  0  0  0  0  0  0  0  0  0  0  0
    6.5855   -2.1626   -1.1350 H   0  0  0  0  0  0  0  0  0  0  0  0
  1 33  1  0  0  0  0
  2 18  2  0  0  0  0
  3 19  2  0  0  0  0
  4 25  2  0  0  0  0
  5 13  1  0  0  0  0
  5 15  1  0  0  0  0
  5 19  1  0  0  0  0
  6 14  1  0  0  0  0
  6 16  1  0  0  0  0
  6 18  1  0  0  0  0
  7 20  1  0  0  0  0
  7 25  1  0  0  0  0
  7 46  1  0  0  0  0
  8 24  1  0  0  0  0
  8 27  2  0  0  0  0
  9 25  1  0  0  0  0
  9 28  1  0  0  0  0
  9 51  1  0  0  0  0
 10 12  1  0  0  0  0
 10 13  1  0  0  0  0
 10 14  1  0  0  0  0
 10 34  1  0  0  0  0
 11 12  1  0  0  0  0
 11 15  1  0  0  0  0
 11 16  1  0  0  0  0
 11 35  1  0  0  0  0
 12 36  1  0  0  0  0
 12 37  1  0  0  0  0
 13 38  1  0  0  0  0
 13 39  1  0  0  0  0
 14 40  1  0  0  0  0
 14 41  1  0  0  0  0
 15 42  1  0  0  0  0
 15 43  1  0  0  0  0
 16 17  2  0  0  0  0
 17 21  1  0  0  0  0
 17 44  1  0  0  0  0
 18 20  1  0  0  0  0
 19 22  1  0  0  0  0
 20 21  2  0  0  0  0
 21 45  1  0  0  0  0
 22 23  1  0  0  0  0
 22 24  2  0  0  0  0
 23 26  2  0  0  0  0
 23 47  1  0  0  0  0
 24 48  1  0  0  0  0
 26 27  1  0  0  0  0
 26 49  1  0  0  0  0
 27 50  1  0  0  0  0
 28 29  2  0  0  0  0
 28 30  1  0  0  0  0
 29 31  1  0  0  0  0
 29 52  1  0  0  0  0
 30 32  2  0  0  0  0
 30 53  1  0  0  0  0
 31 33  2  0  0  0  0
 31 54  1  0  0  0  0
 32 33  1  0  0  0  0
 32 55  1  0  0  0  0
M  END
> <PUBCHEM_COMPOUND_CID>
7155575

> <PUBCHEM_CONFORMER_RMSD>
1

> <PUBCHEM_CONFORMER_DIVERSEORDER>
1
23
22
18
17
24
3
20
12
16
13
25
6
21
26
15
8
9
4
14
5
11
7
19
27
2
10

> <PUBCHEM_MMFF94_PARTIAL_CHARGES>
43
1 -0.18
11 0.14
13 0.3
14 0.3
15 0.3
16 -0.03
17 -0.15
18 0.62
19 0.54
2 -0.57
20 0.12
21 -0.15
22 0.09
23 -0.15
24 0.16
25 0.69
26 -0.15
27 0.16
28 0.12
29 -0.15
3 -0.57
30 -0.15
31 -0.15
32 -0.15
33 0.18
4 -0.57
44 0.15
45 0.15
46 0.37
47 0.15
48 0.15
49 0.15
5 -0.66
50 0.15
51 0.37
52 0.15
53 0.15
54 0.15
55 0.15
6 -0.47
7 -0.54
8 -0.62
9 -0.55

> <PUBCHEM_EFFECTIVE_ROTOR_COUNT>
7

> <PUBCHEM_PHARMACOPHORE_FEATURES>
11
1 2 acceptor
1 3 acceptor
1 4 acceptor
1 7 donor
1 8 acceptor
1 9 donor
6 28 29 30 31 32 33 rings
6 5 10 11 12 13 15 rings
6 6 10 11 12 14 16 rings
6 6 16 17 18 20 21 rings
6 8 22 23 24 26 27 rings

> <PUBCHEM_HEAVY_ATOM_COUNT>
33

> <PUBCHEM_ATOM_DEF_STEREO_COUNT>
2

> <PUBCHEM_ATOM_UDEF_STEREO_COUNT>
0

> <PUBCHEM_BOND_DEF_STEREO_COUNT>
0

> <PUBCHEM_BOND_UDEF_STEREO_COUNT>
0

> <PUBCHEM_ISOTOPIC_ATOM_COUNT>
0

> <PUBCHEM_COMPONENT_COUNT>
1

> <PUBCHEM_CACTVS_TAUTO_COUNT>
3

> <PUBCHEM_CONFORMER_ID>
006D2F7700000001

> <PUBCHEM_MMFF94_ENERGY>
101.2563

> <PUBCHEM_FEATURE_SELFOVERLAP>
57.456

> <PUBCHEM_SHAPE_FINGERPRINT>
10010297 198 17758686933105148276
10483366 6 18266723845074420287
10675989 125 17326603705596526021
11524674 6 18341609296101043063
12633257 1 17841741748413240329
12643181 29 18408880712356054726
14844126 61 18336830891887101755
14856354 85 18342177790894329540
14866123 147 18409730698704904363
14904385 31 18271237215246005738
14950920 106 17774451614648580640
15021287 119 17095528404856202892
15183329 4 15357696401471296562
15230672 131 18189326876131614890
15328684 2 12894794676170232550
15348495 7 18271802467275192960
15352257 5 18261956254975810194
15361156 5 17895204324598472956
15439362 3 17615965514010859253
15799311 1 18337971029842554572
19611394 137 18202001062739609616
21987440 362 17754453452281285909
23516275 137 17899996940811965490
23559900 14 18340197574948560600
244849 19 17631475409393290254
249057 3 17967530156049697781
3383291 50 18411980291206053763
397830 11 18269546304049165192
4017518 198 18337666430414360639
4073 2 18413384342285267846
445580 160 18409167710549977358
44802255 64 17023453163140429991
484985 159 18335974363691981479
5080951 261 18042944593620250860
57527306 92 16702310019124434249
59755656 520 18335978679991195460
6441014 3 17977102688828110954
7226269 152 18273211963245044169

> <PUBCHEM_SHAPE_MULTIPOLES>
638.48
18.61
4.34
1.45
53.44
5.3
-0.03
2.35
-2.66
-6.67
-0.12
-1.53
-0.38
1.16

> <PUBCHEM_SHAPE_SELFOVERLAP>
1396.628

> <PUBCHEM_SHAPE_VOLUME>
341.8

> <PUBCHEM_COORDINATE_TYPE>
2
5
10

$$$$
