45784354
  -OEChem-12032416363D

 49 52  0     1  0  0  0  0  0999 V2000
    2.1955   -0.3117    0.1627 O   0  0  0  0  0  0  0  0  0  0  0  0
   -6.4644    2.0150    0.7953 O   0  0  0  0  0  0  0  0  0  0  0  0
    5.0978    2.8903   -0.2819 O   0  0  0  0  0  0  0  0  0  0  0  0
    2.8515    2.4175   -0.1106 O   0  0  0  0  0  0  0  0  0  0  0  0
   -1.7616   -0.9909   -0.2617 N   0  0  1  0  0  0  0  0  0  0  0  0
    2.7773   -2.4968    0.3167 N   0  0  0  0  0  0  0  0  0  0  0  0
    0.3174   -1.8453    0.4068 C   0  0  1  0  0  0  0  0  0  0  0  0
   -0.3609   -1.1498    1.5999 C   0  0  0  0  0  0  0  0  0  0  0  0
   -0.4580   -1.3524   -0.8224 C   0  0  0  0  0  0  0  0  0  0  0  0
   -1.4545   -0.2871    0.9835 C   0  0  0  0  0  0  0  0  0  0  0  0
   -2.5536   -0.1807   -1.1753 C   0  0  0  0  0  0  0  0  0  0  0  0
    1.8063   -1.6103    0.2974 C   0  0  0  0  0  0  0  0  0  0  0  0
   -4.0125   -0.1800   -0.8031 C   0  0  0  0  0  0  0  0  0  0  0  0
    3.5567   -0.3910    0.0896 C   0  0  0  0  0  0  0  0  0  0  0  0
    3.9090   -1.7293    0.1842 C   0  0  0  0  0  0  0  0  0  0  0  0
   -4.5699    0.9307   -0.1693 C   0  0  0  0  0  0  0  0  0  0  0  0
   -4.8066   -1.2901   -1.0913 C   0  0  0  0  0  0  0  0  0  0  0  0
    4.4581    0.6568   -0.0535 C   0  0  0  0  0  0  0  0  0  0  0  0
    5.2662   -2.0780    0.1346 C   0  0  0  0  0  0  0  0  0  0  0  0
   -5.9213    0.9314    0.1761 C   0  0  0  0  0  0  0  0  0  0  0  0
   -6.1580   -1.2894   -0.7455 C   0  0  0  0  0  0  0  0  0  0  0  0
    5.8080    0.2918   -0.1010 C   0  0  0  0  0  0  0  0  0  0  0  0
    6.2065   -1.0474   -0.0092 C   0  0  0  0  0  0  0  0  0  0  0  0
   -6.7155   -0.1787   -0.1121 C   0  0  0  0  0  0  0  0  0  0  0  0
    4.0329    2.0389   -0.1471 C   0  0  0  0  0  0  0  0  0  0  0  0
   -7.8519    1.9485    1.1216 C   0  0  0  0  0  0  0  0  0  0  0  0
    4.8054    4.2881   -0.3844 C   0  0  0  0  0  0  0  0  0  0  0  0
    0.1618   -2.9278    0.5148 H   0  0  0  0  0  0  0  0  0  0  0  0
   -0.8063   -1.9083    2.2559 H   0  0  0  0  0  0  0  0  0  0  0  0
    0.3270   -0.5505    2.2056 H   0  0  0  0  0  0  0  0  0  0  0  0
   -0.5470   -2.1418   -1.5767 H   0  0  0  0  0  0  0  0  0  0  0  0
    0.0299   -0.4867   -1.2894 H   0  0  0  0  0  0  0  0  0  0  0  0
   -1.0657    0.7227    0.7990 H   0  0  0  0  0  0  0  0  0  0  0  0
   -2.3188   -0.2136    1.6509 H   0  0  0  0  0  0  0  0  0  0  0  0
   -2.1685    0.8447   -1.2589 H   0  0  0  0  0  0  0  0  0  0  0  0
   -2.4876   -0.5943   -2.1917 H   0  0  0  0  0  0  0  0  0  0  0  0
   -3.9565    1.7987    0.0600 H   0  0  0  0  0  0  0  0  0  0  0  0
   -4.3841   -2.1615   -1.5845 H   0  0  0  0  0  0  0  0  0  0  0  0
    5.5863   -3.1122    0.2048 H   0  0  0  0  0  0  0  0  0  0  0  0
   -6.7754   -2.1544   -0.9701 H   0  0  0  0  0  0  0  0  0  0  0  0
    6.5929    1.0368   -0.2111 H   0  0  0  0  0  0  0  0  0  0  0  0
    7.2645   -1.2945   -0.0500 H   0  0  0  0  0  0  0  0  0  0  0  0
   -7.7711   -0.2450    0.1283 H   0  0  0  0  0  0  0  0  0  0  0  0
   -8.4731    1.8674    0.2231 H   0  0  0  0  0  0  0  0  0  0  0  0
   -8.0579    1.1498    1.8422 H   0  0  0  0  0  0  0  0  0  0  0  0
   -8.1152    2.8935    1.6079 H   0  0  0  0  0  0  0  0  0  0  0  0
    4.1925    4.4806   -1.2698 H   0  0  0  0  0  0  0  0  0  0  0  0
    4.2968    4.6337    0.5204 H   0  0  0  0  0  0  0  0  0  0  0  0
    5.7508    4.8274   -0.4856 H   0  0  0  0  0  0  0  0  0  0  0  0
  1 12  1  0  0  0  0
  1 14  1  0  0  0  0
  2 20  1  0  0  0  0
  2 26  1  0  0  0  0
  3 25  1  0  0  0  0
  3 27  1  0  0  0  0
  4 25  2  0  0  0  0
  5  9  1  0  0  0  0
  5 10  1  0  0  0  0
  5 11  1  0  0  0  0
  6 12  2  0  0  0  0
  6 15  1  0  0  0  0
  7  8  1  0  0  0  0
  7  9  1  0  0  0  0
  7 12  1  0  0  0  0
  7 28  1  0  0  0  0
  8 10  1  0  0  0  0
  8 29  1  0  0  0  0
  8 30  1  0  0  0  0
  9 31  1  0  0  0  0
  9 32  1  0  0  0  0
 10 33  1  0  0  0  0
 10 34  1  0  0  0  0
 11 13  1  0  0  0  0
 11 35  1  0  0  0  0
 11 36  1  0  0  0  0
 13 16  2  0  0  0  0
 13 17  1  0  0  0  0
 14 15  1  0  0  0  0
 14 18  2  0  0  0  0
 15 19  2  0  0  0  0
 16 20  1  0  0  0  0
 16 37  1  0  0  0  0
 17 21  2  0  0  0  0
 17 38  1  0  0  0  0
 18 22  1  0  0  0  0
 18 25  1  0  0  0  0
 19 23  1  0  0  0  0
 19 39  1  0  0  0  0
 20 24  2  0  0  0  0
 21 24  1  0  0  0  0
 21 40  1  0  0  0  0
 22 23  2  0  0  0  0
 22 41  1  0  0  0  0
 23 42  1  0  0  0  0
 24 43  1  0  0  0  0
 26 44  1  0  0  0  0
 26 45  1  0  0  0  0
 26 46  1  0  0  0  0
 27 47  1  0  0  0  0
 27 48  1  0  0  0  0
 27 49  1  0  0  0  0
M  END
> <PUBCHEM_COMPOUND_CID>
45784354

> <PUBCHEM_CONFORMER_RMSD>
1

> <PUBCHEM_CONFORMER_DIVERSEORDER>
1
98
86
7
106
132
171
165
95
17
27
140
166
66
23
117
155
102
156
158
141
99
57
100
131
48
50
128
84
70
63
109
139
162
82
30
130
85
108
2
75
103
90
12
170
154
74
149
101
147
112
104
161
32
152
129
52
133
118
3
110
72
38
150
5
169
113
114
31
45
56
77
34
105
142
125
151
49
146
137
78
97
20
64
123
15
71
143
157
134
55
4
160
73
67
10
172
69
159
138
44
91
54
163
145
13
136
119
60
81
148
40
168
135
144
19
121
92
16
51
124
65
35
116
83
26
96
93
58
88
94
153
167
41
120
59
22
6
76
107
61
14
42
122
28
46
127
89
62
39
43
68
47
24
164
126
29
8
11
53
115
87
37
18
36
25
33
79
111
9
80
21

> <PUBCHEM_MMFF94_PARTIAL_CHARGES>
33
1 -0.28
10 0.27
11 0.41
12 0.3
13 -0.14
14 0.14
15 0.23
16 -0.15
17 -0.15
18 0.09
19 -0.15
2 -0.36
20 0.08
21 -0.15
22 -0.15
23 -0.15
24 -0.15
25 0.63
26 0.28
27 0.28
3 -0.43
37 0.15
38 0.15
39 0.15
4 -0.57
40 0.15
41 0.15
42 0.15
43 0.15
5 -0.81
6 -0.57
7 0.18
9 0.27

> <PUBCHEM_EFFECTIVE_ROTOR_COUNT>
7

> <PUBCHEM_PHARMACOPHORE_FEATURES>
7
1 2 acceptor
1 4 acceptor
1 5 cation
5 1 6 12 14 15 rings
5 5 7 8 9 10 rings
6 13 16 17 20 21 24 rings
6 14 15 18 19 22 23 rings

> <PUBCHEM_HEAVY_ATOM_COUNT>
27

> <PUBCHEM_ATOM_DEF_STEREO_COUNT>
1

> <PUBCHEM_ATOM_UDEF_STEREO_COUNT>
0

> <PUBCHEM_BOND_DEF_STEREO_COUNT>
0

> <PUBCHEM_BOND_UDEF_STEREO_COUNT>
0

> <PUBCHEM_ISOTOPIC_ATOM_COUNT>
0

> <PUBCHEM_COMPONENT_COUNT>
1

> <PUBCHEM_CACTVS_TAUTO_COUNT>
1

> <PUBCHEM_CONFORMER_ID>
02BA9D2200000001

> <PUBCHEM_MMFF94_ENERGY>
72.6543

> <PUBCHEM_FEATURE_SELFOVERLAP>
35.641

> <PUBCHEM_SHAPE_FINGERPRINT>
10 15 14851899053292058623
10411042 1 18120931704187361602
10595046 47 18341325704006350079
10638233 991 18413105082910457805
106641 1 13840279091022089270
10673678 19 18272374208425009374
11456790 92 17968091963673037624
11646440 116 17022908921500008567
1200032 147 17969223498988948240
12166972 35 18272084968701270442
12236239 1 18202279186850616047
12403259 415 17676758808230075423
12730499 353 17967814916533899794
12788726 201 17417821633850986473
13167372 99 18342457015139033449
13782708 43 16806720664577820730
14251764 75 18264495164120259516
14394314 77 18412268359047786753
14464042 87 18131071506721554816
14681490 219 18410289207482780480
146900 427 18040713628545596147
14790565 3 18411699868495759047
14849402 71 18334017211308772204
14856354 85 17704070720910749791
14933364 13 18411419488625023495
15183329 4 18343581828635544885
15320295 44 18272649103696523975
1577012 14 18343580741744925695
15840311 113 18409170983431244717
17844677 252 18411139104475008647
17899979 129 18337678620048179708
18335252 114 18339914922765052413
19053607 189 18050559940157292888
19301679 30 17758664561428307314
20157964 124 18410291437018738766
21033648 29 17531533195573596482
21298829 104 18341611564276785480
21315764 119 17203897335862320806
21641784 216 16486986076417829673
22122407 14 18340499897617028329
221357 26 18335697218152587806
22956985 138 13480514372023132776
23522609 53 17916603024103500905
23536379 177 18271803497671841155
23559900 14 17385448717453102058
23569914 152 11379940237188547577
255183 451 17913214157468906534
2747138 104 17312830381538854633
2838139 119 18334008393645435085
3004659 81 18131348596932294658
335352 9 18408323303269245670
34797466 226 18272939336312225463
3711267 37 17917159304073542929
397830 11 18041011682438571131
4073 2 18186804724604993307
4093350 32 17704355490111402772
4325135 7 18412541007886913439
44555599 121 18343026558268661881
5104073 3 17968372446011493706
513532 50 18342187695631973468
53794403 172 17969508284968576908
57724786 102 18260829358267536876
58902169 19 18201714046627235854
5911458 16 18130517336261827809
6328613 192 18343300341407065201

> <PUBCHEM_SHAPE_MULTIPOLES>
522.21
20.5
3.29
1.01
21.67
3.64
-0.11
9.09
-0.49
-5.34
0.05
1.15
-0.11
-2.28

> <PUBCHEM_SHAPE_SELFOVERLAP>
1137.845

> <PUBCHEM_SHAPE_VOLUME>
287

> <PUBCHEM_COORDINATE_TYPE>
2
5
10

$$$$
