26743872
  -OEChem-12032416293D

 53 56  0     1  0  0  0  0  0999 V2000
    6.2380   -0.9552    1.3625 O   0  0  0  0  0  0  0  0  0  0  0  0
    1.7293   -1.2900   -2.1086 O   0  0  0  0  0  0  0  0  0  0  0  0
   -3.6944    1.9640    1.4872 O   0  0  0  0  0  0  0  0  0  0  0  0
    3.2122    0.7654    0.5533 N   0  0  1  0  0  0  0  0  0  0  0  0
    0.9188   -1.0547   -0.0339 N   0  0  0  0  0  0  0  0  0  0  0  0
    0.4388   -1.8340   -2.1306 N   0  0  0  0  0  0  0  0  0  0  0  0
   -2.8083    2.5083   -0.6288 N   0  0  0  0  0  0  0  0  0  0  0  0
    3.2744   -0.2149   -0.5498 C   0  0  1  0  0  0  0  0  0  0  0  0
    4.3390   -1.2366   -0.1090 C   0  0  0  0  0  0  0  0  0  0  0  0
    4.8494   -0.7213    1.2309 C   0  0  2  0  0  0  0  0  0  0  0  0
    4.5298    0.7609    1.1860 C   0  0  0  0  0  0  0  0  0  0  0  0
    2.8186    2.0983    0.1157 C   0  0  0  0  0  0  0  0  0  0  0  0
    1.9325   -0.8546   -0.8376 C   0  0  0  0  0  0  0  0  0  0  0  0
    1.3298    2.2070   -0.0810 C   0  0  0  0  0  0  0  0  0  0  0  0
    0.8154    2.5676   -1.3265 C   0  0  0  0  0  0  0  0  0  0  0  0
    0.4649    1.9470    0.9822 C   0  0  0  0  0  0  0  0  0  0  0  0
    0.0265   -1.6579   -0.8717 C   0  0  0  0  0  0  0  0  0  0  0  0
   -0.5638    2.6678   -1.5090 C   0  0  0  0  0  0  0  0  0  0  0  0
   -0.9144    2.0474    0.7997 C   0  0  0  0  0  0  0  0  0  0  0  0
   -1.2693   -2.0743   -0.4189 C   0  0  0  0  0  0  0  0  0  0  0  0
   -1.4288    2.4078   -0.4459 C   0  0  0  0  0  0  0  0  0  0  0  0
   -1.6458   -1.8644    0.9078 C   0  0  0  0  0  0  0  0  0  0  0  0
   -2.1536   -2.6878   -1.3062 C   0  0  0  0  0  0  0  0  0  0  0  0
   -2.9067   -2.2678    1.3472 C   0  0  0  0  0  0  0  0  0  0  0  0
   -3.4145   -3.0915   -0.8667 C   0  0  0  0  0  0  0  0  0  0  0  0
   -3.7911   -2.8813    0.4598 C   0  0  0  0  0  0  0  0  0  0  0  0
   -3.8240    2.2876    0.3111 C   0  0  0  0  0  0  0  0  0  0  0  0
   -3.3098   -2.0438    2.7654 C   0  0  0  0  0  0  0  0  0  0  0  0
   -5.1930    2.5010   -0.2848 C   0  0  0  0  0  0  0  0  0  0  0  0
    3.6363    0.2615   -1.4719 H   0  0  0  0  0  0  0  0  0  0  0  0
    3.9456   -2.2538    0.0006 H   0  0  0  0  0  0  0  0  0  0  0  0
    5.1508   -1.2806   -0.8458 H   0  0  0  0  0  0  0  0  0  0  0  0
    4.3221   -1.2082    2.0604 H   0  0  0  0  0  0  0  0  0  0  0  0
    4.5086    1.1933    2.1919 H   0  0  0  0  0  0  0  0  0  0  0  0
    5.2810    1.3050    0.5983 H   0  0  0  0  0  0  0  0  0  0  0  0
    3.3678    2.4102   -0.7823 H   0  0  0  0  0  0  0  0  0  0  0  0
    3.0766    2.8358    0.8888 H   0  0  0  0  0  0  0  0  0  0  0  0
    6.3789   -1.9158    1.3076 H   0  0  0  0  0  0  0  0  0  0  0  0
    1.4773    2.7710   -2.1640 H   0  0  0  0  0  0  0  0  0  0  0  0
    0.8518    1.6692    1.9592 H   0  0  0  0  0  0  0  0  0  0  0  0
   -0.9508    2.9486   -2.4852 H   0  0  0  0  0  0  0  0  0  0  0  0
   -1.5201    1.8298    1.6683 H   0  0  0  0  0  0  0  0  0  0  0  0
   -0.9700   -1.3887    1.6153 H   0  0  0  0  0  0  0  0  0  0  0  0
   -1.8959   -2.8676   -2.3469 H   0  0  0  0  0  0  0  0  0  0  0  0
   -3.1037    2.7752   -1.5656 H   0  0  0  0  0  0  0  0  0  0  0  0
   -4.1033   -3.5694   -1.5572 H   0  0  0  0  0  0  0  0  0  0  0  0
   -4.7759   -3.2020    0.7894 H   0  0  0  0  0  0  0  0  0  0  0  0
   -2.9035   -2.8363    3.4015 H   0  0  0  0  0  0  0  0  0  0  0  0
   -2.9430   -1.0766    3.1262 H   0  0  0  0  0  0  0  0  0  0  0  0
   -4.3994   -2.0344    2.8756 H   0  0  0  0  0  0  0  0  0  0  0  0
   -5.3404    1.8204   -1.1280 H   0  0  0  0  0  0  0  0  0  0  0  0
   -5.2899    3.5349   -0.6277 H   0  0  0  0  0  0  0  0  0  0  0  0
   -5.9602    2.3028    0.4688 H   0  0  0  0  0  0  0  0  0  0  0  0
  1 10  1  0  0  0  0
  1 38  1  0  0  0  0
  2  6  1  0  0  0  0
  2 13  1  0  0  0  0
  3 27  2  0  0  0  0
  4  8  1  0  0  0  0
  4 11  1  0  0  0  0
  4 12  1  0  0  0  0
  5 13  2  0  0  0  0
  5 17  1  0  0  0  0
  6 17  2  0  0  0  0
  7 21  1  0  0  0  0
  7 27  1  0  0  0  0
  7 45  1  0  0  0  0
  8  9  1  0  0  0  0
  8 13  1  0  0  0  0
  8 30  1  0  0  0  0
  9 10  1  0  0  0  0
  9 31  1  0  0  0  0
  9 32  1  0  0  0  0
 10 11  1  0  0  0  0
 10 33  1  0  0  0  0
 11 34  1  0  0  0  0
 11 35  1  0  0  0  0
 12 14  1  0  0  0  0
 12 36  1  0  0  0  0
 12 37  1  0  0  0  0
 14 15  2  0  0  0  0
 14 16  1  0  0  0  0
 15 18  1  0  0  0  0
 15 39  1  0  0  0  0
 16 19  2  0  0  0  0
 16 40  1  0  0  0  0
 17 20  1  0  0  0  0
 18 21  2  0  0  0  0
 18 41  1  0  0  0  0
 19 21  1  0  0  0  0
 19 42  1  0  0  0  0
 20 22  1  0  0  0  0
 20 23  2  0  0  0  0
 22 24  2  0  0  0  0
 22 43  1  0  0  0  0
 23 25  1  0  0  0  0
 23 44  1  0  0  0  0
 24 26  1  0  0  0  0
 24 28  1  0  0  0  0
 25 26  2  0  0  0  0
 25 46  1  0  0  0  0
 26 47  1  0  0  0  0
 27 29  1  0  0  0  0
 28 48  1  0  0  0  0
 28 49  1  0  0  0  0
 28 50  1  0  0  0  0
 29 51  1  0  0  0  0
 29 52  1  0  0  0  0
 29 53  1  0  0  0  0
M  END
> <PUBCHEM_COMPOUND_CID>
26743872

> <PUBCHEM_CONFORMER_RMSD>
0.8

> <PUBCHEM_CONFORMER_DIVERSEORDER>
1
137
18
110
88
213
152
47
93
169
151
186
117
164
114
54
139
189
119
177
96
82
131
209
182
89
130
85
135
86
101
155
165
15
120
173
61
138
20
17
179
166
81
183
223
43
158
163
11
154
134
31
162
198
203
109
55
128
5
188
59
56
133
2
144
185
210
74
127
159
148
180
40
3
143
157
73
207
91
116
79
113
118
16
171
4
33
132
83
28
168
64
149
95
70
187
208
124
176
37
19
200
102
145
221
69
153
75
48
94
6
191
65
87
170
105
12
136
211
68
111
150
41
98
122
141
112
67
80
202
10
215
224
42
115
226
104
38
22
161
44
205
140
195
217
30
146
147
129
201
34
156
39
196
7
66
100
197
107
51
178
21
25
78
225
32
29
46
125
220
72
106
184
53
14
63
142
206
36
190
77
13
214
92
175
121
174
212
218
126
181
90
52
204
219
8
216
57
27
199
62
60
222
167
49
76
26
160
24
58
23
84
9
123
194
35
45
193
71
108
103
50
97
172
192
99

> <PUBCHEM_MMFF94_PARTIAL_CHARGES>
38
1 -0.68
10 0.28
11 0.27
12 0.41
13 0.3
14 -0.14
15 -0.15
16 -0.15
17 0.46
18 -0.15
19 -0.15
2 -0.02
20 0.05
21 0.12
22 -0.15
23 -0.15
24 -0.14
25 -0.15
26 -0.15
27 0.57
28 0.14
29 0.06
3 -0.57
38 0.4
39 0.15
4 -0.81
40 0.15
41 0.15
42 0.15
43 0.15
44 0.15
45 0.37
46 0.15
47 0.15
5 -0.57
6 -0.41
7 -0.55
8 0.45

> <PUBCHEM_EFFECTIVE_ROTOR_COUNT>
7

> <PUBCHEM_PHARMACOPHORE_FEATURES>
10
1 1 acceptor
1 1 donor
1 3 acceptor
1 4 cation
1 7 donor
3 5 6 17 cation
5 2 5 6 13 17 rings
5 4 8 9 10 11 rings
6 14 15 16 18 19 21 rings
6 20 22 23 24 25 26 rings

> <PUBCHEM_HEAVY_ATOM_COUNT>
29

> <PUBCHEM_ATOM_DEF_STEREO_COUNT>
2

> <PUBCHEM_ATOM_UDEF_STEREO_COUNT>
0

> <PUBCHEM_BOND_DEF_STEREO_COUNT>
0

> <PUBCHEM_BOND_UDEF_STEREO_COUNT>
0

> <PUBCHEM_ISOTOPIC_ATOM_COUNT>
0

> <PUBCHEM_COMPONENT_COUNT>
1

> <PUBCHEM_CACTVS_TAUTO_COUNT>
2

> <PUBCHEM_CONFORMER_ID>
0198144000000001

> <PUBCHEM_MMFF94_ENERGY>
68.0161

> <PUBCHEM_FEATURE_SELFOVERLAP>
50.747

> <PUBCHEM_SHAPE_FINGERPRINT>
104564 63 18196381535175238005
10688039 33 18116704304071033637
108634 29 18341057311278204247
11387372 6 17608363542118945186
12035758 1 18338246964084866761
12422481 6 18197523838210771195
12633257 1 18336543828910213592
13140716 1 18411694400907809496
13402501 40 18341613672926009297
13692114 37 18129925842050085285
13726171 33 17976580283355011852
13965767 371 17845397520927317738
14787075 74 17773581742127454865
14790565 3 17040069317298072292
14840074 17 17762894768805886856
14866123 147 18262786368384160034
20764821 26 18339094786507936661
21197605 99 18343021116908522981
21304304 249 18190740834450524332
22182313 1 17988938734216356646
24893992 56 18040985290487652767
3052486 1 18263098707027001548
4340502 62 18130504111661922761
5104073 3 18268122367940023888
513202 73 18410293580545581890
57527358 35 14998009807870203917
7064713 232 17345214344018092083

> <PUBCHEM_SHAPE_MULTIPOLES>
559.27
9.48
4.63
1.84
6.3
1.12
0.24
-1.95
4.35
-5.62
-0.65
-0.49
-0.9
0.27

> <PUBCHEM_SHAPE_SELFOVERLAP>
1209.942

> <PUBCHEM_SHAPE_VOLUME>
308.6

> <PUBCHEM_COORDINATE_TYPE>
2
5
10

$$$$
