45783594
  -OEChem-12032416273D

 45 48  0     1  0  0  0  0  0999 V2000
   -3.4464    1.3073   -0.0646 O   0  0  0  0  0  0  0  0  0  0  0  0
    3.3628   -1.9937    0.4185 O   0  0  0  0  0  0  0  0  0  0  0  0
    5.7049   -0.0362   -1.2388 N   0  0  0  0  0  0  0  0  0  0  0  0
    2.8245    0.1422    0.0122 N   0  0  0  0  0  0  0  0  0  0  0  0
    1.9635   -1.9337    0.4405 N   0  0  0  0  0  0  0  0  0  0  0  0
   -1.9901   -0.4714    0.2480 N   0  0  0  0  0  0  0  0  0  0  0  0
   -4.4791    0.3503    0.1464 C   0  0  0  0  0  0  0  0  0  0  0  0
   -4.8622   -0.2930   -1.1854 C   0  0  0  0  0  0  0  0  0  0  0  0
   -5.6777    1.0273    0.8101 C   0  0  0  0  0  0  0  0  0  0  0  0
   -6.0339   -1.2566   -1.0267 C   0  0  0  0  0  0  0  0  0  0  0  0
   -6.8494    0.0640    0.9689 C   0  0  0  0  0  0  0  0  0  0  0  0
   -7.2309   -0.5809   -0.3616 C   0  0  0  0  0  0  0  0  0  0  0  0
    5.2850   -0.5265    0.0838 C   0  0  1  0  0  0  0  0  0  0  0  0
    5.8256    0.5009    1.0898 C   0  0  0  0  0  0  0  0  0  0  0  0
    6.5853    1.5144    0.2464 C   0  0  0  0  0  0  0  0  0  0  0  0
    6.9138    0.7514   -1.0193 C   0  0  0  0  0  0  0  0  0  0  0  0
    3.7896   -0.7298    0.1605 C   0  0  0  0  0  0  0  0  0  0  0  0
   -2.1581    0.8460   -0.0050 C   0  0  0  0  0  0  0  0  0  0  0  0
    1.7230   -0.6427    0.1927 C   0  0  0  0  0  0  0  0  0  0  0  0
    0.3962   -0.1058    0.1204 C   0  0  0  0  0  0  0  0  0  0  0  0
   -1.1155    1.7368   -0.2033 C   0  0  0  0  0  0  0  0  0  0  0  0
    0.1831    1.2438   -0.1379 C   0  0  0  0  0  0  0  0  0  0  0  0
   -0.7140   -0.9141    0.3044 C   0  0  0  0  0  0  0  0  0  0  0  0
   -4.1676   -0.4317    0.8527 H   0  0  0  0  0  0  0  0  0  0  0  0
   -5.1205    0.4901   -1.9103 H   0  0  0  0  0  0  0  0  0  0  0  0
   -4.0064   -0.8241   -1.6178 H   0  0  0  0  0  0  0  0  0  0  0  0
   -5.3839    1.4278    1.7879 H   0  0  0  0  0  0  0  0  0  0  0  0
   -5.9866    1.8960    0.2142 H   0  0  0  0  0  0  0  0  0  0  0  0
   -5.7193   -2.1174   -0.4239 H   0  0  0  0  0  0  0  0  0  0  0  0
   -6.3284   -1.6444   -2.0083 H   0  0  0  0  0  0  0  0  0  0  0  0
   -7.7130    0.5982    1.3805 H   0  0  0  0  0  0  0  0  0  0  0  0
   -6.5842   -0.7184    1.6906 H   0  0  0  0  0  0  0  0  0  0  0  0
   -7.6360    0.1852   -1.0341 H   0  0  0  0  0  0  0  0  0  0  0  0
   -8.0265   -1.3169   -0.1997 H   0  0  0  0  0  0  0  0  0  0  0  0
    5.7773   -1.4908    0.2648 H   0  0  0  0  0  0  0  0  0  0  0  0
    6.5171    0.0082    1.7841 H   0  0  0  0  0  0  0  0  0  0  0  0
    5.0480    0.9926    1.6841 H   0  0  0  0  0  0  0  0  0  0  0  0
    5.9375    2.3704    0.0200 H   0  0  0  0  0  0  0  0  0  0  0  0
    7.4787    1.8889    0.7545 H   0  0  0  0  0  0  0  0  0  0  0  0
    7.1268    1.4157   -1.8618 H   0  0  0  0  0  0  0  0  0  0  0  0
    7.7755    0.0902   -0.8734 H   0  0  0  0  0  0  0  0  0  0  0  0
    4.9848    0.5897   -1.6037 H   0  0  0  0  0  0  0  0  0  0  0  0
   -1.2990    2.7867   -0.4039 H   0  0  0  0  0  0  0  0  0  0  0  0
    1.0087    1.9338   -0.2922 H   0  0  0  0  0  0  0  0  0  0  0  0
   -0.6343   -1.9775    0.5096 H   0  0  0  0  0  0  0  0  0  0  0  0
  1  7  1  0  0  0  0
  1 18  1  0  0  0  0
  2  5  1  0  0  0  0
  2 17  1  0  0  0  0
  3 13  1  0  0  0  0
  3 16  1  0  0  0  0
  3 42  1  0  0  0  0
  4 17  2  0  0  0  0
  4 19  1  0  0  0  0
  5 19  2  0  0  0  0
  6 18  2  0  0  0  0
  6 23  1  0  0  0  0
  7  8  1  0  0  0  0
  7  9  1  0  0  0  0
  7 24  1  0  0  0  0
  8 10  1  0  0  0  0
  8 25  1  0  0  0  0
  8 26  1  0  0  0  0
  9 11  1  0  0  0  0
  9 27  1  0  0  0  0
  9 28  1  0  0  0  0
 10 12  1  0  0  0  0
 10 29  1  0  0  0  0
 10 30  1  0  0  0  0
 11 12  1  0  0  0  0
 11 31  1  0  0  0  0
 11 32  1  0  0  0  0
 12 33  1  0  0  0  0
 12 34  1  0  0  0  0
 13 14  1  0  0  0  0
 13 17  1  0  0  0  0
 13 35  1  0  0  0  0
 14 15  1  0  0  0  0
 14 36  1  0  0  0  0
 14 37  1  0  0  0  0
 15 16  1  0  0  0  0
 15 38  1  0  0  0  0
 15 39  1  0  0  0  0
 16 40  1  0  0  0  0
 16 41  1  0  0  0  0
 18 21  1  0  0  0  0
 19 20  1  0  0  0  0
 20 22  1  0  0  0  0
 20 23  2  0  0  0  0
 21 22  2  0  0  0  0
 21 43  1  0  0  0  0
 22 44  1  0  0  0  0
 23 45  1  0  0  0  0
M  END
> <PUBCHEM_COMPOUND_CID>
45783594

> <PUBCHEM_CONFORMER_RMSD>
0.8

> <PUBCHEM_CONFORMER_DIVERSEORDER>
1
71
89
91
48
69
78
79
74
33
49
59
22
55
27
87
29
52
50
70
43
15
68
86
35
76
54
3
56
82
24
45
40
75
57
83
2
25
66
77
14
64
84
92
7
61
5
85
47
65
41
18
90
62
63
6
9
21
20
72
88
67
73
12
4
58
93
34
51
16
17
23
53
46
37
81
26
31
60
38
80
13
8
44
32
36
11
39
42
30
28
19
10

> <PUBCHEM_MMFF94_PARTIAL_CHARGES>
20
1 -0.36
13 0.45
16 0.27
17 0.3
18 0.39
19 0.46
2 -0.02
20 0.05
21 -0.15
22 -0.15
23 0.16
3 -0.9
4 -0.57
42 0.36
43 0.15
44 0.15
45 0.15
5 -0.41
6 -0.62
7 0.28

> <PUBCHEM_EFFECTIVE_ROTOR_COUNT>
6.2

> <PUBCHEM_PHARMACOPHORE_FEATURES>
7
1 3 cation
1 3 donor
3 4 5 19 cation
5 2 4 5 17 19 rings
5 3 13 14 15 16 rings
6 6 18 20 21 22 23 rings
6 7 8 9 10 11 12 rings

> <PUBCHEM_HEAVY_ATOM_COUNT>
23

> <PUBCHEM_ATOM_DEF_STEREO_COUNT>
1

> <PUBCHEM_ATOM_UDEF_STEREO_COUNT>
0

> <PUBCHEM_BOND_DEF_STEREO_COUNT>
0

> <PUBCHEM_BOND_UDEF_STEREO_COUNT>
0

> <PUBCHEM_ISOTOPIC_ATOM_COUNT>
0

> <PUBCHEM_COMPONENT_COUNT>
1

> <PUBCHEM_CACTVS_TAUTO_COUNT>
1

> <PUBCHEM_CONFORMER_ID>
02BA9A2A00000001

> <PUBCHEM_MMFF94_ENERGY>
37.1803

> <PUBCHEM_FEATURE_SELFOVERLAP>
35.523

> <PUBCHEM_SHAPE_FINGERPRINT>
10 15 16732704978217279612
10299344 5 18060139838449690335
10595046 47 18339359669297956305
10906281 52 18336279984499874978
10968037 39 18409448094562575951
11315181 36 16298389063831385173
11524674 6 14908177564923936949
11638347 137 16370721514011277328
11719270 70 13117997790817529960
11724838 91 18187363251353359924
12236239 1 18202565051404780851
12516196 113 18413670210090811105
12730499 353 18130791140447734326
13288520 33 18131912668314902197
13533116 47 17677043543799373770
13899415 154 17632578257999684216
13914758 101 11530474524053846575
14123256 10 18407759244005966836
14216079 64 8790619104603774320
14251732 16 18413387644123517217
14251752 14 12468354652702156297
14251764 18 18343301474956385483
14429380 56 17895469332074537324
14528608 73 18413387636103275212
14767858 380 18334858337492426718
14849402 71 18201439245903836809
14856354 85 16630525168167817765
14933364 13 17132115744801771401
15131766 46 15142677110303674982
15352257 5 15769775766563385829
15461852 350 14201408187142520251
15716309 27 18413107243331813627
18335252 98 18334019397499840859
19489759 90 13551191074599747109
20157964 124 16877942733521575794
20567600 234 17022906770159230116
21049683 271 18335424611925576101
21095086 128 17060621096390467278
21150785 3 18413107285827845015
21267235 1 18411705369784291319
21344244 181 17203621371851403998
21521721 280 18342177795231111298
21774942 28 14273998993244880503
220451 1 17989486299417672527
22224240 67 18260264174962269874
22896161 15 18410855481993407931
23035841 295 17561081393200618823
23081809 10 18336826398813096786
23516275 137 17416992576478260015
23522609 53 18198931165238494688
23559900 14 18263077867740556409
28498 318 10663828463988082248
29717793 49 7997966890840390874
3009799 131 16298383556955318125
3014965 18 12031794634662198540
328311 84 12031785881518680493
34797466 226 17846503647342377452
3545911 37 18334579027712021674
4093350 32 16200431416723603768
4325135 7 18409166614684191372
4340502 62 16370444441080723914
445580 167 18201432627237290293
4463277 17 18413388718113468833
5104073 3 18117555128708438280
5207 217 18114181951430086826
5265222 85 16845003636494891631
53794403 172 18193275415613371140
5486654 2 18408888451391276002
5758199 1 18411985758392908203
59682541 35 18260551164160316553
9831232 110 17771915935067603774
9862886 166 17385448747818144723

> <PUBCHEM_SHAPE_MULTIPOLES>
441.67
21.17
1.56
0.98
0.85
0.09
-0.11
-1.38
-1.55
-0.47
0.08
0.04
0.02
-0.9

> <PUBCHEM_SHAPE_SELFOVERLAP>
945.676

> <PUBCHEM_SHAPE_VOLUME>
242.8

> <PUBCHEM_COORDINATE_TYPE>
2
5
10

$$$$
