7051997
  -OEChem-12032416233D

 71 73  0     1  0  0  0  0  0999 V2000
   -2.1334    2.1904   -0.1863 O   0  0  0  0  0  0  0  0  0  0  0  0
   -1.3330   -1.8983    2.8051 O   0  0  0  0  0  0  0  0  0  0  0  0
   -1.5407    4.6931    1.9142 O   0  0  0  0  0  0  0  0  0  0  0  0
    2.1579    0.8548   -3.1267 O   0  0  0  0  0  0  0  0  0  0  0  0
   -1.1253    0.5611    1.1359 N   0  0  0  0  0  0  0  0  0  0  0  0
   -0.2356    3.9405    0.1407 N   0  0  0  0  0  0  0  0  0  0  0  0
    1.3995    1.9178   -1.1905 N   0  0  0  0  0  0  0  0  0  0  0  0
   -3.4281   -0.9903    3.0504 N   0  0  0  0  0  0  0  0  0  0  0  0
    4.9502   -2.9860    1.0361 N   0  0  0  0  0  0  0  0  0  0  0  0
   -3.1358   -2.3659   -0.3308 C   0  0  0  0  0  0  0  0  0  0  0  0
   -2.8592   -3.2839   -1.5291 C   0  0  0  0  0  0  0  0  0  0  0  0
   -4.4742   -1.6342   -0.5004 C   0  0  0  0  0  0  0  0  0  0  0  0
   -1.9954   -1.3675   -0.1417 C   0  0  0  0  0  0  0  0  0  0  0  0
   -4.0110   -4.2569   -1.7716 C   0  0  0  0  0  0  0  0  0  0  0  0
   -5.6231   -2.6101   -0.7445 C   0  0  0  0  0  0  0  0  0  0  0  0
   -5.3407   -3.5266   -1.9308 C   0  0  0  0  0  0  0  0  0  0  0  0
   -2.1722   -0.4319    1.0584 C   0  0  1  0  0  0  0  0  0  0  0  0
    0.0108    2.6399    0.7685 C   0  0  2  0  0  0  0  0  0  0  0  0
    1.2903    1.9652    0.2753 C   0  0  0  0  0  0  0  0  0  0  0  0
   -1.1992    1.7904    0.5035 C   0  0  0  0  0  0  0  0  0  0  0  0
    0.4329    4.2022   -1.1396 C   0  0  0  0  0  0  0  0  0  0  0  0
    0.6690    2.9335   -1.9452 C   0  0  0  0  0  0  0  0  0  0  0  0
   -2.2357   -1.1787    2.3843 C   0  0  0  0  0  0  0  0  0  0  0  0
   -0.9752    4.9023    0.8380 C   0  0  0  0  0  0  0  0  0  0  0  0
    2.1019    0.9367   -1.9002 C   0  0  0  0  0  0  0  0  0  0  0  0
   -1.0727    6.2661    0.2001 C   0  0  0  0  0  0  0  0  0  0  0  0
    2.8412   -0.0816   -1.1363 C   0  0  0  0  0  0  0  0  0  0  0  0
    4.1695    0.1450   -0.7846 C   0  0  0  0  0  0  0  0  0  0  0  0
    2.2092   -1.2672   -0.7702 C   0  0  0  0  0  0  0  0  0  0  0  0
    4.8704   -0.8205   -0.0619 C   0  0  0  0  0  0  0  0  0  0  0  0
    2.9102   -2.2327   -0.0474 C   0  0  0  0  0  0  0  0  0  0  0  0
    4.2408   -2.0093    0.3066 C   0  0  0  0  0  0  0  0  0  0  0  0
    4.2549   -3.8635    1.9565 C   0  0  0  0  0  0  0  0  0  0  0  0
    6.3818   -3.1342    0.8643 C   0  0  0  0  0  0  0  0  0  0  0  0
   -3.2025   -3.0004    0.5631 H   0  0  0  0  0  0  0  0  0  0  0  0
   -1.9365   -3.8519   -1.3606 H   0  0  0  0  0  0  0  0  0  0  0  0
   -2.7009   -2.6816   -2.4329 H   0  0  0  0  0  0  0  0  0  0  0  0
   -4.4131   -0.9284   -1.3385 H   0  0  0  0  0  0  0  0  0  0  0  0
   -4.7304   -1.0545    0.3906 H   0  0  0  0  0  0  0  0  0  0  0  0
   -1.0551   -1.9225   -0.0247 H   0  0  0  0  0  0  0  0  0  0  0  0
   -1.8768   -0.7659   -1.0531 H   0  0  0  0  0  0  0  0  0  0  0  0
   -3.8076   -4.8519   -2.6690 H   0  0  0  0  0  0  0  0  0  0  0  0
   -4.0783   -4.9588   -0.9313 H   0  0  0  0  0  0  0  0  0  0  0  0
   -6.5492   -2.0520   -0.9231 H   0  0  0  0  0  0  0  0  0  0  0  0
   -5.7841   -3.2168    0.1553 H   0  0  0  0  0  0  0  0  0  0  0  0
   -5.3230   -2.9336   -2.8536 H   0  0  0  0  0  0  0  0  0  0  0  0
   -6.1520   -4.2558   -2.0351 H   0  0  0  0  0  0  0  0  0  0  0  0
   -3.0966    0.1391    0.9263 H   0  0  0  0  0  0  0  0  0  0  0  0
    0.0762    2.7838    1.8548 H   0  0  0  0  0  0  0  0  0  0  0  0
   -0.3162    0.3431    1.7096 H   0  0  0  0  0  0  0  0  0  0  0  0
    2.1529    2.5565    0.6097 H   0  0  0  0  0  0  0  0  0  0  0  0
    1.4191    0.9691    0.7026 H   0  0  0  0  0  0  0  0  0  0  0  0
   -0.1550    4.9058   -1.7353 H   0  0  0  0  0  0  0  0  0  0  0  0
    1.3886    4.6848   -0.9018 H   0  0  0  0  0  0  0  0  0  0  0  0
   -0.2849    2.4832   -2.2442 H   0  0  0  0  0  0  0  0  0  0  0  0
    1.2156    3.1677   -2.8654 H   0  0  0  0  0  0  0  0  0  0  0  0
   -3.6002   -1.4430    3.9420 H   0  0  0  0  0  0  0  0  0  0  0  0
   -4.1715   -0.3983    2.6946 H   0  0  0  0  0  0  0  0  0  0  0  0
   -0.0800    6.6456   -0.0553 H   0  0  0  0  0  0  0  0  0  0  0  0
   -1.7022    6.2157   -0.6921 H   0  0  0  0  0  0  0  0  0  0  0  0
   -1.5297    6.9653    0.9071 H   0  0  0  0  0  0  0  0  0  0  0  0
    4.6675    1.0695   -1.0648 H   0  0  0  0  0  0  0  0  0  0  0  0
    1.1750   -1.4517   -1.0470 H   0  0  0  0  0  0  0  0  0  0  0  0
    5.9014   -0.6105    0.2082 H   0  0  0  0  0  0  0  0  0  0  0  0
    2.3940   -3.1523    0.2129 H   0  0  0  0  0  0  0  0  0  0  0  0
    4.9498   -4.3129    2.6747 H   0  0  0  0  0  0  0  0  0  0  0  0
    3.5060   -3.3186    2.5424 H   0  0  0  0  0  0  0  0  0  0  0  0
    3.7640   -4.6806    1.4176 H   0  0  0  0  0  0  0  0  0  0  0  0
    6.6686   -3.0645   -0.1911 H   0  0  0  0  0  0  0  0  0  0  0  0
    6.7233   -4.1130    1.2193 H   0  0  0  0  0  0  0  0  0  0  0  0
    6.9219   -2.3709    1.4341 H   0  0  0  0  0  0  0  0  0  0  0  0
  1 20  2  0  0  0  0
  2 23  2  0  0  0  0
  3 24  2  0  0  0  0
  4 25  2  0  0  0  0
  5 17  1  0  0  0  0
  5 20  1  0  0  0  0
  5 50  1  0  0  0  0
  6 18  1  0  0  0  0
  6 21  1  0  0  0  0
  6 24  1  0  0  0  0
  7 19  1  0  0  0  0
  7 22  1  0  0  0  0
  7 25  1  0  0  0  0
  8 23  1  0  0  0  0
  8 57  1  0  0  0  0
  8 58  1  0  0  0  0
  9 32  1  0  0  0  0
  9 33  1  0  0  0  0
  9 34  1  0  0  0  0
 10 11  1  0  0  0  0
 10 12  1  0  0  0  0
 10 13  1  0  0  0  0
 10 35  1  0  0  0  0
 11 14  1  0  0  0  0
 11 36  1  0  0  0  0
 11 37  1  0  0  0  0
 12 15  1  0  0  0  0
 12 38  1  0  0  0  0
 12 39  1  0  0  0  0
 13 17  1  0  0  0  0
 13 40  1  0  0  0  0
 13 41  1  0  0  0  0
 14 16  1  0  0  0  0
 14 42  1  0  0  0  0
 14 43  1  0  0  0  0
 15 16  1  0  0  0  0
 15 44  1  0  0  0  0
 15 45  1  0  0  0  0
 16 46  1  0  0  0  0
 16 47  1  0  0  0  0
 17 23  1  0  0  0  0
 17 48  1  0  0  0  0
 18 19  1  0  0  0  0
 18 20  1  0  0  0  0
 18 49  1  0  0  0  0
 19 51  1  0  0  0  0
 19 52  1  0  0  0  0
 21 22  1  0  0  0  0
 21 53  1  0  0  0  0
 21 54  1  0  0  0  0
 22 55  1  0  0  0  0
 22 56  1  0  0  0  0
 24 26  1  0  0  0  0
 25 27  1  0  0  0  0
 26 59  1  0  0  0  0
 26 60  1  0  0  0  0
 26 61  1  0  0  0  0
 27 28  2  0  0  0  0
 27 29  1  0  0  0  0
 28 30  1  0  0  0  0
 28 62  1  0  0  0  0
 29 31  2  0  0  0  0
 29 63  1  0  0  0  0
 30 32  2  0  0  0  0
 30 64  1  0  0  0  0
 31 32  1  0  0  0  0
 31 65  1  0  0  0  0
 33 66  1  0  0  0  0
 33 67  1  0  0  0  0
 33 68  1  0  0  0  0
 34 69  1  0  0  0  0
 34 70  1  0  0  0  0
 34 71  1  0  0  0  0
M  END
> <PUBCHEM_COMPOUND_CID>
7051997

> <PUBCHEM_CONFORMER_RMSD>
1.2

> <PUBCHEM_CONFORMER_DIVERSEORDER>
1
12
91
40
24
88
46
7
54
87
31
63
53
83
93
74
60
22
37
48
33
30
76
47
90
81
82
59
58
27
70
35
38
28
19
51
89
75
13
66
50
39
20
84
57
55
52
32
73
44
67
43
34
79
62
78
72
80
86
77
41
45
3
21
26
61
69
71
64
68
29
5
49
15
42
56
85
92
11
9
10
65
16
36
6
18
8
17
2
25
14
23
4

> <PUBCHEM_MMFF94_PARTIAL_CHARGES>
34
1 -0.57
17 0.36
18 0.36
19 0.3
2 -0.57
20 0.57
21 0.3
22 0.3
23 0.57
24 0.57
25 0.54
26 0.06
27 0.09
28 -0.15
29 -0.15
3 -0.57
30 -0.15
31 -0.15
32 0.1
33 0.37
34 0.37
4 -0.57
5 -0.73
50 0.37
57 0.37
58 0.37
6 -0.66
62 0.15
63 0.15
64 0.15
65 0.15
7 -0.66
8 -0.8
9 -0.84

> <PUBCHEM_EFFECTIVE_ROTOR_COUNT>
12.4

> <PUBCHEM_PHARMACOPHORE_FEATURES>
10
1 1 acceptor
1 2 acceptor
1 3 acceptor
1 4 acceptor
1 5 donor
1 8 donor
1 9 cation
6 10 11 12 14 15 16 rings
6 27 28 29 30 31 32 rings
6 6 7 18 19 21 22 rings

> <PUBCHEM_HEAVY_ATOM_COUNT>
34

> <PUBCHEM_ATOM_DEF_STEREO_COUNT>
2

> <PUBCHEM_ATOM_UDEF_STEREO_COUNT>
0

> <PUBCHEM_BOND_DEF_STEREO_COUNT>
0

> <PUBCHEM_BOND_UDEF_STEREO_COUNT>
0

> <PUBCHEM_ISOTOPIC_ATOM_COUNT>
0

> <PUBCHEM_COMPONENT_COUNT>
1

> <PUBCHEM_CACTVS_TAUTO_COUNT>
4

> <PUBCHEM_CONFORMER_ID>
006B9ADD00000001

> <PUBCHEM_MMFF94_ENERGY>
100.3603

> <PUBCHEM_FEATURE_SELFOVERLAP>
50.747

> <PUBCHEM_SHAPE_FINGERPRINT>
10622 236 18188200997378011034
10675989 125 17478893140196496521
10721379 63 17910108346220121955
11135609 149 17979884380594723135
11135926 11 17678761131195734924
11524674 6 17326609199053791154
11552529 35 18194674870629133666
11720765 8 18267846454365939661
12160290 23 17976008412690862389
12422481 6 16816318147316232608
12553582 1 18123501454968294870
12633046 712 17970368103146004243
12788726 201 18265350433536072468
13004483 165 18410292467304214804
13692114 37 17691695485184745449
14068700 675 18408876331173233142
14674994 50 18044927978999066854
14844126 61 18266177227852444666
15406563 42 16752956066851288407
15968369 26 17688004823734327891
17138139 8 15544881955093019927
19315092 285 17916864746119442114
20028762 73 17616547159503180805
20721686 124 17472957971354040284
20775438 99 17615947238492575775
20775530 9 18261126153271025790
21458453 9 14691430940356315214
238 59 17478064107796111861
4017518 198 17331964919866271158
4058900 60 17187288409840575885
44880168 125 17771370594406249046
46194498 28 15938119891986009158
463206 1 18337678640684544619
57527295 17 18193288601040754301
613672 6 18113616820229703618
86090 222 15175285609273229431

> <PUBCHEM_SHAPE_MULTIPOLES>
651.32
10.62
8.32
2.47
0.62
11.5
0.62
-20.45
-1.3
-0.96
0.98
-1.08
-0.69
-4.84

> <PUBCHEM_SHAPE_SELFOVERLAP>
1350.388

> <PUBCHEM_SHAPE_VOLUME>
367.2

> <PUBCHEM_COORDINATE_TYPE>
2
5
10

$$$$
