75536844
  -OEChem-12032416343D

 25 25  0     1  0  0  0  0  0999 V2000
    1.7152    0.0534   -1.1859 O   0  0  0  0  0  0  0  0  0  0  0  0
    0.7851    2.2621    0.9441 O   0  0  0  0  0  0  0  0  0  0  0  0
    3.1776   -1.7574    0.3383 O   0  0  0  0  0  0  0  0  0  0  0  0
   -3.1123    0.5784    0.5797 O   0  0  0  0  0  0  0  0  0  0  0  0
   -1.2507   -0.3879   -0.4315 N   0  0  0  0  0  0  0  0  0  0  0  0
   -0.4193    0.7880   -0.4845 C   0  0  1  0  0  0  0  0  0  0  0  0
    0.5127    0.8805    0.7067 C   0  0  1  0  0  0  0  0  0  0  0  0
    1.7938    0.1877    0.2448 C   0  0  1  0  0  0  0  0  0  0  0  0
    0.5443    0.7326   -1.6534 C   0  0  0  0  0  0  0  0  0  0  0  0
    1.9723   -1.2025    0.8362 C   0  0  0  0  0  0  0  0  0  0  0  0
   -2.5319   -0.3913    0.0987 C   0  0  0  0  0  0  0  0  0  0  0  0
   -3.1867   -1.7436    0.0067 C   0  0  0  0  0  0  0  0  0  0  0  0
   -1.0740    1.6622   -0.5755 H   0  0  0  0  0  0  0  0  0  0  0  0
    0.0970    0.4667    1.6311 H   0  0  0  0  0  0  0  0  0  0  0  0
    2.6851    0.7907    0.4547 H   0  0  0  0  0  0  0  0  0  0  0  0
    0.1477    0.2141   -2.5315 H   0  0  0  0  0  0  0  0  0  0  0  0
    0.8514    1.7405   -1.9545 H   0  0  0  0  0  0  0  0  0  0  0  0
    1.1543   -1.8674    0.5418 H   0  0  0  0  0  0  0  0  0  0  0  0
    2.0288   -1.1593    1.9283 H   0  0  0  0  0  0  0  0  0  0  0  0
   -0.8585   -1.2643   -0.7646 H   0  0  0  0  0  0  0  0  0  0  0  0
    1.4121    2.3106    1.6859 H   0  0  0  0  0  0  0  0  0  0  0  0
    3.2700   -2.6418    0.7318 H   0  0  0  0  0  0  0  0  0  0  0  0
   -2.5263   -2.5112    0.4202 H   0  0  0  0  0  0  0  0  0  0  0  0
   -4.1205   -1.7408    0.5756 H   0  0  0  0  0  0  0  0  0  0  0  0
   -3.4039   -1.9742   -1.0398 H   0  0  0  0  0  0  0  0  0  0  0  0
  1  8  1  0  0  0  0
  1  9  1  0  0  0  0
  2  7  1  0  0  0  0
  2 21  1  0  0  0  0
  3 10  1  0  0  0  0
  3 22  1  0  0  0  0
  4 11  2  0  0  0  0
  5  6  1  0  0  0  0
  5 11  1  0  0  0  0
  5 20  1  0  0  0  0
  6  7  1  0  0  0  0
  6  9  1  0  0  0  0
  6 13  1  0  0  0  0
  7  8  1  0  0  0  0
  7 14  1  0  0  0  0
  8 10  1  0  0  0  0
  8 15  1  0  0  0  0
  9 16  1  0  0  0  0
  9 17  1  0  0  0  0
 10 18  1  0  0  0  0
 10 19  1  0  0  0  0
 11 12  1  0  0  0  0
 12 23  1  0  0  0  0
 12 24  1  0  0  0  0
 12 25  1  0  0  0  0
M  END
> <PUBCHEM_COMPOUND_CID>
75536844

> <PUBCHEM_CONFORMER_RMSD>
0.6

> <PUBCHEM_CONFORMER_DIVERSEORDER>
1
8
11
9
4
7
10
6
2
3
12
5

> <PUBCHEM_MMFF94_PARTIAL_CHARGES>
15
1 -0.56
10 0.28
11 0.57
12 0.06
2 -0.68
20 0.37
21 0.4
22 0.4
3 -0.68
4 -0.57
5 -0.73
6 0.3
7 0.28
8 0.28
9 0.28

> <PUBCHEM_EFFECTIVE_ROTOR_COUNT>
4

> <PUBCHEM_PHARMACOPHORE_FEATURES>
8
1 1 acceptor
1 2 acceptor
1 2 donor
1 3 acceptor
1 3 donor
1 4 acceptor
1 5 donor
5 1 6 7 8 9 rings

> <PUBCHEM_HEAVY_ATOM_COUNT>
12

> <PUBCHEM_ATOM_DEF_STEREO_COUNT>
3

> <PUBCHEM_ATOM_UDEF_STEREO_COUNT>
0

> <PUBCHEM_BOND_DEF_STEREO_COUNT>
0

> <PUBCHEM_BOND_UDEF_STEREO_COUNT>
0

> <PUBCHEM_ISOTOPIC_ATOM_COUNT>
0

> <PUBCHEM_COMPONENT_COUNT>
1

> <PUBCHEM_CACTVS_TAUTO_COUNT>
2

> <PUBCHEM_CONFORMER_ID>
048099CC00000001

> <PUBCHEM_MMFF94_ENERGY>
23.7211

> <PUBCHEM_FEATURE_SELFOVERLAP>
40.602

> <PUBCHEM_SHAPE_FINGERPRINT>
11769659 78 18187640267605618546
12423570 1 17245555469138246276
12897270 3 12179839511549676751
12932764 1 18339652255993300063
14128692 85 18041282075845918926
16945 1 17681253491568642428
17841504 4 18271519896601397113
18511873 20 18261959518654868633
20281407 28 18187920638685965906
20653091 64 18200319947244916481
21524375 3 17053012707939556409
232386 152 18412830170179798583
23380061 451 18412267267417977571
3248919 1 17313382409068286177
449060 23 18189055300479475818
8030462 33 18263087785188983031

> <PUBCHEM_SHAPE_MULTIPOLES>
218.5
4.56
1.78
1.17
2.87
0.22
-0.31
2.8
0.57
-0.58
0.41
-0.39
-0.41
-0.26

> <PUBCHEM_SHAPE_SELFOVERLAP>
432.462

> <PUBCHEM_SHAPE_VOLUME>
131.5

> <PUBCHEM_COORDINATE_TYPE>
2
5
10

$$$$
