40587816
  -OEChem-12032416213D

 56 60  0     1  0  0  0  0  0999 V2000
   -7.0961    1.2734   -0.2387 S   0  0  0  0  0  0  0  0  0  0  0  0
   -1.1072   -0.6986    1.8861 O   0  0  0  0  0  0  0  0  0  0  0  0
    2.9914    0.4738   -2.0553 O   0  0  0  0  0  0  0  0  0  0  0  0
    3.4037   -0.9775   -0.3007 N   0  0  0  0  0  0  0  0  0  0  0  0
    0.5242   -1.8995    0.7305 N   0  0  0  0  0  0  0  0  0  0  0  0
    3.4583    1.3566    0.0381 N   0  0  0  0  0  0  0  0  0  0  0  0
    2.8420   -2.3658    1.7091 C   0  0  2  0  0  0  0  0  0  0  0  0
    2.2795   -3.1866   -0.5369 C   0  0  2  0  0  0  0  0  0  0  0  0
    2.8178   -3.6077    0.8280 C   0  0  0  0  0  0  0  0  0  0  0  0
    1.4020   -1.8766    1.9081 C   0  0  0  0  0  0  0  0  0  0  0  0
    3.7419   -1.2712    1.1012 C   0  0  0  0  0  0  0  0  0  0  0  0
    3.2371   -2.1560   -1.1604 C   0  0  0  0  0  0  0  0  0  0  0  0
    0.8876   -2.5936   -0.4256 C   0  0  0  0  0  0  0  0  0  0  0  0
    0.0208   -2.7049   -1.4446 C   0  0  0  0  0  0  0  0  0  0  0  0
   -0.7367   -1.2866    0.8685 C   0  0  0  0  0  0  0  0  0  0  0  0
    3.2565    0.3106   -0.8616 C   0  0  0  0  0  0  0  0  0  0  0  0
   -1.6712   -1.3931   -0.3063 C   0  0  0  0  0  0  0  0  0  0  0  0
   -1.2744   -2.0892   -1.3822 C   0  0  0  0  0  0  0  0  0  0  0  0
   -2.9930   -0.7430   -0.2911 C   0  0  0  0  0  0  0  0  0  0  0  0
    2.8575    2.6393    0.0092 C   0  0  0  0  0  0  0  0  0  0  0  0
   -4.1491   -1.5101   -0.4352 C   0  0  0  0  0  0  0  0  0  0  0  0
   -3.0887    0.6394   -0.1309 C   0  0  0  0  0  0  0  0  0  0  0  0
   -5.4009   -0.8948   -0.4193 C   0  0  0  0  0  0  0  0  0  0  0  0
   -4.3404    1.2547   -0.1149 C   0  0  0  0  0  0  0  0  0  0  0  0
    3.2302    3.6044    0.9447 C   0  0  0  0  0  0  0  0  0  0  0  0
    1.8936    2.9371   -0.9539 C   0  0  0  0  0  0  0  0  0  0  0  0
   -5.4964    0.4876   -0.2592 C   0  0  0  0  0  0  0  0  0  0  0  0
    2.6390    4.8675    0.9170 C   0  0  0  0  0  0  0  0  0  0  0  0
    1.3025    4.2003   -0.9818 C   0  0  0  0  0  0  0  0  0  0  0  0
    1.6752    5.1655   -0.0461 C   0  0  0  0  0  0  0  0  0  0  0  0
   -7.1066    2.0448    1.4042 C   0  0  0  0  0  0  0  0  0  0  0  0
    3.2543   -2.6226    2.6928 H   0  0  0  0  0  0  0  0  0  0  0  0
    2.2542   -4.0734   -1.1834 H   0  0  0  0  0  0  0  0  0  0  0  0
    2.1852   -4.3859    1.2728 H   0  0  0  0  0  0  0  0  0  0  0  0
    3.8259   -4.0289    0.7315 H   0  0  0  0  0  0  0  0  0  0  0  0
    0.9123   -2.5173    2.6544 H   0  0  0  0  0  0  0  0  0  0  0  0
    1.3958   -0.8638    2.3303 H   0  0  0  0  0  0  0  0  0  0  0  0
    3.6868   -0.3845    1.7350 H   0  0  0  0  0  0  0  0  0  0  0  0
    4.7858   -1.6075    1.1033 H   0  0  0  0  0  0  0  0  0  0  0  0
    4.2335   -2.5969   -1.2894 H   0  0  0  0  0  0  0  0  0  0  0  0
    2.8887   -1.8660   -2.1575 H   0  0  0  0  0  0  0  0  0  0  0  0
    0.2820   -3.2285   -2.3582 H   0  0  0  0  0  0  0  0  0  0  0  0
   -1.9031   -2.1934   -2.2618 H   0  0  0  0  0  0  0  0  0  0  0  0
    4.1116    1.2107    0.8008 H   0  0  0  0  0  0  0  0  0  0  0  0
   -4.0963   -2.5897   -0.5549 H   0  0  0  0  0  0  0  0  0  0  0  0
   -2.1979    1.2538   -0.0238 H   0  0  0  0  0  0  0  0  0  0  0  0
   -6.2909   -1.5092   -0.5315 H   0  0  0  0  0  0  0  0  0  0  0  0
   -4.3902    2.3342    0.0029 H   0  0  0  0  0  0  0  0  0  0  0  0
    3.9799    3.3853    1.7006 H   0  0  0  0  0  0  0  0  0  0  0  0
    1.5430    2.2175   -1.6842 H   0  0  0  0  0  0  0  0  0  0  0  0
    2.9288    5.6189    1.6458 H   0  0  0  0  0  0  0  0  0  0  0  0
    0.5464    4.4307   -1.7267 H   0  0  0  0  0  0  0  0  0  0  0  0
    1.2135    6.1483   -0.0666 H   0  0  0  0  0  0  0  0  0  0  0  0
   -8.0883    2.4912    1.5834 H   0  0  0  0  0  0  0  0  0  0  0  0
   -6.3513    2.8324    1.4675 H   0  0  0  0  0  0  0  0  0  0  0  0
   -6.9169    1.2955    2.1775 H   0  0  0  0  0  0  0  0  0  0  0  0
  1 27  1  0  0  0  0
  1 31  1  0  0  0  0
  2 15  2  0  0  0  0
  3 16  2  0  0  0  0
  4 11  1  0  0  0  0
  4 12  1  0  0  0  0
  4 16  1  0  0  0  0
  5 10  1  0  0  0  0
  5 13  1  0  0  0  0
  5 15  1  0  0  0  0
  6 16  1  0  0  0  0
  6 20  1  0  0  0  0
  6 44  1  0  0  0  0
  7  9  1  0  0  0  0
  7 10  1  0  0  0  0
  7 11  1  0  0  0  0
  7 32  1  0  0  0  0
  8  9  1  0  0  0  0
  8 12  1  0  0  0  0
  8 13  1  0  0  0  0
  8 33  1  0  0  0  0
  9 34  1  0  0  0  0
  9 35  1  0  0  0  0
 10 36  1  0  0  0  0
 10 37  1  0  0  0  0
 11 38  1  0  0  0  0
 11 39  1  0  0  0  0
 12 40  1  0  0  0  0
 12 41  1  0  0  0  0
 13 14  2  0  0  0  0
 14 18  1  0  0  0  0
 14 42  1  0  0  0  0
 15 17  1  0  0  0  0
 17 18  2  0  0  0  0
 17 19  1  0  0  0  0
 18 43  1  0  0  0  0
 19 21  2  0  0  0  0
 19 22  1  0  0  0  0
 20 25  2  0  0  0  0
 20 26  1  0  0  0  0
 21 23  1  0  0  0  0
 21 45  1  0  0  0  0
 22 24  2  0  0  0  0
 22 46  1  0  0  0  0
 23 27  2  0  0  0  0
 23 47  1  0  0  0  0
 24 27  1  0  0  0  0
 24 48  1  0  0  0  0
 25 28  1  0  0  0  0
 25 49  1  0  0  0  0
 26 29  2  0  0  0  0
 26 50  1  0  0  0  0
 28 30  2  0  0  0  0
 28 51  1  0  0  0  0
 29 30  1  0  0  0  0
 29 52  1  0  0  0  0
 30 53  1  0  0  0  0
 31 54  1  0  0  0  0
 31 55  1  0  0  0  0
 31 56  1  0  0  0  0
M  END
> <PUBCHEM_COMPOUND_CID>
40587816

> <PUBCHEM_CONFORMER_RMSD>
0.8

> <PUBCHEM_CONFORMER_DIVERSEORDER>
1
12
20
13
17
21
28
23
19
26
9
8
14
15
22
18
10
27
24
3
11
6
5
4
25
16
2
7

> <PUBCHEM_MMFF94_PARTIAL_CHARGES>
41
1 -0.33
10 0.3
11 0.3
12 0.3
13 -0.03
14 -0.15
15 0.62
16 0.69
17 -0.01
18 -0.15
19 0.03
2 -0.57
20 0.12
21 -0.15
22 -0.15
23 -0.15
24 -0.15
25 -0.15
26 -0.15
27 0.1
28 -0.15
29 -0.15
3 -0.57
30 -0.15
31 0.23
4 -0.66
42 0.15
43 0.15
44 0.37
45 0.15
46 0.15
47 0.15
48 0.15
49 0.15
5 -0.47
50 0.15
51 0.15
52 0.15
53 0.15
6 -0.55
8 0.14

> <PUBCHEM_EFFECTIVE_ROTOR_COUNT>
6

> <PUBCHEM_PHARMACOPHORE_FEATURES>
9
1 2 acceptor
1 3 acceptor
1 31 hydrophobe
1 6 donor
6 19 21 22 23 24 27 rings
6 20 25 26 28 29 30 rings
6 4 7 8 9 11 12 rings
6 5 13 14 15 17 18 rings
6 5 7 8 9 10 13 rings

> <PUBCHEM_HEAVY_ATOM_COUNT>
31

> <PUBCHEM_ATOM_DEF_STEREO_COUNT>
2

> <PUBCHEM_ATOM_UDEF_STEREO_COUNT>
0

> <PUBCHEM_BOND_DEF_STEREO_COUNT>
0

> <PUBCHEM_BOND_UDEF_STEREO_COUNT>
0

> <PUBCHEM_ISOTOPIC_ATOM_COUNT>
0

> <PUBCHEM_COMPONENT_COUNT>
1

> <PUBCHEM_CACTVS_TAUTO_COUNT>
6

> <PUBCHEM_CONFORMER_ID>
026B522800000001

> <PUBCHEM_MMFF94_ENERGY>
94.4328

> <PUBCHEM_FEATURE_SELFOVERLAP>
47.24

> <PUBCHEM_SHAPE_FINGERPRINT>
10439779 11 18339350981191436272
10673678 19 18201162139530337739
10675989 125 18341335590647233817
10937287 8 18050281775992763580
11331351 85 17903059050361985394
11479125 193 18196664110354920433
11578080 2 17314540134482832731
11966995 178 18271259244512906357
12107183 9 17903894993470108592
12633257 1 15720503438156392518
12788726 201 17902520285711584338
12925494 130 18336546123002836001
13583140 156 18187937183164293275
13761468 95 16606640729969884220
13944108 23 18335146366758919836
14150022 121 17612563663958038058
14468879 13 17902796593235710537
14955137 171 18336539448518663298
15001296 14 18412827997617781329
15082195 135 18269818922702876983
15326921 28 17047099577925366592
15400415 2 17978789339897214781
17980427 23 18126252416520100378
18681886 176 18342453712589680110
20567600 299 18411134719055144420
20715895 44 18271523182135574177
21344244 78 17899676982701636794
21591340 35 18339927146295367304
21716022 299 14691187720795177079
21860390 5 18410012122173182078
22122407 14 18338528456589586737
23559900 14 18270121193442548247
3298306 158 18193839477419373105
376196 1 17841150275402807364
463206 1 17689706468117888180
508180 173 18268732622099103844
508706 21 17187015722572752772
513532 50 18202287970485823046
5776283 40 18193574474212358292
5951187 136 18202013143533099565
60111433 81 17845637248611357257
6201320 215 16175392551156365140
7288768 16 17610048336985741866
9981440 41 17903912610549581153

> <PUBCHEM_SHAPE_MULTIPOLES>
615.13
12.21
6.44
1.54
28.63
8.7
-0.25
5.15
-1.43
-8.96
-0.27
-0.81
-0.52
-1.16

> <PUBCHEM_SHAPE_SELFOVERLAP>
1332.747

> <PUBCHEM_SHAPE_VOLUME>
336.8

> <PUBCHEM_COORDINATE_TYPE>
2
5
10

$$$$
