11865991
  -OEChem-12032416153D

 48 51  0     1  0  0  0  0  0999 V2000
   -5.8664    1.9197    0.0939 O   0  0  0  0  0  0  0  0  0  0  0  0
   -4.0616   -2.2920    0.2890 O   0  0  0  0  0  0  0  0  0  0  0  0
   -1.0433    1.4653   -1.8601 O   0  0  0  0  0  0  0  0  0  0  0  0
   -2.6076    0.5868   -0.4220 N   0  0  0  0  0  0  0  0  0  0  0  0
   -1.8043   -2.2169   -0.0162 N   0  0  0  0  0  0  0  0  0  0  0  0
   -2.9737   -0.1915    0.7434 C   0  0  1  0  0  0  0  0  0  0  0  0
   -4.3266    0.3753    1.1684 C   0  0  0  0  0  0  0  0  0  0  0  0
   -4.9279    0.8891   -0.1388 C   0  0  2  0  0  0  0  0  0  0  0  0
   -3.7124    1.4137   -0.8857 C   0  0  0  0  0  0  0  0  0  0  0  0
   -3.0180   -1.6364    0.2887 C   0  0  0  0  0  0  0  0  0  0  0  0
   -1.3451    0.6738   -0.9671 C   0  0  0  0  0  0  0  0  0  0  0  0
   -0.3019   -0.2590   -0.4663 C   0  0  0  0  0  0  0  0  0  0  0  0
   -0.5374   -1.6020   -0.1249 C   0  0  0  0  0  0  0  0  0  0  0  0
    1.0197    0.2214   -0.5118 C   0  0  0  0  0  0  0  0  0  0  0  0
    0.5639   -2.4472    0.0985 C   0  0  0  0  0  0  0  0  0  0  0  0
    2.0968   -0.6211   -0.2408 C   0  0  0  0  0  0  0  0  0  0  0  0
   -6.9467    1.4778    0.9098 C   0  0  0  0  0  0  0  0  0  0  0  0
    1.8696   -1.9594    0.0521 C   0  0  0  0  0  0  0  0  0  0  0  0
    3.4489   -0.1083   -0.2866 C   0  0  0  0  0  0  0  0  0  0  0  0
    4.0656    0.4134    0.8525 C   0  0  0  0  0  0  0  0  0  0  0  0
    4.1425   -0.1402   -1.4980 C   0  0  0  0  0  0  0  0  0  0  0  0
    5.3704    0.9015    0.7803 C   0  0  0  0  0  0  0  0  0  0  0  0
    3.3351    0.4546    2.1593 C   0  0  0  0  0  0  0  0  0  0  0  0
    5.4471    0.3478   -1.5703 C   0  0  0  0  0  0  0  0  0  0  0  0
    6.0611    0.8687   -0.4312 C   0  0  0  0  0  0  0  0  0  0  0  0
    6.0520    1.4651    1.9841 C   0  0  0  0  0  0  0  0  0  0  0  0
   -2.2325   -0.0821    1.5429 H   0  0  0  0  0  0  0  0  0  0  0  0
   -4.9663   -0.3567    1.6716 H   0  0  0  0  0  0  0  0  0  0  0  0
   -4.1759    1.2093    1.8667 H   0  0  0  0  0  0  0  0  0  0  0  0
   -5.3916    0.0714   -0.7053 H   0  0  0  0  0  0  0  0  0  0  0  0
   -3.8162    1.3335   -1.9725 H   0  0  0  0  0  0  0  0  0  0  0  0
   -3.4913    2.4600   -0.6447 H   0  0  0  0  0  0  0  0  0  0  0  0
   -1.8127   -3.2316   -0.0890 H   0  0  0  0  0  0  0  0  0  0  0  0
    1.2125    1.2609   -0.7747 H   0  0  0  0  0  0  0  0  0  0  0  0
    0.4123   -3.4978    0.3399 H   0  0  0  0  0  0  0  0  0  0  0  0
   -7.7242    2.2467    0.8815 H   0  0  0  0  0  0  0  0  0  0  0  0
   -6.6328    1.3616    1.9508 H   0  0  0  0  0  0  0  0  0  0  0  0
   -7.3734    0.5444    0.5293 H   0  0  0  0  0  0  0  0  0  0  0  0
    2.6951   -2.6387    0.2512 H   0  0  0  0  0  0  0  0  0  0  0  0
    3.6807   -0.5424   -2.3969 H   0  0  0  0  0  0  0  0  0  0  0  0
    3.9956    0.2020    2.9955 H   0  0  0  0  0  0  0  0  0  0  0  0
    2.9253    1.4567    2.3243 H   0  0  0  0  0  0  0  0  0  0  0  0
    2.5126   -0.2617    2.2298 H   0  0  0  0  0  0  0  0  0  0  0  0
    5.9850    0.3220   -2.5134 H   0  0  0  0  0  0  0  0  0  0  0  0
    7.0785    1.2434   -0.5051 H   0  0  0  0  0  0  0  0  0  0  0  0
    6.9988    1.9497    1.7204 H   0  0  0  0  0  0  0  0  0  0  0  0
    5.4325    2.2292    2.4650 H   0  0  0  0  0  0  0  0  0  0  0  0
    6.2803    0.6713    2.7026 H   0  0  0  0  0  0  0  0  0  0  0  0
  1  8  1  0  0  0  0
  1 17  1  0  0  0  0
  2 10  2  0  0  0  0
  3 11  2  0  0  0  0
  4  6  1  0  0  0  0
  4  9  1  0  0  0  0
  4 11  1  0  0  0  0
  5 10  1  0  0  0  0
  5 13  1  0  0  0  0
  5 33  1  0  0  0  0
  6  7  1  0  0  0  0
  6 10  1  0  0  0  0
  6 27  1  0  0  0  0
  7  8  1  0  0  0  0
  7 28  1  0  0  0  0
  7 29  1  0  0  0  0
  8  9  1  0  0  0  0
  8 30  1  0  0  0  0
  9 31  1  0  0  0  0
  9 32  1  0  0  0  0
 11 12  1  0  0  0  0
 12 13  2  0  0  0  0
 12 14  1  0  0  0  0
 13 15  1  0  0  0  0
 14 16  2  0  0  0  0
 14 34  1  0  0  0  0
 15 18  2  0  0  0  0
 15 35  1  0  0  0  0
 16 18  1  0  0  0  0
 16 19  1  0  0  0  0
 17 36  1  0  0  0  0
 17 37  1  0  0  0  0
 17 38  1  0  0  0  0
 18 39  1  0  0  0  0
 19 20  1  0  0  0  0
 19 21  2  0  0  0  0
 20 22  2  0  0  0  0
 20 23  1  0  0  0  0
 21 24  1  0  0  0  0
 21 40  1  0  0  0  0
 22 25  1  0  0  0  0
 22 26  1  0  0  0  0
 23 41  1  0  0  0  0
 23 42  1  0  0  0  0
 23 43  1  0  0  0  0
 24 25  2  0  0  0  0
 24 44  1  0  0  0  0
 25 45  1  0  0  0  0
 26 46  1  0  0  0  0
 26 47  1  0  0  0  0
 26 48  1  0  0  0  0
M  END
> <PUBCHEM_COMPOUND_CID>
11865991

> <PUBCHEM_CONFORMER_RMSD>
0.6

> <PUBCHEM_CONFORMER_DIVERSEORDER>
1
4
2
3

> <PUBCHEM_MMFF94_PARTIAL_CHARGES>
30
1 -0.56
10 0.57
11 0.54
12 0.09
13 0.12
14 -0.15
15 -0.15
17 0.28
18 -0.15
2 -0.57
20 -0.14
21 -0.15
22 -0.14
23 0.14
24 -0.15
25 -0.15
26 0.14
3 -0.57
33 0.37
34 0.15
35 0.15
39 0.15
4 -0.66
40 0.15
44 0.15
45 0.15
5 -0.55
6 0.36
8 0.28
9 0.3

> <PUBCHEM_EFFECTIVE_ROTOR_COUNT>
2.8

> <PUBCHEM_PHARMACOPHORE_FEATURES>
8
1 1 acceptor
1 2 acceptor
1 3 acceptor
1 5 donor
5 4 6 7 8 9 rings
6 12 13 14 15 16 18 rings
6 19 20 21 22 24 25 rings
7 4 5 6 10 11 12 13 rings

> <PUBCHEM_HEAVY_ATOM_COUNT>
26

> <PUBCHEM_ATOM_DEF_STEREO_COUNT>
2

> <PUBCHEM_ATOM_UDEF_STEREO_COUNT>
0

> <PUBCHEM_BOND_DEF_STEREO_COUNT>
0

> <PUBCHEM_BOND_UDEF_STEREO_COUNT>
0

> <PUBCHEM_ISOTOPIC_ATOM_COUNT>
0

> <PUBCHEM_COMPONENT_COUNT>
1

> <PUBCHEM_CACTVS_TAUTO_COUNT>
3

> <PUBCHEM_CONFORMER_ID>
00B50F8700000001

> <PUBCHEM_MMFF94_ENERGY>
105.6834

> <PUBCHEM_FEATURE_SELFOVERLAP>
40.656

> <PUBCHEM_SHAPE_FINGERPRINT>
10 15 17895201012355852161
10165383 225 18411424990514825700
10493431 412 18335706014340665775
10906281 52 17822590364048267831
11595378 159 17168136824212793436
12166972 35 13398623948756488379
12236239 1 17458060500264373438
12363563 72 8862942814297890838
12390115 104 18341623615421845739
12403259 415 18130510828937571706
12422481 6 17822004268753270606
12616971 3 16805037432776489158
12730499 353 18059863848288953582
12969540 114 17917422120788399542
13140716 1 18187930654539319741
13533116 47 18129383687795846911
13544653 18 12540688220085462166
13583140 156 16486692583869689334
13685833 64 10809348836371751977
14341114 328 17095244726518921320
14790565 3 18116164435572846972
15238133 3 18260266378502233536
1601671 61 18334016094785541004
17980427 23 17822296828850857047
19377110 9 17167858686330784480
19784866 170 18186525384147426471
19784866 240 11674883260343988273
19958102 18 12823305584819055788
200 152 12540690435950814422
21033648 29 18059285565333466506
21623969 137 14056717941811484344
21637258 2 13623536770728032305
221357 26 16773800260229340496
22224240 67 18407760331302625121
23379529 103 8645897002603557081
23559900 14 18339653256863573254
23569914 2 17127848514574109232
25147074 1 17750528441073312927
2916195 48 18130782421526551416
34934 24 18187647973130388383
5104073 3 18335419049710520954
5385378 56 18337958870062503107
5758199 1 18341620270618170953
59682541 52 16200156456779471972
633830 44 17989196080045523460
9658208 31 18342181093967116894

> <PUBCHEM_SHAPE_MULTIPOLES>
507.5
15.49
2.12
1.52
1.74
1.12
0.16
-10
3.09
1.78
0.3
-1.77
-0.64
1.13

> <PUBCHEM_SHAPE_SELFOVERLAP>
1118.739

> <PUBCHEM_SHAPE_VOLUME>
273.4

> <PUBCHEM_COORDINATE_TYPE>
2
5
10

$$$$
