11941657
  -OEChem-12032416163D

 61 65  0     1  0  0  0  0  0999 V2000
   -1.2927    3.6473    0.1056 O   0  0  0  0  0  0  0  0  0  0  0  0
    0.2881    1.7385    2.0015 O   0  0  0  0  0  0  0  0  0  0  0  0
   -4.8189    1.4117    1.3127 O   0  0  0  0  0  0  0  0  0  0  0  0
    7.0400   -2.3791    2.0964 O   0  0  0  0  0  0  0  0  0  0  0  0
    0.9475    2.2938   -1.5462 N   0  0  0  0  0  0  0  0  0  0  0  0
   -2.6668    0.7787    1.9126 N   0  0  0  0  0  0  0  0  0  0  0  0
   -4.3467   -0.7928    1.8617 N   0  0  0  0  0  0  0  0  0  0  0  0
    2.6914    0.8186   -1.1281 N   0  0  0  0  0  0  0  0  0  0  0  0
    1.8125    1.1177   -3.3519 N   0  0  0  0  0  0  0  0  0  0  0  0
   -0.0149    1.7011    0.5967 C   0  0  1  0  0  0  0  0  0  0  0  0
   -1.4172    2.2513    0.4242 C   0  0  1  0  0  0  0  0  0  0  0  0
    0.8600    2.6771   -0.1541 C   0  0  2  0  0  0  0  0  0  0  0  0
   -2.0508    2.0772    1.7855 C   0  0  2  0  0  0  0  0  0  0  0  0
    0.0977    3.9821   -0.0156 C   0  0  0  0  0  0  0  0  0  0  0  0
   -0.8605    2.2154    2.7180 C   0  0  0  0  0  0  0  0  0  0  0  0
    1.8566    1.3697   -2.0297 C   0  0  0  0  0  0  0  0  0  0  0  0
   -4.0182    0.5460    1.6635 C   0  0  0  0  0  0  0  0  0  0  0  0
   -5.6828   -1.3068    1.6728 C   0  0  0  0  0  0  0  0  0  0  0  0
    3.5642   -0.0775   -1.6338 C   0  0  0  0  0  0  0  0  0  0  0  0
    2.7123    0.2125   -3.7893 C   0  0  0  0  0  0  0  0  0  0  0  0
    3.6211   -0.4234   -2.9685 C   0  0  0  0  0  0  0  0  0  0  0  0
   -5.9103   -1.7762    0.2649 C   0  0  0  0  0  0  0  0  0  0  0  0
    4.4599   -0.6712   -0.6704 C   0  0  0  0  0  0  0  0  0  0  0  0
   -6.3980   -0.8899   -0.6955 C   0  0  0  0  0  0  0  0  0  0  0  0
   -5.6345   -3.0984   -0.0826 C   0  0  0  0  0  0  0  0  0  0  0  0
    5.8388   -0.5171   -0.8145 C   0  0  0  0  0  0  0  0  0  0  0  0
    3.9480   -1.3999    0.4032 C   0  0  0  0  0  0  0  0  0  0  0  0
   -6.6099   -1.3259   -2.0035 C   0  0  0  0  0  0  0  0  0  0  0  0
   -5.8462   -3.5345   -1.3905 C   0  0  0  0  0  0  0  0  0  0  0  0
    6.7058   -1.0917    0.1150 C   0  0  0  0  0  0  0  0  0  0  0  0
    4.8149   -1.9745    1.3327 C   0  0  0  0  0  0  0  0  0  0  0  0
    6.1937   -1.8204    1.1885 C   0  0  0  0  0  0  0  0  0  0  0  0
   -6.3340   -2.6482   -2.3509 C   0  0  0  0  0  0  0  0  0  0  0  0
    6.4498   -3.1111    3.1696 C   0  0  0  0  0  0  0  0  0  0  0  0
    0.0740    0.6588    0.2739 H   0  0  0  0  0  0  0  0  0  0  0  0
   -1.9664    1.7756   -0.3947 H   0  0  0  0  0  0  0  0  0  0  0  0
    1.8593    2.7991    0.2798 H   0  0  0  0  0  0  0  0  0  0  0  0
   -2.8018    2.8440    2.0043 H   0  0  0  0  0  0  0  0  0  0  0  0
    0.3848    4.5066    0.9024 H   0  0  0  0  0  0  0  0  0  0  0  0
    0.2328    4.6679   -0.8578 H   0  0  0  0  0  0  0  0  0  0  0  0
   -0.6758    3.2670    2.9639 H   0  0  0  0  0  0  0  0  0  0  0  0
   -0.9633    1.6560    3.6527 H   0  0  0  0  0  0  0  0  0  0  0  0
    0.2820    2.6733   -2.2101 H   0  0  0  0  0  0  0  0  0  0  0  0
   -2.0761   -0.0178    2.1325 H   0  0  0  0  0  0  0  0  0  0  0  0
   -3.6131   -1.4414    2.1302 H   0  0  0  0  0  0  0  0  0  0  0  0
   -5.8205   -2.1326    2.3800 H   0  0  0  0  0  0  0  0  0  0  0  0
   -6.4138   -0.5346    1.9406 H   0  0  0  0  0  0  0  0  0  0  0  0
    2.6805    0.0043   -4.8535 H   0  0  0  0  0  0  0  0  0  0  0  0
    4.3220   -1.1476   -3.3647 H   0  0  0  0  0  0  0  0  0  0  0  0
   -6.6210    0.1420   -0.4388 H   0  0  0  0  0  0  0  0  0  0  0  0
   -5.2526   -3.7982    0.6560 H   0  0  0  0  0  0  0  0  0  0  0  0
    6.2586    0.0515   -1.6410 H   0  0  0  0  0  0  0  0  0  0  0  0
    2.8759   -1.5327    0.5296 H   0  0  0  0  0  0  0  0  0  0  0  0
   -6.9903   -0.6361   -2.7511 H   0  0  0  0  0  0  0  0  0  0  0  0
   -5.6309   -4.5641   -1.6614 H   0  0  0  0  0  0  0  0  0  0  0  0
    7.7789   -0.9671   -0.0015 H   0  0  0  0  0  0  0  0  0  0  0  0
    4.3505   -2.5276    2.1418 H   0  0  0  0  0  0  0  0  0  0  0  0
   -6.4989   -2.9878   -3.3692 H   0  0  0  0  0  0  0  0  0  0  0  0
    5.8324   -2.4667    3.8045 H   0  0  0  0  0  0  0  0  0  0  0  0
    5.8994   -3.9853    2.8056 H   0  0  0  0  0  0  0  0  0  0  0  0
    7.2678   -3.4856    3.7938 H   0  0  0  0  0  0  0  0  0  0  0  0
  1 11  1  0  0  0  0
  1 14  1  0  0  0  0
  2 10  1  0  0  0  0
  2 15  1  0  0  0  0
  3 17  2  0  0  0  0
  4 32  1  0  0  0  0
  4 34  1  0  0  0  0
  5 12  1  0  0  0  0
  5 16  1  0  0  0  0
  5 43  1  0  0  0  0
  6 13  1  0  0  0  0
  6 17  1  0  0  0  0
  6 44  1  0  0  0  0
  7 17  1  0  0  0  0
  7 18  1  0  0  0  0
  7 45  1  0  0  0  0
  8 16  1  0  0  0  0
  8 19  2  0  0  0  0
  9 16  2  0  0  0  0
  9 20  1  0  0  0  0
 10 11  1  0  0  0  0
 10 12  1  0  0  0  0
 10 35  1  0  0  0  0
 11 13  1  0  0  0  0
 11 36  1  0  0  0  0
 12 14  1  0  0  0  0
 12 37  1  0  0  0  0
 13 15  1  0  0  0  0
 13 38  1  0  0  0  0
 14 39  1  0  0  0  0
 14 40  1  0  0  0  0
 15 41  1  0  0  0  0
 15 42  1  0  0  0  0
 18 22  1  0  0  0  0
 18 46  1  0  0  0  0
 18 47  1  0  0  0  0
 19 21  1  0  0  0  0
 19 23  1  0  0  0  0
 20 21  2  0  0  0  0
 20 48  1  0  0  0  0
 21 49  1  0  0  0  0
 22 24  2  0  0  0  0
 22 25  1  0  0  0  0
 23 26  2  0  0  0  0
 23 27  1  0  0  0  0
 24 28  1  0  0  0  0
 24 50  1  0  0  0  0
 25 29  2  0  0  0  0
 25 51  1  0  0  0  0
 26 30  1  0  0  0  0
 26 52  1  0  0  0  0
 27 31  2  0  0  0  0
 27 53  1  0  0  0  0
 28 33  2  0  0  0  0
 28 54  1  0  0  0  0
 29 33  1  0  0  0  0
 29 55  1  0  0  0  0
 30 32  2  0  0  0  0
 30 56  1  0  0  0  0
 31 32  1  0  0  0  0
 31 57  1  0  0  0  0
 33 58  1  0  0  0  0
 34 59  1  0  0  0  0
 34 60  1  0  0  0  0
 34 61  1  0  0  0  0
M  END
> <PUBCHEM_COMPOUND_CID>
11941657

> <PUBCHEM_CONFORMER_RMSD>
1

> <PUBCHEM_CONFORMER_DIVERSEORDER>
1
43
143
123
218
105
196
181
260
165
87
323
304
309
257
168
113
225
277
106
62
216
132
147
224
66
314
30
269
191
21
313
44
174
35
124
228
245
166
47
79
272
117
312
319
108
118
244
292
29
179
293
164
251
85
305
129
37
294
149
109
296
158
116
240
78
72
98
41
318
299
89
171
324
285
311
34
232
297
207
180
96
254
55
110
25
231
197
33
263
148
17
159
49
67
53
273
321
40
307
119
142
137
236
235
167
204
325
261
95
268
112
97
45
104
146
102
54
276
81
176
162
70
31
101
122
173
32
111
14
178
243
242
68
317
298
247
217
133
290
186
315
121
175
10
300
71
99
153
76
36
128
161
306
190
69
188
255
253
208
239
13
303
91
308
322
214
63
230
295
198
19
275
88
64
209
114
281
20
259
291
140
84
126
183
136
265
18
145
280
92
134
107
77
125
211
185
138
74
274
229
233
279
302
90
256
195
50
187
94
80
234
24
83
283
86
271
258
51
57
267
23
169
202
60
93
170
252
46
287
221
220
301
182
156
326
139
39
212
15
199
28
103
266
213
288
59
48
201
264
241
193
223
227
163
316
155
282
141
73
135
270
3
210
58
226
130
22
189
248
157
61
246
56
65
237
38
120
238
152
250
100
52
115
289
284
12
82
151
150
75
9
6
172
320
26
222
194
278
203
215
205
127
192
286
154
262
184
310
177
249
4
206
144
219
2
7
27
42
131
200
160
5
8
16
11

> <PUBCHEM_MMFF94_PARTIAL_CHARGES>
47
1 -0.56
10 0.28
11 0.28
12 0.37
13 0.3
14 0.28
15 0.28
16 0.72
17 0.69
18 0.44
19 0.31
2 -0.56
20 0.16
21 -0.15
22 -0.14
24 -0.15
25 -0.15
26 -0.15
27 -0.15
28 -0.15
29 -0.15
3 -0.57
30 -0.15
31 -0.15
32 0.08
33 -0.15
34 0.28
4 -0.36
43 0.4
44 0.37
45 0.37
48 0.15
49 0.15
5 -0.87
50 0.15
51 0.15
52 0.15
53 0.15
54 0.15
55 0.15
56 0.15
57 0.15
58 0.15
6 -0.73
7 -0.73
8 -0.62
9 -0.62

> <PUBCHEM_EFFECTIVE_ROTOR_COUNT>
10.2

> <PUBCHEM_PHARMACOPHORE_FEATURES>
14
1 1 acceptor
1 2 acceptor
1 3 acceptor
1 4 acceptor
1 5 donor
1 6 donor
1 7 donor
1 8 acceptor
4 5 8 9 16 cation
5 1 10 11 12 14 rings
5 2 10 11 13 15 rings
6 22 24 25 28 29 33 rings
6 23 26 27 30 31 32 rings
6 8 9 16 19 20 21 rings

> <PUBCHEM_HEAVY_ATOM_COUNT>
34

> <PUBCHEM_ATOM_DEF_STEREO_COUNT>
4

> <PUBCHEM_ATOM_UDEF_STEREO_COUNT>
0

> <PUBCHEM_BOND_DEF_STEREO_COUNT>
0

> <PUBCHEM_BOND_UDEF_STEREO_COUNT>
0

> <PUBCHEM_ISOTOPIC_ATOM_COUNT>
0

> <PUBCHEM_COMPONENT_COUNT>
1

> <PUBCHEM_CACTVS_TAUTO_COUNT>
9

> <PUBCHEM_CONFORMER_ID>
00B6371900000001

> <PUBCHEM_MMFF94_ENERGY>
103.7899

> <PUBCHEM_FEATURE_SELFOVERLAP>
71.806

> <PUBCHEM_SHAPE_FINGERPRINT>
10049733 73 17831569882714592634
10622 236 17677058936666405954
10674148 151 9511456711765280450
10985338 1 17753922659343693222
11135609 149 17749671886823851261
11135926 11 15867497062523565604
11211813 140 18411129239062243339
11227150 75 18262225694647419146
11410812 94 12035738605089971214
11720765 8 17822009856247714964
12559416 39 18411427223529944575
12758862 65 17703505601012640362
13828863 39 12823287987989403808
14068700 675 18411696578033975896
14340393 91 16950270798550953855
14950920 106 15265399975987904351
15163728 17 11314303975582201753
15419009 47 17605264095901307293
15684389 69 17988363792925481352
16067689 391 16878501229124627063
19303781 99 18129375064039846823
19315092 285 18335709317366247856
20156587 161 18336527370332844059
20156587 76 17845352462973430789
21136928 129 14835823137818976074
21223535 225 13768206172145126126
21458453 9 15985099695778471575
21585480 29 15841550790967098743
25222932 49 18343025489137848128
397830 11 14045750318020071957
42767 23 18261667160031278279
42767 28 15502365747518208127
437795 139 18412260666717934191
4394409 98 18412539900017830223
4408954 87 15194997306164179775
444735 79 16702018686258567486
4756261 7 16125815339972161322
50009960 94 17773016752518275311
5047190 6 18041266712711686571
50742298 180 17845376724928241167
636783 38 16915646197570272975
6636735 143 16701750328639493635
6677587 24 16085037825162752140
6712543 237 17845374340851671074
9511036 111 18408595964377641834
9831354 38 18044081570116856411

> <PUBCHEM_SHAPE_MULTIPOLES>
651.32
20.11
4.49
3.66
5.79
1.44
1.4
-26.97
-3.55
3.04
-1.16
-3.29
-0.79
-6.54

> <PUBCHEM_SHAPE_SELFOVERLAP>
1418.482

> <PUBCHEM_SHAPE_VOLUME>
352.8

> <PUBCHEM_COORDINATE_TYPE>
2
5
10

$$$$
