26743880
  -OEChem-12032416193D

 43 46  0     1  0  0  0  0  0999 V2000
    4.9992   -2.5535    1.1164 O   0  0  0  0  0  0  0  0  0  0  0  0
    0.6178   -0.9640   -2.1647 O   0  0  0  0  0  0  0  0  0  0  0  0
    2.7968    0.2043    0.5549 N   0  0  1  0  0  0  0  0  0  0  0  0
   -0.0131   -0.6089   -0.0451 N   0  0  0  0  0  0  0  0  0  0  0  0
    1.1693    2.8873   -1.0592 N   0  0  0  0  0  0  0  0  0  0  0  0
    0.6311    2.3461    1.0263 N   0  0  0  0  0  0  0  0  0  0  0  0
   -0.7824   -0.9991   -2.1641 N   0  0  0  0  0  0  0  0  0  0  0  0
    2.4768   -0.6449   -0.6105 C   0  0  1  0  0  0  0  0  0  0  0  0
    3.1024   -2.0137   -0.2840 C   0  0  0  0  0  0  0  0  0  0  0  0
    3.7899   -1.8222    1.0621 C   0  0  2  0  0  0  0  0  0  0  0  0
    4.0329   -0.3263    1.1267 C   0  0  0  0  0  0  0  0  0  0  0  0
    2.9094    1.6182    0.2217 C   0  0  0  0  0  0  0  0  0  0  0  0
    0.9889   -0.7300   -0.8787 C   0  0  0  0  0  0  0  0  0  0  0  0
    1.5599    2.2745    0.0989 C   0  0  0  0  0  0  0  0  0  0  0  0
   -1.0791   -0.7816   -0.8793 C   0  0  0  0  0  0  0  0  0  0  0  0
   -2.4291   -0.7323   -0.3969 C   0  0  0  0  0  0  0  0  0  0  0  0
   -0.0888    3.3809   -0.8573 C   0  0  0  0  0  0  0  0  0  0  0  0
   -0.3994    3.0346    0.4366 C   0  0  0  0  0  0  0  0  0  0  0  0
   -2.6788   -0.5015    0.9560 C   0  0  0  0  0  0  0  0  0  0  0  0
   -3.4923   -0.9136   -1.2815 C   0  0  0  0  0  0  0  0  0  0  0  0
   -3.9917   -0.4519    1.4243 C   0  0  0  0  0  0  0  0  0  0  0  0
   -4.8053   -0.8642   -0.8131 C   0  0  0  0  0  0  0  0  0  0  0  0
   -5.0551   -0.6331    0.5397 C   0  0  0  0  0  0  0  0  0  0  0  0
   -4.2594   -0.2053    2.8706 C   0  0  0  0  0  0  0  0  0  0  0  0
    2.9709   -0.2633   -1.5151 H   0  0  0  0  0  0  0  0  0  0  0  0
    2.3666   -2.8239   -0.2226 H   0  0  0  0  0  0  0  0  0  0  0  0
    3.8285   -2.2932   -1.0576 H   0  0  0  0  0  0  0  0  0  0  0  0
    3.1362   -2.1461    1.8813 H   0  0  0  0  0  0  0  0  0  0  0  0
    4.1897    0.0064    2.1582 H   0  0  0  0  0  0  0  0  0  0  0  0
    4.9201   -0.0489    0.5422 H   0  0  0  0  0  0  0  0  0  0  0  0
    3.5174    1.7835   -0.6769 H   0  0  0  0  0  0  0  0  0  0  0  0
    3.4211    2.1457    1.0385 H   0  0  0  0  0  0  0  0  0  0  0  0
    4.7784   -3.4926    0.9937 H   0  0  0  0  0  0  0  0  0  0  0  0
    1.7092    2.9614   -1.9112 H   0  0  0  0  0  0  0  0  0  0  0  0
   -0.6284    3.9131   -1.6271 H   0  0  0  0  0  0  0  0  0  0  0  0
   -1.3134    3.2439    0.9730 H   0  0  0  0  0  0  0  0  0  0  0  0
   -1.8629   -0.3585    1.6613 H   0  0  0  0  0  0  0  0  0  0  0  0
   -3.3368   -1.0953   -2.3419 H   0  0  0  0  0  0  0  0  0  0  0  0
   -5.6334   -1.0057   -1.5014 H   0  0  0  0  0  0  0  0  0  0  0  0
   -6.0826   -0.5988    0.8919 H   0  0  0  0  0  0  0  0  0  0  0  0
   -4.2032   -1.1452    3.4286 H   0  0  0  0  0  0  0  0  0  0  0  0
   -3.5316    0.4982    3.2891 H   0  0  0  0  0  0  0  0  0  0  0  0
   -5.2519    0.2320    3.0239 H   0  0  0  0  0  0  0  0  0  0  0  0
  1 10  1  0  0  0  0
  1 33  1  0  0  0  0
  2  7  1  0  0  0  0
  2 13  1  0  0  0  0
  3  8  1  0  0  0  0
  3 11  1  0  0  0  0
  3 12  1  0  0  0  0
  4 13  2  0  0  0  0
  4 15  1  0  0  0  0
  5 14  1  0  0  0  0
  5 17  1  0  0  0  0
  5 34  1  0  0  0  0
  6 14  2  0  0  0  0
  6 18  1  0  0  0  0
  7 15  2  0  0  0  0
  8  9  1  0  0  0  0
  8 13  1  0  0  0  0
  8 25  1  0  0  0  0
  9 10  1  0  0  0  0
  9 26  1  0  0  0  0
  9 27  1  0  0  0  0
 10 11  1  0  0  0  0
 10 28  1  0  0  0  0
 11 29  1  0  0  0  0
 11 30  1  0  0  0  0
 12 14  1  0  0  0  0
 12 31  1  0  0  0  0
 12 32  1  0  0  0  0
 15 16  1  0  0  0  0
 16 19  1  0  0  0  0
 16 20  2  0  0  0  0
 17 18  2  0  0  0  0
 17 35  1  0  0  0  0
 18 36  1  0  0  0  0
 19 21  2  0  0  0  0
 19 37  1  0  0  0  0
 20 22  1  0  0  0  0
 20 38  1  0  0  0  0
 21 23  1  0  0  0  0
 21 24  1  0  0  0  0
 22 23  2  0  0  0  0
 22 39  1  0  0  0  0
 23 40  1  0  0  0  0
 24 41  1  0  0  0  0
 24 42  1  0  0  0  0
 24 43  1  0  0  0  0
M  END
> <PUBCHEM_COMPOUND_CID>
26743880

> <PUBCHEM_CONFORMER_RMSD>
0.8

> <PUBCHEM_CONFORMER_DIVERSEORDER>
1
22
58
37
62
4
52
54
67
17
60
35
11
44
65
59
24
73
13
50
48
31
34
16
71
49
57
39
10
32
47
64
28
55
18
36
63
7
26
69
40
6
45
27
66
51
41
8
68
21
2
43
53
20
25
56
70
38
9
46
23
14
3
42
61
30
12
15
5
72
29
19
33

> <PUBCHEM_MMFF94_PARTIAL_CHARGES>
31
1 -0.68
10 0.28
11 0.27
12 0.45
13 0.3
14 0.01
15 0.46
16 0.05
17 -0.3
18 0.08
19 -0.15
2 -0.02
20 -0.15
21 -0.14
22 -0.15
23 -0.15
24 0.14
3 -0.81
33 0.4
34 0.27
35 0.15
36 0.15
37 0.15
38 0.15
39 0.15
4 -0.57
40 0.15
5 0.03
6 -0.57
7 -0.41
8 0.45

> <PUBCHEM_EFFECTIVE_ROTOR_COUNT>
5

> <PUBCHEM_PHARMACOPHORE_FEATURES>
10
1 1 acceptor
1 1 donor
1 3 cation
1 5 donor
3 4 7 15 cation
3 5 6 14 cation
5 2 4 7 13 15 rings
5 3 8 9 10 11 rings
5 5 6 14 17 18 rings
6 16 19 20 21 22 23 rings

> <PUBCHEM_HEAVY_ATOM_COUNT>
24

> <PUBCHEM_ATOM_DEF_STEREO_COUNT>
2

> <PUBCHEM_ATOM_UDEF_STEREO_COUNT>
0

> <PUBCHEM_BOND_DEF_STEREO_COUNT>
0

> <PUBCHEM_BOND_UDEF_STEREO_COUNT>
0

> <PUBCHEM_ISOTOPIC_ATOM_COUNT>
0

> <PUBCHEM_COMPONENT_COUNT>
1

> <PUBCHEM_CACTVS_TAUTO_COUNT>
1

> <PUBCHEM_CONFORMER_ID>
0198144800000001

> <PUBCHEM_MMFF94_ENERGY>
39.8596

> <PUBCHEM_FEATURE_SELFOVERLAP>
50.749

> <PUBCHEM_SHAPE_FINGERPRINT>
10382601 240 18269557307338567808
10688039 33 18260258621084675244
11086676 242 18342736321521483944
11640471 11 17557711549001798405
12422481 6 17986959556908335993
12553582 1 18411147913284374566
12633257 1 18411423925089194827
12644460 14 18337959003448789772
12824470 246 17242441729945142114
13134695 92 18409443726090634989
13257819 101 13398625056916001514
13583140 156 18117843424462726107
13965767 371 17487350248050015787
14739800 52 16413771912385872632
14790565 3 17832984219639678044
14840074 17 18268136738558288992
15238133 3 18043829597575780573
15420108 30 17486753449907474148
17349148 13 17774720969765807431
17980427 23 17418088832698919053
1813 80 18340774758254178606
20715895 44 17843975750109687713
20739085 24 18342461460656999308
21033648 29 17750216141227283213
21041028 32 18411128113432282076
22182313 1 17557701357635158302
23175994 123 18186517687792722779
23559900 14 16443346507277749039
24893992 56 17968370123821868461
3472631 163 15052021156484753339
474 4 18201448038059801079
484985 159 17174321400952151698
513202 73 18051979117436667870
5283268 108 18342464694667198180
539174 4 17985255520339313893
5895379 119 15984005737617418969
5951187 136 13395570446353168995
6786 2 16670816968735070652
7064713 232 17203338771286545929
7097593 13 18267019642500751615

> <PUBCHEM_SHAPE_MULTIPOLES>
457.27
9.29
3.17
1.89
4.69
3.4
-0.36
-6.32
-4.45
-3.21
0.2
1.61
-0.49
-0.89

> <PUBCHEM_SHAPE_SELFOVERLAP>
997.326

> <PUBCHEM_SHAPE_VOLUME>
250.1

> <PUBCHEM_COORDINATE_TYPE>
2
5
10

$$$$
