11941651
  -OEChem-12032416353D

 54 58  0     1  0  0  0  0  0999 V2000
    8.3018    2.5485   -0.5892 F   0  0  0  0  0  0  0  0  0  0  0  0
    6.3556    3.5014   -0.6782 F   0  0  0  0  0  0  0  0  0  0  0  0
    7.1568    2.8483    1.2350 F   0  0  0  0  0  0  0  0  0  0  0  0
   -1.4105   -3.7327   -0.1985 O   0  0  0  0  0  0  0  0  0  0  0  0
   -1.7880   -1.5079    1.9566 O   0  0  0  0  0  0  0  0  0  0  0  0
    2.7969   -2.7697   -0.0078 O   0  0  0  0  0  0  0  0  0  0  0  0
   -5.2078    1.6881    1.5338 O   0  0  0  0  0  0  0  0  0  0  0  0
   -3.4585   -1.6824   -1.2850 N   0  0  0  0  0  0  0  0  0  0  0  0
    1.1961   -1.5112    1.0871 N   0  0  0  0  0  0  0  0  0  0  0  0
    3.2031   -0.5277    0.5571 N   0  0  0  0  0  0  0  0  0  0  0  0
   -4.5073    0.2671   -0.5061 N   0  0  0  0  0  0  0  0  0  0  0  0
   -4.3545   -0.1979   -2.8657 N   0  0  0  0  0  0  0  0  0  0  0  0
   -1.8525   -1.5080    0.5205 C   0  0  1  0  0  0  0  0  0  0  0  0
   -0.7820   -2.4591    0.0221 C   0  0  1  0  0  0  0  0  0  0  0  0
   -3.1469   -2.1315    0.0543 C   0  0  2  0  0  0  0  0  0  0  0  0
    0.1957   -2.5475    1.1716 C   0  0  2  0  0  0  0  0  0  0  0  0
   -2.8193   -3.6133    0.0482 C   0  0  0  0  0  0  0  0  0  0  0  0
   -0.7033   -2.3476    2.3789 C   0  0  0  0  0  0  0  0  0  0  0  0
   -4.1267   -0.5025   -1.5604 C   0  0  0  0  0  0  0  0  0  0  0  0
    2.4486   -1.7024    0.4914 C   0  0  0  0  0  0  0  0  0  0  0  0
    4.5135   -0.3094    0.0715 C   0  0  0  0  0  0  0  0  0  0  0  0
   -5.1557    1.4102   -0.8112 C   0  0  0  0  0  0  0  0  0  0  0  0
   -5.0077    0.9595   -3.0984 C   0  0  0  0  0  0  0  0  0  0  0  0
   -5.4362    1.8117   -2.1014 C   0  0  0  0  0  0  0  0  0  0  0  0
    5.0992    0.9354    0.2349 C   0  0  0  0  0  0  0  0  0  0  0  0
   -5.5462    2.2026    0.3242 C   0  0  0  0  0  0  0  0  0  0  0  0
    5.1852   -1.3456   -0.5564 C   0  0  0  0  0  0  0  0  0  0  0  0
    6.3921    1.1499   -0.2430 C   0  0  0  0  0  0  0  0  0  0  0  0
    6.4780   -1.1312   -1.0342 C   0  0  0  0  0  0  0  0  0  0  0  0
    7.0815    0.1165   -0.8776 C   0  0  0  0  0  0  0  0  0  0  0  0
   -6.2049    3.3988    0.4705 C   0  0  0  0  0  0  0  0  0  0  0  0
    7.0381    2.4838   -0.0750 C   0  0  0  0  0  0  0  0  0  0  0  0
   -6.2774    3.6373    1.8636 C   0  0  0  0  0  0  0  0  0  0  0  0
   -5.6567    2.5682    2.4669 C   0  0  0  0  0  0  0  0  0  0  0  0
   -1.6913   -0.4772    0.1889 H   0  0  0  0  0  0  0  0  0  0  0  0
   -0.3370   -2.1439   -0.9272 H   0  0  0  0  0  0  0  0  0  0  0  0
   -3.9915   -1.9530    0.7298 H   0  0  0  0  0  0  0  0  0  0  0  0
    0.6996   -3.5184    1.2253 H   0  0  0  0  0  0  0  0  0  0  0  0
   -3.3685   -4.1875   -0.7044 H   0  0  0  0  0  0  0  0  0  0  0  0
   -3.0144   -4.0603    1.0293 H   0  0  0  0  0  0  0  0  0  0  0  0
   -1.1376   -3.2989    2.7054 H   0  0  0  0  0  0  0  0  0  0  0  0
   -0.1996   -1.8873    3.2343 H   0  0  0  0  0  0  0  0  0  0  0  0
   -3.1335   -2.2216   -2.0795 H   0  0  0  0  0  0  0  0  0  0  0  0
    0.9571   -0.5807    1.4169 H   0  0  0  0  0  0  0  0  0  0  0  0
    2.7641    0.2708    1.0086 H   0  0  0  0  0  0  0  0  0  0  0  0
   -5.1828    1.1905   -4.1438 H   0  0  0  0  0  0  0  0  0  0  0  0
   -5.9568    2.7294   -2.3437 H   0  0  0  0  0  0  0  0  0  0  0  0
    4.5630    1.7414    0.7296 H   0  0  0  0  0  0  0  0  0  0  0  0
    4.7881   -2.3370   -0.7162 H   0  0  0  0  0  0  0  0  0  0  0  0
    7.0158   -1.9351   -1.5286 H   0  0  0  0  0  0  0  0  0  0  0  0
    8.0890    0.2640   -1.2563 H   0  0  0  0  0  0  0  0  0  0  0  0
   -6.5907    4.0310   -0.3167 H   0  0  0  0  0  0  0  0  0  0  0  0
   -6.7257    4.4826    2.3654 H   0  0  0  0  0  0  0  0  0  0  0  0
   -5.4624    2.2989    3.4947 H   0  0  0  0  0  0  0  0  0  0  0  0
  1 32  1  0  0  0  0
  2 32  1  0  0  0  0
  3 32  1  0  0  0  0
  4 14  1  0  0  0  0
  4 17  1  0  0  0  0
  5 13  1  0  0  0  0
  5 18  1  0  0  0  0
  6 20  2  0  0  0  0
  7 26  1  0  0  0  0
  7 34  1  0  0  0  0
  8 15  1  0  0  0  0
  8 19  1  0  0  0  0
  8 43  1  0  0  0  0
  9 16  1  0  0  0  0
  9 20  1  0  0  0  0
  9 44  1  0  0  0  0
 10 20  1  0  0  0  0
 10 21  1  0  0  0  0
 10 45  1  0  0  0  0
 11 19  1  0  0  0  0
 11 22  2  0  0  0  0
 12 19  2  0  0  0  0
 12 23  1  0  0  0  0
 13 14  1  0  0  0  0
 13 15  1  0  0  0  0
 13 35  1  0  0  0  0
 14 16  1  0  0  0  0
 14 36  1  0  0  0  0
 15 17  1  0  0  0  0
 15 37  1  0  0  0  0
 16 18  1  0  0  0  0
 16 38  1  0  0  0  0
 17 39  1  0  0  0  0
 17 40  1  0  0  0  0
 18 41  1  0  0  0  0
 18 42  1  0  0  0  0
 21 25  1  0  0  0  0
 21 27  2  0  0  0  0
 22 24  1  0  0  0  0
 22 26  1  0  0  0  0
 23 24  2  0  0  0  0
 23 46  1  0  0  0  0
 24 47  1  0  0  0  0
 25 28  2  0  0  0  0
 25 48  1  0  0  0  0
 26 31  2  0  0  0  0
 27 29  1  0  0  0  0
 27 49  1  0  0  0  0
 28 30  1  0  0  0  0
 28 32  1  0  0  0  0
 29 30  2  0  0  0  0
 29 50  1  0  0  0  0
 30 51  1  0  0  0  0
 31 33  1  0  0  0  0
 31 52  1  0  0  0  0
 33 34  2  0  0  0  0
 33 53  1  0  0  0  0
 34 54  1  0  0  0  0
M  END
> <PUBCHEM_COMPOUND_CID>
11941651

> <PUBCHEM_CONFORMER_RMSD>
1.2

> <PUBCHEM_CONFORMER_DIVERSEORDER>
1
15
300
303
222
199
175
156
287
273
150
202
266
8
190
172
77
271
272
147
49
113
27
139
122
85
253
206
326
234
219
235
89
254
274
241
259
298
316
145
320
193
286
297
246
245
187
184
310
98
159
134
181
242
65
327
153
110
237
248
189
108
258
261
282
216
138
154
120
323
23
270
132
50
131
283
292
141
99
225
289
56
188
205
284
280
240
317
244
158
11
102
230
176
291
223
165
312
229
249
208
62
305
186
142
232
66
106
74
226
163
22
209
180
183
168
71
301
81
155
210
179
161
309
140
152
203
28
214
166
220
51
79
285
279
116
35
318
105
112
129
178
212
238
60
70
295
119
315
308
133
204
217
149
233
324
264
93
201
111
117
252
148
290
83
169
200
44
239
306
302
304
90
80
281
144
262
236
325
299
13
21
31
84
277
228
268
311
185
191
69
231
72
269
192
95
118
94
255
322
143
103
26
87
92
39
321
86
213
197
243
57
97
177
115
33
196
124
9
267
48
125
164
45
123
82
88
314
17
91
96
265
221
296
100
251
127
260
128
151
37
218
53
319
276
78
114
247
126
182
64
16
211
174
14
29
76
5
227
2
294
46
194
275
167
257
7
170
195
146
288
36
130
250
58
278
54
207
104
43
263
171
24
313
173
40
215
162
6
107
73
109
121
136
34
198
55
256
75
160
41
47
10
67
3
224
32
42
307
157
59
52
135
18
101
25
61
63
20
68
293
19
38
12
30
137
4

> <PUBCHEM_MMFF94_PARTIAL_CHARGES>
46
1 -0.34
10 -0.55
11 -0.62
12 -0.62
13 0.28
14 0.28
15 0.37
16 0.3
17 0.28
18 0.28
19 0.72
2 -0.34
20 0.69
21 0.12
22 0.36
23 0.16
24 -0.15
25 -0.15
26 0.09
27 -0.15
28 -0.14
29 -0.15
3 -0.34
30 -0.15
31 -0.15
32 1.16
33 -0.15
34 -0.01
4 -0.56
43 0.4
44 0.37
45 0.37
46 0.15
47 0.15
48 0.15
49 0.15
5 -0.56
50 0.15
51 0.15
52 0.15
53 0.15
54 0.15
6 -0.57
7 -0.28
8 -0.87
9 -0.73

> <PUBCHEM_EFFECTIVE_ROTOR_COUNT>
9.2

> <PUBCHEM_PHARMACOPHORE_FEATURES>
14
1 10 donor
1 11 acceptor
1 4 acceptor
1 5 acceptor
1 6 acceptor
1 7 acceptor
1 8 donor
1 9 donor
4 8 11 12 19 cation
5 4 13 14 15 17 rings
5 5 13 14 16 18 rings
5 7 26 31 33 34 rings
6 11 12 19 22 23 24 rings
6 21 25 27 28 29 30 rings

> <PUBCHEM_HEAVY_ATOM_COUNT>
34

> <PUBCHEM_ATOM_DEF_STEREO_COUNT>
4

> <PUBCHEM_ATOM_UDEF_STEREO_COUNT>
0

> <PUBCHEM_BOND_DEF_STEREO_COUNT>
0

> <PUBCHEM_BOND_UDEF_STEREO_COUNT>
0

> <PUBCHEM_ISOTOPIC_ATOM_COUNT>
0

> <PUBCHEM_COMPONENT_COUNT>
1

> <PUBCHEM_CACTVS_TAUTO_COUNT>
9

> <PUBCHEM_CONFORMER_ID>
00B6371300000001

> <PUBCHEM_MMFF94_ENERGY>
80.6646

> <PUBCHEM_FEATURE_SELFOVERLAP>
71.819

> <PUBCHEM_SHAPE_FINGERPRINT>
10049733 73 11747204762906438584
10369192 42 18411147909659398179
10675989 125 18265896865800388210
10930396 42 16225772896575734297
11007060 377 18040991860958771487
11135609 201 18187083958088505403
11227150 75 11892207313253891273
11476731 99 18060127765593177936
11479125 193 18042118770114642433
11963148 33 10230940845462084260
12013929 29 18271250404758054576
12061779 8 18269558243557452185
13165053 182 18268721678454719936
13627167 48 18268700637266972093
13690498 29 17772743008208748271
13782708 43 9655582911636006390
14150022 121 18115601464746132075
14251764 75 18337111168241057867
14664723 55 18058455301122096977
14765038 42 18409452449290584421
14840074 17 18194962942765665033
15119646 57 18411982468695950431
15131766 46 18263635166350582709
16120349 67 17987803999698961915
16126227 98 18411142437575222489
17852330 134 18059025973711287294
19304152 47 16732981977822315607
19309040 13 18202003179630992103
19315092 285 11819580107303996855
19438510 23 18187366519254078922
20691028 202 18409733932603969913
21033648 29 16516534266425691871
21223535 225 18131345276479457064
21401589 2 17822011982625648283
21774942 28 18342735231153594328
2748736 6 18408876339604567968
2838139 119 18262794056264674238
3610482 184 17560231424169171629
38570 142 18057606474013691899
4258327 124 18196359322902232181
44575985 347 16972236051810010008
50009960 94 12246577583214541964
50677037 204 18335134297848076836
5937810 71 18261122919656778236
6289498 60 17749661987663179796
6712543 237 12540690384495901553

> <PUBCHEM_SHAPE_MULTIPOLES>
629.5
23.58
4.99
2.27
31.3
0.69
-0.61
29.71
-3.87
-1.56
1.82
-5.3
0.66
-2.06

> <PUBCHEM_SHAPE_SELFOVERLAP>
1386.26

> <PUBCHEM_SHAPE_VOLUME>
339.4

> <PUBCHEM_COORDINATE_TYPE>
2
5
10

$$$$
