38029331
  -OEChem-12032416243D

 67 68  0     1  0  0  0  0  0999 V2000
   -0.7747    3.1061    1.7017 O   0  0  0  0  0  0  0  0  0  0  0  0
    1.7956   -2.8722   -1.5271 O   0  0  0  0  0  0  0  0  0  0  0  0
    3.2738   -1.2473   -0.7688 N   0  0  0  0  0  0  0  0  0  0  0  0
   -0.8275    0.9227    2.4960 N   0  0  0  0  0  0  0  0  0  0  0  0
    2.6143   -2.9567    0.6424 N   0  0  0  0  0  0  0  0  0  0  0  0
   -5.9640   -1.3466   -2.5374 N   0  0  0  0  0  0  0  0  0  0  0  0
    1.3609    0.9963   -1.3614 C   0  0  1  0  0  0  0  0  0  0  0  0
    2.8668    0.9600   -1.7233 C   0  0  1  0  0  0  0  0  0  0  0  0
    0.9977    2.3405   -0.7123 C   0  0  0  0  0  0  0  0  0  0  0  0
    1.8136    2.6095    0.5662 C   0  0  2  0  0  0  0  0  0  0  0  0
    0.4752    0.7564   -2.5880 C   0  0  0  0  0  0  0  0  0  0  0  0
    3.2894    2.3341    0.3608 C   0  0  0  0  0  0  0  0  0  0  0  0
    3.7424    1.6063   -0.6755 C   0  0  0  0  0  0  0  0  0  0  0  0
    3.3418   -0.4764   -1.9705 C   0  0  0  0  0  0  0  0  0  0  0  0
    1.2652    1.8061    1.7507 C   0  0  0  0  0  0  0  0  0  0  0  0
   -0.8837    0.2081   -2.1641 C   0  0  0  0  0  0  0  0  0  0  0  0
    0.3130    2.0454   -3.3873 C   0  0  0  0  0  0  0  0  0  0  0  0
    4.2378    2.9535    1.3494 C   0  0  0  0  0  0  0  0  0  0  0  0
   -0.2119    2.0471    1.9659 C   0  0  0  0  0  0  0  0  0  0  0  0
    2.4961   -2.4041   -0.6304 C   0  0  0  0  0  0  0  0  0  0  0  0
   -2.2376    0.8674    2.8061 C   0  0  0  0  0  0  0  0  0  0  0  0
    1.9140   -4.1541    1.0436 C   0  0  0  0  0  0  0  0  0  0  0  0
   -3.0509    0.3842    1.6401 C   0  0  0  0  0  0  0  0  0  0  0  0
    0.5398   -3.8030    1.5986 C   0  0  0  0  0  0  0  0  0  0  0  0
    2.7354   -4.9390    2.0589 C   0  0  0  0  0  0  0  0  0  0  0  0
   -4.0500    1.1959    1.1026 C   0  0  0  0  0  0  0  0  0  0  0  0
   -2.8072   -0.8761    1.0945 C   0  0  0  0  0  0  0  0  0  0  0  0
   -4.8054    0.7470    0.0195 C   0  0  0  0  0  0  0  0  0  0  0  0
   -3.5627   -1.3249    0.0113 C   0  0  0  0  0  0  0  0  0  0  0  0
   -4.5617   -0.5134   -0.5264 C   0  0  0  0  0  0  0  0  0  0  0  0
   -5.3356   -0.9732   -1.6360 C   0  0  0  0  0  0  0  0  0  0  0  0
    1.1534    0.2071   -0.6282 H   0  0  0  0  0  0  0  0  0  0  0  0
    3.0347    1.5221   -2.6505 H   0  0  0  0  0  0  0  0  0  0  0  0
   -0.0773    2.4139   -0.5332 H   0  0  0  0  0  0  0  0  0  0  0  0
    1.2455    3.1676   -1.3914 H   0  0  0  0  0  0  0  0  0  0  0  0
    1.6948    3.6788    0.7915 H   0  0  0  0  0  0  0  0  0  0  0  0
    0.9268    0.0055   -3.2442 H   0  0  0  0  0  0  0  0  0  0  0  0
    4.8162    1.4805   -0.7996 H   0  0  0  0  0  0  0  0  0  0  0  0
    4.3927   -0.4780   -2.2846 H   0  0  0  0  0  0  0  0  0  0  0  0
    2.7769   -0.9625   -2.7704 H   0  0  0  0  0  0  0  0  0  0  0  0
    1.7693    2.0978    2.6802 H   0  0  0  0  0  0  0  0  0  0  0  0
    1.4588    0.7359    1.6077 H   0  0  0  0  0  0  0  0  0  0  0  0
   -1.5055    0.0036   -3.0426 H   0  0  0  0  0  0  0  0  0  0  0  0
   -0.7697   -0.7336   -1.6164 H   0  0  0  0  0  0  0  0  0  0  0  0
   -1.4342    0.9078   -1.5281 H   0  0  0  0  0  0  0  0  0  0  0  0
    1.2701    2.5197   -3.6234 H   0  0  0  0  0  0  0  0  0  0  0  0
   -0.1629    1.8145   -4.3485 H   0  0  0  0  0  0  0  0  0  0  0  0
   -0.3418    2.7754   -2.9000 H   0  0  0  0  0  0  0  0  0  0  0  0
    4.0902    4.0375    1.3896 H   0  0  0  0  0  0  0  0  0  0  0  0
    5.2852    2.7736    1.0844 H   0  0  0  0  0  0  0  0  0  0  0  0
    4.0765    2.5419    2.3501 H   0  0  0  0  0  0  0  0  0  0  0  0
    3.8704   -0.9847    0.0099 H   0  0  0  0  0  0  0  0  0  0  0  0
   -0.2767    0.0888    2.6782 H   0  0  0  0  0  0  0  0  0  0  0  0
   -2.5655    1.8607    3.1333 H   0  0  0  0  0  0  0  0  0  0  0  0
   -2.3666    0.1834    3.6523 H   0  0  0  0  0  0  0  0  0  0  0  0
    3.1559   -2.4530    1.3384 H   0  0  0  0  0  0  0  0  0  0  0  0
    1.7747   -4.7817    0.1550 H   0  0  0  0  0  0  0  0  0  0  0  0
   -0.0077   -4.7051    1.8905 H   0  0  0  0  0  0  0  0  0  0  0  0
   -0.0600   -3.2718    0.8513 H   0  0  0  0  0  0  0  0  0  0  0  0
    0.6201   -3.1524    2.4768 H   0  0  0  0  0  0  0  0  0  0  0  0
    2.2263   -5.8660    2.3423 H   0  0  0  0  0  0  0  0  0  0  0  0
    3.7147   -5.2026    1.6447 H   0  0  0  0  0  0  0  0  0  0  0  0
    2.9094   -4.3532    2.9684 H   0  0  0  0  0  0  0  0  0  0  0  0
   -4.2503    2.1805    1.5166 H   0  0  0  0  0  0  0  0  0  0  0  0
   -2.0344   -1.5201    1.5057 H   0  0  0  0  0  0  0  0  0  0  0  0
   -5.5803    1.3913   -0.3889 H   0  0  0  0  0  0  0  0  0  0  0  0
   -3.3604   -2.3096   -0.4032 H   0  0  0  0  0  0  0  0  0  0  0  0
  1 19  2  0  0  0  0
  2 20  2  0  0  0  0
  3 14  1  0  0  0  0
  3 20  1  0  0  0  0
  3 52  1  0  0  0  0
  4 19  1  0  0  0  0
  4 21  1  0  0  0  0
  4 53  1  0  0  0  0
  5 20  1  0  0  0  0
  5 22  1  0  0  0  0
  5 56  1  0  0  0  0
  6 31  3  0  0  0  0
  7  8  1  0  0  0  0
  7  9  1  0  0  0  0
  7 11  1  0  0  0  0
  7 32  1  0  0  0  0
  8 13  1  0  0  0  0
  8 14  1  0  0  0  0
  8 33  1  0  0  0  0
  9 10  1  0  0  0  0
  9 34  1  0  0  0  0
  9 35  1  0  0  0  0
 10 12  1  0  0  0  0
 10 15  1  0  0  0  0
 10 36  1  0  0  0  0
 11 16  1  0  0  0  0
 11 17  1  0  0  0  0
 11 37  1  0  0  0  0
 12 13  2  0  0  0  0
 12 18  1  0  0  0  0
 13 38  1  0  0  0  0
 14 39  1  0  0  0  0
 14 40  1  0  0  0  0
 15 19  1  0  0  0  0
 15 41  1  0  0  0  0
 15 42  1  0  0  0  0
 16 43  1  0  0  0  0
 16 44  1  0  0  0  0
 16 45  1  0  0  0  0
 17 46  1  0  0  0  0
 17 47  1  0  0  0  0
 17 48  1  0  0  0  0
 18 49  1  0  0  0  0
 18 50  1  0  0  0  0
 18 51  1  0  0  0  0
 21 23  1  0  0  0  0
 21 54  1  0  0  0  0
 21 55  1  0  0  0  0
 22 24  1  0  0  0  0
 22 25  1  0  0  0  0
 22 57  1  0  0  0  0
 23 26  2  0  0  0  0
 23 27  1  0  0  0  0
 24 58  1  0  0  0  0
 24 59  1  0  0  0  0
 24 60  1  0  0  0  0
 25 61  1  0  0  0  0
 25 62  1  0  0  0  0
 25 63  1  0  0  0  0
 26 28  1  0  0  0  0
 26 64  1  0  0  0  0
 27 29  2  0  0  0  0
 27 65  1  0  0  0  0
 28 30  2  0  0  0  0
 28 66  1  0  0  0  0
 29 30  1  0  0  0  0
 29 67  1  0  0  0  0
 30 31  1  0  0  0  0
M  END
> <PUBCHEM_COMPOUND_CID>
38029331

> <PUBCHEM_CONFORMER_RMSD>
1

> <PUBCHEM_CONFORMER_DIVERSEORDER>
1
29
70
140
43
192
104
137
189
198
194
35
132
205
89
42
108
72
130
151
40
88
48
63
185
168
122
135
154
38
16
110
190
61
211
86
84
174
22
68
74
109
156
201
54
204
36
73
60
186
93
157
117
161
113
184
195
131
10
53
66
20
81
114
98
212
162
141
133
62
213
46
172
103
191
118
139
3
91
45
209
87
143
85
26
15
125
49
27
196
30
123
7
182
44
115
65
94
105
4
69
79
197
203
144
134
175
119
56
214
163
52
59
129
215
95
120
75
180
51
14
18
58
127
31
17
28
96
83
207
124
155
183
97
193
112
100
32
90
76
153
121
12
179
116
8
173
181
102
176
24
159
169
152
149
199
177
148
78
57
145
2
210
170
80
202
166
37
6
147
5
111
101
142
208
77
9
55
167
160
128
50
106
138
188
164
99
150
25
21
136
171
39
47
178
11
64
206
187
92
33
126
158
19
82
200
34
146
23
107
71
41
165
67
13

> <PUBCHEM_MMFF94_PARTIAL_CHARGES>
32
1 -0.57
10 0.14
12 -0.28
13 -0.29
14 0.3
15 0.06
18 0.14
19 0.57
2 -0.57
20 0.69
21 0.44
22 0.3
23 -0.14
26 -0.15
27 -0.15
28 -0.15
29 -0.15
3 -0.73
30 0.07
31 0.48
38 0.15
4 -0.73
5 -0.73
52 0.37
53 0.37
56 0.37
6 -0.56
64 0.15
65 0.15
66 0.15
67 0.15
8 0.14

> <PUBCHEM_EFFECTIVE_ROTOR_COUNT>
11.8

> <PUBCHEM_PHARMACOPHORE_FEATURES>
10
1 1 acceptor
1 2 acceptor
1 3 donor
1 4 donor
1 5 donor
1 6 acceptor
3 11 16 17 hydrophobe
3 22 24 25 hydrophobe
6 23 26 27 28 29 30 rings
6 7 8 9 10 12 13 rings

> <PUBCHEM_HEAVY_ATOM_COUNT>
31

> <PUBCHEM_ATOM_DEF_STEREO_COUNT>
3

> <PUBCHEM_ATOM_UDEF_STEREO_COUNT>
0

> <PUBCHEM_BOND_DEF_STEREO_COUNT>
0

> <PUBCHEM_BOND_UDEF_STEREO_COUNT>
0

> <PUBCHEM_ISOTOPIC_ATOM_COUNT>
0

> <PUBCHEM_COMPONENT_COUNT>
1

> <PUBCHEM_CACTVS_TAUTO_COUNT>
6

> <PUBCHEM_CONFORMER_ID>
0244481300000001

> <PUBCHEM_MMFF94_ENERGY>
51.9201

> <PUBCHEM_FEATURE_SELFOVERLAP>
50.794

> <PUBCHEM_SHAPE_FINGERPRINT>
11370993 70 18192717958125562065
12156800 1 16448940602990157842
13383668 262 17905578319955138199
14114207 22 18045189796438445626
14251757 17 16516549693584085735
14674994 50 17107902029357741902
19026451 147 18201711856025596319
19315092 285 18269254851320009463
20764821 26 17045720789715699115
20775530 9 17755589243819732874
25222932 49 17773319148311962679
35225 105 17333668557055912966
463206 1 18270137754476602379
5081480 168 17314504821556721225
513532 50 17532071887441174223

> <PUBCHEM_SHAPE_MULTIPOLES>
606.3
9.29
5.17
3.31
12.47
7.89
-0.78
0.44
-2.85
-7.05
2.98
1
-1.16
-1.24

> <PUBCHEM_SHAPE_SELFOVERLAP>
1238.685

> <PUBCHEM_SHAPE_VOLUME>
347.7

> <PUBCHEM_COORDINATE_TYPE>
2
5
10

$$$$
