28959856
  -OEChem-12032416273D

 62 64  0     1  0  0  0  0  0999 V2000
    2.7243    3.5833    1.3550 O   0  0  0  0  0  0  0  0  0  0  0  0
    5.2439   -4.2914    0.8262 O   0  0  0  0  0  0  0  0  0  0  0  0
    6.4390   -2.3937    0.4377 O   0  0  0  0  0  0  0  0  0  0  0  0
    0.6659    4.3726    0.1185 O   0  0  0  0  0  0  0  0  0  0  0  0
    3.2605    1.8461   -0.0914 N   0  0  0  0  0  0  0  0  0  0  0  0
   -0.8611   -1.0524   -0.6930 N   0  0  0  0  0  0  0  0  0  0  0  0
   -3.6574   -0.7217   -0.2137 N   0  0  0  0  0  0  0  0  0  0  0  0
    2.8797   -0.4342   -1.0017 C   0  0  2  0  0  0  0  0  0  0  0  0
    4.1025   -0.9242   -0.1848 C   0  0  1  0  0  0  0  0  0  0  0  0
    3.0267    1.0662   -1.3135 C   0  0  0  0  0  0  0  0  0  0  0  0
    4.3403   -0.0489    1.0574 C   0  0  0  0  0  0  0  0  0  0  0  0
    1.5296   -0.7082   -0.3274 C   0  0  0  0  0  0  0  0  0  0  0  0
    4.4273    1.4291    0.6859 C   0  0  0  0  0  0  0  0  0  0  0  0
    0.4169   -0.8085   -1.3610 C   0  0  0  0  0  0  0  0  0  0  0  0
    4.0127   -2.3995    0.2046 C   0  0  0  0  0  0  0  0  0  0  0  0
   -1.8459   -1.5831   -1.6433 C   0  0  0  0  0  0  0  0  0  0  0  0
   -1.3690    0.1841   -0.0859 C   0  0  0  0  0  0  0  0  0  0  0  0
    2.4909    2.9273    0.3366 C   0  0  0  0  0  0  0  0  0  0  0  0
   -3.1716   -1.8958   -0.9450 C   0  0  0  0  0  0  0  0  0  0  0  0
   -2.6779   -0.0703    0.6650 C   0  0  0  0  0  0  0  0  0  0  0  0
    5.3694   -2.9817    0.4903 C   0  0  0  0  0  0  0  0  0  0  0  0
    1.3037    3.2924   -0.5184 C   0  0  0  0  0  0  0  0  0  0  0  0
   -5.0114   -0.6276    0.1272 C   0  0  0  0  0  0  0  0  0  0  0  0
   -5.7528   -1.7849    0.3654 C   0  0  0  0  0  0  0  0  0  0  0  0
   -5.6195    0.6234    0.2288 C   0  0  0  0  0  0  0  0  0  0  0  0
   -7.1024   -1.6911    0.7051 C   0  0  0  0  0  0  0  0  0  0  0  0
   -6.9691    0.7174    0.5686 C   0  0  0  0  0  0  0  0  0  0  0  0
   -0.4843    4.8153   -0.5998 C   0  0  0  0  0  0  0  0  0  0  0  0
   -7.7106   -0.4399    0.8066 C   0  0  0  0  0  0  0  0  0  0  0  0
    2.9027   -0.9748   -1.9581 H   0  0  0  0  0  0  0  0  0  0  0  0
    4.9751   -0.7931   -0.8417 H   0  0  0  0  0  0  0  0  0  0  0  0
    3.9024    1.2242   -1.9559 H   0  0  0  0  0  0  0  0  0  0  0  0
    2.1679    1.4346   -1.8759 H   0  0  0  0  0  0  0  0  0  0  0  0
    1.3319    0.0579    0.4274 H   0  0  0  0  0  0  0  0  0  0  0  0
    1.5528   -1.6598    0.2144 H   0  0  0  0  0  0  0  0  0  0  0  0
    5.2620   -0.3394    1.5730 H   0  0  0  0  0  0  0  0  0  0  0  0
    3.5192   -0.1904    1.7716 H   0  0  0  0  0  0  0  0  0  0  0  0
    4.5267    2.0315    1.5944 H   0  0  0  0  0  0  0  0  0  0  0  0
    5.3151    1.6178    0.0708 H   0  0  0  0  0  0  0  0  0  0  0  0
    0.6552   -1.6543   -2.0197 H   0  0  0  0  0  0  0  0  0  0  0  0
    0.3661    0.0811   -1.9998 H   0  0  0  0  0  0  0  0  0  0  0  0
    3.3903   -2.5374    1.0956 H   0  0  0  0  0  0  0  0  0  0  0  0
    3.5852   -2.9762   -0.6242 H   0  0  0  0  0  0  0  0  0  0  0  0
   -1.4745   -2.5113   -2.0946 H   0  0  0  0  0  0  0  0  0  0  0  0
   -2.0190   -0.8689   -2.4598 H   0  0  0  0  0  0  0  0  0  0  0  0
   -1.5351    0.9531   -0.8528 H   0  0  0  0  0  0  0  0  0  0  0  0
   -0.6632    0.5983    0.6402 H   0  0  0  0  0  0  0  0  0  0  0  0
   -3.8944   -2.2027   -1.7113 H   0  0  0  0  0  0  0  0  0  0  0  0
   -3.0323   -2.7360   -0.2525 H   0  0  0  0  0  0  0  0  0  0  0  0
   -2.4946   -0.7109    1.5375 H   0  0  0  0  0  0  0  0  0  0  0  0
   -3.0460    0.8907    1.0423 H   0  0  0  0  0  0  0  0  0  0  0  0
    0.6202    2.4416   -0.5838 H   0  0  0  0  0  0  0  0  0  0  0  0
    1.6500    3.5958   -1.5117 H   0  0  0  0  0  0  0  0  0  0  0  0
    6.1125   -4.7040    1.0200 H   0  0  0  0  0  0  0  0  0  0  0  0
   -5.3089   -2.7748    0.3095 H   0  0  0  0  0  0  0  0  0  0  0  0
   -5.0630    1.5363    0.0332 H   0  0  0  0  0  0  0  0  0  0  0  0
   -7.6794   -2.5917    0.8936 H   0  0  0  0  0  0  0  0  0  0  0  0
   -7.4437    1.6913    0.6446 H   0  0  0  0  0  0  0  0  0  0  0  0
   -8.7614   -0.3668    1.0711 H   0  0  0  0  0  0  0  0  0  0  0  0
   -0.9293    5.6511   -0.0535 H   0  0  0  0  0  0  0  0  0  0  0  0
   -1.2212    4.0093   -0.6716 H   0  0  0  0  0  0  0  0  0  0  0  0
   -0.2004    5.1588   -1.5991 H   0  0  0  0  0  0  0  0  0  0  0  0
  1 18  2  0  0  0  0
  2 21  1  0  0  0  0
  2 54  1  0  0  0  0
  3 21  2  0  0  0  0
  4 22  1  0  0  0  0
  4 28  1  0  0  0  0
  5 10  1  0  0  0  0
  5 13  1  0  0  0  0
  5 18  1  0  0  0  0
  6 14  1  0  0  0  0
  6 16  1  0  0  0  0
  6 17  1  0  0  0  0
  7 19  1  0  0  0  0
  7 20  1  0  0  0  0
  7 23  1  0  0  0  0
  8  9  1  0  0  0  0
  8 10  1  0  0  0  0
  8 12  1  0  0  0  0
  8 30  1  0  0  0  0
  9 11  1  0  0  0  0
  9 15  1  0  0  0  0
  9 31  1  0  0  0  0
 10 32  1  0  0  0  0
 10 33  1  0  0  0  0
 11 13  1  0  0  0  0
 11 36  1  0  0  0  0
 11 37  1  0  0  0  0
 12 14  1  0  0  0  0
 12 34  1  0  0  0  0
 12 35  1  0  0  0  0
 13 38  1  0  0  0  0
 13 39  1  0  0  0  0
 14 40  1  0  0  0  0
 14 41  1  0  0  0  0
 15 21  1  0  0  0  0
 15 42  1  0  0  0  0
 15 43  1  0  0  0  0
 16 19  1  0  0  0  0
 16 44  1  0  0  0  0
 16 45  1  0  0  0  0
 17 20  1  0  0  0  0
 17 46  1  0  0  0  0
 17 47  1  0  0  0  0
 18 22  1  0  0  0  0
 19 48  1  0  0  0  0
 19 49  1  0  0  0  0
 20 50  1  0  0  0  0
 20 51  1  0  0  0  0
 22 52  1  0  0  0  0
 22 53  1  0  0  0  0
 23 24  2  0  0  0  0
 23 25  1  0  0  0  0
 24 26  1  0  0  0  0
 24 55  1  0  0  0  0
 25 27  2  0  0  0  0
 25 56  1  0  0  0  0
 26 29  2  0  0  0  0
 26 57  1  0  0  0  0
 27 29  1  0  0  0  0
 27 58  1  0  0  0  0
 28 60  1  0  0  0  0
 28 61  1  0  0  0  0
 28 62  1  0  0  0  0
 29 59  1  0  0  0  0
M  END
> <PUBCHEM_COMPOUND_CID>
28959856

> <PUBCHEM_CONFORMER_RMSD>
1

> <PUBCHEM_CONFORMER_DIVERSEORDER>
1
59
216
206
98
78
121
207
177
119
191
221
67
208
58
229
82
85
199
55
94
138
220
108
44
130
87
51
92
180
185
89
160
68
217
223
200
115
117
189
69
194
142
135
109
36
65
136
37
203
210
198
205
73
165
28
6
124
218
183
93
167
43
163
42
137
129
196
148
145
225
40
105
15
107
71
175
154
197
66
27
192
114
84
230
178
74
25
101
70
157
214
46
50
41
19
125
155
149
140
215
174
147
21
60
224
35
90
86
79
211
62
152
169
143
54
158
11
96
17
123
202
122
95
102
133
7
100
22
56
24
186
227
16
146
77
166
106
131
47
170
173
104
128
187
212
134
49
144
201
30
12
23
63
209
176
110
53
111
64
39
33
34
52
29
18
195
150
190
72
31
171
103
156
141
75
164
184
32
5
8
76
159
83
61
88
193
112
219
188
48
151
179
127
13
81
153
228
161
226
132
204
91
57
213
26
168
113
45
120
162
172
139
222
182
181
2
20
126
97
4
99
38
118
3
10
14
116
9
80

> <PUBCHEM_MMFF94_PARTIAL_CHARGES>
31
1 -0.57
10 0.3
13 0.3
14 0.27
15 0.06
16 0.27
17 0.27
18 0.57
19 0.37
2 -0.65
20 0.37
21 0.66
22 0.34
23 0.1
24 -0.15
25 -0.15
26 -0.15
27 -0.15
28 0.28
29 -0.15
3 -0.57
4 -0.56
5 -0.66
54 0.5
55 0.15
56 0.15
57 0.15
58 0.15
59 0.15
6 -0.81
7 -0.84

> <PUBCHEM_EFFECTIVE_ROTOR_COUNT>
11.4

> <PUBCHEM_PHARMACOPHORE_FEATURES>
10
1 1 acceptor
1 2 acceptor
1 3 acceptor
1 4 acceptor
1 6 cation
1 7 cation
3 2 3 21 anion
6 23 24 25 26 27 29 rings
6 5 8 9 10 11 13 rings
6 6 7 16 17 19 20 rings

> <PUBCHEM_HEAVY_ATOM_COUNT>
29

> <PUBCHEM_ATOM_DEF_STEREO_COUNT>
2

> <PUBCHEM_ATOM_UDEF_STEREO_COUNT>
0

> <PUBCHEM_BOND_DEF_STEREO_COUNT>
0

> <PUBCHEM_BOND_UDEF_STEREO_COUNT>
0

> <PUBCHEM_ISOTOPIC_ATOM_COUNT>
0

> <PUBCHEM_COMPONENT_COUNT>
1

> <PUBCHEM_CACTVS_TAUTO_COUNT>
1

> <PUBCHEM_CONFORMER_ID>
01B9E47000000001

> <PUBCHEM_MMFF94_ENERGY>
76.8701

> <PUBCHEM_FEATURE_SELFOVERLAP>
50.823

> <PUBCHEM_SHAPE_FINGERPRINT>
10688039 33 18260830379963656396
11186622 174 18411414038654137173
12107183 9 18343301444638965511
12166972 35 18040443174217395325
12422481 6 18409730695005880453
12616971 3 18131347527443234047
13150687 139 9078826425444316186
13533116 47 18334296478376880314
13673619 4 17749108842486728798
13782708 43 17675926517194964803
13785724 45 18341621369322683734
14114211 80 17467921113284009124
15183329 4 17917160480883570601
15348495 7 18335987566600901435
15419008 47 17967525753718385845
15420108 30 17558253587482142476
15475509 84 18339079268469569932
15927050 60 10268361074181969212
16760501 71 18269840977206772205
19301679 30 18335977555116205778
20715895 44 18131357401799809297
21304303 94 10665228138290815680
21315764 268 18409447012394575245
21344244 78 18343011169574504642
21792934 111 18341889663603763233
23559900 14 17531258304460250263
3004659 81 17917721209436637687
345986 75 17969768693051332514
3680242 22 18342464750686324633
4073 2 18117564139444622051
4144715 1 18335147496883178003
5104073 3 18341624750042454451
60111433 81 16844159259100467201
86090 222 17312824844630400018

> <PUBCHEM_SHAPE_MULTIPOLES>
558.39
18
5.02
1.16
25.65
5.14
0.22
-12.73
-6.82
-7.84
-0.52
-0.27
-0.1
-0.67

> <PUBCHEM_SHAPE_SELFOVERLAP>
1148.605

> <PUBCHEM_SHAPE_VOLUME>
318.4

> <PUBCHEM_COORDINATE_TYPE>
2
5
10

$$$$
