25389521
  -OEChem-12032416163D

 64 68  0     1  0  0  0  0  0999 V2000
   -3.3466    2.0980   -0.0150 O   0  0  0  0  0  0  0  0  0  0  0  0
   -2.7599    3.2361    1.8917 O   0  0  0  0  0  0  0  0  0  0  0  0
   -4.3175   -1.4532    0.5145 N   0  0  2  0  0  0  0  0  0  0  0  0
   -0.0604   -3.5765    0.6409 N   0  0  0  0  0  0  0  0  0  0  0  0
    1.2544   -3.3251    0.7598 N   0  0  0  0  0  0  0  0  0  0  0  0
   -2.7974    4.2841   -0.1779 N   0  0  0  0  0  0  0  0  0  0  0  0
   -2.8134   -1.9875   -1.5435 C   0  0  2  0  0  0  0  0  0  0  0  0
   -2.2505   -2.6706   -0.2665 C   0  0  2  0  0  0  0  0  0  0  0  0
   -3.9783   -0.1982   -0.2066 C   0  0  2  0  0  0  0  0  0  0  0  0
   -2.9242   -0.4672   -1.3021 C   0  0  0  0  0  0  0  0  0  0  0  0
   -4.2488   -2.5216   -1.7381 C   0  0  0  0  0  0  0  0  0  0  0  0
   -3.0761   -2.1451    0.9425 C   0  0  0  0  0  0  0  0  0  0  0  0
   -5.0388   -2.3393   -0.4304 C   0  0  0  0  0  0  0  0  0  0  0  0
   -0.7509   -2.6005   -0.0157 C   0  0  0  0  0  0  0  0  0  0  0  0
   -3.5415    0.9196    0.7427 C   0  0  0  0  0  0  0  0  0  0  0  0
    0.1766   -1.6440   -0.3493 C   0  0  0  0  0  0  0  0  0  0  0  0
    1.3932   -2.1434    0.1529 C   0  0  0  0  0  0  0  0  0  0  0  0
   -0.5982   -4.7976    1.1946 C   0  0  0  0  0  0  0  0  0  0  0  0
    2.6845   -1.5126    0.0657 C   0  0  0  0  0  0  0  0  0  0  0  0
   -2.9484    3.2149    0.6797 C   0  0  0  0  0  0  0  0  0  0  0  0
    2.7800   -0.1210    0.0362 C   0  0  0  0  0  0  0  0  0  0  0  0
    3.8366   -2.2914    0.0115 C   0  0  0  0  0  0  0  0  0  0  0  0
    4.0320    0.5096   -0.0481 C   0  0  0  0  0  0  0  0  0  0  0  0
    5.0887   -1.6817   -0.0725 C   0  0  0  0  0  0  0  0  0  0  0  0
   -2.3871    5.6022    0.2480 C   0  0  0  0  0  0  0  0  0  0  0  0
    5.2036   -0.2824   -0.1033 C   0  0  0  0  0  0  0  0  0  0  0  0
   -0.8737    5.7779    0.2152 C   0  0  0  0  0  0  0  0  0  0  0  0
    4.1470    1.9090   -0.0790 C   0  0  0  0  0  0  0  0  0  0  0  0
    6.4556    0.3483   -0.1878 C   0  0  0  0  0  0  0  0  0  0  0  0
    5.3990    2.5187   -0.1631 C   0  0  0  0  0  0  0  0  0  0  0  0
    6.5512    1.7399   -0.2174 C   0  0  0  0  0  0  0  0  0  0  0  0
   -0.2909    5.6009   -1.1797 C   0  0  0  0  0  0  0  0  0  0  0  0
   -2.1940   -2.1996   -2.4213 H   0  0  0  0  0  0  0  0  0  0  0  0
   -2.4844   -3.7396   -0.3827 H   0  0  0  0  0  0  0  0  0  0  0  0
   -4.8873    0.1702   -0.7050 H   0  0  0  0  0  0  0  0  0  0  0  0
   -1.9591   -0.0334   -1.0372 H   0  0  0  0  0  0  0  0  0  0  0  0
   -3.2400    0.0235   -2.2316 H   0  0  0  0  0  0  0  0  0  0  0  0
   -4.2288   -3.5818   -2.0164 H   0  0  0  0  0  0  0  0  0  0  0  0
   -4.7401   -1.9809   -2.5561 H   0  0  0  0  0  0  0  0  0  0  0  0
   -3.3500   -2.9925    1.5849 H   0  0  0  0  0  0  0  0  0  0  0  0
   -2.4770   -1.4916    1.5869 H   0  0  0  0  0  0  0  0  0  0  0  0
   -6.0307   -1.9250   -0.6492 H   0  0  0  0  0  0  0  0  0  0  0  0
   -5.2246   -3.3128    0.0409 H   0  0  0  0  0  0  0  0  0  0  0  0
   -2.6072    0.6673    1.2563 H   0  0  0  0  0  0  0  0  0  0  0  0
   -4.3211    1.0950    1.4942 H   0  0  0  0  0  0  0  0  0  0  0  0
    0.0131   -0.7266   -0.8925 H   0  0  0  0  0  0  0  0  0  0  0  0
   -0.9479   -5.4255    0.3716 H   0  0  0  0  0  0  0  0  0  0  0  0
    0.1851   -5.3209    1.7498 H   0  0  0  0  0  0  0  0  0  0  0  0
   -1.4171   -4.5468    1.8722 H   0  0  0  0  0  0  0  0  0  0  0  0
    1.8845    0.4964    0.0897 H   0  0  0  0  0  0  0  0  0  0  0  0
    3.7937   -3.3779    0.0241 H   0  0  0  0  0  0  0  0  0  0  0  0
   -2.9816    4.1340   -1.1652 H   0  0  0  0  0  0  0  0  0  0  0  0
    5.9760   -2.3100   -0.1157 H   0  0  0  0  0  0  0  0  0  0  0  0
   -2.7560    5.7771    1.2646 H   0  0  0  0  0  0  0  0  0  0  0  0
   -2.8725    6.3245   -0.4167 H   0  0  0  0  0  0  0  0  0  0  0  0
   -0.6234    6.7801    0.5817 H   0  0  0  0  0  0  0  0  0  0  0  0
   -0.3986    5.0583    0.8926 H   0  0  0  0  0  0  0  0  0  0  0  0
    3.2601    2.5380   -0.0379 H   0  0  0  0  0  0  0  0  0  0  0  0
    7.3695   -0.2406   -0.2314 H   0  0  0  0  0  0  0  0  0  0  0  0
    5.4741    3.6020   -0.1862 H   0  0  0  0  0  0  0  0  0  0  0  0
    7.5256    2.2152   -0.2829 H   0  0  0  0  0  0  0  0  0  0  0  0
   -0.4423    4.5827   -1.5516 H   0  0  0  0  0  0  0  0  0  0  0  0
   -0.7488    6.2991   -1.8875 H   0  0  0  0  0  0  0  0  0  0  0  0
    0.7867    5.7929   -1.1637 H   0  0  0  0  0  0  0  0  0  0  0  0
  1 15  1  0  0  0  0
  1 20  1  0  0  0  0
  2 20  2  0  0  0  0
  3  9  1  0  0  0  0
  3 12  1  0  0  0  0
  3 13  1  0  0  0  0
  4  5  1  0  0  0  0
  4 14  1  0  0  0  0
  4 18  1  0  0  0  0
  5 17  2  0  0  0  0
  6 20  1  0  0  0  0
  6 25  1  0  0  0  0
  6 52  1  0  0  0  0
  7  8  1  0  0  0  0
  7 10  1  0  0  0  0
  7 11  1  0  0  0  0
  7 33  1  0  0  0  0
  8 12  1  0  0  0  0
  8 14  1  0  0  0  0
  8 34  1  0  0  0  0
  9 10  1  0  0  0  0
  9 15  1  0  0  0  0
  9 35  1  0  0  0  0
 10 36  1  0  0  0  0
 10 37  1  0  0  0  0
 11 13  1  0  0  0  0
 11 38  1  0  0  0  0
 11 39  1  0  0  0  0
 12 40  1  0  0  0  0
 12 41  1  0  0  0  0
 13 42  1  0  0  0  0
 13 43  1  0  0  0  0
 14 16  2  0  0  0  0
 15 44  1  0  0  0  0
 15 45  1  0  0  0  0
 16 17  1  0  0  0  0
 16 46  1  0  0  0  0
 17 19  1  0  0  0  0
 18 47  1  0  0  0  0
 18 48  1  0  0  0  0
 18 49  1  0  0  0  0
 19 21  2  0  0  0  0
 19 22  1  0  0  0  0
 21 23  1  0  0  0  0
 21 50  1  0  0  0  0
 22 24  2  0  0  0  0
 22 51  1  0  0  0  0
 23 26  1  0  0  0  0
 23 28  2  0  0  0  0
 24 26  1  0  0  0  0
 24 53  1  0  0  0  0
 25 27  1  0  0  0  0
 25 54  1  0  0  0  0
 25 55  1  0  0  0  0
 26 29  2  0  0  0  0
 27 32  1  0  0  0  0
 27 56  1  0  0  0  0
 27 57  1  0  0  0  0
 28 30  1  0  0  0  0
 28 58  1  0  0  0  0
 29 31  1  0  0  0  0
 29 59  1  0  0  0  0
 30 31  2  0  0  0  0
 30 60  1  0  0  0  0
 31 61  1  0  0  0  0
 32 62  1  0  0  0  0
 32 63  1  0  0  0  0
 32 64  1  0  0  0  0
M  END
> <PUBCHEM_COMPOUND_CID>
25389521

> <PUBCHEM_CONFORMER_RMSD>
1

> <PUBCHEM_CONFORMER_DIVERSEORDER>
1
63
56
73
58
3
43
44
8
42
13
83
59
17
82
75
2
38
26
64
72
10
71
86
61
55
39
7
48
20
29
21
47
24
79
22
32
37
80
23
12
40
16
9
51
31
68
14
50
74
5
6
65
15
35
70
52
81
45
78
84
46
60
19
69
67
28
41
34
30
33
53
66
27
54
11
77
36
57
25
49
4
76
85
62
18

> <PUBCHEM_MMFF94_PARTIAL_CHARGES>
34
1 -0.43
12 0.27
13 0.27
14 -0.33
15 0.28
16 -0.15
17 0.23
18 0.26
19 0.05
2 -0.57
20 0.78
21 -0.15
22 -0.15
24 -0.15
25 0.3
28 -0.15
29 -0.15
3 -0.81
30 -0.15
31 -0.15
4 0.31
46 0.15
5 -0.71
50 0.15
51 0.15
52 0.37
53 0.15
58 0.15
59 0.15
6 -0.73
60 0.15
61 0.15
8 0.18
9 0.27

> <PUBCHEM_EFFECTIVE_ROTOR_COUNT>
9.2

> <PUBCHEM_PHARMACOPHORE_FEATURES>
9
1 2 acceptor
1 3 cation
1 32 hydrophobe
1 5 acceptor
1 6 donor
5 4 5 14 16 17 rings
6 19 21 22 23 24 26 rings
6 23 26 28 29 30 31 rings
8 3 7 8 9 10 11 12 13 rings

> <PUBCHEM_HEAVY_ATOM_COUNT>
32

> <PUBCHEM_ATOM_DEF_STEREO_COUNT>
3

> <PUBCHEM_ATOM_UDEF_STEREO_COUNT>
0

> <PUBCHEM_BOND_DEF_STEREO_COUNT>
0

> <PUBCHEM_BOND_UDEF_STEREO_COUNT>
0

> <PUBCHEM_ISOTOPIC_ATOM_COUNT>
0

> <PUBCHEM_COMPONENT_COUNT>
1

> <PUBCHEM_CACTVS_TAUTO_COUNT>
2

> <PUBCHEM_CONFORMER_ID>
018369D100000001

> <PUBCHEM_MMFF94_ENERGY>
73.0639

> <PUBCHEM_FEATURE_SELFOVERLAP>
45.698

> <PUBCHEM_SHAPE_FINGERPRINT>
10670039 82 18341610447457992864
10951579 204 18339098021188523460
11374522 363 17614281061880654084
11513181 2 18273218564989697542
11973864 220 17683538595478146980
12104220 1 18338512045451255956
12107183 9 17904475208722431194
12788726 201 18339350959247029922
13617811 41 18266724943788819459
13761468 95 17773053976419028464
14394314 77 18339930406797829209
144659 178 18192717967180642980
14790565 3 18265618689136637786
15320467 1 18122064470850124592
15322535 138 18194670484961713688
15400415 2 17762900970639130328
15419008 145 18336533955640074864
15483637 11 18338233748518346020
155225 5 18411139134724935160
15961568 22 18341617074059891367
15968369 26 17187820551998591057
16067690 210 18186234030978167928
17844677 252 18341337721293494534
19611394 137 17826806033685531019
20771845 165 18201174221158096718
21033648 29 16878487003961659886
21792965 270 17832712644614365083
21859007 373 18200588224958141064
23516275 100 17695893806942944760
325973 47 17977948217553658140
3388396 114 18339625824184442358
4487111 67 18339078194733507952
469060 322 18338817688044963299
4756261 7 18126317210776426769
50677037 204 18268148832764370200
550186 7 18202572760908196084
6036956 94 18335425668582554741
653340 110 18410848829348029488
6608658 132 18271519917918257750
6679774 75 14004647712857410914
9980921 221 18265357108996978452

> <PUBCHEM_SHAPE_MULTIPOLES>
626.88
13.25
8.48
1.13
17.9
14.72
-0.1
0.22
-1.67
-7.09
1.06
-1.32
-0.13
-1.65

> <PUBCHEM_SHAPE_SELFOVERLAP>
1357.309

> <PUBCHEM_SHAPE_VOLUME>
341.5

> <PUBCHEM_COORDINATE_TYPE>
2
5
10

$$$$
