26745059
  -OEChem-12032416353D

 53 56  0     1  0  0  0  0  0999 V2000
    8.4004    0.7047   -1.1412 Cl  0  0  0  0  0  0  0  0  0  0  0  0
   -2.7184    1.3064    1.1647 O   0  0  0  0  0  0  0  0  0  0  0  0
    0.8386    1.5442    1.3548 O   0  0  0  0  0  0  0  0  0  0  0  0
   -5.3950   -0.2642    1.5036 O   0  0  0  0  0  0  0  0  0  0  0  0
   -6.4381   -0.2759   -0.5125 O   0  0  0  0  0  0  0  0  0  0  0  0
   -1.4363   -0.3190    0.0942 N   0  0  0  0  0  0  0  0  0  0  0  0
   -0.4836   -3.5347   -1.5398 N   0  0  0  0  0  0  0  0  0  0  0  0
    0.0312   -4.1844    0.5350 N   0  0  0  0  0  0  0  0  0  0  0  0
    1.9339   -0.2522    0.5867 N   0  0  0  0  0  0  0  0  0  0  0  0
    2.1387    1.9760    1.0628 N   0  0  0  0  0  0  0  0  0  0  0  0
   -4.3024    1.9845   -0.9550 C   0  0  0  0  0  0  0  0  0  0  0  0
   -0.5251   -0.4962    1.2769 C   0  0  1  0  0  0  0  0  0  0  0  0
   -3.2593    0.8581   -1.0977 C   0  0  0  0  0  0  0  0  0  0  0  0
   -0.4414   -1.9914    1.7116 C   0  0  0  0  0  0  0  0  0  0  0  0
   -1.1387   -1.1050   -1.1357 C   0  0  0  0  0  0  0  0  0  0  0  0
   -2.4528    0.6433    0.1590 C   0  0  0  0  0  0  0  0  0  0  0  0
   -0.6862   -2.4519   -0.7373 C   0  0  0  0  0  0  0  0  0  0  0  0
   -0.3606   -2.8754    0.5278 C   0  0  0  0  0  0  0  0  0  0  0  0
   -5.3029    1.7392    0.1998 C   0  0  0  0  0  0  0  0  0  0  0  0
   -5.0528    2.1013   -2.2974 C   0  0  0  0  0  0  0  0  0  0  0  0
   -3.5940    3.3320   -0.6973 C   0  0  0  0  0  0  0  0  0  0  0  0
    0.8033    0.2214    1.0462 C   0  0  0  0  0  0  0  0  0  0  0  0
   -0.0530   -4.5536   -0.7275 C   0  0  0  0  0  0  0  0  0  0  0  0
   -5.7756    0.3089    0.3350 C   0  0  0  0  0  0  0  0  0  0  0  0
    2.7229    0.8607    0.6149 C   0  0  0  0  0  0  0  0  0  0  0  0
    4.0923    0.8242    0.1899 C   0  0  0  0  0  0  0  0  0  0  0  0
    4.6483   -0.3708   -0.2670 C   0  0  0  0  0  0  0  0  0  0  0  0
    4.8687    1.9822    0.2347 C   0  0  0  0  0  0  0  0  0  0  0  0
    5.9804   -0.4079   -0.6787 C   0  0  0  0  0  0  0  0  0  0  0  0
    6.2009    1.9453   -0.1768 C   0  0  0  0  0  0  0  0  0  0  0  0
    6.7567    0.7502   -0.6336 C   0  0  0  0  0  0  0  0  0  0  0  0
   -0.9775    0.0264    2.1308 H   0  0  0  0  0  0  0  0  0  0  0  0
   -3.7619   -0.0805   -1.3562 H   0  0  0  0  0  0  0  0  0  0  0  0
   -2.5656    1.1025   -1.9122 H   0  0  0  0  0  0  0  0  0  0  0  0
   -1.3542   -2.2525    2.2618 H   0  0  0  0  0  0  0  0  0  0  0  0
    0.4104   -2.1548    2.3806 H   0  0  0  0  0  0  0  0  0  0  0  0
   -0.3487   -0.5731   -1.6766 H   0  0  0  0  0  0  0  0  0  0  0  0
   -2.0115   -1.1809   -1.7858 H   0  0  0  0  0  0  0  0  0  0  0  0
   -6.2015    2.3560    0.0629 H   0  0  0  0  0  0  0  0  0  0  0  0
   -4.9072    2.0657    1.1682 H   0  0  0  0  0  0  0  0  0  0  0  0
   -5.5572    1.1656   -2.5600 H   0  0  0  0  0  0  0  0  0  0  0  0
   -4.3647    2.3444   -3.1154 H   0  0  0  0  0  0  0  0  0  0  0  0
   -5.8131    2.8897   -2.2611 H   0  0  0  0  0  0  0  0  0  0  0  0
   -3.1158    3.4054    0.2822 H   0  0  0  0  0  0  0  0  0  0  0  0
   -2.8257    3.5225   -1.4556 H   0  0  0  0  0  0  0  0  0  0  0  0
   -4.3133    4.1584   -0.7513 H   0  0  0  0  0  0  0  0  0  0  0  0
   -0.6211   -3.5826   -2.5408 H   0  0  0  0  0  0  0  0  0  0  0  0
    0.1806   -5.5335   -1.1190 H   0  0  0  0  0  0  0  0  0  0  0  0
   -5.7095   -1.1905    1.5767 H   0  0  0  0  0  0  0  0  0  0  0  0
    4.0694   -1.2898   -0.3139 H   0  0  0  0  0  0  0  0  0  0  0  0
    4.4701    2.9312    0.5847 H   0  0  0  0  0  0  0  0  0  0  0  0
    6.4005   -1.3460   -1.0324 H   0  0  0  0  0  0  0  0  0  0  0  0
    6.7943    2.8551   -0.1363 H   0  0  0  0  0  0  0  0  0  0  0  0
  1 31  1  0  0  0  0
  2 16  2  0  0  0  0
  3 10  1  0  0  0  0
  3 22  1  0  0  0  0
  4 24  1  0  0  0  0
  4 49  1  0  0  0  0
  5 24  2  0  0  0  0
  6 12  1  0  0  0  0
  6 15  1  0  0  0  0
  6 16  1  0  0  0  0
  7 17  1  0  0  0  0
  7 23  1  0  0  0  0
  7 47  1  0  0  0  0
  8 18  1  0  0  0  0
  8 23  2  0  0  0  0
  9 22  2  0  0  0  0
  9 25  1  0  0  0  0
 10 25  2  0  0  0  0
 11 13  1  0  0  0  0
 11 19  1  0  0  0  0
 11 20  1  0  0  0  0
 11 21  1  0  0  0  0
 12 14  1  0  0  0  0
 12 22  1  0  0  0  0
 12 32  1  0  0  0  0
 13 16  1  0  0  0  0
 13 33  1  0  0  0  0
 13 34  1  0  0  0  0
 14 18  1  0  0  0  0
 14 35  1  0  0  0  0
 14 36  1  0  0  0  0
 15 17  1  0  0  0  0
 15 37  1  0  0  0  0
 15 38  1  0  0  0  0
 17 18  2  0  0  0  0
 19 24  1  0  0  0  0
 19 39  1  0  0  0  0
 19 40  1  0  0  0  0
 20 41  1  0  0  0  0
 20 42  1  0  0  0  0
 20 43  1  0  0  0  0
 21 44  1  0  0  0  0
 21 45  1  0  0  0  0
 21 46  1  0  0  0  0
 23 48  1  0  0  0  0
 25 26  1  0  0  0  0
 26 27  2  0  0  0  0
 26 28  1  0  0  0  0
 27 29  1  0  0  0  0
 27 50  1  0  0  0  0
 28 30  2  0  0  0  0
 28 51  1  0  0  0  0
 29 31  2  0  0  0  0
 29 52  1  0  0  0  0
 30 31  1  0  0  0  0
 30 53  1  0  0  0  0
M  END
> <PUBCHEM_COMPOUND_CID>
26745059

> <PUBCHEM_CONFORMER_RMSD>
1

> <PUBCHEM_CONFORMER_DIVERSEORDER>
1
47
73
63
22
85
37
82
33
14
30
81
20
49
79
24
29
40
50
44
55
9
46
6
69
80
10
35
59
16
76
32
15
75
26
23
86
54
38
41
72
60
48
51
3
39
12
19
42
34
43
5
36
28
78
71
7
25
67
66
83
31
70
45
17
77
57
27
74
56
13
87
65
8
58
53
11
84
4
52
62
2
21
18
64
61
68

> <PUBCHEM_MMFF94_PARTIAL_CHARGES>
35
1 -0.18
10 -0.41
12 0.48
13 0.06
14 0.18
15 0.48
16 0.57
17 -0.33
18 0.05
19 0.06
2 -0.57
22 0.3
23 0.04
24 0.66
25 0.46
26 0.05
27 -0.15
28 -0.15
29 -0.15
3 -0.02
30 -0.15
31 0.18
4 -0.65
47 0.27
48 0.15
49 0.5
5 -0.57
50 0.15
51 0.15
52 0.15
53 0.15
6 -0.66
7 0.03
8 -0.57
9 -0.57

> <PUBCHEM_EFFECTIVE_ROTOR_COUNT>
7.8

> <PUBCHEM_PHARMACOPHORE_FEATURES>
12
1 2 acceptor
1 4 acceptor
1 5 acceptor
1 7 donor
3 11 20 21 hydrophobe
3 4 5 24 anion
3 7 8 23 cation
3 9 10 25 cation
5 3 9 10 22 25 rings
5 7 8 17 18 23 rings
6 26 27 28 29 30 31 rings
6 6 12 14 15 17 18 rings

> <PUBCHEM_HEAVY_ATOM_COUNT>
31

> <PUBCHEM_ATOM_DEF_STEREO_COUNT>
1

> <PUBCHEM_ATOM_UDEF_STEREO_COUNT>
0

> <PUBCHEM_BOND_DEF_STEREO_COUNT>
0

> <PUBCHEM_BOND_UDEF_STEREO_COUNT>
0

> <PUBCHEM_ISOTOPIC_ATOM_COUNT>
0

> <PUBCHEM_COMPONENT_COUNT>
1

> <PUBCHEM_CACTVS_TAUTO_COUNT>
2

> <PUBCHEM_CONFORMER_ID>
019818E300000001

> <PUBCHEM_MMFF94_ENERGY>
68.3642

> <PUBCHEM_FEATURE_SELFOVERLAP>
61.057

> <PUBCHEM_SHAPE_FINGERPRINT>
10165383 225 18341899589088619873
10190206 1 18266728250840434367
10369192 42 18334297552566896293
105312 117 18334014986520506894
107951 10 18411419535769911590
11135609 187 18272091556901540576
11200772 48 18342176683267254086
11488393 25 18196095434909458027
11578080 2 17752760230951221605
11991303 11 18336828700968873774
12760667 363 9367352522003430057
12788726 201 18048577507100382066
13257819 101 17458898224460065533
13257819 37 18409733971163593655
13540713 4 17700407263925148688
13690498 29 18052828232760718182
13911987 19 18412257320743796629
13944108 23 17760355604945908924
14856354 85 16588030138607133728
14930077 153 18043536229048546957
15064986 266 18195252341714170974
15131766 46 14853031662570366678
15183329 4 18060697273797303844
15357212 105 17980493256687168201
15849732 13 18041001764815973316
15927050 60 18413386557598122518
15961568 22 17749105539846782549
16628084 112 18195530294907337110
17980427 23 13190340120149974655
18608769 82 18339082700095795787
21033648 29 18340193163537210280
21344244 246 18131073675611857438
21756936 100 17749103430880098584
23559900 14 17988079015419672472
249057 3 18410578414291823388
25019877 29 18341337755346784871
3298306 158 18411699850915320546
3383291 50 18202003244055605034
340366 18 18335708303358229460
3610482 184 17896047718694217404
3729539 64 18201160949429063074
4015057 19 17060335279835258736
4058900 60 18265335019035603913
4173938 306 18059559275631966968
44249763 50 18266452304024807144
44802255 64 18260276261042659630
513202 73 18047482402188322939
5265222 85 18338523040308804532
57527306 92 17022900155303524276
57527585 21 17828448459428798805
58260988 521 18265353840126095147
59755656 520 18272371996664590415
613672 6 8718549458233453673
6523845 18 18272085024404067297
6669772 16 18271813389002831310

> <PUBCHEM_SHAPE_MULTIPOLES>
591.45
16.88
4.2
1.51
19.32
5.26
0.16
-13.98
5.59
-2.29
1.11
-1.08
0.01
1.17

> <PUBCHEM_SHAPE_SELFOVERLAP>
1271.413

> <PUBCHEM_SHAPE_VOLUME>
328.2

> <PUBCHEM_COORDINATE_TYPE>
2
5
10

$$$$
