40779427
  -OEChem-12032416163D

 61 64  0     1  0  0  0  0  0999 V2000
    4.2326    0.3192   -0.0919 S   0  0  0  0  0  0  0  0  0  0  0  0
    4.5717    0.3327    1.3176 O   0  0  0  0  0  0  0  0  0  0  0  0
    5.2597    0.4774   -1.1036 O   0  0  0  0  0  0  0  0  0  0  0  0
    0.0661    3.2344    1.2007 N   0  0  2  0  0  0  0  0  0  0  0  0
   -3.5758    0.2088   -0.4298 N   0  0  0  0  0  0  0  0  0  0  0  0
    2.9895    1.4500   -0.3982 N   0  0  0  0  0  0  0  0  0  0  0  0
   -3.7668   -1.1188   -0.5144 N   0  0  0  0  0  0  0  0  0  0  0  0
   -1.2288    2.7214   -1.0000 C   0  0  2  0  0  0  0  0  0  0  0  0
   -1.8996    2.0058    0.2051 C   0  0  2  0  0  0  0  0  0  0  0  0
    1.0136    2.7877    0.1458 C   0  0  2  0  0  0  0  0  0  0  0  0
    0.2478    2.2830   -1.0960 C   0  0  0  0  0  0  0  0  0  0  0  0
   -0.9639    2.1915    1.4338 C   0  0  0  0  0  0  0  0  0  0  0  0
   -1.2337    4.2316   -0.6799 C   0  0  0  0  0  0  0  0  0  0  0  0
   -0.6156    4.4567    0.7111 C   0  0  0  0  0  0  0  0  0  0  0  0
   -2.3398    0.5596    0.0280 C   0  0  0  0  0  0  0  0  0  0  0  0
    2.0121    1.7490    0.6612 C   0  0  0  0  0  0  0  0  0  0  0  0
   -1.6762   -0.6205    0.2593 C   0  0  0  0  0  0  0  0  0  0  0  0
   -2.4065   -3.1187   -0.0374 C   0  0  0  0  0  0  0  0  0  0  0  0
   -2.6029   -1.6201   -0.0923 C   0  0  0  0  0  0  0  0  0  0  0  0
   -1.2564   -3.5961   -0.9420 C   0  0  0  0  0  0  0  0  0  0  0  0
   -2.0888   -3.6710    1.3677 C   0  0  0  0  0  0  0  0  0  0  0  0
   -0.6230   -4.7529   -0.1843 C   0  0  0  0  0  0  0  0  0  0  0  0
   -0.7042   -4.2998    1.2627 C   0  0  0  0  0  0  0  0  0  0  0  0
   -4.6460    1.1010   -0.8112 C   0  0  0  0  0  0  0  0  0  0  0  0
    3.3796   -1.2028   -0.4349 C   0  0  0  0  0  0  0  0  0  0  0  0
    4.2881   -2.4041   -0.2328 C   0  0  0  0  0  0  0  0  0  0  0  0
    3.5673   -3.7050   -0.5443 C   0  0  0  0  0  0  0  0  0  0  0  0
   -1.7573    2.5162   -1.9366 H   0  0  0  0  0  0  0  0  0  0  0  0
   -2.8140    2.5722    0.4378 H   0  0  0  0  0  0  0  0  0  0  0  0
    1.6120    3.6601   -0.1571 H   0  0  0  0  0  0  0  0  0  0  0  0
    0.2962    1.1923   -1.1944 H   0  0  0  0  0  0  0  0  0  0  0  0
    0.6966    2.7093   -2.0018 H   0  0  0  0  0  0  0  0  0  0  0  0
   -1.5738    2.4883    2.2983 H   0  0  0  0  0  0  0  0  0  0  0  0
   -0.4817    1.2633    1.7539 H   0  0  0  0  0  0  0  0  0  0  0  0
   -2.2572    4.6236   -0.7004 H   0  0  0  0  0  0  0  0  0  0  0  0
   -0.6621    4.7759   -1.4413 H   0  0  0  0  0  0  0  0  0  0  0  0
    0.0947    5.2917    0.6723 H   0  0  0  0  0  0  0  0  0  0  0  0
   -1.3896    4.7629    1.4264 H   0  0  0  0  0  0  0  0  0  0  0  0
    1.5058    0.8207    0.9421 H   0  0  0  0  0  0  0  0  0  0  0  0
    2.5390    2.1383    1.5392 H   0  0  0  0  0  0  0  0  0  0  0  0
   -0.6663   -0.7483    0.6210 H   0  0  0  0  0  0  0  0  0  0  0  0
   -3.3344   -3.5991   -0.3790 H   0  0  0  0  0  0  0  0  0  0  0  0
    2.6195    1.4521   -1.3567 H   0  0  0  0  0  0  0  0  0  0  0  0
   -0.5069   -2.8113   -1.1021 H   0  0  0  0  0  0  0  0  0  0  0  0
   -1.6171   -3.9061   -1.9284 H   0  0  0  0  0  0  0  0  0  0  0  0
   -2.8206   -4.4478    1.6228 H   0  0  0  0  0  0  0  0  0  0  0  0
   -2.1284   -2.9162    2.1599 H   0  0  0  0  0  0  0  0  0  0  0  0
    0.4042   -4.9470   -0.5049 H   0  0  0  0  0  0  0  0  0  0  0  0
   -1.2080   -5.6686   -0.3306 H   0  0  0  0  0  0  0  0  0  0  0  0
   -0.5688   -5.1252    1.9674 H   0  0  0  0  0  0  0  0  0  0  0  0
    0.0664   -3.5465    1.4660 H   0  0  0  0  0  0  0  0  0  0  0  0
   -4.2534    1.8490   -1.5040 H   0  0  0  0  0  0  0  0  0  0  0  0
   -5.4371    0.5298   -1.3045 H   0  0  0  0  0  0  0  0  0  0  0  0
   -5.0377    1.5731    0.0929 H   0  0  0  0  0  0  0  0  0  0  0  0
    3.0259   -1.1540   -1.4699 H   0  0  0  0  0  0  0  0  0  0  0  0
    2.5177   -1.2610    0.2369 H   0  0  0  0  0  0  0  0  0  0  0  0
    5.1720   -2.3209   -0.8759 H   0  0  0  0  0  0  0  0  0  0  0  0
    4.6524   -2.4323    0.8007 H   0  0  0  0  0  0  0  0  0  0  0  0
    2.7036   -3.8399    0.1145 H   0  0  0  0  0  0  0  0  0  0  0  0
    3.2153   -3.7214   -1.5807 H   0  0  0  0  0  0  0  0  0  0  0  0
    4.2402   -4.5560   -0.4000 H   0  0  0  0  0  0  0  0  0  0  0  0
  1  2  2  0  0  0  0
  1  3  2  0  0  0  0
  1  6  1  0  0  0  0
  1 25  1  0  0  0  0
  4 10  1  0  0  0  0
  4 12  1  0  0  0  0
  4 14  1  0  0  0  0
  5  7  1  0  0  0  0
  5 15  1  0  0  0  0
  5 24  1  0  0  0  0
  6 16  1  0  0  0  0
  6 43  1  0  0  0  0
  7 19  2  0  0  0  0
  8  9  1  0  0  0  0
  8 11  1  0  0  0  0
  8 13  1  0  0  0  0
  8 28  1  0  0  0  0
  9 12  1  0  0  0  0
  9 15  1  0  0  0  0
  9 29  1  0  0  0  0
 10 11  1  0  0  0  0
 10 16  1  0  0  0  0
 10 30  1  0  0  0  0
 11 31  1  0  0  0  0
 11 32  1  0  0  0  0
 12 33  1  0  0  0  0
 12 34  1  0  0  0  0
 13 14  1  0  0  0  0
 13 35  1  0  0  0  0
 13 36  1  0  0  0  0
 14 37  1  0  0  0  0
 14 38  1  0  0  0  0
 15 17  2  0  0  0  0
 16 39  1  0  0  0  0
 16 40  1  0  0  0  0
 17 19  1  0  0  0  0
 17 41  1  0  0  0  0
 18 19  1  0  0  0  0
 18 20  1  0  0  0  0
 18 21  1  0  0  0  0
 18 42  1  0  0  0  0
 20 22  1  0  0  0  0
 20 44  1  0  0  0  0
 20 45  1  0  0  0  0
 21 23  1  0  0  0  0
 21 46  1  0  0  0  0
 21 47  1  0  0  0  0
 22 23  1  0  0  0  0
 22 48  1  0  0  0  0
 22 49  1  0  0  0  0
 23 50  1  0  0  0  0
 23 51  1  0  0  0  0
 24 52  1  0  0  0  0
 24 53  1  0  0  0  0
 24 54  1  0  0  0  0
 25 26  1  0  0  0  0
 25 55  1  0  0  0  0
 25 56  1  0  0  0  0
 26 27  1  0  0  0  0
 26 57  1  0  0  0  0
 26 58  1  0  0  0  0
 27 59  1  0  0  0  0
 27 60  1  0  0  0  0
 27 61  1  0  0  0  0
M  END
> <PUBCHEM_COMPOUND_CID>
40779427

> <PUBCHEM_CONFORMER_RMSD>
1

> <PUBCHEM_CONFORMER_DIVERSEORDER>
2
69
55
84
76
71
79
13
46
43
54
30
61
22
11
62
52
63
14
66
26
68
12
23
8
36
7
35
33
25
56
38
77
1
19
47
20
9
60
65
48
51
29
59
27
64
41
39
45
58
53
15
42
32
74
83
75
3
5
21
44
81
49
57
37
28
17
40
82
10
78
34
50
18
24
4
72
80
16
67
73
6
70
31

> <PUBCHEM_MMFF94_PARTIAL_CHARGES>
20
1 1.33
10 0.27
12 0.27
14 0.27
15 -0.33
16 0.36
17 -0.15
18 0.18
19 0.11
2 -0.65
24 0.26
25 0.11
3 -0.65
4 -0.81
41 0.15
43 0.42
5 0.31
6 -0.91
7 -0.71
9 0.18

> <PUBCHEM_EFFECTIVE_ROTOR_COUNT>
9.2

> <PUBCHEM_PHARMACOPHORE_FEATURES>
9
1 2 acceptor
1 27 hydrophobe
1 3 acceptor
1 4 cation
1 6 donor
1 7 acceptor
5 18 20 21 22 23 rings
5 5 7 15 17 19 rings
8 4 8 9 10 11 12 13 14 rings

> <PUBCHEM_HEAVY_ATOM_COUNT>
27

> <PUBCHEM_ATOM_DEF_STEREO_COUNT>
3

> <PUBCHEM_ATOM_UDEF_STEREO_COUNT>
0

> <PUBCHEM_BOND_DEF_STEREO_COUNT>
0

> <PUBCHEM_BOND_UDEF_STEREO_COUNT>
0

> <PUBCHEM_ISOTOPIC_ATOM_COUNT>
0

> <PUBCHEM_COMPONENT_COUNT>
1

> <PUBCHEM_CACTVS_TAUTO_COUNT>
1

> <PUBCHEM_CONFORMER_ID>
026E3EA300000002

> <PUBCHEM_MMFF94_ENERGY>
41.6119

> <PUBCHEM_FEATURE_SELFOVERLAP>
45.688

> <PUBCHEM_SHAPE_FINGERPRINT>
10693767 8 18057294290105237799
12038231 1 18267023843358763606
12553582 1 18339083803806997016
12788726 201 18336260167937275650
12969540 37 17760923343929809068
13122387 1 18266742372629566918
13140716 1 17548427359143146899
14251757 5 18409175419752289422
14725015 67 18267576901670095410
17627616 140 17326902776932772678
17859628 97 17545891429804837016
18681886 176 15955817880656435773
19930381 70 16753520592419019656
20764821 26 17112979561302350014
20775530 9 18048599518901998298
21796203 349 17541692807520793520
23559900 14 17761766665274216437
3027735 51 18122899829072016237
4280585 95 18191573362838646464
4403749 210 16611921701624620729
463206 1 18264773344803585400
474144 1 17679288681623209610
5309563 4 18050576432287909346
6433294 58 17402334166375389810
9709674 26 17834105725772825357

> <PUBCHEM_SHAPE_MULTIPOLES>
527.83
7.99
7.7
1.19
8.62
5.88
-0.22
-2.91
1.88
0.09
-1.11
-0.06
-0.07
-0.41

> <PUBCHEM_SHAPE_SELFOVERLAP>
1085.793

> <PUBCHEM_SHAPE_VOLUME>
307.5

> <PUBCHEM_COORDINATE_TYPE>
2
5
10

$$$$
