75367637
  -OEChem-12032416403D

 46 48  0     1  0  0  0  0  0999 V2000
    0.1074   -3.6624    0.4777 O   0  0  0  0  0  0  0  0  0  0  0  0
   -2.6957   -1.4396   -0.2969 O   0  0  0  0  0  0  0  0  0  0  0  0
    5.0558    1.4558    0.8330 O   0  0  0  0  0  0  0  0  0  0  0  0
    0.9284    1.0015   -1.9176 O   0  0  0  0  0  0  0  0  0  0  0  0
    0.9237   -0.9456   -0.6668 N   0  0  0  0  0  0  0  0  0  0  0  0
    2.6217    0.7186   -0.3839 N   0  0  0  0  0  0  0  0  0  0  0  0
   -2.3322    0.7340    0.4207 N   0  0  0  0  0  0  0  0  0  0  0  0
   -0.4247   -1.3057   -1.1229 C   0  0  0  0  0  0  0  0  0  0  0  0
   -1.3304   -1.6566    0.0573 C   0  0  2  0  0  0  0  0  0  0  0  0
    1.7660   -2.0470   -0.1731 C   0  0  0  0  0  0  0  0  0  0  0  0
    1.4563    0.3021   -1.0442 C   0  0  0  0  0  0  0  0  0  0  0  0
   -1.1987   -3.1049    0.5316 C   0  0  0  0  0  0  0  0  0  0  0  0
    3.5766    1.5725   -1.0877 C   0  0  0  0  0  0  0  0  0  0  0  0
    2.7471    0.7747    1.0771 C   0  0  0  0  0  0  0  0  0  0  0  0
    1.1428   -2.8257    0.9793 C   0  0  0  0  0  0  0  0  0  0  0  0
    4.9898    1.3045   -0.5880 C   0  0  0  0  0  0  0  0  0  0  0  0
    4.1892    0.5275    1.4932 C   0  0  0  0  0  0  0  0  0  0  0  0
   -3.1854   -0.1794   -0.0945 C   0  0  0  0  0  0  0  0  0  0  0  0
   -4.5051    0.0890   -0.4204 C   0  0  0  0  0  0  0  0  0  0  0  0
   -2.8290    1.9759    0.6173 C   0  0  0  0  0  0  0  0  0  0  0  0
   -4.9796    1.3779   -0.2039 C   0  0  0  0  0  0  0  0  0  0  0  0
   -4.1318    2.3452    0.3244 C   0  0  0  0  0  0  0  0  0  0  0  0
   -1.8924    2.9876    1.1884 C   0  0  0  0  0  0  0  0  0  0  0  0
   -0.3441   -2.1389   -1.8318 H   0  0  0  0  0  0  0  0  0  0  0  0
   -0.8578   -0.4750   -1.6896 H   0  0  0  0  0  0  0  0  0  0  0  0
   -1.0486   -1.0467    0.9267 H   0  0  0  0  0  0  0  0  0  0  0  0
    2.7528   -1.6835    0.1160 H   0  0  0  0  0  0  0  0  0  0  0  0
    1.9253   -2.7122   -1.0313 H   0  0  0  0  0  0  0  0  0  0  0  0
   -1.5773   -3.1941    1.5576 H   0  0  0  0  0  0  0  0  0  0  0  0
   -1.8430   -3.7547   -0.0726 H   0  0  0  0  0  0  0  0  0  0  0  0
    3.2862    2.6102   -0.8853 H   0  0  0  0  0  0  0  0  0  0  0  0
    3.5058    1.4024   -2.1672 H   0  0  0  0  0  0  0  0  0  0  0  0
    2.0582    0.0755    1.5576 H   0  0  0  0  0  0  0  0  0  0  0  0
    2.4372    1.7849    1.3720 H   0  0  0  0  0  0  0  0  0  0  0  0
    1.9044   -3.4946    1.3940 H   0  0  0  0  0  0  0  0  0  0  0  0
    0.7935   -2.1837    1.7955 H   0  0  0  0  0  0  0  0  0  0  0  0
    5.3224    0.2948   -0.8568 H   0  0  0  0  0  0  0  0  0  0  0  0
    5.6888    2.0177   -1.0357 H   0  0  0  0  0  0  0  0  0  0  0  0
    4.2996    0.6748    2.5720 H   0  0  0  0  0  0  0  0  0  0  0  0
    4.5111   -0.4937    1.2593 H   0  0  0  0  0  0  0  0  0  0  0  0
   -5.1535   -0.6769   -0.8317 H   0  0  0  0  0  0  0  0  0  0  0  0
   -6.0080    1.6280   -0.4464 H   0  0  0  0  0  0  0  0  0  0  0  0
   -4.4907    3.3540    0.4981 H   0  0  0  0  0  0  0  0  0  0  0  0
   -1.7810    3.8336    0.5027 H   0  0  0  0  0  0  0  0  0  0  0  0
   -2.2662    3.3523    2.1503 H   0  0  0  0  0  0  0  0  0  0  0  0
   -0.8999    2.5548    1.3532 H   0  0  0  0  0  0  0  0  0  0  0  0
  1 12  1  0  0  0  0
  1 15  1  0  0  0  0
  2  9  1  0  0  0  0
  2 18  1  0  0  0  0
  3 16  1  0  0  0  0
  3 17  1  0  0  0  0
  4 11  2  0  0  0  0
  5  8  1  0  0  0  0
  5 10  1  0  0  0  0
  5 11  1  0  0  0  0
  6 11  1  0  0  0  0
  6 13  1  0  0  0  0
  6 14  1  0  0  0  0
  7 18  1  0  0  0  0
  7 20  2  0  0  0  0
  8  9  1  0  0  0  0
  8 24  1  0  0  0  0
  8 25  1  0  0  0  0
  9 12  1  0  0  0  0
  9 26  1  0  0  0  0
 10 15  1  0  0  0  0
 10 27  1  0  0  0  0
 10 28  1  0  0  0  0
 12 29  1  0  0  0  0
 12 30  1  0  0  0  0
 13 16  1  0  0  0  0
 13 31  1  0  0  0  0
 13 32  1  0  0  0  0
 14 17  1  0  0  0  0
 14 33  1  0  0  0  0
 14 34  1  0  0  0  0
 15 35  1  0  0  0  0
 15 36  1  0  0  0  0
 16 37  1  0  0  0  0
 16 38  1  0  0  0  0
 17 39  1  0  0  0  0
 17 40  1  0  0  0  0
 18 19  2  0  0  0  0
 19 21  1  0  0  0  0
 19 41  1  0  0  0  0
 20 22  1  0  0  0  0
 20 23  1  0  0  0  0
 21 22  2  0  0  0  0
 21 42  1  0  0  0  0
 22 43  1  0  0  0  0
 23 44  1  0  0  0  0
 23 45  1  0  0  0  0
 23 46  1  0  0  0  0
M  END
> <PUBCHEM_COMPOUND_CID>
75367637

> <PUBCHEM_CONFORMER_RMSD>
0.8

> <PUBCHEM_CONFORMER_DIVERSEORDER>
3
211
81
11
139
87
102
72
202
231
75
232
159
114
160
171
131
149
178
246
244
237
22
16
255
132
124
161
204
154
241
66
215
78
197
206
53
236
26
166
25
28
216
168
157
123
213
85
141
252
194
201
147
196
229
203
195
242
220
253
117
88
113
50
144
35
200
111
44
190
89
191
176
162
13
192
148
41
120
254
199
134
251
130
92
140
62
235
145
29
189
245
167
228
172
115
179
249
95
76
129
247
93
207
184
60
4
174
175
7
52
177
183
68
158
222
46
19
188
36
10
226
198
163
164
137
186
218
100
86
96
99
185
224
27
181
23
110
217
104
54
121
133
221
84
155
9
58
169
182
65
223
150
234
142
8
125
12
212
64
103
122
90
233
136
243
107
173
152
205
248
127
48
49
14
39
106
42
83
210
32
37
105
56
24
219
193
214
33
256
209
98
77
238
230
71
180
151
73
250
97
109
94
61
6
135
74
59
108
43
165
20
45
34
227
116
101
40
82
21
80
187
15
143
240
38
119
18
51
138
146
170
67
17
57
91
31
112
153
239
126
208
69
47
1
225
118
70
30
55
156
128
79
2
63
5

> <PUBCHEM_MMFF94_PARTIAL_CHARGES>
26
1 -0.56
10 0.3
11 0.69
12 0.28
13 0.3
14 0.3
15 0.28
16 0.28
17 0.28
18 0.39
19 -0.15
2 -0.36
20 0.17
21 -0.15
22 -0.15
23 0.14
3 -0.56
4 -0.57
41 0.15
42 0.15
43 0.15
5 -0.66
6 -0.66
7 -0.62
8 0.3
9 0.28

> <PUBCHEM_EFFECTIVE_ROTOR_COUNT>
6.6

> <PUBCHEM_PHARMACOPHORE_FEATURES>
8
1 1 acceptor
1 2 acceptor
1 3 acceptor
1 4 acceptor
1 7 acceptor
6 3 6 13 14 16 17 rings
6 7 18 19 20 21 22 rings
7 1 5 8 9 10 12 15 rings

> <PUBCHEM_HEAVY_ATOM_COUNT>
23

> <PUBCHEM_ATOM_DEF_STEREO_COUNT>
1

> <PUBCHEM_ATOM_UDEF_STEREO_COUNT>
0

> <PUBCHEM_BOND_DEF_STEREO_COUNT>
0

> <PUBCHEM_BOND_UDEF_STEREO_COUNT>
0

> <PUBCHEM_ISOTOPIC_ATOM_COUNT>
0

> <PUBCHEM_COMPONENT_COUNT>
1

> <PUBCHEM_CACTVS_TAUTO_COUNT>
1

> <PUBCHEM_CONFORMER_ID>
047E04D500000003

> <PUBCHEM_MMFF94_ENERGY>
74.251

> <PUBCHEM_FEATURE_SELFOVERLAP>
40.647

> <PUBCHEM_SHAPE_FINGERPRINT>
10382601 240 17895191043937192514
10498660 4 18272934908016404425
11370993 70 18410290294056167825
11725454 13 17274241964014817290
12107183 9 18261662706777374730
12596602 18 17604149328000926328
12633257 1 16370733633844574497
12788726 201 17684381924299118642
13140716 1 17905616858194745899
13402501 40 17774995838576889304
13965767 371 17968373438127592773
14178342 30 18187650236240816135
14251757 17 17060625503517763576
14251764 75 18128269882696888665
14466204 15 18341041982772390584
14739800 52 18129361783604699000
14840074 17 17458351857428492036
15209294 21 18410851079398696174
17980427 23 17337008414299468031
20510252 161 18048329030335911023
20642791 105 18116146869547158343
20715895 44 17760077420710420085
20739085 24 17968377841033365798
212916 134 18339350955062604850
21427221 339 18040983056270754466
23557571 272 18058741337090033159
23559900 14 17413870921395554215
392239 28 18340497780545947075
474 4 18261674783655698267
5048184 11 18409172099373499089
5104073 3 18264779749317359601
6328613 192 18335711555202003236
67856867 119 18194114119503743603
7064713 232 18335127718221202056
84936 182 18270683039256019099
9981440 41 18408042914117531475

> <PUBCHEM_SHAPE_MULTIPOLES>
434.91
9.61
3.73
1.28
1.24
2.47
0.08
-8.21
-0.61
-0.94
-1.15
0.98
-0.33
-0.75

> <PUBCHEM_SHAPE_SELFOVERLAP>
903.592

> <PUBCHEM_SHAPE_VOLUME>
242.1

> <PUBCHEM_COORDINATE_TYPE>
2
5
10

$$$$
