7135507
  -OEChem-12032416133D

 60 65  0     1  0  0  0  0  0999 V2000
   -5.6938    0.5954    1.5258 O   0  0  0  0  0  0  0  0  0  0  0  0
   -2.6076    2.3068   -0.2397 O   0  0  0  0  0  0  0  0  0  0  0  0
    0.5059   -1.7546   -1.5624 O   0  0  0  0  0  0  0  0  0  0  0  0
    8.3931    0.7666   -0.3832 O   0  0  0  0  0  0  0  0  0  0  0  0
    8.6956   -1.4199    0.5838 O   0  0  0  0  0  0  0  0  0  0  0  0
   -4.0091   -0.3005    0.1978 N   0  0  0  0  0  0  0  0  0  0  0  0
   -1.2021   -0.6675   -0.4434 N   0  0  0  0  0  0  0  0  0  0  0  0
   -8.9741   -0.7193    0.5497 N   0  0  0  0  0  0  0  0  0  0  0  0
   -0.3399    2.1620   -0.3645 N   0  0  0  0  0  0  0  0  0  0  0  0
   -6.3311   -0.2025   -0.6118 C   0  0  0  0  0  0  0  0  0  0  0  0
   -1.6053    0.2740    0.5919 C   0  0  2  0  0  0  0  0  0  0  0  0
   -2.9696   -0.0687    1.2039 C   0  0  0  0  0  0  0  0  0  0  0  0
   -3.5848   -0.9218   -1.0599 C   0  0  0  0  0  0  0  0  0  0  0  0
   -2.2218   -1.5885   -0.9471 C   0  0  0  0  0  0  0  0  0  0  0  0
   -7.4443    0.8472   -0.6011 C   0  0  0  0  0  0  0  0  0  0  0  0
   -6.9080   -1.6131   -0.4753 C   0  0  0  0  0  0  0  0  0  0  0  0
   -5.3263    0.0722    0.4715 C   0  0  0  0  0  0  0  0  0  0  0  0
   -8.4279    0.6373    0.5514 C   0  0  0  0  0  0  0  0  0  0  0  0
   -7.9141   -1.7194    0.6719 C   0  0  0  0  0  0  0  0  0  0  0  0
   -1.5820    1.6462   -0.0627 C   0  0  0  0  0  0  0  0  0  0  0  0
    0.1231   -0.8391   -0.8322 C   0  0  0  0  0  0  0  0  0  0  0  0
    1.1411    0.1442   -0.3747 C   0  0  0  0  0  0  0  0  0  0  0  0
    0.9156    1.5263   -0.2695 C   0  0  0  0  0  0  0  0  0  0  0  0
    2.4478   -0.3544   -0.2182 C   0  0  0  0  0  0  0  0  0  0  0  0
    2.0146    2.3826   -0.0805 C   0  0  0  0  0  0  0  0  0  0  0  0
    3.5194    0.5056    0.0181 C   0  0  0  0  0  0  0  0  0  0  0  0
    3.3049    1.8764    0.0732 C   0  0  0  0  0  0  0  0  0  0  0  0
    4.8549   -0.0265    0.1808 C   0  0  0  0  0  0  0  0  0  0  0  0
    5.9573    0.7306   -0.2239 C   0  0  0  0  0  0  0  0  0  0  0  0
    5.0319   -1.3024    0.7448 C   0  0  0  0  0  0  0  0  0  0  0  0
    7.2108    0.1810   -0.0492 C   0  0  0  0  0  0  0  0  0  0  0  0
    7.3837   -1.0676    0.5029 C   0  0  0  0  0  0  0  0  0  0  0  0
    6.3124   -1.8356    0.9107 C   0  0  0  0  0  0  0  0  0  0  0  0
    9.3294   -0.2531    0.0213 C   0  0  0  0  0  0  0  0  0  0  0  0
   -5.8477   -0.1048   -1.5891 H   0  0  0  0  0  0  0  0  0  0  0  0
   -0.8636    0.2659    1.4002 H   0  0  0  0  0  0  0  0  0  0  0  0
   -2.8929   -0.9981    1.7821 H   0  0  0  0  0  0  0  0  0  0  0  0
   -3.2881    0.7165    1.8986 H   0  0  0  0  0  0  0  0  0  0  0  0
   -3.5487   -0.1241   -1.8116 H   0  0  0  0  0  0  0  0  0  0  0  0
   -4.3146   -1.6631   -1.3913 H   0  0  0  0  0  0  0  0  0  0  0  0
   -2.2622   -2.4323   -0.2473 H   0  0  0  0  0  0  0  0  0  0  0  0
   -1.9166   -1.9873   -1.9205 H   0  0  0  0  0  0  0  0  0  0  0  0
   -7.9946    0.7906   -1.5499 H   0  0  0  0  0  0  0  0  0  0  0  0
   -7.0241    1.8587   -0.5421 H   0  0  0  0  0  0  0  0  0  0  0  0
   -6.1195   -2.3562   -0.3135 H   0  0  0  0  0  0  0  0  0  0  0  0
   -7.4094   -1.8834   -1.4140 H   0  0  0  0  0  0  0  0  0  0  0  0
   -7.9954    0.8726    1.5278 H   0  0  0  0  0  0  0  0  0  0  0  0
   -9.2609    1.3382    0.4207 H   0  0  0  0  0  0  0  0  0  0  0  0
   -8.3686   -2.7162    0.6535 H   0  0  0  0  0  0  0  0  0  0  0  0
   -7.4094   -1.6212    1.6405 H   0  0  0  0  0  0  0  0  0  0  0  0
   -9.6256   -0.8213    1.3274 H   0  0  0  0  0  0  0  0  0  0  0  0
   -0.3217    3.1538   -0.5905 H   0  0  0  0  0  0  0  0  0  0  0  0
    2.6121   -1.4241   -0.3317 H   0  0  0  0  0  0  0  0  0  0  0  0
    1.8688    3.4593   -0.0145 H   0  0  0  0  0  0  0  0  0  0  0  0
    4.1016    2.5889    0.2678 H   0  0  0  0  0  0  0  0  0  0  0  0
    5.8727    1.7065   -0.6895 H   0  0  0  0  0  0  0  0  0  0  0  0
    4.1956   -1.9004    1.0981 H   0  0  0  0  0  0  0  0  0  0  0  0
    6.4538   -2.8159    1.3513 H   0  0  0  0  0  0  0  0  0  0  0  0
   10.0095    0.1715    0.7686 H   0  0  0  0  0  0  0  0  0  0  0  0
    9.9146   -0.5590   -0.8535 H   0  0  0  0  0  0  0  0  0  0  0  0
  1 17  2  0  0  0  0
  2 20  2  0  0  0  0
  3 21  2  0  0  0  0
  4 31  1  0  0  0  0
  4 34  1  0  0  0  0
  5 32  1  0  0  0  0
  5 34  1  0  0  0  0
  6 12  1  0  0  0  0
  6 13  1  0  0  0  0
  6 17  1  0  0  0  0
  7 11  1  0  0  0  0
  7 14  1  0  0  0  0
  7 21  1  0  0  0  0
  8 18  1  0  0  0  0
  8 19  1  0  0  0  0
  8 51  1  0  0  0  0
  9 20  1  0  0  0  0
  9 23  1  0  0  0  0
  9 52  1  0  0  0  0
 10 15  1  0  0  0  0
 10 16  1  0  0  0  0
 10 17  1  0  0  0  0
 10 35  1  0  0  0  0
 11 12  1  0  0  0  0
 11 20  1  0  0  0  0
 11 36  1  0  0  0  0
 12 37  1  0  0  0  0
 12 38  1  0  0  0  0
 13 14  1  0  0  0  0
 13 39  1  0  0  0  0
 13 40  1  0  0  0  0
 14 41  1  0  0  0  0
 14 42  1  0  0  0  0
 15 18  1  0  0  0  0
 15 43  1  0  0  0  0
 15 44  1  0  0  0  0
 16 19  1  0  0  0  0
 16 45  1  0  0  0  0
 16 46  1  0  0  0  0
 18 47  1  0  0  0  0
 18 48  1  0  0  0  0
 19 49  1  0  0  0  0
 19 50  1  0  0  0  0
 21 22  1  0  0  0  0
 22 23  2  0  0  0  0
 22 24  1  0  0  0  0
 23 25  1  0  0  0  0
 24 26  2  0  0  0  0
 24 53  1  0  0  0  0
 25 27  2  0  0  0  0
 25 54  1  0  0  0  0
 26 27  1  0  0  0  0
 26 28  1  0  0  0  0
 27 55  1  0  0  0  0
 28 29  2  0  0  0  0
 28 30  1  0  0  0  0
 29 31  1  0  0  0  0
 29 56  1  0  0  0  0
 30 33  2  0  0  0  0
 30 57  1  0  0  0  0
 31 32  2  0  0  0  0
 32 33  1  0  0  0  0
 33 58  1  0  0  0  0
 34 59  1  0  0  0  0
 34 60  1  0  0  0  0
M  END
> <PUBCHEM_COMPOUND_CID>
7135507

> <PUBCHEM_CONFORMER_RMSD>
0.8

> <PUBCHEM_CONFORMER_DIVERSEORDER>
1
18
27
11
31
8
4
5
28
3
23
22
30
16
19
24
9
6
32
17
10
13
26
2
12
20
7
29
21
25
14
15

> <PUBCHEM_MMFF94_PARTIAL_CHARGES>
38
1 -0.57
10 0.06
11 0.36
12 0.3
13 0.3
14 0.3
17 0.57
18 0.27
19 0.27
2 -0.57
20 0.57
21 0.54
22 0.09
23 0.12
24 -0.15
25 -0.15
27 -0.15
29 -0.15
3 -0.57
30 -0.15
31 0.08
32 0.08
33 -0.15
34 0.56
4 -0.36
5 -0.36
51 0.36
52 0.37
53 0.15
54 0.15
55 0.15
56 0.15
57 0.15
58 0.15
6 -0.66
7 -0.66
8 -0.9
9 -0.55

> <PUBCHEM_EFFECTIVE_ROTOR_COUNT>
5.8

> <PUBCHEM_PHARMACOPHORE_FEATURES>
14
1 1 acceptor
1 2 acceptor
1 3 acceptor
1 4 acceptor
1 5 acceptor
1 8 cation
1 8 donor
1 9 donor
5 4 5 31 32 34 rings
6 22 23 24 25 26 27 rings
6 28 29 30 31 32 33 rings
6 6 7 11 12 13 14 rings
6 8 10 15 16 18 19 rings
7 7 9 11 20 21 22 23 rings

> <PUBCHEM_HEAVY_ATOM_COUNT>
34

> <PUBCHEM_ATOM_DEF_STEREO_COUNT>
1

> <PUBCHEM_ATOM_UDEF_STEREO_COUNT>
0

> <PUBCHEM_BOND_DEF_STEREO_COUNT>
0

> <PUBCHEM_BOND_UDEF_STEREO_COUNT>
0

> <PUBCHEM_ISOTOPIC_ATOM_COUNT>
0

> <PUBCHEM_COMPONENT_COUNT>
1

> <PUBCHEM_CACTVS_TAUTO_COUNT>
3

> <PUBCHEM_CONFORMER_ID>
006CE11300000001

> <PUBCHEM_MMFF94_ENERGY>
109.388

> <PUBCHEM_FEATURE_SELFOVERLAP>
71.233

> <PUBCHEM_SHAPE_FINGERPRINT>
10 15 18343302565319234286
10050765 1 18122061992447499999
10076449 9 15719391733079462503
10299344 5 18410575097553255554
106641 1 18131067147994030184
11135926 11 18131061628887670231
11456790 92 17704080616156249489
11719270 70 18131071532707759815
12107698 1 18407477756139612152
12144603 126 18340491157806882628
12592606 108 18408602586773431059
13383668 362 18055340594949161856
13811026 1 18410579491410768691
13947947 19 18271245023221568292
14150022 121 17560807576473020369
14251764 18 18343582945458826246
14251764 46 17632859728427933463
15131766 46 17536043494870830660
15198563 99 16298375821555675903
15247644 1 16443063902408272242
15347591 1 18044944716613264387
15510794 2 17095527309359863490
15840311 113 18337112358880916052
15849732 13 18412544327173635038
16087824 20 18338796707499805293
19301679 30 18268710507597469578
19315958 150 16917351446591105382
19841028 212 17749945558335725842
21150785 3 14634869743045756616
21267235 1 18409729565028197372
21781055 127 16772976781643460824
21792934 111 18341040874876731920
21792961 116 17822281354120274532
22224240 67 17346596374399448974
22311459 1 18342457040882496110
232437 2 18260548918477969706
23522609 53 18194713481842819036
23559900 14 17749954474054497416
23569917 315 18272093841957121983
24771293 8 17917437488772318881
249057 3 18201718483011791511
3178227 256 18341895203257032606
335352 9 18413105086757058525
34797466 226 15791735213589977438
4017518 198 17203897370586453054
439807 62 18259983761180052368
44389302 135 18201711805710270474
45377200 153 16226338122570985027
54039377 194 18407760339343914316
6081469 158 17458059361222535228
6691757 9 17131838694369850031
67123 10 18260267460116521770
9663363 56 18333726919402038336
9953998 17 14333407866015244669
9962374 69 18336822095429893784

> <PUBCHEM_SHAPE_MULTIPOLES>
650.43
28.98
2.01
1
4.52
0.52
0.02
-9.07
5.1
0.23
-0.11
-0.76
-0.26
-0.9

> <PUBCHEM_SHAPE_SELFOVERLAP>
1445.775

> <PUBCHEM_SHAPE_VOLUME>
340

> <PUBCHEM_COORDINATE_TYPE>
2
5
10

$$$$
