7144101
  -OEChem-12032416113D

 53 57  0     1  0  0  0  0  0999 V2000
   -2.9573    2.5777    2.3049 O   0  0  0  0  0  0  0  0  0  0  0  0
   -3.9231   -1.4718   -0.5966 O   0  0  0  0  0  0  0  0  0  0  0  0
    5.6721   -0.6365   -0.7143 O   0  0  0  0  0  0  0  0  0  0  0  0
   -2.1192   -0.3658   -1.5912 N   0  0  0  0  0  0  0  0  0  0  0  0
   -1.6140    1.9542    0.4904 N   0  0  0  0  0  0  0  0  0  0  0  0
   -0.1848   -4.0822    1.2654 N   0  0  0  0  0  0  0  0  0  0  0  0
   -2.4812    2.0671   -1.9218 C   0  0  1  0  0  0  0  0  0  0  0  0
   -0.2142    1.2265   -1.4662 C   0  0  2  0  0  0  0  0  0  0  0  0
   -1.0139    2.2381   -2.2863 C   0  0  0  0  0  0  0  0  0  0  0  0
   -2.9562    0.6398   -2.2426 C   0  0  0  0  0  0  0  0  0  0  0  0
   -2.6563    2.4103   -0.4412 C   0  0  0  0  0  0  0  0  0  0  0  0
   -0.6756   -0.2042   -1.8191 C   0  0  0  0  0  0  0  0  0  0  0  0
   -0.3705    1.4703    0.0369 C   0  0  0  0  0  0  0  0  0  0  0  0
    0.6203    1.2077    0.9287 C   0  0  0  0  0  0  0  0  0  0  0  0
   -1.8955    2.1464    1.8545 C   0  0  0  0  0  0  0  0  0  0  0  0
   -2.7147   -1.3392   -0.7853 C   0  0  0  0  0  0  0  0  0  0  0  0
    0.3646    1.3898    2.3446 C   0  0  0  0  0  0  0  0  0  0  0  0
   -0.8115    1.8141    2.8067 C   0  0  0  0  0  0  0  0  0  0  0  0
    1.9492    0.7222    0.4958 C   0  0  0  0  0  0  0  0  0  0  0  0
   -1.8425   -2.2846   -0.0786 C   0  0  0  0  0  0  0  0  0  0  0  0
    2.1780   -0.6444    0.3696 C   0  0  0  0  0  0  0  0  0  0  0  0
    2.9613    1.6361    0.2186 C   0  0  0  0  0  0  0  0  0  0  0  0
   -1.3815   -1.9827    1.1953 C   0  0  0  0  0  0  0  0  0  0  0  0
   -1.4802   -3.4794   -0.6848 C   0  0  0  0  0  0  0  0  0  0  0  0
    3.4313   -1.1017   -0.0379 C   0  0  0  0  0  0  0  0  0  0  0  0
    4.2144    1.1788   -0.1889 C   0  0  0  0  0  0  0  0  0  0  0  0
    4.4495   -0.1901   -0.3171 C   0  0  0  0  0  0  0  0  0  0  0  0
   -0.5611   -2.9082    1.8202 C   0  0  0  0  0  0  0  0  0  0  0  0
   -0.6554   -4.3379    0.0241 C   0  0  0  0  0  0  0  0  0  0  0  0
    6.6678    0.3495   -0.9836 C   0  0  0  0  0  0  0  0  0  0  0  0
   -3.0911    2.7605   -2.5139 H   0  0  0  0  0  0  0  0  0  0  0  0
    0.8332    1.3323   -1.7694 H   0  0  0  0  0  0  0  0  0  0  0  0
   -0.6778    3.2613   -2.0765 H   0  0  0  0  0  0  0  0  0  0  0  0
   -0.8642    2.0647   -3.3591 H   0  0  0  0  0  0  0  0  0  0  0  0
   -4.0060    0.5168   -1.9562 H   0  0  0  0  0  0  0  0  0  0  0  0
   -2.8928    0.4577   -3.3224 H   0  0  0  0  0  0  0  0  0  0  0  0
   -2.6823    3.5041   -0.3382 H   0  0  0  0  0  0  0  0  0  0  0  0
   -3.6294    2.0532   -0.0805 H   0  0  0  0  0  0  0  0  0  0  0  0
   -0.5029   -0.3968   -2.8855 H   0  0  0  0  0  0  0  0  0  0  0  0
   -0.0997   -0.9510   -1.2729 H   0  0  0  0  0  0  0  0  0  0  0  0
    1.1608    1.1559    3.0452 H   0  0  0  0  0  0  0  0  0  0  0  0
   -0.9958    1.9408    3.8668 H   0  0  0  0  0  0  0  0  0  0  0  0
    1.4039   -1.3694    0.5855 H   0  0  0  0  0  0  0  0  0  0  0  0
    2.7911    2.7057    0.3141 H   0  0  0  0  0  0  0  0  0  0  0  0
   -1.6585   -1.0642    1.6989 H   0  0  0  0  0  0  0  0  0  0  0  0
   -1.8246   -3.7415   -1.6793 H   0  0  0  0  0  0  0  0  0  0  0  0
    3.6085   -2.1694   -0.1350 H   0  0  0  0  0  0  0  0  0  0  0  0
    4.9596    1.9409   -0.3897 H   0  0  0  0  0  0  0  0  0  0  0  0
   -0.1744   -2.7232    2.8169 H   0  0  0  0  0  0  0  0  0  0  0  0
   -0.3410   -5.2845   -0.4028 H   0  0  0  0  0  0  0  0  0  0  0  0
    6.9185    0.9239   -0.0853 H   0  0  0  0  0  0  0  0  0  0  0  0
    6.3798    0.9937   -1.8214 H   0  0  0  0  0  0  0  0  0  0  0  0
    7.5756   -0.1822   -1.2868 H   0  0  0  0  0  0  0  0  0  0  0  0
  1 15  2  0  0  0  0
  2 16  2  0  0  0  0
  3 27  1  0  0  0  0
  3 30  1  0  0  0  0
  4 10  1  0  0  0  0
  4 12  1  0  0  0  0
  4 16  1  0  0  0  0
  5 11  1  0  0  0  0
  5 13  1  0  0  0  0
  5 15  1  0  0  0  0
  6 28  2  0  0  0  0
  6 29  1  0  0  0  0
  7  9  1  0  0  0  0
  7 10  1  0  0  0  0
  7 11  1  0  0  0  0
  7 31  1  0  0  0  0
  8  9  1  0  0  0  0
  8 12  1  0  0  0  0
  8 13  1  0  0  0  0
  8 32  1  0  0  0  0
  9 33  1  0  0  0  0
  9 34  1  0  0  0  0
 10 35  1  0  0  0  0
 10 36  1  0  0  0  0
 11 37  1  0  0  0  0
 11 38  1  0  0  0  0
 12 39  1  0  0  0  0
 12 40  1  0  0  0  0
 13 14  2  0  0  0  0
 14 17  1  0  0  0  0
 14 19  1  0  0  0  0
 15 18  1  0  0  0  0
 16 20  1  0  0  0  0
 17 18  2  0  0  0  0
 17 41  1  0  0  0  0
 18 42  1  0  0  0  0
 19 21  2  0  0  0  0
 19 22  1  0  0  0  0
 20 23  2  0  0  0  0
 20 24  1  0  0  0  0
 21 25  1  0  0  0  0
 21 43  1  0  0  0  0
 22 26  2  0  0  0  0
 22 44  1  0  0  0  0
 23 28  1  0  0  0  0
 23 45  1  0  0  0  0
 24 29  2  0  0  0  0
 24 46  1  0  0  0  0
 25 27  2  0  0  0  0
 25 47  1  0  0  0  0
 26 27  1  0  0  0  0
 26 48  1  0  0  0  0
 28 49  1  0  0  0  0
 29 50  1  0  0  0  0
 30 51  1  0  0  0  0
 30 52  1  0  0  0  0
 30 53  1  0  0  0  0
M  END
> <PUBCHEM_COMPOUND_CID>
7144101

> <PUBCHEM_CONFORMER_RMSD>
0.8

> <PUBCHEM_CONFORMER_DIVERSEORDER>
1
2

> <PUBCHEM_MMFF94_PARTIAL_CHARGES>
38
1 -0.57
10 0.3
11 0.3
12 0.3
13 -0.03
14 -0.03
15 0.62
16 0.54
17 -0.15
18 -0.14
19 0.03
2 -0.57
20 0.09
21 -0.15
22 -0.15
23 -0.15
24 -0.15
25 -0.15
26 -0.15
27 0.08
28 0.16
29 0.16
3 -0.36
30 0.28
4 -0.66
41 0.15
42 0.15
43 0.15
44 0.15
45 0.15
46 0.15
47 0.15
48 0.15
49 0.15
5 -0.47
50 0.15
6 -0.62
8 0.14

> <PUBCHEM_EFFECTIVE_ROTOR_COUNT>
5

> <PUBCHEM_PHARMACOPHORE_FEATURES>
9
1 1 acceptor
1 2 acceptor
1 3 acceptor
1 6 acceptor
6 19 21 22 25 26 27 rings
6 4 7 8 9 10 12 rings
6 5 13 14 15 17 18 rings
6 5 7 8 9 11 13 rings
6 6 20 23 24 28 29 rings

> <PUBCHEM_HEAVY_ATOM_COUNT>
30

> <PUBCHEM_ATOM_DEF_STEREO_COUNT>
2

> <PUBCHEM_ATOM_UDEF_STEREO_COUNT>
0

> <PUBCHEM_BOND_DEF_STEREO_COUNT>
0

> <PUBCHEM_BOND_UDEF_STEREO_COUNT>
0

> <PUBCHEM_ISOTOPIC_ATOM_COUNT>
0

> <PUBCHEM_COMPONENT_COUNT>
1

> <PUBCHEM_CACTVS_TAUTO_COUNT>
1

> <PUBCHEM_CONFORMER_ID>
006D02A500000001

> <PUBCHEM_MMFF94_ENERGY>
101.9546

> <PUBCHEM_FEATURE_SELFOVERLAP>
47.258

> <PUBCHEM_SHAPE_FINGERPRINT>
12156800 1 17615745842942975195
12788726 201 18131070428658298770
133893 2 17545027209275329733
14114206 34 17987217959300224240
14251740 79 18410854365302203254
15463212 79 17822278077419007890
17974551 9 17342386508028772043
20642791 178 17544729263436759829
20775530 9 17905044012589792938
238 59 17537987079103535071
3027735 51 18412826867429472018
3493558 16 10944470796657950612
35225 105 17912120263087562555
394222 165 16837991750429436385
469060 322 17458925815008468362
484985 159 18060427897759284006
5080951 261 18187362173427384656
57527452 28 18337688485440255371
59755656 520 18198919019386888312

> <PUBCHEM_SHAPE_MULTIPOLES>
584.83
7.66
4.45
2.44
16.64
5.02
-0.78
-0.75
3.5
-3.91
-1.2
-1.91
-1.63
-0.08

> <PUBCHEM_SHAPE_SELFOVERLAP>
1294.113

> <PUBCHEM_SHAPE_VOLUME>
306.7

> <PUBCHEM_COORDINATE_TYPE>
2
5
10

$$$$
