45783897
  -OEChem-12032416253D

 63 65  0     1  0  0  0  0  0999 V2000
    1.6049   -3.5490   -0.1264 O   0  0  0  0  0  0  0  0  0  0  0  0
   -0.4754    3.3816    0.5432 O   0  0  0  0  0  0  0  0  0  0  0  0
    3.2134   -1.8686    0.0198 N   0  0  0  0  0  0  0  0  0  0  0  0
   -0.7296    1.6541    2.0768 N   0  0  0  0  0  0  0  0  0  0  0  0
   -5.9714   -1.9111   -2.0077 N   0  0  0  0  0  0  0  0  0  0  0  0
    1.5121    0.1378   -1.4374 C   0  0  1  0  0  0  0  0  0  0  0  0
    3.0141   -0.1430   -1.6923 C   0  0  2  0  0  0  0  0  0  0  0  0
    1.2582    1.6499   -1.3414 C   0  0  0  0  0  0  0  0  0  0  0  0
    2.0759    2.3076   -0.2138 C   0  0  2  0  0  0  0  0  0  0  0  0
    0.6267   -0.4684   -2.5305 C   0  0  0  0  0  0  0  0  0  0  0  0
    3.3657   -1.6012   -1.3760 C   0  0  0  0  0  0  0  0  0  0  0  0
    3.5250    1.8650   -0.2373 C   0  0  0  0  0  0  0  0  0  0  0  0
    2.3480   -2.9358    2.0198 C   0  0  0  0  0  0  0  0  0  0  0  0
    3.9276    0.7750   -0.9144 C   0  0  0  0  0  0  0  0  0  0  0  0
    1.4826   -2.0098    2.8232 C   0  0  0  0  0  0  0  0  0  0  0  0
    1.1297   -3.4646    2.7184 C   0  0  0  0  0  0  0  0  0  0  0  0
    1.4426    2.0402    1.1560 C   0  0  0  0  0  0  0  0  0  0  0  0
    0.5889    0.4445   -3.7519 C   0  0  0  0  0  0  0  0  0  0  0  0
   -0.7808   -0.7178   -1.9978 C   0  0  0  0  0  0  0  0  0  0  0  0
    2.3423   -2.8241    0.5312 C   0  0  0  0  0  0  0  0  0  0  0  0
    4.5093    2.7307    0.4988 C   0  0  0  0  0  0  0  0  0  0  0  0
   -0.0109    2.4546    1.2011 C   0  0  0  0  0  0  0  0  0  0  0  0
   -2.1436    1.8237    2.3212 C   0  0  0  0  0  0  0  0  0  0  0  0
   -2.9789    1.0087    1.3767 C   0  0  0  0  0  0  0  0  0  0  0  0
   -3.8957    1.6390    0.5352 C   0  0  0  0  0  0  0  0  0  0  0  0
   -2.8382   -0.3785    1.3408 C   0  0  0  0  0  0  0  0  0  0  0  0
   -4.6716    0.8818   -0.3424 C   0  0  0  0  0  0  0  0  0  0  0  0
   -3.6143   -1.1356    0.4632 C   0  0  0  0  0  0  0  0  0  0  0  0
   -4.5308   -0.5055   -0.3785 C   0  0  0  0  0  0  0  0  0  0  0  0
   -5.3258   -1.2812   -1.2775 C   0  0  0  0  0  0  0  0  0  0  0  0
    1.2259   -0.3081   -0.4769 H   0  0  0  0  0  0  0  0  0  0  0  0
    3.2436    0.0243   -2.7522 H   0  0  0  0  0  0  0  0  0  0  0  0
    1.5868    2.1480   -2.2637 H   0  0  0  0  0  0  0  0  0  0  0  0
    0.1912    1.8653   -1.2503 H   0  0  0  0  0  0  0  0  0  0  0  0
    2.0474    3.3905   -0.4002 H   0  0  0  0  0  0  0  0  0  0  0  0
    1.0205   -1.4400   -2.8459 H   0  0  0  0  0  0  0  0  0  0  0  0
    2.7710   -2.3036   -1.9663 H   0  0  0  0  0  0  0  0  0  0  0  0
    4.4167   -1.7981   -1.6201 H   0  0  0  0  0  0  0  0  0  0  0  0
    3.3076   -3.2051    2.4508 H   0  0  0  0  0  0  0  0  0  0  0  0
    4.9881    0.5313   -0.9351 H   0  0  0  0  0  0  0  0  0  0  0  0
    1.8696   -1.6500    3.7685 H   0  0  0  0  0  0  0  0  0  0  0  0
    0.8501   -1.3040    2.2993 H   0  0  0  0  0  0  0  0  0  0  0  0
    0.2514   -3.7225    2.1396 H   0  0  0  0  0  0  0  0  0  0  0  0
    1.2805   -4.0835    3.5948 H   0  0  0  0  0  0  0  0  0  0  0  0
    1.9567    2.6142    1.9366 H   0  0  0  0  0  0  0  0  0  0  0  0
    1.5452    0.9817    1.4223 H   0  0  0  0  0  0  0  0  0  0  0  0
    3.8061   -1.3635    0.6726 H   0  0  0  0  0  0  0  0  0  0  0  0
   -0.0068    1.3499   -3.5951 H   0  0  0  0  0  0  0  0  0  0  0  0
    0.1085   -0.0869   -4.5829 H   0  0  0  0  0  0  0  0  0  0  0  0
    1.5870    0.7248   -4.1013 H   0  0  0  0  0  0  0  0  0  0  0  0
   -1.4054   -1.1835   -2.7681 H   0  0  0  0  0  0  0  0  0  0  0  0
   -0.7573   -1.3976   -1.1394 H   0  0  0  0  0  0  0  0  0  0  0  0
   -1.2774    0.2063   -1.6872 H   0  0  0  0  0  0  0  0  0  0  0  0
    4.4562    3.7614    0.1336 H   0  0  0  0  0  0  0  0  0  0  0  0
    5.5408    2.3872    0.3658 H   0  0  0  0  0  0  0  0  0  0  0  0
    4.2983    2.7295    1.5723 H   0  0  0  0  0  0  0  0  0  0  0  0
   -0.2555    0.9092    2.5788 H   0  0  0  0  0  0  0  0  0  0  0  0
   -2.3883    2.8895    2.2478 H   0  0  0  0  0  0  0  0  0  0  0  0
   -2.3438    1.5108    3.3520 H   0  0  0  0  0  0  0  0  0  0  0  0
   -4.0154    2.7190    0.5514 H   0  0  0  0  0  0  0  0  0  0  0  0
   -2.1297   -0.8831    1.9925 H   0  0  0  0  0  0  0  0  0  0  0  0
   -5.3815    1.3874   -0.9927 H   0  0  0  0  0  0  0  0  0  0  0  0
   -3.4926   -2.2160    0.4464 H   0  0  0  0  0  0  0  0  0  0  0  0
  1 20  2  0  0  0  0
  2 22  2  0  0  0  0
  3 11  1  0  0  0  0
  3 20  1  0  0  0  0
  3 47  1  0  0  0  0
  4 22  1  0  0  0  0
  4 23  1  0  0  0  0
  4 57  1  0  0  0  0
  5 30  3  0  0  0  0
  6  7  1  0  0  0  0
  6  8  1  0  0  0  0
  6 10  1  0  0  0  0
  6 31  1  0  0  0  0
  7 11  1  0  0  0  0
  7 14  1  0  0  0  0
  7 32  1  0  0  0  0
  8  9  1  0  0  0  0
  8 33  1  0  0  0  0
  8 34  1  0  0  0  0
  9 12  1  0  0  0  0
  9 17  1  0  0  0  0
  9 35  1  0  0  0  0
 10 18  1  0  0  0  0
 10 19  1  0  0  0  0
 10 36  1  0  0  0  0
 11 37  1  0  0  0  0
 11 38  1  0  0  0  0
 12 14  2  0  0  0  0
 12 21  1  0  0  0  0
 13 15  1  0  0  0  0
 13 16  1  0  0  0  0
 13 20  1  0  0  0  0
 13 39  1  0  0  0  0
 14 40  1  0  0  0  0
 15 16  1  0  0  0  0
 15 41  1  0  0  0  0
 15 42  1  0  0  0  0
 16 43  1  0  0  0  0
 16 44  1  0  0  0  0
 17 22  1  0  0  0  0
 17 45  1  0  0  0  0
 17 46  1  0  0  0  0
 18 48  1  0  0  0  0
 18 49  1  0  0  0  0
 18 50  1  0  0  0  0
 19 51  1  0  0  0  0
 19 52  1  0  0  0  0
 19 53  1  0  0  0  0
 21 54  1  0  0  0  0
 21 55  1  0  0  0  0
 21 56  1  0  0  0  0
 23 24  1  0  0  0  0
 23 58  1  0  0  0  0
 23 59  1  0  0  0  0
 24 25  2  0  0  0  0
 24 26  1  0  0  0  0
 25 27  1  0  0  0  0
 25 60  1  0  0  0  0
 26 28  2  0  0  0  0
 26 61  1  0  0  0  0
 27 29  2  0  0  0  0
 27 62  1  0  0  0  0
 28 29  1  0  0  0  0
 28 63  1  0  0  0  0
 29 30  1  0  0  0  0
M  END
> <PUBCHEM_COMPOUND_CID>
45783897

> <PUBCHEM_CONFORMER_RMSD>
1

> <PUBCHEM_CONFORMER_DIVERSEORDER>
1
17
108
39
86
61
81
21
65
115
96
38
100
85
104
50
72
36
105
70
42
54
47
66
45
87
68
90
82
92
12
25
116
31
114
117
18
41
95
30
57
46
64
24
107
11
106
60
44
77
91
94
49
74
113
75
120
52
43
119
40
2
48
14
15
13
35
28
98
88
29
4
73
111
71
55
84
67
109
97
33
110
20
78
27
99
103
58
112
118
9
26
34
51
89
63
53
79
59
76
23
5
80
93
3
121
83
62
7
8
19
56
37
101
10
16
22
6
69
102
32

> <PUBCHEM_MMFF94_PARTIAL_CHARGES>
37
1 -0.57
11 0.3
12 -0.28
13 -0.1
14 -0.29
15 -0.2
16 -0.2
17 0.06
2 -0.57
20 0.63
21 0.14
22 0.57
23 0.44
24 -0.14
25 -0.15
26 -0.15
27 -0.15
28 -0.15
29 0.07
3 -0.73
30 0.48
39 0.1
4 -0.73
40 0.15
41 0.1
42 0.1
43 0.1
44 0.1
47 0.37
5 -0.56
57 0.37
60 0.15
61 0.15
62 0.15
63 0.15
7 0.14
9 0.14

> <PUBCHEM_EFFECTIVE_ROTOR_COUNT>
11.4

> <PUBCHEM_PHARMACOPHORE_FEATURES>
8
1 1 acceptor
1 2 acceptor
1 3 donor
1 4 donor
1 5 acceptor
3 10 18 19 hydrophobe
6 24 25 26 27 28 29 rings
6 6 7 8 9 12 14 rings

> <PUBCHEM_HEAVY_ATOM_COUNT>
30

> <PUBCHEM_ATOM_DEF_STEREO_COUNT>
3

> <PUBCHEM_ATOM_UDEF_STEREO_COUNT>
0

> <PUBCHEM_BOND_DEF_STEREO_COUNT>
0

> <PUBCHEM_BOND_UDEF_STEREO_COUNT>
0

> <PUBCHEM_ISOTOPIC_ATOM_COUNT>
0

> <PUBCHEM_COMPONENT_COUNT>
1

> <PUBCHEM_CACTVS_TAUTO_COUNT>
4

> <PUBCHEM_CONFORMER_ID>
02BA9B5900000001

> <PUBCHEM_MMFF94_ENERGY>
56.1748

> <PUBCHEM_FEATURE_SELFOVERLAP>
40.596

> <PUBCHEM_SHAPE_FINGERPRINT>
11370993 70 17969511574438225842
11578080 2 17823975637225645964
12156800 1 14760084506512699514
14114207 22 17169801528004173648
14674994 50 16453742076059235354
19026451 147 18411972555495226411
19315092 285 18189876704553673919
20511986 3 18272931600960333657
20764821 26 17184216348055200123
20775530 9 17172923921562381314
23559900 14 17057823818672029733
25222932 49 18198908200733749015
35225 105 17543095800984270750
404807 78 17391065212306885035
46194498 28 15794308091667128341
463206 1 18262816076440435377
469060 322 16476207490647830410
5081480 168 16589425272944240857

> <PUBCHEM_SHAPE_MULTIPOLES>
590.7
9.4
4.15
3.2
12.06
2.33
-0.94
0.66
-2.97
-3.69
2.92
0.1
0.82
-2.08

> <PUBCHEM_SHAPE_SELFOVERLAP>
1223.606

> <PUBCHEM_SHAPE_VOLUME>
334.5

> <PUBCHEM_COORDINATE_TYPE>
2
5
10

$$$$
