75536690
  -OEChem-12032416403D

 44 46  0     1  0  0  0  0  0999 V2000
    4.1533   -1.4196   -0.0624 S   0  0  0  0  0  0  0  0  0  0  0  0
   -0.2147   -1.2989    1.2694 O   0  0  0  0  0  0  0  0  0  0  0  0
   -1.0068   -0.8792   -2.2094 O   0  0  0  0  0  0  0  0  0  0  0  0
    4.1821   -1.8274   -1.4542 O   0  0  0  0  0  0  0  0  0  0  0  0
    4.9677   -2.1125    0.9175 O   0  0  0  0  0  0  0  0  0  0  0  0
   -3.3099   -0.0999   -0.2183 N   0  0  0  0  0  0  0  0  0  0  0  0
    2.5418   -1.3858    0.4816 N   0  0  0  0  0  0  0  0  0  0  0  0
   -6.4982    0.5304    1.1884 N   0  0  0  0  0  0  0  0  0  0  0  0
   -7.4092    1.4905   -0.5948 N   0  0  0  0  0  0  0  0  0  0  0  0
   -2.1569   -0.9709   -0.0579 C   0  0  1  0  0  0  0  0  0  0  0  0
   -0.9392   -0.5200   -0.8430 C   0  0  1  0  0  0  0  0  0  0  0  0
    0.1716   -1.2646   -0.1146 C   0  0  1  0  0  0  0  0  0  0  0  0
   -1.6138   -0.9782    1.3617 C   0  0  0  0  0  0  0  0  0  0  0  0
    1.5300   -0.6005   -0.2521 C   0  0  0  0  0  0  0  0  0  0  0  0
   -4.5251   -0.7423    0.2680 C   0  0  0  0  0  0  0  0  0  0  0  0
   -5.7277    0.1521    0.1251 C   0  0  0  0  0  0  0  0  0  0  0  0
    4.5969    0.2898    0.0137 C   0  0  0  0  0  0  0  0  0  0  0  0
   -6.3096    0.7568   -0.9640 C   0  0  0  0  0  0  0  0  0  0  0  0
    5.1524    0.8147    1.1805 C   0  0  0  0  0  0  0  0  0  0  0  0
    4.3878    1.1146   -1.0915 C   0  0  0  0  0  0  0  0  0  0  0  0
   -7.4950    1.3329    0.7073 C   0  0  0  0  0  0  0  0  0  0  0  0
    5.4988    2.1645    1.2422 C   0  0  0  0  0  0  0  0  0  0  0  0
    4.7342    2.4642   -1.0300 C   0  0  0  0  0  0  0  0  0  0  0  0
    5.2897    2.9894    0.1368 C   0  0  0  0  0  0  0  0  0  0  0  0
   -2.4070   -1.9932   -0.3757 H   0  0  0  0  0  0  0  0  0  0  0  0
   -0.8018    0.5660   -0.7693 H   0  0  0  0  0  0  0  0  0  0  0  0
    0.2381   -2.3042   -0.4618 H   0  0  0  0  0  0  0  0  0  0  0  0
   -1.6885    0.0045    1.8415 H   0  0  0  0  0  0  0  0  0  0  0  0
   -2.1120   -1.7130    2.0013 H   0  0  0  0  0  0  0  0  0  0  0  0
    1.5074    0.4041    0.1848 H   0  0  0  0  0  0  0  0  0  0  0  0
    1.7946   -0.5251   -1.3111 H   0  0  0  0  0  0  0  0  0  0  0  0
   -3.4243    0.1201   -1.2081 H   0  0  0  0  0  0  0  0  0  0  0  0
   -4.4142   -1.0193    1.3235 H   0  0  0  0  0  0  0  0  0  0  0  0
   -4.7231   -1.6637   -0.2943 H   0  0  0  0  0  0  0  0  0  0  0  0
    2.3612   -1.5201    1.4844 H   0  0  0  0  0  0  0  0  0  0  0  0
   -1.1293   -1.8419   -2.2668 H   0  0  0  0  0  0  0  0  0  0  0  0
   -6.3596    0.2672    2.1551 H   0  0  0  0  0  0  0  0  0  0  0  0
   -5.9950    0.7023   -1.9963 H   0  0  0  0  0  0  0  0  0  0  0  0
    5.3166    0.1927    2.0558 H   0  0  0  0  0  0  0  0  0  0  0  0
    3.9539    0.7279   -2.0092 H   0  0  0  0  0  0  0  0  0  0  0  0
   -8.2450    1.7667    1.3532 H   0  0  0  0  0  0  0  0  0  0  0  0
    5.9295    2.5739    2.1513 H   0  0  0  0  0  0  0  0  0  0  0  0
    4.5705    3.1068   -1.8902 H   0  0  0  0  0  0  0  0  0  0  0  0
    5.5588    4.0405    0.1849 H   0  0  0  0  0  0  0  0  0  0  0  0
  1  4  2  0  0  0  0
  1  5  2  0  0  0  0
  1  7  1  0  0  0  0
  1 17  1  0  0  0  0
  2 12  1  0  0  0  0
  2 13  1  0  0  0  0
  3 11  1  0  0  0  0
  3 36  1  0  0  0  0
  6 10  1  0  0  0  0
  6 15  1  0  0  0  0
  6 32  1  0  0  0  0
  7 14  1  0  0  0  0
  7 35  1  0  0  0  0
  8 16  1  0  0  0  0
  8 21  1  0  0  0  0
  8 37  1  0  0  0  0
  9 18  1  0  0  0  0
  9 21  2  0  0  0  0
 10 11  1  0  0  0  0
 10 13  1  0  0  0  0
 10 25  1  0  0  0  0
 11 12  1  0  0  0  0
 11 26  1  0  0  0  0
 12 14  1  0  0  0  0
 12 27  1  0  0  0  0
 13 28  1  0  0  0  0
 13 29  1  0  0  0  0
 14 30  1  0  0  0  0
 14 31  1  0  0  0  0
 15 16  1  0  0  0  0
 15 33  1  0  0  0  0
 15 34  1  0  0  0  0
 16 18  2  0  0  0  0
 17 19  2  0  0  0  0
 17 20  1  0  0  0  0
 18 38  1  0  0  0  0
 19 22  1  0  0  0  0
 19 39  1  0  0  0  0
 20 23  2  0  0  0  0
 20 40  1  0  0  0  0
 21 41  1  0  0  0  0
 22 24  2  0  0  0  0
 22 42  1  0  0  0  0
 23 24  1  0  0  0  0
 23 43  1  0  0  0  0
 24 44  1  0  0  0  0
M  END
> <PUBCHEM_COMPOUND_CID>
75536690

> <PUBCHEM_CONFORMER_RMSD>
1.2

> <PUBCHEM_CONFORMER_DIVERSEORDER>
1
117
100
11
45
88
10
89
110
82
2
36
46
78
113
92
61
40
107
77
41
60
102
47
51
22
56
108
65
71
85
14
103
83
97
35
29
98
94
67
116
84
3
38
20
76
62
25
70
9
23
55
109
87
72
111
63
19
33
37
48
30
42
69
122
75
39
34
64
31
28
17
12
58
79
6
104
99
118
5
50
52
93
4
44
27
8
90
95
86
7
112
18
119
73
121
101
49
26
106
24
68
59
15
91
43
120
74
21
114
53
16
80
13
81
54
105
96
32
57
115
66

> <PUBCHEM_MMFF94_PARTIAL_CHARGES>
35
1 1.45
10 0.27
11 0.28
12 0.28
13 0.28
14 0.36
15 0.45
16 -0.33
17 -0.01
18 0.08
19 -0.15
2 -0.56
20 -0.15
21 0.04
22 -0.15
23 -0.15
24 -0.15
3 -0.68
32 0.36
35 0.42
36 0.4
37 0.27
38 0.15
39 0.15
4 -0.65
40 0.15
41 0.15
42 0.15
43 0.15
44 0.15
5 -0.65
6 -0.9
7 -0.91
8 0.03
9 -0.57

> <PUBCHEM_EFFECTIVE_ROTOR_COUNT>
8

> <PUBCHEM_PHARMACOPHORE_FEATURES>
13
1 2 acceptor
1 3 acceptor
1 3 donor
1 4 acceptor
1 5 acceptor
1 6 cation
1 6 donor
1 7 donor
1 8 donor
3 8 9 21 cation
5 2 10 11 12 13 rings
5 8 9 16 18 21 rings
6 17 19 20 22 23 24 rings

> <PUBCHEM_HEAVY_ATOM_COUNT>
24

> <PUBCHEM_ATOM_DEF_STEREO_COUNT>
3

> <PUBCHEM_ATOM_UDEF_STEREO_COUNT>
0

> <PUBCHEM_BOND_DEF_STEREO_COUNT>
0

> <PUBCHEM_BOND_UDEF_STEREO_COUNT>
0

> <PUBCHEM_ISOTOPIC_ATOM_COUNT>
0

> <PUBCHEM_COMPONENT_COUNT>
1

> <PUBCHEM_CACTVS_TAUTO_COUNT>
2

> <PUBCHEM_CONFORMER_ID>
0480993200000001

> <PUBCHEM_MMFF94_ENERGY>
31.0205

> <PUBCHEM_FEATURE_SELFOVERLAP>
65.99

> <PUBCHEM_SHAPE_FINGERPRINT>
10 15 17167866383028294917
10316853 100 9511465528505652364
10554248 39 17845928533651034999
11408170 132 13685751451048875873
11719270 70 12757143580966806097
11991303 11 17418087737630303831
125118 31 18335703806590812649
13167372 99 18411419466944491289
13533116 47 17968657116802685386
13668630 136 8430327848178194712
13878862 14 18339066143081155476
13955234 65 18041552530084969514
14347332 77 10447663373949884867
15183329 4 16702304551082394257
15348495 7 17676213506513473107
15352257 5 9367339341223961473
15475509 35 11530477865544151940
155225 6 17972325276777807292
15840311 113 18335986389869000565
17134984 74 11383830480925850372
18222031 100 13470689247734000267
18335252 114 17989490723729833684
20157964 124 18341896281483883738
20281389 69 18334295345280460897
20397935 70 8070028861502688556
21298829 104 18341611581145580528
21344244 181 11167941376938377397
21521239 73 11455889152989695237
21637258 2 8142089736906089203
21641784 216 16486984959758111241
21792934 111 16298934378295537951
220451 1 11602833388583581267
2215653 11 13039191428514368790
22224240 67 17603586323204577067
2303208 19 10592047942690855779
23081809 10 18060412517708074751
23559900 14 17313112956022288662
249057 25 17560245712797664763
2838139 119 18342731906348091501
328310 630 18130794456241491609
33382 64 8718830885701110781
33532 11 8790879684432467713
3472631 163 17703508904269473156
34797466 226 18272656718895195943
397830 11 18187657950429101403
4340502 62 17095240315223661395
465052 167 7853583413416602856
5104073 3 15719973439545435569
5718773 13 10663562373859097796
59682541 52 16917079840884666956
6328613 192 18272651247333655633
6898599 12 17844806082502872943
960060 61 12607135058047749544

> <PUBCHEM_SHAPE_MULTIPOLES>
454.36
20.77
2.47
1.39
28.87
1.06
0.2
14
-2.18
-4.44
-0.04
-0.39
-0.05
0.22

> <PUBCHEM_SHAPE_SELFOVERLAP>
944.333

> <PUBCHEM_SHAPE_VOLUME>
259.7

> <PUBCHEM_COORDINATE_TYPE>
2
5
10

$$$$
