26743552
  -OEChem-12032416283D

 46 49  0     1  0  0  0  0  0999 V2000
    3.7955   -3.5402    1.0197 O   0  0  0  0  0  0  0  0  0  0  0  0
   -0.4699   -1.2630   -1.9977 O   0  0  0  0  0  0  0  0  0  0  0  0
    2.2306   -0.3997    0.3417 N   0  0  1  0  0  0  0  0  0  0  0  0
   -0.7420   -0.5658    0.1134 N   0  0  0  0  0  0  0  0  0  0  0  0
   -1.8303   -0.9600   -1.8599 N   0  0  0  0  0  0  0  0  0  0  0  0
    2.6236    0.9116   -0.1703 C   0  0  0  0  0  0  0  0  0  0  0  0
    1.5867   -1.2535   -0.6772 C   0  0  1  0  0  0  0  0  0  0  0  0
    3.3724   -1.1555    0.8533 C   0  0  0  0  0  0  0  0  0  0  0  0
    1.3907    1.6578   -0.6921 C   0  0  0  0  0  0  0  0  0  0  0  0
    3.3284    1.7110    0.9312 C   0  0  0  0  0  0  0  0  0  0  0  0
    1.9175   -2.6954   -0.2490 C   0  0  0  0  0  0  0  0  0  0  0  0
    2.7879   -2.5481    0.9928 C   0  0  1  0  0  0  0  0  0  0  0  0
    1.7509    3.0650   -1.1657 C   0  0  0  0  0  0  0  0  0  0  0  0
    3.6867    3.1178    0.4551 C   0  0  0  0  0  0  0  0  0  0  0  0
    2.4638    3.8605   -0.0759 C   0  0  0  0  0  0  0  0  0  0  0  0
    0.0976   -1.0034   -0.7906 C   0  0  0  0  0  0  0  0  0  0  0  0
   -1.9120   -0.5558   -0.5888 C   0  0  0  0  0  0  0  0  0  0  0  0
   -3.1464   -0.1374    0.0101 C   0  0  0  0  0  0  0  0  0  0  0  0
   -3.1701    0.2730    1.3430 C   0  0  0  0  0  0  0  0  0  0  0  0
   -4.3226   -0.1409   -0.7396 C   0  0  0  0  0  0  0  0  0  0  0  0
   -4.3701    0.6799    1.9263 C   0  0  0  0  0  0  0  0  0  0  0  0
   -5.5226    0.2659   -0.1564 C   0  0  0  0  0  0  0  0  0  0  0  0
   -5.5464    0.6762    1.1767 C   0  0  0  0  0  0  0  0  0  0  0  0
    3.3292    0.7899   -1.0051 H   0  0  0  0  0  0  0  0  0  0  0  0
    2.0454   -1.0910   -1.6630 H   0  0  0  0  0  0  0  0  0  0  0  0
    3.7196   -0.8070    1.8313 H   0  0  0  0  0  0  0  0  0  0  0  0
    4.2269   -1.1590    0.1636 H   0  0  0  0  0  0  0  0  0  0  0  0
    0.6248    1.7389    0.0892 H   0  0  0  0  0  0  0  0  0  0  0  0
    0.9525    1.1655   -1.5639 H   0  0  0  0  0  0  0  0  0  0  0  0
    4.2622    1.2317    1.2453 H   0  0  0  0  0  0  0  0  0  0  0  0
    2.6864    1.7847    1.8189 H   0  0  0  0  0  0  0  0  0  0  0  0
    1.0288   -3.2951   -0.0206 H   0  0  0  0  0  0  0  0  0  0  0  0
    2.4616   -3.2134   -1.0486 H   0  0  0  0  0  0  0  0  0  0  0  0
    2.1809   -2.6270    1.9031 H   0  0  0  0  0  0  0  0  0  0  0  0
    0.8423    3.5950   -1.4734 H   0  0  0  0  0  0  0  0  0  0  0  0
    2.3973    2.9993   -2.0499 H   0  0  0  0  0  0  0  0  0  0  0  0
    4.4461    3.0542   -0.3341 H   0  0  0  0  0  0  0  0  0  0  0  0
    4.1312    3.6846    1.2811 H   0  0  0  0  0  0  0  0  0  0  0  0
    2.7677    4.8365   -0.4706 H   0  0  0  0  0  0  0  0  0  0  0  0
    1.7673    4.0523    0.7496 H   0  0  0  0  0  0  0  0  0  0  0  0
    3.3529   -4.4059    1.0324 H   0  0  0  0  0  0  0  0  0  0  0  0
   -2.2706    0.2874    1.9533 H   0  0  0  0  0  0  0  0  0  0  0  0
   -4.3430   -0.4539   -1.7805 H   0  0  0  0  0  0  0  0  0  0  0  0
   -4.3890    0.9997    2.9641 H   0  0  0  0  0  0  0  0  0  0  0  0
   -6.4388    0.2633   -0.7397 H   0  0  0  0  0  0  0  0  0  0  0  0
   -6.4808    0.9929    1.6307 H   0  0  0  0  0  0  0  0  0  0  0  0
  1 12  1  0  0  0  0
  1 41  1  0  0  0  0
  2  5  1  0  0  0  0
  2 16  1  0  0  0  0
  3  6  1  0  0  0  0
  3  7  1  0  0  0  0
  3  8  1  0  0  0  0
  4 16  2  0  0  0  0
  4 17  1  0  0  0  0
  5 17  2  0  0  0  0
  6  9  1  0  0  0  0
  6 10  1  0  0  0  0
  6 24  1  0  0  0  0
  7 11  1  0  0  0  0
  7 16  1  0  0  0  0
  7 25  1  0  0  0  0
  8 12  1  0  0  0  0
  8 26  1  0  0  0  0
  8 27  1  0  0  0  0
  9 13  1  0  0  0  0
  9 28  1  0  0  0  0
  9 29  1  0  0  0  0
 10 14  1  0  0  0  0
 10 30  1  0  0  0  0
 10 31  1  0  0  0  0
 11 12  1  0  0  0  0
 11 32  1  0  0  0  0
 11 33  1  0  0  0  0
 12 34  1  0  0  0  0
 13 15  1  0  0  0  0
 13 35  1  0  0  0  0
 13 36  1  0  0  0  0
 14 15  1  0  0  0  0
 14 37  1  0  0  0  0
 14 38  1  0  0  0  0
 15 39  1  0  0  0  0
 15 40  1  0  0  0  0
 17 18  1  0  0  0  0
 18 19  2  0  0  0  0
 18 20  1  0  0  0  0
 19 21  1  0  0  0  0
 19 42  1  0  0  0  0
 20 22  2  0  0  0  0
 20 43  1  0  0  0  0
 21 23  2  0  0  0  0
 21 44  1  0  0  0  0
 22 23  1  0  0  0  0
 22 45  1  0  0  0  0
 23 46  1  0  0  0  0
M  END
> <PUBCHEM_COMPOUND_CID>
26743552

> <PUBCHEM_CONFORMER_RMSD>
0.8

> <PUBCHEM_CONFORMER_DIVERSEORDER>
1
10
21
6
18
7
22
16
25
17
9
13
20
19
4
3
23
14
24
11
12
5
2
15
8

> <PUBCHEM_MMFF94_PARTIAL_CHARGES>
23
1 -0.68
12 0.28
16 0.3
17 0.46
18 0.05
19 -0.15
2 -0.02
20 -0.15
21 -0.15
22 -0.15
23 -0.15
3 -0.81
4 -0.57
41 0.4
42 0.15
43 0.15
44 0.15
45 0.15
46 0.15
5 -0.41
6 0.27
7 0.45
8 0.27

> <PUBCHEM_EFFECTIVE_ROTOR_COUNT>
5.2

> <PUBCHEM_PHARMACOPHORE_FEATURES>
8
1 1 acceptor
1 1 donor
1 3 cation
3 4 5 17 cation
5 2 4 5 16 17 rings
5 3 7 8 11 12 rings
6 18 19 20 21 22 23 rings
6 6 9 10 13 14 15 rings

> <PUBCHEM_HEAVY_ATOM_COUNT>
23

> <PUBCHEM_ATOM_DEF_STEREO_COUNT>
2

> <PUBCHEM_ATOM_UDEF_STEREO_COUNT>
0

> <PUBCHEM_BOND_DEF_STEREO_COUNT>
0

> <PUBCHEM_BOND_UDEF_STEREO_COUNT>
0

> <PUBCHEM_ISOTOPIC_ATOM_COUNT>
0

> <PUBCHEM_COMPONENT_COUNT>
1

> <PUBCHEM_CACTVS_TAUTO_COUNT>
1

> <PUBCHEM_CONFORMER_ID>
0198130000000001

> <PUBCHEM_MMFF94_ENERGY>
39.1963

> <PUBCHEM_FEATURE_SELFOVERLAP>
40.597

> <PUBCHEM_SHAPE_FINGERPRINT>
10382601 240 18409444817344442312
10937287 8 17979074117423538640
11049842 53 16917077637181569631
11640471 11 18058731449764009628
12390115 104 17904209479100972260
12403259 118 17987236638898257425
12549972 3 17025686227626164429
12633257 1 17459179849502460896
12644460 14 18409169904718972978
12930653 34 18047197632939631443
13134695 92 18262515888386109286
13140716 1 18192145125948459596
13533116 47 18259992557093967043
13583140 156 18261681445461327779
13590594 115 18267307521748311568
13828863 39 16157944246515436540
13878862 14 18263062372015621613
13965767 371 18131346401861030608
14251764 38 18267868285896409393
14739800 52 17273959389405140712
14790565 3 18046348797537555356
14950920 106 18193304956439612403
14955137 171 18340215094341505526
15142526 21 18122623022513857552
15475509 8 18059592248006006894
15842332 3 18058712723738533943
16992787 43 18335708235408392062
17980427 23 17416940920868575702
1813 80 18126008165850838406
18785283 64 18114744936186267160
19377110 9 18129950095862605819
20157964 124 18410005560016905261
20715895 44 17840873967604674225
20739085 24 18341895126359415622
21033648 29 17530676607364913845
21041028 32 18192143790224043734
21503847 285 18272099283331401934
21756936 100 17834967747258426428
22849341 161 18270121189152108198
23558518 356 17978227489465230574
23559900 14 16805614642179803375
23845131 108 18117273876880388866
25147074 1 18059278968232421663
266924 1 17985247815067875319
31174 14 18259701177205240342
34797466 226 12967117304070393995
38570 142 18197795473291136908
394222 165 18272377519834316802
4409770 3 15535063754149108511
474 4 18339077210847769665
5104073 3 18338530681535341203
56616090 278 18339375140118446124
5895379 119 16343160029519173232
6034566 193 17684374236255145733
621550 5 17459755809054292206
633830 44 18198062689013237940
67856867 119 18342172280725237387
6823239 73 15864368933844677699
960060 61 8502368902518397387
9841814 1 18336553702982043750

> <PUBCHEM_SHAPE_MULTIPOLES>
446.65
10.18
3.85
1.51
14.17
1.1
0.06
2.56
-3.99
-7.86
-0.27
0.94
-0.18
-1.51

> <PUBCHEM_SHAPE_SELFOVERLAP>
960.458

> <PUBCHEM_SHAPE_VOLUME>
247

> <PUBCHEM_COORDINATE_TYPE>
2
5
10

$$$$
