11943400
  -OEChem-12032416153D

 37 39  0     1  0  0  0  0  0999 V2000
   -2.2769   -1.8924    0.8932 O   0  0  0  0  0  0  0  0  0  0  0  0
   -3.3558    1.2518   -0.1938 O   0  0  0  0  0  0  0  0  0  0  0  0
    2.2423   -1.4619    0.5687 N   0  0  2  0  0  0  0  0  0  0  0  0
   -1.1744    0.1412    0.7854 N   0  0  0  0  0  0  0  0  0  0  0  0
    2.7304    0.2599   -1.3207 C   0  0  1  0  0  0  0  0  0  0  0  0
    0.9746   -0.8239    0.1227 C   0  0  2  0  0  0  0  0  0  0  0  0
    1.2541    0.3195   -0.8776 C   0  0  0  0  0  0  0  0  0  0  0  0
    3.6350    0.5131   -0.0949 C   0  0  2  0  0  0  0  0  0  0  0  0
    3.0098   -1.1793   -1.7930 C   0  0  0  0  0  0  0  0  0  0  0  0
    3.1967   -0.4301    1.0462 C   0  0  0  0  0  0  0  0  0  0  0  0
    2.8462   -2.1428   -0.6034 C   0  0  0  0  0  0  0  0  0  0  0  0
    0.1137   -0.3547    1.2974 C   0  0  0  0  0  0  0  0  0  0  0  0
    3.6079    1.9225    0.3292 C   0  0  0  0  0  0  0  0  0  0  0  0
   -2.2532   -0.6922    0.6340 C   0  0  0  0  0  0  0  0  0  0  0  0
    3.5859    3.0720    0.6745 C   0  0  0  0  0  0  0  0  0  0  0  0
   -3.4707   -0.0450    0.0810 C   0  0  0  0  0  0  0  0  0  0  0  0
   -4.6682   -0.5725   -0.1827 C   0  0  0  0  0  0  0  0  0  0  0  0
   -5.4201    0.5140   -0.6897 C   0  0  0  0  0  0  0  0  0  0  0  0
   -4.5772    1.6009   -0.6765 C   0  0  0  0  0  0  0  0  0  0  0  0
    2.9219    0.9782   -2.1256 H   0  0  0  0  0  0  0  0  0  0  0  0
    0.3882   -1.5926   -0.4024 H   0  0  0  0  0  0  0  0  0  0  0  0
    1.0354    1.3038   -0.4479 H   0  0  0  0  0  0  0  0  0  0  0  0
    0.6036    0.2040   -1.7538 H   0  0  0  0  0  0  0  0  0  0  0  0
    4.6699    0.2694   -0.3728 H   0  0  0  0  0  0  0  0  0  0  0  0
    4.0251   -1.2580   -2.1987 H   0  0  0  0  0  0  0  0  0  0  0  0
    2.3153   -1.4508   -2.5973 H   0  0  0  0  0  0  0  0  0  0  0  0
    4.0830   -0.9333    1.4560 H   0  0  0  0  0  0  0  0  0  0  0  0
    2.7710    0.1145    1.8974 H   0  0  0  0  0  0  0  0  0  0  0  0
    2.2266   -2.9985   -0.8991 H   0  0  0  0  0  0  0  0  0  0  0  0
    3.8187   -2.5683   -0.3245 H   0  0  0  0  0  0  0  0  0  0  0  0
    0.5692    0.4753    1.8459 H   0  0  0  0  0  0  0  0  0  0  0  0
   -0.0737   -1.1753    1.9989 H   0  0  0  0  0  0  0  0  0  0  0  0
   -1.2476    1.1233    0.5356 H   0  0  0  0  0  0  0  0  0  0  0  0
    3.5656    4.0916    0.9809 H   0  0  0  0  0  0  0  0  0  0  0  0
   -4.9985   -1.5919   -0.0451 H   0  0  0  0  0  0  0  0  0  0  0  0
   -6.4478    0.5061   -1.0231 H   0  0  0  0  0  0  0  0  0  0  0  0
   -4.6884    2.6368   -0.9623 H   0  0  0  0  0  0  0  0  0  0  0  0
  1 14  2  0  0  0  0
  2 16  1  0  0  0  0
  2 19  1  0  0  0  0
  3  6  1  0  0  0  0
  3 10  1  0  0  0  0
  3 11  1  0  0  0  0
  4 12  1  0  0  0  0
  4 14  1  0  0  0  0
  4 33  1  0  0  0  0
  5  7  1  0  0  0  0
  5  8  1  0  0  0  0
  5  9  1  0  0  0  0
  5 20  1  0  0  0  0
  6  7  1  0  0  0  0
  6 12  1  0  0  0  0
  6 21  1  0  0  0  0
  7 22  1  0  0  0  0
  7 23  1  0  0  0  0
  8 10  1  0  0  0  0
  8 13  1  0  0  0  0
  8 24  1  0  0  0  0
  9 11  1  0  0  0  0
  9 25  1  0  0  0  0
  9 26  1  0  0  0  0
 10 27  1  0  0  0  0
 10 28  1  0  0  0  0
 11 29  1  0  0  0  0
 11 30  1  0  0  0  0
 12 31  1  0  0  0  0
 12 32  1  0  0  0  0
 13 15  3  0  0  0  0
 14 16  1  0  0  0  0
 15 34  1  0  0  0  0
 16 17  2  0  0  0  0
 17 18  1  0  0  0  0
 17 35  1  0  0  0  0
 18 19  2  0  0  0  0
 18 36  1  0  0  0  0
 19 37  1  0  0  0  0
M  END
> <PUBCHEM_COMPOUND_CID>
11943400

> <PUBCHEM_CONFORMER_RMSD>
0.8

> <PUBCHEM_CONFORMER_DIVERSEORDER>
1
9
6
8
10
3
2
5
4
7

> <PUBCHEM_MMFF94_PARTIAL_CHARGES>
21
1 -0.57
10 0.27
11 0.27
12 0.3
13 -0.2
14 0.71
15 -0.18
16 0.05
17 -0.15
18 -0.15
19 -0.01
2 -0.28
3 -0.81
33 0.37
34 0.18
35 0.15
36 0.15
37 0.15
4 -0.73
6 0.27
8 0.2

> <PUBCHEM_EFFECTIVE_ROTOR_COUNT>
5.2

> <PUBCHEM_PHARMACOPHORE_FEATURES>
7
1 1 acceptor
1 15 hydrophobe
1 2 acceptor
1 3 cation
1 4 donor
5 2 16 17 18 19 rings
8 3 5 6 7 8 9 10 11 rings

> <PUBCHEM_HEAVY_ATOM_COUNT>
19

> <PUBCHEM_ATOM_DEF_STEREO_COUNT>
3

> <PUBCHEM_ATOM_UDEF_STEREO_COUNT>
0

> <PUBCHEM_BOND_DEF_STEREO_COUNT>
0

> <PUBCHEM_BOND_UDEF_STEREO_COUNT>
0

> <PUBCHEM_ISOTOPIC_ATOM_COUNT>
0

> <PUBCHEM_COMPONENT_COUNT>
1

> <PUBCHEM_CACTVS_TAUTO_COUNT>
2

> <PUBCHEM_CONFORMER_ID>
00B63DE800000001

> <PUBCHEM_MMFF94_ENERGY>
33.8851

> <PUBCHEM_FEATURE_SELFOVERLAP>
35.52

> <PUBCHEM_SHAPE_FINGERPRINT>
10498660 4 18114737141047770829
10646746 165 18187083979046129528
11089746 13 18335411374793255662
11370993 70 18410009961551619127
11543360 7 18131067160467514167
12173636 292 18113898265183859967
12596602 18 14634875279111499412
12616999 72 16774079583073663412
12633257 1 15936963167098610068
12670546 177 18059851813816470135
12769317 202 18129940216836789432
12778500 126 11242513481312385157
128620 24 16487254374303012873
12916748 109 18186805756013581857
13464513 79 12751517384246241824
14178342 30 17386569205468861778
14251740 57 10591750030943316693
14251757 17 18335977601986825641
14251764 38 18408887364564882541
14866123 147 8137090304384047988
15210252 30 17023483983377763028
15239191 94 12823300078548961365
15342816 4 14333407835211852282
15375358 24 18409447015961373243
15961568 22 18115024229040998228
17844677 252 18342745074870587529
17959699 21 18410008836565645385
1813 80 14261348068400592417
18186145 218 18335719220790172707
193927 3 13038898993430173277
20645477 56 18260833717621892579
20645477 70 17917721183835834110
21452121 103 18410003360761606032
21521721 280 7781502734504510550
22393880 68 18410301340839063182
22646028 1 13830128369551349399
22892500 29 18411139130413481140
23466295 7 11103410949605562448
23557571 272 18042416887720256211
23559900 14 18342175527494101634
268830 7 17988379099829780521
2838139 119 18124307475003336848
3004659 81 17346037770879201735
3060560 45 18131077039245710302
312423 11 16988298489953942443
341906 21 17603586369547097785
34797466 226 18201721777948098517
3545911 37 18259990383365598803
495365 180 18408601470181978970
5104073 3 18186239515951851273
5281201 14 18272093751392575141
633830 44 18342172212158760959
81539 233 18200597024713159984
8509985 295 15140672596635213269
960060 61 16988561299340440009
9709674 26 18410579491605921467
9971528 1 17313381201992760414

> <PUBCHEM_SHAPE_MULTIPOLES>
369.31
10.75
2.24
1.27
12.81
1.11
0.2
3.65
2.02
-2.51
-0.16
-0.7
-0.27
1.37

> <PUBCHEM_SHAPE_SELFOVERLAP>
787.656

> <PUBCHEM_SHAPE_VOLUME>
201.8

> <PUBCHEM_COORDINATE_TYPE>
2
5
10

$$$$
