11882886
  -OEChem-12032416123D

 44 47  0     1  0  0  0  0  0999 V2000
   -0.8884    2.0631   -1.2151 O   0  0  0  0  0  0  0  0  0  0  0  0
   -3.5558   -2.4062   -0.8893 O   0  0  0  0  0  0  0  0  0  0  0  0
    3.0747    1.5722   -0.8646 O   0  0  0  0  0  0  0  0  0  0  0  0
   -1.7619   -0.9925   -0.4736 N   0  0  0  0  0  0  0  0  0  0  0  0
    2.4809   -0.5482   -0.2093 N   0  0  0  0  0  0  0  0  0  0  0  0
   -3.0337    1.6786   -0.5257 N   0  0  0  0  0  0  0  0  0  0  0  0
    7.3344   -0.2788    1.0309 N   0  0  0  0  0  0  0  0  0  0  0  0
    1.0989   -0.4244   -0.6076 C   0  0  2  0  0  0  0  0  0  0  0  0
   -1.2506    0.1717    0.2387 C   0  0  1  0  0  0  0  0  0  0  0  0
    0.2526    0.1302    0.5377 C   0  0  0  0  0  0  0  0  0  0  0  0
    0.5373   -1.7733   -1.0440 C   0  0  0  0  0  0  0  0  0  0  0  0
   -0.9104   -1.6278   -1.4826 C   0  0  0  0  0  0  0  0  0  0  0  0
   -1.6875    1.3696   -0.5852 C   0  0  0  0  0  0  0  0  0  0  0  0
   -3.1009   -1.3760   -0.3905 C   0  0  0  0  0  0  0  0  0  0  0  0
   -4.0649   -0.4600    0.2757 C   0  0  0  0  0  0  0  0  0  0  0  0
   -4.0643    0.9356    0.0942 C   0  0  0  0  0  0  0  0  0  0  0  0
    3.3977    0.4901   -0.3711 C   0  0  0  0  0  0  0  0  0  0  0  0
   -5.1372   -1.0720    0.9470 C   0  0  0  0  0  0  0  0  0  0  0  0
   -5.1738    1.6770    0.5326 C   0  0  0  0  0  0  0  0  0  0  0  0
    4.7595    0.2234    0.1132 C   0  0  0  0  0  0  0  0  0  0  0  0
   -6.2063   -0.3126    1.4200 C   0  0  0  0  0  0  0  0  0  0  0  0
   -6.2312    1.0598    1.2008 C   0  0  0  0  0  0  0  0  0  0  0  0
    5.8293    0.8846   -0.4610 C   0  0  0  0  0  0  0  0  0  0  0  0
    4.9535   -0.6842    1.1378 C   0  0  0  0  0  0  0  0  0  0  0  0
    7.0924    0.5994    0.0319 C   0  0  0  0  0  0  0  0  0  0  0  0
    6.2558   -0.8993    1.5593 C   0  0  0  0  0  0  0  0  0  0  0  0
    1.0535    0.2661   -1.4585 H   0  0  0  0  0  0  0  0  0  0  0  0
   -1.7510    0.2442    1.2132 H   0  0  0  0  0  0  0  0  0  0  0  0
    0.6110    1.1265    0.8267 H   0  0  0  0  0  0  0  0  0  0  0  0
    0.4052   -0.5093    1.4189 H   0  0  0  0  0  0  0  0  0  0  0  0
    0.6018   -2.4936   -0.2178 H   0  0  0  0  0  0  0  0  0  0  0  0
    1.1328   -2.1849   -1.8678 H   0  0  0  0  0  0  0  0  0  0  0  0
   -0.9710   -1.0045   -2.3834 H   0  0  0  0  0  0  0  0  0  0  0  0
   -1.3136   -2.6100   -1.7513 H   0  0  0  0  0  0  0  0  0  0  0  0
    2.7677   -1.4361    0.1882 H   0  0  0  0  0  0  0  0  0  0  0  0
   -3.2934    2.5946   -0.8833 H   0  0  0  0  0  0  0  0  0  0  0  0
   -5.1640   -2.1498    1.0910 H   0  0  0  0  0  0  0  0  0  0  0  0
   -5.2114    2.7545    0.3838 H   0  0  0  0  0  0  0  0  0  0  0  0
   -7.0299   -0.7964    1.9366 H   0  0  0  0  0  0  0  0  0  0  0  0
   -7.0715    1.6519    1.5512 H   0  0  0  0  0  0  0  0  0  0  0  0
    5.7061    1.5987   -1.2677 H   0  0  0  0  0  0  0  0  0  0  0  0
    4.1506   -1.2042    1.6465 H   0  0  0  0  0  0  0  0  0  0  0  0
    7.9715    1.0853   -0.3785 H   0  0  0  0  0  0  0  0  0  0  0  0
    6.4718   -1.5932    2.3651 H   0  0  0  0  0  0  0  0  0  0  0  0
  1 13  2  0  0  0  0
  2 14  2  0  0  0  0
  3 17  2  0  0  0  0
  4  9  1  0  0  0  0
  4 12  1  0  0  0  0
  4 14  1  0  0  0  0
  5  8  1  0  0  0  0
  5 17  1  0  0  0  0
  5 35  1  0  0  0  0
  6 13  1  0  0  0  0
  6 16  1  0  0  0  0
  6 36  1  0  0  0  0
  7 25  2  0  0  0  0
  7 26  1  0  0  0  0
  8 10  1  0  0  0  0
  8 11  1  0  0  0  0
  8 27  1  0  0  0  0
  9 10  1  0  0  0  0
  9 13  1  0  0  0  0
  9 28  1  0  0  0  0
 10 29  1  0  0  0  0
 10 30  1  0  0  0  0
 11 12  1  0  0  0  0
 11 31  1  0  0  0  0
 11 32  1  0  0  0  0
 12 33  1  0  0  0  0
 12 34  1  0  0  0  0
 14 15  1  0  0  0  0
 15 16  1  0  0  0  0
 15 18  2  0  0  0  0
 16 19  2  0  0  0  0
 17 20  1  0  0  0  0
 18 21  1  0  0  0  0
 18 37  1  0  0  0  0
 19 22  1  0  0  0  0
 19 38  1  0  0  0  0
 20 23  2  0  0  0  0
 20 24  1  0  0  0  0
 21 22  2  0  0  0  0
 21 39  1  0  0  0  0
 22 40  1  0  0  0  0
 23 25  1  0  0  0  0
 23 41  1  0  0  0  0
 24 26  2  0  0  0  0
 24 42  1  0  0  0  0
 25 43  1  0  0  0  0
 26 44  1  0  0  0  0
M  END
> <PUBCHEM_COMPOUND_CID>
11882886

> <PUBCHEM_CONFORMER_RMSD>
0.8

> <PUBCHEM_CONFORMER_DIVERSEORDER>
1
6
4
2
3
5

> <PUBCHEM_MMFF94_PARTIAL_CHARGES>
34
1 -0.57
12 0.3
13 0.57
14 0.54
15 0.09
16 0.12
17 0.54
18 -0.15
19 -0.15
2 -0.57
20 0.09
21 -0.15
22 -0.15
23 -0.15
24 -0.15
25 0.16
26 0.16
3 -0.57
35 0.37
36 0.37
37 0.15
38 0.15
39 0.15
4 -0.66
40 0.15
41 0.15
42 0.15
43 0.15
44 0.15
5 -0.73
6 -0.55
7 -0.62
8 0.3
9 0.36

> <PUBCHEM_EFFECTIVE_ROTOR_COUNT>
4

> <PUBCHEM_PHARMACOPHORE_FEATURES>
10
1 1 acceptor
1 2 acceptor
1 3 acceptor
1 5 donor
1 6 donor
1 7 acceptor
6 15 16 18 19 21 22 rings
6 4 8 9 10 11 12 rings
6 7 20 23 24 25 26 rings
7 4 6 9 13 14 15 16 rings

> <PUBCHEM_HEAVY_ATOM_COUNT>
26

> <PUBCHEM_ATOM_DEF_STEREO_COUNT>
2

> <PUBCHEM_ATOM_UDEF_STEREO_COUNT>
0

> <PUBCHEM_BOND_DEF_STEREO_COUNT>
0

> <PUBCHEM_BOND_UDEF_STEREO_COUNT>
0

> <PUBCHEM_ISOTOPIC_ATOM_COUNT>
0

> <PUBCHEM_COMPONENT_COUNT>
1

> <PUBCHEM_CACTVS_TAUTO_COUNT>
6

> <PUBCHEM_CONFORMER_ID>
00B5518600000001

> <PUBCHEM_MMFF94_ENERGY>
88.702

> <PUBCHEM_FEATURE_SELFOVERLAP>
50.772

> <PUBCHEM_SHAPE_FINGERPRINT>
10 15 18411142445558534440
10299344 5 17967535675525004666
10411042 1 17768523151817811295
10675989 125 16678360181111558565
11135609 187 11743842438830361772
11524674 6 17489586774912491679
11646440 116 17561086903939332104
12166972 35 15791738515918648900
12236239 1 18409164437911251386
12422481 6 18410857633434407029
12516196 113 12973606646802868654
12596602 18 17385722487295108320
12616971 3 18261394481025536316
13288520 33 11458425747995357011
13533116 47 17385723591502279312
13668630 136 14562535076114231577
13685833 64 15647053763924513442
14251764 18 18408042935191057354
14341114 176 17894912923672545258
14674994 50 15213885803190495633
14849402 71 17969229000678693420
15183329 4 18335976528476382670
15348495 7 17846210116102018026
15685185 35 16882472893507197076
15716309 27 17675926495007426088
1577012 14 18411981399575907716
16110190 28 18410855503510812860
17980427 23 18409731797962740829
21033648 29 17203029877666171370
21150785 3 13326567450204323737
21236236 1 18059571434167599191
21267235 1 18113337480299631066
21424621 283 16343715296029211811
22224240 67 18131633383402403187
23402539 116 18040994050817098757
23522609 53 18043277741054056092
23559900 14 17702686383619622142
350125 39 18411982481528397084
392239 28 18041013859781281387
4093350 32 16343432691412779534
5104073 3 18340204219009097544
5385378 56 17917153793292702854
59755656 215 18059303071863154462
59755656 520 16845852386520426790
636775 8 10737296714191023872
7226269 152 17561366183754763465

> <PUBCHEM_SHAPE_MULTIPOLES>
497.54
18.51
1.87
1.28
18.82
0.19
-0.17
-2.67
-9.06
-1.92
0.65
0.11
0.2
-1.01

> <PUBCHEM_SHAPE_SELFOVERLAP>
1090.727

> <PUBCHEM_SHAPE_VOLUME>
262

> <PUBCHEM_COORDINATE_TYPE>
2
5
10

$$$$
