51138129
  -OEChem-12032416323D

 63 66  0     1  0  0  0  0  0999 V2000
   -2.5650    0.5268    2.1503 O   0  0  0  0  0  0  0  0  0  0  0  0
   -0.5184    1.3113    0.7732 N   0  0  0  0  0  0  0  0  0  0  0  0
   -3.2157   -1.0295    0.5536 N   0  0  0  0  0  0  0  0  0  0  0  0
    3.3838   -1.8113    0.0479 N   0  0  0  0  0  0  0  0  0  0  0  0
   -5.3750   -2.1555   -0.9556 N   0  0  0  0  0  0  0  0  0  0  0  0
    0.2748    1.9101   -0.3085 C   0  0  2  0  0  0  0  0  0  0  0  0
   -0.9567   -0.0541    0.5218 C   0  0  1  0  0  0  0  0  0  0  0  0
   -0.0235   -1.0720    1.1748 C   0  0  0  0  0  0  0  0  0  0  0  0
    1.6237    1.2435   -0.5973 C   0  0  0  0  0  0  0  0  0  0  0  0
    2.0053   -0.0584   -0.1618 C   0  0  0  0  0  0  0  0  0  0  0  0
    1.3508   -1.0917    0.5943 C   0  0  0  0  0  0  0  0  0  0  0  0
    0.4211    3.3899    0.0893 C   0  0  0  0  0  0  0  0  0  0  0  0
    3.2666   -0.5583   -0.5060 C   0  0  0  0  0  0  0  0  0  0  0  0
   -2.3115   -0.1544    1.1536 C   0  0  0  0  0  0  0  0  0  0  0  0
   -0.8498    4.2064   -0.1649 C   0  0  0  0  0  0  0  0  0  0  0  0
    2.2369   -2.1441    0.7059 C   0  0  0  0  0  0  0  0  0  0  0  0
   -2.9431   -1.8507   -0.6296 C   0  0  0  0  0  0  0  0  0  0  0  0
   -4.5089   -1.2869    1.1855 C   0  0  0  0  0  0  0  0  0  0  0  0
    2.5531    1.9234   -1.4252 C   0  0  0  0  0  0  0  0  0  0  0  0
   -4.1107   -1.8003   -1.6167 C   0  0  0  0  0  0  0  0  0  0  0  0
   -5.6445   -1.2412    0.1637 C   0  0  0  0  0  0  0  0  0  0  0  0
    4.1868    0.1463   -1.2838 C   0  0  0  0  0  0  0  0  0  0  0  0
    3.8015    1.3964   -1.7506 C   0  0  0  0  0  0  0  0  0  0  0  0
   -0.5929    5.6688    0.2059 C   0  0  0  0  0  0  0  0  0  0  0  0
   -2.0547    3.6793    0.6156 C   0  0  0  0  0  0  0  0  0  0  0  0
    4.5405   -2.6748   -0.0587 C   0  0  0  0  0  0  0  0  0  0  0  0
   -6.4794   -2.1336   -1.9138 C   0  0  0  0  0  0  0  0  0  0  0  0
    5.6283   -2.2974    0.9030 C   0  0  0  0  0  0  0  0  0  0  0  0
    6.8765   -1.9882    0.5342 C   0  0  0  0  0  0  0  0  0  0  0  0
   -0.2974    1.8599   -1.2452 H   0  0  0  0  0  0  0  0  0  0  0  0
   -1.0110   -0.1827   -0.5576 H   0  0  0  0  0  0  0  0  0  0  0  0
    0.0543   -0.8862    2.2552 H   0  0  0  0  0  0  0  0  0  0  0  0
   -0.4597   -2.0753    1.0772 H   0  0  0  0  0  0  0  0  0  0  0  0
   -0.0304    1.3834    1.6652 H   0  0  0  0  0  0  0  0  0  0  0  0
    0.7280    3.4763    1.1423 H   0  0  0  0  0  0  0  0  0  0  0  0
    1.2218    3.8863   -0.4665 H   0  0  0  0  0  0  0  0  0  0  0  0
   -1.0910    4.1728   -1.2351 H   0  0  0  0  0  0  0  0  0  0  0  0
    2.1314   -3.1003    1.2017 H   0  0  0  0  0  0  0  0  0  0  0  0
   -2.0293   -1.5960   -1.1599 H   0  0  0  0  0  0  0  0  0  0  0  0
   -2.8079   -2.8781   -0.2671 H   0  0  0  0  0  0  0  0  0  0  0  0
   -4.4495   -2.2785    1.6510 H   0  0  0  0  0  0  0  0  0  0  0  0
   -4.7004   -0.5636    1.9846 H   0  0  0  0  0  0  0  0  0  0  0  0
    2.3002    2.8840   -1.8678 H   0  0  0  0  0  0  0  0  0  0  0  0
   -4.1734   -0.7961   -2.0570 H   0  0  0  0  0  0  0  0  0  0  0  0
   -3.9054   -2.5057   -2.4309 H   0  0  0  0  0  0  0  0  0  0  0  0
   -5.7692   -0.2124   -0.1998 H   0  0  0  0  0  0  0  0  0  0  0  0
   -6.5751   -1.5286    0.6674 H   0  0  0  0  0  0  0  0  0  0  0  0
    5.1569   -0.2619   -1.5445 H   0  0  0  0  0  0  0  0  0  0  0  0
    4.4761    1.9644   -2.3857 H   0  0  0  0  0  0  0  0  0  0  0  0
   -1.4716    6.2858   -0.0104 H   0  0  0  0  0  0  0  0  0  0  0  0
   -0.3596    5.7745    1.2710 H   0  0  0  0  0  0  0  0  0  0  0  0
    0.2459    6.0771   -0.3680 H   0  0  0  0  0  0  0  0  0  0  0  0
   -2.8754    4.4058    0.5797 H   0  0  0  0  0  0  0  0  0  0  0  0
   -2.4562    2.7636    0.1733 H   0  0  0  0  0  0  0  0  0  0  0  0
   -1.8198    3.5141    1.6722 H   0  0  0  0  0  0  0  0  0  0  0  0
    4.8787   -2.6566   -1.1011 H   0  0  0  0  0  0  0  0  0  0  0  0
    4.2159   -3.7010    0.1504 H   0  0  0  0  0  0  0  0  0  0  0  0
   -7.4137   -2.4399   -1.4304 H   0  0  0  0  0  0  0  0  0  0  0  0
   -6.2980   -2.8466   -2.7257 H   0  0  0  0  0  0  0  0  0  0  0  0
   -6.6280   -1.1406   -2.3535 H   0  0  0  0  0  0  0  0  0  0  0  0
    5.3834   -2.2925    1.9622 H   0  0  0  0  0  0  0  0  0  0  0  0
    7.6215   -1.7305    1.2789 H   0  0  0  0  0  0  0  0  0  0  0  0
    7.1755   -1.9857   -0.5081 H   0  0  0  0  0  0  0  0  0  0  0  0
  1 14  2  0  0  0  0
  2  6  1  0  0  0  0
  2  7  1  0  0  0  0
  2 34  1  0  0  0  0
  3 14  1  0  0  0  0
  3 17  1  0  0  0  0
  3 18  1  0  0  0  0
  4 13  1  0  0  0  0
  4 16  1  0  0  0  0
  4 26  1  0  0  0  0
  5 20  1  0  0  0  0
  5 21  1  0  0  0  0
  5 27  1  0  0  0  0
  6  9  1  0  0  0  0
  6 12  1  0  0  0  0
  6 30  1  0  0  0  0
  7  8  1  0  0  0  0
  7 14  1  0  0  0  0
  7 31  1  0  0  0  0
  8 11  1  0  0  0  0
  8 32  1  0  0  0  0
  8 33  1  0  0  0  0
  9 10  2  0  0  0  0
  9 19  1  0  0  0  0
 10 11  1  0  0  0  0
 10 13  1  0  0  0  0
 11 16  2  0  0  0  0
 12 15  1  0  0  0  0
 12 35  1  0  0  0  0
 12 36  1  0  0  0  0
 13 22  2  0  0  0  0
 15 24  1  0  0  0  0
 15 25  1  0  0  0  0
 15 37  1  0  0  0  0
 16 38  1  0  0  0  0
 17 20  1  0  0  0  0
 17 39  1  0  0  0  0
 17 40  1  0  0  0  0
 18 21  1  0  0  0  0
 18 41  1  0  0  0  0
 18 42  1  0  0  0  0
 19 23  2  0  0  0  0
 19 43  1  0  0  0  0
 20 44  1  0  0  0  0
 20 45  1  0  0  0  0
 21 46  1  0  0  0  0
 21 47  1  0  0  0  0
 22 23  1  0  0  0  0
 22 48  1  0  0  0  0
 23 49  1  0  0  0  0
 24 50  1  0  0  0  0
 24 51  1  0  0  0  0
 24 52  1  0  0  0  0
 25 53  1  0  0  0  0
 25 54  1  0  0  0  0
 25 55  1  0  0  0  0
 26 28  1  0  0  0  0
 26 56  1  0  0  0  0
 26 57  1  0  0  0  0
 27 58  1  0  0  0  0
 27 59  1  0  0  0  0
 27 60  1  0  0  0  0
 28 29  2  0  0  0  0
 28 61  1  0  0  0  0
 29 62  1  0  0  0  0
 29 63  1  0  0  0  0
M  END
> <PUBCHEM_COMPOUND_CID>
51138129

> <PUBCHEM_CONFORMER_RMSD>
1

> <PUBCHEM_CONFORMER_DIVERSEORDER>
1
37
2
12
39
16
20
31
27
38
21
9
34
42
10
3
6
43
46
35
19
47
36
44
45
24
15
14
28
13
11
4
17
25
22
26
5
32
23
7
30
41
8
40
33
48
29
18

> <PUBCHEM_MMFF94_PARTIAL_CHARGES>
32
1 -0.57
11 -0.18
13 -0.15
14 0.57
16 -0.3
17 0.3
18 0.3
19 -0.15
2 -0.9
20 0.27
21 0.27
22 -0.15
23 -0.15
26 0.39
27 0.27
28 -0.29
29 -0.3
3 -0.66
34 0.36
38 0.15
4 0.05
43 0.15
48 0.15
49 0.15
5 -0.81
6 0.41
61 0.15
62 0.15
63 0.15
7 0.33
8 0.18
9 -0.14

> <PUBCHEM_EFFECTIVE_ROTOR_COUNT>
8

> <PUBCHEM_PHARMACOPHORE_FEATURES>
11
1 1 acceptor
1 2 cation
1 2 donor
1 29 hydrophobe
1 4 cation
1 5 cation
3 15 24 25 hydrophobe
5 4 10 11 13 16 rings
6 3 5 17 18 20 21 rings
6 9 10 13 19 22 23 rings
7 2 6 7 8 9 10 11 rings

> <PUBCHEM_HEAVY_ATOM_COUNT>
29

> <PUBCHEM_ATOM_DEF_STEREO_COUNT>
2

> <PUBCHEM_ATOM_UDEF_STEREO_COUNT>
0

> <PUBCHEM_BOND_DEF_STEREO_COUNT>
0

> <PUBCHEM_BOND_UDEF_STEREO_COUNT>
0

> <PUBCHEM_ISOTOPIC_ATOM_COUNT>
0

> <PUBCHEM_COMPONENT_COUNT>
1

> <PUBCHEM_CACTVS_TAUTO_COUNT>
1

> <PUBCHEM_CONFORMER_ID>
030C4E5100000001

> <PUBCHEM_MMFF94_ENERGY>
66.6139

> <PUBCHEM_FEATURE_SELFOVERLAP>
55.952

> <PUBCHEM_SHAPE_FINGERPRINT>
10622 236 18116989992796582570
11135609 149 18125975352316196869
11135926 11 17824851025022959340
11578080 2 18059845130600218040
11720765 8 18268696368312229285
1200032 147 13841091527294062639
12342043 65 17243320463348510787
12553582 1 18338248166274496769
12788726 201 18337966596655485548
13004483 165 18412543206192412677
13134695 92 18337114582713483021
13140716 1 17898303697648412836
13540713 5 17970367935984826492
13583140 156 17559377073532818930
13692114 37 17980757139388053265
13757389 114 17688887336898314028
13782708 43 17241333606908431915
13911987 19 17827379965933326316
14068700 675 18335129865810383958
15131766 46 15218430037803633742
15475509 35 15410351970160084894
15484559 13 14458629423578027758
16087824 20 18121779431926401081
1813 80 18202286926566124711
18365409 1 17977377240464779365
20028762 73 17113535918628788277
20642791 13 18262800636850975570
20775438 99 17618479409708180327
2132832 1 18260829272367852740
221357 26 18261384586127768239
23536364 44 18188198806896412351
23559900 14 17967535713716006794
23622692 118 18408886196733645940
23929065 36 18193819480362931824
25147074 1 17896902979884755180
3388396 114 18263660604983279492
4015057 19 18261678194166102787
4017518 198 17044011590305720142
46194498 28 16880206769502084215
463206 1 18336269053792691575
59682541 52 18263911306856502239
5969126 39 18338791217918963010
6004065 56 17980479280208874384
70251023 43 18335420132174030922
7164475 11 18337959991354571532
7471813 234 18408885131312724606

> <PUBCHEM_SHAPE_MULTIPOLES>
571.01
12.75
5.36
1.53
1.75
9.54
0.27
-16.58
2.96
1.26
-0.11
1.02
-0.34
-3.14

> <PUBCHEM_SHAPE_SELFOVERLAP>
1207.613

> <PUBCHEM_SHAPE_VOLUME>
320.7

> <PUBCHEM_COORDINATE_TYPE>
2
5
10

$$$$
