26743234
  -OEChem-12032416193D

 71 74  0     1  0  0  0  0  0999 V2000
    2.8655    3.0981    1.2042 O   0  0  0  0  0  0  0  0  0  0  0  0
    0.2872   -1.1319   -1.4477 O   0  0  0  0  0  0  0  0  0  0  0  0
   -6.8134   -1.4716    0.8611 O   0  0  0  0  0  0  0  0  0  0  0  0
    5.4305   -2.8086   -0.9044 N   0  0  0  0  0  0  0  0  0  0  0  0
    3.8476    2.1223    1.3238 N   0  0  0  0  0  0  0  0  0  0  0  0
   -0.4376   -2.6010    0.2007 N   0  0  0  0  0  0  0  0  0  0  0  0
   -4.0465   -1.5756    0.2012 N   0  0  0  0  0  0  0  0  0  0  0  0
    4.2323   -0.9480    0.2216 C   0  0  2  0  0  0  0  0  0  0  0  0
    2.9588   -1.2237   -0.6129 C   0  0  1  0  0  0  0  0  0  0  0  0
    3.3584   -1.9279   -1.9204 C   0  0  0  0  0  0  0  0  0  0  0  0
    5.0875   -2.2153    0.3886 C   0  0  0  0  0  0  0  0  0  0  0  0
    3.9320   -0.3194    1.5830 C   0  0  0  0  0  0  0  0  0  0  0  0
   -0.1643    3.3745   -0.2502 C   0  0  0  0  0  0  0  0  0  0  0  0
    4.2392   -3.1527   -1.6777 C   0  0  0  0  0  0  0  0  0  0  0  0
    1.8857   -2.0259    0.1328 C   0  0  0  0  0  0  0  0  0  0  0  0
   -1.0414    2.1257   -0.4130 C   0  0  0  0  0  0  0  0  0  0  0  0
   -0.9808    4.6511   -0.4930 C   0  0  0  0  0  0  0  0  0  0  0  0
    0.4825    3.4029    1.1334 C   0  0  0  0  0  0  0  0  0  0  0  0
   -1.7416    2.1016   -1.7698 C   0  0  0  0  0  0  0  0  0  0  0  0
   -1.6813    4.6227   -1.8495 C   0  0  0  0  0  0  0  0  0  0  0  0
   -2.5451    3.3757   -2.0111 C   0  0  0  0  0  0  0  0  0  0  0  0
    3.1790    0.9710    1.4357 C   0  0  0  0  0  0  0  0  0  0  0  0
    1.6424    2.5106    1.2472 C   0  0  0  0  0  0  0  0  0  0  0  0
    0.5117   -1.8509   -0.4779 C   0  0  0  0  0  0  0  0  0  0  0  0
    1.7863    1.1564    1.3937 C   0  0  0  0  0  0  0  0  0  0  0  0
   -1.8352   -2.6225   -0.1653 C   0  0  0  0  0  0  0  0  0  0  0  0
   -2.6285   -1.5438    0.5530 C   0  0  0  0  0  0  0  0  0  0  0  0
   -4.7028   -0.3120    0.5650 C   0  0  0  0  0  0  0  0  0  0  0  0
   -4.7225   -2.7018    0.8600 C   0  0  0  0  0  0  0  0  0  0  0  0
   -6.1834   -0.3734    0.2005 C   0  0  0  0  0  0  0  0  0  0  0  0
   -6.2022   -2.7070    0.4873 C   0  0  0  0  0  0  0  0  0  0  0  0
    4.8371   -0.2268   -0.3505 H   0  0  0  0  0  0  0  0  0  0  0  0
    2.5356   -0.2550   -0.9080 H   0  0  0  0  0  0  0  0  0  0  0  0
    3.9093   -1.2157   -2.5498 H   0  0  0  0  0  0  0  0  0  0  0  0
    2.4751   -2.2238   -2.4973 H   0  0  0  0  0  0  0  0  0  0  0  0
    6.0197   -1.9600    0.9057 H   0  0  0  0  0  0  0  0  0  0  0  0
    4.5707   -2.9536    1.0141 H   0  0  0  0  0  0  0  0  0  0  0  0
    3.3949   -1.0011    2.2505 H   0  0  0  0  0  0  0  0  0  0  0  0
    4.8811   -0.1098    2.0958 H   0  0  0  0  0  0  0  0  0  0  0  0
    0.6255    3.3399   -1.0147 H   0  0  0  0  0  0  0  0  0  0  0  0
    3.6804   -3.9527   -1.1799 H   0  0  0  0  0  0  0  0  0  0  0  0
    4.5584   -3.5537   -2.6463 H   0  0  0  0  0  0  0  0  0  0  0  0
    1.7868   -1.7249    1.1775 H   0  0  0  0  0  0  0  0  0  0  0  0
    2.1222   -3.0952    0.1467 H   0  0  0  0  0  0  0  0  0  0  0  0
    5.9887   -3.6481   -0.7527 H   0  0  0  0  0  0  0  0  0  0  0  0
   -1.7983    2.0918    0.3811 H   0  0  0  0  0  0  0  0  0  0  0  0
   -0.4415    1.2168   -0.3202 H   0  0  0  0  0  0  0  0  0  0  0  0
   -0.3271    5.5303   -0.4462 H   0  0  0  0  0  0  0  0  0  0  0  0
   -1.7313    4.7694    0.2991 H   0  0  0  0  0  0  0  0  0  0  0  0
   -0.2542    3.1526    1.9072 H   0  0  0  0  0  0  0  0  0  0  0  0
    0.8126    4.4255    1.3603 H   0  0  0  0  0  0  0  0  0  0  0  0
   -2.4047    1.2310   -1.8271 H   0  0  0  0  0  0  0  0  0  0  0  0
   -0.9936    1.9852   -2.5637 H   0  0  0  0  0  0  0  0  0  0  0  0
   -0.9304    4.6528   -2.6485 H   0  0  0  0  0  0  0  0  0  0  0  0
   -2.3028    5.5183   -1.9617 H   0  0  0  0  0  0  0  0  0  0  0  0
   -2.9776    3.3540   -3.0177 H   0  0  0  0  0  0  0  0  0  0  0  0
   -3.3827    3.4175   -1.3039 H   0  0  0  0  0  0  0  0  0  0  0  0
    0.9953    0.4278    1.4790 H   0  0  0  0  0  0  0  0  0  0  0  0
   -0.1514   -3.1575    1.0011 H   0  0  0  0  0  0  0  0  0  0  0  0
   -2.1909   -3.6257    0.0862 H   0  0  0  0  0  0  0  0  0  0  0  0
   -1.9181   -2.4993   -1.2515 H   0  0  0  0  0  0  0  0  0  0  0  0
   -2.2006   -0.5774    0.2579 H   0  0  0  0  0  0  0  0  0  0  0  0
   -2.4825   -1.6151    1.6393 H   0  0  0  0  0  0  0  0  0  0  0  0
   -4.2434    0.5266    0.0294 H   0  0  0  0  0  0  0  0  0  0  0  0
   -4.5981   -0.1265    1.6420 H   0  0  0  0  0  0  0  0  0  0  0  0
   -4.6242   -2.6210    1.9505 H   0  0  0  0  0  0  0  0  0  0  0  0
   -4.2968   -3.6613    0.5514 H   0  0  0  0  0  0  0  0  0  0  0  0
   -6.6855    0.5432    0.5263 H   0  0  0  0  0  0  0  0  0  0  0  0
   -6.3300   -0.4647   -0.8826 H   0  0  0  0  0  0  0  0  0  0  0  0
   -6.3490   -2.8784   -0.5861 H   0  0  0  0  0  0  0  0  0  0  0  0
   -6.7191   -3.5089    1.0241 H   0  0  0  0  0  0  0  0  0  0  0  0
  1  5  1  0  0  0  0
  1 23  1  0  0  0  0
  2 24  2  0  0  0  0
  3 30  1  0  0  0  0
  3 31  1  0  0  0  0
  4 11  1  0  0  0  0
  4 14  1  0  0  0  0
  4 45  1  0  0  0  0
  5 22  2  0  0  0  0
  6 24  1  0  0  0  0
  6 26  1  0  0  0  0
  6 59  1  0  0  0  0
  7 27  1  0  0  0  0
  7 28  1  0  0  0  0
  7 29  1  0  0  0  0
  8  9  1  0  0  0  0
  8 11  1  0  0  0  0
  8 12  1  0  0  0  0
  8 32  1  0  0  0  0
  9 10  1  0  0  0  0
  9 15  1  0  0  0  0
  9 33  1  0  0  0  0
 10 14  1  0  0  0  0
 10 34  1  0  0  0  0
 10 35  1  0  0  0  0
 11 36  1  0  0  0  0
 11 37  1  0  0  0  0
 12 22  1  0  0  0  0
 12 38  1  0  0  0  0
 12 39  1  0  0  0  0
 13 16  1  0  0  0  0
 13 17  1  0  0  0  0
 13 18  1  0  0  0  0
 13 40  1  0  0  0  0
 14 41  1  0  0  0  0
 14 42  1  0  0  0  0
 15 24  1  0  0  0  0
 15 43  1  0  0  0  0
 15 44  1  0  0  0  0
 16 19  1  0  0  0  0
 16 46  1  0  0  0  0
 16 47  1  0  0  0  0
 17 20  1  0  0  0  0
 17 48  1  0  0  0  0
 17 49  1  0  0  0  0
 18 23  1  0  0  0  0
 18 50  1  0  0  0  0
 18 51  1  0  0  0  0
 19 21  1  0  0  0  0
 19 52  1  0  0  0  0
 19 53  1  0  0  0  0
 20 21  1  0  0  0  0
 20 54  1  0  0  0  0
 20 55  1  0  0  0  0
 21 56  1  0  0  0  0
 21 57  1  0  0  0  0
 22 25  1  0  0  0  0
 23 25  2  0  0  0  0
 25 58  1  0  0  0  0
 26 27  1  0  0  0  0
 26 60  1  0  0  0  0
 26 61  1  0  0  0  0
 27 62  1  0  0  0  0
 27 63  1  0  0  0  0
 28 30  1  0  0  0  0
 28 64  1  0  0  0  0
 28 65  1  0  0  0  0
 29 31  1  0  0  0  0
 29 66  1  0  0  0  0
 29 67  1  0  0  0  0
 30 68  1  0  0  0  0
 30 69  1  0  0  0  0
 31 70  1  0  0  0  0
 31 71  1  0  0  0  0
M  END
> <PUBCHEM_COMPOUND_CID>
26743234

> <PUBCHEM_CONFORMER_RMSD>
1.4

> <PUBCHEM_CONFORMER_DIVERSEORDER>
1
184
169
93
90
72
25
78
170
96
175
56
19
3
6
97
151
188
138
164
197
88
14
124
73
183
186
7
92
162
207
109
91
220
210
146
16
122
99
12
118
144
130
209
129
95
13
75
117
44
213
203
167
22
185
20
159
87
100
214
64
202
141
84
212
51
156
133
89
67
85
145
63
148
127
120
142
219
82
158
10
121
174
123
17
154
173
149
34
60
46
103
15
180
131
125
105
43
112
21
61
38
168
182
39
192
201
136
195
194
2
191
33
179
128
23
42
9
166
177
74
32
106
76
58
114
200
187
116
65
71
140
49
152
119
190
36
48
45
143
163
62
134
80
208
57
132
37
113
147
178
205
50
94
135
18
79
41
28
172
176
157
83
107
104
69
155
115
8
108
110
193
70
153
181
204
218
54
30
59
196
139
98
81
86
126
171
55
26
111
77
31
137
5
160
29
24
215
11
217
189
27
198
150
101
35
206
216
102
211
40
53
199
4
47
165
161
52
68
66

> <PUBCHEM_MMFF94_PARTIAL_CHARGES>
25
1 -0.02
11 0.27
12 0.18
14 0.27
15 0.06
18 0.18
2 -0.57
22 0.11
23 -0.04
24 0.57
25 -0.15
26 0.3
27 0.27
28 0.27
29 0.27
3 -0.56
30 0.28
31 0.28
4 -0.9
45 0.36
5 -0.41
58 0.15
59 0.37
6 -0.73
7 -0.81

> <PUBCHEM_EFFECTIVE_ROTOR_COUNT>
13.6

> <PUBCHEM_PHARMACOPHORE_FEATURES>
11
1 2 acceptor
1 3 acceptor
1 4 cation
1 4 donor
1 5 acceptor
1 6 donor
1 7 cation
5 1 5 22 23 25 rings
6 13 16 17 19 20 21 rings
6 3 7 28 29 30 31 rings
6 4 8 9 10 11 14 rings

> <PUBCHEM_HEAVY_ATOM_COUNT>
31

> <PUBCHEM_ATOM_DEF_STEREO_COUNT>
2

> <PUBCHEM_ATOM_UDEF_STEREO_COUNT>
0

> <PUBCHEM_BOND_DEF_STEREO_COUNT>
0

> <PUBCHEM_BOND_UDEF_STEREO_COUNT>
0

> <PUBCHEM_ISOTOPIC_ATOM_COUNT>
0

> <PUBCHEM_COMPONENT_COUNT>
1

> <PUBCHEM_CACTVS_TAUTO_COUNT>
2

> <PUBCHEM_CONFORMER_ID>
019811C200000001

> <PUBCHEM_MMFF94_ENERGY>
30.9891

> <PUBCHEM_FEATURE_SELFOVERLAP>
55.822

> <PUBCHEM_SHAPE_FINGERPRINT>
10483366 6 18048619285096531860
10688039 33 18335139795421175634
108634 29 18055340346109914590
10864689 126 17906170655868453501
11513181 2 17773884275439393543
12422481 6 18272366503775841751
12539745 222 17969214548382728210
12788726 201 18114761355556563998
13402501 40 18411975858292681281
13561361 72 18336538335699809257
14114211 80 17692250059920252412
14790565 3 17474104783874353112
150020 26 17979076316878726977
15081414 286 18338796848504952513
15264996 154 17830467433054190735
15264996 44 18267595778536132951
15419008 47 18340211803773798287
15420108 30 17626654257237884522
15664445 248 18045231689175300212
16067689 391 16694984857411224878
17980427 26 16198719527851285824
1979834 28 18126563650733932993
20642791 105 18118120269380178878
22182313 1 18128800989920025634
25223398 141 17970349217662658732
3493558 16 18059586848821172459
354706 132 17758401777504761964
4144715 1 18263934392253262963
469060 322 18117014186114582905
508706 21 18264757771315655677
513532 50 17773614894926713548
57527585 103 17339304224368755196

> <PUBCHEM_SHAPE_MULTIPOLES>
600.43
12.54
6.53
1.78
11.36
6.76
0.53
-14.44
-2.19
2.47
1.8
-1.08
0.96
4.98

> <PUBCHEM_SHAPE_SELFOVERLAP>
1230.876

> <PUBCHEM_SHAPE_VOLUME>
341.8

> <PUBCHEM_COORDINATE_TYPE>
2
5
10

$$$$
