45784263
  -OEChem-12032416243D

 43 46  0     1  0  0  0  0  0999 V2000
   -7.4616    1.9592    0.4981 F   0  0  0  0  0  0  0  0  0  0  0  0
    7.9999    0.8329   -0.4568 F   0  0  0  0  0  0  0  0  0  0  0  0
    7.6757   -0.5898    1.1552 F   0  0  0  0  0  0  0  0  0  0  0  0
    7.5417   -1.2443   -0.9081 F   0  0  0  0  0  0  0  0  0  0  0  0
   -8.6420   -0.5070    0.4717 F   0  0  0  0  0  0  0  0  0  0  0  0
   -2.3509   -0.3936   -0.1519 N   0  0  1  0  0  0  0  0  0  0  0  0
    2.3288   -1.1556    0.5409 N   0  0  0  0  0  0  0  0  0  0  0  0
    1.6796    0.8821   -0.0640 N   0  0  0  0  0  0  0  0  0  0  0  0
   -0.1473   -0.7449    0.5694 C   0  0  1  0  0  0  0  0  0  0  0  0
   -0.9120    0.0682    1.6284 C   0  0  0  0  0  0  0  0  0  0  0  0
   -1.0148   -0.6518   -0.6930 C   0  0  0  0  0  0  0  0  0  0  0  0
   -2.1446    0.5959    0.9056 C   0  0  0  0  0  0  0  0  0  0  0  0
    1.2793   -0.3033    0.3379 C   0  0  0  0  0  0  0  0  0  0  0  0
   -3.2824    0.0692   -1.1699 C   0  0  0  0  0  0  0  0  0  0  0  0
   -4.7144   -0.0850   -0.7312 C   0  0  0  0  0  0  0  0  0  0  0  0
    3.4832   -0.4750    0.2502 C   0  0  0  0  0  0  0  0  0  0  0  0
    3.0515    0.7943   -0.1246 C   0  0  0  0  0  0  0  0  0  0  0  0
    4.8269   -0.8491    0.2821 C   0  0  0  0  0  0  0  0  0  0  0  0
    4.0031    1.7605   -0.4925 C   0  0  0  0  0  0  0  0  0  0  0  0
   -5.4389    1.0305   -0.3112 C   0  0  0  0  0  0  0  0  0  0  0  0
   -5.3167   -1.3431   -0.7451 C   0  0  0  0  0  0  0  0  0  0  0  0
    5.7604    0.1249   -0.0871 C   0  0  0  0  0  0  0  0  0  0  0  0
    5.3580    1.4072   -0.4678 C   0  0  0  0  0  0  0  0  0  0  0  0
   -6.7658    0.8880    0.0949 C   0  0  0  0  0  0  0  0  0  0  0  0
   -6.6435   -1.4856   -0.3388 C   0  0  0  0  0  0  0  0  0  0  0  0
    7.2150   -0.2147   -0.0736 C   0  0  0  0  0  0  0  0  0  0  0  0
   -7.3681   -0.3700    0.0811 C   0  0  0  0  0  0  0  0  0  0  0  0
   -0.1374   -1.7922    0.9052 H   0  0  0  0  0  0  0  0  0  0  0  0
   -1.2119   -0.5949    2.4496 H   0  0  0  0  0  0  0  0  0  0  0  0
   -0.3228    0.8845    2.0592 H   0  0  0  0  0  0  0  0  0  0  0  0
   -0.6832    0.1657   -1.3472 H   0  0  0  0  0  0  0  0  0  0  0  0
   -0.9824   -1.5844   -1.2669 H   0  0  0  0  0  0  0  0  0  0  0  0
   -1.9335    1.5934    0.4989 H   0  0  0  0  0  0  0  0  0  0  0  0
   -2.9976    0.6688    1.5875 H   0  0  0  0  0  0  0  0  0  0  0  0
   -3.0756    1.1023   -1.4809 H   0  0  0  0  0  0  0  0  0  0  0  0
   -3.1653   -0.5327   -2.0823 H   0  0  0  0  0  0  0  0  0  0  0  0
    2.2687   -2.1169    0.8496 H   0  0  0  0  0  0  0  0  0  0  0  0
    5.1287   -1.8476    0.5794 H   0  0  0  0  0  0  0  0  0  0  0  0
    3.7001    2.7594   -0.7898 H   0  0  0  0  0  0  0  0  0  0  0  0
   -4.9815    2.0161   -0.2941 H   0  0  0  0  0  0  0  0  0  0  0  0
   -4.7629   -2.2199   -1.0702 H   0  0  0  0  0  0  0  0  0  0  0  0
    6.0898    2.1589   -0.7535 H   0  0  0  0  0  0  0  0  0  0  0  0
   -7.1127   -2.4649   -0.3491 H   0  0  0  0  0  0  0  0  0  0  0  0
  1 24  1  0  0  0  0
  2 26  1  0  0  0  0
  3 26  1  0  0  0  0
  4 26  1  0  0  0  0
  5 27  1  0  0  0  0
  6 11  1  0  0  0  0
  6 12  1  0  0  0  0
  6 14  1  0  0  0  0
  7 13  1  0  0  0  0
  7 16  1  0  0  0  0
  7 37  1  0  0  0  0
  8 13  2  0  0  0  0
  8 17  1  0  0  0  0
  9 10  1  0  0  0  0
  9 11  1  0  0  0  0
  9 13  1  0  0  0  0
  9 28  1  0  0  0  0
 10 12  1  0  0  0  0
 10 29  1  0  0  0  0
 10 30  1  0  0  0  0
 11 31  1  0  0  0  0
 11 32  1  0  0  0  0
 12 33  1  0  0  0  0
 12 34  1  0  0  0  0
 14 15  1  0  0  0  0
 14 35  1  0  0  0  0
 14 36  1  0  0  0  0
 15 20  2  0  0  0  0
 15 21  1  0  0  0  0
 16 17  2  0  0  0  0
 16 18  1  0  0  0  0
 17 19  1  0  0  0  0
 18 22  2  0  0  0  0
 18 38  1  0  0  0  0
 19 23  2  0  0  0  0
 19 39  1  0  0  0  0
 20 24  1  0  0  0  0
 20 40  1  0  0  0  0
 21 25  2  0  0  0  0
 21 41  1  0  0  0  0
 22 23  1  0  0  0  0
 22 26  1  0  0  0  0
 23 42  1  0  0  0  0
 24 27  2  0  0  0  0
 25 27  1  0  0  0  0
 25 43  1  0  0  0  0
M  END
> <PUBCHEM_COMPOUND_CID>
45784263

> <PUBCHEM_CONFORMER_RMSD>
0.8

> <PUBCHEM_CONFORMER_DIVERSEORDER>
1
70
5
86
84
42
62
79
60
92
2
80
72
41
93
28
81
75
88
66
87
31
56
24
67
50
73
12
77
33
61
74
32
51
63
25
59
6
52
46
95
71
53
39
69
65
36
8
90
82
20
58
10
78
85
17
22
57
21
83
64
91
27
40
38
9
76
89
68
55
30
54
49
18
4
3
94
16
35
45
15
43
44
19
7
14
37
34
47
29
48
13
11
26
23

> <PUBCHEM_MMFF94_PARTIAL_CHARGES>
33
1 -0.19
11 0.27
12 0.27
13 0.01
14 0.41
15 -0.14
16 -0.15
17 0.23
18 -0.15
19 -0.15
2 -0.34
20 -0.15
21 -0.15
22 -0.14
23 -0.15
24 0.19
25 -0.15
26 1.16
27 0.19
3 -0.34
37 0.27
38 0.15
39 0.15
4 -0.34
40 0.15
41 0.15
42 0.15
43 0.15
5 -0.19
6 -0.81
7 0.03
8 -0.57
9 0.18

> <PUBCHEM_EFFECTIVE_ROTOR_COUNT>
5

> <PUBCHEM_PHARMACOPHORE_FEATURES>
7
1 6 cation
1 7 donor
3 7 8 13 cation
5 6 9 10 11 12 rings
5 7 8 13 16 17 rings
6 15 20 21 24 25 27 rings
6 16 17 18 19 22 23 rings

> <PUBCHEM_HEAVY_ATOM_COUNT>
27

> <PUBCHEM_ATOM_DEF_STEREO_COUNT>
1

> <PUBCHEM_ATOM_UDEF_STEREO_COUNT>
0

> <PUBCHEM_BOND_DEF_STEREO_COUNT>
0

> <PUBCHEM_BOND_UDEF_STEREO_COUNT>
0

> <PUBCHEM_ISOTOPIC_ATOM_COUNT>
0

> <PUBCHEM_COMPONENT_COUNT>
1

> <PUBCHEM_CACTVS_TAUTO_COUNT>
2

> <PUBCHEM_CONFORMER_ID>
02BA9CC700000001

> <PUBCHEM_MMFF94_ENERGY>
47.3678

> <PUBCHEM_FEATURE_SELFOVERLAP>
35.63

> <PUBCHEM_SHAPE_FINGERPRINT>
10 15 13118003309538800363
10066227 49 17988649532699501902
10299344 5 18409729573544220535
106641 1 12324248268918932092
11135926 11 18271233955033441511
11315181 36 16272208609273086467
11408170 108 17916588623648649078
11524674 6 16272206418940064559
11646440 116 16515687736449915037
11719270 70 17847062173421747902
12082328 90 18413669102463684303
12166972 35 18260547848535728268
12236239 1 18343300383401689637
12643181 29 14979952588436112605
12730499 353 17530680996162185418
12838862 33 13829843574190457364
13533116 47 16950551148171789112
13668630 136 18272653441935369422
13885169 127 18272090478959681465
13914758 101 18411139112927825704
14150023 79 17530961355043985858
14251752 14 17989487424714687921
14251764 18 17603584119089476466
14251764 46 14908180854874100758
14294032 229 17702397138973980289
14849402 71 18114470079776168829
14856354 85 18272088332103937239
14933364 13 18410011044289202445
15183329 4 18334849515835367655
15419008 47 15140954076144236687
15510794 2 13758071922865678621
15849732 13 18202844361749720652
17093844 174 16630802227933965655
18006028 8 13110963128196988371
18335252 98 18409733963328188931
19841028 212 18271246002955205102
20238998 120 14045742625175145907
21033648 29 17386568102448249808
21095086 128 18260828220275120395
21150785 3 18408603669416185546
21267235 1 18409731755313753924
21315763 28 18411136961407588733
21792961 116 17775568611721155491
22224240 67 9871747988372973100
23035841 295 18131350830325584879
23536379 177 18411135836194592427
23559900 14 16701442585184000682
23622692 88 13767926831809274634
249057 3 18409447020150975535
29717793 49 18131355211445317636
3004659 81 18413666920330153960
335352 9 18186805786489926638
3545911 37 17603301561575363238
4073 2 17822577221374664906
4098825 35 18409166576135181757
4325135 7 18334574655588340823
4339292 15 16988268903222304431
5283156 175 17632581539454671086
5758199 1 17822009804902850563
59682541 35 15791737421103109217
59755656 520 17458058296102853147
9663363 56 15985101908187477443

> <PUBCHEM_SHAPE_MULTIPOLES>
504.34
26.24
1.41
0.98
2.32
0.29
-0.13
0.06
1.48
0.4
0.1
0.14
-0.04
-0.9

> <PUBCHEM_SHAPE_SELFOVERLAP>
1112.928

> <PUBCHEM_SHAPE_VOLUME>
275.6

> <PUBCHEM_COORDINATE_TYPE>
2
5
10

$$$$
