51137597
  -OEChem-12032416233D

 46 49  0     1  0  0  0  0  0999 V2000
    9.3668    0.9419    0.4513 F   0  0  0  0  0  0  0  0  0  0  0  0
    1.1203   -0.1909    0.3902 O   0  0  0  0  0  0  0  0  0  0  0  0
   -6.8222   -0.2083   -0.4403 O   0  0  0  0  0  0  0  0  0  0  0  0
    4.0125    0.0657   -0.4254 O   0  0  0  0  0  0  0  0  0  0  0  0
   -3.6099   -0.0125    0.4220 N   0  0  1  0  0  0  0  0  0  0  0  0
    0.0921   -1.7598   -0.8286 N   0  0  0  0  0  0  0  0  0  0  0  0
    1.4353   -2.0801   -0.7658 N   0  0  0  0  0  0  0  0  0  0  0  0
   -1.2888    0.1629    0.1365 C   0  0  1  0  0  0  0  0  0  0  0  0
   -2.0034    0.6984   -1.1164 C   0  0  0  0  0  0  0  0  0  0  0  0
   -2.3664   -0.6285    0.8899 C   0  0  0  0  0  0  0  0  0  0  0  0
   -3.4256    0.1615   -1.0187 C   0  0  0  0  0  0  0  0  0  0  0  0
   -4.7811   -0.8169    0.7377 C   0  0  0  0  0  0  0  0  0  0  0  0
   -0.0458   -0.6507   -0.1404 C   0  0  0  0  0  0  0  0  0  0  0  0
   -6.0512   -0.0120    0.6615 C   0  0  0  0  0  0  0  0  0  0  0  0
   -6.6275    0.9180    1.4952 C   0  0  0  0  0  0  0  0  0  0  0  0
    1.9963   -1.1373   -0.0451 C   0  0  0  0  0  0  0  0  0  0  0  0
   -7.9027    0.6052   -0.3084 C   0  0  0  0  0  0  0  0  0  0  0  0
   -7.8300    1.3187    0.8654 C   0  0  0  0  0  0  0  0  0  0  0  0
    3.4014   -0.9710    0.3474 C   0  0  0  0  0  0  0  0  0  0  0  0
   -8.8876    0.5601   -1.3985 C   0  0  0  0  0  0  0  0  0  0  0  0
    5.3440    0.2836   -0.2074 C   0  0  0  0  0  0  0  0  0  0  0  0
    6.0328   -0.4876    0.7289 C   0  0  0  0  0  0  0  0  0  0  0  0
    6.0143    1.2769   -0.9214 C   0  0  0  0  0  0  0  0  0  0  0  0
    7.3916   -0.2652    0.9514 C   0  0  0  0  0  0  0  0  0  0  0  0
    7.3731    1.4994   -0.6988 C   0  0  0  0  0  0  0  0  0  0  0  0
    8.0618    0.7283    0.2376 C   0  0  0  0  0  0  0  0  0  0  0  0
   -0.9984    1.0288    0.7484 H   0  0  0  0  0  0  0  0  0  0  0  0
   -2.0123    1.7953   -1.0892 H   0  0  0  0  0  0  0  0  0  0  0  0
   -1.5254    0.3929   -2.0531 H   0  0  0  0  0  0  0  0  0  0  0  0
   -2.2467   -0.5292    1.9743 H   0  0  0  0  0  0  0  0  0  0  0  0
   -2.3279   -1.6964    0.6360 H   0  0  0  0  0  0  0  0  0  0  0  0
   -4.1443    0.8642   -1.4522 H   0  0  0  0  0  0  0  0  0  0  0  0
   -3.4969   -0.7911   -1.5593 H   0  0  0  0  0  0  0  0  0  0  0  0
   -4.8542   -1.7114    0.1058 H   0  0  0  0  0  0  0  0  0  0  0  0
   -4.7091   -1.1782    1.7726 H   0  0  0  0  0  0  0  0  0  0  0  0
   -6.2321    1.2653    2.4390 H   0  0  0  0  0  0  0  0  0  0  0  0
   -8.5517    2.0383    1.2248 H   0  0  0  0  0  0  0  0  0  0  0  0
    3.9039   -1.9292    0.1646 H   0  0  0  0  0  0  0  0  0  0  0  0
    3.4361   -0.7211    1.4152 H   0  0  0  0  0  0  0  0  0  0  0  0
   -8.4232    0.8439   -2.3480 H   0  0  0  0  0  0  0  0  0  0  0  0
   -9.2984   -0.4487   -1.5039 H   0  0  0  0  0  0  0  0  0  0  0  0
   -9.7186    1.2466   -1.2090 H   0  0  0  0  0  0  0  0  0  0  0  0
    5.5794   -1.2719    1.3247 H   0  0  0  0  0  0  0  0  0  0  0  0
    5.4829    1.8806   -1.6520 H   0  0  0  0  0  0  0  0  0  0  0  0
    7.9291   -0.8638    1.6811 H   0  0  0  0  0  0  0  0  0  0  0  0
    7.8952    2.2727   -1.2544 H   0  0  0  0  0  0  0  0  0  0  0  0
  1 26  1  0  0  0  0
  2 13  1  0  0  0  0
  2 16  1  0  0  0  0
  3 14  1  0  0  0  0
  3 17  1  0  0  0  0
  4 19  1  0  0  0  0
  4 21  1  0  0  0  0
  5 10  1  0  0  0  0
  5 11  1  0  0  0  0
  5 12  1  0  0  0  0
  6  7  1  0  0  0  0
  6 13  2  0  0  0  0
  7 16  2  0  0  0  0
  8  9  1  0  0  0  0
  8 10  1  0  0  0  0
  8 13  1  0  0  0  0
  8 27  1  0  0  0  0
  9 11  1  0  0  0  0
  9 28  1  0  0  0  0
  9 29  1  0  0  0  0
 10 30  1  0  0  0  0
 10 31  1  0  0  0  0
 11 32  1  0  0  0  0
 11 33  1  0  0  0  0
 12 14  1  0  0  0  0
 12 34  1  0  0  0  0
 12 35  1  0  0  0  0
 14 15  2  0  0  0  0
 15 18  1  0  0  0  0
 15 36  1  0  0  0  0
 16 19  1  0  0  0  0
 17 18  2  0  0  0  0
 17 20  1  0  0  0  0
 18 37  1  0  0  0  0
 19 38  1  0  0  0  0
 19 39  1  0  0  0  0
 20 40  1  0  0  0  0
 20 41  1  0  0  0  0
 20 42  1  0  0  0  0
 21 22  2  0  0  0  0
 21 23  1  0  0  0  0
 22 24  1  0  0  0  0
 22 43  1  0  0  0  0
 23 25  2  0  0  0  0
 23 44  1  0  0  0  0
 24 26  2  0  0  0  0
 24 45  1  0  0  0  0
 25 26  1  0  0  0  0
 25 46  1  0  0  0  0
M  END
> <PUBCHEM_COMPOUND_CID>
51137597

> <PUBCHEM_CONFORMER_RMSD>
1.2

> <PUBCHEM_CONFORMER_DIVERSEORDER>
1
60
53
103
113
49
56
89
102
81
3
99
63
26
78
4
86
54
23
21
15
98
97
111
34
85
87
104
28
29
50
52
38
27
118
43
122
69
51
107
41
13
77
55
67
96
72
62
22
106
117
40
7
94
105
8
58
100
92
39
79
33
91
93
19
121
12
101
75
83
119
108
74
25
24
95
109
115
6
10
57
68
14
20
59
70
32
44
37
80
120
90
35
47
18
112
30
2
61
114
9
116
46
45
16
88
36
73
76
82
65
48
11
5
66
17
71
64
110
84
31
42

> <PUBCHEM_MMFF94_PARTIAL_CHARGES>
31
1 -0.19
10 0.27
11 0.27
12 0.45
13 0.3
14 -0.04
15 -0.15
16 0.3
17 -0.04
18 -0.15
19 0.46
2 -0.28
20 0.18
21 0.08
22 -0.15
23 -0.15
24 -0.15
25 -0.15
26 0.19
3 -0.28
36 0.15
37 0.15
4 -0.36
43 0.15
44 0.15
45 0.15
46 0.15
5 -0.81
6 -0.34
7 -0.34
8 0.18

> <PUBCHEM_EFFECTIVE_ROTOR_COUNT>
7

> <PUBCHEM_PHARMACOPHORE_FEATURES>
7
1 3 acceptor
1 4 acceptor
1 5 cation
5 2 6 7 13 16 rings
5 3 14 15 17 18 rings
5 5 8 9 10 11 rings
6 21 22 23 24 25 26 rings

> <PUBCHEM_HEAVY_ATOM_COUNT>
26

> <PUBCHEM_ATOM_DEF_STEREO_COUNT>
1

> <PUBCHEM_ATOM_UDEF_STEREO_COUNT>
0

> <PUBCHEM_BOND_DEF_STEREO_COUNT>
0

> <PUBCHEM_BOND_UDEF_STEREO_COUNT>
0

> <PUBCHEM_ISOTOPIC_ATOM_COUNT>
0

> <PUBCHEM_COMPONENT_COUNT>
1

> <PUBCHEM_CACTVS_TAUTO_COUNT>
1

> <PUBCHEM_CONFORMER_ID>
030C4C3D00000001

> <PUBCHEM_MMFF94_ENERGY>
44.953

> <PUBCHEM_FEATURE_SELFOVERLAP>
35.523

> <PUBCHEM_SHAPE_FINGERPRINT>
10 15 17967251996380816418
10076449 9 15769775767439162907
10533779 47 16733267841780888528
106641 1 18260271863054066939
10670039 82 13686306747059858995
10904742 90 17632295670441834062
11135926 11 14345788375365210763
11315181 36 18413953889466783083
11638347 137 15936405629273298776
12082328 90 12607412070400420251
12592606 108 9007054664846677516
12645989 146 9871457708892582515
12838862 33 18342728624707974416
13553643 46 17821727230309914173
13685833 64 10881402049595759526
13885169 127 10591769774760016963
14150022 121 18337111168853669453
14251764 18 18412827975419907393
14251764 46 18333730212745058139
14344974 52 16128084646726471608
14617042 71 18115031930829885460
15183329 4 13470414348705381174
15198563 99 14117531895557793811
15419008 47 15574987390372105471
15461852 350 16702016496569038413
155225 1 18273496771058192064
15690457 1 11602539840654268000
15849732 13 15482951657473667729
17093844 174 17095527293255971945
1754911 235 17132113533326370849
1818759 1 7925913694638289128
18681886 176 15482379907622691995
19301679 30 12180385934922584952
19841028 212 12468902183908504984
20157964 124 18334576824726543538
2026 5 9799152724908015068
21150785 3 15769775754232351249
21267235 1 8502657004060264558
21792934 111 16298104289781643709
22224240 67 18407477764803315339
23576562 1 17631162177064544381
246663 6 10087640407747962937
24771293 8 18413112736748336381
249057 3 14548731828983109504
4073 2 18412271623370306571
4325135 7 18261110772576173693
444769 64 8646479731519582325
45377200 153 13470107632791656413
5758199 1 18273216387166665635
59682541 35 18113622317207145249
636775 72 17968091964317401917
636775 8 16271918360331980647
67123 10 18333731330291279243
68570916 9 16444207480242118227
9953998 17 17531248387211868075

> <PUBCHEM_SHAPE_MULTIPOLES>
495.24
31.07
1.37
1.16
5.36
0.09
-0.03
-13.74
-4.21
1.13
0.25
-1.45
-0.07
-0.29

> <PUBCHEM_SHAPE_SELFOVERLAP>
1068.814

> <PUBCHEM_SHAPE_VOLUME>
276.8

> <PUBCHEM_COORDINATE_TYPE>
2
5
10

$$$$
