25338987
  -OEChem-12032416193D

 50 53  0     1  0  0  0  0  0999 V2000
    4.0992   -2.8393   -0.7178 S   0  0  0  0  0  0  0  0  0  0  0  0
    1.6531    3.3219    2.0119 O   0  0  0  0  0  0  0  0  0  0  0  0
    0.8415    1.1636    2.1518 O   0  0  0  0  0  0  0  0  0  0  0  0
    4.3015   -0.1637    0.9299 O   0  0  0  0  0  0  0  0  0  0  0  0
   -5.2052   -1.3800    1.8442 O   0  0  0  0  0  0  0  0  0  0  0  0
    2.1920    0.3556    0.0439 N   0  0  0  0  0  0  0  0  0  0  0  0
   -0.7863    0.8279   -2.1770 N   0  0  0  0  0  0  0  0  0  0  0  0
   -0.0656    2.9352   -2.3465 N   0  0  0  0  0  0  0  0  0  0  0  0
    2.3271    1.8011    0.3632 C   0  0  1  0  0  0  0  0  0  0  0  0
    1.9142    2.7504   -0.7815 C   0  0  0  0  0  0  0  0  0  0  0  0
    0.3115    0.9240   -1.3745 C   0  0  0  0  0  0  0  0  0  0  0  0
    0.9099   -0.1344   -0.5407 C   0  0  0  0  0  0  0  0  0  0  0  0
    0.7315    2.2250   -1.4931 C   0  0  0  0  0  0  0  0  0  0  0  0
   -1.6076   -0.3373   -2.3979 C   0  0  0  0  0  0  0  0  0  0  0  0
   -0.9729    2.0647   -2.7414 C   0  0  0  0  0  0  0  0  0  0  0  0
    1.5150    2.0274    1.6066 C   0  0  0  0  0  0  0  0  0  0  0  0
    3.2256   -0.5087    0.4431 C   0  0  0  0  0  0  0  0  0  0  0  0
   -2.5666   -0.6158   -1.2673 C   0  0  0  0  0  0  0  0  0  0  0  0
    3.0229   -1.9550    0.2780 C   0  0  0  0  0  0  0  0  0  0  0  0
   -2.5376   -1.8485   -0.6150 C   0  0  0  0  0  0  0  0  0  0  0  0
   -3.4824    0.3600   -0.8740 C   0  0  0  0  0  0  0  0  0  0  0  0
    2.0490   -2.7591    0.8283 C   0  0  0  0  0  0  0  0  0  0  0  0
   -3.4245   -2.1054    0.4304 C   0  0  0  0  0  0  0  0  0  0  0  0
   -4.3695    0.1031    0.1715 C   0  0  0  0  0  0  0  0  0  0  0  0
    0.9280    3.6769    3.1936 C   0  0  0  0  0  0  0  0  0  0  0  0
   -4.3404   -1.1296    0.8236 C   0  0  0  0  0  0  0  0  0  0  0  0
    2.1885   -4.1191    0.4270 C   0  0  0  0  0  0  0  0  0  0  0  0
    3.2634   -4.3027   -0.4145 C   0  0  0  0  0  0  0  0  0  0  0  0
   -6.1151   -0.3381    2.1946 C   0  0  0  0  0  0  0  0  0  0  0  0
    3.3687    2.0110    0.6354 H   0  0  0  0  0  0  0  0  0  0  0  0
    2.7388    2.8057   -1.5035 H   0  0  0  0  0  0  0  0  0  0  0  0
    1.7259    3.7695   -0.4287 H   0  0  0  0  0  0  0  0  0  0  0  0
    0.2436   -0.4137    0.2805 H   0  0  0  0  0  0  0  0  0  0  0  0
    1.1048   -1.0200   -1.1522 H   0  0  0  0  0  0  0  0  0  0  0  0
   -0.9325   -1.1839   -2.5709 H   0  0  0  0  0  0  0  0  0  0  0  0
   -2.1734   -0.1910   -3.3261 H   0  0  0  0  0  0  0  0  0  0  0  0
   -1.7825    2.2712   -3.4284 H   0  0  0  0  0  0  0  0  0  0  0  0
   -1.8281   -2.6171   -0.9095 H   0  0  0  0  0  0  0  0  0  0  0  0
   -3.5269    1.3219   -1.3768 H   0  0  0  0  0  0  0  0  0  0  0  0
    1.2748   -2.3984    1.4936 H   0  0  0  0  0  0  0  0  0  0  0  0
   -3.3966   -3.0671    0.9352 H   0  0  0  0  0  0  0  0  0  0  0  0
   -5.0557    0.9042    0.4242 H   0  0  0  0  0  0  0  0  0  0  0  0
    1.1224    4.7311    3.4079 H   0  0  0  0  0  0  0  0  0  0  0  0
    1.2700    3.0769    4.0422 H   0  0  0  0  0  0  0  0  0  0  0  0
   -0.1460    3.5432    3.0329 H   0  0  0  0  0  0  0  0  0  0  0  0
    1.5344   -4.9221    0.7410 H   0  0  0  0  0  0  0  0  0  0  0  0
    3.5981   -5.2262   -0.8655 H   0  0  0  0  0  0  0  0  0  0  0  0
   -6.7267   -0.7086    3.0239 H   0  0  0  0  0  0  0  0  0  0  0  0
   -6.7993   -0.1074    1.3710 H   0  0  0  0  0  0  0  0  0  0  0  0
   -5.5884    0.5508    2.5582 H   0  0  0  0  0  0  0  0  0  0  0  0
  1 19  1  0  0  0  0
  1 28  1  0  0  0  0
  2 16  1  0  0  0  0
  2 25  1  0  0  0  0
  3 16  2  0  0  0  0
  4 17  2  0  0  0  0
  5 26  1  0  0  0  0
  5 29  1  0  0  0  0
  6  9  1  0  0  0  0
  6 12  1  0  0  0  0
  6 17  1  0  0  0  0
  7 11  1  0  0  0  0
  7 14  1  0  0  0  0
  7 15  1  0  0  0  0
  8 13  1  0  0  0  0
  8 15  2  0  0  0  0
  9 10  1  0  0  0  0
  9 16  1  0  0  0  0
  9 30  1  0  0  0  0
 10 13  1  0  0  0  0
 10 31  1  0  0  0  0
 10 32  1  0  0  0  0
 11 12  1  0  0  0  0
 11 13  2  0  0  0  0
 12 33  1  0  0  0  0
 12 34  1  0  0  0  0
 14 18  1  0  0  0  0
 14 35  1  0  0  0  0
 14 36  1  0  0  0  0
 15 37  1  0  0  0  0
 17 19  1  0  0  0  0
 18 20  2  0  0  0  0
 18 21  1  0  0  0  0
 19 22  2  0  0  0  0
 20 23  1  0  0  0  0
 20 38  1  0  0  0  0
 21 24  2  0  0  0  0
 21 39  1  0  0  0  0
 22 27  1  0  0  0  0
 22 40  1  0  0  0  0
 23 26  2  0  0  0  0
 23 41  1  0  0  0  0
 24 26  1  0  0  0  0
 24 42  1  0  0  0  0
 25 43  1  0  0  0  0
 25 44  1  0  0  0  0
 25 45  1  0  0  0  0
 27 28  2  0  0  0  0
 27 46  1  0  0  0  0
 28 47  1  0  0  0  0
 29 48  1  0  0  0  0
 29 49  1  0  0  0  0
 29 50  1  0  0  0  0
M  END
> <PUBCHEM_COMPOUND_CID>
25338987

> <PUBCHEM_CONFORMER_RMSD>
1

> <PUBCHEM_CONFORMER_DIVERSEORDER>
1
17
47
31
21
16
45
34
11
37
29
26
40
30
6
41
42
38
15
13
8
20
22
32
5
3
28
25
33
39
23
12
36
19
48
7
44
43
4
35
14
2
24
46
27
10
9
18

> <PUBCHEM_MMFF94_PARTIAL_CHARGES>
37
1 -0.08
10 0.18
11 -0.33
12 0.48
13 0.05
14 0.4
15 0.04
16 0.66
17 0.71
18 -0.14
19 -0.05
2 -0.43
20 -0.15
21 -0.15
22 -0.15
23 -0.15
24 -0.15
25 0.28
26 0.08
27 -0.15
28 -0.11
29 0.28
3 -0.57
37 0.15
38 0.15
39 0.15
4 -0.57
40 0.15
41 0.15
42 0.15
46 0.15
47 0.15
5 -0.36
6 -0.66
7 0.05
8 -0.57
9 0.36

> <PUBCHEM_EFFECTIVE_ROTOR_COUNT>
7.8

> <PUBCHEM_PHARMACOPHORE_FEATURES>
8
1 3 acceptor
1 4 acceptor
1 5 acceptor
3 7 8 15 cation
5 1 19 22 27 28 rings
5 7 8 11 13 15 rings
6 18 20 21 23 24 26 rings
6 6 9 10 11 12 13 rings

> <PUBCHEM_HEAVY_ATOM_COUNT>
29

> <PUBCHEM_ATOM_DEF_STEREO_COUNT>
1

> <PUBCHEM_ATOM_UDEF_STEREO_COUNT>
0

> <PUBCHEM_BOND_DEF_STEREO_COUNT>
0

> <PUBCHEM_BOND_UDEF_STEREO_COUNT>
0

> <PUBCHEM_ISOTOPIC_ATOM_COUNT>
0

> <PUBCHEM_COMPONENT_COUNT>
1

> <PUBCHEM_CACTVS_TAUTO_COUNT>
1

> <PUBCHEM_CONFORMER_ID>
0182A46B00000001

> <PUBCHEM_MMFF94_ENERGY>
77.8216

> <PUBCHEM_FEATURE_SELFOVERLAP>
40.701

> <PUBCHEM_SHAPE_FINGERPRINT>
10064457 181 17836079349039220832
10764073 3 17622174464476871709
11399939 17 18198641010882309415
12128747 34 18265326227834063781
12156800 1 16980718298078848366
12633257 1 17489311918939241513
12788726 201 16981215260671574796
13135754 10 17411073737839193670
13533116 47 18341886455247862727
13583140 156 18058441183579853853
14022347 108 17387389278140134525
14363568 33 18408610253532914262
14957384 54 17130998731646585029
150020 26 18335712649959877131
15475509 84 18200323091377625561
17974551 9 18411422765827638321
17980427 26 17700963599128143856
19734167 9 17546712116292209000
20578428 11 14058719178256465103
20771845 38 15320441631480810146
20775530 9 18263361395553645050
21315764 371 17479168013497776183
23466295 7 17615132079342511094
23559900 14 18260264179442113215
24893989 43 15435141770021136563
3117164 225 18262533490016552505
3380486 145 17840547515376556718
3737641 26 18336267838754556726
469060 322 17316501508644911222
484985 159 17329152368974921354
57527585 103 17044304064730716078
59444896 2 17401828064936309004
6287921 2 18118406374141931827
6823239 73 17458063781139482523
7097593 13 18201714063606767999
7288768 16 16907757339238032809
77296 10 18270661165974310719
8509985 295 17846790589659176337

> <PUBCHEM_SHAPE_MULTIPOLES>
562.24
8.95
5.06
2.74
10.66
0.52
0.28
8.48
4.68
-5.76
1.51
1.61
-3.02
1.79

> <PUBCHEM_SHAPE_SELFOVERLAP>
1209.008

> <PUBCHEM_SHAPE_VOLUME>
312.2

> <PUBCHEM_COORDINATE_TYPE>
2
5
10

$$$$
