7143712
  -OEChem-12032416213D

 53 57  0     1  0  0  0  0  0999 V2000
   -1.4618    2.6771    0.5657 S   0  0  0  0  0  0  0  0  0  0  0  0
    0.2243   -1.5597   -1.6606 O   0  0  0  0  0  0  0  0  0  0  0  0
   -3.4951    2.2628   -2.0514 O   0  0  0  0  0  0  0  0  0  0  0  0
   -4.0759    0.7155   -0.4182 N   0  0  0  0  0  0  0  0  0  0  0  0
   -1.6366   -1.3400   -0.2719 N   0  0  0  0  0  0  0  0  0  0  0  0
   -4.0305   -1.6831   -1.1130 C   0  0  1  0  0  0  0  0  0  0  0  0
   -3.6359   -1.0867    1.2395 C   0  0  2  0  0  0  0  0  0  0  0  0
   -4.3284   -2.0938    0.3239 C   0  0  0  0  0  0  0  0  0  0  0  0
   -4.5615   -0.2658   -1.3903 C   0  0  0  0  0  0  0  0  0  0  0  0
   -2.5205   -1.7905   -1.3559 C   0  0  0  0  0  0  0  0  0  0  0  0
   -4.2148    0.3201    0.9915 C   0  0  0  0  0  0  0  0  0  0  0  0
   -2.1371   -1.0743    1.0048 C   0  0  0  0  0  0  0  0  0  0  0  0
   -1.2968   -0.7815    2.0099 C   0  0  0  0  0  0  0  0  0  0  0  0
   -0.2575   -1.2981   -0.5569 C   0  0  0  0  0  0  0  0  0  0  0  0
   -3.6040    1.9506   -0.8629 C   0  0  0  0  0  0  0  0  0  0  0  0
    0.6562   -0.9307    0.5812 C   0  0  0  0  0  0  0  0  0  0  0  0
    0.1194   -0.7045    1.7894 C   0  0  0  0  0  0  0  0  0  0  0  0
   -3.2025    2.9426    0.1993 C   0  0  0  0  0  0  0  0  0  0  0  0
    2.1113   -0.8114    0.3837 C   0  0  0  0  0  0  0  0  0  0  0  0
    2.6687    0.4132    0.0126 C   0  0  0  0  0  0  0  0  0  0  0  0
    2.9319   -1.9211    0.5679 C   0  0  0  0  0  0  0  0  0  0  0  0
    4.0539    0.5427   -0.1791 C   0  0  0  0  0  0  0  0  0  0  0  0
    4.3103   -1.8106    0.3822 C   0  0  0  0  0  0  0  0  0  0  0  0
    4.8871   -0.5858    0.0085 C   0  0  0  0  0  0  0  0  0  0  0  0
   -1.2439    3.9551    1.8287 C   0  0  0  0  0  0  0  0  0  0  0  0
    4.6306    1.7676   -0.5523 C   0  0  0  0  0  0  0  0  0  0  0  0
    6.2724   -0.4563   -0.1832 C   0  0  0  0  0  0  0  0  0  0  0  0
    6.0088    1.8783   -0.7386 C   0  0  0  0  0  0  0  0  0  0  0  0
    6.8281    0.7684   -0.5545 C   0  0  0  0  0  0  0  0  0  0  0  0
   -4.5388   -2.3675   -1.8036 H   0  0  0  0  0  0  0  0  0  0  0  0
   -3.8459   -1.3696    2.2793 H   0  0  0  0  0  0  0  0  0  0  0  0
   -3.9661   -3.1110    0.5186 H   0  0  0  0  0  0  0  0  0  0  0  0
   -5.4101   -2.0973    0.5053 H   0  0  0  0  0  0  0  0  0  0  0  0
   -4.3065    0.0402   -2.4105 H   0  0  0  0  0  0  0  0  0  0  0  0
   -5.6563   -0.2603   -1.3201 H   0  0  0  0  0  0  0  0  0  0  0  0
   -2.2666   -2.8461   -1.5241 H   0  0  0  0  0  0  0  0  0  0  0  0
   -2.2410   -1.2633   -2.2769 H   0  0  0  0  0  0  0  0  0  0  0  0
   -5.2883    0.3308    1.2175 H   0  0  0  0  0  0  0  0  0  0  0  0
   -3.7408    1.0215    1.6780 H   0  0  0  0  0  0  0  0  0  0  0  0
   -1.6599   -0.5611    3.0083 H   0  0  0  0  0  0  0  0  0  0  0  0
    0.7335   -0.4346    2.6436 H   0  0  0  0  0  0  0  0  0  0  0  0
   -3.8417    2.9078    1.0829 H   0  0  0  0  0  0  0  0  0  0  0  0
   -3.3224    3.9456   -0.2264 H   0  0  0  0  0  0  0  0  0  0  0  0
    2.0214    1.2776   -0.1308 H   0  0  0  0  0  0  0  0  0  0  0  0
    2.5131   -2.8823    0.8562 H   0  0  0  0  0  0  0  0  0  0  0  0
    4.9314   -2.6913    0.5316 H   0  0  0  0  0  0  0  0  0  0  0  0
   -1.4592    4.9423    1.4121 H   0  0  0  0  0  0  0  0  0  0  0  0
   -0.2081    3.9423    2.1780 H   0  0  0  0  0  0  0  0  0  0  0  0
   -1.9009    3.7622    2.6807 H   0  0  0  0  0  0  0  0  0  0  0  0
    4.0095    2.6483   -0.7018 H   0  0  0  0  0  0  0  0  0  0  0  0
    6.9320   -1.3105   -0.0446 H   0  0  0  0  0  0  0  0  0  0  0  0
    6.4421    2.8314   -1.0274 H   0  0  0  0  0  0  0  0  0  0  0  0
    7.9010    0.8553   -0.6996 H   0  0  0  0  0  0  0  0  0  0  0  0
  1 18  1  0  0  0  0
  1 25  1  0  0  0  0
  2 14  2  0  0  0  0
  3 15  2  0  0  0  0
  4  9  1  0  0  0  0
  4 11  1  0  0  0  0
  4 15  1  0  0  0  0
  5 10  1  0  0  0  0
  5 12  1  0  0  0  0
  5 14  1  0  0  0  0
  6  8  1  0  0  0  0
  6  9  1  0  0  0  0
  6 10  1  0  0  0  0
  6 30  1  0  0  0  0
  7  8  1  0  0  0  0
  7 11  1  0  0  0  0
  7 12  1  0  0  0  0
  7 31  1  0  0  0  0
  8 32  1  0  0  0  0
  8 33  1  0  0  0  0
  9 34  1  0  0  0  0
  9 35  1  0  0  0  0
 10 36  1  0  0  0  0
 10 37  1  0  0  0  0
 11 38  1  0  0  0  0
 11 39  1  0  0  0  0
 12 13  2  0  0  0  0
 13 17  1  0  0  0  0
 13 40  1  0  0  0  0
 14 16  1  0  0  0  0
 15 18  1  0  0  0  0
 16 17  2  0  0  0  0
 16 19  1  0  0  0  0
 17 41  1  0  0  0  0
 18 42  1  0  0  0  0
 18 43  1  0  0  0  0
 19 20  2  0  0  0  0
 19 21  1  0  0  0  0
 20 22  1  0  0  0  0
 20 44  1  0  0  0  0
 21 23  2  0  0  0  0
 21 45  1  0  0  0  0
 22 24  1  0  0  0  0
 22 26  2  0  0  0  0
 23 24  1  0  0  0  0
 23 46  1  0  0  0  0
 24 27  2  0  0  0  0
 25 47  1  0  0  0  0
 25 48  1  0  0  0  0
 25 49  1  0  0  0  0
 26 28  1  0  0  0  0
 26 50  1  0  0  0  0
 27 29  1  0  0  0  0
 27 51  1  0  0  0  0
 28 29  2  0  0  0  0
 28 52  1  0  0  0  0
 29 53  1  0  0  0  0
M  END
> <PUBCHEM_COMPOUND_CID>
7143712

> <PUBCHEM_CONFORMER_RMSD>
0.8

> <PUBCHEM_CONFORMER_DIVERSEORDER>
1
18
21
20
25
10
12
17
8
11
23
3
15
22
4
7
24
13
16
2
19
14
9
26
5
6
27

> <PUBCHEM_MMFF94_PARTIAL_CHARGES>
34
1 -0.46
10 0.3
11 0.3
12 -0.03
13 -0.15
14 0.62
15 0.57
16 -0.01
17 -0.15
18 0.29
19 0.03
2 -0.57
20 -0.15
21 -0.15
23 -0.15
25 0.23
26 -0.15
27 -0.15
28 -0.15
29 -0.15
3 -0.57
4 -0.66
40 0.15
41 0.15
44 0.15
45 0.15
46 0.15
5 -0.47
50 0.15
51 0.15
52 0.15
53 0.15
7 0.14
9 0.3

> <PUBCHEM_EFFECTIVE_ROTOR_COUNT>
5

> <PUBCHEM_PHARMACOPHORE_FEATURES>
8
1 2 acceptor
1 25 hydrophobe
1 3 acceptor
6 19 20 21 22 23 24 rings
6 22 24 26 27 28 29 rings
6 4 6 7 8 9 11 rings
6 5 12 13 14 16 17 rings
6 5 6 7 8 10 12 rings

> <PUBCHEM_HEAVY_ATOM_COUNT>
29

> <PUBCHEM_ATOM_DEF_STEREO_COUNT>
2

> <PUBCHEM_ATOM_UDEF_STEREO_COUNT>
0

> <PUBCHEM_BOND_DEF_STEREO_COUNT>
0

> <PUBCHEM_BOND_UDEF_STEREO_COUNT>
0

> <PUBCHEM_ISOTOPIC_ATOM_COUNT>
0

> <PUBCHEM_COMPONENT_COUNT>
1

> <PUBCHEM_CACTVS_TAUTO_COUNT>
1

> <PUBCHEM_CONFORMER_ID>
006D012000000001

> <PUBCHEM_MMFF94_ENERGY>
84.1572

> <PUBCHEM_FEATURE_SELFOVERLAP>
42.189

> <PUBCHEM_SHAPE_FINGERPRINT>
10595046 47 18335698364608688334
11477941 20 18271230729270253069
11524674 6 11025789916581905545
11578080 2 17701278948627488583
12107183 9 17831856850784695386
12236239 1 18131077056420778562
12788726 201 18412821374313578218
13782708 43 13758085073976462934
14251764 38 18339647711659847364
14713325 29 18272094851278684443
15183329 4 18343021095323085622
15575132 122 18341337759931661404
15876981 60 18337675329612270325
16994733 274 15141781927686928471
17492 54 18265030472275827269
17844677 252 18334862705849148038
19438510 23 14852986384924911877
19958102 18 17418099797861430294
20101258 96 18050852414302258907
20775438 99 17047628378656621135
21033648 144 18127976523829466504
21033648 29 17749665324540531696
21236236 1 18334296465834616468
22907989 373 17988081080386032881
22956985 138 16817448973619187787
23522609 53 11886840665623624714
2838139 119 18260265274595281684
3493558 16 18041569142938867996
497634 4 17846505871850483163
5104073 3 16950558853195632906
5171179 24 17916293004252629289
5283173 99 18186516588392079184
531348 171 18343301427311507470
57527585 21 17843389701532420141
7237137 82 18131349721685835386

> <PUBCHEM_SHAPE_MULTIPOLES>
578.96
13.87
3.32
1.6
19.91
3.32
0.1
1.83
-3.89
-2.54
0.46
-1.67
0.17
-0.75

> <PUBCHEM_SHAPE_SELFOVERLAP>
1262.597

> <PUBCHEM_SHAPE_VOLUME>
316.6

> <PUBCHEM_COORDINATE_TYPE>
2
5
10

$$$$
