45784383
  -OEChem-12032416313D

 70 73  0     1  0  0  0  0  0999 V2000
   -0.4166    2.2952   -1.4710 O   0  0  0  0  0  0  0  0  0  0  0  0
   -5.2969    2.3034    0.7091 O   0  0  0  0  0  0  0  0  0  0  0  0
    4.8960   -2.0380   -1.1041 O   0  0  0  0  0  0  0  0  0  0  0  0
    4.1601   -0.1689    0.0537 N   0  0  0  0  0  0  0  0  0  0  0  0
   -4.7865    1.1802   -1.2549 N   0  0  0  0  0  0  0  0  0  0  0  0
    6.7231    0.5830    0.3819 N   0  0  0  0  0  0  0  0  0  0  0  0
    8.8661   -0.9102   -0.6401 N   0  0  0  0  0  0  0  0  0  0  0  0
    0.0188   -0.3865    1.2114 C   0  0  1  0  0  0  0  0  0  0  0  0
    0.3579    0.4669   -0.0560 C   0  0  2  0  0  0  0  0  0  0  0  0
    1.8867    0.8261   -0.0954 C   0  0  1  0  0  0  0  0  0  0  0  0
   -0.6157    1.6716   -0.2015 C   0  0  2  0  0  0  0  0  0  0  0  0
   -1.4660   -0.8175    1.1608 C   0  0  0  0  0  0  0  0  0  0  0  0
    0.8819   -1.6693    1.2012 C   0  0  0  0  0  0  0  0  0  0  0  0
   -2.1013    1.2455   -0.1466 C   0  0  1  0  0  0  0  0  0  0  0  0
    2.7458   -0.4679   -0.0293 C   0  0  2  0  0  0  0  0  0  0  0  0
   -2.4241    0.3618    1.0581 C   0  0  0  0  0  0  0  0  0  0  0  0
    2.3756   -1.3842    1.1367 C   0  0  0  0  0  0  0  0  0  0  0  0
    0.2684    0.3859    2.5315 C   0  0  0  0  0  0  0  0  0  0  0  0
   -3.0417    2.4570   -0.1600 C   0  0  2  0  0  0  0  0  0  0  0  0
    2.2959    1.6421   -1.3332 C   0  0  0  0  0  0  0  0  0  0  0  0
   -2.7535    3.3583    1.0355 C   0  0  0  0  0  0  0  0  0  0  0  0
   -4.4934    1.9883   -0.1661 C   0  0  0  0  0  0  0  0  0  0  0  0
    5.1247   -0.9935   -0.4999 C   0  0  0  0  0  0  0  0  0  0  0  0
    6.5324   -0.5606   -0.3056 C   0  0  0  0  0  0  0  0  0  0  0  0
   -6.0963    0.6131   -1.4769 C   0  0  0  0  0  0  0  0  0  0  0  0
    7.5850   -1.2939   -0.8077 C   0  0  0  0  0  0  0  0  0  0  0  0
   -6.2439   -0.7320   -0.8261 C   0  0  0  0  0  0  0  0  0  0  0  0
    8.0042    0.9667    0.5495 C   0  0  0  0  0  0  0  0  0  0  0  0
   -5.9117   -1.8884   -1.5315 C   0  0  0  0  0  0  0  0  0  0  0  0
   -6.7134   -0.8247    0.4839 C   0  0  0  0  0  0  0  0  0  0  0  0
    9.0568    0.2334    0.0474 C   0  0  0  0  0  0  0  0  0  0  0  0
   -6.0491   -3.1380   -0.9268 C   0  0  0  0  0  0  0  0  0  0  0  0
   -6.8508   -2.0742    1.0888 C   0  0  0  0  0  0  0  0  0  0  0  0
   -6.5187   -3.2308    0.3832 C   0  0  0  0  0  0  0  0  0  0  0  0
    0.1852   -0.1708   -0.9379 H   0  0  0  0  0  0  0  0  0  0  0  0
    2.1268    1.4503    0.7747 H   0  0  0  0  0  0  0  0  0  0  0  0
   -0.3567    2.4039    0.5649 H   0  0  0  0  0  0  0  0  0  0  0  0
   -1.7202   -1.4098    2.0493 H   0  0  0  0  0  0  0  0  0  0  0  0
   -1.6306   -1.4765    0.2975 H   0  0  0  0  0  0  0  0  0  0  0  0
    0.6716   -2.2760    2.0912 H   0  0  0  0  0  0  0  0  0  0  0  0
    0.6103   -2.2895    0.3363 H   0  0  0  0  0  0  0  0  0  0  0  0
   -2.2831    0.6436   -1.0471 H   0  0  0  0  0  0  0  0  0  0  0  0
    2.5790   -1.0296   -0.9589 H   0  0  0  0  0  0  0  0  0  0  0  0
   -3.4372   -0.0488    0.9803 H   0  0  0  0  0  0  0  0  0  0  0  0
   -2.3944    0.9087    2.0028 H   0  0  0  0  0  0  0  0  0  0  0  0
    2.7172   -0.9483    2.0834 H   0  0  0  0  0  0  0  0  0  0  0  0
    2.9130   -2.3370    1.0457 H   0  0  0  0  0  0  0  0  0  0  0  0
    1.3181    0.6554    2.6737 H   0  0  0  0  0  0  0  0  0  0  0  0
   -0.0236   -0.2234    3.3950 H   0  0  0  0  0  0  0  0  0  0  0  0
   -0.3001    1.3184    2.5853 H   0  0  0  0  0  0  0  0  0  0  0  0
   -2.8929    3.0400   -1.0780 H   0  0  0  0  0  0  0  0  0  0  0  0
    1.9053    2.6622   -1.2803 H   0  0  0  0  0  0  0  0  0  0  0  0
    3.3826    1.7502   -1.4112 H   0  0  0  0  0  0  0  0  0  0  0  0
    1.9431    1.1693   -2.2555 H   0  0  0  0  0  0  0  0  0  0  0  0
    4.4507    0.6459    0.5869 H   0  0  0  0  0  0  0  0  0  0  0  0
   -0.5897    1.6345   -2.1631 H   0  0  0  0  0  0  0  0  0  0  0  0
   -1.7575    3.8054    1.0067 H   0  0  0  0  0  0  0  0  0  0  0  0
   -3.4514    4.2059    1.0211 H   0  0  0  0  0  0  0  0  0  0  0  0
   -2.9015    2.8781    2.0055 H   0  0  0  0  0  0  0  0  0  0  0  0
   -4.0804    1.0082   -1.9632 H   0  0  0  0  0  0  0  0  0  0  0  0
   -6.2417    0.5334   -2.5603 H   0  0  0  0  0  0  0  0  0  0  0  0
   -6.8624    1.3036   -1.1046 H   0  0  0  0  0  0  0  0  0  0  0  0
    7.4503   -2.2145   -1.3631 H   0  0  0  0  0  0  0  0  0  0  0  0
    8.1581    1.8853    1.1018 H   0  0  0  0  0  0  0  0  0  0  0  0
   -5.5427   -1.8291   -2.5520 H   0  0  0  0  0  0  0  0  0  0  0  0
   -6.9789    0.0671    1.0448 H   0  0  0  0  0  0  0  0  0  0  0  0
   10.0859    0.5425    0.1825 H   0  0  0  0  0  0  0  0  0  0  0  0
   -5.7898   -4.0385   -1.4758 H   0  0  0  0  0  0  0  0  0  0  0  0
   -7.2167   -2.1466    2.1087 H   0  0  0  0  0  0  0  0  0  0  0  0
   -6.6255   -4.2036    0.8542 H   0  0  0  0  0  0  0  0  0  0  0  0
  1 11  1  0  0  0  0
  1 56  1  0  0  0  0
  2 22  2  0  0  0  0
  3 23  2  0  0  0  0
  4 15  1  0  0  0  0
  4 23  1  0  0  0  0
  4 55  1  0  0  0  0
  5 22  1  0  0  0  0
  5 25  1  0  0  0  0
  5 60  1  0  0  0  0
  6 24  2  0  0  0  0
  6 28  1  0  0  0  0
  7 26  2  0  0  0  0
  7 31  1  0  0  0  0
  8  9  1  0  0  0  0
  8 12  1  0  0  0  0
  8 13  1  0  0  0  0
  8 18  1  0  0  0  0
  9 10  1  0  0  0  0
  9 11  1  0  0  0  0
  9 35  1  0  0  0  0
 10 15  1  0  0  0  0
 10 20  1  0  0  0  0
 10 36  1  0  0  0  0
 11 14  1  0  0  0  0
 11 37  1  0  0  0  0
 12 16  1  0  0  0  0
 12 38  1  0  0  0  0
 12 39  1  0  0  0  0
 13 17  1  0  0  0  0
 13 40  1  0  0  0  0
 13 41  1  0  0  0  0
 14 16  1  0  0  0  0
 14 19  1  0  0  0  0
 14 42  1  0  0  0  0
 15 17  1  0  0  0  0
 15 43  1  0  0  0  0
 16 44  1  0  0  0  0
 16 45  1  0  0  0  0
 17 46  1  0  0  0  0
 17 47  1  0  0  0  0
 18 48  1  0  0  0  0
 18 49  1  0  0  0  0
 18 50  1  0  0  0  0
 19 21  1  0  0  0  0
 19 22  1  0  0  0  0
 19 51  1  0  0  0  0
 20 52  1  0  0  0  0
 20 53  1  0  0  0  0
 20 54  1  0  0  0  0
 21 57  1  0  0  0  0
 21 58  1  0  0  0  0
 21 59  1  0  0  0  0
 23 24  1  0  0  0  0
 24 26  1  0  0  0  0
 25 27  1  0  0  0  0
 25 61  1  0  0  0  0
 25 62  1  0  0  0  0
 26 63  1  0  0  0  0
 27 29  2  0  0  0  0
 27 30  1  0  0  0  0
 28 31  2  0  0  0  0
 28 64  1  0  0  0  0
 29 32  1  0  0  0  0
 29 65  1  0  0  0  0
 30 33  2  0  0  0  0
 30 66  1  0  0  0  0
 31 67  1  0  0  0  0
 32 34  2  0  0  0  0
 32 68  1  0  0  0  0
 33 34  1  0  0  0  0
 33 69  1  0  0  0  0
 34 70  1  0  0  0  0
M  END
> <PUBCHEM_COMPOUND_CID>
45784383

> <PUBCHEM_CONFORMER_RMSD>
1

> <PUBCHEM_CONFORMER_DIVERSEORDER>
2
110
36
115
90
87
134
74
101
44
35
23
107
122
95
7
81
123
41
25
135
92
109
89
118
128
1
131
14
76
136
46
70
88
5
112
124
73
108
133
49
138
77
91
52
66
75
12
60
62
85
127
86
83
97
137
28
96
15
132
125
50
26
126
80
61
129
63
8
98
79
27
71
121
53
56
100
17
114
64
104
69
106
16
130
102
51
111
45
67
42
72
84
33
59
6
99
31
11
20
119
40
47
55
103
39
48
78
105
37
10
3
116
21
120
43
65
93
117
4
68
32
38
113
29
54
13
57
18
24
30
34
82
58
9
94
19
22

> <PUBCHEM_MMFF94_PARTIAL_CHARGES>
34
1 -0.68
11 0.28
15 0.3
19 0.06
2 -0.57
22 0.57
23 0.54
24 0.4
25 0.44
26 0.16
27 -0.14
28 0.16
29 -0.15
3 -0.57
30 -0.15
31 0.16
32 -0.15
33 -0.15
34 -0.15
4 -0.73
5 -0.73
55 0.37
56 0.4
6 -0.62
60 0.37
63 0.15
64 0.15
65 0.15
66 0.15
67 0.15
68 0.15
69 0.15
7 -0.62
70 0.15

> <PUBCHEM_EFFECTIVE_ROTOR_COUNT>
9.6

> <PUBCHEM_PHARMACOPHORE_FEATURES>
13
1 1 acceptor
1 1 donor
1 2 acceptor
1 21 hydrophobe
1 3 acceptor
1 4 donor
1 5 donor
1 6 acceptor
1 7 acceptor
6 27 29 30 32 33 34 rings
6 6 7 24 26 28 31 rings
6 8 9 10 13 15 17 rings
6 8 9 11 12 14 16 rings

> <PUBCHEM_HEAVY_ATOM_COUNT>
34

> <PUBCHEM_ATOM_DEF_STEREO_COUNT>
6

> <PUBCHEM_ATOM_UDEF_STEREO_COUNT>
1

> <PUBCHEM_BOND_DEF_STEREO_COUNT>
0

> <PUBCHEM_BOND_UDEF_STEREO_COUNT>
0

> <PUBCHEM_ISOTOPIC_ATOM_COUNT>
0

> <PUBCHEM_COMPONENT_COUNT>
1

> <PUBCHEM_CACTVS_TAUTO_COUNT>
4

> <PUBCHEM_CONFORMER_ID>
02BA9D3F00000002

> <PUBCHEM_MMFF94_ENERGY>
98.0186

> <PUBCHEM_FEATURE_SELFOVERLAP>
65.991

> <PUBCHEM_SHAPE_FINGERPRINT>
10076449 9 18131353033100514866
10391435 84 18410845569324991949
10462385 53 18338811051899400555
10554248 39 16081372912943742394
10577160 183 15140950777519682016
11135926 11 16371010672236081193
11146851 88 8935006958620608631
117089 54 18192715768690461855
12082328 90 18201436939552883716
13422730 43 18261385655390073586
1361 4 18342174406386760062
13782708 43 18131348596394257107
13811026 1 18114181973469458184
13947947 19 17749117712179153580
14040221 310 17458339741621181437
14150023 24 12973598954870318304
14279260 333 18260544528742409643
14856354 85 14979948195059504429
150020 25 18412535518211781813
15183329 4 17095243614270019758
15289351 153 8430328913419592726
15301273 46 9943812192581665354
15461852 350 18410862057973401870
15728490 51 18411136944037757142
1577012 14 17895470332622250600
16112460 7 12175319440549146698
17686467 74 18341888611121225360
18335252 98 18273497866670387262
18608769 82 18342457045098465458
18681886 176 18334570273999187953
21150785 3 18412824673169973982
21792961 116 17346599643476345974
21795232 338 18201722851974746369
22288116 15 18260551129990631151
22393880 68 17821996620028556477
23569943 247 17903075526568572722
24771293 8 18259989250054084428
2838139 119 14273737343784343567
3383291 50 18260271879575112187
395649 100 18333732433307057835
4073 2 18129384813124459071
4169191 19 12468628409427678149
437795 160 18338785772443809746
437795 163 18333447651448037986
4625314 4 18340204098813719268
484989 97 18262241130769956579
5265222 85 17274809269175820820
54039377 194 18335143133497526931
57527295 17 16153693303499064509
6004065 56 18409730686378918452
6086070 43 15068626040642286325
6673363 416 18272093808082523816
6691757 9 16950575371776893008
9953998 17 17988649575833271121
999808 66 17989487420361724823

> <PUBCHEM_SHAPE_MULTIPOLES>
662.17
25.12
3.12
1.51
35.13
0.22
0.3
-12.7
-5.67
-6.39
-0.15
-1.04
-0.06
0.28

> <PUBCHEM_SHAPE_SELFOVERLAP>
1402.465

> <PUBCHEM_SHAPE_VOLUME>
365.4

> <PUBCHEM_COORDINATE_TYPE>
2
5
10

$$$$
