75536914
  -OEChem-12032416323D

 49 52  0     1  0  0  0  0  0999 V2000
    3.7965   -1.4446   -1.1225 O   0  0  0  0  0  0  0  0  0  0  0  0
    2.4597    1.7696    0.0681 O   0  0  0  0  0  0  0  0  0  0  0  0
    1.5253   -1.7513    0.6191 N   0  0  2  0  0  0  0  0  0  0  0  0
   -2.7447   -0.4101    1.3745 N   0  0  0  0  0  0  0  0  0  0  0  0
    1.9108   -0.3835    0.9650 C   0  0  0  0  0  0  0  0  0  0  0  0
    2.3761    0.3866   -0.2778 C   0  0  2  0  0  0  0  0  0  0  0  0
    0.4470   -2.2381    1.4803 C   0  0  0  0  0  0  0  0  0  0  0  0
    2.6338   -2.7123    0.6111 C   0  0  0  0  0  0  0  0  0  0  0  0
   -0.8667   -1.5745    1.1633 C   0  0  0  0  0  0  0  0  0  0  0  0
    3.7198   -0.0493   -0.8565 C   0  0  0  0  0  0  0  0  0  0  0  0
    3.9681   -2.2110    0.0635 C   0  0  0  0  0  0  0  0  0  0  0  0
   -1.5406   -1.5859   -0.0900 C   0  0  0  0  0  0  0  0  0  0  0  0
   -2.7157   -0.8483    0.0698 C   0  0  0  0  0  0  0  0  0  0  0  0
   -1.6316   -0.8439    2.0433 C   0  0  0  0  0  0  0  0  0  0  0  0
   -1.2627   -2.1545   -1.3488 C   0  0  0  0  0  0  0  0  0  0  0  0
   -3.6304   -0.6504   -0.9707 C   0  0  0  0  0  0  0  0  0  0  0  0
   -3.7916    0.3930    1.9686 C   0  0  0  0  0  0  0  0  0  0  0  0
    1.3120    2.5023   -0.0606 C   0  0  0  0  0  0  0  0  0  0  0  0
   -2.1685   -1.9647   -2.3988 C   0  0  0  0  0  0  0  0  0  0  0  0
   -3.3336   -1.2238   -2.2103 C   0  0  0  0  0  0  0  0  0  0  0  0
    0.6923    2.6150   -1.3052 C   0  0  0  0  0  0  0  0  0  0  0  0
    0.7612    3.1368    1.0527 C   0  0  0  0  0  0  0  0  0  0  0  0
   -0.4782    3.3622   -1.4365 C   0  0  0  0  0  0  0  0  0  0  0  0
   -0.4093    3.8840    0.9215 C   0  0  0  0  0  0  0  0  0  0  0  0
   -1.0289    3.9968   -0.3231 C   0  0  0  0  0  0  0  0  0  0  0  0
    2.6721   -0.3576    1.7563 H   0  0  0  0  0  0  0  0  0  0  0  0
    1.0641    0.1655    1.3926 H   0  0  0  0  0  0  0  0  0  0  0  0
    1.6271    0.2211   -1.0647 H   0  0  0  0  0  0  0  0  0  0  0  0
    0.2932   -3.3148    1.3225 H   0  0  0  0  0  0  0  0  0  0  0  0
    0.7005   -2.1122    2.5414 H   0  0  0  0  0  0  0  0  0  0  0  0
    2.3166   -3.5612   -0.0081 H   0  0  0  0  0  0  0  0  0  0  0  0
    2.8201   -3.1074    1.6187 H   0  0  0  0  0  0  0  0  0  0  0  0
    3.8738    0.4721   -1.8090 H   0  0  0  0  0  0  0  0  0  0  0  0
    4.5535    0.2701   -0.2177 H   0  0  0  0  0  0  0  0  0  0  0  0
    4.5278   -1.6527    0.8241 H   0  0  0  0  0  0  0  0  0  0  0  0
    4.5842   -3.0783   -0.1993 H   0  0  0  0  0  0  0  0  0  0  0  0
   -1.4722   -0.5989    3.0851 H   0  0  0  0  0  0  0  0  0  0  0  0
   -0.3611   -2.7373   -1.5144 H   0  0  0  0  0  0  0  0  0  0  0  0
   -4.5389   -0.0743   -0.8307 H   0  0  0  0  0  0  0  0  0  0  0  0
   -3.8502    1.3391    1.4244 H   0  0  0  0  0  0  0  0  0  0  0  0
   -4.7330   -0.1571    1.8941 H   0  0  0  0  0  0  0  0  0  0  0  0
   -3.5569    0.5843    3.0188 H   0  0  0  0  0  0  0  0  0  0  0  0
   -1.9596   -2.4013   -3.3718 H   0  0  0  0  0  0  0  0  0  0  0  0
   -4.0233   -1.0889   -3.0397 H   0  0  0  0  0  0  0  0  0  0  0  0
    1.1175    2.1437   -2.1872 H   0  0  0  0  0  0  0  0  0  0  0  0
    1.2389    3.0514    2.0249 H   0  0  0  0  0  0  0  0  0  0  0  0
   -0.9588    3.4530   -2.4062 H   0  0  0  0  0  0  0  0  0  0  0  0
   -0.8386    4.3774    1.7886 H   0  0  0  0  0  0  0  0  0  0  0  0
   -1.9402    4.5787   -0.4252 H   0  0  0  0  0  0  0  0  0  0  0  0
  1 10  1  0  0  0  0
  1 11  1  0  0  0  0
  2  6  1  0  0  0  0
  2 18  1  0  0  0  0
  3  5  1  0  0  0  0
  3  7  1  0  0  0  0
  3  8  1  0  0  0  0
  4 13  1  0  0  0  0
  4 14  1  0  0  0  0
  4 17  1  0  0  0  0
  5  6  1  0  0  0  0
  5 26  1  0  0  0  0
  5 27  1  0  0  0  0
  6 10  1  0  0  0  0
  6 28  1  0  0  0  0
  7  9  1  0  0  0  0
  7 29  1  0  0  0  0
  7 30  1  0  0  0  0
  8 11  1  0  0  0  0
  8 31  1  0  0  0  0
  8 32  1  0  0  0  0
  9 12  1  0  0  0  0
  9 14  2  0  0  0  0
 10 33  1  0  0  0  0
 10 34  1  0  0  0  0
 11 35  1  0  0  0  0
 11 36  1  0  0  0  0
 12 13  1  0  0  0  0
 12 15  2  0  0  0  0
 13 16  2  0  0  0  0
 14 37  1  0  0  0  0
 15 19  1  0  0  0  0
 15 38  1  0  0  0  0
 16 20  1  0  0  0  0
 16 39  1  0  0  0  0
 17 40  1  0  0  0  0
 17 41  1  0  0  0  0
 17 42  1  0  0  0  0
 18 21  2  0  0  0  0
 18 22  1  0  0  0  0
 19 20  2  0  0  0  0
 19 43  1  0  0  0  0
 20 44  1  0  0  0  0
 21 23  1  0  0  0  0
 21 45  1  0  0  0  0
 22 24  2  0  0  0  0
 22 46  1  0  0  0  0
 23 25  2  0  0  0  0
 23 47  1  0  0  0  0
 24 25  1  0  0  0  0
 24 48  1  0  0  0  0
 25 49  1  0  0  0  0
M  END
> <PUBCHEM_COMPOUND_CID>
75536914

> <PUBCHEM_CONFORMER_RMSD>
0.8

> <PUBCHEM_CONFORMER_DIVERSEORDER>
6
116
110
219
176
78
167
101
108
121
22
238
209
41
106
137
252
38
181
87
198
50
207
244
247
45
165
266
31
150
58
227
96
47
133
92
7
146
123
196
171
57
200
255
246
235
265
61
115
136
53
71
204
229
158
28
203
230
63
99
56
107
226
85
245
268
32
138
144
259
39
3
25
89
5
127
54
257
128
248
260
182
10
180
212
261
20
191
233
29
94
119
59
120
15
72
44
175
36
34
174
168
170
145
239
134
77
51
222
109
18
105
2
151
194
154
126
114
216
142
217
242
185
1
250
69
156
13
206
228
140
223
97
82
4
88
205
161
157
179
218
130
148
241
17
112
166
162
111
199
124
21
253
195
251
23
8
186
81
220
264
135
79
197
64
213
183
35
160
73
270
141
12
16
192
262
83
178
256
193
103
234
86
231
26
75
9
155
125
98
46
33
93
263
269
152
201
224
42
188
173
240
202
147
27
52
249
214
49
90
190
139
221
163
91
14
143
113
102
122
11
153
100
30
187
208
48
40
210
172
65
70
74
237
211
243
236
232
118
177
37
104
189
215
84
80
24
117
149
184
68
132
76
225
254
67
66
19
258
267
62
169
129
43
95
131
159
55
60
164

> <PUBCHEM_MMFF94_PARTIAL_CHARGES>
34
1 -0.56
10 0.28
11 0.28
13 -0.15
14 -0.3
15 -0.15
16 -0.15
17 0.26
18 0.08
19 -0.15
2 -0.36
20 -0.15
21 -0.15
22 -0.15
23 -0.15
24 -0.15
25 -0.15
3 -0.81
37 0.15
38 0.15
39 0.15
4 0.05
43 0.15
44 0.15
45 0.15
46 0.15
47 0.15
48 0.15
49 0.15
5 0.27
6 0.28
7 0.45
8 0.27
9 -0.18

> <PUBCHEM_EFFECTIVE_ROTOR_COUNT>
5.4

> <PUBCHEM_PHARMACOPHORE_FEATURES>
8
1 1 acceptor
1 2 acceptor
1 3 cation
1 4 cation
5 4 9 12 13 14 rings
6 12 13 15 16 19 20 rings
6 18 21 22 23 24 25 rings
7 1 3 5 6 8 10 11 rings

> <PUBCHEM_HEAVY_ATOM_COUNT>
25

> <PUBCHEM_ATOM_DEF_STEREO_COUNT>
1

> <PUBCHEM_ATOM_UDEF_STEREO_COUNT>
0

> <PUBCHEM_BOND_DEF_STEREO_COUNT>
0

> <PUBCHEM_BOND_UDEF_STEREO_COUNT>
0

> <PUBCHEM_ISOTOPIC_ATOM_COUNT>
0

> <PUBCHEM_COMPONENT_COUNT>
1

> <PUBCHEM_CACTVS_TAUTO_COUNT>
1

> <PUBCHEM_CONFORMER_ID>
04809A1200000006

> <PUBCHEM_MMFF94_ENERGY>
74.2193

> <PUBCHEM_FEATURE_SELFOVERLAP>
40.689

> <PUBCHEM_SHAPE_FINGERPRINT>
10165383 225 16816902481399805605
104564 63 18192159196076471144
11370993 70 17042298005950078013
11578080 2 17555136235446128034
12156800 1 16891947113691971721
12422481 6 17620788005799506233
12539773 59 17772220680107915489
12553582 1 18409174320214274610
12788726 201 18336830784723889426
128993 33 17033052186823268785
15210252 30 17822005411040927156
17138139 8 17473218173616951165
18219364 16 17824821393384025539
18981168 100 17393886584142395205
19930381 70 17831290976058583471
21197605 99 17905903474633075329
22749437 52 17184737538220943369
23419403 2 12056155370952435095
238 59 17687447379780585511
35225 105 17904193728938634836
3524813 1 17386012818083043363
5171179 24 18199729415881854696
6438718 38 17980768142629067538
7226269 152 18041558148544808848
81228 2 18261669264802298480
9981440 41 16974474639569699417

> <PUBCHEM_SHAPE_MULTIPOLES>
492.79
6.05
5.03
2.09
0.99
6.01
-0.22
-4.11
-1.09
1.42
-0.29
-2
-0.59
-0.92

> <PUBCHEM_SHAPE_SELFOVERLAP>
1064.133

> <PUBCHEM_SHAPE_VOLUME>
270.8

> <PUBCHEM_COORDINATE_TYPE>
2
5
10

$$$$
