75536064
  -OEChem-12032416293D

 46 48  0     1  0  0  0  0  0999 V2000
    1.1376    3.4900   -0.9002 O   0  0  0  0  0  0  0  0  0  0  0  0
    3.6401    2.3618   -0.9630 O   0  0  0  0  0  0  0  0  0  0  0  0
   -0.6077   -0.7767   -1.0857 O   0  0  0  0  0  0  0  0  0  0  0  0
   -0.2694    1.0186    0.3433 N   0  0  0  0  0  0  0  0  0  0  0  0
    2.3597   -3.3054    0.9365 N   0  0  0  0  0  0  0  0  0  0  0  0
   -3.4833   -0.4887   -0.6146 N   0  0  0  0  0  0  0  0  0  0  0  0
   -4.6802   -0.4511   -0.0044 N   0  0  0  0  0  0  0  0  0  0  0  0
    2.0562    0.4755    1.0006 C   0  0  2  0  0  0  0  0  0  0  0  0
    1.1208    1.2281    0.0274 C   0  0  2  0  0  0  0  0  0  0  0  0
    1.5308    2.6901    0.1989 C   0  0  1  0  0  0  0  0  0  0  0  0
    3.2843    1.3997    1.2057 C   0  0  0  0  0  0  0  0  0  0  0  0
    3.0489    2.6130    0.3082 C   0  0  1  0  0  0  0  0  0  0  0  0
    2.3990   -0.9224    0.5307 C   0  0  0  0  0  0  0  0  0  0  0  0
    3.0432   -1.1323   -0.6835 C   0  0  0  0  0  0  0  0  0  0  0  0
   -1.0282    0.0181   -0.2492 C   0  0  0  0  0  0  0  0  0  0  0  0
    2.0815   -2.0323    1.2968 C   0  0  0  0  0  0  0  0  0  0  0  0
   -2.4534   -0.0499    0.1646 C   0  0  0  0  0  0  0  0  0  0  0  0
    3.3462   -2.4276   -1.0886 C   0  0  0  0  0  0  0  0  0  0  0  0
    2.9865   -3.4702   -0.2499 C   0  0  0  0  0  0  0  0  0  0  0  0
   -3.0156    0.2994    1.3680 C   0  0  0  0  0  0  0  0  0  0  0  0
   -3.3991   -0.9675   -1.9749 C   0  0  0  0  0  0  0  0  0  0  0  0
   -4.3882    0.0311    1.2065 C   0  0  0  0  0  0  0  0  0  0  0  0
   -3.2474    0.1742   -2.9685 C   0  0  0  0  0  0  0  0  0  0  0  0
   -5.4621    0.2243    2.1952 C   0  0  0  0  0  0  0  0  0  0  0  0
    1.5578    0.3905    1.9776 H   0  0  0  0  0  0  0  0  0  0  0  0
    1.2723    0.9279   -1.0169 H   0  0  0  0  0  0  0  0  0  0  0  0
    1.0994    3.1136    1.1147 H   0  0  0  0  0  0  0  0  0  0  0  0
    3.3001    1.7249    2.2536 H   0  0  0  0  0  0  0  0  0  0  0  0
    4.2372    0.9012    0.9989 H   0  0  0  0  0  0  0  0  0  0  0  0
    3.4844    3.5341    0.7066 H   0  0  0  0  0  0  0  0  0  0  0  0
   -0.6940    1.6169    1.0457 H   0  0  0  0  0  0  0  0  0  0  0  0
    1.5126    4.3769   -0.7647 H   0  0  0  0  0  0  0  0  0  0  0  0
    4.5999    2.2832   -0.8283 H   0  0  0  0  0  0  0  0  0  0  0  0
    3.3208   -0.3034   -1.3268 H   0  0  0  0  0  0  0  0  0  0  0  0
    1.5777   -1.9359    2.2535 H   0  0  0  0  0  0  0  0  0  0  0  0
    3.8486   -2.6151   -2.0306 H   0  0  0  0  0  0  0  0  0  0  0  0
    3.2005   -4.4990   -0.5199 H   0  0  0  0  0  0  0  0  0  0  0  0
   -2.5107    0.6877    2.2411 H   0  0  0  0  0  0  0  0  0  0  0  0
   -2.5814   -1.6885   -2.0518 H   0  0  0  0  0  0  0  0  0  0  0  0
   -4.3217   -1.5194   -2.1918 H   0  0  0  0  0  0  0  0  0  0  0  0
   -4.0846    0.8763   -2.8908 H   0  0  0  0  0  0  0  0  0  0  0  0
   -3.2241   -0.2161   -3.9907 H   0  0  0  0  0  0  0  0  0  0  0  0
   -2.3242    0.7377   -2.8008 H   0  0  0  0  0  0  0  0  0  0  0  0
   -6.2131    0.9265    1.8187 H   0  0  0  0  0  0  0  0  0  0  0  0
   -5.9595   -0.7256    2.4170 H   0  0  0  0  0  0  0  0  0  0  0  0
   -5.0707    0.6251    3.1359 H   0  0  0  0  0  0  0  0  0  0  0  0
  1 10  1  0  0  0  0
  1 32  1  0  0  0  0
  2 12  1  0  0  0  0
  2 33  1  0  0  0  0
  3 15  2  0  0  0  0
  4  9  1  0  0  0  0
  4 15  1  0  0  0  0
  4 31  1  0  0  0  0
  5 16  1  0  0  0  0
  5 19  2  0  0  0  0
  6  7  1  0  0  0  0
  6 17  1  0  0  0  0
  6 21  1  0  0  0  0
  7 22  2  0  0  0  0
  8  9  1  0  0  0  0
  8 11  1  0  0  0  0
  8 13  1  0  0  0  0
  8 25  1  0  0  0  0
  9 10  1  0  0  0  0
  9 26  1  0  0  0  0
 10 12  1  0  0  0  0
 10 27  1  0  0  0  0
 11 12  1  0  0  0  0
 11 28  1  0  0  0  0
 11 29  1  0  0  0  0
 12 30  1  0  0  0  0
 13 14  1  0  0  0  0
 13 16  2  0  0  0  0
 14 18  2  0  0  0  0
 14 34  1  0  0  0  0
 15 17  1  0  0  0  0
 16 35  1  0  0  0  0
 17 20  2  0  0  0  0
 18 19  1  0  0  0  0
 18 36  1  0  0  0  0
 19 37  1  0  0  0  0
 20 22  1  0  0  0  0
 20 38  1  0  0  0  0
 21 23  1  0  0  0  0
 21 39  1  0  0  0  0
 21 40  1  0  0  0  0
 22 24  1  0  0  0  0
 23 41  1  0  0  0  0
 23 42  1  0  0  0  0
 23 43  1  0  0  0  0
 24 44  1  0  0  0  0
 24 45  1  0  0  0  0
 24 46  1  0  0  0  0
M  END
> <PUBCHEM_COMPOUND_CID>
75536064

> <PUBCHEM_CONFORMER_RMSD>
0.8

> <PUBCHEM_CONFORMER_DIVERSEORDER>
1
81
45
50
18
63
30
43
51
72
88
77
80
44
32
7
24
69
82
37
28
54
66
78
84
29
57
5
22
47
55
87
74
41
23
9
65
62
6
70
33
48
3
58
35
56
85
8
12
25
38
83
46
61
19
76
89
4
40
21
13
49
67
39
31
11
52
79
53
15
27
73
16
71
60
26
14
10
68
86
2
17
59
42
64
20
36
34
75

> <PUBCHEM_MMFF94_PARTIAL_CHARGES>
30
1 -0.68
10 0.28
12 0.28
13 -0.14
14 -0.15
15 0.71
16 0.16
17 -0.24
18 -0.15
19 0.16
2 -0.68
20 -0.15
21 0.26
22 0.11
24 0.18
3 -0.57
31 0.37
32 0.4
33 0.4
34 0.15
35 0.15
36 0.15
37 0.15
38 0.15
4 -0.73
5 -0.62
6 0.31
7 -0.71
8 0.14
9 0.3

> <PUBCHEM_EFFECTIVE_ROTOR_COUNT>
6

> <PUBCHEM_PHARMACOPHORE_FEATURES>
11
1 1 acceptor
1 1 donor
1 2 acceptor
1 2 donor
1 3 acceptor
1 4 donor
1 5 acceptor
1 7 acceptor
5 6 7 17 20 22 rings
5 8 9 10 11 12 rings
6 5 13 14 16 18 19 rings

> <PUBCHEM_HEAVY_ATOM_COUNT>
24

> <PUBCHEM_ATOM_DEF_STEREO_COUNT>
4

> <PUBCHEM_ATOM_UDEF_STEREO_COUNT>
0

> <PUBCHEM_BOND_DEF_STEREO_COUNT>
0

> <PUBCHEM_BOND_UDEF_STEREO_COUNT>
0

> <PUBCHEM_ISOTOPIC_ATOM_COUNT>
0

> <PUBCHEM_COMPONENT_COUNT>
1

> <PUBCHEM_CACTVS_TAUTO_COUNT>
2

> <PUBCHEM_CONFORMER_ID>
048096C000000001

> <PUBCHEM_MMFF94_ENERGY>
53.1498

> <PUBCHEM_FEATURE_SELFOVERLAP>
55.834

> <PUBCHEM_SHAPE_FINGERPRINT>
10369192 42 17606696969805353788
10382601 240 18341885308264312506
11140007 195 16486418651071893006
12107183 9 17983310226977714881
12160290 23 17115211582780340616
12553582 1 18268145353687794822
13533116 47 18342740741438483675
14178342 30 17984687068421795602
14844126 61 17257068386858549874
15806764 133 17822009779370592685
15842332 3 17846489370585956607
17138139 8 16978956188803434542
17818456 19 17630896993204717385
1813 80 18127700326808958734
20511986 3 17703497870451199017
20645477 70 18336250306460307127
20739085 24 18270973353175132881
21421861 104 18342462508623959544
2255824 54 18412545427086377410
23557571 272 16153699916740586260
23559900 14 15358522052630321307
23598291 2 18131348605110357111
25147074 1 17775281682025254919
3060560 45 18264765644360188716
312423 11 17989201564645206503
3421961 26 18338805515685639802
474 4 18338795752977068872
59025328 239 17766794499661100373
6049 1 17676202447072990365
621550 5 17605011229579863757
633830 44 18056768851589505556
7097593 13 18272368672433581129
7615 1 17703494563373314511
8272917 22 18409738390790397449

> <PUBCHEM_SHAPE_MULTIPOLES>
456.38
9.41
3.55
1.95
10.87
0.02
0.83
-1.66
-1.84
-6.56
0.31
2.67
-0.24
-0.78

> <PUBCHEM_SHAPE_SELFOVERLAP>
971.295

> <PUBCHEM_SHAPE_VOLUME>
254.5

> <PUBCHEM_COORDINATE_TYPE>
2
5
10

$$$$
