45361617
  -OEChem-12032416203D

 70 73  0     1  0  0  0  0  0999 V2000
    0.4114   -2.3042   -1.4520 O   0  0  0  0  0  0  0  0  0  0  0  0
    5.2936   -2.2903    0.7240 O   0  0  0  0  0  0  0  0  0  0  0  0
   -4.8994    2.0348   -1.1280 O   0  0  0  0  0  0  0  0  0  0  0  0
   -4.1631    0.1781    0.0494 N   0  0  0  0  0  0  0  0  0  0  0  0
    4.7819   -1.1885   -1.2518 N   0  0  0  0  0  0  0  0  0  0  0  0
   -6.7053   -0.5747    0.3924 N   0  0  0  0  0  0  0  0  0  0  0  0
    7.1429    2.0801    0.9439 N   0  0  0  0  0  0  0  0  0  0  0  0
   -0.0208    0.4067    1.2012 C   0  0  1  0  0  0  0  0  0  0  0  0
   -0.3613   -0.4602   -0.0564 C   0  0  2  0  0  0  0  0  0  0  0  0
   -1.8902   -0.8193   -0.0906 C   0  0  1  0  0  0  0  0  0  0  0  0
    0.6119   -1.6668   -0.1896 C   0  0  2  0  0  0  0  0  0  0  0  0
    1.4641    0.8367    1.1449 C   0  0  0  0  0  0  0  0  0  0  0  0
   -0.8834    1.6897    1.1777 C   0  0  0  0  0  0  0  0  0  0  0  0
    2.0977   -1.2407   -0.1406 C   0  0  1  0  0  0  0  0  0  0  0  0
   -2.7488    0.4756   -0.0379 C   0  0  2  0  0  0  0  0  0  0  0  0
    2.4218   -0.3440    1.0542 C   0  0  0  0  0  0  0  0  0  0  0  0
   -2.3772    1.4045    1.1177 C   0  0  0  0  0  0  0  0  0  0  0  0
   -0.2695   -0.3510    2.5300 C   0  0  0  0  0  0  0  0  0  0  0  0
    3.0375   -2.4526   -0.1415 C   0  0  2  0  0  0  0  0  0  0  0  0
   -2.3007   -1.6487   -1.3191 C   0  0  0  0  0  0  0  0  0  0  0  0
    2.7501   -3.3406    1.0641 C   0  0  0  0  0  0  0  0  0  0  0  0
    4.4894   -1.9845   -0.1539 C   0  0  0  0  0  0  0  0  0  0  0  0
   -5.1279    0.9969   -0.5121 C   0  0  0  0  0  0  0  0  0  0  0  0
   -6.5357    0.5666   -0.3121 C   0  0  0  0  0  0  0  0  0  0  0  0
    6.0917   -0.6243   -1.4812 C   0  0  0  0  0  0  0  0  0  0  0  0
   -7.5763    1.3175   -0.8348 C   0  0  0  0  0  0  0  0  0  0  0  0
    6.2402    0.7277   -0.8453 C   0  0  0  0  0  0  0  0  0  0  0  0
   -8.8745    0.8681   -0.6207 C   0  0  0  0  0  0  0  0  0  0  0  0
   -7.9812   -0.9802    0.5802 C   0  0  0  0  0  0  0  0  0  0  0  0
    5.6470    1.8530   -1.4066 C   0  0  0  0  0  0  0  0  0  0  0  0
    6.9714    0.8931    0.3201 C   0  0  0  0  0  0  0  0  0  0  0  0
   -9.0895   -0.3018    0.0994 C   0  0  0  0  0  0  0  0  0  0  0  0
    5.8008    3.0918   -0.7940 C   0  0  0  0  0  0  0  0  0  0  0  0
    6.5514    3.1514    0.3691 C   0  0  0  0  0  0  0  0  0  0  0  0
   -0.1891    0.1678   -0.9454 H   0  0  0  0  0  0  0  0  0  0  0  0
   -2.1297   -1.4339    0.7864 H   0  0  0  0  0  0  0  0  0  0  0  0
    0.3532   -2.3906    0.5851 H   0  0  0  0  0  0  0  0  0  0  0  0
    1.7193    1.4385    2.0267 H   0  0  0  0  0  0  0  0  0  0  0  0
    1.6283    1.4862    0.2743 H   0  0  0  0  0  0  0  0  0  0  0  0
   -0.6721    2.3061    2.0608 H   0  0  0  0  0  0  0  0  0  0  0  0
   -0.6124    2.3004    0.3059 H   0  0  0  0  0  0  0  0  0  0  0  0
    2.2790   -0.6488   -1.0477 H   0  0  0  0  0  0  0  0  0  0  0  0
   -2.5826    1.0270   -0.9738 H   0  0  0  0  0  0  0  0  0  0  0  0
    3.4352    0.0654    0.9711 H   0  0  0  0  0  0  0  0  0  0  0  0
    2.3926   -0.8805    2.0048 H   0  0  0  0  0  0  0  0  0  0  0  0
   -2.7182    0.9791    2.0694 H   0  0  0  0  0  0  0  0  0  0  0  0
   -2.9144    2.3564    1.0167 H   0  0  0  0  0  0  0  0  0  0  0  0
   -1.3191   -0.6186    2.6760 H   0  0  0  0  0  0  0  0  0  0  0  0
    0.0234    0.2676    3.3866 H   0  0  0  0  0  0  0  0  0  0  0  0
    0.2988   -1.2830    2.5936 H   0  0  0  0  0  0  0  0  0  0  0  0
    2.8878   -3.0456   -1.0529 H   0  0  0  0  0  0  0  0  0  0  0  0
   -1.9104   -2.6682   -1.2555 H   0  0  0  0  0  0  0  0  0  0  0  0
   -3.3875   -1.7572   -1.3950 H   0  0  0  0  0  0  0  0  0  0  0  0
   -1.9486   -1.1860   -2.2468 H   0  0  0  0  0  0  0  0  0  0  0  0
   -4.4534   -0.6308    0.5917 H   0  0  0  0  0  0  0  0  0  0  0  0
    0.5842   -1.6512   -2.1514 H   0  0  0  0  0  0  0  0  0  0  0  0
    1.7539   -3.7877    1.0411 H   0  0  0  0  0  0  0  0  0  0  0  0
    3.4477   -4.1885    1.0584 H   0  0  0  0  0  0  0  0  0  0  0  0
    2.8991   -2.8499    2.0287 H   0  0  0  0  0  0  0  0  0  0  0  0
    4.0753   -1.0248   -1.9617 H   0  0  0  0  0  0  0  0  0  0  0  0
    6.2347   -0.5447   -2.5648 H   0  0  0  0  0  0  0  0  0  0  0  0
    6.8547   -1.3165   -1.1065 H   0  0  0  0  0  0  0  0  0  0  0  0
   -7.4096    2.2298   -1.3973 H   0  0  0  0  0  0  0  0  0  0  0  0
   -9.7174    1.4283   -1.0143 H   0  0  0  0  0  0  0  0  0  0  0  0
   -8.0949   -1.8980    1.1477 H   0  0  0  0  0  0  0  0  0  0  0  0
    5.0626    1.7756   -2.3193 H   0  0  0  0  0  0  0  0  0  0  0  0
    7.4567    0.0531    0.8076 H   0  0  0  0  0  0  0  0  0  0  0  0
  -10.0928   -0.6709    0.2784 H   0  0  0  0  0  0  0  0  0  0  0  0
    5.3469    3.9823   -1.2134 H   0  0  0  0  0  0  0  0  0  0  0  0
    6.7012    4.0938    0.8857 H   0  0  0  0  0  0  0  0  0  0  0  0
  1 11  1  0  0  0  0
  1 56  1  0  0  0  0
  2 22  2  0  0  0  0
  3 23  2  0  0  0  0
  4 15  1  0  0  0  0
  4 23  1  0  0  0  0
  4 55  1  0  0  0  0
  5 22  1  0  0  0  0
  5 25  1  0  0  0  0
  5 60  1  0  0  0  0
  6 24  1  0  0  0  0
  6 29  2  0  0  0  0
  7 31  1  0  0  0  0
  7 34  2  0  0  0  0
  8  9  1  0  0  0  0
  8 12  1  0  0  0  0
  8 13  1  0  0  0  0
  8 18  1  0  0  0  0
  9 10  1  0  0  0  0
  9 11  1  0  0  0  0
  9 35  1  0  0  0  0
 10 15  1  0  0  0  0
 10 20  1  0  0  0  0
 10 36  1  0  0  0  0
 11 14  1  0  0  0  0
 11 37  1  0  0  0  0
 12 16  1  0  0  0  0
 12 38  1  0  0  0  0
 12 39  1  0  0  0  0
 13 17  1  0  0  0  0
 13 40  1  0  0  0  0
 13 41  1  0  0  0  0
 14 16  1  0  0  0  0
 14 19  1  0  0  0  0
 14 42  1  0  0  0  0
 15 17  1  0  0  0  0
 15 43  1  0  0  0  0
 16 44  1  0  0  0  0
 16 45  1  0  0  0  0
 17 46  1  0  0  0  0
 17 47  1  0  0  0  0
 18 48  1  0  0  0  0
 18 49  1  0  0  0  0
 18 50  1  0  0  0  0
 19 21  1  0  0  0  0
 19 22  1  0  0  0  0
 19 51  1  0  0  0  0
 20 52  1  0  0  0  0
 20 53  1  0  0  0  0
 20 54  1  0  0  0  0
 21 57  1  0  0  0  0
 21 58  1  0  0  0  0
 21 59  1  0  0  0  0
 23 24  1  0  0  0  0
 24 26  2  0  0  0  0
 25 27  1  0  0  0  0
 25 61  1  0  0  0  0
 25 62  1  0  0  0  0
 26 28  1  0  0  0  0
 26 63  1  0  0  0  0
 27 30  1  0  0  0  0
 27 31  2  0  0  0  0
 28 32  2  0  0  0  0
 28 64  1  0  0  0  0
 29 32  1  0  0  0  0
 29 65  1  0  0  0  0
 30 33  2  0  0  0  0
 30 66  1  0  0  0  0
 31 67  1  0  0  0  0
 32 68  1  0  0  0  0
 33 34  1  0  0  0  0
 33 69  1  0  0  0  0
 34 70  1  0  0  0  0
M  END
> <PUBCHEM_COMPOUND_CID>
45361617

> <PUBCHEM_CONFORMER_RMSD>
1

> <PUBCHEM_CONFORMER_DIVERSEORDER>
1
30
194
171
208
224
95
2
58
245
198
167
153
174
196
49
207
116
212
139
31
201
274
86
44
41
240
50
117
105
151
48
253
247
82
114
112
214
106
268
47
160
89
225
221
145
91
244
129
69
18
68
269
25
120
131
5
170
229
178
79
199
237
57
226
189
21
219
260
248
104
140
108
164
259
73
185
75
54
235
142
124
184
127
262
163
138
141
200
113
159
251
158
133
77
233
118
272
220
250
101
242
191
186
27
257
102
273
271
122
135
28
241
143
183
155
266
40
60
210
181
211
42
32
134
205
56
125
33
10
222
98
94
45
51
144
147
258
59
270
275
36
96
148
83
182
52
37
190
130
246
162
193
100
204
46
17
78
263
92
165
93
169
103
172
157
81
166
264
187
173
177
150
63
90
276
111
179
243
107
176
61
203
161
71
72
168
76
188
249
236
175
65
256
26
110
152
209
123
121
232
136
137
22
213
16
24
238
35
252
223
29
197
84
119
67
43
9
230
216
126
53
267
132
97
15
4
62
3
154
265
6
34
239
228
39
254
180
8
38
109
192
14
13
66
19
20
70
261
202
11
74
149
128
218
64
55
255
234
80
87
99
23
85
206
115
88
7
227
156
195
12
231
217
215
146

> <PUBCHEM_MMFF94_PARTIAL_CHARGES>
34
1 -0.68
11 0.28
15 0.3
19 0.06
2 -0.57
22 0.57
23 0.54
24 0.4
25 0.44
26 -0.15
27 -0.14
28 -0.15
29 0.16
3 -0.57
30 -0.15
31 0.16
32 -0.15
33 -0.15
34 0.16
4 -0.73
5 -0.73
55 0.37
56 0.4
6 -0.62
60 0.37
63 0.15
64 0.15
65 0.15
66 0.15
67 0.15
68 0.15
69 0.15
7 -0.62
70 0.15

> <PUBCHEM_EFFECTIVE_ROTOR_COUNT>
9.6

> <PUBCHEM_PHARMACOPHORE_FEATURES>
13
1 1 acceptor
1 1 donor
1 2 acceptor
1 21 hydrophobe
1 3 acceptor
1 4 donor
1 5 donor
1 6 acceptor
1 7 acceptor
6 6 24 26 28 29 32 rings
6 7 27 30 31 33 34 rings
6 8 9 10 13 15 17 rings
6 8 9 11 12 14 16 rings

> <PUBCHEM_HEAVY_ATOM_COUNT>
34

> <PUBCHEM_ATOM_DEF_STEREO_COUNT>
6

> <PUBCHEM_ATOM_UDEF_STEREO_COUNT>
1

> <PUBCHEM_BOND_DEF_STEREO_COUNT>
0

> <PUBCHEM_BOND_UDEF_STEREO_COUNT>
0

> <PUBCHEM_ISOTOPIC_ATOM_COUNT>
0

> <PUBCHEM_COMPONENT_COUNT>
1

> <PUBCHEM_CACTVS_TAUTO_COUNT>
4

> <PUBCHEM_CONFORMER_ID>
02B429D100000001

> <PUBCHEM_MMFF94_ENERGY>
96.514

> <PUBCHEM_FEATURE_SELFOVERLAP>
65.988

> <PUBCHEM_SHAPE_FINGERPRINT>
10391435 84 17748830748366386499
10533779 47 10015587250923572661
10673678 19 18411985758482657030
10677351 14 18342167874916999645
10816530 90 18060412552041153888
10906281 52 17774453698066739203
11007060 377 18334304149952927417
11135609 187 18197498631190576936
11211813 74 18409727353088859253
13150687 139 18059868272880326206
13165053 68 18118127102952929847
13617811 41 16343706526043577280
13947947 19 17703781553552432855
14117953 113 18409738379082317812
14251757 52 18407758140257504381
14675020 138 15430036539357902866
150020 25 18336273391698662983
15183329 4 17203608181758215493
15361156 5 18341610439469730935
15840311 113 18409451379991018446
15890870 6 18336269042105171636
16120349 18 18335416868035322053
16992787 43 18130790087685069889
16994733 274 17676487207874184589
17324776 126 15190266992662310900
17686467 74 18041000657764099445
18608769 82 18339361967775827211
19319366 153 18412258407370886398
20157964 124 18408605851470555556
20554085 129 16443063902371270152
20715895 44 18410011079282125364
21049683 118 17895468233290916610
21049683 271 18344145904208599481
21150785 3 18408324372093317573
21267235 1 17774721957249732019
21521721 280 18411424999004916995
21781055 127 15267080155242764035
22149856 69 17345761772059822131
23522609 53 17630912450554749497
23569914 2 17099697727031986956
3044373 193 17385444315422184516
34797466 226 18060425690214360462
3552219 110 17846228743745017977
4073 2 18260550039681056467
4098825 35 18334856130348857919
4149490 64 18260265240020032602
44317340 157 18342458153859437118
4625314 4 18336549326494947335
5109719 28 18188501266899279640
5265222 85 18411699903125010087
9831232 110 11887676160867867436

> <PUBCHEM_SHAPE_MULTIPOLES>
662.17
25.4
3.08
1.47
33.87
0.15
0.32
-12.03
-5.65
-6.33
-0.11
-0.82
0.01
0.35

> <PUBCHEM_SHAPE_SELFOVERLAP>
1402.711

> <PUBCHEM_SHAPE_VOLUME>
364.2

> <PUBCHEM_COORDINATE_TYPE>
2
5
10

$$$$
