75536105
  -OEChem-12032416293D

 49 51  0     1  0  0  0  0  0999 V2000
   -3.8769    2.6518   -1.0522 F   0  0  0  0  0  0  0  0  0  0  0  0
   -4.3347    2.7088    1.0669 F   0  0  0  0  0  0  0  0  0  0  0  0
   -5.8769    2.1519   -0.3609 F   0  0  0  0  0  0  0  0  0  0  0  0
    0.8501   -3.9462    0.9471 O   0  0  0  0  0  0  0  0  0  0  0  0
    3.4745   -3.1545    1.0542 O   0  0  0  0  0  0  0  0  0  0  0  0
    4.0207    4.0036    0.3159 O   0  0  0  0  0  0  0  0  0  0  0  0
   -0.1993   -1.3747   -0.3861 N   0  0  0  0  0  0  0  0  0  0  0  0
    1.1714   -1.7503   -0.0579 C   0  0  2  0  0  0  0  0  0  0  0  0
    2.1901   -1.1750   -1.0682 C   0  0  2  0  0  0  0  0  0  0  0  0
    1.3871   -3.2594   -0.1672 C   0  0  1  0  0  0  0  0  0  0  0  0
    3.3152   -2.2398   -1.1737 C   0  0  0  0  0  0  0  0  0  0  0  0
    2.9073   -3.3762   -0.2339 C   0  0  1  0  0  0  0  0  0  0  0  0
    2.6796    0.2089   -0.6989 C   0  0  0  0  0  0  0  0  0  0  0  0
   -1.0679   -1.5151    0.7741 C   0  0  0  0  0  0  0  0  0  0  0  0
    3.3226    0.4182    0.5211 C   0  0  0  0  0  0  0  0  0  0  0  0
    2.4873    1.2748   -1.5778 C   0  0  0  0  0  0  0  0  0  0  0  0
   -2.4913   -1.1403    0.4573 C   0  0  0  0  0  0  0  0  0  0  0  0
    3.7737    1.6933    0.8619 C   0  0  0  0  0  0  0  0  0  0  0  0
    2.9383    2.5500   -1.2370 C   0  0  0  0  0  0  0  0  0  0  0  0
    3.5815    2.7592   -0.0170 C   0  0  0  0  0  0  0  0  0  0  0  0
   -2.8506    0.2029    0.3444 C   0  0  0  0  0  0  0  0  0  0  0  0
   -3.4506   -2.1367    0.2765 C   0  0  0  0  0  0  0  0  0  0  0  0
   -4.1694    0.5495    0.0507 C   0  0  0  0  0  0  0  0  0  0  0  0
   -4.7693   -1.7898   -0.0171 C   0  0  0  0  0  0  0  0  0  0  0  0
   -5.1288   -0.4467   -0.1299 C   0  0  0  0  0  0  0  0  0  0  0  0
   -4.5538    1.9854   -0.0707 C   0  0  0  0  0  0  0  0  0  0  0  0
    4.6702    4.1466    1.5784 C   0  0  0  0  0  0  0  0  0  0  0  0
    1.4056   -1.4163    0.9614 H   0  0  0  0  0  0  0  0  0  0  0  0
    1.7195   -1.1237   -2.0614 H   0  0  0  0  0  0  0  0  0  0  0  0
    0.9332   -3.6571   -1.0842 H   0  0  0  0  0  0  0  0  0  0  0  0
    3.3412   -2.6143   -2.2047 H   0  0  0  0  0  0  0  0  0  0  0  0
    4.3085   -1.8423   -0.9404 H   0  0  0  0  0  0  0  0  0  0  0  0
    3.2342   -4.3605   -0.5817 H   0  0  0  0  0  0  0  0  0  0  0  0
   -0.2134   -0.4008   -0.6902 H   0  0  0  0  0  0  0  0  0  0  0  0
   -0.7226   -0.8773    1.5988 H   0  0  0  0  0  0  0  0  0  0  0  0
   -1.0649   -2.5398    1.1575 H   0  0  0  0  0  0  0  0  0  0  0  0
    1.1103   -4.8796    0.8668 H   0  0  0  0  0  0  0  0  0  0  0  0
    4.4414   -3.1874    0.9561 H   0  0  0  0  0  0  0  0  0  0  0  0
    3.4904   -0.3977    1.2177 H   0  0  0  0  0  0  0  0  0  0  0  0
    1.9874    1.1282   -2.5314 H   0  0  0  0  0  0  0  0  0  0  0  0
    4.2664    1.7851    1.8239 H   0  0  0  0  0  0  0  0  0  0  0  0
    2.7853    3.3765   -1.9255 H   0  0  0  0  0  0  0  0  0  0  0  0
   -2.1048    0.9817    0.4856 H   0  0  0  0  0  0  0  0  0  0  0  0
   -3.1850   -3.1872    0.3589 H   0  0  0  0  0  0  0  0  0  0  0  0
   -5.5162   -2.5656   -0.1585 H   0  0  0  0  0  0  0  0  0  0  0  0
   -6.1612   -0.1981   -0.3593 H   0  0  0  0  0  0  0  0  0  0  0  0
    4.9531    5.1995    1.6788 H   0  0  0  0  0  0  0  0  0  0  0  0
    5.5949    3.5613    1.6238 H   0  0  0  0  0  0  0  0  0  0  0  0
    3.9925    3.9173    2.4078 H   0  0  0  0  0  0  0  0  0  0  0  0
  1 26  1  0  0  0  0
  2 26  1  0  0  0  0
  3 26  1  0  0  0  0
  4 10  1  0  0  0  0
  4 37  1  0  0  0  0
  5 12  1  0  0  0  0
  5 38  1  0  0  0  0
  6 20  1  0  0  0  0
  6 27  1  0  0  0  0
  7  8  1  0  0  0  0
  7 14  1  0  0  0  0
  7 34  1  0  0  0  0
  8  9  1  0  0  0  0
  8 10  1  0  0  0  0
  8 28  1  0  0  0  0
  9 11  1  0  0  0  0
  9 13  1  0  0  0  0
  9 29  1  0  0  0  0
 10 12  1  0  0  0  0
 10 30  1  0  0  0  0
 11 12  1  0  0  0  0
 11 31  1  0  0  0  0
 11 32  1  0  0  0  0
 12 33  1  0  0  0  0
 13 15  2  0  0  0  0
 13 16  1  0  0  0  0
 14 17  1  0  0  0  0
 14 35  1  0  0  0  0
 14 36  1  0  0  0  0
 15 18  1  0  0  0  0
 15 39  1  0  0  0  0
 16 19  2  0  0  0  0
 16 40  1  0  0  0  0
 17 21  2  0  0  0  0
 17 22  1  0  0  0  0
 18 20  2  0  0  0  0
 18 41  1  0  0  0  0
 19 20  1  0  0  0  0
 19 42  1  0  0  0  0
 21 23  1  0  0  0  0
 21 43  1  0  0  0  0
 22 24  2  0  0  0  0
 22 44  1  0  0  0  0
 23 25  2  0  0  0  0
 23 26  1  0  0  0  0
 24 25  1  0  0  0  0
 24 45  1  0  0  0  0
 25 46  1  0  0  0  0
 27 47  1  0  0  0  0
 27 48  1  0  0  0  0
 27 49  1  0  0  0  0
M  END
> <PUBCHEM_COMPOUND_CID>
75536105

> <PUBCHEM_CONFORMER_RMSD>
0.8

> <PUBCHEM_CONFORMER_DIVERSEORDER>
1
19
98
40
85
79
60
92
35
63
45
9
86
75
34
13
97
95
89
53
81
29
50
74
31
10
94
55
99
17
27
58
78
7
100
43
93
56
33
41
73
32
23
6
38
30
25
67
84
49
83
76
15
2
87
66
26
69
28
51
82
72
52
8
96
90
102
16
57
80
37
39
11
65
18
5
44
3
20
88
77
91
61
62
59
70
101
46
22
71
4
24
21
64
54
103
42
14
36
47
48
12
68

> <PUBCHEM_MMFF94_PARTIAL_CHARGES>
37
1 -0.34
10 0.28
12 0.28
13 -0.14
14 0.41
15 -0.15
16 -0.15
17 -0.14
18 -0.15
19 -0.15
2 -0.34
20 0.08
21 -0.15
22 -0.15
23 -0.14
24 -0.15
25 -0.15
26 1.16
27 0.28
3 -0.34
34 0.36
37 0.4
38 0.4
39 0.15
4 -0.68
40 0.15
41 0.15
42 0.15
43 0.15
44 0.15
45 0.15
46 0.15
5 -0.68
6 -0.36
7 -0.9
8 0.27
9 0.14

> <PUBCHEM_EFFECTIVE_ROTOR_COUNT>
7

> <PUBCHEM_PHARMACOPHORE_FEATURES>
10
1 4 acceptor
1 4 donor
1 5 acceptor
1 5 donor
1 6 acceptor
1 7 cation
1 7 donor
5 8 9 10 11 12 rings
6 13 15 16 18 19 20 rings
6 17 21 22 23 24 25 rings

> <PUBCHEM_HEAVY_ATOM_COUNT>
27

> <PUBCHEM_ATOM_DEF_STEREO_COUNT>
4

> <PUBCHEM_ATOM_UDEF_STEREO_COUNT>
0

> <PUBCHEM_BOND_DEF_STEREO_COUNT>
0

> <PUBCHEM_BOND_UDEF_STEREO_COUNT>
0

> <PUBCHEM_ISOTOPIC_ATOM_COUNT>
0

> <PUBCHEM_COMPONENT_COUNT>
1

> <PUBCHEM_CACTVS_TAUTO_COUNT>
1

> <PUBCHEM_CONFORMER_ID>
048096E900000001

> <PUBCHEM_MMFF94_ENERGY>
78.8455

> <PUBCHEM_FEATURE_SELFOVERLAP>
50.757

> <PUBCHEM_SHAPE_FINGERPRINT>
10074138 170 17546142556859093832
10439779 11 18122055408310303224
10670039 82 18117295833038069180
11405975 8 18337397024401018931
12549972 3 17750256762416332074
12633257 1 16226881315126457472
12769317 202 18273210936890051600
12788726 201 16745941161249281842
12925494 130 18336550417970593249
13878862 14 18115574943027407381
13965767 371 18114730651257013660
14251764 38 18410293609939563075
14468879 13 18189063151615954883
14848178 96 18408890624560299365
14849402 71 18407763629842926058
16988056 13 18268150864494254756
17844677 252 18338244778094413451
17868525 174 18118119173873309498
18681886 176 18270679749544205002
19053607 189 18261674873745419941
20238998 120 18197219136409950406
20567600 299 18266182733805371542
21133410 127 17967817153917054117
21304253 13 18338509734901294882
21315764 268 18263078826103403653
21388113 180 18340486793424069736
21709351 56 18341050718366807063
21860390 5 18126573322947809086
22149856 69 18047499943784273875
22393880 68 18341908397386270222
23559900 14 18340486651674175163
245318 6 17172659316969374285
3298306 158 18200308952060086505
3459 39 17914318320334721872
345986 75 16738318848171182290
376196 1 18341615970675737162
44317340 157 18339078195323513765
469060 322 17472722680325227363
474 4 18261678167763224262
4742675 86 18191279749899047829
508180 173 18193013529596973098
5104073 3 18335146354348303955
57124632 79 18340763827731189376
5895379 119 17557716758659666864
6328613 192 18043259140299328620
6371009 1 18049430745387535221
67856867 119 18410289216109482507
7399639 24 18192164891309380595
7808743 9 17762903564751085840
9981440 41 18191024701797956939

> <PUBCHEM_SHAPE_MULTIPOLES>
511.24
12.25
5.66
1.18
12.05
0.4
0.07
10.76
-0.93
-5.49
-1.16
-1.17
0.4
1.45

> <PUBCHEM_SHAPE_SELFOVERLAP>
1094.17

> <PUBCHEM_SHAPE_VOLUME>
285.9

> <PUBCHEM_COORDINATE_TYPE>
2
5
10

$$$$
