51136608
  -OEChem-12032416143D

 65 67  0     1  0  0  0  0  0999 V2000
   -2.5003   -3.1077    0.3241 O   0  0  0  0  0  0  0  0  0  0  0  0
   -2.9606    4.8998    1.4417 O   0  0  0  0  0  0  0  0  0  0  0  0
   -2.1729    4.5024   -0.6564 O   0  0  0  0  0  0  0  0  0  0  0  0
    3.7168    1.3564   -2.1923 O   0  0  0  0  0  0  0  0  0  0  0  0
    5.8700   -0.2095   -1.4069 O   0  0  0  0  0  0  0  0  0  0  0  0
   -2.8870   -0.8259    0.1083 N   0  0  0  0  0  0  0  0  0  0  0  0
    0.9467   -1.1302    2.5812 N   0  0  0  0  0  0  0  0  0  0  0  0
   -0.8780    0.5578    0.5418 C   0  0  2  0  0  0  0  0  0  0  0  0
   -1.5970    1.7978   -0.0457 C   0  0  1  0  0  0  0  0  0  0  0  0
   -1.8761   -0.4647    1.1056 C   0  0  0  0  0  0  0  0  0  0  0  0
   -2.6641    1.3386   -1.0562 C   0  0  0  0  0  0  0  0  0  0  0  0
   -3.6232    0.3046   -0.4691 C   0  0  0  0  0  0  0  0  0  0  0  0
    0.1743    0.9166    1.5902 C   0  0  0  0  0  0  0  0  0  0  0  0
   -2.2066    2.7254    1.0118 C   0  0  0  0  0  0  0  0  0  0  0  0
   -3.1311   -2.1709   -0.1723 C   0  0  0  0  0  0  0  0  0  0  0  0
    1.1797   -0.2031    1.7118 C   0  0  0  0  0  0  0  0  0  0  0  0
   -4.2404   -2.4677   -1.1498 C   0  0  0  0  0  0  0  0  0  0  0  0
   -2.4259    4.1122    0.4734 C   0  0  0  0  0  0  0  0  0  0  0  0
    2.3817   -0.1828    0.8396 C   0  0  0  0  0  0  0  0  0  0  0  0
   -3.8871   -1.7986   -2.4787 C   0  0  0  0  0  0  0  0  0  0  0  0
   -5.5495   -1.9011   -0.5969 C   0  0  0  0  0  0  0  0  0  0  0  0
   -4.3499   -3.9833   -1.3263 C   0  0  0  0  0  0  0  0  0  0  0  0
    3.4586   -0.9886    1.2304 C   0  0  0  0  0  0  0  0  0  0  0  0
    3.3358   -1.7940    2.4898 C   0  0  0  0  0  0  0  0  0  0  0  0
    1.8920   -2.2492    2.6569 C   0  0  0  0  0  0  0  0  0  0  0  0
    2.4663    0.6031   -0.3113 C   0  0  0  0  0  0  0  0  0  0  0  0
    4.6341   -0.9836    0.4746 C   0  0  0  0  0  0  0  0  0  0  0  0
    3.6387    0.5896   -1.0683 C   0  0  0  0  0  0  0  0  0  0  0  0
    4.7206   -0.1989   -0.6755 C   0  0  0  0  0  0  0  0  0  0  0  0
    2.5689    2.1340   -2.5264 C   0  0  0  0  0  0  0  0  0  0  0  0
    5.9658   -1.1787   -2.4488 C   0  0  0  0  0  0  0  0  0  0  0  0
   -0.3852    0.0622   -0.3070 H   0  0  0  0  0  0  0  0  0  0  0  0
   -0.8394    2.3642   -0.6056 H   0  0  0  0  0  0  0  0  0  0  0  0
   -1.3611   -1.3673    1.4434 H   0  0  0  0  0  0  0  0  0  0  0  0
   -2.4102   -0.0570    1.9724 H   0  0  0  0  0  0  0  0  0  0  0  0
   -2.1526    0.8992   -1.9222 H   0  0  0  0  0  0  0  0  0  0  0  0
   -3.2365    2.1915   -1.4370 H   0  0  0  0  0  0  0  0  0  0  0  0
   -4.1995    0.7450    0.3528 H   0  0  0  0  0  0  0  0  0  0  0  0
   -4.3545    0.0800   -1.2287 H   0  0  0  0  0  0  0  0  0  0  0  0
    0.6933    1.8484    1.3398 H   0  0  0  0  0  0  0  0  0  0  0  0
   -0.2836    1.0758    2.5746 H   0  0  0  0  0  0  0  0  0  0  0  0
   -1.5237    2.8440    1.8588 H   0  0  0  0  0  0  0  0  0  0  0  0
   -3.1558    2.3431    1.3969 H   0  0  0  0  0  0  0  0  0  0  0  0
   -4.6542   -1.1177   -2.8626 H   0  0  0  0  0  0  0  0  0  0  0  0
   -2.9185   -1.2886   -2.4878 H   0  0  0  0  0  0  0  0  0  0  0  0
   -3.7945   -2.5590   -3.2667 H   0  0  0  0  0  0  0  0  0  0  0  0
   -6.0365   -1.1699   -1.2504 H   0  0  0  0  0  0  0  0  0  0  0  0
   -5.4559   -1.4625    0.4028 H   0  0  0  0  0  0  0  0  0  0  0  0
   -6.2932   -2.7010   -0.4825 H   0  0  0  0  0  0  0  0  0  0  0  0
   -5.1437   -4.2389   -2.0381 H   0  0  0  0  0  0  0  0  0  0  0  0
   -4.5836   -4.4855   -0.3798 H   0  0  0  0  0  0  0  0  0  0  0  0
   -3.4170   -4.4167   -1.7066 H   0  0  0  0  0  0  0  0  0  0  0  0
    3.6422   -1.1705    3.3382 H   0  0  0  0  0  0  0  0  0  0  0  0
    3.9915   -2.6713    2.4581 H   0  0  0  0  0  0  0  0  0  0  0  0
    1.7798   -2.7361    3.6318 H   0  0  0  0  0  0  0  0  0  0  0  0
    1.6244   -2.9929    1.8957 H   0  0  0  0  0  0  0  0  0  0  0  0
    1.6117    1.2050   -0.5860 H   0  0  0  0  0  0  0  0  0  0  0  0
    5.4821   -1.5912    0.7808 H   0  0  0  0  0  0  0  0  0  0  0  0
   -3.1174    5.8145    1.1237 H   0  0  0  0  0  0  0  0  0  0  0  0
    1.7018    1.5020   -2.7474 H   0  0  0  0  0  0  0  0  0  0  0  0
    2.3539    2.8880   -1.7614 H   0  0  0  0  0  0  0  0  0  0  0  0
    2.8061    2.6773   -3.4471 H   0  0  0  0  0  0  0  0  0  0  0  0
    5.9096   -2.1912   -2.0367 H   0  0  0  0  0  0  0  0  0  0  0  0
    5.1729   -1.0294   -3.1886 H   0  0  0  0  0  0  0  0  0  0  0  0
    6.9331   -1.0555   -2.9435 H   0  0  0  0  0  0  0  0  0  0  0  0
  1 15  2  0  0  0  0
  2 18  1  0  0  0  0
  2 59  1  0  0  0  0
  3 18  2  0  0  0  0
  4 28  1  0  0  0  0
  4 30  1  0  0  0  0
  5 29  1  0  0  0  0
  5 31  1  0  0  0  0
  6 10  1  0  0  0  0
  6 12  1  0  0  0  0
  6 15  1  0  0  0  0
  7 16  2  0  0  0  0
  7 25  1  0  0  0  0
  8  9  1  0  0  0  0
  8 10  1  0  0  0  0
  8 13  1  0  0  0  0
  8 32  1  0  0  0  0
  9 11  1  0  0  0  0
  9 14  1  0  0  0  0
  9 33  1  0  0  0  0
 10 34  1  0  0  0  0
 10 35  1  0  0  0  0
 11 12  1  0  0  0  0
 11 36  1  0  0  0  0
 11 37  1  0  0  0  0
 12 38  1  0  0  0  0
 12 39  1  0  0  0  0
 13 16  1  0  0  0  0
 13 40  1  0  0  0  0
 13 41  1  0  0  0  0
 14 18  1  0  0  0  0
 14 42  1  0  0  0  0
 14 43  1  0  0  0  0
 15 17  1  0  0  0  0
 16 19  1  0  0  0  0
 17 20  1  0  0  0  0
 17 21  1  0  0  0  0
 17 22  1  0  0  0  0
 19 23  1  0  0  0  0
 19 26  2  0  0  0  0
 20 44  1  0  0  0  0
 20 45  1  0  0  0  0
 20 46  1  0  0  0  0
 21 47  1  0  0  0  0
 21 48  1  0  0  0  0
 21 49  1  0  0  0  0
 22 50  1  0  0  0  0
 22 51  1  0  0  0  0
 22 52  1  0  0  0  0
 23 24  1  0  0  0  0
 23 27  2  0  0  0  0
 24 25  1  0  0  0  0
 24 53  1  0  0  0  0
 24 54  1  0  0  0  0
 25 55  1  0  0  0  0
 25 56  1  0  0  0  0
 26 28  1  0  0  0  0
 26 57  1  0  0  0  0
 27 29  1  0  0  0  0
 27 58  1  0  0  0  0
 28 29  2  0  0  0  0
 30 60  1  0  0  0  0
 30 61  1  0  0  0  0
 30 62  1  0  0  0  0
 31 63  1  0  0  0  0
 31 64  1  0  0  0  0
 31 65  1  0  0  0  0
M  END
> <PUBCHEM_COMPOUND_CID>
51136608

> <PUBCHEM_CONFORMER_RMSD>
1

> <PUBCHEM_CONFORMER_DIVERSEORDER>
1
27
42
58
51
5
32
28
22
31
59
48
63
56
25
66
20
39
7
45
17
15
46
43
50
54
38
64
13
69
33
23
47
14
12
30
65
60
71
37
61
16
35
36
29
19
34
67
8
62
57
68
44
40
55
53
18
70
10
3
52
11
41
26
4
2
6
24
21
49
9

> <PUBCHEM_MMFF94_PARTIAL_CHARGES>
28
1 -0.57
10 0.3
12 0.3
13 0.06
14 0.06
15 0.57
16 0.3
17 0.06
18 0.66
19 0.09
2 -0.65
23 -0.14
24 0.14
25 0.25
26 -0.15
27 -0.15
28 0.08
29 0.08
3 -0.57
30 0.28
31 0.28
4 -0.36
5 -0.36
57 0.15
58 0.15
59 0.5
6 -0.66
7 -0.7

> <PUBCHEM_EFFECTIVE_ROTOR_COUNT>
9.6

> <PUBCHEM_PHARMACOPHORE_FEATURES>
11
1 1 acceptor
1 2 acceptor
1 3 acceptor
1 4 acceptor
1 5 acceptor
1 7 acceptor
3 2 3 18 anion
4 17 20 21 22 hydrophobe
6 19 23 26 27 28 29 rings
6 6 8 9 10 11 12 rings
6 7 16 19 23 24 25 rings

> <PUBCHEM_HEAVY_ATOM_COUNT>
31

> <PUBCHEM_ATOM_DEF_STEREO_COUNT>
2

> <PUBCHEM_ATOM_UDEF_STEREO_COUNT>
0

> <PUBCHEM_BOND_DEF_STEREO_COUNT>
0

> <PUBCHEM_BOND_UDEF_STEREO_COUNT>
0

> <PUBCHEM_ISOTOPIC_ATOM_COUNT>
0

> <PUBCHEM_COMPONENT_COUNT>
1

> <PUBCHEM_CACTVS_TAUTO_COUNT>
1

> <PUBCHEM_CONFORMER_ID>
030C486000000001

> <PUBCHEM_MMFF94_ENERGY>
120.8267

> <PUBCHEM_FEATURE_SELFOVERLAP>
55.91

> <PUBCHEM_SHAPE_FINGERPRINT>
10622 236 18042945628106833923
10928967 22 18196918080145243407
10940486 97 17905034864446446882
11049842 53 17550660020065993202
11725454 13 14129047153680869770
11796584 16 17772195211442726526
12553582 1 18338222873682044027
12788726 201 18410006620646922035
13383668 90 18122935069822130062
13540713 5 17970057855935009698
13690498 29 18272375273666478830
14294032 229 18198350555144358873
14910302 57 17846494829025555711
15664445 248 17908131432465842529
15842332 3 18042676204955250074
1813 80 17985821760580276127
20505436 4 17973461913669600192
21033648 144 16298963077256408326
21033650 10 18339090293829791834
21120745 212 18410860979736761009
22393880 68 18409165494214866908
22907989 373 18336812122837657637
23598288 3 18264213517365456153
238 59 16660634189770702010
25147074 1 18041552521383420506
3388396 114 18045237174022838444
340366 18 17687740537073947426
3610482 184 17971502666017167940
376196 1 12685907291933783571
463206 1 18118962731267806331
484985 159 16701475458679496139
508180 173 15578052700242135262

> <PUBCHEM_SHAPE_MULTIPOLES>
598.66
11.78
4.81
2.68
6.26
5.05
-0.12
-7.59
-7.54
-8.48
0.27
2.99
-0.83
-3.57

> <PUBCHEM_SHAPE_SELFOVERLAP>
1258.474

> <PUBCHEM_SHAPE_VOLUME>
336.8

> <PUBCHEM_COORDINATE_TYPE>
2
5
10

$$$$
