11884672
  -OEChem-12032416343D

 61 65  0     1  0  0  0  0  0999 V2000
    2.2499   -1.4600    0.0030 S   0  0  0  0  0  0  0  0  0  0  0  0
    8.5974   -0.7798   -0.2435 F   0  0  0  0  0  0  0  0  0  0  0  0
    7.4923   -1.9724   -1.6791 F   0  0  0  0  0  0  0  0  0  0  0  0
    7.2466    0.1880   -1.6461 F   0  0  0  0  0  0  0  0  0  0  0  0
    2.3089   -2.0036   -1.3373 O   0  0  0  0  0  0  0  0  0  0  0  0
    1.4794   -2.1149    1.0390 O   0  0  0  0  0  0  0  0  0  0  0  0
   -2.4898    1.7300   -2.1173 O   0  0  0  0  0  0  0  0  0  0  0  0
   -4.9474    0.2383    1.7783 O   0  0  0  0  0  0  0  0  0  0  0  0
    1.7863    0.1854   -0.0799 N   0  0  2  0  0  0  0  0  0  0  0  0
   -0.7366    2.0179   -0.5995 N   0  0  0  0  0  0  0  0  0  0  0  0
   -4.3643    1.4414   -0.1283 N   0  0  0  0  0  0  0  0  0  0  0  0
    1.6951    2.3422   -1.3341 C   0  0  1  0  0  0  0  0  0  0  0  0
    1.1398    2.2998    1.0581 C   0  0  2  0  0  0  0  0  0  0  0  0
    1.8381    3.1130   -0.0283 C   0  0  0  0  0  0  0  0  0  0  0  0
    2.3560    0.9588   -1.2200 C   0  0  0  0  0  0  0  0  0  0  0  0
    1.8383    0.9363    1.2101 C   0  0  0  0  0  0  0  0  0  0  0  0
    0.2082    2.2524   -1.6996 C   0  0  0  0  0  0  0  0  0  0  0  0
   -0.3304    2.1076    0.7357 C   0  0  0  0  0  0  0  0  0  0  0  0
   -1.2333    2.0023    1.7252 C   0  0  0  0  0  0  0  0  0  0  0  0
   -2.0829    1.8006   -0.9566 C   0  0  0  0  0  0  0  0  0  0  0  0
   -3.0536    1.6650    0.1754 C   0  0  0  0  0  0  0  0  0  0  0  0
   -2.6214    1.7749    1.4361 C   0  0  0  0  0  0  0  0  0  0  0  0
    3.9069   -1.2855    0.5874 C   0  0  0  0  0  0  0  0  0  0  0  0
    4.9395   -1.1668   -0.3278 C   0  0  0  0  0  0  0  0  0  0  0  0
    4.1457   -1.2728    1.9515 C   0  0  0  0  0  0  0  0  0  0  0  0
    6.2486   -1.0317    0.1344 C   0  0  0  0  0  0  0  0  0  0  0  0
    5.4548   -1.1377    2.4137 C   0  0  0  0  0  0  0  0  0  0  0  0
   -5.2369    0.7381    0.6938 C   0  0  0  0  0  0  0  0  0  0  0  0
    6.5063   -1.0171    1.5051 C   0  0  0  0  0  0  0  0  0  0  0  0
    7.3733   -0.9037   -0.8369 C   0  0  0  0  0  0  0  0  0  0  0  0
   -6.6241    0.6576    0.0837 C   0  0  0  0  0  0  0  0  0  0  0  0
   -7.0885   -0.7542   -0.1592 C   0  0  0  0  0  0  0  0  0  0  0  0
   -6.8147   -1.3635   -1.3757 C   0  0  0  0  0  0  0  0  0  0  0  0
   -7.7839   -1.4256    0.8364 C   0  0  0  0  0  0  0  0  0  0  0  0
   -7.2449   -2.6710   -1.6009 C   0  0  0  0  0  0  0  0  0  0  0  0
   -8.2141   -2.7332    0.6111 C   0  0  0  0  0  0  0  0  0  0  0  0
   -7.9447   -3.3561   -0.6075 C   0  0  0  0  0  0  0  0  0  0  0  0
    2.2104    2.8860   -2.1359 H   0  0  0  0  0  0  0  0  0  0  0  0
    1.2394    2.8449    2.0061 H   0  0  0  0  0  0  0  0  0  0  0  0
    1.3908    4.1109   -0.1171 H   0  0  0  0  0  0  0  0  0  0  0  0
    2.8970    3.2568    0.2187 H   0  0  0  0  0  0  0  0  0  0  0  0
    2.2011    0.4139   -2.1572 H   0  0  0  0  0  0  0  0  0  0  0  0
    3.4332    1.0940   -1.0758 H   0  0  0  0  0  0  0  0  0  0  0  0
    2.8778    1.1134    1.5048 H   0  0  0  0  0  0  0  0  0  0  0  0
    1.3460    0.3573    1.9994 H   0  0  0  0  0  0  0  0  0  0  0  0
    0.0455    1.4876   -2.4694 H   0  0  0  0  0  0  0  0  0  0  0  0
   -0.0985    3.2051   -2.1529 H   0  0  0  0  0  0  0  0  0  0  0  0
   -0.9422    2.0636    2.7686 H   0  0  0  0  0  0  0  0  0  0  0  0
   -3.2698    1.7442    2.3035 H   0  0  0  0  0  0  0  0  0  0  0  0
    4.7505   -1.1744   -1.3975 H   0  0  0  0  0  0  0  0  0  0  0  0
   -4.6371    1.6039   -1.0944 H   0  0  0  0  0  0  0  0  0  0  0  0
    3.3422   -1.3640    2.6759 H   0  0  0  0  0  0  0  0  0  0  0  0
    5.6552   -1.1258    3.4811 H   0  0  0  0  0  0  0  0  0  0  0  0
    7.5190   -0.9126    1.8845 H   0  0  0  0  0  0  0  0  0  0  0  0
   -6.6859    1.2285   -0.8510 H   0  0  0  0  0  0  0  0  0  0  0  0
   -7.3109    1.1657    0.7732 H   0  0  0  0  0  0  0  0  0  0  0  0
   -6.2685   -0.8390   -2.1547 H   0  0  0  0  0  0  0  0  0  0  0  0
   -7.9975   -0.9505    1.7897 H   0  0  0  0  0  0  0  0  0  0  0  0
   -7.0346   -3.1561   -2.5496 H   0  0  0  0  0  0  0  0  0  0  0  0
   -8.7585   -3.2667    1.3848 H   0  0  0  0  0  0  0  0  0  0  0  0
   -8.2794   -4.3743   -0.7828 H   0  0  0  0  0  0  0  0  0  0  0  0
  1  5  2  0  0  0  0
  1  6  2  0  0  0  0
  1  9  1  0  0  0  0
  1 23  1  0  0  0  0
  2 30  1  0  0  0  0
  3 30  1  0  0  0  0
  4 30  1  0  0  0  0
  7 20  2  0  0  0  0
  8 28  2  0  0  0  0
  9 15  1  0  0  0  0
  9 16  1  0  0  0  0
 10 17  1  0  0  0  0
 10 18  1  0  0  0  0
 10 20  1  0  0  0  0
 11 21  1  0  0  0  0
 11 28  1  0  0  0  0
 11 51  1  0  0  0  0
 12 14  1  0  0  0  0
 12 15  1  0  0  0  0
 12 17  1  0  0  0  0
 12 38  1  0  0  0  0
 13 14  1  0  0  0  0
 13 16  1  0  0  0  0
 13 18  1  0  0  0  0
 13 39  1  0  0  0  0
 14 40  1  0  0  0  0
 14 41  1  0  0  0  0
 15 42  1  0  0  0  0
 15 43  1  0  0  0  0
 16 44  1  0  0  0  0
 16 45  1  0  0  0  0
 17 46  1  0  0  0  0
 17 47  1  0  0  0  0
 18 19  2  0  0  0  0
 19 22  1  0  0  0  0
 19 48  1  0  0  0  0
 20 21  1  0  0  0  0
 21 22  2  0  0  0  0
 22 49  1  0  0  0  0
 23 24  1  0  0  0  0
 23 25  2  0  0  0  0
 24 26  2  0  0  0  0
 24 50  1  0  0  0  0
 25 27  1  0  0  0  0
 25 52  1  0  0  0  0
 26 29  1  0  0  0  0
 26 30  1  0  0  0  0
 27 29  2  0  0  0  0
 27 53  1  0  0  0  0
 28 31  1  0  0  0  0
 29 54  1  0  0  0  0
 31 32  1  0  0  0  0
 31 55  1  0  0  0  0
 31 56  1  0  0  0  0
 32 33  2  0  0  0  0
 32 34  1  0  0  0  0
 33 35  1  0  0  0  0
 33 57  1  0  0  0  0
 34 36  2  0  0  0  0
 34 58  1  0  0  0  0
 35 37  2  0  0  0  0
 35 59  1  0  0  0  0
 36 37  1  0  0  0  0
 36 60  1  0  0  0  0
 37 61  1  0  0  0  0
M  END
> <PUBCHEM_COMPOUND_CID>
11884672

> <PUBCHEM_CONFORMER_RMSD>
1

> <PUBCHEM_CONFORMER_DIVERSEORDER>
1
37
67
66
29
12
10
69
63
11
64
25
54
44
68
39
6
23
48
55
15
84
80
59
34
52
86
62
75
19
74
81
43
46
14
70
42
49
83
41
18
65
60
47
16
13
31
7
82
56
51
53
3
9
73
36
20
76
33
32
27
77
57
72
26
5
22
28
58
4
61
85
35
71
24
21
50
40
79
45
30
8
38
2
78
17

> <PUBCHEM_MMFF94_PARTIAL_CHARGES>
47
1 1.45
10 -0.47
11 -0.54
13 0.14
15 0.36
16 0.36
17 0.3
18 -0.03
19 -0.15
2 -0.34
20 0.62
21 0.12
22 -0.15
23 -0.01
24 -0.15
25 -0.15
26 -0.14
27 -0.15
28 0.57
29 -0.15
3 -0.34
30 1.16
31 0.2
32 -0.14
33 -0.15
34 -0.15
35 -0.15
36 -0.15
37 -0.15
4 -0.34
48 0.15
49 0.15
5 -0.65
50 0.15
51 0.37
52 0.15
53 0.15
54 0.15
57 0.15
58 0.15
59 0.15
6 -0.65
60 0.15
61 0.15
7 -0.57
8 -0.57
9 -0.85

> <PUBCHEM_EFFECTIVE_ROTOR_COUNT>
8

> <PUBCHEM_PHARMACOPHORE_FEATURES>
10
1 11 donor
1 5 acceptor
1 6 acceptor
1 7 acceptor
1 8 acceptor
6 10 12 13 14 17 18 rings
6 10 18 19 20 21 22 rings
6 23 24 25 26 27 29 rings
6 32 33 34 35 36 37 rings
6 9 12 13 14 15 16 rings

> <PUBCHEM_HEAVY_ATOM_COUNT>
37

> <PUBCHEM_ATOM_DEF_STEREO_COUNT>
2

> <PUBCHEM_ATOM_UDEF_STEREO_COUNT>
0

> <PUBCHEM_BOND_DEF_STEREO_COUNT>
0

> <PUBCHEM_BOND_UDEF_STEREO_COUNT>
0

> <PUBCHEM_ISOTOPIC_ATOM_COUNT>
0

> <PUBCHEM_COMPONENT_COUNT>
1

> <PUBCHEM_CACTVS_TAUTO_COUNT>
2

> <PUBCHEM_CONFORMER_ID>
00B5588000000001

> <PUBCHEM_MMFF94_ENERGY>
84.5465

> <PUBCHEM_FEATURE_SELFOVERLAP>
52.35

> <PUBCHEM_SHAPE_FINGERPRINT>
10190108 129 17846497032940105630
10258705 36 17417545596746608670
11135609 99 18272932764975059775
11456790 92 11024103244470345398
11497681 19 18338801092286510646
11621639 148 18270671074490560888
11963148 33 18263916661921720794
12120059 20 18338818782639481527
12522641 126 18115595983946161492
12522641 33 17750802228381271900
12522641 68 16597614808594238677
13782708 43 18335693958367725809
14068700 675 18410572881593334969
1454969 45 18187370900568762346
15320294 125 18201999976313396367
15357212 105 14475239437043798898
15361156 5 17749109946841923837
15510800 12 18410018762599148067
16989378 47 18040987463134014643
16991971 28 18412552006986642748
16994733 274 8862946082799638813
19303781 99 18335695114072890855
19315092 285 18343582971482371025
19841028 212 18263359352103754227
20028762 73 18413950581314050823
20105231 36 16272210765478298044
21223535 225 11386370361386412563
21298829 104 8358258141899734679
21774942 28 11386360430978834390
23559900 14 16515978033395329325
25222932 49 18187918439837095890
25269216 80 16443058427590811735
2747138 104 17918267632519460872
2838139 119 8069731993368444465
3383291 50 18272367603409756863
3633792 109 12540691497451789080
3986486 107 9511176426082853728
4066623 53 15647052663985820300
4173938 188 18408314494148637530
437795 163 18409448085408580699
439807 62 18336264631141590275
4461854 278 17561084739186586295
474113 269 13479398433327318424
4756326 101 13695875882992797598
484989 97 18115033034282767027
54039377 194 18342460357072281743
57303763 176 11098393929629084990
57527293 21 17754743728284029176
6698420 124 11023815168371688884
9896288 288 17345200995618321985
999808 66 17346876741670255411

> <PUBCHEM_SHAPE_MULTIPOLES>
705.05
25.13
3.61
1.93
15.29
0.1
-0.11
-27.26
2.64
3.34
0.5
-1.24
0.02
-1.42

> <PUBCHEM_SHAPE_SELFOVERLAP>
1531.94

> <PUBCHEM_SHAPE_VOLUME>
387.2

> <PUBCHEM_COORDINATE_TYPE>
2
5
10

$$$$
