26744552
  -OEChem-12032416373D

 33 35  0     1  0  0  0  0  0999 V2000
   -4.8463    1.8609   -0.9871 O   0  0  0  0  0  0  0  0  0  0  0  0
   -0.3554   -1.9708   -0.7171 O   0  0  0  0  0  0  0  0  0  0  0  0
   -2.8525   -0.2688    1.0770 N   0  0  1  0  0  0  0  0  0  0  0  0
    0.0732    0.1099   -0.0074 N   0  0  0  0  0  0  0  0  0  0  0  0
    1.0396   -1.8528   -0.6766 N   0  0  0  0  0  0  0  0  0  0  0  0
   -2.3544   -0.6399   -0.2630 C   0  0  1  0  0  0  0  0  0  0  0  0
   -2.8845    0.4620   -1.1993 C   0  0  0  0  0  0  0  0  0  0  0  0
   -3.7059    1.3799   -0.3027 C   0  0  2  0  0  0  0  0  0  0  0  0
   -4.0842    0.4893    0.8655 C   0  0  0  0  0  0  0  0  0  0  0  0
   -0.8466   -0.7716   -0.3085 C   0  0  0  0  0  0  0  0  0  0  0  0
   -3.0581   -1.4160    1.9514 C   0  0  0  0  0  0  0  0  0  0  0  0
    1.2140   -0.5989   -0.2487 C   0  0  0  0  0  0  0  0  0  0  0  0
    2.5136   -0.0239   -0.0536 C   0  0  0  0  0  0  0  0  0  0  0  0
    2.6331    1.2918    0.3938 C   0  0  0  0  0  0  0  0  0  0  0  0
    3.6571   -0.7796   -0.3112 C   0  0  0  0  0  0  0  0  0  0  0  0
    3.8965    1.8520    0.5834 C   0  0  0  0  0  0  0  0  0  0  0  0
    4.9205   -0.2197   -0.1216 C   0  0  0  0  0  0  0  0  0  0  0  0
    5.0402    1.0962    0.3257 C   0  0  0  0  0  0  0  0  0  0  0  0
   -2.8019   -1.5902   -0.5869 H   0  0  0  0  0  0  0  0  0  0  0  0
   -2.0918    1.0297   -1.7000 H   0  0  0  0  0  0  0  0  0  0  0  0
   -3.5112    0.0216   -1.9851 H   0  0  0  0  0  0  0  0  0  0  0  0
   -3.1037    2.2318    0.0364 H   0  0  0  0  0  0  0  0  0  0  0  0
   -4.3624    1.0811    1.7438 H   0  0  0  0  0  0  0  0  0  0  0  0
   -4.9366   -0.1527    0.6061 H   0  0  0  0  0  0  0  0  0  0  0  0
   -2.1164   -1.9506    2.1163 H   0  0  0  0  0  0  0  0  0  0  0  0
   -3.7887   -2.1242    1.5445 H   0  0  0  0  0  0  0  0  0  0  0  0
   -3.4115   -1.0865    2.9347 H   0  0  0  0  0  0  0  0  0  0  0  0
   -4.5337    2.3571   -1.7628 H   0  0  0  0  0  0  0  0  0  0  0  0
    1.7613    1.9066    0.6033 H   0  0  0  0  0  0  0  0  0  0  0  0
    3.6034   -1.8076   -0.6607 H   0  0  0  0  0  0  0  0  0  0  0  0
    3.9901    2.8765    0.9315 H   0  0  0  0  0  0  0  0  0  0  0  0
    5.8114   -0.8078   -0.3222 H   0  0  0  0  0  0  0  0  0  0  0  0
    6.0239    1.5322    0.4733 H   0  0  0  0  0  0  0  0  0  0  0  0
  1  8  1  0  0  0  0
  1 28  1  0  0  0  0
  2  5  1  0  0  0  0
  2 10  1  0  0  0  0
  3  6  1  0  0  0  0
  3  9  1  0  0  0  0
  3 11  1  0  0  0  0
  4 10  2  0  0  0  0
  4 12  1  0  0  0  0
  5 12  2  0  0  0  0
  6  7  1  0  0  0  0
  6 10  1  0  0  0  0
  6 19  1  0  0  0  0
  7  8  1  0  0  0  0
  7 20  1  0  0  0  0
  7 21  1  0  0  0  0
  8  9  1  0  0  0  0
  8 22  1  0  0  0  0
  9 23  1  0  0  0  0
  9 24  1  0  0  0  0
 11 25  1  0  0  0  0
 11 26  1  0  0  0  0
 11 27  1  0  0  0  0
 12 13  1  0  0  0  0
 13 14  2  0  0  0  0
 13 15  1  0  0  0  0
 14 16  1  0  0  0  0
 14 29  1  0  0  0  0
 15 17  2  0  0  0  0
 15 30  1  0  0  0  0
 16 18  2  0  0  0  0
 16 31  1  0  0  0  0
 17 18  1  0  0  0  0
 17 32  1  0  0  0  0
 18 33  1  0  0  0  0
M  END
> <PUBCHEM_COMPOUND_CID>
26744552

> <PUBCHEM_CONFORMER_RMSD>
0.6

> <PUBCHEM_CONFORMER_DIVERSEORDER>
1
7
8
2
3
12
6
5
11
4
10
9

> <PUBCHEM_MMFF94_PARTIAL_CHARGES>
23
1 -0.68
10 0.3
11 0.27
12 0.46
13 0.05
14 -0.15
15 -0.15
16 -0.15
17 -0.15
18 -0.15
2 -0.02
28 0.4
29 0.15
3 -0.81
30 0.15
31 0.15
32 0.15
33 0.15
4 -0.57
5 -0.41
6 0.45
8 0.28
9 0.27

> <PUBCHEM_EFFECTIVE_ROTOR_COUNT>
3

> <PUBCHEM_PHARMACOPHORE_FEATURES>
7
1 1 acceptor
1 1 donor
1 3 cation
3 4 5 12 cation
5 2 4 5 10 12 rings
5 3 6 7 8 9 rings
6 13 14 15 16 17 18 rings

> <PUBCHEM_HEAVY_ATOM_COUNT>
18

> <PUBCHEM_ATOM_DEF_STEREO_COUNT>
2

> <PUBCHEM_ATOM_UDEF_STEREO_COUNT>
0

> <PUBCHEM_BOND_DEF_STEREO_COUNT>
0

> <PUBCHEM_BOND_UDEF_STEREO_COUNT>
0

> <PUBCHEM_ISOTOPIC_ATOM_COUNT>
0

> <PUBCHEM_COMPONENT_COUNT>
1

> <PUBCHEM_CACTVS_TAUTO_COUNT>
1

> <PUBCHEM_CONFORMER_ID>
019816E800000001

> <PUBCHEM_MMFF94_ENERGY>
35.5736

> <PUBCHEM_FEATURE_SELFOVERLAP>
35.522

> <PUBCHEM_SHAPE_FINGERPRINT>
10014705 185 18271519879221100180
11089746 13 18340193129540656364
11471102 20 18202563960862882830
11543360 7 13542462098646397322
11552529 35 17096656593690587450
12236239 1 16774082839022772939
12403259 118 18114461266149251380
12403259 415 18410864264832250116
12507560 40 18334017211192318114
12596602 18 15647061473053771364
12633257 1 16660363688235252301
13103583 49 13046235905573356349
13214271 11 18333732429359659103
13583140 156 17531792654030969786
13675066 3 18334299790228746866
14123255 352 18411697686082855404
14123260 362 16988571216240455227
14178342 30 17167870763842371635
14252887 29 13334732402172187016
14289901 80 17240490229548671586
14848178 96 17630878494896806480
15099037 37 18041569147460584523
15239154 128 18272934963982601272
15375358 24 18335138657397325365
16988056 13 12952859704073804275
1813 80 12829491394128878162
18186145 218 17988934396177860030
18219364 16 18271530883074966785
193927 3 11170183229776109352
19784866 170 18187087230362610148
19862831 5 16988839475534120103
20112054 13 18408040718972134519
20300324 65 14908179750777297195
204376 136 18273217512247624198
20645477 56 18186804639221955549
20645477 70 18130790010549608558
20871999 31 12535351186111691995
21033648 29 18339633525219481648
21033650 10 14332312760723234274
21065199 12 18187369856422412730
212916 134 17313381185081936025
21503847 285 17821449084348990980
21713013 43 11240001152655491633
22646028 1 12973597859347130184
22646028 28 11025793202025859304
231179 274 18412545388310157670
23402539 116 15482676766929319400
23402655 69 17775002410356321388
23403322 49 9655579612594902597
23493267 7 18186798071620893945
23503953 91 16805045116103742749
23557571 272 18040730151300263359
23559900 14 17677622960098556318
27216 239 18408041840507185897
2838139 119 18267291046422985165
474 4 18060422404216231790
5104073 3 18270394014444493642
57265010 4 17240486926913909033
5924683 9 17895758516702387803
602551 16 16878231969193084530
633830 44 18186515532014636846
6430166 295 18341609335024598196
90127 26 18334861640707450800
9971528 1 17346319268116426718

> <PUBCHEM_SHAPE_MULTIPOLES>
343.75
10.83
1.82
1.15
3.31
0.09
0.34
4.94
1
-0.31
-0.09
-1.33
-0.21
1.53

> <PUBCHEM_SHAPE_SELFOVERLAP>
740.299

> <PUBCHEM_SHAPE_VOLUME>
191.9

> <PUBCHEM_COORDINATE_TYPE>
2
5
10

$$$$
