45783538
  -OEChem-12032416263D

 66 70  0     1  0  0  0  0  0999 V2000
   -0.7510   -3.8783    0.4307 S   0  0  0  0  0  0  0  0  0  0  0  0
   -3.2716    1.5891    1.3342 O   0  0  0  0  0  0  0  0  0  0  0  0
    7.1427   -1.4019   -0.9718 O   0  0  0  0  0  0  0  0  0  0  0  0
   -1.2180   -4.7649    1.4878 O   0  0  0  0  0  0  0  0  0  0  0  0
   -0.1305   -4.4391   -0.7612 O   0  0  0  0  0  0  0  0  0  0  0  0
   -5.4925    0.8008   -0.4597 N   0  0  1  0  0  0  0  0  0  0  0  0
    4.2686    0.9324    0.3495 N   0  0  0  0  0  0  0  0  0  0  0  0
   -2.0026    1.6211   -0.5112 N   0  0  0  0  0  0  0  0  0  0  0  0
   -1.9499    1.4236    1.7675 N   0  0  0  0  0  0  0  0  0  0  0  0
    2.1887    1.2275   -0.7425 N   0  0  0  0  0  0  0  0  0  0  0  0
    8.2776    0.3525   -1.9352 N   0  0  0  0  0  0  0  0  0  0  0  0
   -4.5322    1.8873   -0.7382 C   0  0  1  0  0  0  0  0  0  0  0  0
   -5.2625    3.1738   -0.3105 C   0  0  0  0  0  0  0  0  0  0  0  0
   -6.6441    2.7173    0.1358 C   0  0  0  0  0  0  0  0  0  0  0  0
   -6.8270    1.3898   -0.5716 C   0  0  0  0  0  0  0  0  0  0  0  0
   -5.3263   -0.3513   -1.3364 C   0  0  0  0  0  0  0  0  0  0  0  0
    7.1572    0.6999    0.1696 C   0  0  0  0  0  0  0  0  0  0  0  0
    6.3561   -0.0153    1.2555 C   0  0  0  0  0  0  0  0  0  0  0  0
    6.4092    1.9233   -0.3566 C   0  0  0  0  0  0  0  0  0  0  0  0
   -3.2132    1.6972   -0.0190 C   0  0  0  0  0  0  0  0  0  0  0  0
    4.9023   -0.2856    0.8622 C   0  0  0  0  0  0  0  0  0  0  0  0
    4.9651    1.6128   -0.7492 C   0  0  0  0  0  0  0  0  0  0  0  0
   -4.1866   -1.2311   -0.8962 C   0  0  0  0  0  0  0  0  0  0  0  0
    2.8762    1.0634    0.4099 C   0  0  0  0  0  0  0  0  0  0  0  0
    7.5073   -0.2288   -0.9560 C   0  0  0  0  0  0  0  0  0  0  0  0
   -1.2617    1.4533    0.6224 C   0  0  0  0  0  0  0  0  0  0  0  0
   -3.1245   -1.4832   -1.7646 C   0  0  0  0  0  0  0  0  0  0  0  0
   -4.1925   -1.7938    0.3802 C   0  0  0  0  0  0  0  0  0  0  0  0
    0.1643    1.3169    0.5761 C   0  0  0  0  0  0  0  0  0  0  0  0
    2.2884    1.0167    1.6637 C   0  0  0  0  0  0  0  0  0  0  0  0
    0.9061    1.1465    1.7398 C   0  0  0  0  0  0  0  0  0  0  0  0
   -2.0686   -2.2983   -1.3569 C   0  0  0  0  0  0  0  0  0  0  0  0
   -3.1366   -2.6089    0.7879 C   0  0  0  0  0  0  0  0  0  0  0  0
    0.8471    1.3502   -0.6290 C   0  0  0  0  0  0  0  0  0  0  0  0
   -2.0747   -2.8610   -0.0805 C   0  0  0  0  0  0  0  0  0  0  0  0
    0.4097   -2.7539    1.1737 C   0  0  0  0  0  0  0  0  0  0  0  0
   -4.3257    1.9654   -1.8147 H   0  0  0  0  0  0  0  0  0  0  0  0
   -4.7593    3.7319    0.4863 H   0  0  0  0  0  0  0  0  0  0  0  0
   -5.3618    3.8428   -1.1743 H   0  0  0  0  0  0  0  0  0  0  0  0
   -7.4226    3.4412   -0.1222 H   0  0  0  0  0  0  0  0  0  0  0  0
   -6.6562    2.5760    1.2237 H   0  0  0  0  0  0  0  0  0  0  0  0
   -7.1137    1.5528   -1.6184 H   0  0  0  0  0  0  0  0  0  0  0  0
   -7.5909    0.7763   -0.0841 H   0  0  0  0  0  0  0  0  0  0  0  0
   -6.2267   -0.9807   -1.2999 H   0  0  0  0  0  0  0  0  0  0  0  0
   -5.2208   -0.0505   -2.3871 H   0  0  0  0  0  0  0  0  0  0  0  0
    8.1094    1.0297    0.6066 H   0  0  0  0  0  0  0  0  0  0  0  0
    6.3539    0.6208    2.1511 H   0  0  0  0  0  0  0  0  0  0  0  0
    6.8375   -0.9562    1.5481 H   0  0  0  0  0  0  0  0  0  0  0  0
    6.9160    2.3997   -1.2022 H   0  0  0  0  0  0  0  0  0  0  0  0
    6.3899    2.6759    0.4438 H   0  0  0  0  0  0  0  0  0  0  0  0
    4.3818   -0.6731    1.7457 H   0  0  0  0  0  0  0  0  0  0  0  0
    4.8421   -1.0700    0.0989 H   0  0  0  0  0  0  0  0  0  0  0  0
    4.9374    0.9876   -1.6502 H   0  0  0  0  0  0  0  0  0  0  0  0
    4.4728    2.5632   -0.9916 H   0  0  0  0  0  0  0  0  0  0  0  0
   -3.1047   -1.0480   -2.7601 H   0  0  0  0  0  0  0  0  0  0  0  0
   -5.0144   -1.6089    1.0669 H   0  0  0  0  0  0  0  0  0  0  0  0
    2.8675    0.8994    2.5739 H   0  0  0  0  0  0  0  0  0  0  0  0
    0.4397    1.1129    2.7210 H   0  0  0  0  0  0  0  0  0  0  0  0
   -1.2477   -2.4734   -2.0464 H   0  0  0  0  0  0  0  0  0  0  0  0
   -3.1583   -3.0317    1.7884 H   0  0  0  0  0  0  0  0  0  0  0  0
    0.3379    1.4787   -1.5797 H   0  0  0  0  0  0  0  0  0  0  0  0
    8.5726   -0.1811   -2.7463 H   0  0  0  0  0  0  0  0  0  0  0  0
    8.6215    1.3051   -1.8751 H   0  0  0  0  0  0  0  0  0  0  0  0
   -0.0706   -2.2502    2.0147 H   0  0  0  0  0  0  0  0  0  0  0  0
    0.7338   -2.0324    0.4215 H   0  0  0  0  0  0  0  0  0  0  0  0
    1.2660   -3.3331    1.5256 H   0  0  0  0  0  0  0  0  0  0  0  0
  1  4  2  0  0  0  0
  1  5  2  0  0  0  0
  1 35  1  0  0  0  0
  1 36  1  0  0  0  0
  2  9  1  0  0  0  0
  2 20  1  0  0  0  0
  3 25  2  0  0  0  0
  6 12  1  0  0  0  0
  6 15  1  0  0  0  0
  6 16  1  0  0  0  0
  7 21  1  0  0  0  0
  7 22  1  0  0  0  0
  7 24  1  0  0  0  0
  8 20  2  0  0  0  0
  8 26  1  0  0  0  0
  9 26  2  0  0  0  0
 10 24  2  0  0  0  0
 10 34  1  0  0  0  0
 11 25  1  0  0  0  0
 11 62  1  0  0  0  0
 11 63  1  0  0  0  0
 12 13  1  0  0  0  0
 12 20  1  0  0  0  0
 12 37  1  0  0  0  0
 13 14  1  0  0  0  0
 13 38  1  0  0  0  0
 13 39  1  0  0  0  0
 14 15  1  0  0  0  0
 14 40  1  0  0  0  0
 14 41  1  0  0  0  0
 15 42  1  0  0  0  0
 15 43  1  0  0  0  0
 16 23  1  0  0  0  0
 16 44  1  0  0  0  0
 16 45  1  0  0  0  0
 17 18  1  0  0  0  0
 17 19  1  0  0  0  0
 17 25  1  0  0  0  0
 17 46  1  0  0  0  0
 18 21  1  0  0  0  0
 18 47  1  0  0  0  0
 18 48  1  0  0  0  0
 19 22  1  0  0  0  0
 19 49  1  0  0  0  0
 19 50  1  0  0  0  0
 21 51  1  0  0  0  0
 21 52  1  0  0  0  0
 22 53  1  0  0  0  0
 22 54  1  0  0  0  0
 23 27  2  0  0  0  0
 23 28  1  0  0  0  0
 24 30  1  0  0  0  0
 26 29  1  0  0  0  0
 27 32  1  0  0  0  0
 27 55  1  0  0  0  0
 28 33  2  0  0  0  0
 28 56  1  0  0  0  0
 29 31  1  0  0  0  0
 29 34  2  0  0  0  0
 30 31  2  0  0  0  0
 30 57  1  0  0  0  0
 31 58  1  0  0  0  0
 32 35  2  0  0  0  0
 32 59  1  0  0  0  0
 33 35  1  0  0  0  0
 33 60  1  0  0  0  0
 34 61  1  0  0  0  0
 36 64  1  0  0  0  0
 36 65  1  0  0  0  0
 36 66  1  0  0  0  0
M  END
> <PUBCHEM_COMPOUND_CID>
45783538

> <PUBCHEM_CONFORMER_RMSD>
1.2

> <PUBCHEM_CONFORMER_DIVERSEORDER>
1
32
77
40
42
7
18
25
67
75
54
22
69
56
62
2
49
13
68
12
64
36
27
30
23
10
46
11
47
57
55
61
15
37
24
3
31
45
28
78
34
74
79
41
65
58
21
33
53
16
82
26
51
73
60
52
76
19
70
38
39
63
81
20
5
48
8
43
66
4
44
29
80
83
17
71
35
59
9
72
50
6
14

> <PUBCHEM_MMFF94_PARTIAL_CHARGES>
41
1 1.2
10 -0.62
11 -0.8
12 0.45
15 0.27
16 0.41
17 0.06
2 -0.02
20 0.3
21 0.37
22 0.37
23 -0.14
24 0.41
25 0.57
26 0.46
27 -0.15
28 -0.15
29 0.05
3 -0.57
30 -0.15
31 -0.15
32 -0.15
33 -0.15
34 0.16
35 -0.01
36 0.11
4 -0.65
5 -0.65
55 0.15
56 0.15
57 0.15
58 0.15
59 0.15
6 -0.81
60 0.15
61 0.15
62 0.37
63 0.37
7 -0.84
8 -0.57
9 -0.41

> <PUBCHEM_EFFECTIVE_ROTOR_COUNT>
9.2

> <PUBCHEM_PHARMACOPHORE_FEATURES>
12
1 11 donor
1 3 acceptor
1 4 acceptor
1 5 acceptor
1 6 cation
3 7 10 24 cation
3 8 9 26 cation
5 2 8 9 20 26 rings
5 6 12 13 14 15 rings
6 10 24 29 30 31 34 rings
6 23 27 28 32 33 35 rings
6 7 17 18 19 21 22 rings

> <PUBCHEM_HEAVY_ATOM_COUNT>
36

> <PUBCHEM_ATOM_DEF_STEREO_COUNT>
1

> <PUBCHEM_ATOM_UDEF_STEREO_COUNT>
0

> <PUBCHEM_BOND_DEF_STEREO_COUNT>
0

> <PUBCHEM_BOND_UDEF_STEREO_COUNT>
0

> <PUBCHEM_ISOTOPIC_ATOM_COUNT>
0

> <PUBCHEM_COMPONENT_COUNT>
1

> <PUBCHEM_CACTVS_TAUTO_COUNT>
2

> <PUBCHEM_CONFORMER_ID>
02BA99F200000001

> <PUBCHEM_MMFF94_ENERGY>
81.0063

> <PUBCHEM_FEATURE_SELFOVERLAP>
60.916

> <PUBCHEM_SHAPE_FINGERPRINT>
10369192 42 14707209902908443673
10554248 39 15864064370226207336
10674148 151 16917067737946525217
11007060 377 18413107290091391488
11135926 11 18337100173451639421
11200772 48 18410294726541558202
11524674 6 17775279469853438301
11578080 2 17680682871942900029
11991303 11 18334015016596087238
12156800 1 16300392369522104179
12522641 33 18263360305797574605
12655364 131 14691749635856379476
14251757 5 18193273215840295427
14461889 52 18059000818446517712
14659021 117 17767097058996464459
14725015 67 18124872611105531371
14840074 17 17603577517471671540
14931854 50 18341596136664139663
15183329 4 17894903049437152332
15230672 131 18337387150297663474
15297060 5 18342176661417916963
15351339 4 18338504275491531291
15361156 5 18127687351949803172
15439362 3 18047188545648760321
15629462 23 16988294079497426664
15927050 60 18341603790570628583
16112460 7 18270403763286772370
16719943 64 18410005567969003939
17627616 140 18265050241398653386
19377110 9 11600012033563124300
19958102 18 18409161121927655790
21133665 82 18412543206910396478
21360443 120 18334856078835845011
22899556 105 17985236760708720847
23516275 137 18117855295314418754
23523788 1 17462610245089341635
23559900 14 17987788734699922664
23576562 1 18115034129204177724
249057 3 18409445894917653269
25269216 80 18116732862084317758
3383291 50 17346594192445351719
4073 2 18339919433288055384
4625314 4 18339643439159450476
5085150 59 18271516546712080978
5265222 85 18411133679789155377
57676310 188 18336263436460563906
58902169 19 17967536788101175356
59755656 520 18408878538432631917
6669772 16 18339364042192179975
70634741 139 18267870665218107640
7226269 152 18202845474193904753

> <PUBCHEM_SHAPE_MULTIPOLES>
691.35
19.63
4.59
1.54
30.83
5.84
-0.06
-10.65
7.19
-5.94
-0.69
0.73
0.29
-0.11

> <PUBCHEM_SHAPE_SELFOVERLAP>
1481.502

> <PUBCHEM_SHAPE_VOLUME>
386.7

> <PUBCHEM_COORDINATE_TYPE>
2
5
10

$$$$
