11879507
  -OEChem-12032416133D

 72 76  0     1  0  0  0  0  0999 V2000
   -0.7099    2.9088    0.1191 S   0  0  0  0  0  0  0  0  0  0  0  0
    3.3016    3.7280    1.2101 F   0  0  0  0  0  0  0  0  0  0  0  0
    5.1900    0.2756   -1.4503 F   0  0  0  0  0  0  0  0  0  0  0  0
   -7.8988   -0.1326   -0.7153 O   0  0  0  0  0  0  0  0  0  0  0  0
   -7.7354    1.7213    0.7950 O   0  0  0  0  0  0  0  0  0  0  0  0
   -0.1150   -2.1719   -1.4227 O   0  0  0  0  0  0  0  0  0  0  0  0
    2.9427    0.0403   -0.2015 O   0  0  0  0  0  0  0  0  0  0  0  0
    0.0133    0.4336   -0.0885 N   0  0  0  0  0  0  0  0  0  0  0  0
    0.2298   -3.6278    0.3557 N   0  0  0  0  0  0  0  0  0  0  0  0
    1.7738    2.0781   -0.0119 N   0  0  0  0  0  0  0  0  0  0  0  0
    4.8504   -3.1338   -0.6637 N   0  0  0  0  0  0  0  0  0  0  0  0
   -3.6900   -0.5496    0.3434 C   0  0  2  0  0  0  0  0  0  0  0  0
   -4.2073    0.7867   -0.3510 C   0  0  1  0  0  0  0  0  0  0  0  0
   -5.7660    1.0284   -0.3663 C   0  0  1  0  0  0  0  0  0  0  0  0
   -2.1856   -0.8019   -0.1325 C   0  0  1  0  0  0  0  0  0  0  0  0
   -4.5585   -1.7450   -0.1276 C   0  0  0  0  0  0  0  0  0  0  0  0
   -6.4823   -0.2768   -0.8146 C   0  0  1  0  0  0  0  0  0  0  0  0
   -3.3855    2.0242    0.1141 C   0  0  0  0  0  0  0  0  0  0  0  0
   -6.0567   -1.5018   -0.0128 C   0  0  0  0  0  0  0  0  0  0  0  0
   -3.7361   -0.4805    1.8897 C   0  0  0  0  0  0  0  0  0  0  0  0
   -1.3681    0.4607   -0.0375 C   0  0  0  0  0  0  0  0  0  0  0  0
   -6.3473    1.5451    0.9684 C   0  0  0  0  0  0  0  0  0  0  0  0
   -6.0989    2.1235   -1.4188 C   0  0  0  0  0  0  0  0  0  0  0  0
   -1.9268    1.7193    0.0542 C   0  0  0  0  0  0  0  0  0  0  0  0
   -1.4856   -1.9779    0.5618 C   0  0  0  0  0  0  0  0  0  0  0  0
   -0.3953   -2.5754   -0.2972 C   0  0  0  0  0  0  0  0  0  0  0  0
    0.4679    1.6652   -0.0067 C   0  0  0  0  0  0  0  0  0  0  0  0
    1.3099   -4.3895   -0.2285 C   0  0  0  0  0  0  0  0  0  0  0  0
    2.9128    1.2623   -0.1068 C   0  0  0  0  0  0  0  0  0  0  0  0
    2.6521   -3.7981    0.0923 C   0  0  0  0  0  0  0  0  0  0  0  0
    4.2131    1.9836   -0.1198 C   0  0  0  0  0  0  0  0  0  0  0  0
    2.9598   -3.3764    1.3811 C   0  0  0  0  0  0  0  0  0  0  0  0
    3.6234   -3.6564   -0.8856 C   0  0  0  0  0  0  0  0  0  0  0  0
    4.3427    3.2001    0.5504 C   0  0  0  0  0  0  0  0  0  0  0  0
    5.3031    1.4441   -0.8027 C   0  0  0  0  0  0  0  0  0  0  0  0
    4.2117   -2.8334    1.6486 C   0  0  0  0  0  0  0  0  0  0  0  0
    5.5623    3.8768    0.5378 C   0  0  0  0  0  0  0  0  0  0  0  0
    6.5227    2.1209   -0.8153 C   0  0  0  0  0  0  0  0  0  0  0  0
    5.1133   -2.7350    0.6011 C   0  0  0  0  0  0  0  0  0  0  0  0
    6.6524    3.3373   -0.1450 C   0  0  0  0  0  0  0  0  0  0  0  0
   -3.9484    0.6491   -1.4153 H   0  0  0  0  0  0  0  0  0  0  0  0
   -2.2477   -1.0205   -1.2093 H   0  0  0  0  0  0  0  0  0  0  0  0
   -4.3181   -2.6498    0.4420 H   0  0  0  0  0  0  0  0  0  0  0  0
   -4.3297   -1.9744   -1.1768 H   0  0  0  0  0  0  0  0  0  0  0  0
   -6.2583   -0.4600   -1.8740 H   0  0  0  0  0  0  0  0  0  0  0  0
   -3.6002    2.8829   -0.5308 H   0  0  0  0  0  0  0  0  0  0  0  0
   -3.6494    2.3069    1.1386 H   0  0  0  0  0  0  0  0  0  0  0  0
   -6.5930   -2.3833   -0.3874 H   0  0  0  0  0  0  0  0  0  0  0  0
   -6.3662   -1.4073    1.0338 H   0  0  0  0  0  0  0  0  0  0  0  0
   -3.1391    0.3427    2.2916 H   0  0  0  0  0  0  0  0  0  0  0  0
   -4.7461   -0.3786    2.2813 H   0  0  0  0  0  0  0  0  0  0  0  0
   -3.3476   -1.4011    2.3391 H   0  0  0  0  0  0  0  0  0  0  0  0
   -5.9132    2.5074    1.2561 H   0  0  0  0  0  0  0  0  0  0  0  0
   -6.2135    0.8464    1.7902 H   0  0  0  0  0  0  0  0  0  0  0  0
   -5.6370    1.8915   -2.3855 H   0  0  0  0  0  0  0  0  0  0  0  0
   -5.7395    3.1101   -1.1082 H   0  0  0  0  0  0  0  0  0  0  0  0
   -7.1758    2.2165   -1.5988 H   0  0  0  0  0  0  0  0  0  0  0  0
   -1.0485   -1.6704    1.5201 H   0  0  0  0  0  0  0  0  0  0  0  0
   -2.1890   -2.7920    0.7641 H   0  0  0  0  0  0  0  0  0  0  0  0
   -8.3026   -0.9519   -1.0486 H   0  0  0  0  0  0  0  0  0  0  0  0
   -8.0923    2.0557    1.6353 H   0  0  0  0  0  0  0  0  0  0  0  0
   -0.0727   -3.8800    1.2924 H   0  0  0  0  0  0  0  0  0  0  0  0
    1.8925    3.0859    0.0422 H   0  0  0  0  0  0  0  0  0  0  0  0
    1.1546   -4.4402   -1.3121 H   0  0  0  0  0  0  0  0  0  0  0  0
    1.2546   -5.4076    0.1714 H   0  0  0  0  0  0  0  0  0  0  0  0
    2.2419   -3.4704    2.1910 H   0  0  0  0  0  0  0  0  0  0  0  0
    3.4445   -3.9673   -1.9103 H   0  0  0  0  0  0  0  0  0  0  0  0
    4.4740   -2.4989    2.6457 H   0  0  0  0  0  0  0  0  0  0  0  0
    5.6628    4.8238    1.0598 H   0  0  0  0  0  0  0  0  0  0  0  0
    7.3712    1.7004   -1.3469 H   0  0  0  0  0  0  0  0  0  0  0  0
    6.1024   -2.3174    0.7570 H   0  0  0  0  0  0  0  0  0  0  0  0
    7.6020    3.8643   -0.1547 H   0  0  0  0  0  0  0  0  0  0  0  0
  1 24  1  0  0  0  0
  1 27  1  0  0  0  0
  2 34  1  0  0  0  0
  3 35  1  0  0  0  0
  4 17  1  0  0  0  0
  4 60  1  0  0  0  0
  5 22  1  0  0  0  0
  5 61  1  0  0  0  0
  6 26  2  0  0  0  0
  7 29  2  0  0  0  0
  8 21  1  0  0  0  0
  8 27  2  0  0  0  0
  9 26  1  0  0  0  0
  9 28  1  0  0  0  0
  9 62  1  0  0  0  0
 10 27  1  0  0  0  0
 10 29  1  0  0  0  0
 10 63  1  0  0  0  0
 11 33  1  0  0  0  0
 11 39  2  0  0  0  0
 12 13  1  0  0  0  0
 12 15  1  0  0  0  0
 12 16  1  0  0  0  0
 12 20  1  0  0  0  0
 13 14  1  0  0  0  0
 13 18  1  0  0  0  0
 13 41  1  0  0  0  0
 14 17  1  0  0  0  0
 14 22  1  0  0  0  0
 14 23  1  0  0  0  0
 15 21  1  0  0  0  0
 15 25  1  0  0  0  0
 15 42  1  0  0  0  0
 16 19  1  0  0  0  0
 16 43  1  0  0  0  0
 16 44  1  0  0  0  0
 17 19  1  0  0  0  0
 17 45  1  0  0  0  0
 18 24  1  0  0  0  0
 18 46  1  0  0  0  0
 18 47  1  0  0  0  0
 19 48  1  0  0  0  0
 19 49  1  0  0  0  0
 20 50  1  0  0  0  0
 20 51  1  0  0  0  0
 20 52  1  0  0  0  0
 21 24  2  0  0  0  0
 22 53  1  0  0  0  0
 22 54  1  0  0  0  0
 23 55  1  0  0  0  0
 23 56  1  0  0  0  0
 23 57  1  0  0  0  0
 25 26  1  0  0  0  0
 25 58  1  0  0  0  0
 25 59  1  0  0  0  0
 28 30  1  0  0  0  0
 28 64  1  0  0  0  0
 28 65  1  0  0  0  0
 29 31  1  0  0  0  0
 30 32  1  0  0  0  0
 30 33  2  0  0  0  0
 31 34  2  0  0  0  0
 31 35  1  0  0  0  0
 32 36  2  0  0  0  0
 32 66  1  0  0  0  0
 33 67  1  0  0  0  0
 34 37  1  0  0  0  0
 35 38  2  0  0  0  0
 36 39  1  0  0  0  0
 36 68  1  0  0  0  0
 37 40  2  0  0  0  0
 37 69  1  0  0  0  0
 38 40  1  0  0  0  0
 38 70  1  0  0  0  0
 39 71  1  0  0  0  0
 40 72  1  0  0  0  0
M  END
> <PUBCHEM_COMPOUND_CID>
11879507

> <PUBCHEM_CONFORMER_RMSD>
1.2

> <PUBCHEM_CONFORMER_DIVERSEORDER>
1
37
44
35
29
33
18
22
21
17
38
15
20
47
25
45
30
46
27
12
40
14
24
11
28
26
34
23
39
13
32
16
4
31
5
36
7
9
19
41
2
10
6
42
3
43
8

> <PUBCHEM_MMFF94_PARTIAL_CHARGES>
44
1 -0.08
10 -0.49
11 -0.62
15 0.18
17 0.28
18 0.18
2 -0.19
21 0.05
22 0.28
24 -0.14
25 0.06
26 0.57
27 0.44
28 0.44
29 0.54
3 -0.19
30 -0.14
31 0.09
32 -0.15
33 0.16
34 0.19
35 0.19
36 -0.15
37 -0.15
38 -0.15
39 0.16
4 -0.68
40 -0.15
5 -0.68
6 -0.57
60 0.4
61 0.4
62 0.37
63 0.37
66 0.15
67 0.15
68 0.15
69 0.15
7 -0.57
70 0.15
71 0.15
72 0.15
8 -0.57
9 -0.73

> <PUBCHEM_EFFECTIVE_ROTOR_COUNT>
10.2

> <PUBCHEM_PHARMACOPHORE_FEATURES>
14
1 10 donor
1 11 acceptor
1 4 acceptor
1 4 donor
1 5 acceptor
1 5 donor
1 6 acceptor
1 7 acceptor
1 9 donor
5 1 8 21 24 27 rings
6 11 30 32 33 36 39 rings
6 12 13 14 16 17 19 rings
6 12 13 15 18 21 24 rings
6 31 34 35 37 38 40 rings

> <PUBCHEM_HEAVY_ATOM_COUNT>
40

> <PUBCHEM_ATOM_DEF_STEREO_COUNT>
5

> <PUBCHEM_ATOM_UDEF_STEREO_COUNT>
0

> <PUBCHEM_BOND_DEF_STEREO_COUNT>
0

> <PUBCHEM_BOND_UDEF_STEREO_COUNT>
0

> <PUBCHEM_ISOTOPIC_ATOM_COUNT>
0

> <PUBCHEM_COMPONENT_COUNT>
1

> <PUBCHEM_CACTVS_TAUTO_COUNT>
6

> <PUBCHEM_CONFORMER_ID>
00B5445300000001

> <PUBCHEM_MMFF94_ENERGY>
117.9178

> <PUBCHEM_FEATURE_SELFOVERLAP>
71.195

> <PUBCHEM_SHAPE_FINGERPRINT>
10050765 1 18338233748607899749
10290309 65 18337662118293834860
10675989 125 18410857638256829744
10864689 126 18339651156872341932
11007060 377 18128259097827422073
11135609 187 18410855503199349161
11135926 11 18336537291695721788
11136131 41 18261383460731052346
12440605 4 18341053042482489707
13533116 47 18410854330763181880
1361 2 18408887360496014992
13811026 1 18261110794658094043
14040222 383 18195525029224782624
14394314 77 18411423933964173929
14725015 67 18116423761814935066
15001296 14 18408600348937376706
15200665 1 17835519697320093906
15400415 2 18266740375675697444
15927050 60 18268988863737236470
16067689 302 18411985793576254775
20609170 92 18187069647874471917
21033648 29 18198052775923367736
21585483 110 18409732876205188058
22311459 1 18337390538557939765
23559900 14 18266730295481821411
3383291 50 18122062267547180779
3411729 13 18334856134480580794
4073 2 18263367043419451497
5265222 85 17975984481444448652
53794403 172 18410572873235404626
5776283 40 18337686273896211486
6669772 16 18411699919555351510
99344 41 18410571803403328684
9961470 85 18339637953947838298

> <PUBCHEM_SHAPE_MULTIPOLES>
769.08
18.9
6.05
1.15
13.97
3.29
0.17
-11.08
-1.64
-11.4
0.59
-0.01
0.26
-0.17

> <PUBCHEM_SHAPE_SELFOVERLAP>
1655.301

> <PUBCHEM_SHAPE_VOLUME>
426.1

> <PUBCHEM_COORDINATE_TYPE>
2
5
10

$$$$
