51137120
  -OEChem-12032416243D

 43 46  0     1  0  0  0  0  0999 V2000
   -6.9797    0.0002    1.6718 F   0  0  0  0  0  0  0  0  0  0  0  0
   -7.2710   -1.3232   -0.0287 F   0  0  0  0  0  0  0  0  0  0  0  0
   -7.5939    0.8165   -0.2414 F   0  0  0  0  0  0  0  0  0  0  0  0
   -0.3239   -0.2160   -0.2870 N   0  0  1  0  0  0  0  0  0  0  0  0
    4.2924   -1.3918    0.2297 N   0  0  0  0  0  0  0  0  0  0  0  0
    3.7725    0.7646    0.0884 N   0  0  0  0  0  0  0  0  0  0  0  0
    1.8444   -0.8493    0.3429 C   0  0  1  0  0  0  0  0  0  0  0  0
    1.1123   -0.2454    1.5540 C   0  0  0  0  0  0  0  0  0  0  0  0
    1.0029   -0.4281   -0.8694 C   0  0  0  0  0  0  0  0  0  0  0  0
   -0.0765    0.5017    0.9634 C   0  0  0  0  0  0  0  0  0  0  0  0
    3.2976   -0.4540    0.2175 C   0  0  0  0  0  0  0  0  0  0  0  0
   -1.2115    0.5151   -1.1793 C   0  0  0  0  0  0  0  0  0  0  0  0
   -2.6565    0.3541   -0.7883 C   0  0  0  0  0  0  0  0  0  0  0  0
    5.4888   -0.7346    0.0996 C   0  0  0  0  0  0  0  0  0  0  0  0
    5.1377    0.6097    0.0134 C   0  0  0  0  0  0  0  0  0  0  0  0
   -3.3300   -0.8317   -1.0814 C   0  0  0  0  0  0  0  0  0  0  0  0
   -3.3216    1.3901   -0.1324 C   0  0  0  0  0  0  0  0  0  0  0  0
    6.8079   -1.1871    0.0518 C   0  0  0  0  0  0  0  0  0  0  0  0
    6.1498    1.5740   -0.1295 C   0  0  0  0  0  0  0  0  0  0  0  0
   -4.6684   -0.9816   -0.7188 C   0  0  0  0  0  0  0  0  0  0  0  0
   -4.6600    1.2403    0.2302 C   0  0  0  0  0  0  0  0  0  0  0  0
   -5.3335    0.0545   -0.0630 C   0  0  0  0  0  0  0  0  0  0  0  0
    7.8023   -0.2137   -0.0909 C   0  0  0  0  0  0  0  0  0  0  0  0
    7.4814    1.1428   -0.1801 C   0  0  0  0  0  0  0  0  0  0  0  0
   -6.7637   -0.1071    0.3274 C   0  0  0  0  0  0  0  0  0  0  0  0
    1.7883   -1.9435    0.4388 H   0  0  0  0  0  0  0  0  0  0  0  0
    0.7621   -1.0541    2.2077 H   0  0  0  0  0  0  0  0  0  0  0  0
    1.7415    0.4189    2.1558 H   0  0  0  0  0  0  0  0  0  0  0  0
    0.9898   -1.2114   -1.6351 H   0  0  0  0  0  0  0  0  0  0  0  0
    1.3914    0.4921   -1.3260 H   0  0  0  0  0  0  0  0  0  0  0  0
   -0.9340    0.4734    1.6430 H   0  0  0  0  0  0  0  0  0  0  0  0
    0.1983    1.5498    0.7878 H   0  0  0  0  0  0  0  0  0  0  0  0
   -0.9404    1.5770   -1.2537 H   0  0  0  0  0  0  0  0  0  0  0  0
   -1.1157    0.1234   -2.2020 H   0  0  0  0  0  0  0  0  0  0  0  0
    4.1716   -2.3920    0.3185 H   0  0  0  0  0  0  0  0  0  0  0  0
   -2.8225   -1.6462   -1.5917 H   0  0  0  0  0  0  0  0  0  0  0  0
   -2.8079    2.3183    0.1035 H   0  0  0  0  0  0  0  0  0  0  0  0
    7.0546   -2.2404    0.1214 H   0  0  0  0  0  0  0  0  0  0  0  0
    5.9106    2.6303   -0.1997 H   0  0  0  0  0  0  0  0  0  0  0  0
   -5.1746   -1.9133   -0.9558 H   0  0  0  0  0  0  0  0  0  0  0  0
   -5.1696    2.0526    0.7417 H   0  0  0  0  0  0  0  0  0  0  0  0
    8.8447   -0.5198   -0.1330 H   0  0  0  0  0  0  0  0  0  0  0  0
    8.2763    1.8758   -0.2905 H   0  0  0  0  0  0  0  0  0  0  0  0
  1 25  1  0  0  0  0
  2 25  1  0  0  0  0
  3 25  1  0  0  0  0
  4  9  1  0  0  0  0
  4 10  1  0  0  0  0
  4 12  1  0  0  0  0
  5 11  1  0  0  0  0
  5 14  1  0  0  0  0
  5 35  1  0  0  0  0
  6 11  2  0  0  0  0
  6 15  1  0  0  0  0
  7  8  1  0  0  0  0
  7  9  1  0  0  0  0
  7 11  1  0  0  0  0
  7 26  1  0  0  0  0
  8 10  1  0  0  0  0
  8 27  1  0  0  0  0
  8 28  1  0  0  0  0
  9 29  1  0  0  0  0
  9 30  1  0  0  0  0
 10 31  1  0  0  0  0
 10 32  1  0  0  0  0
 12 13  1  0  0  0  0
 12 33  1  0  0  0  0
 12 34  1  0  0  0  0
 13 16  2  0  0  0  0
 13 17  1  0  0  0  0
 14 15  1  0  0  0  0
 14 18  2  0  0  0  0
 15 19  2  0  0  0  0
 16 20  1  0  0  0  0
 16 36  1  0  0  0  0
 17 21  2  0  0  0  0
 17 37  1  0  0  0  0
 18 23  1  0  0  0  0
 18 38  1  0  0  0  0
 19 24  1  0  0  0  0
 19 39  1  0  0  0  0
 20 22  2  0  0  0  0
 20 40  1  0  0  0  0
 21 22  1  0  0  0  0
 21 41  1  0  0  0  0
 22 25  1  0  0  0  0
 23 24  2  0  0  0  0
 23 42  1  0  0  0  0
 24 43  1  0  0  0  0
M  END
> <PUBCHEM_COMPOUND_CID>
51137120

> <PUBCHEM_CONFORMER_RMSD>
0.8

> <PUBCHEM_CONFORMER_DIVERSEORDER>
1
20
10
22
21
13
18
25
16
2
19
12
7
17
8
14
9
15
4
24
11
6
5
3
23

> <PUBCHEM_MMFF94_PARTIAL_CHARGES>
33
1 -0.34
10 0.27
11 0.01
12 0.41
13 -0.14
14 -0.15
15 0.23
16 -0.15
17 -0.15
18 -0.15
19 -0.15
2 -0.34
20 -0.15
21 -0.15
22 -0.14
23 -0.15
24 -0.15
25 1.16
3 -0.34
35 0.27
36 0.15
37 0.15
38 0.15
39 0.15
4 -0.81
40 0.15
41 0.15
42 0.15
43 0.15
5 0.03
6 -0.57
7 0.18
9 0.27

> <PUBCHEM_EFFECTIVE_ROTOR_COUNT>
5

> <PUBCHEM_PHARMACOPHORE_FEATURES>
7
1 4 cation
1 5 donor
3 5 6 11 cation
5 4 7 8 9 10 rings
5 5 6 11 14 15 rings
6 13 16 17 20 21 22 rings
6 14 15 18 19 23 24 rings

> <PUBCHEM_HEAVY_ATOM_COUNT>
25

> <PUBCHEM_ATOM_DEF_STEREO_COUNT>
1

> <PUBCHEM_ATOM_UDEF_STEREO_COUNT>
0

> <PUBCHEM_BOND_DEF_STEREO_COUNT>
0

> <PUBCHEM_BOND_UDEF_STEREO_COUNT>
0

> <PUBCHEM_ISOTOPIC_ATOM_COUNT>
0

> <PUBCHEM_COMPONENT_COUNT>
1

> <PUBCHEM_CACTVS_TAUTO_COUNT>
1

> <PUBCHEM_CONFORMER_ID>
030C4A6000000001

> <PUBCHEM_MMFF94_ENERGY>
47.1606

> <PUBCHEM_FEATURE_SELFOVERLAP>
35.63

> <PUBCHEM_SHAPE_FINGERPRINT>
10 15 18343022190381399343
10299344 5 18201719561064543495
10595046 47 18410571752237988216
106641 1 18333735741227817627
10670039 82 10231764362496284703
10968037 39 18260264153693174455
11315181 36 18410012131475272873
11524674 6 15769772485667411599
11638347 137 16081080464673204936
11646440 116 17095527288323149644
12166972 35 18333450941910230844
12236239 1 18201717345657672428
12516196 113 16805322188733758957
12730499 353 18040714745695989850
12838862 33 16081357588637002243
13533116 47 17023172775022482578
14123256 10 16950563276763806272
14170010 4 18113900485824286188
14251764 18 17846777416699112743
14251764 46 17458063763479565250
14849402 71 18337394962732898932
14856354 85 17703791444540186397
14933364 13 18413107260290195156
15142383 8 15841551864714203242
15183329 4 15841556275260533154
15419008 47 16081361973171092556
15461852 350 13623536761694908467
15716309 27 18409728452267651383
17093844 174 13614232694543306351
18006028 8 11167943563192372178
18335252 98 18408889541928068354
20157964 124 18407760340277629538
20281389 69 18202279199962280456
21095086 128 18411980264845140063
21267235 1 18411139134223301036
21315763 28 18409165485593186208
21521721 280 18334015016653830322
21792961 116 17417812786407896340
220451 1 17632290172946953014
22224240 67 16588023524251593728
22956985 138 13842199835115328680
23035841 295 18130786758900356995
23516275 137 18057906682816029511
23522609 53 17916604140252166089
23536379 177 18342454825243691692
23569943 247 17171229613173257050
2747138 104 17385449825206426812
28498 318 11671789260641273584
335352 9 15697994154307814433
34797466 226 18272093799238459572
4073 2 18187367674964479554
4325135 7 18408603664683439996
4339292 15 11455589008687519749
5283156 175 17203331088207426350
5385378 56 15626235584699143511
5758199 1 17749108880929697146
59682541 35 17167866399981473104
59755656 215 13830139377241409884
59755656 520 18333725840484947938

> <PUBCHEM_SHAPE_MULTIPOLES>
477.72
24.23
1.31
1.03
1.34
0.12
-0.17
0.78
-1.22
-0.63
0.06
0.86
-0.04
-0.45

> <PUBCHEM_SHAPE_SELFOVERLAP>
1050.419

> <PUBCHEM_SHAPE_VOLUME>
262.1

> <PUBCHEM_COORDINATE_TYPE>
2
5
10

$$$$
