56775555
  -OEChem-12032416273D

 42 44  0     0  0  0  0  0  0999 V2000
    0.3314   -3.4600    1.2775 O   0  0  0  0  0  0  0  0  0  0  0  0
   -2.8660    1.3001   -0.8985 O   0  0  0  0  0  0  0  0  0  0  0  0
    1.8651    2.3730   -0.3378 O   0  0  0  0  0  0  0  0  0  0  0  0
   -5.0153    1.4712    1.1980 O   0  0  0  0  0  0  0  0  0  0  0  0
    0.8762   -0.6535    0.2675 N   0  0  0  0  0  0  0  0  0  0  0  0
   -1.6705    0.6793   -1.2394 N   0  0  0  0  0  0  0  0  0  0  0  0
    0.0658   -1.8262   -0.0702 C   0  0  0  0  0  0  0  0  0  0  0  0
    0.9402   -3.0714    0.0250 C   0  0  0  0  0  0  0  0  0  0  0  0
   -0.5925   -2.3506    1.2010 C   0  0  0  0  0  0  0  0  0  0  0  0
   -0.7767   -1.6213   -1.2918 C   0  0  0  0  0  0  0  0  0  0  0  0
    1.8851   -0.4509   -0.7725 C   0  0  0  0  0  0  0  0  0  0  0  0
   -1.8823   -0.6217   -1.0217 C   0  0  0  0  0  0  0  0  0  0  0  0
    3.0725    0.3031   -0.2715 C   0  0  0  0  0  0  0  0  0  0  0  0
   -3.1802   -0.8793   -0.5476 C   0  0  0  0  0  0  0  0  0  0  0  0
   -3.7571    0.3617   -0.4880 C   0  0  0  0  0  0  0  0  0  0  0  0
    3.0103    1.6827   -0.0759 C   0  0  0  0  0  0  0  0  0  0  0  0
    4.2533   -0.3874    0.0015 C   0  0  0  0  0  0  0  0  0  0  0  0
   -5.0829    0.8478   -0.0875 C   0  0  0  0  0  0  0  0  0  0  0  0
    4.1289    2.3719    0.3926 C   0  0  0  0  0  0  0  0  0  0  0  0
    5.3720    0.3017    0.4698 C   0  0  0  0  0  0  0  0  0  0  0  0
    5.3098    1.6813    0.6655 C   0  0  0  0  0  0  0  0  0  0  0  0
   -6.2872    1.9484    1.6040 C   0  0  0  0  0  0  0  0  0  0  0  0
    0.7578   -3.8326   -0.7417 H   0  0  0  0  0  0  0  0  0  0  0  0
    2.0215   -2.9693    0.1570 H   0  0  0  0  0  0  0  0  0  0  0  0
   -0.5377   -1.7204    2.0951 H   0  0  0  0  0  0  0  0  0  0  0  0
   -1.6154   -2.7267    1.1004 H   0  0  0  0  0  0  0  0  0  0  0  0
   -1.2557   -2.5674   -1.5798 H   0  0  0  0  0  0  0  0  0  0  0  0
   -0.1993   -1.3161   -2.1719 H   0  0  0  0  0  0  0  0  0  0  0  0
    0.3527    0.2074    0.4210 H   0  0  0  0  0  0  0  0  0  0  0  0
    1.4451    0.1173   -1.6033 H   0  0  0  0  0  0  0  0  0  0  0  0
    2.2383   -1.3761   -1.2431 H   0  0  0  0  0  0  0  0  0  0  0  0
   -3.6327   -1.8252   -0.2893 H   0  0  0  0  0  0  0  0  0  0  0  0
    4.3175   -1.4627   -0.1432 H   0  0  0  0  0  0  0  0  0  0  0  0
   -5.4507    1.5722   -0.8239 H   0  0  0  0  0  0  0  0  0  0  0  0
   -5.7914    0.0120   -0.0459 H   0  0  0  0  0  0  0  0  0  0  0  0
    4.0947    3.4467    0.5496 H   0  0  0  0  0  0  0  0  0  0  0  0
    6.2913   -0.2360    0.6829 H   0  0  0  0  0  0  0  0  0  0  0  0
    6.1809    2.2177    1.0304 H   0  0  0  0  0  0  0  0  0  0  0  0
    2.0105    3.3148   -0.1432 H   0  0  0  0  0  0  0  0  0  0  0  0
   -6.6593    2.7000    0.9009 H   0  0  0  0  0  0  0  0  0  0  0  0
   -7.0009    1.1227    1.6850 H   0  0  0  0  0  0  0  0  0  0  0  0
   -6.1829    2.4147    2.5874 H   0  0  0  0  0  0  0  0  0  0  0  0
  1  8  1  0  0  0  0
  1  9  1  0  0  0  0
  2  6  1  0  0  0  0
  2 15  1  0  0  0  0
  3 16  1  0  0  0  0
  3 39  1  0  0  0  0
  4 18  1  0  0  0  0
  4 22  1  0  0  0  0
  5  7  1  0  0  0  0
  5 11  1  0  0  0  0
  5 29  1  0  0  0  0
  6 12  2  0  0  0  0
  7  8  1  0  0  0  0
  7  9  1  0  0  0  0
  7 10  1  0  0  0  0
  8 23  1  0  0  0  0
  8 24  1  0  0  0  0
  9 25  1  0  0  0  0
  9 26  1  0  0  0  0
 10 12  1  0  0  0  0
 10 27  1  0  0  0  0
 10 28  1  0  0  0  0
 11 13  1  0  0  0  0
 11 30  1  0  0  0  0
 11 31  1  0  0  0  0
 12 14  1  0  0  0  0
 13 16  1  0  0  0  0
 13 17  2  0  0  0  0
 14 15  2  0  0  0  0
 14 32  1  0  0  0  0
 15 18  1  0  0  0  0
 16 19  2  0  0  0  0
 17 20  1  0  0  0  0
 17 33  1  0  0  0  0
 18 34  1  0  0  0  0
 18 35  1  0  0  0  0
 19 21  1  0  0  0  0
 19 36  1  0  0  0  0
 20 21  2  0  0  0  0
 20 37  1  0  0  0  0
 21 38  1  0  0  0  0
 22 40  1  0  0  0  0
 22 41  1  0  0  0  0
 22 42  1  0  0  0  0
M  END
> <PUBCHEM_COMPOUND_CID>
56775555

> <PUBCHEM_CONFORMER_RMSD>
0.8

> <PUBCHEM_CONFORMER_DIVERSEORDER>
3
169
49
102
33
153
203
174
205
217
104
18
31
137
136
151
209
149
36
193
78
117
106
100
48
79
159
150
178
42
165
154
184
57
51
25
168
156
147
94
23
160
148
125
32
43
14
118
194
34
12
96
176
155
88
152
21
179
132
124
35
17
212
192
133
19
161
92
52
189
81
197
84
45
175
187
141
63
120
77
20
162
180
210
76
13
103
65
91
207
72
129
85
66
60
157
128
138
211
114
131
196
58
38
170
190
54
164
39
145
142
50
59
105
121
61
64
71
26
173
172
116
56
47
95
195
216
75
181
82
87
215
110
186
199
62
167
109
99
134
177
101
127
213
111
73
183
10
146
22
135
115
30
53
198
143
200
70
202
29
166
40
83
163
7
201
140
98
206
97
67
171
86
55
89
16
188
74
108
9
24
46
11
119
5
182
130
185
191
80
68
93
113
44
28
126
27
122
2
15
4
69
112
1
90
107
208
123
158
204
41
8
37
214
139
144
6

> <PUBCHEM_MMFF94_PARTIAL_CHARGES>
29
1 -0.52
10 0.18
11 0.41
12 0.11
13 -0.14
14 -0.15
15 -0.04
16 0.08
17 -0.15
18 0.46
19 -0.15
2 -0.02
20 -0.15
21 -0.15
22 0.28
29 0.36
3 -0.53
32 0.15
33 0.15
36 0.15
37 0.15
38 0.15
39 0.45
4 -0.56
5 -0.84
6 -0.41
7 0.21
8 0.26
9 0.26

> <PUBCHEM_EFFECTIVE_ROTOR_COUNT>
7.8

> <PUBCHEM_PHARMACOPHORE_FEATURES>
9
1 1 acceptor
1 3 donor
1 4 acceptor
1 5 cation
1 5 donor
1 6 acceptor
4 1 7 8 9 rings
5 2 6 12 14 15 rings
6 13 16 17 19 20 21 rings

> <PUBCHEM_HEAVY_ATOM_COUNT>
22

> <PUBCHEM_ATOM_DEF_STEREO_COUNT>
0

> <PUBCHEM_ATOM_UDEF_STEREO_COUNT>
0

> <PUBCHEM_BOND_DEF_STEREO_COUNT>
0

> <PUBCHEM_BOND_UDEF_STEREO_COUNT>
0

> <PUBCHEM_ISOTOPIC_ATOM_COUNT>
0

> <PUBCHEM_COMPONENT_COUNT>
1

> <PUBCHEM_CACTVS_TAUTO_COUNT>
3

> <PUBCHEM_CONFORMER_ID>
0362538300000003

> <PUBCHEM_MMFF94_ENERGY>
51.2735

> <PUBCHEM_FEATURE_SELFOVERLAP>
45.671

> <PUBCHEM_SHAPE_FINGERPRINT>
10382601 240 18335981952582337903
10906281 52 18340493365488611940
12390115 104 18338810020868878167
12633257 1 18043228323608032548
12895836 83 16845285051679656893
13103583 49 13479126848815822981
13583140 156 15792552175818632692
14251764 30 12974151944752089632
15142526 21 18411140255679062753
15238133 3 18337393842125742908
15295992 7 18337110176203475480
15880784 105 12540691509729691884
19784866 9 18339637850092818771
21033648 29 17844234337099780208
21041028 32 17831851361552824494
21401589 2 18337949099022161985
21524375 3 18335129929797433622
21731228 192 18261108612176319646
22182937 141 18265050412917152874
22224240 67 18260830406434254995
23559900 14 18343013424864941914
23845131 108 18260266339763671315
2838139 119 17774999111193930769
314194 84 8646481959678642141
3680242 22 18336822005478395056
392239 28 18263937699340754627
4340502 62 18261404317112684299
474 4 18411416206863716983
5104073 3 18189321546045045840
5385378 56 18337111159925546898
58807428 26 18186517713330677875
59124914 9 18342457028108617496
633830 44 18342735221582569222
7226269 152 18272358803005417360
81228 2 17317879514405054894

> <PUBCHEM_SHAPE_MULTIPOLES>
419.31
12.28
3.27
1.22
5.52
1.62
0.18
-12.05
4.06
-0.34
1.18
1.2
0.14
-0.92

> <PUBCHEM_SHAPE_SELFOVERLAP>
888.366

> <PUBCHEM_SHAPE_VOLUME>
236.8

> <PUBCHEM_COORDINATE_TYPE>
2
5
10

$$$$
