40777105
  -OEChem-12032416183D

 56 59  0     1  0  0  0  0  0999 V2000
    2.9413    2.6556    1.4274 Br  0  0  0  0  0  0  0  0  0  0  0  0
   -5.6564    0.5215    1.6002 O   0  0  0  0  0  0  0  0  0  0  0  0
   -7.2222    2.0026   -0.0129 O   0  0  0  0  0  0  0  0  0  0  0  0
   -1.7959   -1.9815    1.5197 N   0  0  2  0  0  0  0  0  0  0  0  0
   -3.7344    1.0354    0.3924 N   0  0  0  0  0  0  0  0  0  0  0  0
    0.8577   -0.4829   -1.8765 N   0  0  0  0  0  0  0  0  0  0  0  0
    2.9350    0.7285   -1.7196 N   0  0  0  0  0  0  0  0  0  0  0  0
   -1.1529   -2.3198   -0.9814 C   0  0  2  0  0  0  0  0  0  0  0  0
    0.1126   -2.0242   -0.1297 C   0  0  2  0  0  0  0  0  0  0  0  0
   -2.6636   -1.1406    0.6536 C   0  0  2  0  0  0  0  0  0  0  0  0
   -2.1652   -1.1680   -0.8074 C   0  0  0  0  0  0  0  0  0  0  0  0
   -1.8026   -3.5883   -0.3879 C   0  0  0  0  0  0  0  0  0  0  0  0
   -0.3693   -1.6371    1.2976 C   0  0  0  0  0  0  0  0  0  0  0  0
   -1.9967   -3.3969    1.1265 C   0  0  0  0  0  0  0  0  0  0  0  0
   -2.8038    0.2888    1.1815 C   0  0  0  0  0  0  0  0  0  0  0  0
    1.1357   -1.0410   -0.6801 C   0  0  0  0  0  0  0  0  0  0  0  0
    2.2767   -0.7684    0.0465 C   0  0  0  0  0  0  0  0  0  0  0  0
    3.1495    0.1332   -0.5281 C   0  0  0  0  0  0  0  0  0  0  0  0
   -5.0998    1.0932    0.6667 C   0  0  0  0  0  0  0  0  0  0  0  0
    1.7866    0.3800   -2.3305 C   0  0  0  0  0  0  0  0  0  0  0  0
    4.3800    0.5024    0.1300 C   0  0  0  0  0  0  0  0  0  0  0  0
   -5.8468    1.9558   -0.3280 C   0  0  0  0  0  0  0  0  0  0  0  0
    1.5154    1.0163   -3.6517 C   0  0  0  0  0  0  0  0  0  0  0  0
    4.4525    1.5796    1.0130 C   0  0  0  0  0  0  0  0  0  0  0  0
    5.5191   -0.2558   -0.1405 C   0  0  0  0  0  0  0  0  0  0  0  0
    5.6643    1.8988    1.6257 C   0  0  0  0  0  0  0  0  0  0  0  0
    6.7310    0.0634    0.4722 C   0  0  0  0  0  0  0  0  0  0  0  0
    6.8036    1.1406    1.3553 C   0  0  0  0  0  0  0  0  0  0  0  0
   -7.9511    2.8088   -0.9340 C   0  0  0  0  0  0  0  0  0  0  0  0
   -0.9107   -2.4732   -2.0383 H   0  0  0  0  0  0  0  0  0  0  0  0
    0.6616   -2.9757   -0.0517 H   0  0  0  0  0  0  0  0  0  0  0  0
   -3.6739   -1.5760    0.6737 H   0  0  0  0  0  0  0  0  0  0  0  0
   -1.7004   -0.2186   -1.0952 H   0  0  0  0  0  0  0  0  0  0  0  0
   -3.0178   -1.3233   -1.4802 H   0  0  0  0  0  0  0  0  0  0  0  0
   -1.1712   -4.4649   -0.5743 H   0  0  0  0  0  0  0  0  0  0  0  0
   -2.7685   -3.7743   -0.8732 H   0  0  0  0  0  0  0  0  0  0  0  0
    0.2418   -2.1680    2.0400 H   0  0  0  0  0  0  0  0  0  0  0  0
   -0.2063   -0.5740    1.5092 H   0  0  0  0  0  0  0  0  0  0  0  0
   -3.0010   -3.7281    1.4182 H   0  0  0  0  0  0  0  0  0  0  0  0
   -1.3025   -4.0394    1.6831 H   0  0  0  0  0  0  0  0  0  0  0  0
   -1.8552    0.8339    1.1483 H   0  0  0  0  0  0  0  0  0  0  0  0
   -3.1472    0.2767    2.2225 H   0  0  0  0  0  0  0  0  0  0  0  0
   -3.3748    1.5445   -0.4100 H   0  0  0  0  0  0  0  0  0  0  0  0
    2.4779   -1.2365    1.0028 H   0  0  0  0  0  0  0  0  0  0  0  0
   -5.4220    2.9659   -0.2987 H   0  0  0  0  0  0  0  0  0  0  0  0
   -5.7065    1.5300   -1.3284 H   0  0  0  0  0  0  0  0  0  0  0  0
    2.0200    0.4540   -4.4429 H   0  0  0  0  0  0  0  0  0  0  0  0
    0.4419    1.0337   -3.8645 H   0  0  0  0  0  0  0  0  0  0  0  0
    1.8807    2.0478   -3.6651 H   0  0  0  0  0  0  0  0  0  0  0  0
    5.4830   -1.0990   -0.8265 H   0  0  0  0  0  0  0  0  0  0  0  0
    5.7416    2.7343    2.3169 H   0  0  0  0  0  0  0  0  0  0  0  0
    7.6181   -0.5268    0.2616 H   0  0  0  0  0  0  0  0  0  0  0  0
    7.7472    1.3890    1.8323 H   0  0  0  0  0  0  0  0  0  0  0  0
   -9.0031    2.8040   -0.6367 H   0  0  0  0  0  0  0  0  0  0  0  0
   -7.8706    2.4003   -1.9459 H   0  0  0  0  0  0  0  0  0  0  0  0
   -7.5850    3.8398   -0.9121 H   0  0  0  0  0  0  0  0  0  0  0  0
  1 24  1  0  0  0  0
  2 19  2  0  0  0  0
  3 22  1  0  0  0  0
  3 29  1  0  0  0  0
  4 10  1  0  0  0  0
  4 13  1  0  0  0  0
  4 14  1  0  0  0  0
  5 15  1  0  0  0  0
  5 19  1  0  0  0  0
  5 43  1  0  0  0  0
  6 16  2  0  0  0  0
  6 20  1  0  0  0  0
  7 18  1  0  0  0  0
  7 20  2  0  0  0  0
  8  9  1  0  0  0  0
  8 11  1  0  0  0  0
  8 12  1  0  0  0  0
  8 30  1  0  0  0  0
  9 13  1  0  0  0  0
  9 16  1  0  0  0  0
  9 31  1  0  0  0  0
 10 11  1  0  0  0  0
 10 15  1  0  0  0  0
 10 32  1  0  0  0  0
 11 33  1  0  0  0  0
 11 34  1  0  0  0  0
 12 14  1  0  0  0  0
 12 35  1  0  0  0  0
 12 36  1  0  0  0  0
 13 37  1  0  0  0  0
 13 38  1  0  0  0  0
 14 39  1  0  0  0  0
 14 40  1  0  0  0  0
 15 41  1  0  0  0  0
 15 42  1  0  0  0  0
 16 17  1  0  0  0  0
 17 18  2  0  0  0  0
 17 44  1  0  0  0  0
 18 21  1  0  0  0  0
 19 22  1  0  0  0  0
 20 23  1  0  0  0  0
 21 24  1  0  0  0  0
 21 25  2  0  0  0  0
 22 45  1  0  0  0  0
 22 46  1  0  0  0  0
 23 47  1  0  0  0  0
 23 48  1  0  0  0  0
 23 49  1  0  0  0  0
 24 26  2  0  0  0  0
 25 27  1  0  0  0  0
 25 50  1  0  0  0  0
 26 28  1  0  0  0  0
 26 51  1  0  0  0  0
 27 28  2  0  0  0  0
 27 52  1  0  0  0  0
 28 53  1  0  0  0  0
 29 54  1  0  0  0  0
 29 55  1  0  0  0  0
 29 56  1  0  0  0  0
M  END
> <PUBCHEM_COMPOUND_CID>
40777105

> <PUBCHEM_CONFORMER_RMSD>
1

> <PUBCHEM_CONFORMER_DIVERSEORDER>
1
78
60
74
40
49
79
18
9
25
48
68
4
24
45
55
63
61
77
58
73
70
51
16
53
59
76
26
66
57
28
17
5
65
36
47
71
34
39
52
35
67
62
56
3
10
19
7
46
23
50
37
21
20
31
12
44
32
15
54
33
72
29
41
64
30
69
43
38
27
13
11
42
75
14
6
22
2
8

> <PUBCHEM_MMFF94_PARTIAL_CHARGES>
31
1 -0.11
10 0.27
13 0.27
14 0.27
15 0.3
16 0.17
17 -0.15
18 0.31
19 0.57
2 -0.57
20 0.48
22 0.34
23 0.14
24 0.11
25 -0.15
26 -0.15
27 -0.15
28 -0.15
29 0.28
3 -0.56
4 -0.81
43 0.37
44 0.15
5 -0.73
50 0.15
51 0.15
52 0.15
53 0.15
6 -0.62
7 -0.62
9 0.14

> <PUBCHEM_EFFECTIVE_ROTOR_COUNT>
8.2

> <PUBCHEM_PHARMACOPHORE_FEATURES>
10
1 1 hydrophobe
1 2 acceptor
1 3 acceptor
1 4 cation
1 5 donor
1 6 acceptor
3 6 7 20 cation
6 21 24 25 26 27 28 rings
6 6 7 16 17 18 20 rings
8 4 8 9 10 11 12 13 14 rings

> <PUBCHEM_HEAVY_ATOM_COUNT>
29

> <PUBCHEM_ATOM_DEF_STEREO_COUNT>
3

> <PUBCHEM_ATOM_UDEF_STEREO_COUNT>
0

> <PUBCHEM_BOND_DEF_STEREO_COUNT>
0

> <PUBCHEM_BOND_UDEF_STEREO_COUNT>
0

> <PUBCHEM_ISOTOPIC_ATOM_COUNT>
0

> <PUBCHEM_COMPONENT_COUNT>
1

> <PUBCHEM_CACTVS_TAUTO_COUNT>
2

> <PUBCHEM_CONFORMER_ID>
026E359100000001

> <PUBCHEM_MMFF94_ENERGY>
81.0927

> <PUBCHEM_FEATURE_SELFOVERLAP>
50.752

> <PUBCHEM_SHAPE_FINGERPRINT>
10928967 22 14418681653990440208
11069576 57 14044916801764170908
11135609 127 17976808802318223397
11370993 144 18411976997176686086
11374522 165 17170372049938361261
11961588 58 17704067387398819171
12403259 118 17749683960540811547
12422481 6 17894351064113290326
12553582 1 16226594304401132490
12592606 108 8502357933752750153
12633257 1 16371014039158280771
12788726 201 15361024605819920110
13103583 49 16153713149566421938
13150687 139 18130790006275643007
13383661 66 9295001414549571181
13402501 40 18202846556294009848
13540713 5 17315089984527558118
13583140 156 17774160253306441966
13911987 19 15338843126960643528
14123256 34 9511453429861724345
14251764 30 12251904810569010288
14251764 38 18127126609224826760
14767858 380 13973964307084831989
14950920 106 16009325317436231321
15238133 3 18187937195958952612
15669420 48 16415471671711195013
15684973 49 18119259599755797142
15721738 202 10665231445341670134
17492 54 15267339617662828103
17980427 23 18262237854042096004
20554085 129 18336265652737353137
20567600 254 18410009906281183001
20715895 44 18202566176649672840
20775530 9 10881678052810717097
21033648 29 18260259733359820404
21304303 282 18341323496583681415
21403212 168 17822287947100931691
21859007 373 18189054196424454708
23522609 53 16444215134253785198
23559900 14 17986139420798978550
2838139 119 18060415802825312649
33382 64 12396293756119370136
3472631 163 18060135444666504541
3737641 26 12252167559562709576
437815 12 9151162169816683389
5104073 3 17314232353047360744
5969126 39 17772181170989310559
6009941 240 18411134775696360674
6058803 2 17026018512092906470
9981440 41 18340774822658394611

> <PUBCHEM_SHAPE_MULTIPOLES>
571.09
17.09
3.46
2.2
10.86
1.34
-1.98
-18.44
4.27
4.79
0.8
-1.12
-0.53
2.21

> <PUBCHEM_SHAPE_SELFOVERLAP>
1206.361

> <PUBCHEM_SHAPE_VOLUME>
328.9

> <PUBCHEM_COORDINATE_TYPE>
2
5
10

$$$$
