56775119
  -OEChem-12032416213D

 46 49  0     1  0  0  0  0  0999 V2000
   -1.9184    2.2318   -0.2732 O   0  0  0  0  0  0  0  0  0  0  0  0
   -5.2208    1.4402    0.6672 O   0  0  0  0  0  0  0  0  0  0  0  0
   -5.8009   -1.1759   -0.7416 O   0  0  0  0  0  0  0  0  0  0  0  0
    5.6594    1.3453   -0.5551 O   0  0  0  0  0  0  0  0  0  0  0  0
    6.3421   -0.9506   -0.8200 O   0  0  0  0  0  0  0  0  0  0  0  0
    0.2294   -0.1461    0.4936 N   0  0  1  0  0  0  0  0  0  0  0  0
   -3.4158    0.0055    0.3511 N   0  0  0  0  0  0  0  0  0  0  0  0
   -2.0194   -0.1680   -0.0392 C   0  0  1  0  0  0  0  0  0  0  0  0
   -1.4112    1.0074   -0.7979 C   0  0  2  0  0  0  0  0  0  0  0  0
   -1.0690   -0.3088    1.1466 C   0  0  0  0  0  0  0  0  0  0  0  0
    0.0858    0.9461   -0.4778 C   0  0  0  0  0  0  0  0  0  0  0  0
    1.3112    0.0762    1.4397 C   0  0  0  0  0  0  0  0  0  0  0  0
   -4.0758    1.2278    0.2654 C   0  0  0  0  0  0  0  0  0  0  0  0
   -4.0872   -1.1469    0.9378 C   0  0  0  0  0  0  0  0  0  0  0  0
   -3.3127    2.3189   -0.4545 C   0  0  0  0  0  0  0  0  0  0  0  0
    2.6555   -0.2355    0.8376 C   0  0  0  0  0  0  0  0  0  0  0  0
   -4.8027   -1.9719   -0.1162 C   0  0  0  0  0  0  0  0  0  0  0  0
    3.4952    0.8067    0.4373 C   0  0  0  0  0  0  0  0  0  0  0  0
    3.0538   -1.5750    0.6829 C   0  0  0  0  0  0  0  0  0  0  0  0
    4.7166    0.4710   -0.1098 C   0  0  0  0  0  0  0  0  0  0  0  0
    4.2962   -1.8877    0.1262 C   0  0  0  0  0  0  0  0  0  0  0  0
    5.1063   -0.8400   -0.2611 C   0  0  0  0  0  0  0  0  0  0  0  0
   -6.5044   -1.9082   -1.7358 C   0  0  0  0  0  0  0  0  0  0  0  0
    6.6868    0.4377   -1.0033 C   0  0  0  0  0  0  0  0  0  0  0  0
   -1.9559   -1.0674   -0.6673 H   0  0  0  0  0  0  0  0  0  0  0  0
   -1.6022    0.9576   -1.8762 H   0  0  0  0  0  0  0  0  0  0  0  0
   -1.2550    0.4685    1.8996 H   0  0  0  0  0  0  0  0  0  0  0  0
   -1.1508   -1.2883    1.6278 H   0  0  0  0  0  0  0  0  0  0  0  0
    0.6580    0.6968   -1.3778 H   0  0  0  0  0  0  0  0  0  0  0  0
    0.4419    1.9110   -0.0967 H   0  0  0  0  0  0  0  0  0  0  0  0
    1.1922   -0.5911    2.3052 H   0  0  0  0  0  0  0  0  0  0  0  0
    1.2908    1.0908    1.8598 H   0  0  0  0  0  0  0  0  0  0  0  0
   -4.8223   -0.7831    1.6653 H   0  0  0  0  0  0  0  0  0  0  0  0
   -3.3659   -1.7638    1.4814 H   0  0  0  0  0  0  0  0  0  0  0  0
   -3.5641    2.2899   -1.5207 H   0  0  0  0  0  0  0  0  0  0  0  0
   -3.6380    3.2848   -0.0549 H   0  0  0  0  0  0  0  0  0  0  0  0
   -5.2734   -2.8402    0.3589 H   0  0  0  0  0  0  0  0  0  0  0  0
   -4.0922   -2.3271   -0.8717 H   0  0  0  0  0  0  0  0  0  0  0  0
    3.2030    1.8454    0.5482 H   0  0  0  0  0  0  0  0  0  0  0  0
    2.3965   -2.3827    0.9960 H   0  0  0  0  0  0  0  0  0  0  0  0
    4.6070   -2.9191    0.0050 H   0  0  0  0  0  0  0  0  0  0  0  0
   -7.2563   -1.2504   -2.1798 H   0  0  0  0  0  0  0  0  0  0  0  0
   -7.0126   -2.7691   -1.2908 H   0  0  0  0  0  0  0  0  0  0  0  0
   -5.8211   -2.2390   -2.5239 H   0  0  0  0  0  0  0  0  0  0  0  0
    7.6075    0.6472   -0.4466 H   0  0  0  0  0  0  0  0  0  0  0  0
    6.8717    0.6156   -2.0689 H   0  0  0  0  0  0  0  0  0  0  0  0
  1  9  1  0  0  0  0
  1 15  1  0  0  0  0
  2 13  2  0  0  0  0
  3 17  1  0  0  0  0
  3 23  1  0  0  0  0
  4 20  1  0  0  0  0
  4 24  1  0  0  0  0
  5 22  1  0  0  0  0
  5 24  1  0  0  0  0
  6 10  1  0  0  0  0
  6 11  1  0  0  0  0
  6 12  1  0  0  0  0
  7  8  1  0  0  0  0
  7 13  1  0  0  0  0
  7 14  1  0  0  0  0
  8  9  1  0  0  0  0
  8 10  1  0  0  0  0
  8 25  1  0  0  0  0
  9 11  1  0  0  0  0
  9 26  1  0  0  0  0
 10 27  1  0  0  0  0
 10 28  1  0  0  0  0
 11 29  1  0  0  0  0
 11 30  1  0  0  0  0
 12 16  1  0  0  0  0
 12 31  1  0  0  0  0
 12 32  1  0  0  0  0
 13 15  1  0  0  0  0
 14 17  1  0  0  0  0
 14 33  1  0  0  0  0
 14 34  1  0  0  0  0
 15 35  1  0  0  0  0
 15 36  1  0  0  0  0
 16 18  2  0  0  0  0
 16 19  1  0  0  0  0
 17 37  1  0  0  0  0
 17 38  1  0  0  0  0
 18 20  1  0  0  0  0
 18 39  1  0  0  0  0
 19 21  2  0  0  0  0
 19 40  1  0  0  0  0
 20 22  2  0  0  0  0
 21 22  1  0  0  0  0
 21 41  1  0  0  0  0
 23 42  1  0  0  0  0
 23 43  1  0  0  0  0
 23 44  1  0  0  0  0
 24 45  1  0  0  0  0
 24 46  1  0  0  0  0
M  END
> <PUBCHEM_COMPOUND_CID>
56775119

> <PUBCHEM_CONFORMER_RMSD>
0.8

> <PUBCHEM_CONFORMER_DIVERSEORDER>
1
41
19
87
5
103
80
129
98
79
44
67
124
138
126
137
46
139
91
55
81
97
120
74
147
28
119
59
95
24
88
118
102
50
4
132
141
10
117
121
77
78
45
104
128
60
93
135
70
39
108
86
52
109
116
151
85
15
2
101
115
144
149
69
82
114
13
105
83
32
112
142
94
110
33
72
57
136
20
56
100
36
53
146
140
48
148
58
143
62
73
47
64
12
18
34
106
130
66
134
27
122
84
6
61
29
14
107
71
8
76
43
21
131
31
25
63
51
42
30
89
99
65
90
145
92
127
133
9
23
38
37
113
17
150
152
96
54
123
35
26
40
11
22
68
125
3
7
16
49
75
111

> <PUBCHEM_MMFF94_PARTIAL_CHARGES>
27
1 -0.56
10 0.27
11 0.27
12 0.41
13 0.57
14 0.3
15 0.34
16 -0.14
17 0.28
18 -0.15
19 -0.15
2 -0.57
20 0.08
21 -0.15
22 0.08
23 0.28
24 0.56
3 -0.56
39 0.15
4 -0.36
40 0.15
41 0.15
5 -0.36
6 -0.81
7 -0.66
8 0.3
9 0.28

> <PUBCHEM_EFFECTIVE_ROTOR_COUNT>
6.8

> <PUBCHEM_PHARMACOPHORE_FEATURES>
10
1 1 acceptor
1 2 acceptor
1 3 acceptor
1 4 acceptor
1 5 acceptor
1 6 cation
5 4 5 20 22 24 rings
5 6 8 9 10 11 rings
6 1 7 8 9 13 15 rings
6 16 18 19 20 21 22 rings

> <PUBCHEM_HEAVY_ATOM_COUNT>
24

> <PUBCHEM_ATOM_DEF_STEREO_COUNT>
2

> <PUBCHEM_ATOM_UDEF_STEREO_COUNT>
0

> <PUBCHEM_BOND_DEF_STEREO_COUNT>
0

> <PUBCHEM_BOND_UDEF_STEREO_COUNT>
0

> <PUBCHEM_ISOTOPIC_ATOM_COUNT>
0

> <PUBCHEM_COMPONENT_COUNT>
1

> <PUBCHEM_CACTVS_TAUTO_COUNT>
2

> <PUBCHEM_CONFORMER_ID>
036251CF00000001

> <PUBCHEM_MMFF94_ENERGY>
64.173

> <PUBCHEM_FEATURE_SELFOVERLAP>
51.058

> <PUBCHEM_SHAPE_FINGERPRINT>
10366900 7 18187361055918249057
10595046 47 18335703819475142936
11524674 6 16200432485911718815
12107183 9 17469598512692194840
12236239 1 18202569466963541984
12596602 18 16486974028718702483
12730499 353 18041291972046616434
13288520 33 18201438095421260475
13668630 136 17418381285638503462
13782708 43 17846495958707521327
14251764 30 17561082522644953794
14528608 73 18260832600988391802
15183329 4 18335138678851244890
15250474 111 18188478099571703891
15348495 7 11671771702256045670
17834072 33 18334860493945908016
17844677 252 18273218607643723960
1813 80 15482671261024047496
18222031 100 18338504339936483243
21150785 3 18113614621021681791
21236236 1 18410293601782190539
21267235 1 18335142038269953427
21424621 283 12541236837965067431
21623969 137 16845298232902757206
221357 26 18409729577981833416
22950370 63 18342176648216549016
2297311 6 18343023294008815241
2303208 19 17275102838374377938
23081809 10 18260828172560806778
23522609 53 18127438750294749304
23559900 14 18115586096836136017
3004659 81 18263085419153009698
3009799 131 17095516318881483151
335352 9 18409162217872089173
34797466 226 18342186548596272764
4073 2 17822585953559889098
4214541 1 18336548226735042312
4325135 7 18260831514087528454
465052 167 16917069996687651318
497634 4 18411419492899073789
5104073 3 18114463358193892744
542803 24 18113339691632853648
7226269 152 8070038756939047103
7495541 125 18130785672658733888
77779 3 18334576789870627792

> <PUBCHEM_SHAPE_MULTIPOLES>
454.6
17.13
2.11
1.16
5.4
0.15
-0.06
-4.91
-6.32
-2.29
-0.37
-0.55
-0.26
-1.15

> <PUBCHEM_SHAPE_SELFOVERLAP>
977.458

> <PUBCHEM_SHAPE_VOLUME>
252.4

> <PUBCHEM_COORDINATE_TYPE>
2
5
10

$$$$
