38031153
  -OEChem-12032416413D

 72 74  0     1  0  0  0  0  0999 V2000
    3.2947    1.1563    0.2684 O   0  0  0  0  0  0  0  0  0  0  0  0
   -7.8184    2.2750    0.4748 O   0  0  0  0  0  0  0  0  0  0  0  0
   -2.2856   -1.0710   -0.1766 N   0  0  0  0  0  0  0  0  0  0  0  0
   -5.2955    1.1341   -0.1847 N   0  0  0  0  0  0  0  0  0  0  0  0
    4.1255    0.3141    2.1670 N   0  0  0  0  0  0  0  0  0  0  0  0
    5.1062    1.0912    1.5793 N   0  0  0  0  0  0  0  0  0  0  0  0
    0.5004   -1.7707   -1.0607 C   0  0  1  0  0  0  0  0  0  0  0  0
   -0.5351   -2.7669   -0.4815 C   0  0  1  0  0  0  0  0  0  0  0  0
    1.8646   -1.9590   -0.3798 C   0  0  0  0  0  0  0  0  0  0  0  0
    1.7883   -1.7522    1.1448 C   0  0  2  0  0  0  0  0  0  0  0  0
    0.6519   -1.9255   -2.5772 C   0  0  0  0  0  0  0  0  0  0  0  0
    0.6185   -2.4963    1.7560 C   0  0  0  0  0  0  0  0  0  0  0  0
   -0.4040   -2.9540    1.0119 C   0  0  0  0  0  0  0  0  0  0  0  0
   -1.9667   -2.3347   -0.8182 C   0  0  0  0  0  0  0  0  0  0  0  0
    1.7355   -0.2616    1.4981 C   0  0  0  0  0  0  0  0  0  0  0  0
    1.1629   -0.6284   -3.1961 C   0  0  0  0  0  0  0  0  0  0  0  0
    1.5873   -3.0855   -2.9027 C   0  0  0  0  0  0  0  0  0  0  0  0
    0.6728   -2.7429    3.2381 C   0  0  0  0  0  0  0  0  0  0  0  0
    3.0866    0.3813    1.3677 C   0  0  0  0  0  0  0  0  0  0  0  0
   -3.6425   -0.6464   -0.4994 C   0  0  0  0  0  0  0  0  0  0  0  0
   -3.9417    0.6999    0.1533 C   0  0  0  0  0  0  0  0  0  0  0  0
    4.5774    1.5623    0.4742 C   0  0  0  0  0  0  0  0  0  0  0  0
    5.1644    2.4465   -0.5404 C   0  0  0  0  0  0  0  0  0  0  0  0
   -5.4512    2.5783    0.0379 C   0  0  0  0  0  0  0  0  0  0  0  0
   -6.2924    0.3933    0.6008 C   0  0  0  0  0  0  0  0  0  0  0  0
   -6.8745    3.0056   -0.3091 C   0  0  0  0  0  0  0  0  0  0  0  0
   -7.6956    0.8718    0.2393 C   0  0  0  0  0  0  0  0  0  0  0  0
    6.7179    2.2615   -0.6550 C   0  0  0  0  0  0  0  0  0  0  0  0
    4.9135    3.9612   -0.2180 C   0  0  0  0  0  0  0  0  0  0  0  0
    4.6346    2.2627   -2.0121 C   0  0  0  0  0  0  0  0  0  0  0  0
    0.1590   -0.7488   -0.8574 H   0  0  0  0  0  0  0  0  0  0  0  0
   -0.3799   -3.7578   -0.9266 H   0  0  0  0  0  0  0  0  0  0  0  0
    2.6236   -1.2982   -0.8115 H   0  0  0  0  0  0  0  0  0  0  0  0
    2.2279   -2.9854   -0.5202 H   0  0  0  0  0  0  0  0  0  0  0  0
    2.7071   -2.1858    1.5657 H   0  0  0  0  0  0  0  0  0  0  0  0
   -0.3175   -2.1340   -3.0407 H   0  0  0  0  0  0  0  0  0  0  0  0
   -1.1937   -3.5239    1.4981 H   0  0  0  0  0  0  0  0  0  0  0  0
   -2.6650   -3.1113   -0.4773 H   0  0  0  0  0  0  0  0  0  0  0  0
   -2.0992   -2.2552   -1.9019 H   0  0  0  0  0  0  0  0  0  0  0  0
    1.4245   -0.1144    2.5391 H   0  0  0  0  0  0  0  0  0  0  0  0
    1.0052    0.2810    0.8882 H   0  0  0  0  0  0  0  0  0  0  0  0
    2.1522   -0.3492   -2.8204 H   0  0  0  0  0  0  0  0  0  0  0  0
    0.4765    0.2003   -2.9912 H   0  0  0  0  0  0  0  0  0  0  0  0
    1.2408   -0.7285   -4.2843 H   0  0  0  0  0  0  0  0  0  0  0  0
    2.6388   -2.8620   -2.6939 H   0  0  0  0  0  0  0  0  0  0  0  0
    1.5365   -3.2975   -3.9780 H   0  0  0  0  0  0  0  0  0  0  0  0
    1.3063   -4.0115   -2.3925 H   0  0  0  0  0  0  0  0  0  0  0  0
    1.6037   -3.2542    3.5042 H   0  0  0  0  0  0  0  0  0  0  0  0
   -0.1553   -3.3730    3.5802 H   0  0  0  0  0  0  0  0  0  0  0  0
    0.6199   -1.8034    3.7953 H   0  0  0  0  0  0  0  0  0  0  0  0
   -2.1885   -1.1465    0.8349 H   0  0  0  0  0  0  0  0  0  0  0  0
   -4.3420   -1.4152   -0.1551 H   0  0  0  0  0  0  0  0  0  0  0  0
   -3.7555   -0.5531   -1.5870 H   0  0  0  0  0  0  0  0  0  0  0  0
   -3.2132    1.4242   -0.2365 H   0  0  0  0  0  0  0  0  0  0  0  0
   -3.7915    0.6587    1.2404 H   0  0  0  0  0  0  0  0  0  0  0  0
   -4.7520    3.1402   -0.5919 H   0  0  0  0  0  0  0  0  0  0  0  0
   -5.2398    2.8253    1.0865 H   0  0  0  0  0  0  0  0  0  0  0  0
   -6.1236    0.5481    1.6746 H   0  0  0  0  0  0  0  0  0  0  0  0
   -6.2473   -0.6816    0.4031 H   0  0  0  0  0  0  0  0  0  0  0  0
   -7.0091    4.0689   -0.0861 H   0  0  0  0  0  0  0  0  0  0  0  0
   -7.0924    2.8601   -1.3742 H   0  0  0  0  0  0  0  0  0  0  0  0
   -7.9413    0.6529   -0.8070 H   0  0  0  0  0  0  0  0  0  0  0  0
   -8.4357    0.3642    0.8662 H   0  0  0  0  0  0  0  0  0  0  0  0
    7.1516    2.9326   -1.4049 H   0  0  0  0  0  0  0  0  0  0  0  0
    7.2067    2.4711    0.3037 H   0  0  0  0  0  0  0  0  0  0  0  0
    6.9653    1.2309   -0.9346 H   0  0  0  0  0  0  0  0  0  0  0  0
    5.3771    4.6169   -0.9633 H   0  0  0  0  0  0  0  0  0  0  0  0
    3.8394    4.1785   -0.1906 H   0  0  0  0  0  0  0  0  0  0  0  0
    5.3267    4.2194    0.7640 H   0  0  0  0  0  0  0  0  0  0  0  0
    4.7964    1.2325   -2.3498 H   0  0  0  0  0  0  0  0  0  0  0  0
    3.5577    2.4601   -2.0651 H   0  0  0  0  0  0  0  0  0  0  0  0
    5.1377    2.9370   -2.7141 H   0  0  0  0  0  0  0  0  0  0  0  0
  1 19  1  0  0  0  0
  1 22  1  0  0  0  0
  2 26  1  0  0  0  0
  2 27  1  0  0  0  0
  3 14  1  0  0  0  0
  3 20  1  0  0  0  0
  3 51  1  0  0  0  0
  4 21  1  0  0  0  0
  4 24  1  0  0  0  0
  4 25  1  0  0  0  0
  5  6  1  0  0  0  0
  5 19  2  0  0  0  0
  6 22  2  0  0  0  0
  7  8  1  0  0  0  0
  7  9  1  0  0  0  0
  7 11  1  0  0  0  0
  7 31  1  0  0  0  0
  8 13  1  0  0  0  0
  8 14  1  0  0  0  0
  8 32  1  0  0  0  0
  9 10  1  0  0  0  0
  9 33  1  0  0  0  0
  9 34  1  0  0  0  0
 10 12  1  0  0  0  0
 10 15  1  0  0  0  0
 10 35  1  0  0  0  0
 11 16  1  0  0  0  0
 11 17  1  0  0  0  0
 11 36  1  0  0  0  0
 12 13  2  0  0  0  0
 12 18  1  0  0  0  0
 13 37  1  0  0  0  0
 14 38  1  0  0  0  0
 14 39  1  0  0  0  0
 15 19  1  0  0  0  0
 15 40  1  0  0  0  0
 15 41  1  0  0  0  0
 16 42  1  0  0  0  0
 16 43  1  0  0  0  0
 16 44  1  0  0  0  0
 17 45  1  0  0  0  0
 17 46  1  0  0  0  0
 17 47  1  0  0  0  0
 18 48  1  0  0  0  0
 18 49  1  0  0  0  0
 18 50  1  0  0  0  0
 20 21  1  0  0  0  0
 20 52  1  0  0  0  0
 20 53  1  0  0  0  0
 21 54  1  0  0  0  0
 21 55  1  0  0  0  0
 22 23  1  0  0  0  0
 23 28  1  0  0  0  0
 23 29  1  0  0  0  0
 23 30  1  0  0  0  0
 24 26  1  0  0  0  0
 24 56  1  0  0  0  0
 24 57  1  0  0  0  0
 25 27  1  0  0  0  0
 25 58  1  0  0  0  0
 25 59  1  0  0  0  0
 26 60  1  0  0  0  0
 26 61  1  0  0  0  0
 27 62  1  0  0  0  0
 27 63  1  0  0  0  0
 28 64  1  0  0  0  0
 28 65  1  0  0  0  0
 28 66  1  0  0  0  0
 29 67  1  0  0  0  0
 29 68  1  0  0  0  0
 29 69  1  0  0  0  0
 30 70  1  0  0  0  0
 30 71  1  0  0  0  0
 30 72  1  0  0  0  0
M  END
> <PUBCHEM_COMPOUND_CID>
38031153

> <PUBCHEM_CONFORMER_RMSD>
1

> <PUBCHEM_CONFORMER_DIVERSEORDER>
1
8
91
102
156
27
151
137
131
81
180
146
170
77
138
118
147
186
176
57
126
73
35
190
34
125
75
159
127
58
70
133
90
98
51
134
54
101
12
157
163
95
185
103
29
36
31
109
49
148
175
39
4
150
187
25
21
184
50
169
69
129
106
139
182
62
85
19
11
116
154
110
132
153
76
145
168
32
181
30
162
88
178
135
9
68
130
61
104
23
152
173
97
112
123
141
179
174
124
140
114
165
16
5
67
160
43
158
143
52
74
171
121
86
166
161
13
172
122
128
26
78
99
41
144
3
108
188
105
84
65
45
119
24
164
71
100
183
149
60
142
107
155
59
89
120
83
10
79
189
48
115
42
38
87
80
111
113
56
96
92
66
64
55
7
6
93
15
46
53
44
63
20
72
37
177
167
22
28
136
117
40
2
17
47
82
33
14
94
18

> <PUBCHEM_MMFF94_PARTIAL_CHARGES>
24
1 -0.28
10 0.14
12 -0.28
13 -0.29
14 0.27
15 0.18
18 0.14
19 0.3
2 -0.56
20 0.27
21 0.27
22 0.3
23 0.18
24 0.27
25 0.27
26 0.28
27 0.28
3 -0.9
37 0.15
4 -0.81
5 -0.34
51 0.36
6 -0.34
8 0.14

> <PUBCHEM_EFFECTIVE_ROTOR_COUNT>
11

> <PUBCHEM_PHARMACOPHORE_FEATURES>
9
1 2 acceptor
1 3 cation
1 3 donor
1 4 cation
3 11 16 17 hydrophobe
4 23 28 29 30 hydrophobe
5 1 5 6 19 22 rings
6 2 4 24 25 26 27 rings
6 7 8 9 10 12 13 rings

> <PUBCHEM_HEAVY_ATOM_COUNT>
30

> <PUBCHEM_ATOM_DEF_STEREO_COUNT>
3

> <PUBCHEM_ATOM_UDEF_STEREO_COUNT>
0

> <PUBCHEM_BOND_DEF_STEREO_COUNT>
0

> <PUBCHEM_BOND_UDEF_STEREO_COUNT>
0

> <PUBCHEM_ISOTOPIC_ATOM_COUNT>
0

> <PUBCHEM_COMPONENT_COUNT>
1

> <PUBCHEM_CACTVS_TAUTO_COUNT>
1

> <PUBCHEM_CONFORMER_ID>
02444F3100000001

> <PUBCHEM_MMFF94_ENERGY>
50.3071

> <PUBCHEM_FEATURE_SELFOVERLAP>
45.671

> <PUBCHEM_SHAPE_FINGERPRINT>
10721379 63 16988009271341471742
11578080 2 18129399213960697703
1200032 147 18273221876387915411
12047536 79 14201397196864691943
12104220 4 18114191873142801260
12342043 65 14636528820583057568
12373685 5 14563392765026856723
12661589 4 10159111940946532765
12717326 69 11820435608844125317
13944108 23 18200596878394901617
14251764 75 18408881837263037625
14294032 229 18129665347888999343
14565420 104 18040431071236997323
14849402 71 18116145571881726586
15163728 17 18272375307921274430
15198563 99 17481979443207983679
17980427 23 16733267962261856011
20775530 9 9763641251786734857
21344244 78 15574720171072338279
27425 322 18334857246523792950
2838139 119 18129368449051193194
3411729 13 18410573951218980689
34797466 226 17845087373771513101
4112364 45 17023478541807133973
437795 139 8502377741450212535
439807 62 10303811004198517161
444735 82 18268993082397531841
44802255 64 17557434472862624036
45266715 3 14980239561672458462
46194498 28 17273417175796553551
469060 322 14058107836373419378
484985 159 10844256672601344602
57527573 199 18187933901507968380
59682541 52 16415205550556928132
66674814 147 12607415415869370028
7808743 9 18341885321160088667
9849439 229 18334017198629163111

> <PUBCHEM_SHAPE_MULTIPOLES>
585.72
17.51
4.77
2.67
28.41
0.82
0.77
27.56
-1.49
-1.68
0.5
-3.17
-2.64
-0.7

> <PUBCHEM_SHAPE_SELFOVERLAP>
1187.824

> <PUBCHEM_SHAPE_VOLUME>
342.7

> <PUBCHEM_COORDINATE_TYPE>
2
5
10

$$$$
