71693765
  -OEChem-12032416233D

 37 39  0     1  0  0  0  0  0999 V2000
    0.1690   -3.5391    0.8843 O   0  0  0  0  0  0  0  0  0  0  0  0
    2.6396   -2.3535    0.7116 O   0  0  0  0  0  0  0  0  0  0  0  0
   -1.6806    0.6788    1.4793 O   0  0  0  0  0  0  0  0  0  0  0  0
   -1.4211   -1.0474   -0.0627 N   0  0  0  0  0  0  0  0  0  0  0  0
    2.3075    2.3389    1.1696 N   0  0  0  0  0  0  0  0  0  0  0  0
    0.0003   -1.2371    0.0786 C   0  0  2  0  0  0  0  0  0  0  0  0
    0.8004   -0.4166   -0.9582 C   0  0  2  0  0  0  0  0  0  0  0  0
    0.4151   -2.6788   -0.2119 C   0  0  1  0  0  0  0  0  0  0  0  0
    2.0133   -1.2994   -1.3505 C   0  0  0  0  0  0  0  0  0  0  0  0
    1.9081   -2.5590   -0.4932 C   0  0  1  0  0  0  0  0  0  0  0  0
   -3.5972   -0.0798    0.3457 C   0  0  0  0  0  0  0  0  0  0  0  0
   -4.0227    0.0955   -1.0741 C   0  0  0  0  0  0  0  0  0  0  0  0
   -4.2138    1.2084   -0.0876 C   0  0  0  0  0  0  0  0  0  0  0  0
   -2.1366   -0.1029    0.6532 C   0  0  0  0  0  0  0  0  0  0  0  0
    1.1693    0.9657   -0.4624 C   0  0  0  0  0  0  0  0  0  0  0  0
    0.7401    2.1056   -1.1331 C   0  0  0  0  0  0  0  0  0  0  0  0
    1.9439    1.1348    0.6739 C   0  0  0  0  0  0  0  0  0  0  0  0
    1.0937    3.3620   -0.6537 C   0  0  0  0  0  0  0  0  0  0  0  0
    1.8716    3.4241    0.4911 C   0  0  0  0  0  0  0  0  0  0  0  0
    0.2652   -0.9803    1.1117 H   0  0  0  0  0  0  0  0  0  0  0  0
    0.1892   -0.2981   -1.8651 H   0  0  0  0  0  0  0  0  0  0  0  0
   -0.1126   -3.0692   -1.0913 H   0  0  0  0  0  0  0  0  0  0  0  0
    2.9742   -0.7876   -1.2313 H   0  0  0  0  0  0  0  0  0  0  0  0
    1.9123   -1.5742   -2.4080 H   0  0  0  0  0  0  0  0  0  0  0  0
    2.3114   -3.4493   -0.9848 H   0  0  0  0  0  0  0  0  0  0  0  0
   -4.2047   -0.7209    0.9758 H   0  0  0  0  0  0  0  0  0  0  0  0
   -4.9035   -0.4403   -1.4068 H   0  0  0  0  0  0  0  0  0  0  0  0
   -3.2729    0.2376   -1.8429 H   0  0  0  0  0  0  0  0  0  0  0  0
   -3.5840    2.0836   -0.1910 H   0  0  0  0  0  0  0  0  0  0  0  0
   -5.2234    1.4221    0.2414 H   0  0  0  0  0  0  0  0  0  0  0  0
   -1.9117   -1.6166   -0.7466 H   0  0  0  0  0  0  0  0  0  0  0  0
    0.5425   -4.4090    0.6622 H   0  0  0  0  0  0  0  0  0  0  0  0
    3.5754   -2.2456    0.4703 H   0  0  0  0  0  0  0  0  0  0  0  0
    0.1291    2.0303   -2.0283 H   0  0  0  0  0  0  0  0  0  0  0  0
    2.3159    0.2909    1.2446 H   0  0  0  0  0  0  0  0  0  0  0  0
    0.7701    4.2642   -1.1599 H   0  0  0  0  0  0  0  0  0  0  0  0
    2.1743    4.3800    0.9057 H   0  0  0  0  0  0  0  0  0  0  0  0
  1  8  1  0  0  0  0
  1 32  1  0  0  0  0
  2 10  1  0  0  0  0
  2 33  1  0  0  0  0
  3 14  2  0  0  0  0
  4  6  1  0  0  0  0
  4 14  1  0  0  0  0
  4 31  1  0  0  0  0
  5 17  1  0  0  0  0
  5 19  2  0  0  0  0
  6  7  1  0  0  0  0
  6  8  1  0  0  0  0
  6 20  1  0  0  0  0
  7  9  1  0  0  0  0
  7 15  1  0  0  0  0
  7 21  1  0  0  0  0
  8 10  1  0  0  0  0
  8 22  1  0  0  0  0
  9 10  1  0  0  0  0
  9 23  1  0  0  0  0
  9 24  1  0  0  0  0
 10 25  1  0  0  0  0
 11 12  1  0  0  0  0
 11 13  1  0  0  0  0
 11 14  1  0  0  0  0
 11 26  1  0  0  0  0
 12 13  1  0  0  0  0
 12 27  1  0  0  0  0
 12 28  1  0  0  0  0
 13 29  1  0  0  0  0
 13 30  1  0  0  0  0
 15 16  1  0  0  0  0
 15 17  2  0  0  0  0
 16 18  2  0  0  0  0
 16 34  1  0  0  0  0
 17 35  1  0  0  0  0
 18 19  1  0  0  0  0
 18 36  1  0  0  0  0
 19 37  1  0  0  0  0
M  END
> <PUBCHEM_COMPOUND_CID>
71693765

> <PUBCHEM_CONFORMER_RMSD>
0.8

> <PUBCHEM_CONFORMER_DIVERSEORDER>
2
19
6
21
5
9
10
14
1
12
8
18
20
7
22
3
13
11
17
15
4
16

> <PUBCHEM_MMFF94_PARTIAL_CHARGES>
30
1 -0.68
10 0.28
11 -0.1
12 -0.2
13 -0.2
14 0.63
15 -0.14
16 -0.15
17 0.16
18 -0.15
19 0.16
2 -0.68
26 0.1
27 0.1
28 0.1
29 0.1
3 -0.57
30 0.1
31 0.37
32 0.4
33 0.4
34 0.15
35 0.15
36 0.15
37 0.15
4 -0.73
5 -0.62
6 0.3
7 0.14
8 0.28

> <PUBCHEM_EFFECTIVE_ROTOR_COUNT>
5.6

> <PUBCHEM_PHARMACOPHORE_FEATURES>
9
1 1 acceptor
1 1 donor
1 2 acceptor
1 2 donor
1 3 acceptor
1 4 donor
1 5 acceptor
5 6 7 8 9 10 rings
6 5 15 16 17 18 19 rings

> <PUBCHEM_HEAVY_ATOM_COUNT>
19

> <PUBCHEM_ATOM_DEF_STEREO_COUNT>
4

> <PUBCHEM_ATOM_UDEF_STEREO_COUNT>
0

> <PUBCHEM_BOND_DEF_STEREO_COUNT>
0

> <PUBCHEM_BOND_UDEF_STEREO_COUNT>
0

> <PUBCHEM_ISOTOPIC_ATOM_COUNT>
0

> <PUBCHEM_COMPONENT_COUNT>
1

> <PUBCHEM_CACTVS_TAUTO_COUNT>
2

> <PUBCHEM_CONFORMER_ID>
0445F5C500000002

> <PUBCHEM_MMFF94_ENERGY>
50.9585

> <PUBCHEM_FEATURE_SELFOVERLAP>
45.683

> <PUBCHEM_SHAPE_FINGERPRINT>
10165383 225 17399290593794046293
104564 63 17545339478956465447
10764073 3 16307333443818658672
11370993 70 18124304158829232617
116883 192 17115229162155719703
12553582 1 18050587148299488435
12788726 201 17327743899006271067
13134695 92 18265330612441492887
13294875 104 18337961189703155860
14081887 123 17545590159313166962
14181834 199 18343578534216118623
14614273 12 17477784827495052211
15420108 30 18129360688077015790
15490181 8 18122905601207355886
15852999 172 18127409175133526697
16945 1 17988373580464839462
19765921 60 18057881540587681153
21524375 3 17983580993930971373
21639500 275 18410292506391599855
21731228 192 18050849115244700872
220403 375 18052260883905996222
22112679 90 17696214520444107627
2255824 54 18341058449486754943
23419403 2 17317851734614320998
23558518 356 18050000296700396046
257057 1 17906449931278082753
2748010 2 18050027754399536351
283562 15 17832157026144386582
305870 269 18267019633926387908
350125 39 17977686507868309006
474 4 18340203094002062953
5845 1 17551258175913513461
5939293 188 18340207392789501263
6438718 38 17122814731593846341
6443956 14 18266740186243098509
7364860 26 18341895173434848021
7832392 63 17981897345777607129
81228 2 17326069355412654994
84936 182 18273215330784215057

> <PUBCHEM_SHAPE_MULTIPOLES>
363.44
5.29
4.35
1.2
7.72
0.06
-0.03
-1.82
-0.1
-4.17
0.37
-0.15
-0.14
0.42

> <PUBCHEM_SHAPE_SELFOVERLAP>
769.188

> <PUBCHEM_SHAPE_VOLUME>
203.8

> <PUBCHEM_COORDINATE_TYPE>
2
5
10

$$$$
