40777147
  -OEChem-12032416183D

 64 67  0     1  0  0  0  0  0999 V2000
    9.0131    0.6610    1.2458 F   0  0  0  0  0  0  0  0  0  0  0  0
    7.9999    2.3475    2.1713 F   0  0  0  0  0  0  0  0  0  0  0  0
    8.7540    2.5076    0.1382 F   0  0  0  0  0  0  0  0  0  0  0  0
   -5.4720    0.0950    1.9977 O   0  0  0  0  0  0  0  0  0  0  0  0
  -10.5024    2.7572   -1.1708 O   0  0  0  0  0  0  0  0  0  0  0  0
  -10.1835    1.6943    0.8107 O   0  0  0  0  0  0  0  0  0  0  0  0
   -1.5628   -2.2646    1.7691 N   0  0  2  0  0  0  0  0  0  0  0  0
   -3.7227    0.5568    0.5422 N   0  0  0  0  0  0  0  0  0  0  0  0
    0.6921   -1.0434   -2.0052 N   0  0  0  0  0  0  0  0  0  0  0  0
    2.7231    0.2425   -2.1761 N   0  0  0  0  0  0  0  0  0  0  0  0
   -1.1467   -2.8399   -0.7366 C   0  0  2  0  0  0  0  0  0  0  0  0
    0.1807   -2.4180   -0.0479 C   0  0  2  0  0  0  0  0  0  0  0  0
   -2.5428   -1.5456    0.9130 C   0  0  2  0  0  0  0  0  0  0  0  0
   -2.1847   -1.7087   -0.5798 C   0  0  0  0  0  0  0  0  0  0  0  0
   -1.6841   -4.0598    0.0421 C   0  0  0  0  0  0  0  0  0  0  0  0
   -0.1792   -1.9003    1.3741 C   0  0  0  0  0  0  0  0  0  0  0  0
   -1.7413   -3.7187    1.5414 C   0  0  0  0  0  0  0  0  0  0  0  0
   -2.6913   -0.0744    1.3064 C   0  0  0  0  0  0  0  0  0  0  0  0
    1.1053   -1.4654   -0.7922 C   0  0  0  0  0  0  0  0  0  0  0  0
    2.2979   -1.0832   -0.2127 C   0  0  0  0  0  0  0  0  0  0  0  0
    3.0741   -0.2191   -0.9579 C   0  0  0  0  0  0  0  0  0  0  0  0
   -5.0540    0.5920    0.9554 C   0  0  0  0  0  0  0  0  0  0  0  0
    1.5373   -0.2035   -2.6328 C   0  0  0  0  0  0  0  0  0  0  0  0
   -5.9474    1.2967   -0.0515 C   0  0  0  0  0  0  0  0  0  0  0  0
    4.3452    0.2549   -0.4648 C   0  0  0  0  0  0  0  0  0  0  0  0
    1.1158    0.2835   -3.9778 C   0  0  0  0  0  0  0  0  0  0  0  0
   -7.4157    1.3561    0.3656 C   0  0  0  0  0  0  0  0  0  0  0  0
    4.4055    0.9776    0.7267 C   0  0  0  0  0  0  0  0  0  0  0  0
    5.5134   -0.0103   -1.1796 C   0  0  0  0  0  0  0  0  0  0  0  0
   -8.2850    2.0809   -0.6639 C   0  0  0  0  0  0  0  0  0  0  0  0
    5.6338    1.4354    1.2033 C   0  0  0  0  0  0  0  0  0  0  0  0
    6.7417    0.4475   -0.7029 C   0  0  0  0  0  0  0  0  0  0  0  0
    6.8019    1.1703    0.4885 C   0  0  0  0  0  0  0  0  0  0  0  0
   -9.7339    2.1380   -0.2367 C   0  0  0  0  0  0  0  0  0  0  0  0
    8.1151    1.6600    0.9979 C   0  0  0  0  0  0  0  0  0  0  0  0
   -0.9998   -3.0944   -1.7915 H   0  0  0  0  0  0  0  0  0  0  0  0
    0.7734   -3.3384    0.0705 H   0  0  0  0  0  0  0  0  0  0  0  0
   -3.5276   -2.0084    1.0763 H   0  0  0  0  0  0  0  0  0  0  0  0
   -1.7890   -0.7800   -1.0059 H   0  0  0  0  0  0  0  0  0  0  0  0
   -3.0901   -1.9597   -1.1463 H   0  0  0  0  0  0  0  0  0  0  0  0
   -1.0376   -4.9307   -0.1170 H   0  0  0  0  0  0  0  0  0  0  0  0
   -2.6831   -4.3255   -0.3245 H   0  0  0  0  0  0  0  0  0  0  0  0
    0.5210   -2.3320    2.1019 H   0  0  0  0  0  0  0  0  0  0  0  0
   -0.0411   -0.8164    1.4610 H   0  0  0  0  0  0  0  0  0  0  0  0
   -2.6988   -4.0493    1.9625 H   0  0  0  0  0  0  0  0  0  0  0  0
   -0.9715   -4.2778    2.0884 H   0  0  0  0  0  0  0  0  0  0  0  0
   -1.7736    0.4935    1.1233 H   0  0  0  0  0  0  0  0  0  0  0  0
   -2.9302    0.0116    2.3728 H   0  0  0  0  0  0  0  0  0  0  0  0
   -3.4686    0.9891   -0.3415 H   0  0  0  0  0  0  0  0  0  0  0  0
    2.6070   -1.4491    0.7594 H   0  0  0  0  0  0  0  0  0  0  0  0
   -5.5615    2.3138   -0.1910 H   0  0  0  0  0  0  0  0  0  0  0  0
   -5.8564    0.7713   -1.0098 H   0  0  0  0  0  0  0  0  0  0  0  0
    1.5269   -0.3703   -4.7526 H   0  0  0  0  0  0  0  0  0  0  0  0
    0.0248    0.2891   -4.0663 H   0  0  0  0  0  0  0  0  0  0  0  0
    1.4752    1.3027   -4.1507 H   0  0  0  0  0  0  0  0  0  0  0  0
   -7.7952    0.3373    0.5169 H   0  0  0  0  0  0  0  0  0  0  0  0
   -7.4994    1.8587    1.3379 H   0  0  0  0  0  0  0  0  0  0  0  0
    3.5060    1.1997    1.2964 H   0  0  0  0  0  0  0  0  0  0  0  0
    5.4869   -0.5752   -2.1084 H   0  0  0  0  0  0  0  0  0  0  0  0
   -7.9271    3.1079   -0.7944 H   0  0  0  0  0  0  0  0  0  0  0  0
   -8.2321    1.5579   -1.6251 H   0  0  0  0  0  0  0  0  0  0  0  0
    5.6590    1.9976    2.1327 H   0  0  0  0  0  0  0  0  0  0  0  0
    7.6465    0.2355   -1.2663 H   0  0  0  0  0  0  0  0  0  0  0  0
  -11.4443    2.7991   -0.8995 H   0  0  0  0  0  0  0  0  0  0  0  0
  1 35  1  0  0  0  0
  2 35  1  0  0  0  0
  3 35  1  0  0  0  0
  4 22  2  0  0  0  0
  5 34  1  0  0  0  0
  5 64  1  0  0  0  0
  6 34  2  0  0  0  0
  7 13  1  0  0  0  0
  7 16  1  0  0  0  0
  7 17  1  0  0  0  0
  8 18  1  0  0  0  0
  8 22  1  0  0  0  0
  8 49  1  0  0  0  0
  9 19  2  0  0  0  0
  9 23  1  0  0  0  0
 10 21  1  0  0  0  0
 10 23  2  0  0  0  0
 11 12  1  0  0  0  0
 11 14  1  0  0  0  0
 11 15  1  0  0  0  0
 11 36  1  0  0  0  0
 12 16  1  0  0  0  0
 12 19  1  0  0  0  0
 12 37  1  0  0  0  0
 13 14  1  0  0  0  0
 13 18  1  0  0  0  0
 13 38  1  0  0  0  0
 14 39  1  0  0  0  0
 14 40  1  0  0  0  0
 15 17  1  0  0  0  0
 15 41  1  0  0  0  0
 15 42  1  0  0  0  0
 16 43  1  0  0  0  0
 16 44  1  0  0  0  0
 17 45  1  0  0  0  0
 17 46  1  0  0  0  0
 18 47  1  0  0  0  0
 18 48  1  0  0  0  0
 19 20  1  0  0  0  0
 20 21  2  0  0  0  0
 20 50  1  0  0  0  0
 21 25  1  0  0  0  0
 22 24  1  0  0  0  0
 23 26  1  0  0  0  0
 24 27  1  0  0  0  0
 24 51  1  0  0  0  0
 24 52  1  0  0  0  0
 25 28  2  0  0  0  0
 25 29  1  0  0  0  0
 26 53  1  0  0  0  0
 26 54  1  0  0  0  0
 26 55  1  0  0  0  0
 27 30  1  0  0  0  0
 27 56  1  0  0  0  0
 27 57  1  0  0  0  0
 28 31  1  0  0  0  0
 28 58  1  0  0  0  0
 29 32  2  0  0  0  0
 29 59  1  0  0  0  0
 30 34  1  0  0  0  0
 30 60  1  0  0  0  0
 30 61  1  0  0  0  0
 31 33  2  0  0  0  0
 31 62  1  0  0  0  0
 32 33  1  0  0  0  0
 32 63  1  0  0  0  0
 33 35  1  0  0  0  0
M  END
> <PUBCHEM_COMPOUND_CID>
40777147

> <PUBCHEM_CONFORMER_RMSD>
1.2

> <PUBCHEM_CONFORMER_DIVERSEORDER>
1
80
78
56
75
53
74
21
3
13
81
68
69
65
73
63
55
77
70
44
24
72
11
37
58
25
54
82
67
6
28
4
17
61
64
7
52
42
33
49
35
15
48
8
40
16
30
47
60
36
79
38
46
12
71
26
10
45
18
29
50
39
22
34
41
27
20
59
31
23
84
76
14
66
51
5
62
19
57
83
32
9
43
2

> <PUBCHEM_MMFF94_PARTIAL_CHARGES>
37
1 -0.34
10 -0.62
12 0.14
13 0.27
16 0.27
17 0.27
18 0.3
19 0.17
2 -0.34
20 -0.15
21 0.31
22 0.57
23 0.48
24 0.06
26 0.14
28 -0.15
29 -0.15
3 -0.34
30 0.06
31 -0.15
32 -0.15
33 -0.14
34 0.66
35 1.16
4 -0.57
49 0.37
5 -0.65
50 0.15
58 0.15
59 0.15
6 -0.57
62 0.15
63 0.15
64 0.5
7 -0.81
8 -0.73
9 -0.62

> <PUBCHEM_EFFECTIVE_ROTOR_COUNT>
11.2

> <PUBCHEM_PHARMACOPHORE_FEATURES>
11
1 4 acceptor
1 5 acceptor
1 6 acceptor
1 7 cation
1 8 donor
1 9 acceptor
3 5 6 34 anion
3 9 10 23 cation
6 25 28 29 31 32 33 rings
6 9 10 19 20 21 23 rings
8 7 11 12 13 14 15 16 17 rings

> <PUBCHEM_HEAVY_ATOM_COUNT>
35

> <PUBCHEM_ATOM_DEF_STEREO_COUNT>
3

> <PUBCHEM_ATOM_UDEF_STEREO_COUNT>
0

> <PUBCHEM_BOND_DEF_STEREO_COUNT>
0

> <PUBCHEM_BOND_UDEF_STEREO_COUNT>
0

> <PUBCHEM_ISOTOPIC_ATOM_COUNT>
0

> <PUBCHEM_COMPONENT_COUNT>
1

> <PUBCHEM_CACTVS_TAUTO_COUNT>
2

> <PUBCHEM_CONFORMER_ID>
026E35BB00000001

> <PUBCHEM_MMFF94_ENERGY>
78.9989

> <PUBCHEM_FEATURE_SELFOVERLAP>
55.879

> <PUBCHEM_SHAPE_FINGERPRINT>
10029044 110 18202004292565981585
11135609 201 18335977576749031197
11374522 101 18265900332181900268
11456790 92 15791739594562672877
11478447 183 13973966481235336433
12838862 33 18334851706706999813
13150687 139 18201729401383622191
13911987 19 15482682303221648746
14767858 380 14117525337337832190
14950920 106 16009893790532946531
15320294 125 16950282909894231966
15350500 185 18411699872780300337
15419008 145 15357693051555633573
15840311 113 18260829241812874314
19246450 95 16588295073637991309
19315958 150 18333450924545108498
20554085 129 18335703819554238563
21033648 29 18259987058860601382
21304303 282 18340486776798718943
21403212 168 17822013086352946275
21585481 151 8718537325652507693
23528521 120 17775559829067624821
393628 179 18412823573516811649
4366758 6 18335422348804059487
4756326 101 18342170064322211177
5372103 7 17989486316608247041
54039377 194 9295288352338839305
57527295 17 14333141719661509355
6009941 240 18340207496844630418
6058803 2 16592269996882743366
999808 66 12973877139579904114

> <PUBCHEM_SHAPE_MULTIPOLES>
660.93
29.2
3.61
2.34
30.76
3.03
-1.93
-41.85
8.53
4.18
0.97
-1.99
-0.19
3.21

> <PUBCHEM_SHAPE_SELFOVERLAP>
1412.142

> <PUBCHEM_SHAPE_VOLUME>
365.9

> <PUBCHEM_COORDINATE_TYPE>
2
5
10

$$$$
