25390426
  -OEChem-12032416173D

 52 53  0     1  0  0  0  0  0999 V2000
   -2.7083   -0.1470   -0.8181 O   0  0  0  0  0  0  0  0  0  0  0  0
   -5.0062   -0.3704    1.1628 O   0  0  0  0  0  0  0  0  0  0  0  0
   -4.2105    2.2531    1.3917 O   0  0  0  0  0  0  0  0  0  0  0  0
   -1.3364   -2.9636   -0.8780 O   0  0  0  0  0  0  0  0  0  0  0  0
   -0.2708    0.6234   -2.3835 O   0  0  0  0  0  0  0  0  0  0  0  0
    5.0936    1.3154    0.9000 O   0  0  0  0  0  0  0  0  0  0  0  0
   -1.0060    2.1239   -0.7737 N   0  0  0  0  0  0  0  0  0  0  0  0
    0.5229   -2.6449    0.4793 N   0  0  0  0  0  0  0  0  0  0  0  0
   -3.6182   -0.1196    1.3795 C   0  0  2  0  0  0  0  0  0  0  0  0
   -3.2680    1.2938    0.9626 C   0  0  1  0  0  0  0  0  0  0  0  0
   -2.8251   -0.9517    0.3776 C   0  0  2  0  0  0  0  0  0  0  0  0
   -3.2337    1.1652   -0.5511 C   0  0  1  0  0  0  0  0  0  0  0  0
   -1.4180   -1.2806    0.8573 C   0  0  0  0  0  0  0  0  0  0  0  0
   -2.3635    2.2112   -1.2246 C   0  0  0  0  0  0  0  0  0  0  0  0
   -0.7685   -2.3852    0.0444 C   0  0  0  0  0  0  0  0  0  0  0  0
    1.3694   -3.6517   -0.1187 C   0  0  0  0  0  0  0  0  0  0  0  0
   -0.0527    1.3244   -1.3988 C   0  0  0  0  0  0  0  0  0  0  0  0
    2.3007   -4.2500    0.9275 C   0  0  0  0  0  0  0  0  0  0  0  0
    2.1541   -3.0660   -1.2860 C   0  0  0  0  0  0  0  0  0  0  0  0
    1.3038    1.3236   -0.7933 C   0  0  0  0  0  0  0  0  0  0  0  0
    2.4205    1.0538   -1.5845 C   0  0  0  0  0  0  0  0  0  0  0  0
    1.4608    1.5906    0.5668 C   0  0  0  0  0  0  0  0  0  0  0  0
    3.6940    1.0508   -1.0156 C   0  0  0  0  0  0  0  0  0  0  0  0
    2.7342    1.5876    1.1357 C   0  0  0  0  0  0  0  0  0  0  0  0
    3.8509    1.3177    0.3445 C   0  0  0  0  0  0  0  0  0  0  0  0
    5.1809    1.5963    2.2962 C   0  0  0  0  0  0  0  0  0  0  0  0
   -3.4008   -0.3296    2.4305 H   0  0  0  0  0  0  0  0  0  0  0  0
   -2.2885    1.5590    1.3755 H   0  0  0  0  0  0  0  0  0  0  0  0
   -3.3698   -1.8631    0.1058 H   0  0  0  0  0  0  0  0  0  0  0  0
   -4.2447    1.2203   -0.9737 H   0  0  0  0  0  0  0  0  0  0  0  0
   -1.4543   -1.6356    1.8947 H   0  0  0  0  0  0  0  0  0  0  0  0
   -0.7697   -0.4014    0.8216 H   0  0  0  0  0  0  0  0  0  0  0  0
   -2.7260    3.2209   -1.0067 H   0  0  0  0  0  0  0  0  0  0  0  0
   -2.3792    2.0654   -2.3104 H   0  0  0  0  0  0  0  0  0  0  0  0
   -5.1774   -1.2942    1.4138 H   0  0  0  0  0  0  0  0  0  0  0  0
   -4.2698    2.1909    2.3603 H   0  0  0  0  0  0  0  0  0  0  0  0
   -0.7433    2.7206    0.0034 H   0  0  0  0  0  0  0  0  0  0  0  0
    0.9195   -2.0637    1.2126 H   0  0  0  0  0  0  0  0  0  0  0  0
    0.7248   -4.4504   -0.5056 H   0  0  0  0  0  0  0  0  0  0  0  0
    2.9641   -3.4884    1.3525 H   0  0  0  0  0  0  0  0  0  0  0  0
    1.7277   -4.6855    1.7535 H   0  0  0  0  0  0  0  0  0  0  0  0
    2.9223   -5.0397    0.4930 H   0  0  0  0  0  0  0  0  0  0  0  0
    2.8094   -2.2531   -0.9538 H   0  0  0  0  0  0  0  0  0  0  0  0
    1.4801   -2.6549   -2.0455 H   0  0  0  0  0  0  0  0  0  0  0  0
    2.7750   -3.8309   -1.7636 H   0  0  0  0  0  0  0  0  0  0  0  0
    2.3185    0.8464   -2.6464 H   0  0  0  0  0  0  0  0  0  0  0  0
    0.6152    1.7766    1.2225 H   0  0  0  0  0  0  0  0  0  0  0  0
    4.5602    0.8400   -1.6368 H   0  0  0  0  0  0  0  0  0  0  0  0
    2.7839    1.7962    2.1990 H   0  0  0  0  0  0  0  0  0  0  0  0
    6.2405    1.5539    2.5687 H   0  0  0  0  0  0  0  0  0  0  0  0
    4.6670    0.8348    2.8926 H   0  0  0  0  0  0  0  0  0  0  0  0
    4.8321    2.6088    2.5257 H   0  0  0  0  0  0  0  0  0  0  0  0
  1 11  1  0  0  0  0
  1 12  1  0  0  0  0
  2  9  1  0  0  0  0
  2 35  1  0  0  0  0
  3 10  1  0  0  0  0
  3 36  1  0  0  0  0
  4 15  2  0  0  0  0
  5 17  2  0  0  0  0
  6 25  1  0  0  0  0
  6 26  1  0  0  0  0
  7 14  1  0  0  0  0
  7 17  1  0  0  0  0
  7 37  1  0  0  0  0
  8 15  1  0  0  0  0
  8 16  1  0  0  0  0
  8 38  1  0  0  0  0
  9 10  1  0  0  0  0
  9 11  1  0  0  0  0
  9 27  1  0  0  0  0
 10 12  1  0  0  0  0
 10 28  1  0  0  0  0
 11 13  1  0  0  0  0
 11 29  1  0  0  0  0
 12 14  1  0  0  0  0
 12 30  1  0  0  0  0
 13 15  1  0  0  0  0
 13 31  1  0  0  0  0
 13 32  1  0  0  0  0
 14 33  1  0  0  0  0
 14 34  1  0  0  0  0
 16 18  1  0  0  0  0
 16 19  1  0  0  0  0
 16 39  1  0  0  0  0
 17 20  1  0  0  0  0
 18 40  1  0  0  0  0
 18 41  1  0  0  0  0
 18 42  1  0  0  0  0
 19 43  1  0  0  0  0
 19 44  1  0  0  0  0
 19 45  1  0  0  0  0
 20 21  2  0  0  0  0
 20 22  1  0  0  0  0
 21 23  1  0  0  0  0
 21 46  1  0  0  0  0
 22 24  2  0  0  0  0
 22 47  1  0  0  0  0
 23 25  2  0  0  0  0
 23 48  1  0  0  0  0
 24 25  1  0  0  0  0
 24 49  1  0  0  0  0
 26 50  1  0  0  0  0
 26 51  1  0  0  0  0
 26 52  1  0  0  0  0
M  END
> <PUBCHEM_COMPOUND_CID>
25390426

> <PUBCHEM_CONFORMER_RMSD>
1

> <PUBCHEM_CONFORMER_DIVERSEORDER>
3
77
10
130
49
151
141
149
24
53
65
129
22
63
131
140
116
7
111
59
113
134
119
142
13
121
60
139
78
57
58
117
105
148
137
115
133
82
126
125
114
19
94
122
68
44
37
45
23
108
34
41
106
47
118
120
146
38
123
107
31
5
96
87
50
93
128
132
99
112
88
71
101
69
72
76
84
124
54
16
32
56
147
98
17
127
9
74
80
52
91
79
150
62
18
110
66
12
33
81
51
21
90
20
43
143
103
35
92
40
64
36
102
138
104
97
28
67
73
1
89
136
30
144
39
85
145
6
27
86
109
26
29
48
95
8
15
135
61
14
25
11
100
75
70
42
83
46
55
2
4

> <PUBCHEM_MMFF94_PARTIAL_CHARGES>
32
1 -0.56
10 0.28
11 0.28
12 0.28
13 0.06
14 0.3
15 0.57
16 0.3
17 0.54
2 -0.68
20 0.09
21 -0.15
22 -0.15
23 -0.15
24 -0.15
25 0.08
26 0.28
3 -0.68
35 0.4
36 0.4
37 0.37
38 0.37
4 -0.57
46 0.15
47 0.15
48 0.15
49 0.15
5 -0.57
6 -0.36
7 -0.73
8 -0.73
9 0.28

> <PUBCHEM_EFFECTIVE_ROTOR_COUNT>
10

> <PUBCHEM_PHARMACOPHORE_FEATURES>
13
1 1 acceptor
1 2 acceptor
1 2 donor
1 3 acceptor
1 3 donor
1 4 acceptor
1 5 acceptor
1 6 acceptor
1 7 donor
1 8 donor
3 16 18 19 hydrophobe
5 1 9 10 11 12 rings
6 20 21 22 23 24 25 rings

> <PUBCHEM_HEAVY_ATOM_COUNT>
26

> <PUBCHEM_ATOM_DEF_STEREO_COUNT>
4

> <PUBCHEM_ATOM_UDEF_STEREO_COUNT>
0

> <PUBCHEM_BOND_DEF_STEREO_COUNT>
0

> <PUBCHEM_BOND_UDEF_STEREO_COUNT>
0

> <PUBCHEM_ISOTOPIC_ATOM_COUNT>
0

> <PUBCHEM_COMPONENT_COUNT>
1

> <PUBCHEM_CACTVS_TAUTO_COUNT>
4

> <PUBCHEM_CONFORMER_ID>
01836D5A00000003

> <PUBCHEM_MMFF94_ENERGY>
66.8507

> <PUBCHEM_FEATURE_SELFOVERLAP>
65.986

> <PUBCHEM_SHAPE_FINGERPRINT>
1100329 8 17330560838900834504
11370993 70 18271806882189921186
11552529 35 17692519431747493176
12156800 1 11930871540253757638
12422481 6 18043225995783056290
12633257 1 18198061580542644136
12788726 201 17547302549630983711
13004483 165 17405977935056787670
13140716 1 17977111480867407689
14178342 30 18268437999757923831
15420108 30 18343579655108449222
16120349 306 18263907986382350850
20028762 73 18053677051210765967
20691752 17 17241628151390696499
20905425 154 18191606171850870407
22182313 1 17896320221230967333
23419403 2 17898849037528766559
23559900 14 18117003182308319852
238918 7 18409731789832131178
3027735 51 18121471769547130575
35225 105 17769338907012144338
4112364 45 17485107206197140977
465052 167 17024607796425890625
5265222 85 18263659497376965572
58807428 26 18337111267062254754
602551 16 18266174114549995056
9862522 239 18188472640757193756

> <PUBCHEM_SHAPE_MULTIPOLES>
489.89
8.62
4.46
1.84
1.42
6.28
0.05
-5.22
-5.03
2.56
-0.03
0.76
-0.75
0.86

> <PUBCHEM_SHAPE_SELFOVERLAP>
1012.847

> <PUBCHEM_SHAPE_VOLUME>
280.9

> <PUBCHEM_COORDINATE_TYPE>
2
5
10

$$$$
