45783345
  -OEChem-12032416273D

 52 55  0     1  0  0  0  0  0999 V2000
    0.7226    2.2712   -1.6644 F   0  0  0  0  0  0  0  0  0  0  0  0
    0.2606    3.9383    0.4531 F   0  0  0  0  0  0  0  0  0  0  0  0
   -2.5917   -1.1343    2.1439 O   0  0  0  0  0  0  0  0  0  0  0  0
    3.8233   -0.3215   -0.3533 O   0  0  0  0  0  0  0  0  0  0  0  0
    5.7397   -1.3529   -2.1133 O   0  0  0  0  0  0  0  0  0  0  0  0
   -3.4865   -0.8047   -1.4053 N   0  0  1  0  0  0  0  0  0  0  0  0
   -1.1465   -1.0060    0.4375 N   0  0  0  0  0  0  0  0  0  0  0  0
   -1.3312   -0.9217    2.7162 N   0  0  0  0  0  0  0  0  0  0  0  0
    3.6396   -0.2337    1.9582 N   0  0  0  0  0  0  0  0  0  0  0  0
   -3.6218   -1.3923   -0.0575 C   0  0  1  0  0  0  0  0  0  0  0  0
   -3.9111   -2.8839   -0.3083 C   0  0  0  0  0  0  0  0  0  0  0  0
   -3.9801   -3.0265   -1.8222 C   0  0  0  0  0  0  0  0  0  0  0  0
   -4.3052   -1.6250   -2.2981 C   0  0  0  0  0  0  0  0  0  0  0  0
   -3.8594    0.6030   -1.4583 C   0  0  0  0  0  0  0  0  0  0  0  0
   -2.3935   -1.1713    0.8001 C   0  0  0  0  0  0  0  0  0  0  0  0
   -2.7587    1.4943   -0.9474 C   0  0  0  0  0  0  0  0  0  0  0  0
   -1.5031    1.4692   -1.5543 C   0  0  0  0  0  0  0  0  0  0  0  0
   -2.9945    2.3449    0.1325 C   0  0  0  0  0  0  0  0  0  0  0  0
   -0.5324   -0.8568    1.6468 C   0  0  0  0  0  0  0  0  0  0  0  0
   -0.4831    2.2951   -1.0815 C   0  0  0  0  0  0  0  0  0  0  0  0
   -1.9745    3.1706    0.6056 C   0  0  0  0  0  0  0  0  0  0  0  0
    0.8824   -0.6455    1.7522 C   0  0  0  0  0  0  0  0  0  0  0  0
   -0.7189    3.1458   -0.0015 C   0  0  0  0  0  0  0  0  0  0  0  0
    1.6672   -0.5879    0.6057 C   0  0  0  0  0  0  0  0  0  0  0  0
    1.4746   -0.4974    3.0015 C   0  0  0  0  0  0  0  0  0  0  0  0
    3.0286   -0.3820    0.7614 C   0  0  0  0  0  0  0  0  0  0  0  0
    2.8446   -0.2955    3.0500 C   0  0  0  0  0  0  0  0  0  0  0  0
    5.2133   -0.1083   -0.1372 C   0  0  0  0  0  0  0  0  0  0  0  0
    5.9258   -0.0950   -1.4759 C   0  0  0  0  0  0  0  0  0  0  0  0
    6.3697   -1.3899   -3.3862 C   0  0  0  0  0  0  0  0  0  0  0  0
   -4.4907   -0.9693    0.4661 H   0  0  0  0  0  0  0  0  0  0  0  0
   -3.1567   -3.5579    0.1119 H   0  0  0  0  0  0  0  0  0  0  0  0
   -4.8810   -3.1499    0.1295 H   0  0  0  0  0  0  0  0  0  0  0  0
   -4.7287   -3.7603   -2.1349 H   0  0  0  0  0  0  0  0  0  0  0  0
   -3.0054   -3.3463   -2.2112 H   0  0  0  0  0  0  0  0  0  0  0  0
   -5.3759   -1.4194   -2.1725 H   0  0  0  0  0  0  0  0  0  0  0  0
   -4.0361   -1.4850   -3.3496 H   0  0  0  0  0  0  0  0  0  0  0  0
   -4.0331    0.9036   -2.5012 H   0  0  0  0  0  0  0  0  0  0  0  0
   -4.8066    0.7927   -0.9366 H   0  0  0  0  0  0  0  0  0  0  0  0
   -1.3048    0.8153   -2.3994 H   0  0  0  0  0  0  0  0  0  0  0  0
   -3.9670    2.3733    0.6165 H   0  0  0  0  0  0  0  0  0  0  0  0
   -2.1573    3.8321    1.4472 H   0  0  0  0  0  0  0  0  0  0  0  0
    1.2489   -0.6980   -0.3901 H   0  0  0  0  0  0  0  0  0  0  0  0
    0.9137   -0.5330    3.9296 H   0  0  0  0  0  0  0  0  0  0  0  0
    3.3553   -0.1740    3.9996 H   0  0  0  0  0  0  0  0  0  0  0  0
    5.6163   -0.9261    0.4732 H   0  0  0  0  0  0  0  0  0  0  0  0
    5.3761    0.8508    0.3685 H   0  0  0  0  0  0  0  0  0  0  0  0
    5.5031    0.6913   -2.1121 H   0  0  0  0  0  0  0  0  0  0  0  0
    6.9952    0.0924   -1.3291 H   0  0  0  0  0  0  0  0  0  0  0  0
    6.1988   -2.3760   -3.8263 H   0  0  0  0  0  0  0  0  0  0  0  0
    7.4482   -1.2348   -3.2853 H   0  0  0  0  0  0  0  0  0  0  0  0
    5.9400   -0.6329   -4.0494 H   0  0  0  0  0  0  0  0  0  0  0  0
  1 20  1  0  0  0  0
  2 23  1  0  0  0  0
  3  8  1  0  0  0  0
  3 15  1  0  0  0  0
  4 26  1  0  0  0  0
  4 28  1  0  0  0  0
  5 29  1  0  0  0  0
  5 30  1  0  0  0  0
  6 10  1  0  0  0  0
  6 13  1  0  0  0  0
  6 14  1  0  0  0  0
  7 15  2  0  0  0  0
  7 19  1  0  0  0  0
  8 19  2  0  0  0  0
  9 26  2  0  0  0  0
  9 27  1  0  0  0  0
 10 11  1  0  0  0  0
 10 15  1  0  0  0  0
 10 31  1  0  0  0  0
 11 12  1  0  0  0  0
 11 32  1  0  0  0  0
 11 33  1  0  0  0  0
 12 13  1  0  0  0  0
 12 34  1  0  0  0  0
 12 35  1  0  0  0  0
 13 36  1  0  0  0  0
 13 37  1  0  0  0  0
 14 16  1  0  0  0  0
 14 38  1  0  0  0  0
 14 39  1  0  0  0  0
 16 17  2  0  0  0  0
 16 18  1  0  0  0  0
 17 20  1  0  0  0  0
 17 40  1  0  0  0  0
 18 21  2  0  0  0  0
 18 41  1  0  0  0  0
 19 22  1  0  0  0  0
 20 23  2  0  0  0  0
 21 23  1  0  0  0  0
 21 42  1  0  0  0  0
 22 24  2  0  0  0  0
 22 25  1  0  0  0  0
 24 26  1  0  0  0  0
 24 43  1  0  0  0  0
 25 27  2  0  0  0  0
 25 44  1  0  0  0  0
 27 45  1  0  0  0  0
 28 29  1  0  0  0  0
 28 46  1  0  0  0  0
 28 47  1  0  0  0  0
 29 48  1  0  0  0  0
 29 49  1  0  0  0  0
 30 50  1  0  0  0  0
 30 51  1  0  0  0  0
 30 52  1  0  0  0  0
M  END
> <PUBCHEM_COMPOUND_CID>
45783345

> <PUBCHEM_CONFORMER_RMSD>
1

> <PUBCHEM_CONFORMER_DIVERSEORDER>
1
64
161
70
62
66
142
54
95
90
127
139
88
44
69
163
130
154
31
24
102
160
134
22
155
144
39
35
152
150
98
89
137
34
141
119
122
147
76
143
128
17
168
103
138
82
135
140
61
111
68
29
158
33
118
123
133
45
55
63
96
51
36
83
100
19
65
164
12
117
151
115
121
41
37
136
101
94
125
40
97
159
153
84
99
58
104
32
5
129
46
20
149
71
30
120
80
92
77
67
75
156
91
166
28
126
74
73
23
38
27
110
116
148
78
112
4
59
109
49
157
47
21
132
145
85
14
72
56
3
162
108
13
81
60
2
106
87
18
79
165
113
50
105
16
6
124
114
11
57
53
42
131
93
25
7
9
26
10
8
48
86
167
107
15
52
146
43

> <PUBCHEM_MMFF94_PARTIAL_CHARGES>
34
1 -0.19
10 0.45
13 0.27
14 0.41
15 0.3
16 -0.14
17 -0.15
18 -0.15
19 0.46
2 -0.19
20 0.19
21 -0.15
22 0.05
23 0.19
24 -0.15
25 -0.15
26 0.39
27 0.16
28 0.28
29 0.28
3 -0.02
30 0.28
4 -0.36
40 0.15
41 0.15
42 0.15
43 0.15
44 0.15
45 0.15
5 -0.56
6 -0.81
7 -0.57
8 -0.41
9 -0.62

> <PUBCHEM_EFFECTIVE_ROTOR_COUNT>
9

> <PUBCHEM_PHARMACOPHORE_FEATURES>
7
1 5 acceptor
1 6 cation
3 7 8 19 cation
5 3 7 8 15 19 rings
5 6 10 11 12 13 rings
6 16 17 18 20 21 23 rings
6 9 22 24 25 26 27 rings

> <PUBCHEM_HEAVY_ATOM_COUNT>
30

> <PUBCHEM_ATOM_DEF_STEREO_COUNT>
1

> <PUBCHEM_ATOM_UDEF_STEREO_COUNT>
0

> <PUBCHEM_BOND_DEF_STEREO_COUNT>
0

> <PUBCHEM_BOND_UDEF_STEREO_COUNT>
0

> <PUBCHEM_ISOTOPIC_ATOM_COUNT>
0

> <PUBCHEM_COMPONENT_COUNT>
1

> <PUBCHEM_CACTVS_TAUTO_COUNT>
1

> <PUBCHEM_CONFORMER_ID>
02BA993100000001

> <PUBCHEM_MMFF94_ENERGY>
62.2433

> <PUBCHEM_FEATURE_SELFOVERLAP>
35.523

> <PUBCHEM_SHAPE_FINGERPRINT>
11607047 141 17839473520725005971
12596599 1 18270378547855940145
12788726 201 18188761735132942677
13761468 95 17754180778098577724
13782708 43 17561072618598621774
13994607 96 17603876550617573177
14395042 70 16689939164170912953
14910302 57 17988913457938368574
14931854 50 17530957007872092631
14950920 106 15625936598850720526
15513586 35 12542995055410217078
17492 54 17458329828620098165
20642791 239 17313099791393190509
20775438 99 17037227041365315859
20905425 154 17828181518689111357
21049683 271 15938968745312332259
22620623 9 18342460300905111632
23557571 272 18126532761619128051
3610482 184 17970937487091673580
484985 159 15123224373842302333
6034566 193 14780420923873757190
6786 2 17411918171670373353

> <PUBCHEM_SHAPE_MULTIPOLES>
565.31
11.28
3.52
3.26
17.91
2.12
1.08
-8.93
-9.17
-4.19
-1.92
3.34
-1.11
1.53

> <PUBCHEM_SHAPE_SELFOVERLAP>
1217.64

> <PUBCHEM_SHAPE_VOLUME>
314.2

> <PUBCHEM_COORDINATE_TYPE>
2
5
10

$$$$
