38026580
  -OEChem-12032416403D

 46 48  0     1  0  0  0  0  0999 V2000
   -3.4834    1.3199   -0.2906 S   0  0  0  0  0  0  0  0  0  0  0  0
    2.0806   -2.3631   -0.9986 O   0  0  0  0  0  0  0  0  0  0  0  0
   -3.4892    1.1260   -1.7274 O   0  0  0  0  0  0  0  0  0  0  0  0
   -3.0935    2.5929    0.2846 O   0  0  0  0  0  0  0  0  0  0  0  0
   -0.8029   -2.2841    1.0270 N   0  0  1  0  0  0  0  0  0  0  0  0
   -2.5686    0.0966    0.4593 N   0  0  0  0  0  0  0  0  0  0  0  0
    1.5610   -0.4415    0.0282 N   0  0  0  0  0  0  0  0  0  0  0  0
    3.2666   -1.6204   -0.9389 N   0  0  0  0  0  0  0  0  0  0  0  0
   -2.5130   -1.2462   -0.1726 C   0  0  1  0  0  0  0  0  0  0  0  0
   -0.2668   -2.1848   -0.3439 C   0  0  1  0  0  0  0  0  0  0  0  0
   -1.3041   -1.3327   -1.1007 C   0  0  0  0  0  0  0  0  0  0  0  0
   -2.2623   -2.3086    0.8851 C   0  0  0  0  0  0  0  0  0  0  0  0
    1.1265   -1.5968   -0.4080 C   0  0  0  0  0  0  0  0  0  0  0  0
   -0.3087   -3.4470    1.7545 C   0  0  0  0  0  0  0  0  0  0  0  0
   -5.1093    0.9373    0.3195 C   0  0  0  0  0  0  0  0  0  0  0  0
   -6.1452    1.9112   -0.2171 C   0  0  0  0  0  0  0  0  0  0  0  0
    2.8791   -0.5012   -0.3200 C   0  0  0  0  0  0  0  0  0  0  0  0
   -7.5323    1.5983    0.3185 C   0  0  0  0  0  0  0  0  0  0  0  0
    3.7827    0.5761   -0.0362 C   0  0  0  0  0  0  0  0  0  0  0  0
    3.3200    1.7216    0.6114 C   0  0  0  0  0  0  0  0  0  0  0  0
    5.1237    0.4786   -0.4076 C   0  0  0  0  0  0  0  0  0  0  0  0
    4.1982    2.7696    0.8879 C   0  0  0  0  0  0  0  0  0  0  0  0
    6.0019    1.5264   -0.1310 C   0  0  0  0  0  0  0  0  0  0  0  0
    5.5391    2.6719    0.5166 C   0  0  0  0  0  0  0  0  0  0  0  0
   -3.4484   -1.4458   -0.7052 H   0  0  0  0  0  0  0  0  0  0  0  0
   -0.2506   -3.1796   -0.8121 H   0  0  0  0  0  0  0  0  0  0  0  0
   -0.9252   -0.3432   -1.3822 H   0  0  0  0  0  0  0  0  0  0  0  0
   -1.5866   -1.8506   -2.0258 H   0  0  0  0  0  0  0  0  0  0  0  0
   -2.7673   -2.0952    1.8332 H   0  0  0  0  0  0  0  0  0  0  0  0
   -2.6055   -3.2842    0.5166 H   0  0  0  0  0  0  0  0  0  0  0  0
   -2.3606    0.1570    1.4633 H   0  0  0  0  0  0  0  0  0  0  0  0
    0.7787   -3.3957    1.8745 H   0  0  0  0  0  0  0  0  0  0  0  0
   -0.5548   -4.3893    1.2520 H   0  0  0  0  0  0  0  0  0  0  0  0
   -0.7367   -3.4745    2.7626 H   0  0  0  0  0  0  0  0  0  0  0  0
   -5.0666    0.9799    1.4127 H   0  0  0  0  0  0  0  0  0  0  0  0
   -5.3499   -0.0840    0.0088 H   0  0  0  0  0  0  0  0  0  0  0  0
   -5.8767    2.9376    0.0586 H   0  0  0  0  0  0  0  0  0  0  0  0
   -6.1652    1.8747   -1.3125 H   0  0  0  0  0  0  0  0  0  0  0  0
   -7.8469    0.5907    0.0281 H   0  0  0  0  0  0  0  0  0  0  0  0
   -7.5551    1.6642    1.4110 H   0  0  0  0  0  0  0  0  0  0  0  0
   -8.2622    2.3099   -0.0799 H   0  0  0  0  0  0  0  0  0  0  0  0
    2.2810    1.8279    0.9134 H   0  0  0  0  0  0  0  0  0  0  0  0
    5.5204   -0.3979   -0.9135 H   0  0  0  0  0  0  0  0  0  0  0  0
    3.8381    3.6616    1.3921 H   0  0  0  0  0  0  0  0  0  0  0  0
    7.0462    1.4509   -0.4199 H   0  0  0  0  0  0  0  0  0  0  0  0
    6.2229    3.4877    0.7318 H   0  0  0  0  0  0  0  0  0  0  0  0
  1  3  2  0  0  0  0
  1  4  2  0  0  0  0
  1  6  1  0  0  0  0
  1 15  1  0  0  0  0
  2  8  1  0  0  0  0
  2 13  1  0  0  0  0
  5 10  1  0  0  0  0
  5 12  1  0  0  0  0
  5 14  1  0  0  0  0
  6  9  1  0  0  0  0
  6 31  1  0  0  0  0
  7 13  2  0  0  0  0
  7 17  1  0  0  0  0
  8 17  2  0  0  0  0
  9 11  1  0  0  0  0
  9 12  1  0  0  0  0
  9 25  1  0  0  0  0
 10 11  1  0  0  0  0
 10 13  1  0  0  0  0
 10 26  1  0  0  0  0
 11 27  1  0  0  0  0
 11 28  1  0  0  0  0
 12 29  1  0  0  0  0
 12 30  1  0  0  0  0
 14 32  1  0  0  0  0
 14 33  1  0  0  0  0
 14 34  1  0  0  0  0
 15 16  1  0  0  0  0
 15 35  1  0  0  0  0
 15 36  1  0  0  0  0
 16 18  1  0  0  0  0
 16 37  1  0  0  0  0
 16 38  1  0  0  0  0
 17 19  1  0  0  0  0
 18 39  1  0  0  0  0
 18 40  1  0  0  0  0
 18 41  1  0  0  0  0
 19 20  2  0  0  0  0
 19 21  1  0  0  0  0
 20 22  1  0  0  0  0
 20 42  1  0  0  0  0
 21 23  2  0  0  0  0
 21 43  1  0  0  0  0
 22 24  2  0  0  0  0
 22 44  1  0  0  0  0
 23 24  1  0  0  0  0
 23 45  1  0  0  0  0
 24 46  1  0  0  0  0
M  END
> <PUBCHEM_COMPOUND_CID>
38026580

> <PUBCHEM_CONFORMER_RMSD>
1

> <PUBCHEM_CONFORMER_DIVERSEORDER>
1
70
37
77
69
64
28
76
13
80
72
65
42
23
51
36
55
33
10
78
5
54
60
21
27
16
26
40
32
71
57
66
53
52
8
14
83
22
39
38
25
41
43
49
62
35
79
17
75
34
18
11
19
30
81
24
59
29
73
63
82
9
67
12
7
45
56
74
15
46
44
58
61
31
2
47
20
3
48
68
50
6
4

> <PUBCHEM_MMFF94_PARTIAL_CHARGES>
27
1 1.33
10 0.45
12 0.27
13 0.3
14 0.27
15 0.11
17 0.46
19 0.05
2 -0.02
20 -0.15
21 -0.15
22 -0.15
23 -0.15
24 -0.15
3 -0.65
31 0.42
4 -0.65
42 0.15
43 0.15
44 0.15
45 0.15
46 0.15
5 -0.81
6 -0.91
7 -0.57
8 -0.41
9 0.36

> <PUBCHEM_EFFECTIVE_ROTOR_COUNT>
7

> <PUBCHEM_PHARMACOPHORE_FEATURES>
9
1 18 hydrophobe
1 3 acceptor
1 4 acceptor
1 5 cation
1 6 donor
3 7 8 17 cation
5 2 7 8 13 17 rings
5 5 9 10 11 12 rings
6 19 20 21 22 23 24 rings

> <PUBCHEM_HEAVY_ATOM_COUNT>
24

> <PUBCHEM_ATOM_DEF_STEREO_COUNT>
2

> <PUBCHEM_ATOM_UDEF_STEREO_COUNT>
0

> <PUBCHEM_BOND_DEF_STEREO_COUNT>
0

> <PUBCHEM_BOND_UDEF_STEREO_COUNT>
0

> <PUBCHEM_ISOTOPIC_ATOM_COUNT>
0

> <PUBCHEM_COMPONENT_COUNT>
1

> <PUBCHEM_CACTVS_TAUTO_COUNT>
1

> <PUBCHEM_CONFORMER_ID>
02443D5400000001

> <PUBCHEM_MMFF94_ENERGY>
35.0474

> <PUBCHEM_FEATURE_SELFOVERLAP>
45.688

> <PUBCHEM_SHAPE_FINGERPRINT>
10074138 170 17313957440902316899
11211813 74 18192988224546990221
12107183 9 18189321412985683170
12549972 3 18042427788812127234
13402501 40 18412544335790540768
14178342 30 17749955604105987842
14565420 104 18187645756985123987
14931854 50 17988928829500142760
17834072 32 18412260670638556124
17980427 26 18336531725619125118
20567600 254 18260825978064503397
20715895 44 18342738533503611528
21033648 29 18187372051071352034
21049683 118 18113888373489011043
21279426 13 18343032095092877470
21307412 95 11239993469634830045
21401589 2 18334571373758527515
21521721 280 18342464695590260803
23559900 14 18341895143998538970
23845131 108 18186802465963911731
270888 7 18412542136888305552
2838139 119 18342168947361260421
3014063 24 11169918299119164761
3246875 12 18409168840236899331
3472631 163 18202002127263491717
46194498 28 17702390541792514621
469060 322 17168136867489878215
5104073 3 18186794812189447202
56616090 13 18342173371351862703
59682541 35 18261686930793740425
7288768 16 18260546740502081443
7808743 9 18409162246612832377
9981440 41 18339637962168800274

> <PUBCHEM_SHAPE_MULTIPOLES>
460.23
15.26
3.89
1.13
8.04
1.13
0.05
-17.9
0.44
-0.05
1.22
0.18
0.56
1.54

> <PUBCHEM_SHAPE_SELFOVERLAP>
952.578

> <PUBCHEM_SHAPE_VOLUME>
266.1

> <PUBCHEM_COORDINATE_TYPE>
2
5
10

$$$$
