71693352
  -OEChem-12032416233D

 50 52  0     1  0  0  0  0  0999 V2000
    3.0895   -1.1559   -1.6824 O   0  0  0  0  0  0  0  0  0  0  0  0
    4.7306   -0.8748    2.7220 O   0  0  0  0  0  0  0  0  0  0  0  0
    5.6559    1.1069   -1.6458 O   0  0  0  0  0  0  0  0  0  0  0  0
   -3.9634   -1.8501    0.3221 O   0  0  0  0  0  0  0  0  0  0  0  0
   -6.6926    1.6798   -0.1047 O   0  0  0  0  0  0  0  0  0  0  0  0
    4.2485    0.5035    0.1156 N   0  0  0  0  0  0  0  0  0  0  0  0
   -2.8599    0.1621   -0.1896 N   0  0  0  0  0  0  0  0  0  0  0  0
   -5.3421    1.3600   -0.1754 N   0  0  0  0  0  0  0  0  0  0  0  0
    3.4612   -0.5761    0.7211 C   0  0  1  0  0  0  0  0  0  0  0  0
    2.6355   -1.3520   -0.3388 C   0  0  1  0  0  0  0  0  0  0  0  0
    4.4757    1.7079    0.8998 C   0  0  0  0  0  0  0  0  0  0  0  0
    4.3657   -1.5232    1.5209 C   0  0  0  0  0  0  0  0  0  0  0  0
    4.8662    0.3254   -1.1198 C   0  0  0  0  0  0  0  0  0  0  0  0
    1.1735   -0.9488   -0.2986 C   0  0  0  0  0  0  0  0  0  0  0  0
    4.4862   -0.9732   -1.7902 C   0  0  0  0  0  0  0  0  0  0  0  0
    3.9961    2.9353    0.1358 C   0  0  0  0  0  0  0  0  0  0  0  0
    5.9470    1.8317    1.2758 C   0  0  0  0  0  0  0  0  0  0  0  0
    0.1950   -1.9023   -0.0175 C   0  0  0  0  0  0  0  0  0  0  0  0
    0.8076    0.3749   -0.5431 C   0  0  0  0  0  0  0  0  0  0  0  0
   -1.1494   -1.5322    0.0189 C   0  0  0  0  0  0  0  0  0  0  0  0
   -0.5367    0.7450   -0.5067 C   0  0  0  0  0  0  0  0  0  0  0  0
   -1.5152   -0.2085   -0.2257 C   0  0  0  0  0  0  0  0  0  0  0  0
   -3.9716   -0.6494    0.0729 C   0  0  0  0  0  0  0  0  0  0  0  0
   -5.2845    0.0476    0.0683 C   0  0  0  0  0  0  0  0  0  0  0  0
   -6.5546   -0.5088    0.2978 C   0  0  0  0  0  0  0  0  0  0  0  0
   -7.4044    0.5588    0.1777 C   0  0  0  0  0  0  0  0  0  0  0  0
   -8.8598    0.7166    0.2896 C   0  0  0  0  0  0  0  0  0  0  0  0
    2.7699   -0.1188    1.4423 H   0  0  0  0  0  0  0  0  0  0  0  0
    2.6998   -2.4299   -0.1447 H   0  0  0  0  0  0  0  0  0  0  0  0
    3.8918    1.6431    1.8253 H   0  0  0  0  0  0  0  0  0  0  0  0
    5.2746   -1.7935    0.9753 H   0  0  0  0  0  0  0  0  0  0  0  0
    3.8307   -2.4379    1.7956 H   0  0  0  0  0  0  0  0  0  0  0  0
    4.7358   -0.9067   -2.8535 H   0  0  0  0  0  0  0  0  0  0  0  0
    5.0343   -1.8160   -1.3586 H   0  0  0  0  0  0  0  0  0  0  0  0
    4.5712    3.1278   -0.7743 H   0  0  0  0  0  0  0  0  0  0  0  0
    2.9447    2.8376   -0.1498 H   0  0  0  0  0  0  0  0  0  0  0  0
    4.0827    3.8284    0.7649 H   0  0  0  0  0  0  0  0  0  0  0  0
    6.5864    2.0578    0.4172 H   0  0  0  0  0  0  0  0  0  0  0  0
    6.3282    0.9152    1.7356 H   0  0  0  0  0  0  0  0  0  0  0  0
    6.0834    2.6458    1.9964 H   0  0  0  0  0  0  0  0  0  0  0  0
    0.4653   -2.9371    0.1754 H   0  0  0  0  0  0  0  0  0  0  0  0
    1.5526    1.1261   -0.7816 H   0  0  0  0  0  0  0  0  0  0  0  0
    5.3012   -1.4862    3.2180 H   0  0  0  0  0  0  0  0  0  0  0  0
   -1.8463   -2.3272    0.2433 H   0  0  0  0  0  0  0  0  0  0  0  0
   -0.8078    1.7792   -0.7032 H   0  0  0  0  0  0  0  0  0  0  0  0
   -3.0461    1.1457   -0.3744 H   0  0  0  0  0  0  0  0  0  0  0  0
   -6.8184   -1.5329    0.5181 H   0  0  0  0  0  0  0  0  0  0  0  0
   -9.1102    1.4228    1.0872 H   0  0  0  0  0  0  0  0  0  0  0  0
   -9.3444   -0.2379    0.5177 H   0  0  0  0  0  0  0  0  0  0  0  0
   -9.2792    1.0938   -0.6482 H   0  0  0  0  0  0  0  0  0  0  0  0
  1 10  1  0  0  0  0
  1 15  1  0  0  0  0
  2 12  1  0  0  0  0
  2 43  1  0  0  0  0
  3 13  2  0  0  0  0
  4 23  2  0  0  0  0
  5  8  1  0  0  0  0
  5 26  1  0  0  0  0
  6  9  1  0  0  0  0
  6 11  1  0  0  0  0
  6 13  1  0  0  0  0
  7 22  1  0  0  0  0
  7 23  1  0  0  0  0
  7 46  1  0  0  0  0
  8 24  2  0  0  0  0
  9 10  1  0  0  0  0
  9 12  1  0  0  0  0
  9 28  1  0  0  0  0
 10 14  1  0  0  0  0
 10 29  1  0  0  0  0
 11 16  1  0  0  0  0
 11 17  1  0  0  0  0
 11 30  1  0  0  0  0
 12 31  1  0  0  0  0
 12 32  1  0  0  0  0
 13 15  1  0  0  0  0
 14 18  2  0  0  0  0
 14 19  1  0  0  0  0
 15 33  1  0  0  0  0
 15 34  1  0  0  0  0
 16 35  1  0  0  0  0
 16 36  1  0  0  0  0
 16 37  1  0  0  0  0
 17 38  1  0  0  0  0
 17 39  1  0  0  0  0
 17 40  1  0  0  0  0
 18 20  1  0  0  0  0
 18 41  1  0  0  0  0
 19 21  2  0  0  0  0
 19 42  1  0  0  0  0
 20 22  2  0  0  0  0
 20 44  1  0  0  0  0
 21 22  1  0  0  0  0
 21 45  1  0  0  0  0
 23 24  1  0  0  0  0
 24 25  1  0  0  0  0
 25 26  2  0  0  0  0
 25 47  1  0  0  0  0
 26 27  1  0  0  0  0
 27 48  1  0  0  0  0
 27 49  1  0  0  0  0
 27 50  1  0  0  0  0
M  END
> <PUBCHEM_COMPOUND_CID>
71693352

> <PUBCHEM_CONFORMER_RMSD>
0.8

> <PUBCHEM_CONFORMER_DIVERSEORDER>
1
29
12
19
23
34
20
3
27
33
28
7
31
25
10
18
6
21
8
14
22
9
4
26
30
13
15
17
32
24
5
11
16
2

> <PUBCHEM_MMFF94_PARTIAL_CHARGES>
32
1 -0.56
10 0.42
11 0.3
12 0.28
13 0.57
14 -0.14
15 0.34
18 -0.15
19 -0.15
2 -0.68
20 -0.15
21 -0.15
22 0.12
23 0.72
24 0.2
25 -0.15
26 -0.04
27 0.18
3 -0.57
4 -0.57
41 0.15
42 0.15
43 0.4
44 0.15
45 0.15
46 0.37
47 0.15
5 -0.02
6 -0.66
7 -0.55
8 -0.41
9 0.3

> <PUBCHEM_EFFECTIVE_ROTOR_COUNT>
7

> <PUBCHEM_PHARMACOPHORE_FEATURES>
11
1 1 acceptor
1 2 acceptor
1 2 donor
1 3 acceptor
1 4 acceptor
1 7 donor
1 8 acceptor
3 11 16 17 hydrophobe
5 5 8 24 25 26 rings
6 1 6 9 10 13 15 rings
6 14 18 19 20 21 22 rings

> <PUBCHEM_HEAVY_ATOM_COUNT>
27

> <PUBCHEM_ATOM_DEF_STEREO_COUNT>
2

> <PUBCHEM_ATOM_UDEF_STEREO_COUNT>
0

> <PUBCHEM_BOND_DEF_STEREO_COUNT>
0

> <PUBCHEM_BOND_UDEF_STEREO_COUNT>
0

> <PUBCHEM_ISOTOPIC_ATOM_COUNT>
0

> <PUBCHEM_COMPONENT_COUNT>
1

> <PUBCHEM_CACTVS_TAUTO_COUNT>
4

> <PUBCHEM_CONFORMER_ID>
0445F42800000001

> <PUBCHEM_MMFF94_ENERGY>
67.8563

> <PUBCHEM_FEATURE_SELFOVERLAP>
55.823

> <PUBCHEM_SHAPE_FINGERPRINT>
10 15 18334014999959225243
11719270 70 17968095283883710787
11991303 11 16415472779739061581
12236239 1 17603587409477757723
125118 31 18187645757170214357
12516196 113 18201720648487802281
12778500 126 18187356628693008210
13533116 47 17676482805173893514
13685833 64 7853576803113624981
13782708 43 11746938694345727833
14251764 18 18259705610634798023
14347332 77 9871478608077045443
14528608 73 18272090504397325527
14933364 13 18273219690565910205
15183329 4 18411986849763247481
15352257 5 8502652610941847065
15475509 35 16516229744548652218
19377110 9 16226044492262013981
20157964 124 18060422408416071799
20281389 69 18259983752447894141
20397935 70 12179840611224977724
20721686 146 17273961623722272688
21033648 29 18270955864279255064
21130935 74 18187647973468428003
21150785 3 16056880243325342053
21344244 78 16298375869375581700
21641784 216 15482402988518277347
21792934 111 18114169801321164189
221357 26 17632585924653372552
23081809 10 17967812752234106231
23559900 14 18409459072452057910
24771293 8 18268140032160024884
249057 3 17275109423049808518
29717793 49 11959731568593114971
3411729 13 18338232799414917560
34797466 226 17846786200023277765
4073 2 17895762923006244683
4093350 32 17489874829599673516
4340502 62 15574716915054708098
465052 167 12179838390642262824
5104073 3 18114178657501667747
5109719 28 18339371867643588625
5718773 13 8573896566438907560
59682541 52 15913335671265720614

> <PUBCHEM_SHAPE_MULTIPOLES>
511.36
21.1
2.12
1.4
40.12
0.78
-0.32
9.21
-2.48
-2.24
-0.23
-3.43
-0.31
0.43

> <PUBCHEM_SHAPE_SELFOVERLAP>
1084.523

> <PUBCHEM_SHAPE_VOLUME>
284.3

> <PUBCHEM_COORDINATE_TYPE>
2
5
10

$$$$
