11879846
  -OEChem-12032416113D

 52 55  0     1  0  0  0  0  0999 V2000
    2.2678   -1.0019   -1.4532 S   0  0  0  0  0  0  0  0  0  0  0  0
   -0.5980   -2.2055   -1.7628 O   0  0  0  0  0  0  0  0  0  0  0  0
   -2.2374    2.6607    0.4617 O   0  0  0  0  0  0  0  0  0  0  0  0
   -3.0318    4.0636   -1.2602 O   0  0  0  0  0  0  0  0  0  0  0  0
   -4.8312    2.6940   -1.6771 O   0  0  0  0  0  0  0  0  0  0  0  0
    2.7268   -1.8082   -2.5684 O   0  0  0  0  0  0  0  0  0  0  0  0
    1.3065    0.0631   -1.6682 O   0  0  0  0  0  0  0  0  0  0  0  0
    7.0343    1.4096    1.0455 O   0  0  0  0  0  0  0  0  0  0  0  0
   -1.9822   -1.6111    0.0319 N   0  0  0  0  0  0  0  0  0  0  0  0
   -3.8550    0.9743    0.4440 N   0  0  0  0  0  0  0  0  0  0  0  0
    1.7315   -2.0095   -0.2034 N   0  0  0  0  0  0  0  0  0  0  0  0
   -4.5180   -1.3567   -0.1848 C   0  0  2  0  0  0  0  0  0  0  0  0
   -3.4329   -0.9398    1.9806 C   0  0  2  0  0  0  0  0  0  0  0  0
   -4.5454   -1.7269    1.2924 C   0  0  0  0  0  0  0  0  0  0  0  0
   -3.1839   -1.8152   -0.7856 C   0  0  0  0  0  0  0  0  0  0  0  0
   -4.7476    0.1538   -0.3772 C   0  0  0  0  0  0  0  0  0  0  0  0
   -3.7150    0.5664    1.8443 C   0  0  0  0  0  0  0  0  0  0  0  0
   -2.0755   -1.2674    1.3870 C   0  0  0  0  0  0  0  0  0  0  0  0
   -0.9694   -1.2013    2.1507 C   0  0  0  0  0  0  0  0  0  0  0  0
   -0.7425   -1.8827   -0.5844 C   0  0  0  0  0  0  0  0  0  0  0  0
   -3.2593    2.1546    0.0134 C   0  0  0  0  0  0  0  0  0  0  0  0
    0.4422   -1.7700    0.3029 C   0  0  0  0  0  0  0  0  0  0  0  0
    0.3315   -1.4589    1.5949 C   0  0  0  0  0  0  0  0  0  0  0  0
   -3.8152    2.9921   -1.0813 C   0  0  0  0  0  0  0  0  0  0  0  0
    3.6969   -0.2792   -0.7023 C   0  0  0  0  0  0  0  0  0  0  0  0
    3.5612    0.8955    0.0165 C   0  0  0  0  0  0  0  0  0  0  0  0
    4.9241   -0.9015   -0.8496 C   0  0  0  0  0  0  0  0  0  0  0  0
    4.6889    1.4660    0.6070 C   0  0  0  0  0  0  0  0  0  0  0  0
    6.0517   -0.3311   -0.2591 C   0  0  0  0  0  0  0  0  0  0  0  0
    5.9341    0.8526    0.4693 C   0  0  0  0  0  0  0  0  0  0  0  0
    6.8424    2.6204    1.7754 C   0  0  0  0  0  0  0  0  0  0  0  0
   -5.3255   -1.8817   -0.7104 H   0  0  0  0  0  0  0  0  0  0  0  0
   -3.4405   -1.1982    3.0476 H   0  0  0  0  0  0  0  0  0  0  0  0
   -4.3975   -2.8061    1.4237 H   0  0  0  0  0  0  0  0  0  0  0  0
   -5.5197   -1.4798    1.7313 H   0  0  0  0  0  0  0  0  0  0  0  0
   -3.2351   -2.8973   -0.9690 H   0  0  0  0  0  0  0  0  0  0  0  0
   -3.0224   -1.3521   -1.7672 H   0  0  0  0  0  0  0  0  0  0  0  0
   -4.6186    0.3966   -1.4353 H   0  0  0  0  0  0  0  0  0  0  0  0
   -5.7732    0.4172   -0.0927 H   0  0  0  0  0  0  0  0  0  0  0  0
   -4.6603    0.8174    2.3416 H   0  0  0  0  0  0  0  0  0  0  0  0
   -2.9338    1.1602    2.3330 H   0  0  0  0  0  0  0  0  0  0  0  0
   -1.0187   -0.9276    3.1995 H   0  0  0  0  0  0  0  0  0  0  0  0
    1.1875   -1.3762    2.2562 H   0  0  0  0  0  0  0  0  0  0  0  0
    2.4263   -2.1801    0.5375 H   0  0  0  0  0  0  0  0  0  0  0  0
   -3.3612    4.6500   -1.9743 H   0  0  0  0  0  0  0  0  0  0  0  0
    2.5989    1.3826    0.1408 H   0  0  0  0  0  0  0  0  0  0  0  0
    5.0347   -1.8269   -1.4063 H   0  0  0  0  0  0  0  0  0  0  0  0
    4.5260    2.3848    1.1599 H   0  0  0  0  0  0  0  0  0  0  0  0
    7.0189   -0.8143   -0.3684 H   0  0  0  0  0  0  0  0  0  0  0  0
    6.1876    2.4694    2.6403 H   0  0  0  0  0  0  0  0  0  0  0  0
    6.4929    3.4305    1.1263 H   0  0  0  0  0  0  0  0  0  0  0  0
    7.8207    2.9219    2.1641 H   0  0  0  0  0  0  0  0  0  0  0  0
  1  6  2  0  0  0  0
  1  7  2  0  0  0  0
  1 11  1  0  0  0  0
  1 25  1  0  0  0  0
  2 20  2  0  0  0  0
  3 21  2  0  0  0  0
  4 24  1  0  0  0  0
  4 45  1  0  0  0  0
  5 24  2  0  0  0  0
  8 30  1  0  0  0  0
  8 31  1  0  0  0  0
  9 15  1  0  0  0  0
  9 18  1  0  0  0  0
  9 20  1  0  0  0  0
 10 16  1  0  0  0  0
 10 17  1  0  0  0  0
 10 21  1  0  0  0  0
 11 22  1  0  0  0  0
 11 44  1  0  0  0  0
 12 14  1  0  0  0  0
 12 15  1  0  0  0  0
 12 16  1  0  0  0  0
 12 32  1  0  0  0  0
 13 14  1  0  0  0  0
 13 17  1  0  0  0  0
 13 18  1  0  0  0  0
 13 33  1  0  0  0  0
 14 34  1  0  0  0  0
 14 35  1  0  0  0  0
 15 36  1  0  0  0  0
 15 37  1  0  0  0  0
 16 38  1  0  0  0  0
 16 39  1  0  0  0  0
 17 40  1  0  0  0  0
 17 41  1  0  0  0  0
 18 19  2  0  0  0  0
 19 23  1  0  0  0  0
 19 42  1  0  0  0  0
 20 22  1  0  0  0  0
 21 24  1  0  0  0  0
 22 23  2  0  0  0  0
 23 43  1  0  0  0  0
 25 26  2  0  0  0  0
 25 27  1  0  0  0  0
 26 28  1  0  0  0  0
 26 46  1  0  0  0  0
 27 29  2  0  0  0  0
 27 47  1  0  0  0  0
 28 30  2  0  0  0  0
 28 48  1  0  0  0  0
 29 30  1  0  0  0  0
 29 49  1  0  0  0  0
 31 50  1  0  0  0  0
 31 51  1  0  0  0  0
 31 52  1  0  0  0  0
M  END
> <PUBCHEM_COMPOUND_CID>
11879846

> <PUBCHEM_CONFORMER_RMSD>
0.8

> <PUBCHEM_CONFORMER_DIVERSEORDER>
1
10
16
32
17
25
36
31
30
18
35
6
22
12
8
5
27
20
33
29
4
28
2
34
14
21
13
7
19
26
23
11
15
3
9
24

> <PUBCHEM_MMFF94_PARTIAL_CHARGES>
37
1 1.45
10 -0.66
11 -0.75
13 0.14
15 0.3
16 0.3
17 0.3
18 -0.03
19 -0.15
2 -0.57
20 0.62
21 0.63
22 0.21
23 -0.15
24 0.72
25 -0.01
26 -0.15
27 -0.15
28 -0.15
29 -0.15
3 -0.57
30 0.08
31 0.28
4 -0.65
42 0.15
43 0.15
44 0.42
45 0.5
46 0.15
47 0.15
48 0.15
49 0.15
5 -0.57
6 -0.65
7 -0.65
8 -0.36
9 -0.47

> <PUBCHEM_EFFECTIVE_ROTOR_COUNT>
7

> <PUBCHEM_PHARMACOPHORE_FEATURES>
13
1 11 donor
1 2 acceptor
1 3 acceptor
1 4 acceptor
1 5 acceptor
1 6 acceptor
1 7 acceptor
1 8 acceptor
3 4 5 24 anion
6 10 12 13 14 16 17 rings
6 25 26 27 28 29 30 rings
6 9 12 13 14 15 18 rings
6 9 18 19 20 22 23 rings

> <PUBCHEM_HEAVY_ATOM_COUNT>
31

> <PUBCHEM_ATOM_DEF_STEREO_COUNT>
2

> <PUBCHEM_ATOM_UDEF_STEREO_COUNT>
0

> <PUBCHEM_BOND_DEF_STEREO_COUNT>
0

> <PUBCHEM_BOND_UDEF_STEREO_COUNT>
0

> <PUBCHEM_ISOTOPIC_ATOM_COUNT>
0

> <PUBCHEM_COMPONENT_COUNT>
1

> <PUBCHEM_CACTVS_TAUTO_COUNT>
1

> <PUBCHEM_CONFORMER_ID>
00B545A600000001

> <PUBCHEM_MMFF94_ENERGY>
87.8191

> <PUBCHEM_FEATURE_SELFOVERLAP>
67.635

> <PUBCHEM_SHAPE_FINGERPRINT>
10042902 136 11383530309692313937
12128747 34 18116155463797900954
12596602 18 16878510171315128896
12633257 1 16153716439764974222
12655364 131 15936950969206666507
13103583 49 14779561075066841776
13257819 101 18272930544714259924
13383661 66 14970611348068464893
13402501 40 18341896302911572584
13911987 19 16774081794892533183
14251764 38 18335428966985127324
14466204 15 18333448742585768512
14739800 52 18115296778884769746
14950920 106 14201985409604952293
15320295 40 17532917497560851071
15463212 79 18412824715725125407
15484559 13 14965095664961906920
15799311 1 13984666941070485122
16067690 210 17822286920493797152
17349148 13 17531260494535043862
18393751 57 18267309909397018546
19438510 23 18116996585871711353
21033648 144 18058730337932021526
21033648 29 18408042918517681302
21315764 268 18342459266007916656
21859007 373 18337669720817543332
22956985 138 16961841234546670571
23559900 14 16486150405075041798
2838139 119 18266452118433202676
328310 1195 18131069303814547784
437795 96 18199174269547173240
469060 322 17824573879288965393
508706 21 18187654591258266665
9981440 41 17967540030374235539

> <PUBCHEM_SHAPE_MULTIPOLES>
585.79
15.12
3.48
2.03
22.38
3.47
0.09
8.83
3.15
-3.23
-1.04
-0.21
-0.26
3.82

> <PUBCHEM_SHAPE_SELFOVERLAP>
1262.371

> <PUBCHEM_SHAPE_VOLUME>
321.5

> <PUBCHEM_COORDINATE_TYPE>
2
5
10

$$$$
