11912251
  -OEChem-12032416233D

 62 65  0     1  0  0  0  0  0999 V2000
   -2.7374    1.5376    1.1810 S   0  0  0  0  0  0  0  0  0  0  0  0
   -6.0971   -1.1332   -2.8567 F   0  0  0  0  0  0  0  0  0  0  0  0
   -2.1371    2.6983    0.5670 O   0  0  0  0  0  0  0  0  0  0  0  0
   -3.4979    1.6395    2.4041 O   0  0  0  0  0  0  0  0  0  0  0  0
    0.9223    0.8973    2.2421 O   0  0  0  0  0  0  0  0  0  0  0  0
    3.8694   -3.1874   -2.0154 O   0  0  0  0  0  0  0  0  0  0  0  0
    1.3836   -3.5080    2.2909 O   0  0  0  0  0  0  0  0  0  0  0  0
    1.6355    4.6357   -0.1382 O   0  0  0  0  0  0  0  0  0  0  0  0
   -1.5320    0.3441    1.3884 N   0  0  2  0  0  0  0  0  0  0  0  0
    0.0983   -2.0388    1.0665 N   0  0  0  0  0  0  0  0  0  0  0  0
    1.4484    1.7570    0.1437 N   0  0  0  0  0  0  0  0  0  0  0  0
    2.0457   -3.0747    0.1308 N   0  0  0  0  0  0  0  0  0  0  0  0
    3.4229    3.9065   -1.3580 N   0  0  0  0  0  0  0  0  0  0  0  0
   -0.4398    0.3077    0.3767 C   0  0  2  0  0  0  0  0  0  0  0  0
   -0.0713   -1.1095   -0.0609 C   0  0  0  0  0  0  0  0  0  0  0  0
   -2.0008   -0.9859    1.8596 C   0  0  0  0  0  0  0  0  0  0  0  0
   -0.7947   -1.8429    2.2073 C   0  0  0  0  0  0  0  0  0  0  0  0
    0.7092    1.0006    1.0369 C   0  0  0  0  0  0  0  0  0  0  0  0
    2.5958    2.5406    0.5334 C   0  0  1  0  0  0  0  0  0  0  0  0
    1.1838   -2.9157    1.2222 C   0  0  0  0  0  0  0  0  0  0  0  0
    3.8935    1.7478    0.4231 C   0  0  0  0  0  0  0  0  0  0  0  0
    4.3523    1.6451   -1.0240 C   0  0  0  0  0  0  0  0  0  0  0  0
   -3.7428    0.7382   -0.0274 C   0  0  0  0  0  0  0  0  0  0  0  0
    1.5989   -3.4360   -1.2187 C   0  0  0  0  0  0  0  0  0  0  0  0
    3.4588   -3.3599    0.3717 C   0  0  0  0  0  0  0  0  0  0  0  0
    2.5278    3.8027   -0.3156 C   0  0  0  0  0  0  0  0  0  0  0  0
    4.5676    3.0431   -1.5699 C   0  0  0  0  0  0  0  0  0  0  0  0
    2.5114   -2.8054   -2.2597 C   0  0  0  0  0  0  0  0  0  0  0  0
    4.3108   -2.7419   -0.7294 C   0  0  0  0  0  0  0  0  0  0  0  0
   -4.7943   -0.0855    0.3746 C   0  0  0  0  0  0  0  0  0  0  0  0
   -3.4864    0.9296   -1.3852 C   0  0  0  0  0  0  0  0  0  0  0  0
   -5.5896   -0.7175   -0.5811 C   0  0  0  0  0  0  0  0  0  0  0  0
   -4.2817    0.2974   -2.3408 C   0  0  0  0  0  0  0  0  0  0  0  0
   -5.3333   -0.5261   -1.9389 C   0  0  0  0  0  0  0  0  0  0  0  0
   -0.7301    0.8606   -0.5219 H   0  0  0  0  0  0  0  0  0  0  0  0
    0.8395   -1.0541   -0.6585 H   0  0  0  0  0  0  0  0  0  0  0  0
   -0.8724   -1.5208   -0.6865 H   0  0  0  0  0  0  0  0  0  0  0  0
   -2.6216   -0.8680    2.7534 H   0  0  0  0  0  0  0  0  0  0  0  0
   -2.5840   -1.4917    1.0849 H   0  0  0  0  0  0  0  0  0  0  0  0
   -1.1182   -2.8279    2.5631 H   0  0  0  0  0  0  0  0  0  0  0  0
   -0.2097   -1.3864    3.0147 H   0  0  0  0  0  0  0  0  0  0  0  0
    2.4669    2.8430    1.5800 H   0  0  0  0  0  0  0  0  0  0  0  0
    1.2000    1.7386   -0.8417 H   0  0  0  0  0  0  0  0  0  0  0  0
    3.7728    0.7435    0.8462 H   0  0  0  0  0  0  0  0  0  0  0  0
    4.6745    2.2501    1.0082 H   0  0  0  0  0  0  0  0  0  0  0  0
    3.6004    1.1152   -1.6210 H   0  0  0  0  0  0  0  0  0  0  0  0
    5.2826    1.0704   -1.0879 H   0  0  0  0  0  0  0  0  0  0  0  0
    1.6747   -4.5295   -1.2765 H   0  0  0  0  0  0  0  0  0  0  0  0
    0.5480   -3.1941   -1.3843 H   0  0  0  0  0  0  0  0  0  0  0  0
    3.7568   -2.9779    1.3537 H   0  0  0  0  0  0  0  0  0  0  0  0
    3.5692   -4.4507    0.3801 H   0  0  0  0  0  0  0  0  0  0  0  0
    5.4232    3.5224   -1.0816 H   0  0  0  0  0  0  0  0  0  0  0  0
    4.7674    3.0128   -2.6456 H   0  0  0  0  0  0  0  0  0  0  0  0
    3.3505    4.7297   -1.9479 H   0  0  0  0  0  0  0  0  0  0  0  0
    2.2403   -3.1574   -3.2597 H   0  0  0  0  0  0  0  0  0  0  0  0
    2.4409   -1.7119   -2.2578 H   0  0  0  0  0  0  0  0  0  0  0  0
    5.3564   -3.0415   -0.6094 H   0  0  0  0  0  0  0  0  0  0  0  0
    4.2695   -1.6467   -0.6966 H   0  0  0  0  0  0  0  0  0  0  0  0
   -5.0118   -0.2504    1.4260 H   0  0  0  0  0  0  0  0  0  0  0  0
   -2.6759    1.5683   -1.7236 H   0  0  0  0  0  0  0  0  0  0  0  0
   -6.4081   -1.3593   -0.2688 H   0  0  0  0  0  0  0  0  0  0  0  0
   -4.0829    0.4464   -3.3980 H   0  0  0  0  0  0  0  0  0  0  0  0
  1  3  2  0  0  0  0
  1  4  2  0  0  0  0
  1  9  1  0  0  0  0
  1 23  1  0  0  0  0
  2 34  1  0  0  0  0
  5 18  2  0  0  0  0
  6 28  1  0  0  0  0
  6 29  1  0  0  0  0
  7 20  2  0  0  0  0
  8 26  2  0  0  0  0
  9 14  1  0  0  0  0
  9 16  1  0  0  0  0
 10 15  1  0  0  0  0
 10 17  1  0  0  0  0
 10 20  1  0  0  0  0
 11 18  1  0  0  0  0
 11 19  1  0  0  0  0
 11 43  1  0  0  0  0
 12 20  1  0  0  0  0
 12 24  1  0  0  0  0
 12 25  1  0  0  0  0
 13 26  1  0  0  0  0
 13 27  1  0  0  0  0
 13 54  1  0  0  0  0
 14 15  1  0  0  0  0
 14 18  1  0  0  0  0
 14 35  1  0  0  0  0
 15 36  1  0  0  0  0
 15 37  1  0  0  0  0
 16 17  1  0  0  0  0
 16 38  1  0  0  0  0
 16 39  1  0  0  0  0
 17 40  1  0  0  0  0
 17 41  1  0  0  0  0
 19 21  1  0  0  0  0
 19 26  1  0  0  0  0
 19 42  1  0  0  0  0
 21 22  1  0  0  0  0
 21 44  1  0  0  0  0
 21 45  1  0  0  0  0
 22 27  1  0  0  0  0
 22 46  1  0  0  0  0
 22 47  1  0  0  0  0
 23 30  2  0  0  0  0
 23 31  1  0  0  0  0
 24 28  1  0  0  0  0
 24 48  1  0  0  0  0
 24 49  1  0  0  0  0
 25 29  1  0  0  0  0
 25 50  1  0  0  0  0
 25 51  1  0  0  0  0
 27 52  1  0  0  0  0
 27 53  1  0  0  0  0
 28 55  1  0  0  0  0
 28 56  1  0  0  0  0
 29 57  1  0  0  0  0
 29 58  1  0  0  0  0
 30 32  1  0  0  0  0
 30 59  1  0  0  0  0
 31 33  2  0  0  0  0
 31 60  1  0  0  0  0
 32 34  2  0  0  0  0
 32 61  1  0  0  0  0
 33 34  1  0  0  0  0
 33 62  1  0  0  0  0
M  END
> <PUBCHEM_COMPOUND_CID>
11912251

> <PUBCHEM_CONFORMER_RMSD>
1.2

> <PUBCHEM_CONFORMER_DIVERSEORDER>
2
139
45
157
77
65
24
179
130
61
111
115
153
34
82
127
46
163
147
178
19
190
186
80
145
146
50
137
114
140
156
23
51
55
150
128
144
103
116
66
25
110
49
176
151
134
91
124
63
105
123
143
172
162
90
62
175
48
37
164
170
15
6
8
84
183
13
108
158
184
74
159
180
167
107
168
43
188
100
173
187
101
71
12
121
120
136
169
181
142
79
171
125
152
118
93
73
76
109
56
22
17
185
42
32
96
122
135
44
161
149
129
106
7
112
41
68
58
160
141
99
154
47
87
26
104
57
67
174
126
133
14
59
39
155
33
177
131
36
38
98
52
60
92
94
83
189
182
20
70
95
86
16
166
35
191
102
165
5
64
85
89
54
11
132
119
28
1
97
72
18
113
40
88
138
53
3
9
4
21
75
31
29
148
27
81
30
117
69
10
78

> <PUBCHEM_MMFF94_PARTIAL_CHARGES>
38
1 1.45
10 -0.66
11 -0.73
12 -0.66
13 -0.73
14 0.42
15 0.3
16 0.36
17 0.3
18 0.57
19 0.36
2 -0.19
20 0.69
23 -0.01
24 0.3
25 0.3
26 0.57
27 0.3
28 0.28
29 0.28
3 -0.65
30 -0.15
31 -0.15
32 -0.15
33 -0.15
34 0.19
4 -0.65
43 0.37
5 -0.57
54 0.37
59 0.15
6 -0.56
60 0.15
61 0.15
62 0.15
7 -0.57
8 -0.57
9 -0.85

> <PUBCHEM_EFFECTIVE_ROTOR_COUNT>
10.4

> <PUBCHEM_PHARMACOPHORE_FEATURES>
12
1 11 donor
1 13 donor
1 3 acceptor
1 4 acceptor
1 5 acceptor
1 6 acceptor
1 7 acceptor
1 8 acceptor
6 13 19 21 22 26 27 rings
6 23 30 31 32 33 34 rings
6 6 12 24 25 28 29 rings
6 9 10 14 15 16 17 rings

> <PUBCHEM_HEAVY_ATOM_COUNT>
34

> <PUBCHEM_ATOM_DEF_STEREO_COUNT>
2

> <PUBCHEM_ATOM_UDEF_STEREO_COUNT>
0

> <PUBCHEM_BOND_DEF_STEREO_COUNT>
0

> <PUBCHEM_BOND_UDEF_STEREO_COUNT>
0

> <PUBCHEM_ISOTOPIC_ATOM_COUNT>
0

> <PUBCHEM_COMPONENT_COUNT>
1

> <PUBCHEM_CACTVS_TAUTO_COUNT>
4

> <PUBCHEM_CONFORMER_ID>
00B5C43B00000002

> <PUBCHEM_MMFF94_ENERGY>
76.1156

> <PUBCHEM_FEATURE_SELFOVERLAP>
60.918

> <PUBCHEM_SHAPE_FINGERPRINT>
10556698 54 17462254999332270565
10974685 15 17240480338767139979
11477941 20 17549854108820151366
11578080 2 17894921757856427031
11763715 3 17467896481324774114
11828422 8 16733531724624145382
12160290 23 17547002387393571216
12597179 24 18262799708626070414
13383661 66 17191501725671996175
133893 2 18410859819741572305
1361 2 18272088284416419078
13911987 19 18116150168029593165
14747281 78 17460302271235062101
15484559 13 17972570420493466901
15775530 1 18042423437603723819
1813 80 17983295928330225514
21033648 144 18043813314664373101
21344244 246 18342173384458401910
22182313 1 17895490205852927131
238 59 18412545435502193290
24771293 8 18270677564053652586
26353 1 17908702830561230300
3298306 158 18265630942799295350
4015057 19 18262530186459247498
4112364 45 12396295925141392847
4280585 95 18051680049788232962
44802255 64 17460600461966006044
46194498 28 18337378380069209311

> <PUBCHEM_SHAPE_MULTIPOLES>
636.16
10.82
5.73
2.5
10.22
0.65
0.36
1.33
7.8
-10.36
0.78
1.88
-1.16
-0.9

> <PUBCHEM_SHAPE_SELFOVERLAP>
1329.778

> <PUBCHEM_SHAPE_VOLUME>
360.7

> <PUBCHEM_COORDINATE_TYPE>
2
5
10

$$$$
