11882468
  -OEChem-12032416163D

 65 68  0     1  0  0  0  0  0999 V2000
   -4.4822    2.3348    0.3819 S   0  0  0  0  0  0  0  0  0  0  0  0
   -5.4818   -0.4055    0.5797 S   0  0  0  0  0  0  0  0  0  0  0  0
    2.9696   -5.7264   -0.3719 S   0  0  0  0  0  0  0  0  0  0  0  0
    0.0970   -0.4337   -1.0288 O   0  0  0  0  0  0  0  0  0  0  0  0
    2.9975    0.7205    1.5982 O   0  0  0  0  0  0  0  0  0  0  0  0
   -4.1010    3.2569   -0.6703 O   0  0  0  0  0  0  0  0  0  0  0  0
   -5.6583    2.5660    1.1975 O   0  0  0  0  0  0  0  0  0  0  0  0
   -2.2936   -3.2292    0.4947 O   0  0  0  0  0  0  0  0  0  0  0  0
    1.0095    1.4500    0.6468 N   0  0  0  0  0  0  0  0  0  0  0  0
   -3.1427    2.0597    1.4097 N   0  0  0  0  0  0  0  0  0  0  0  0
    0.1573   -2.0010    0.6915 N   0  0  0  0  0  0  0  0  0  0  0  0
    3.7099    2.4083   -1.0847 N   0  0  0  0  0  0  0  0  0  0  0  0
    4.3446    3.5127   -1.5133 N   0  0  0  0  0  0  0  0  0  0  0  0
   -1.6983   -3.9332   -1.6093 N   0  0  0  0  0  0  0  0  0  0  0  0
   -1.9074    1.6219    0.8038 C   0  0  2  0  0  0  0  0  0  0  0  0
   -1.1198    0.7273    1.7641 C   0  0  0  0  0  0  0  0  0  0  0  0
    0.2554    0.3323    1.2283 C   0  0  1  0  0  0  0  0  0  0  0  0
   -1.0538    2.8177    0.3891 C   0  0  0  0  0  0  0  0  0  0  0  0
    0.2641    2.3685   -0.2315 C   0  0  0  0  0  0  0  0  0  0  0  0
    0.1686   -0.7215    0.1631 C   0  0  0  0  0  0  0  0  0  0  0  0
    2.4071    1.5067    0.8550 C   0  0  0  0  0  0  0  0  0  0  0  0
    3.1531    2.5434    0.1496 C   0  0  0  0  0  0  0  0  0  0  0  0
    0.0568   -3.1912   -0.1219 C   0  0  1  0  0  0  0  0  0  0  0  0
   -4.8411    0.7861   -0.4467 C   0  0  0  0  0  0  0  0  0  0  0  0
    0.7244   -4.4045    0.5369 C   0  0  0  0  0  0  0  0  0  0  0  0
    3.4392    3.8182    0.5615 C   0  0  0  0  0  0  0  0  0  0  0  0
   -1.4252   -3.4566   -0.3443 C   0  0  0  0  0  0  0  0  0  0  0  0
    4.1758    4.3706   -0.5034 C   0  0  0  0  0  0  0  0  0  0  0  0
   -4.6968    0.3900   -1.7336 C   0  0  0  0  0  0  0  0  0  0  0  0
    2.2258   -4.3939    0.3711 C   0  0  0  0  0  0  0  0  0  0  0  0
    3.6788    1.2384   -1.9314 C   0  0  0  0  0  0  0  0  0  0  0  0
   -5.1292   -0.9567   -1.9046 C   0  0  0  0  0  0  0  0  0  0  0  0
   -5.5805   -1.5089   -0.7259 C   0  0  0  0  0  0  0  0  0  0  0  0
    4.7406    5.7275   -0.5945 C   0  0  0  0  0  0  0  0  0  0  0  0
    3.0923   -3.4204    0.7543 C   0  0  0  0  0  0  0  0  0  0  0  0
    4.4337   -3.7727    0.4279 C   0  0  0  0  0  0  0  0  0  0  0  0
    4.5104   -5.0021   -0.1887 C   0  0  0  0  0  0  0  0  0  0  0  0
   -2.1258    1.0245   -0.0887 H   0  0  0  0  0  0  0  0  0  0  0  0
    0.8327   -0.0783    2.0659 H   0  0  0  0  0  0  0  0  0  0  0  0
   -1.7108   -0.1653    2.0061 H   0  0  0  0  0  0  0  0  0  0  0  0
   -0.9794    1.2666    2.7113 H   0  0  0  0  0  0  0  0  0  0  0  0
   -1.5834    3.4540   -0.3271 H   0  0  0  0  0  0  0  0  0  0  0  0
   -0.8459    3.4449    1.2664 H   0  0  0  0  0  0  0  0  0  0  0  0
    0.0914    1.8822   -1.1954 H   0  0  0  0  0  0  0  0  0  0  0  0
    0.8561    3.2606   -0.4485 H   0  0  0  0  0  0  0  0  0  0  0  0
   -3.0422    2.6772    2.2255 H   0  0  0  0  0  0  0  0  0  0  0  0
    0.1386   -2.1164    1.7009 H   0  0  0  0  0  0  0  0  0  0  0  0
    0.5237   -2.9782   -1.0925 H   0  0  0  0  0  0  0  0  0  0  0  0
    0.4907   -4.4368    1.6096 H   0  0  0  0  0  0  0  0  0  0  0  0
    0.3058   -5.3260    0.1108 H   0  0  0  0  0  0  0  0  0  0  0  0
    3.1559    4.2824    1.4953 H   0  0  0  0  0  0  0  0  0  0  0  0
   -4.3038    1.0119   -2.5271 H   0  0  0  0  0  0  0  0  0  0  0  0
    3.7861    0.3443   -1.3124 H   0  0  0  0  0  0  0  0  0  0  0  0
    4.5050    1.2871   -2.6456 H   0  0  0  0  0  0  0  0  0  0  0  0
    2.7218    1.2280   -2.4588 H   0  0  0  0  0  0  0  0  0  0  0  0
   -5.1090   -1.4939   -2.8439 H   0  0  0  0  0  0  0  0  0  0  0  0
   -5.9619   -2.5080   -0.5690 H   0  0  0  0  0  0  0  0  0  0  0  0
    4.3216    6.2644   -1.4519 H   0  0  0  0  0  0  0  0  0  0  0  0
    4.5223    6.3114    0.3057 H   0  0  0  0  0  0  0  0  0  0  0  0
    5.8284    5.6869   -0.7117 H   0  0  0  0  0  0  0  0  0  0  0  0
   -0.9715   -4.1133   -2.2944 H   0  0  0  0  0  0  0  0  0  0  0  0
   -2.6510   -4.1358   -1.8938 H   0  0  0  0  0  0  0  0  0  0  0  0
    2.8141   -2.5003    1.2504 H   0  0  0  0  0  0  0  0  0  0  0  0
    5.2985   -3.1564    0.6364 H   0  0  0  0  0  0  0  0  0  0  0  0
    5.3976   -5.5099   -0.5399 H   0  0  0  0  0  0  0  0  0  0  0  0
  1  6  2  0  0  0  0
  1  7  2  0  0  0  0
  1 10  1  0  0  0  0
  1 24  1  0  0  0  0
  2 24  1  0  0  0  0
  2 33  1  0  0  0  0
  3 30  1  0  0  0  0
  3 37  1  0  0  0  0
  4 20  2  0  0  0  0
  5 21  2  0  0  0  0
  8 27  2  0  0  0  0
  9 17  1  0  0  0  0
  9 19  1  0  0  0  0
  9 21  1  0  0  0  0
 10 15  1  0  0  0  0
 10 46  1  0  0  0  0
 11 20  1  0  0  0  0
 11 23  1  0  0  0  0
 11 47  1  0  0  0  0
 12 13  1  0  0  0  0
 12 22  1  0  0  0  0
 12 31  1  0  0  0  0
 13 28  2  0  0  0  0
 14 27  1  0  0  0  0
 14 61  1  0  0  0  0
 14 62  1  0  0  0  0
 15 16  1  0  0  0  0
 15 18  1  0  0  0  0
 15 38  1  0  0  0  0
 16 17  1  0  0  0  0
 16 40  1  0  0  0  0
 16 41  1  0  0  0  0
 17 20  1  0  0  0  0
 17 39  1  0  0  0  0
 18 19  1  0  0  0  0
 18 42  1  0  0  0  0
 18 43  1  0  0  0  0
 19 44  1  0  0  0  0
 19 45  1  0  0  0  0
 21 22  1  0  0  0  0
 22 26  2  0  0  0  0
 23 25  1  0  0  0  0
 23 27  1  0  0  0  0
 23 48  1  0  0  0  0
 24 29  2  0  0  0  0
 25 30  1  0  0  0  0
 25 49  1  0  0  0  0
 25 50  1  0  0  0  0
 26 28  1  0  0  0  0
 26 51  1  0  0  0  0
 28 34  1  0  0  0  0
 29 32  1  0  0  0  0
 29 52  1  0  0  0  0
 30 35  2  0  0  0  0
 31 53  1  0  0  0  0
 31 54  1  0  0  0  0
 31 55  1  0  0  0  0
 32 33  2  0  0  0  0
 32 56  1  0  0  0  0
 33 57  1  0  0  0  0
 34 58  1  0  0  0  0
 34 59  1  0  0  0  0
 34 60  1  0  0  0  0
 35 36  1  0  0  0  0
 35 63  1  0  0  0  0
 36 37  2  0  0  0  0
 36 64  1  0  0  0  0
 37 65  1  0  0  0  0
M  END
> <PUBCHEM_COMPOUND_CID>
11882468

> <PUBCHEM_CONFORMER_RMSD>
1.2

> <PUBCHEM_CONFORMER_DIVERSEORDER>
1
87
56
150
91
136
34
89
113
47
102
151
67
52
50
154
90
19
130
69
148
51
63
156
20
149
138
95
71
54
74
93
139
137
124
30
14
60
133
108
62
112
61
131
27
147
36
146
122
144
44
76
142
110
145
92
64
18
2
13
42
140
155
143
53
49
115
38
57
29
35
119
8
127
109
111
99
31
45
12
72
83
46
104
66
141
116
88
73
125
16
55
59
120
84
26
100
23
7
105
106
78
118
135
41
134
98
117
70
25
80
68
121
4
6
10
24
37
22
123
132
65
5
114
58
97
107
86
21
85
39
28
94
126
103
9
129
32
96
82
75
15
153
152
40
3
33
101
48
43
77
79
128
11
81
17

> <PUBCHEM_MMFF94_PARTIAL_CHARGES>
46
1 1.5
10 -0.91
11 -0.73
12 0.31
13 -0.71
14 -0.8
15 0.36
17 0.36
19 0.3
2 -0.08
20 0.57
21 0.71
22 -0.24
23 0.36
24 -0.02
25 0.18
26 -0.15
27 0.57
28 0.11
29 -0.15
3 -0.08
30 -0.14
31 0.26
32 -0.15
33 -0.11
34 0.18
35 -0.15
36 -0.15
37 -0.11
4 -0.57
46 0.42
47 0.37
5 -0.57
51 0.15
52 0.15
56 0.15
57 0.15
6 -0.65
61 0.37
62 0.37
63 0.15
64 0.15
65 0.15
7 -0.65
8 -0.57
9 -0.66

> <PUBCHEM_EFFECTIVE_ROTOR_COUNT>
12.2

> <PUBCHEM_PHARMACOPHORE_FEATURES>
13
1 10 donor
1 11 donor
1 13 acceptor
1 14 donor
1 4 acceptor
1 5 acceptor
1 6 acceptor
1 7 acceptor
1 8 acceptor
5 12 13 22 26 28 rings
5 2 24 29 32 33 rings
5 3 30 35 36 37 rings
6 9 15 16 17 18 19 rings

> <PUBCHEM_HEAVY_ATOM_COUNT>
37

> <PUBCHEM_ATOM_DEF_STEREO_COUNT>
3

> <PUBCHEM_ATOM_UDEF_STEREO_COUNT>
0

> <PUBCHEM_BOND_DEF_STEREO_COUNT>
0

> <PUBCHEM_BOND_UDEF_STEREO_COUNT>
0

> <PUBCHEM_ISOTOPIC_ATOM_COUNT>
0

> <PUBCHEM_COMPONENT_COUNT>
1

> <PUBCHEM_CACTVS_TAUTO_COUNT>
4

> <PUBCHEM_CONFORMER_ID>
00B54FE400000001

> <PUBCHEM_MMFF94_ENERGY>
69.1987

> <PUBCHEM_FEATURE_SELFOVERLAP>
65.993

> <PUBCHEM_SHAPE_FINGERPRINT>
10290309 65 18121508109375937882
10675989 125 18337951298362012782
10940486 97 17694499248146090137
11049842 53 18267564970872985362
11062273 29 18192440675058623372
12788726 201 17762048140092606874
13911987 19 18192981846124098269
14251757 5 17760931048947468625
14394314 77 17547014022987678225
144659 178 18267300920146070634
14790565 3 18193556885640090480
15439362 3 18336825303834423513
17627616 140 18410289250711807615
19319366 153 18269546311689118365
21796203 349 17619109081787900955
23559900 14 18123178014325441601
24771293 8 18126830626534529378
249057 3 17906729199074886449
3103668 31 17328028080218137862
3380486 145 17473841523462775529
4280585 95 17906158560807966411
463206 1 17906457623717783099
550186 72 17833832669006088838
6608658 132 17690579489551979406
9982175 49 18126854798314448307

> <PUBCHEM_SHAPE_MULTIPOLES>
713.76
12.07
9.49
1.5
11.72
2.87
-0.32
-3.07
-2.66
-17.41
-1.43
0.58
-0.41
-2.78

> <PUBCHEM_SHAPE_SELFOVERLAP>
1478.591

> <PUBCHEM_SHAPE_VOLUME>
409

> <PUBCHEM_COORDINATE_TYPE>
2
5
10

$$$$
