28961236
  -OEChem-12032416273D

 61 64  0     1  0  0  0  0  0999 V2000
   -6.5426    2.0745    1.0638 F   0  0  0  0  0  0  0  0  0  0  0  0
   -0.5509   -5.8045   -0.4636 F   0  0  0  0  0  0  0  0  0  0  0  0
    0.8794    0.0823    1.6472 O   0  0  0  0  0  0  0  0  0  0  0  0
    3.3099   -1.1359    0.3915 O   0  0  0  0  0  0  0  0  0  0  0  0
    0.7108   -1.9818    3.5487 O   0  0  0  0  0  0  0  0  0  0  0  0
    3.5415    1.6223   -0.3633 N   0  0  0  0  0  0  0  0  0  0  0  0
   -0.6702    0.5178   -0.7070 N   0  0  0  0  0  0  0  0  0  0  0  0
    2.8098    1.2055    0.8237 C   0  0  1  0  0  0  0  0  0  0  0  0
    1.2903    1.0625    0.6683 C   0  0  1  0  0  0  0  0  0  0  0  0
    3.2234   -0.1393    1.4017 C   0  0  1  0  0  0  0  0  0  0  0  0
    2.0454   -0.4217    2.3267 C   0  0  2  0  0  0  0  0  0  0  0  0
    3.4630    3.0652   -0.5897 C   0  0  0  0  0  0  0  0  0  0  0  0
    4.9714    1.3300   -0.2692 C   0  0  0  0  0  0  0  0  0  0  0  0
    0.7836    0.5863   -0.6884 C   0  0  0  0  0  0  0  0  0  0  0  0
    4.5757    3.3137   -1.5974 C   0  0  0  0  0  0  0  0  0  0  0  0
    5.5652    2.1714   -1.3893 C   0  0  0  0  0  0  0  0  0  0  0  0
    1.8274   -1.8817    2.6795 C   0  0  0  0  0  0  0  0  0  0  0  0
   -1.2500    1.8545   -0.8570 C   0  0  0  0  0  0  0  0  0  0  0  0
   -1.1337   -0.3582   -1.7857 C   0  0  0  0  0  0  0  0  0  0  0  0
   -2.6641    1.9132   -0.3436 C   0  0  0  0  0  0  0  0  0  0  0  0
   -0.9781   -1.8135   -1.4323 C   0  0  0  0  0  0  0  0  0  0  0  0
   -3.5760    2.8024   -0.9125 C   0  0  0  0  0  0  0  0  0  0  0  0
   -0.7513   -2.7544   -2.4367 C   0  0  0  0  0  0  0  0  0  0  0  0
   -3.0626    1.0787    0.7006 C   0  0  0  0  0  0  0  0  0  0  0  0
   -1.0604   -2.2208   -0.1007 C   0  0  0  0  0  0  0  0  0  0  0  0
   -4.8862    2.8572   -0.4371 C   0  0  0  0  0  0  0  0  0  0  0  0
   -0.6074   -4.1027   -2.1097 C   0  0  0  0  0  0  0  0  0  0  0  0
   -4.3727    1.1334    1.1762 C   0  0  0  0  0  0  0  0  0  0  0  0
   -0.9164   -3.5690    0.2263 C   0  0  0  0  0  0  0  0  0  0  0  0
   -5.2845    2.0227    0.6073 C   0  0  0  0  0  0  0  0  0  0  0  0
   -0.6898   -4.5099   -0.7782 C   0  0  0  0  0  0  0  0  0  0  0  0
    2.9853    1.9322    1.6332 H   0  0  0  0  0  0  0  0  0  0  0  0
    0.8329    2.0165    0.9486 H   0  0  0  0  0  0  0  0  0  0  0  0
    4.1730   -0.1100    1.9461 H   0  0  0  0  0  0  0  0  0  0  0  0
    2.1341    0.1724    3.2454 H   0  0  0  0  0  0  0  0  0  0  0  0
    3.6660    3.6380    0.3244 H   0  0  0  0  0  0  0  0  0  0  0  0
    2.4894    3.3737   -0.9831 H   0  0  0  0  0  0  0  0  0  0  0  0
    5.2171    0.2757   -0.4245 H   0  0  0  0  0  0  0  0  0  0  0  0
    5.3926    1.6554    0.6911 H   0  0  0  0  0  0  0  0  0  0  0  0
    1.2101   -0.4063   -0.8735 H   0  0  0  0  0  0  0  0  0  0  0  0
    1.1453    1.2326   -1.4979 H   0  0  0  0  0  0  0  0  0  0  0  0
    5.0458    4.2903   -1.4440 H   0  0  0  0  0  0  0  0  0  0  0  0
    4.1866    3.2849   -2.6220 H   0  0  0  0  0  0  0  0  0  0  0  0
    5.6535    1.5859   -2.3121 H   0  0  0  0  0  0  0  0  0  0  0  0
    6.5622    2.5411   -1.1293 H   0  0  0  0  0  0  0  0  0  0  0  0
    2.7050   -2.2988    3.1826 H   0  0  0  0  0  0  0  0  0  0  0  0
    1.5994   -2.4781    1.7912 H   0  0  0  0  0  0  0  0  0  0  0  0
    3.6773   -1.9379    0.7999 H   0  0  0  0  0  0  0  0  0  0  0  0
   -1.2054    2.1774   -1.9065 H   0  0  0  0  0  0  0  0  0  0  0  0
   -0.7033    2.6128   -0.2858 H   0  0  0  0  0  0  0  0  0  0  0  0
   -0.6111   -0.1277   -2.7242 H   0  0  0  0  0  0  0  0  0  0  0  0
   -2.2048   -0.2158   -1.9808 H   0  0  0  0  0  0  0  0  0  0  0  0
    0.5899   -2.9250    3.7520 H   0  0  0  0  0  0  0  0  0  0  0  0
   -3.2773    3.4586   -1.7255 H   0  0  0  0  0  0  0  0  0  0  0  0
   -0.6864   -2.4497   -3.4778 H   0  0  0  0  0  0  0  0  0  0  0  0
   -2.3725    0.4019    1.1928 H   0  0  0  0  0  0  0  0  0  0  0  0
   -1.2493   -1.5250    0.7089 H   0  0  0  0  0  0  0  0  0  0  0  0
   -5.5964    3.5494   -0.8795 H   0  0  0  0  0  0  0  0  0  0  0  0
   -0.4310   -4.8357   -2.8914 H   0  0  0  0  0  0  0  0  0  0  0  0
   -4.6813    0.4897    1.9947 H   0  0  0  0  0  0  0  0  0  0  0  0
   -0.9824   -3.8869    1.2628 H   0  0  0  0  0  0  0  0  0  0  0  0
  1 30  1  0  0  0  0
  2 31  1  0  0  0  0
  3  9  1  0  0  0  0
  3 11  1  0  0  0  0
  4 10  1  0  0  0  0
  4 48  1  0  0  0  0
  5 17  1  0  0  0  0
  5 53  1  0  0  0  0
  6  8  1  0  0  0  0
  6 12  1  0  0  0  0
  6 13  1  0  0  0  0
  7 14  1  0  0  0  0
  7 18  1  0  0  0  0
  7 19  1  0  0  0  0
  8  9  1  0  0  0  0
  8 10  1  0  0  0  0
  8 32  1  0  0  0  0
  9 14  1  0  0  0  0
  9 33  1  0  0  0  0
 10 11  1  0  0  0  0
 10 34  1  0  0  0  0
 11 17  1  0  0  0  0
 11 35  1  0  0  0  0
 12 15  1  0  0  0  0
 12 36  1  0  0  0  0
 12 37  1  0  0  0  0
 13 16  1  0  0  0  0
 13 38  1  0  0  0  0
 13 39  1  0  0  0  0
 14 40  1  0  0  0  0
 14 41  1  0  0  0  0
 15 16  1  0  0  0  0
 15 42  1  0  0  0  0
 15 43  1  0  0  0  0
 16 44  1  0  0  0  0
 16 45  1  0  0  0  0
 17 46  1  0  0  0  0
 17 47  1  0  0  0  0
 18 20  1  0  0  0  0
 18 49  1  0  0  0  0
 18 50  1  0  0  0  0
 19 21  1  0  0  0  0
 19 51  1  0  0  0  0
 19 52  1  0  0  0  0
 20 22  2  0  0  0  0
 20 24  1  0  0  0  0
 21 23  2  0  0  0  0
 21 25  1  0  0  0  0
 22 26  1  0  0  0  0
 22 54  1  0  0  0  0
 23 27  1  0  0  0  0
 23 55  1  0  0  0  0
 24 28  2  0  0  0  0
 24 56  1  0  0  0  0
 25 29  2  0  0  0  0
 25 57  1  0  0  0  0
 26 30  2  0  0  0  0
 26 58  1  0  0  0  0
 27 31  2  0  0  0  0
 27 59  1  0  0  0  0
 28 30  1  0  0  0  0
 28 60  1  0  0  0  0
 29 31  1  0  0  0  0
 29 61  1  0  0  0  0
M  END
> <PUBCHEM_COMPOUND_CID>
28961236

> <PUBCHEM_CONFORMER_RMSD>
1

> <PUBCHEM_CONFORMER_DIVERSEORDER>
1
16
29
17
19
39
33
41
3
43
12
21
14
40
24
10
28
31
13
44
34
30
35
45
18
38
27
26
4
22
6
7
42
36
9
15
25
20
5
23
11
2
32
37
8

> <PUBCHEM_MMFF94_PARTIAL_CHARGES>
39
1 -0.19
10 0.28
11 0.28
12 0.27
13 0.27
14 0.27
17 0.28
18 0.41
19 0.41
2 -0.19
20 -0.14
21 -0.14
22 -0.15
23 -0.15
24 -0.15
25 -0.15
26 -0.15
27 -0.15
28 -0.15
29 -0.15
3 -0.56
30 0.19
31 0.19
4 -0.68
48 0.4
5 -0.68
53 0.4
54 0.15
55 0.15
56 0.15
57 0.15
58 0.15
59 0.15
6 -0.81
60 0.15
61 0.15
7 -0.81
8 0.27
9 0.28

> <PUBCHEM_EFFECTIVE_ROTOR_COUNT>
10

> <PUBCHEM_PHARMACOPHORE_FEATURES>
11
1 3 acceptor
1 4 acceptor
1 4 donor
1 5 acceptor
1 5 donor
1 6 cation
1 7 cation
5 3 8 9 10 11 rings
5 6 12 13 15 16 rings
6 20 22 24 26 28 30 rings
6 21 23 25 27 29 31 rings

> <PUBCHEM_HEAVY_ATOM_COUNT>
31

> <PUBCHEM_ATOM_DEF_STEREO_COUNT>
4

> <PUBCHEM_ATOM_UDEF_STEREO_COUNT>
0

> <PUBCHEM_BOND_DEF_STEREO_COUNT>
0

> <PUBCHEM_BOND_UDEF_STEREO_COUNT>
0

> <PUBCHEM_ISOTOPIC_ATOM_COUNT>
0

> <PUBCHEM_COMPONENT_COUNT>
1

> <PUBCHEM_CACTVS_TAUTO_COUNT>
1

> <PUBCHEM_CONFORMER_ID>
01B9E9D400000001

> <PUBCHEM_MMFF94_ENERGY>
81.9688

> <PUBCHEM_FEATURE_SELFOVERLAP>
55.826

> <PUBCHEM_SHAPE_FINGERPRINT>
10794284 68 17540849468937928885
107951 10 18272660060026026158
11115154 58 17401199470877425879
11445158 3 17970896779027892054
11720765 8 9294991433224533035
11991303 11 18268723851306199197
12156800 1 17099790145890068378
12160290 23 17913741050643252893
12549972 3 16916215715129198744
12788726 201 18053077791345069255
133893 2 17626680297387015883
13583140 156 17315055685050561749
14114206 34 17832685143385231311
14932701 244 17689988364380857516
14955137 171 17461423751651757744
151778 21 18338794511884559420
15842332 3 18044068333163915920
16114785 44 17973737062291248816
16991981 162 18195238056135785311
18785283 64 18194401078679171479
19319366 153 18113332020653003952
21120745 212 17762906867274787029
21756936 100 17968945335200018028
23559900 14 17687189686760895109
249057 3 18340773655180657324
24941158 1 17835556759030533547
3388396 114 16894283971180977292
340366 18 18339360769616777198
35225 105 18059000813386925379
3610482 184 17823997825686067524
4058900 60 18127992835815284609
469060 322 13985500494868691490
57527585 21 17250637829000304404
6673363 416 17046284294385638822
6679774 75 18263919934924261834
6786 2 18271536333547266655

> <PUBCHEM_SHAPE_MULTIPOLES>
595.85
9.94
6.1
2.45
1.01
8.44
1.35
-15.45
0.03
3.25
-2.88
-1.1
1.86
-3.1

> <PUBCHEM_SHAPE_SELFOVERLAP>
1269.473

> <PUBCHEM_SHAPE_VOLUME>
333.8

> <PUBCHEM_COORDINATE_TYPE>
2
5
10

$$$$
