28962238
  -OEChem-12032416283D

 52 53  0     1  0  0  0  0  0999 V2000
   -2.8406    0.8698   -0.7255 O   0  0  0  0  0  0  0  0  0  0  0  0
   -2.1266    2.9175    1.3399 O   0  0  0  0  0  0  0  0  0  0  0  0
   -5.3385    2.0730   -1.1918 O   0  0  0  0  0  0  0  0  0  0  0  0
   -0.4328   -2.8004    0.0996 O   0  0  0  0  0  0  0  0  0  0  0  0
   -1.9905   -4.9863   -0.1085 O   0  0  0  0  0  0  0  0  0  0  0  0
    0.4438    1.9726    0.4900 N   0  0  1  0  0  0  0  0  0  0  0  0
   -2.2158   -1.4574    0.7576 N   0  0  0  0  0  0  0  0  0  0  0  0
    4.8428    1.0915   -0.1553 N   0  0  0  0  0  0  0  0  0  0  0  0
   -0.7250    1.9012   -0.3693 C   0  0  1  0  0  0  0  0  0  0  0  0
   -1.4692    0.5599   -0.3917 C   0  0  1  0  0  0  0  0  0  0  0  0
   -1.8271    2.8995   -0.0497 C   0  0  1  0  0  0  0  0  0  0  0  0
   -2.9868    2.2988   -0.8352 C   0  0  2  0  0  0  0  0  0  0  0  0
   -1.4891   -0.2327    0.9105 C   0  0  0  0  0  0  0  0  0  0  0  0
   -4.3726    2.6981   -0.3620 C   0  0  0  0  0  0  0  0  0  0  0  0
    1.5871    1.2919   -0.1262 C   0  0  0  0  0  0  0  0  0  0  0  0
    0.7894    3.3663    0.7866 C   0  0  0  0  0  0  0  0  0  0  0  0
    2.6590    0.9695    0.9152 C   0  0  0  0  0  0  0  0  0  0  0  0
    3.8508    0.2886    0.2905 C   0  0  0  0  0  0  0  0  0  0  0  0
   -1.6238   -2.6541    0.3608 C   0  0  0  0  0  0  0  0  0  0  0  0
   -2.6247   -3.7872    0.2829 C   0  0  0  0  0  0  0  0  0  0  0  0
    3.8743   -1.0942    0.2051 C   0  0  0  0  0  0  0  0  0  0  0  0
    4.9880   -1.6912   -0.3750 C   0  0  0  0  0  0  0  0  0  0  0  0
    5.9090    0.4753   -0.7132 C   0  0  0  0  0  0  0  0  0  0  0  0
    6.0291   -0.8986   -0.8454 C   0  0  0  0  0  0  0  0  0  0  0  0
   -2.9100   -6.0714   -0.1901 C   0  0  0  0  0  0  0  0  0  0  0  0
   -0.4242    2.1213   -1.4067 H   0  0  0  0  0  0  0  0  0  0  0  0
   -1.0721   -0.0731   -1.1948 H   0  0  0  0  0  0  0  0  0  0  0  0
   -1.6050    3.9214   -0.3753 H   0  0  0  0  0  0  0  0  0  0  0  0
   -2.8797    2.5273   -1.9035 H   0  0  0  0  0  0  0  0  0  0  0  0
   -1.9960    0.3237    1.7052 H   0  0  0  0  0  0  0  0  0  0  0  0
   -0.4745   -0.4691    1.2457 H   0  0  0  0  0  0  0  0  0  0  0  0
   -4.5089    3.7825   -0.4148 H   0  0  0  0  0  0  0  0  0  0  0  0
   -4.5594    2.3547    0.6604 H   0  0  0  0  0  0  0  0  0  0  0  0
    1.2662    0.3405   -0.5707 H   0  0  0  0  0  0  0  0  0  0  0  0
    2.0069    1.8853   -0.9501 H   0  0  0  0  0  0  0  0  0  0  0  0
    1.7065    3.4456    1.3773 H   0  0  0  0  0  0  0  0  0  0  0  0
    0.0416    3.8671    1.4069 H   0  0  0  0  0  0  0  0  0  0  0  0
    0.9390    3.9554   -0.1264 H   0  0  0  0  0  0  0  0  0  0  0  0
   -2.7554    3.6423    1.4961 H   0  0  0  0  0  0  0  0  0  0  0  0
    2.2431    0.3339    1.7080 H   0  0  0  0  0  0  0  0  0  0  0  0
    3.0307    1.8704    1.4146 H   0  0  0  0  0  0  0  0  0  0  0  0
   -3.2154   -1.4410    0.9396 H   0  0  0  0  0  0  0  0  0  0  0  0
   -6.2138    2.3482   -0.8699 H   0  0  0  0  0  0  0  0  0  0  0  0
   -3.0842   -3.9124    1.2702 H   0  0  0  0  0  0  0  0  0  0  0  0
   -3.3966   -3.5170   -0.4470 H   0  0  0  0  0  0  0  0  0  0  0  0
    3.0559   -1.7037    0.5732 H   0  0  0  0  0  0  0  0  0  0  0  0
    5.0443   -2.7722   -0.4609 H   0  0  0  0  0  0  0  0  0  0  0  0
    6.6933    1.1378   -1.0643 H   0  0  0  0  0  0  0  0  0  0  0  0
    6.9066   -1.3424   -1.3013 H   0  0  0  0  0  0  0  0  0  0  0  0
   -2.3600   -6.9652   -0.4961 H   0  0  0  0  0  0  0  0  0  0  0  0
   -3.6824   -5.8621   -0.9364 H   0  0  0  0  0  0  0  0  0  0  0  0
   -3.3680   -6.2582    0.7860 H   0  0  0  0  0  0  0  0  0  0  0  0
  1 10  1  0  0  0  0
  1 12  1  0  0  0  0
  2 11  1  0  0  0  0
  2 39  1  0  0  0  0
  3 14  1  0  0  0  0
  3 43  1  0  0  0  0
  4 19  2  0  0  0  0
  5 20  1  0  0  0  0
  5 25  1  0  0  0  0
  6  9  1  0  0  0  0
  6 15  1  0  0  0  0
  6 16  1  0  0  0  0
  7 13  1  0  0  0  0
  7 19  1  0  0  0  0
  7 42  1  0  0  0  0
  8 18  1  0  0  0  0
  8 23  2  0  0  0  0
  9 10  1  0  0  0  0
  9 11  1  0  0  0  0
  9 26  1  0  0  0  0
 10 13  1  0  0  0  0
 10 27  1  0  0  0  0
 11 12  1  0  0  0  0
 11 28  1  0  0  0  0
 12 14  1  0  0  0  0
 12 29  1  0  0  0  0
 13 30  1  0  0  0  0
 13 31  1  0  0  0  0
 14 32  1  0  0  0  0
 14 33  1  0  0  0  0
 15 17  1  0  0  0  0
 15 34  1  0  0  0  0
 15 35  1  0  0  0  0
 16 36  1  0  0  0  0
 16 37  1  0  0  0  0
 16 38  1  0  0  0  0
 17 18  1  0  0  0  0
 17 40  1  0  0  0  0
 17 41  1  0  0  0  0
 18 21  2  0  0  0  0
 19 20  1  0  0  0  0
 20 44  1  0  0  0  0
 20 45  1  0  0  0  0
 21 22  1  0  0  0  0
 21 46  1  0  0  0  0
 22 24  2  0  0  0  0
 22 47  1  0  0  0  0
 23 24  1  0  0  0  0
 23 48  1  0  0  0  0
 24 49  1  0  0  0  0
 25 50  1  0  0  0  0
 25 51  1  0  0  0  0
 25 52  1  0  0  0  0
M  END
> <PUBCHEM_COMPOUND_CID>
28962238

> <PUBCHEM_CONFORMER_RMSD>
1

> <PUBCHEM_CONFORMER_DIVERSEORDER>
1
46
26
56
18
20
28
55
35
43
33
52
53
25
15
44
12
24
57
21
50
3
10
19
27
37
58
32
30
34
59
36
39
47
8
49
16
31
48
54
38
29
5
40
6
4
51
23
7
22
9
11
45
13
41
14
42
17
2

> <PUBCHEM_MMFF94_PARTIAL_CHARGES>
32
1 -0.56
10 0.28
11 0.28
12 0.28
13 0.3
14 0.28
15 0.27
16 0.27
17 0.14
18 0.17
19 0.57
2 -0.68
20 0.34
21 -0.15
22 -0.15
23 0.16
24 -0.15
25 0.28
3 -0.68
39 0.4
4 -0.57
42 0.37
43 0.4
46 0.15
47 0.15
48 0.15
49 0.15
5 -0.56
6 -0.81
7 -0.73
8 -0.62
9 0.27

> <PUBCHEM_EFFECTIVE_ROTOR_COUNT>
11

> <PUBCHEM_PHARMACOPHORE_FEATURES>
12
1 1 acceptor
1 2 acceptor
1 2 donor
1 3 acceptor
1 3 donor
1 4 acceptor
1 5 acceptor
1 6 cation
1 7 donor
1 8 acceptor
5 1 9 10 11 12 rings
6 8 18 21 22 23 24 rings

> <PUBCHEM_HEAVY_ATOM_COUNT>
25

> <PUBCHEM_ATOM_DEF_STEREO_COUNT>
4

> <PUBCHEM_ATOM_UDEF_STEREO_COUNT>
0

> <PUBCHEM_BOND_DEF_STEREO_COUNT>
0

> <PUBCHEM_BOND_UDEF_STEREO_COUNT>
0

> <PUBCHEM_ISOTOPIC_ATOM_COUNT>
0

> <PUBCHEM_COMPONENT_COUNT>
1

> <PUBCHEM_CACTVS_TAUTO_COUNT>
4

> <PUBCHEM_CONFORMER_ID>
01B9EDBE00000001

> <PUBCHEM_MMFF94_ENERGY>
61.2851

> <PUBCHEM_FEATURE_SELFOVERLAP>
60.911

> <PUBCHEM_SHAPE_FINGERPRINT>
10366900 7 17845651448458311416
11552529 35 18410014355851367014
12107183 9 18053684726507312987
12293681 25 17836900654176158021
12643181 29 18337676292323845054
12788726 201 18188482592170448219
13631057 29 18266748076926008100
13785724 45 17833845137122777323
138480 1 16680911039449668290
13989917 61 17042046235237361466
14251757 5 18409451392601606570
14790565 3 18122628253700199361
14866123 147 18411420631197457947
15927050 60 18197210353217173949
19930381 70 17401203374379711683
19958102 18 18262787484827295636
20775530 9 18052256490424049706
21344244 181 18269838614494971351
22849339 104 18339096912184653334
23559900 14 18412538813301537168
283562 15 18054787278138614184
3383291 50 18340200795830725603
3421961 26 17692253358038384634
5309563 4 17907014328699689438
56633871 153 18124329443481462115
57307002 29 18190765071410009926
59025328 239 16836253882144320743
9709674 26 18341321292906281152

> <PUBCHEM_SHAPE_MULTIPOLES>
470.2
11.27
6.75
0.96
16.18
12.08
-0.04
0.26
3.69
-11.68
-0.11
-0.19
-0.42
1.19

> <PUBCHEM_SHAPE_SELFOVERLAP>
957.536

> <PUBCHEM_SHAPE_VOLUME>
272.2

> <PUBCHEM_COORDINATE_TYPE>
2
5
10

$$$$
