11883300
  -OEChem-12032416373D

 36 38  0     1  0  0  0  0  0999 V2000
   -1.8982    0.3486    1.3528 O   0  0  0  0  0  0  0  0  0  0  0  0
   -1.8561   -1.6652   -0.9594 O   0  0  0  0  0  0  0  0  0  0  0  0
   -4.1862    0.9204   -0.1116 O   0  0  0  0  0  0  0  0  0  0  0  0
    2.5064   -1.7544   -0.4078 O   0  0  0  0  0  0  0  0  0  0  0  0
    1.0984   -0.2722    0.7066 N   0  0  0  0  0  0  0  0  0  0  0  0
   -0.9381   -0.6153   -0.5894 C   0  0  1  0  0  0  0  0  0  0  0  0
   -1.7744    0.5355   -0.0670 C   0  0  1  0  0  0  0  0  0  0  0  0
   -0.1187   -1.0401    0.6068 C   0  0  2  0  0  0  0  0  0  0  0  0
   -3.0918    0.3296   -0.7754 C   0  0  1  0  0  0  0  0  0  0  0  0
   -1.0574   -0.7409    1.7629 C   0  0  0  0  0  0  0  0  0  0  0  0
    3.4029    0.2867    0.4052 C   0  0  0  0  0  0  0  0  0  0  0  0
   -3.1987   -1.1781   -0.8184 C   0  0  0  0  0  0  0  0  0  0  0  0
    3.3086    1.6131   -0.3773 C   0  0  0  0  0  0  0  0  0  0  0  0
    4.7289    0.0295   -0.3409 C   0  0  0  0  0  0  0  0  0  0  0  0
    4.8456    1.5596   -0.5025 C   0  0  0  0  0  0  0  0  0  0  0  0
    2.3113   -0.6983    0.1880 C   0  0  0  0  0  0  0  0  0  0  0  0
   -4.0825    2.3415   -0.0727 C   0  0  0  0  0  0  0  0  0  0  0  0
   -0.3526   -0.3577   -1.4778 H   0  0  0  0  0  0  0  0  0  0  0  0
   -1.3212    1.5164   -0.2382 H   0  0  0  0  0  0  0  0  0  0  0  0
    0.1397   -2.1044    0.5866 H   0  0  0  0  0  0  0  0  0  0  0  0
   -3.0245    0.7038   -1.8059 H   0  0  0  0  0  0  0  0  0  0  0  0
   -1.7129   -1.5951    1.9652 H   0  0  0  0  0  0  0  0  0  0  0  0
   -0.5445   -0.4737    2.6919 H   0  0  0  0  0  0  0  0  0  0  0  0
    3.5755    0.4513    1.4800 H   0  0  0  0  0  0  0  0  0  0  0  0
   -3.6309   -1.5916    0.0997 H   0  0  0  0  0  0  0  0  0  0  0  0
   -3.8060   -1.5280   -1.6587 H   0  0  0  0  0  0  0  0  0  0  0  0
    1.0487    0.6451    1.1414 H   0  0  0  0  0  0  0  0  0  0  0  0
    2.9139    2.4672    0.1793 H   0  0  0  0  0  0  0  0  0  0  0  0
    2.7849    1.5411   -1.3380 H   0  0  0  0  0  0  0  0  0  0  0  0
    4.6347   -0.4997   -1.2965 H   0  0  0  0  0  0  0  0  0  0  0  0
    5.5218   -0.4404    0.2472 H   0  0  0  0  0  0  0  0  0  0  0  0
    5.2586    1.9086   -1.4521 H   0  0  0  0  0  0  0  0  0  0  0  0
    5.3737    2.0523    0.3219 H   0  0  0  0  0  0  0  0  0  0  0  0
   -3.9376    2.7502   -1.0777 H   0  0  0  0  0  0  0  0  0  0  0  0
   -3.2730    2.6601    0.5896 H   0  0  0  0  0  0  0  0  0  0  0  0
   -5.0203    2.7362    0.3279 H   0  0  0  0  0  0  0  0  0  0  0  0
  1  7  1  0  0  0  0
  1 10  1  0  0  0  0
  2  6  1  0  0  0  0
  2 12  1  0  0  0  0
  3  9  1  0  0  0  0
  3 17  1  0  0  0  0
  4 16  2  0  0  0  0
  5  8  1  0  0  0  0
  5 16  1  0  0  0  0
  5 27  1  0  0  0  0
  6  7  1  0  0  0  0
  6  8  1  0  0  0  0
  6 18  1  0  0  0  0
  7  9  1  0  0  0  0
  7 19  1  0  0  0  0
  8 10  1  0  0  0  0
  8 20  1  0  0  0  0
  9 12  1  0  0  0  0
  9 21  1  0  0  0  0
 10 22  1  0  0  0  0
 10 23  1  0  0  0  0
 11 13  1  0  0  0  0
 11 14  1  0  0  0  0
 11 16  1  0  0  0  0
 11 24  1  0  0  0  0
 12 25  1  0  0  0  0
 12 26  1  0  0  0  0
 13 15  1  0  0  0  0
 13 28  1  0  0  0  0
 13 29  1  0  0  0  0
 14 15  1  0  0  0  0
 14 30  1  0  0  0  0
 14 31  1  0  0  0  0
 15 32  1  0  0  0  0
 15 33  1  0  0  0  0
 17 34  1  0  0  0  0
 17 35  1  0  0  0  0
 17 36  1  0  0  0  0
M  END
> <PUBCHEM_COMPOUND_CID>
11883300

> <PUBCHEM_CONFORMER_RMSD>
0.8

> <PUBCHEM_CONFORMER_DIVERSEORDER>
1
9
16
21
14
11
8
20
13
5
10
17
6
2
18
22
7
15
12
19
4
3

> <PUBCHEM_MMFF94_PARTIAL_CHARGES>
15
1 -0.56
10 0.28
11 0.05
12 0.28
16 0.58
17 0.28
2 -0.56
27 0.37
3 -0.56
4 -0.57
5 -0.73
6 0.28
7 0.28
8 0.3
9 0.28

> <PUBCHEM_EFFECTIVE_ROTOR_COUNT>
6

> <PUBCHEM_PHARMACOPHORE_FEATURES>
8
1 1 acceptor
1 2 acceptor
1 3 acceptor
1 4 acceptor
1 5 donor
4 11 13 14 15 rings
5 1 6 7 8 10 rings
5 2 6 7 9 12 rings

> <PUBCHEM_HEAVY_ATOM_COUNT>
17

> <PUBCHEM_ATOM_DEF_STEREO_COUNT>
4

> <PUBCHEM_ATOM_UDEF_STEREO_COUNT>
0

> <PUBCHEM_BOND_DEF_STEREO_COUNT>
0

> <PUBCHEM_BOND_UDEF_STEREO_COUNT>
0

> <PUBCHEM_ISOTOPIC_ATOM_COUNT>
0

> <PUBCHEM_COMPONENT_COUNT>
1

> <PUBCHEM_CACTVS_TAUTO_COUNT>
2

> <PUBCHEM_CONFORMER_ID>
00B5532400000001

> <PUBCHEM_MMFF94_ENERGY>
48.1528

> <PUBCHEM_FEATURE_SELFOVERLAP>
41.318

> <PUBCHEM_SHAPE_FINGERPRINT>
10498660 4 18202566198330289168
11046707 91 10879994661674317052
11127187 94 16558742447277506375
11543360 7 18342733048339607975
12173636 292 18272356556404731293
12186901 62 17988923392440031679
122479 349 18187087243110446353
12251169 10 11530482233572987634
12633257 1 16805876403357033956
12892183 10 11674872312662131598
13214271 11 18041002872722161643
13675066 3 13406785628038392720
14123260 362 18343027678790772281
14252887 29 11602811386019985568
15239191 94 10807942569816530020
15342168 16 17821738246736620612
15775835 57 18410572881439860228
16752209 62 15769776797392712347
17780758 139 7853313985934161188
17862501 102 8790884090298520341
17959699 21 18410572859975956480
1813 80 12966855705274096393
18186145 218 17822285747756020286
19433438 15 18410284818373746462
19862831 5 17274824662159202466
200 152 17988641930184750910
20645476 183 18202557401904938535
20645477 56 18411418401945439669
20671657 53 16271926043021040634
20871999 31 18059283353557392023
21065199 12 11602813610464677574
22079108 93 17676213459564355265
22485316 2 10807942565421231910
22646028 28 10664103359064332868
23402539 116 18409722972379816652
23402655 69 18413108355691497956
23419403 2 16374392989479176147
23500284 214 17603870004813094352
23557571 272 18272657886593316623
23559900 14 17845368860984987390
25 1 18260263027868411106
26918003 58 8574713485696037301
2838139 119 17680410170983819597
3082319 5 18201434792164349822
3472631 163 18411138022027621749
4028521 119 18411982451157553960
4175511 318 17846775217686393845
42 15 8502378844993095574
474 4 18040154037003230012
5104073 3 18040148544130416712
59027123 10 18413670227560525516
59755656 520 17531249443589434115
633830 44 18188205390796686787
76465 3 11600009817096151324
8030462 33 16845293817570991762
83771 10 11240003356258570426
90316 7 11674871157037010559

> <PUBCHEM_SHAPE_MULTIPOLES>
321.39
9.44
1.86
1.12
5.78
0.64
0.32
5.09
-1.89
-0.66
-0.22
-0.57
-0.3
-0.47

> <PUBCHEM_SHAPE_SELFOVERLAP>
674.408

> <PUBCHEM_SHAPE_VOLUME>
184

> <PUBCHEM_COORDINATE_TYPE>
2
5
10

$$$$
