75536984
  -OEChem-12032416333D

 46 48  0     1  0  0  0  0  0999 V2000
   -1.9761    2.7155    0.3736 O   0  0  0  0  0  0  0  0  0  0  0  0
    4.5677    1.0790   -1.1460 O   0  0  0  0  0  0  0  0  0  0  0  0
    0.0252    1.4856    0.3169 N   0  0  0  0  0  0  0  0  0  0  0  0
   -1.8022    0.5087    1.1864 N   0  0  0  0  0  0  0  0  0  0  0  0
    2.3794    0.4393   -0.7310 N   0  0  0  0  0  0  0  0  0  0  0  0
    4.2004   -0.9399   -0.1229 N   0  0  0  0  0  0  0  0  0  0  0  0
   -4.2155   -1.7228    0.6502 N   0  0  0  0  0  0  0  0  0  0  0  0
    0.4978    0.2076    0.8233 C   0  0  1  0  0  0  0  0  0  0  0  0
   -0.7845   -0.5275    1.2042 C   0  0  0  0  0  0  0  0  0  0  0  0
    1.3486   -0.4937   -0.2313 C   0  0  0  0  0  0  0  0  0  0  0  0
    0.9598    2.4104   -0.3013 C   0  0  0  0  0  0  0  0  0  0  0  0
    1.8313    1.6732   -1.3177 C   0  0  0  0  0  0  0  0  0  0  0  0
   -1.3310    1.7003    0.6004 C   0  0  0  0  0  0  0  0  0  0  0  0
   -3.1642    0.2512    1.5987 C   0  0  0  0  0  0  0  0  0  0  0  0
    3.7694    0.2485   -0.6988 C   0  0  0  0  0  0  0  0  0  0  0  0
   -3.9669   -0.4013    0.5105 C   0  0  0  0  0  0  0  0  0  0  0  0
    5.6022   -1.2768   -0.0118 C   0  0  0  0  0  0  0  0  0  0  0  0
   -4.4059    0.3618   -0.5594 C   0  0  0  0  0  0  0  0  0  0  0  0
    5.7933   -2.7850   -0.1058 C   0  0  0  0  0  0  0  0  0  0  0  0
    6.1832   -0.7265    1.2848 C   0  0  0  0  0  0  0  0  0  0  0  0
   -5.1479   -0.2722   -1.5497 C   0  0  0  0  0  0  0  0  0  0  0  0
   -4.9397   -2.3046   -0.3320 C   0  0  0  0  0  0  0  0  0  0  0  0
   -5.4243   -1.6306   -1.4413 C   0  0  0  0  0  0  0  0  0  0  0  0
    1.0968    0.4235    1.7171 H   0  0  0  0  0  0  0  0  0  0  0  0
   -1.0605   -1.2985    0.4773 H   0  0  0  0  0  0  0  0  0  0  0  0
   -0.7200   -0.9724    2.2017 H   0  0  0  0  0  0  0  0  0  0  0  0
    0.7387   -0.7692   -1.1013 H   0  0  0  0  0  0  0  0  0  0  0  0
    1.7531   -1.4208    0.1718 H   0  0  0  0  0  0  0  0  0  0  0  0
    1.5791    2.8220    0.5038 H   0  0  0  0  0  0  0  0  0  0  0  0
    0.4126    3.2352   -0.7679 H   0  0  0  0  0  0  0  0  0  0  0  0
    1.2325    1.3743   -2.1864 H   0  0  0  0  0  0  0  0  0  0  0  0
    2.6269    2.3333   -1.6758 H   0  0  0  0  0  0  0  0  0  0  0  0
   -3.6362    1.2022    1.8725 H   0  0  0  0  0  0  0  0  0  0  0  0
   -3.1421   -0.3738    2.4986 H   0  0  0  0  0  0  0  0  0  0  0  0
    3.5555   -1.5461    0.3641 H   0  0  0  0  0  0  0  0  0  0  0  0
    6.1363   -0.8138   -0.8502 H   0  0  0  0  0  0  0  0  0  0  0  0
   -4.1937    1.4222   -0.6356 H   0  0  0  0  0  0  0  0  0  0  0  0
    5.2762   -3.3039    0.7091 H   0  0  0  0  0  0  0  0  0  0  0  0
    5.3898   -3.1691   -1.0491 H   0  0  0  0  0  0  0  0  0  0  0  0
    6.8548   -3.0492   -0.0588 H   0  0  0  0  0  0  0  0  0  0  0  0
    5.6716   -1.1465    2.1581 H   0  0  0  0  0  0  0  0  0  0  0  0
    6.0741    0.3624    1.3328 H   0  0  0  0  0  0  0  0  0  0  0  0
    7.2492   -0.9624    1.3674 H   0  0  0  0  0  0  0  0  0  0  0  0
   -5.5115    0.2914   -2.4036 H   0  0  0  0  0  0  0  0  0  0  0  0
   -5.1277   -3.3651   -0.2005 H   0  0  0  0  0  0  0  0  0  0  0  0
   -6.0011   -2.1454   -2.2010 H   0  0  0  0  0  0  0  0  0  0  0  0
  1 13  2  0  0  0  0
  2 15  2  0  0  0  0
  3  8  1  0  0  0  0
  3 11  1  0  0  0  0
  3 13  1  0  0  0  0
  4  9  1  0  0  0  0
  4 13  1  0  0  0  0
  4 14  1  0  0  0  0
  5 10  1  0  0  0  0
  5 12  1  0  0  0  0
  5 15  1  0  0  0  0
  6 15  1  0  0  0  0
  6 17  1  0  0  0  0
  6 35  1  0  0  0  0
  7 16  1  0  0  0  0
  7 22  2  0  0  0  0
  8  9  1  0  0  0  0
  8 10  1  0  0  0  0
  8 24  1  0  0  0  0
  9 25  1  0  0  0  0
  9 26  1  0  0  0  0
 10 27  1  0  0  0  0
 10 28  1  0  0  0  0
 11 12  1  0  0  0  0
 11 29  1  0  0  0  0
 11 30  1  0  0  0  0
 12 31  1  0  0  0  0
 12 32  1  0  0  0  0
 14 16  1  0  0  0  0
 14 33  1  0  0  0  0
 14 34  1  0  0  0  0
 16 18  2  0  0  0  0
 17 19  1  0  0  0  0
 17 20  1  0  0  0  0
 17 36  1  0  0  0  0
 18 21  1  0  0  0  0
 18 37  1  0  0  0  0
 19 38  1  0  0  0  0
 19 39  1  0  0  0  0
 19 40  1  0  0  0  0
 20 41  1  0  0  0  0
 20 42  1  0  0  0  0
 20 43  1  0  0  0  0
 21 23  2  0  0  0  0
 21 44  1  0  0  0  0
 22 23  1  0  0  0  0
 22 45  1  0  0  0  0
 23 46  1  0  0  0  0
M  END
> <PUBCHEM_COMPOUND_CID>
75536984

> <PUBCHEM_CONFORMER_RMSD>
0.8

> <PUBCHEM_CONFORMER_DIVERSEORDER>
1
68
50
35
39
86
29
9
77
87
45
76
34
6
18
79
74
65
27
31
80
94
40
56
52
8
92
81
15
24
63
22
89
44
88
14
36
2
53
37
54
69
70
66
3
17
5
42
12
23
93
83
16
41
19
91
90
62
13
49
46
78
25
38
61
57
67
21
11
59
32
7
48
85
72
73
20
71
75
51
47
82
10
58
33
30
28
64
84
26
4
55
43
60

> <PUBCHEM_MMFF94_PARTIAL_CHARGES>
26
1 -0.57
10 0.3
11 0.3
12 0.3
13 0.69
14 0.44
15 0.69
16 0.17
17 0.3
18 -0.15
2 -0.57
21 -0.15
22 0.16
23 -0.15
3 -0.66
35 0.37
37 0.15
4 -0.66
44 0.15
45 0.15
46 0.15
5 -0.66
6 -0.73
7 -0.62
8 0.3
9 0.3

> <PUBCHEM_EFFECTIVE_ROTOR_COUNT>
6.2

> <PUBCHEM_PHARMACOPHORE_FEATURES>
8
1 1 acceptor
1 2 acceptor
1 6 donor
1 7 acceptor
3 17 19 20 hydrophobe
5 3 4 8 9 13 rings
6 3 5 8 10 11 12 rings
6 7 16 18 21 22 23 rings

> <PUBCHEM_HEAVY_ATOM_COUNT>
23

> <PUBCHEM_ATOM_DEF_STEREO_COUNT>
1

> <PUBCHEM_ATOM_UDEF_STEREO_COUNT>
0

> <PUBCHEM_BOND_DEF_STEREO_COUNT>
0

> <PUBCHEM_BOND_UDEF_STEREO_COUNT>
0

> <PUBCHEM_ISOTOPIC_ATOM_COUNT>
0

> <PUBCHEM_COMPONENT_COUNT>
1

> <PUBCHEM_CACTVS_TAUTO_COUNT>
2

> <PUBCHEM_CONFORMER_ID>
04809A5800000001

> <PUBCHEM_MMFF94_ENERGY>
48.4994

> <PUBCHEM_FEATURE_SELFOVERLAP>
40.694

> <PUBCHEM_SHAPE_FINGERPRINT>
10447042 23 18409169935158121796
10493431 412 10375865277435317440
105312 117 14851607699906171147
10670039 82 14923930233507840295
10753850 27 18272650186408206911
12403260 363 18411704274984856024
12555020 224 17967537869451927234
12596602 18 17275102795989363866
12616971 3 18336281084306837105
12633257 1 15123222290703912127
12839892 36 17917434185594744294
12892183 10 12535084026535201045
13533116 47 18410856564799978762
13782708 43 17774445963268749358
13885169 86 10447629323792443410
14211702 104 18200881686366278902
14251751 18 18202560678954130186
14251764 75 12893629335457580090
1454969 45 18335145302576850414
14848178 5 18343865519493763502
14951699 99 10519166866126470491
14955137 171 12679462023449130410
15163728 17 12757146849051575273
15183329 4 16515677832186524210
15188451 53 17917988360781877094
15475509 8 10881675746872293138
1601671 61 11530478947949509790
17349148 13 18271257087389102338
17857418 61 18412826867682289818
18222031 100 18261112946610334130
18927931 339 18338532849618346027
19377110 9 16845566548226240408
19784866 170 10519992568834307249
200 152 18409453600331016557
20028762 73 18343301449224447390
20621476 91 16845278467030899710
21728266 224 18202284675639154114
22224240 67 11527941266765287565
22393880 68 17749942367084833467
23402539 116 18409170982676623505
23559900 14 18040723597328135768
23929065 36 18192692493608349728
25122255 55 18271531888303594726
255183 313 17983596112897323489
2838139 119 14635135859388280943
293599 30 8934995980176868986
3009799 131 17895187801294711136
312425 54 16844462543651566874
339767 52 18343014497583672087
392239 28 15410887470418230262
4015057 19 18114754831501293400
4325135 7 16487252205471265472
439807 62 18266457797340908535
5104073 3 17775012322898150777
559249 180 18272090466517748257
5924683 9 18271528589372812464
633830 44 8358259216148266688
636775 72 8356813363138823798
7495541 125 17489864943196498146
76465 3 18342178868751616056
7808743 9 8286196137083270701

> <PUBCHEM_SHAPE_MULTIPOLES>
436.69
14.86
2.54
1.4
8.28
0.05
0.01
-11.86
-2.58
0.39
-0.3
-0.78
0.05
-1.33

> <PUBCHEM_SHAPE_SELFOVERLAP>
911.36

> <PUBCHEM_SHAPE_VOLUME>
247.4

> <PUBCHEM_COORDINATE_TYPE>
2
5
10

$$$$
