86769016
  -OEChem-12032416333D

 43 46  0     1  0  0  0  0  0999 V2000
    2.1634    2.7963   -0.0104 O   0  0  0  0  0  0  0  0  0  0  0  0
    0.0689    1.7503   -0.2045 N   0  0  0  0  0  0  0  0  0  0  0  0
   -2.4591    0.7768    0.5521 N   0  0  2  0  0  0  0  0  0  0  0  0
    1.8497    0.7465   -1.1347 N   0  0  0  0  0  0  0  0  0  0  0  0
   -5.4487   -0.0366   -0.1033 N   0  0  0  0  0  0  0  0  0  0  0  0
   -4.4642   -1.9853    0.3030 N   0  0  0  0  0  0  0  0  0  0  0  0
    4.0375   -1.7456   -0.8289 N   0  0  0  0  0  0  0  0  0  0  0  0
   -0.4821    0.6086   -0.9042 C   0  0  2  0  0  0  0  0  0  0  0  0
   -1.4520   -0.1518   -0.0005 C   0  0  0  0  0  0  0  0  0  0  0  0
    0.7514   -0.1838   -1.3327 C   0  0  0  0  0  0  0  0  0  0  0  0
   -0.8227    2.6471    0.5010 C   0  0  0  0  0  0  0  0  0  0  0  0
   -1.8137    1.8423    1.3456 C   0  0  0  0  0  0  0  0  0  0  0  0
    1.4497    1.8831   -0.4034 C   0  0  0  0  0  0  0  0  0  0  0  0
   -3.4284    0.0485    1.3703 C   0  0  0  0  0  0  0  0  0  0  0  0
    3.2047    0.4272   -1.5265 C   0  0  0  0  0  0  0  0  0  0  0  0
   -4.4294   -0.6910    0.5305 C   0  0  0  0  0  0  0  0  0  0  0  0
    3.8935   -0.4394   -0.5122 C   0  0  0  0  0  0  0  0  0  0  0  0
    4.3395    0.1255    0.6718 C   0  0  0  0  0  0  0  0  0  0  0  0
   -6.1801   -0.9732   -0.7780 C   0  0  0  0  0  0  0  0  0  0  0  0
   -5.5532   -2.1677   -0.5122 C   0  0  0  0  0  0  0  0  0  0  0  0
    4.9744   -0.7038    1.5897 C   0  0  0  0  0  0  0  0  0  0  0  0
    4.6595   -2.5208    0.0876 C   0  0  0  0  0  0  0  0  0  0  0  0
    5.1415   -2.0534    1.2997 C   0  0  0  0  0  0  0  0  0  0  0  0
   -1.0054    0.9964   -1.7882 H   0  0  0  0  0  0  0  0  0  0  0  0
   -1.9277   -0.9386   -0.5972 H   0  0  0  0  0  0  0  0  0  0  0  0
   -0.9043   -0.6434    0.8153 H   0  0  0  0  0  0  0  0  0  0  0  0
    0.6999   -0.4857   -2.3830 H   0  0  0  0  0  0  0  0  0  0  0  0
    0.9255   -1.0650   -0.7067 H   0  0  0  0  0  0  0  0  0  0  0  0
   -1.3522    3.2397   -0.2540 H   0  0  0  0  0  0  0  0  0  0  0  0
   -0.2377    3.3331    1.1217 H   0  0  0  0  0  0  0  0  0  0  0  0
   -1.2886    1.4053    2.2056 H   0  0  0  0  0  0  0  0  0  0  0  0
   -2.5687    2.5343    1.7374 H   0  0  0  0  0  0  0  0  0  0  0  0
   -3.9996    0.7493    1.9948 H   0  0  0  0  0  0  0  0  0  0  0  0
   -2.9358   -0.6447    2.0645 H   0  0  0  0  0  0  0  0  0  0  0  0
    3.7678    1.3607   -1.6436 H   0  0  0  0  0  0  0  0  0  0  0  0
    3.1760   -0.0626   -2.5063 H   0  0  0  0  0  0  0  0  0  0  0  0
   -5.6296    0.9583   -0.0793 H   0  0  0  0  0  0  0  0  0  0  0  0
    4.2130    1.1799    0.8901 H   0  0  0  0  0  0  0  0  0  0  0  0
   -7.0487   -0.7116   -1.3646 H   0  0  0  0  0  0  0  0  0  0  0  0
   -5.8305   -3.1498   -0.8663 H   0  0  0  0  0  0  0  0  0  0  0  0
    5.3398   -0.2989    2.5286 H   0  0  0  0  0  0  0  0  0  0  0  0
    4.7646   -3.5653   -0.1863 H   0  0  0  0  0  0  0  0  0  0  0  0
    5.6337   -2.7183    2.0001 H   0  0  0  0  0  0  0  0  0  0  0  0
  1 13  2  0  0  0  0
  2  8  1  0  0  0  0
  2 11  1  0  0  0  0
  2 13  1  0  0  0  0
  3  9  1  0  0  0  0
  3 12  1  0  0  0  0
  3 14  1  0  0  0  0
  4 10  1  0  0  0  0
  4 13  1  0  0  0  0
  4 15  1  0  0  0  0
  5 16  1  0  0  0  0
  5 19  1  0  0  0  0
  5 37  1  0  0  0  0
  6 16  2  0  0  0  0
  6 20  1  0  0  0  0
  7 17  1  0  0  0  0
  7 22  2  0  0  0  0
  8  9  1  0  0  0  0
  8 10  1  0  0  0  0
  8 24  1  0  0  0  0
  9 25  1  0  0  0  0
  9 26  1  0  0  0  0
 10 27  1  0  0  0  0
 10 28  1  0  0  0  0
 11 12  1  0  0  0  0
 11 29  1  0  0  0  0
 11 30  1  0  0  0  0
 12 31  1  0  0  0  0
 12 32  1  0  0  0  0
 14 16  1  0  0  0  0
 14 33  1  0  0  0  0
 14 34  1  0  0  0  0
 15 17  1  0  0  0  0
 15 35  1  0  0  0  0
 15 36  1  0  0  0  0
 17 18  2  0  0  0  0
 18 21  1  0  0  0  0
 18 38  1  0  0  0  0
 19 20  2  0  0  0  0
 19 39  1  0  0  0  0
 20 40  1  0  0  0  0
 21 23  2  0  0  0  0
 21 41  1  0  0  0  0
 22 23  1  0  0  0  0
 22 42  1  0  0  0  0
 23 43  1  0  0  0  0
M  END
> <PUBCHEM_COMPOUND_CID>
86769016

> <PUBCHEM_CONFORMER_RMSD>
0.8

> <PUBCHEM_CONFORMER_DIVERSEORDER>
1
41
13
34
62
80
56
70
15
42
19
32
14
79
33
58
78
17
31
38
27
81
45
67
22
68
20
5
7
35
57
77
55
39
3
29
36
59
43
23
82
16
85
74
51
83
72
61
49
24
8
63
75
11
44
46
84
73
47
9
28
66
40
50
48
25
52
65
10
69
6
21
18
37
64
60
54
30
12
2
26
71
76
4
53

> <PUBCHEM_MMFF94_PARTIAL_CHARGES>
30
1 -0.57
10 0.3
11 0.3
12 0.27
13 0.69
14 0.45
15 0.44
16 0.01
17 0.17
18 -0.15
19 -0.3
2 -0.66
20 0.08
21 -0.15
22 0.16
23 -0.15
3 -0.81
37 0.27
38 0.15
39 0.15
4 -0.66
40 0.15
41 0.15
42 0.15
43 0.15
5 0.03
6 -0.57
7 -0.62
8 0.3
9 0.27

> <PUBCHEM_EFFECTIVE_ROTOR_COUNT>
5.2

> <PUBCHEM_PHARMACOPHORE_FEATURES>
9
1 1 acceptor
1 3 cation
1 5 donor
1 7 acceptor
3 5 6 16 cation
5 2 4 8 10 13 rings
5 5 6 16 19 20 rings
6 2 3 8 9 11 12 rings
6 7 17 18 21 22 23 rings

> <PUBCHEM_HEAVY_ATOM_COUNT>
23

> <PUBCHEM_ATOM_DEF_STEREO_COUNT>
1

> <PUBCHEM_ATOM_UDEF_STEREO_COUNT>
0

> <PUBCHEM_BOND_DEF_STEREO_COUNT>
0

> <PUBCHEM_BOND_UDEF_STEREO_COUNT>
0

> <PUBCHEM_ISOTOPIC_ATOM_COUNT>
0

> <PUBCHEM_COMPONENT_COUNT>
1

> <PUBCHEM_CACTVS_TAUTO_COUNT>
1

> <PUBCHEM_CONFORMER_ID>
052BFD7800000001

> <PUBCHEM_MMFF94_ENERGY>
43.8248

> <PUBCHEM_FEATURE_SELFOVERLAP>
45.769

> <PUBCHEM_SHAPE_FINGERPRINT>
10447042 23 18334857238218227606
11720765 8 12324505521387733128
11796584 16 17385724729051596883
12422481 6 17346322570350250487
12596602 18 17775566416639816898
12839892 36 17846221038030181263
12892183 10 17703224002072046272
12895836 83 8718530727870051946
13083527 12 18343303681942367396
13533116 47 18408885161361756000
13782708 43 17823142388449316571
13911852 28 18264203621840232266
14178342 30 17914911841284892256
1420 369 18409731738065410182
14251740 57 18130232562644680118
14251751 18 18335132103282525943
14429115 67 18408323276486513890
14528608 73 9007056859580195119
1454969 45 18336271223742336100
14848178 5 18334294266510693635
14950920 106 15051186562191871295
15163728 17 10375577240297263632
15183329 4 15864066555536430927
15188451 53 18338227181175363538
15210252 30 9511451226507208534
15342168 16 10015587190165788633
15475509 8 15502368981570468903
17349148 13 18335150773299802311
17857418 61 18408886243656701559
17959699 21 8502651510991830130
18222031 100 18342185457415934860
1979834 28 17632587040854649575
20028762 73 18343864411572316118
20567600 234 15984814986780902035
20621476 91 15841263853029526295
20645477 70 16588319305811813772
20775530 9 16519339034699541562
21728266 224 18412263904838458041
22061861 79 16805042930218966607
22079108 93 14261346959882226927
23559900 14 18189622815840565129
2838139 119 11527941228105541074
3004659 81 18186806889384145710
312425 54 17631462163213196699
339767 52 18342171176871682647
3459 110 14907600355441844935
3472631 163 9150878491062957242
376196 1 14276865634822526124
38570 142 11383832710171502128
439807 62 18189057672129968747
46194498 28 14491913526019362643
463206 1 18259989296728850227
5104073 3 18059024994368780633
56616090 163 9151170978198859184
5924683 9 18340771425312214089
59682541 52 15791997983662711363
59755656 520 15647342880107687585
6034566 193 9583221899048182199
633830 44 8574423197773658624
6438161 24 18270673277798058255
76465 3 18408888429652656389
7808743 9 9079106748509870137
7970288 3 18263362491334983474
8988823 20 18337668715257437468
960060 61 16371015100437234918

> <PUBCHEM_SHAPE_MULTIPOLES>
437.57
14.09
2.75
1.39
8.26
0.46
-0.1
-12.35
-1.78
-0.73
-0.32
-0.88
-0.01
-1.43

> <PUBCHEM_SHAPE_SELFOVERLAP>
941.406

> <PUBCHEM_SHAPE_VOLUME>
241.4

> <PUBCHEM_COORDINATE_TYPE>
2
5
10

$$$$
