11885137
  -OEChem-12032416153D

 48 51  0     1  0  0  0  0  0999 V2000
    4.0740   -2.2051   -0.0114 S   0  0  0  0  0  0  0  0  0  0  0  0
    4.0917   -2.7418   -1.3547 O   0  0  0  0  0  0  0  0  0  0  0  0
    3.3995   -2.8879    1.0711 O   0  0  0  0  0  0  0  0  0  0  0  0
   -0.9288    0.7432   -1.8799 O   0  0  0  0  0  0  0  0  0  0  0  0
   -6.7993   -0.7152   -0.2470 O   0  0  0  0  0  0  0  0  0  0  0  0
    3.5220   -0.5867   -0.0715 N   0  0  2  0  0  0  0  0  0  0  0  0
    0.8820    1.1060   -0.4556 N   0  0  0  0  0  0  0  0  0  0  0  0
    3.2498    1.5572   -1.3220 C   0  0  1  0  0  0  0  0  0  0  0  0
    2.8274    1.4955    1.0965 C   0  0  2  0  0  0  0  0  0  0  0  0
    3.4226    2.3398   -0.0270 C   0  0  0  0  0  0  0  0  0  0  0  0
    3.9873    0.2105   -1.2422 C   0  0  0  0  0  0  0  0  0  0  0  0
    3.6045    0.1717    1.2126 C   0  0  0  0  0  0  0  0  0  0  0  0
    1.7520    1.3888   -1.6057 C   0  0  0  0  0  0  0  0  0  0  0  0
    1.3546    1.2233    0.8535 C   0  0  0  0  0  0  0  0  0  0  0  0
    0.5129    1.0746    1.8890 C   0  0  0  0  0  0  0  0  0  0  0  0
   -0.4679    0.8192   -0.7395 C   0  0  0  0  0  0  0  0  0  0  0  0
   -1.3793    0.6219    0.4418 C   0  0  0  0  0  0  0  0  0  0  0  0
   -0.8720    0.7634    1.6756 C   0  0  0  0  0  0  0  0  0  0  0  0
    5.7527   -1.9151    0.4850 C   0  0  0  0  0  0  0  0  0  0  0  0
   -2.7989    0.2720    0.2609 C   0  0  0  0  0  0  0  0  0  0  0  0
   -3.7592    1.2790    0.1585 C   0  0  0  0  0  0  0  0  0  0  0  0
   -3.1844   -1.0674    0.1923 C   0  0  0  0  0  0  0  0  0  0  0  0
   -5.1033    0.9473   -0.0122 C   0  0  0  0  0  0  0  0  0  0  0  0
   -4.5286   -1.3990    0.0214 C   0  0  0  0  0  0  0  0  0  0  0  0
   -5.4879   -0.3918   -0.0807 C   0  0  0  0  0  0  0  0  0  0  0  0
   -7.1232   -2.1034   -0.3089 C   0  0  0  0  0  0  0  0  0  0  0  0
    3.6916    2.1238   -2.1513 H   0  0  0  0  0  0  0  0  0  0  0  0
    2.9483    2.0491    2.0371 H   0  0  0  0  0  0  0  0  0  0  0  0
    2.9192    3.3126   -0.0926 H   0  0  0  0  0  0  0  0  0  0  0  0
    4.4842    2.5399    0.1623 H   0  0  0  0  0  0  0  0  0  0  0  0
    3.8069   -0.3454   -2.1684 H   0  0  0  0  0  0  0  0  0  0  0  0
    5.0637    0.3963   -1.1604 H   0  0  0  0  0  0  0  0  0  0  0  0
    4.6497    0.3964    1.4512 H   0  0  0  0  0  0  0  0  0  0  0  0
    3.1879   -0.4306    2.0277 H   0  0  0  0  0  0  0  0  0  0  0  0
    1.3714    2.3235   -2.0401 H   0  0  0  0  0  0  0  0  0  0  0  0
    1.5881    0.6153   -2.3665 H   0  0  0  0  0  0  0  0  0  0  0  0
    0.8553    1.1536    2.9155 H   0  0  0  0  0  0  0  0  0  0  0  0
   -1.4857    0.6305    2.5618 H   0  0  0  0  0  0  0  0  0  0  0  0
    5.7839   -1.5102    1.4966 H   0  0  0  0  0  0  0  0  0  0  0  0
    6.2595   -2.8843    0.4847 H   0  0  0  0  0  0  0  0  0  0  0  0
    6.2531   -1.2610   -0.2287 H   0  0  0  0  0  0  0  0  0  0  0  0
   -3.4750    2.3273    0.2091 H   0  0  0  0  0  0  0  0  0  0  0  0
   -2.4473   -1.8632    0.2697 H   0  0  0  0  0  0  0  0  0  0  0  0
   -5.8462    1.7363   -0.0913 H   0  0  0  0  0  0  0  0  0  0  0  0
   -4.7578   -2.4582   -0.0237 H   0  0  0  0  0  0  0  0  0  0  0  0
   -6.6602   -2.5863   -1.1761 H   0  0  0  0  0  0  0  0  0  0  0  0
   -8.2074   -2.1767   -0.4434 H   0  0  0  0  0  0  0  0  0  0  0  0
   -6.8821   -2.6150    0.6291 H   0  0  0  0  0  0  0  0  0  0  0  0
  1  2  2  0  0  0  0
  1  3  2  0  0  0  0
  1  6  1  0  0  0  0
  1 19  1  0  0  0  0
  4 16  2  0  0  0  0
  5 25  1  0  0  0  0
  5 26  1  0  0  0  0
  6 11  1  0  0  0  0
  6 12  1  0  0  0  0
  7 13  1  0  0  0  0
  7 14  1  0  0  0  0
  7 16  1  0  0  0  0
  8 10  1  0  0  0  0
  8 11  1  0  0  0  0
  8 13  1  0  0  0  0
  8 27  1  0  0  0  0
  9 10  1  0  0  0  0
  9 12  1  0  0  0  0
  9 14  1  0  0  0  0
  9 28  1  0  0  0  0
 10 29  1  0  0  0  0
 10 30  1  0  0  0  0
 11 31  1  0  0  0  0
 11 32  1  0  0  0  0
 12 33  1  0  0  0  0
 12 34  1  0  0  0  0
 13 35  1  0  0  0  0
 13 36  1  0  0  0  0
 14 15  2  0  0  0  0
 15 18  1  0  0  0  0
 15 37  1  0  0  0  0
 16 17  1  0  0  0  0
 17 18  2  0  0  0  0
 17 20  1  0  0  0  0
 18 38  1  0  0  0  0
 19 39  1  0  0  0  0
 19 40  1  0  0  0  0
 19 41  1  0  0  0  0
 20 21  2  0  0  0  0
 20 22  1  0  0  0  0
 21 23  1  0  0  0  0
 21 42  1  0  0  0  0
 22 24  2  0  0  0  0
 22 43  1  0  0  0  0
 23 25  2  0  0  0  0
 23 44  1  0  0  0  0
 24 25  1  0  0  0  0
 24 45  1  0  0  0  0
 26 46  1  0  0  0  0
 26 47  1  0  0  0  0
 26 48  1  0  0  0  0
M  END
> <PUBCHEM_COMPOUND_CID>
11885137

> <PUBCHEM_CONFORMER_RMSD>
0.8

> <PUBCHEM_CONFORMER_DIVERSEORDER>
1
3
2

> <PUBCHEM_MMFF94_PARTIAL_CHARGES>
30
1 1.33
11 0.36
12 0.36
13 0.3
14 -0.03
15 -0.15
16 0.62
17 -0.01
18 -0.15
19 0.11
2 -0.65
20 0.03
21 -0.15
22 -0.15
23 -0.15
24 -0.15
25 0.08
26 0.28
3 -0.65
37 0.15
38 0.15
4 -0.57
42 0.15
43 0.15
44 0.15
45 0.15
5 -0.36
6 -0.85
7 -0.47
9 0.14

> <PUBCHEM_EFFECTIVE_ROTOR_COUNT>
4

> <PUBCHEM_PHARMACOPHORE_FEATURES>
8
1 2 acceptor
1 3 acceptor
1 4 acceptor
1 5 acceptor
6 20 21 22 23 24 25 rings
6 6 8 9 10 11 12 rings
6 7 14 15 16 17 18 rings
6 7 8 9 10 13 14 rings

> <PUBCHEM_HEAVY_ATOM_COUNT>
26

> <PUBCHEM_ATOM_DEF_STEREO_COUNT>
2

> <PUBCHEM_ATOM_UDEF_STEREO_COUNT>
0

> <PUBCHEM_BOND_DEF_STEREO_COUNT>
0

> <PUBCHEM_BOND_UDEF_STEREO_COUNT>
0

> <PUBCHEM_ISOTOPIC_ATOM_COUNT>
0

> <PUBCHEM_COMPONENT_COUNT>
1

> <PUBCHEM_CACTVS_TAUTO_COUNT>
1

> <PUBCHEM_CONFORMER_ID>
00B55A5100000001

> <PUBCHEM_MMFF94_ENERGY>
76.6895

> <PUBCHEM_FEATURE_SELFOVERLAP>
42.199

> <PUBCHEM_SHAPE_FINGERPRINT>
10498660 4 14346092926953307916
10670039 82 14201674208995900070
10730089 47 18413386553650320819
11135609 99 18272649069622128502
117089 54 17486512399005686422
11796584 16 18201447986309119303
11954058 11 18130514024672938630
12107183 9 18051135791791031633
12788726 201 17274834548931539968
13073987 5 18131350821720086393
13533116 47 18412263964925730667
13583140 156 18059287785620957953
13782708 43 17917710258304040319
14211702 104 18261960764649812307
14251740 57 18059581239467400126
14251751 18 18339357474796703078
14347332 77 18410853244727013789
14910302 57 18334566954363838861
15183329 4 17968093097686646031
15475509 35 18130782378081597539
15664445 248 17968950806771913748
15788980 27 17775283872453573725
15848702 151 18113898260419173421
17349148 13 16200434676086562865
17844677 252 18342744044026130945
17857418 61 18413951676609312919
1813 80 17458061560472728757
18335252 114 11530476740394621594
19784866 240 18341055108091681032
19958102 18 18188197785153696791
20369508 70 17918273173059083272
20567600 247 18408040693366283379
20645477 70 18408041810220842688
20775530 9 17904474113532345322
21033648 29 14404912362622755947
21267235 1 15912787058098457660
21285901 2 17312817177986155838
21421861 104 17418084438973852936
21641784 216 14707198882439159255
23522609 53 17984734292352847073
23559900 14 18411695469932426409
23569914 2 9580990736975393563
23569943 247 17678168296417315883
25222932 49 17559103496236107383
2838139 119 8069736369592544274
29717793 49 18040428919706184245
3004659 81 18408602548150289674
33382 64 18341899610315569051
338550 245 18410008870598439998
3411729 13 16557892593561759456
34797466 226 17603868957479423085
376196 1 15868318569092033524
3886686 26 16479681801283547174
4072396 5 16702304529549561037
427121 178 13326847825901482836
4340502 62 18201431545464622920
439807 62 18411702110764482859
46194498 28 17603586352514682012
463206 1 18341609360278158507
465052 167 17775288274177548949
5104073 3 17489592255712533881
513532 50 17603861235001663424
59682541 52 17821441348996800599
6025842 7 18335986475668437716
633830 44 16877947143925857777
7970288 3 17983018851928235558
8509985 295 17704353281696261421
8988823 20 18131347552727578225
960060 61 17822303365985980438
9841814 1 16917067789090545904
9981440 41 16454621157508448725

> <PUBCHEM_SHAPE_MULTIPOLES>
505.48
14.58
2.61
1.48
19.96
1.72
-0.03
9.86
-1.37
-2.97
-0.07
-1.28
-0.43
-0.51

> <PUBCHEM_SHAPE_SELFOVERLAP>
1083.801

> <PUBCHEM_SHAPE_VOLUME>
281.6

> <PUBCHEM_COORDINATE_TYPE>
2
5
10

$$$$
