11882069
  -OEChem-12032416123D

 68 71  0     1  0  0  0  0  0999 V2000
    4.7916    4.1820   -2.1609 S   0  0  0  0  0  0  0  0  0  0  0  0
   -8.6248   -0.7114   -1.3033 S   0  0  0  0  0  0  0  0  0  0  0  0
    2.7722    0.0185    1.7703 O   0  0  0  0  0  0  0  0  0  0  0  0
    2.2384   -1.5519   -1.3621 O   0  0  0  0  0  0  0  0  0  0  0  0
   -2.3613    1.4450    1.1006 O   0  0  0  0  0  0  0  0  0  0  0  0
    1.1894    3.5985    2.4978 O   0  0  0  0  0  0  0  0  0  0  0  0
    1.1730   -1.8136    0.6671 N   0  0  0  0  0  0  0  0  0  0  0  0
   -1.6853   -0.7509    1.3566 N   0  0  0  0  0  0  0  0  0  0  0  0
    1.7085    1.7073    0.5721 N   0  0  0  0  0  0  0  0  0  0  0  0
    3.5473   -4.1672   -0.4509 N   0  0  0  0  0  0  0  0  0  0  0  0
   -3.7924   -0.3319    0.5481 N   0  0  0  0  0  0  0  0  0  0  0  0
    3.4548    3.7900    2.8267 N   0  0  0  0  0  0  0  0  0  0  0  0
   -0.3651   -0.4619    1.8640 C   0  0  2  0  0  0  0  0  0  0  0  0
    0.6691   -0.4448    0.7379 C   0  0  1  0  0  0  0  0  0  0  0  0
    0.1289   -1.5836    2.7809 C   0  0  0  0  0  0  0  0  0  0  0  0
    0.7234   -2.6011    1.8156 C   0  0  0  0  0  0  0  0  0  0  0  0
    1.8379    0.4286    1.0864 C   0  0  0  0  0  0  0  0  0  0  0  0
    1.8969   -2.2838   -0.4320 C   0  0  0  0  0  0  0  0  0  0  0  0
    2.2614   -3.6948   -0.4148 C   0  0  0  0  0  0  0  0  0  0  0  0
    2.6885    2.7478    0.7847 C   0  0  1  0  0  0  0  0  0  0  0  0
   -2.6040    0.2443    1.0053 C   0  0  0  0  0  0  0  0  0  0  0  0
    2.7085    3.7707   -0.3577 C   0  0  0  0  0  0  0  0  0  0  0  0
    1.4145   -4.7798   -0.3629 C   0  0  0  0  0  0  0  0  0  0  0  0
    2.3396    3.4283    2.1004 C   0  0  0  0  0  0  0  0  0  0  0  0
    3.5341   -5.5374   -0.4220 C   0  0  0  0  0  0  0  0  0  0  0  0
    2.2197   -5.9456   -0.3676 C   0  0  0  0  0  0  0  0  0  0  0  0
    3.4708    3.2712   -1.5623 C   0  0  0  0  0  0  0  0  0  0  0  0
    4.7454   -3.3589   -0.5094 C   0  0  0  0  0  0  0  0  0  0  0  0
   -4.9608    0.3277    0.1003 C   0  0  0  0  0  0  0  0  0  0  0  0
    3.2551    2.1276   -2.2994 C   0  0  0  0  0  0  0  0  0  0  0  0
   -6.0631   -0.4148   -0.3231 C   0  0  0  0  0  0  0  0  0  0  0  0
   -5.0103    1.7215    0.0824 C   0  0  0  0  0  0  0  0  0  0  0  0
    4.1866    1.9974   -3.3696 C   0  0  0  0  0  0  0  0  0  0  0  0
    5.0786    3.0463   -3.4098 C   0  0  0  0  0  0  0  0  0  0  0  0
   -7.2149    0.2365   -0.7642 C   0  0  0  0  0  0  0  0  0  0  0  0
   -6.1621    2.3730   -0.3587 C   0  0  0  0  0  0  0  0  0  0  0  0
   -7.2644    1.6304   -0.7820 C   0  0  0  0  0  0  0  0  0  0  0  0
   -7.9258   -1.6591   -2.6845 C   0  0  0  0  0  0  0  0  0  0  0  0
   -0.4063    0.4898    2.4058 H   0  0  0  0  0  0  0  0  0  0  0  0
    0.2553   -0.1599   -0.2366 H   0  0  0  0  0  0  0  0  0  0  0  0
   -0.6534   -2.0186    3.4106 H   0  0  0  0  0  0  0  0  0  0  0  0
    0.9181   -1.2017    3.4399 H   0  0  0  0  0  0  0  0  0  0  0  0
    1.5535   -3.1633    2.2528 H   0  0  0  0  0  0  0  0  0  0  0  0
   -0.0496   -3.2972    1.4763 H   0  0  0  0  0  0  0  0  0  0  0  0
   -1.9378   -1.7194    1.1851 H   0  0  0  0  0  0  0  0  0  0  0  0
    0.8508    1.9568    0.0877 H   0  0  0  0  0  0  0  0  0  0  0  0
    3.6719    2.2705    0.8871 H   0  0  0  0  0  0  0  0  0  0  0  0
    1.6856    4.0203   -0.6696 H   0  0  0  0  0  0  0  0  0  0  0  0
    3.1528    4.7090   -0.0001 H   0  0  0  0  0  0  0  0  0  0  0  0
    0.3339   -4.7480   -0.3409 H   0  0  0  0  0  0  0  0  0  0  0  0
   -3.8307   -1.3479    0.5332 H   0  0  0  0  0  0  0  0  0  0  0  0
    4.4518   -6.1098   -0.4444 H   0  0  0  0  0  0  0  0  0  0  0  0
    1.8793   -6.9711   -0.3388 H   0  0  0  0  0  0  0  0  0  0  0  0
    4.7939   -2.8886   -1.4945 H   0  0  0  0  0  0  0  0  0  0  0  0
    4.6973   -2.6039    0.2797 H   0  0  0  0  0  0  0  0  0  0  0  0
    5.6221   -3.9934   -0.3553 H   0  0  0  0  0  0  0  0  0  0  0  0
    3.3627    4.2394    3.7317 H   0  0  0  0  0  0  0  0  0  0  0  0
    4.3998    3.6402    2.4882 H   0  0  0  0  0  0  0  0  0  0  0  0
    2.4660    1.4154   -2.0969 H   0  0  0  0  0  0  0  0  0  0  0  0
   -6.0176   -1.5015   -0.2983 H   0  0  0  0  0  0  0  0  0  0  0  0
   -4.1993    2.3645    0.3936 H   0  0  0  0  0  0  0  0  0  0  0  0
    4.2004    1.1769   -4.0752 H   0  0  0  0  0  0  0  0  0  0  0  0
    5.8848    3.2002   -4.1132 H   0  0  0  0  0  0  0  0  0  0  0  0
   -6.2017    3.4584   -0.3732 H   0  0  0  0  0  0  0  0  0  0  0  0
   -8.1533    2.1558   -1.1225 H   0  0  0  0  0  0  0  0  0  0  0  0
   -7.4761   -0.9854   -3.4190 H   0  0  0  0  0  0  0  0  0  0  0  0
   -7.1713   -2.3648   -2.3279 H   0  0  0  0  0  0  0  0  0  0  0  0
   -8.7252   -2.2236   -3.1717 H   0  0  0  0  0  0  0  0  0  0  0  0
  1 27  1  0  0  0  0
  1 34  1  0  0  0  0
  2 35  1  0  0  0  0
  2 38  1  0  0  0  0
  3 17  2  0  0  0  0
  4 18  2  0  0  0  0
  5 21  2  0  0  0  0
  6 24  2  0  0  0  0
  7 14  1  0  0  0  0
  7 16  1  0  0  0  0
  7 18  1  0  0  0  0
  8 13  1  0  0  0  0
  8 21  1  0  0  0  0
  8 45  1  0  0  0  0
  9 17  1  0  0  0  0
  9 20  1  0  0  0  0
  9 46  1  0  0  0  0
 10 19  1  0  0  0  0
 10 25  1  0  0  0  0
 10 28  1  0  0  0  0
 11 21  1  0  0  0  0
 11 29  1  0  0  0  0
 11 51  1  0  0  0  0
 12 24  1  0  0  0  0
 12 57  1  0  0  0  0
 12 58  1  0  0  0  0
 13 14  1  0  0  0  0
 13 15  1  0  0  0  0
 13 39  1  0  0  0  0
 14 17  1  0  0  0  0
 14 40  1  0  0  0  0
 15 16  1  0  0  0  0
 15 41  1  0  0  0  0
 15 42  1  0  0  0  0
 16 43  1  0  0  0  0
 16 44  1  0  0  0  0
 18 19  1  0  0  0  0
 19 23  2  0  0  0  0
 20 22  1  0  0  0  0
 20 24  1  0  0  0  0
 20 47  1  0  0  0  0
 22 27  1  0  0  0  0
 22 48  1  0  0  0  0
 22 49  1  0  0  0  0
 23 26  1  0  0  0  0
 23 50  1  0  0  0  0
 25 26  2  0  0  0  0
 25 52  1  0  0  0  0
 26 53  1  0  0  0  0
 27 30  2  0  0  0  0
 28 54  1  0  0  0  0
 28 55  1  0  0  0  0
 28 56  1  0  0  0  0
 29 31  2  0  0  0  0
 29 32  1  0  0  0  0
 30 33  1  0  0  0  0
 30 59  1  0  0  0  0
 31 35  1  0  0  0  0
 31 60  1  0  0  0  0
 32 36  2  0  0  0  0
 32 61  1  0  0  0  0
 33 34  2  0  0  0  0
 33 62  1  0  0  0  0
 34 63  1  0  0  0  0
 35 37  2  0  0  0  0
 36 37  1  0  0  0  0
 36 64  1  0  0  0  0
 37 65  1  0  0  0  0
 38 66  1  0  0  0  0
 38 67  1  0  0  0  0
 38 68  1  0  0  0  0
M  END
> <PUBCHEM_COMPOUND_CID>
11882069

> <PUBCHEM_CONFORMER_RMSD>
1.2

> <PUBCHEM_CONFORMER_DIVERSEORDER>
1
57
56
41
14
36
52
44
37
48
17
72
59
11
13
64
30
32
35
63
45
67
60
16
40
71
34
27
39
65
61
31
12
53
55
47
22
10
54
29
69
73
20
70
21
33
51
8
50
25
43
58
28
3
19
68
62
6
23
66
26
49
24
18
15
4
9
46
5
38
74
2
7
42

> <PUBCHEM_MMFF94_PARTIAL_CHARGES>
52
1 -0.08
10 0.05
11 -0.55
12 -0.8
13 0.3
14 0.36
16 0.3
17 0.57
18 0.71
19 -0.24
2 -0.33
20 0.36
21 0.69
22 0.18
23 -0.15
24 0.57
25 -0.3
26 -0.15
27 -0.14
28 0.26
29 0.12
3 -0.57
30 -0.15
31 -0.15
32 -0.15
33 -0.15
34 -0.11
35 0.1
36 -0.15
37 -0.15
38 0.23
4 -0.57
45 0.37
46 0.37
5 -0.57
50 0.15
51 0.37
52 0.15
53 0.15
57 0.37
58 0.37
59 0.15
6 -0.57
60 0.15
61 0.15
62 0.15
63 0.15
64 0.15
65 0.15
7 -0.66
8 -0.73
9 -0.73

> <PUBCHEM_EFFECTIVE_ROTOR_COUNT>
14

> <PUBCHEM_PHARMACOPHORE_FEATURES>
14
1 10 cation
1 11 donor
1 12 donor
1 3 acceptor
1 38 hydrophobe
1 4 acceptor
1 5 acceptor
1 6 acceptor
1 8 donor
1 9 donor
5 1 27 30 33 34 rings
5 10 19 23 25 26 rings
5 7 13 14 15 16 rings
6 29 31 32 35 36 37 rings

> <PUBCHEM_HEAVY_ATOM_COUNT>
38

> <PUBCHEM_ATOM_DEF_STEREO_COUNT>
3

> <PUBCHEM_ATOM_UDEF_STEREO_COUNT>
0

> <PUBCHEM_BOND_DEF_STEREO_COUNT>
0

> <PUBCHEM_BOND_UDEF_STEREO_COUNT>
0

> <PUBCHEM_ISOTOPIC_ATOM_COUNT>
0

> <PUBCHEM_COMPONENT_COUNT>
1

> <PUBCHEM_CACTVS_TAUTO_COUNT>
12

> <PUBCHEM_CONFORMER_ID>
00B54E5500000001

> <PUBCHEM_MMFF94_ENERGY>
89.3549

> <PUBCHEM_FEATURE_SELFOVERLAP>
71.099

> <PUBCHEM_SHAPE_FINGERPRINT>
10079526 769 18194701279660688088
10721379 63 18202566163643230689
11093857 51 18263372541136456700
11115154 58 17755874008809411677
12440610 7 18261389018587232635
12522641 126 18412819197066099399
12660671 118 17749381547451041352
15082195 135 18408326571069301751
15803439 3 18193857043930358526
15950262 2 15216721521604801662
16988056 13 18263079920708602084
20775438 99 18338501037508338723
21304303 282 17338687767844531714
21716022 299 18197510527869789148
21968339 14 18411146818072709732
23559900 14 18270389474716633619
24771750 20 18263097620247697318
25025965 108 16552611437935677756
3103668 31 17473269146420921911
4046055 25 17764031268090499286
4066623 53 17829041014443616466
4394409 98 18265633116495885060
44317340 157 18411138009991740001
44802255 64 17612063716552424396
45266715 3 18059860631685769240
46194498 28 18186802439945538263
508180 173 17827923915072742713
57527295 17 18129681719903613153
6695519 79 17912653694264120299

> <PUBCHEM_SHAPE_MULTIPOLES>
736.36
17.49
8.11
3.03
52.74
8.8
-0.39
-7.65
-15.01
-17.9
-2.11
-3.31
-2.99
-2.2

> <PUBCHEM_SHAPE_SELFOVERLAP>
1542.88

> <PUBCHEM_SHAPE_VOLUME>
419.3

> <PUBCHEM_COORDINATE_TYPE>
2
5
10

$$$$
