56775199
  -OEChem-12032416383D

 40 42  0     1  0  0  0  0  0999 V2000
   -0.4606   -2.6051   -0.1102 O   0  0  0  0  0  0  0  0  0  0  0  0
    2.7110   -2.1337    1.3054 O   0  0  0  0  0  0  0  0  0  0  0  0
   -3.1761    1.3513    1.3526 O   0  0  0  0  0  0  0  0  0  0  0  0
   -2.0686   -0.0908   -0.0660 N   0  0  0  0  0  0  0  0  0  0  0  0
    1.5587   -0.6337   -0.1009 N   0  0  0  0  0  0  0  0  0  0  0  0
   -4.4006    0.0964   -0.1445 N   0  0  0  0  0  0  0  0  0  0  0  0
    0.2162   -0.3435   -0.6202 C   0  0  1  0  0  0  0  0  0  0  0  0
   -0.5534   -1.5798   -1.0937 C   0  0  2  0  0  0  0  0  0  0  0  0
   -0.7381    0.2304    0.4356 C   0  0  0  0  0  0  0  0  0  0  0  0
   -1.9993   -1.0954   -1.1297 C   0  0  0  0  0  0  0  0  0  0  0  0
    0.8774   -2.9955    0.0723 C   0  0  0  0  0  0  0  0  0  0  0  0
    1.8030   -1.8751    0.5142 C   0  0  0  0  0  0  0  0  0  0  0  0
    2.5558    0.4179   -0.1131 C   0  0  0  0  0  0  0  0  0  0  0  0
   -3.2138    0.5129    0.4477 C   0  0  0  0  0  0  0  0  0  0  0  0
    3.9122    0.0927   -0.1073 C   0  0  0  0  0  0  0  0  0  0  0  0
    2.1591    1.7550   -0.1305 C   0  0  0  0  0  0  0  0  0  0  0  0
   -5.6893    0.6142    0.2543 C   0  0  0  0  0  0  0  0  0  0  0  0
    4.8722    1.1048   -0.1187 C   0  0  0  0  0  0  0  0  0  0  0  0
    3.1189    2.7670   -0.1420 C   0  0  0  0  0  0  0  0  0  0  0  0
    4.4754    2.4420   -0.1361 C   0  0  0  0  0  0  0  0  0  0  0  0
   -5.9600    1.9679   -0.3690 C   0  0  0  0  0  0  0  0  0  0  0  0
    0.2936    0.3421   -1.4753 H   0  0  0  0  0  0  0  0  0  0  0  0
   -0.2212   -1.9665   -2.0632 H   0  0  0  0  0  0  0  0  0  0  0  0
   -0.6233   -0.2564    1.4115 H   0  0  0  0  0  0  0  0  0  0  0  0
   -0.6562    1.3085    0.5876 H   0  0  0  0  0  0  0  0  0  0  0  0
   -2.7223   -1.8944   -0.9408 H   0  0  0  0  0  0  0  0  0  0  0  0
   -2.2347   -0.5896   -2.0719 H   0  0  0  0  0  0  0  0  0  0  0  0
    1.2736   -3.4356   -0.8503 H   0  0  0  0  0  0  0  0  0  0  0  0
    0.8900   -3.7729    0.8434 H   0  0  0  0  0  0  0  0  0  0  0  0
   -4.3804   -0.5629   -0.9139 H   0  0  0  0  0  0  0  0  0  0  0  0
    4.2603   -0.9353   -0.1331 H   0  0  0  0  0  0  0  0  0  0  0  0
    1.1246    2.0688   -0.1468 H   0  0  0  0  0  0  0  0  0  0  0  0
   -6.4463   -0.1094   -0.0640 H   0  0  0  0  0  0  0  0  0  0  0  0
   -5.7207    0.6885    1.3464 H   0  0  0  0  0  0  0  0  0  0  0  0
    5.9285    0.8522   -0.1234 H   0  0  0  0  0  0  0  0  0  0  0  0
    2.8110    3.8085   -0.1586 H   0  0  0  0  0  0  0  0  0  0  0  0
    5.2226    3.2300   -0.1478 H   0  0  0  0  0  0  0  0  0  0  0  0
   -5.2194    2.7094   -0.0520 H   0  0  0  0  0  0  0  0  0  0  0  0
   -5.9243    1.9095   -1.4620 H   0  0  0  0  0  0  0  0  0  0  0  0
   -6.9505    2.3305   -0.0776 H   0  0  0  0  0  0  0  0  0  0  0  0
  1  8  1  0  0  0  0
  1 11  1  0  0  0  0
  2 12  2  0  0  0  0
  3 14  2  0  0  0  0
  4  9  1  0  0  0  0
  4 10  1  0  0  0  0
  4 14  1  0  0  0  0
  5  7  1  0  0  0  0
  5 12  1  0  0  0  0
  5 13  1  0  0  0  0
  6 14  1  0  0  0  0
  6 17  1  0  0  0  0
  6 30  1  0  0  0  0
  7  8  1  0  0  0  0
  7  9  1  0  0  0  0
  7 22  1  0  0  0  0
  8 10  1  0  0  0  0
  8 23  1  0  0  0  0
  9 24  1  0  0  0  0
  9 25  1  0  0  0  0
 10 26  1  0  0  0  0
 10 27  1  0  0  0  0
 11 12  1  0  0  0  0
 11 28  1  0  0  0  0
 11 29  1  0  0  0  0
 13 15  2  0  0  0  0
 13 16  1  0  0  0  0
 15 18  1  0  0  0  0
 15 31  1  0  0  0  0
 16 19  2  0  0  0  0
 16 32  1  0  0  0  0
 17 21  1  0  0  0  0
 17 33  1  0  0  0  0
 17 34  1  0  0  0  0
 18 20  2  0  0  0  0
 18 35  1  0  0  0  0
 19 20  1  0  0  0  0
 19 36  1  0  0  0  0
 20 37  1  0  0  0  0
 21 38  1  0  0  0  0
 21 39  1  0  0  0  0
 21 40  1  0  0  0  0
M  END
> <PUBCHEM_COMPOUND_CID>
56775199

> <PUBCHEM_CONFORMER_RMSD>
0.8

> <PUBCHEM_CONFORMER_DIVERSEORDER>
1
11
7
8
5
3
12
4
13
9
6
10
2

> <PUBCHEM_MMFF94_PARTIAL_CHARGES>
26
1 -0.56
10 0.3
11 0.34
12 0.57
13 0.12
14 0.69
15 -0.15
16 -0.15
17 0.3
18 -0.15
19 -0.15
2 -0.57
20 -0.15
3 -0.57
30 0.37
31 0.15
32 0.15
35 0.15
36 0.15
37 0.15
4 -0.66
5 -0.48
6 -0.73
7 0.3
8 0.28
9 0.3

> <PUBCHEM_EFFECTIVE_ROTOR_COUNT>
5.2

> <PUBCHEM_PHARMACOPHORE_FEATURES>
7
1 1 acceptor
1 2 acceptor
1 3 acceptor
1 6 donor
5 4 7 8 9 10 rings
6 1 5 7 8 11 12 rings
6 13 15 16 18 19 20 rings

> <PUBCHEM_HEAVY_ATOM_COUNT>
21

> <PUBCHEM_ATOM_DEF_STEREO_COUNT>
2

> <PUBCHEM_ATOM_UDEF_STEREO_COUNT>
0

> <PUBCHEM_BOND_DEF_STEREO_COUNT>
0

> <PUBCHEM_BOND_UDEF_STEREO_COUNT>
0

> <PUBCHEM_ISOTOPIC_ATOM_COUNT>
0

> <PUBCHEM_COMPONENT_COUNT>
1

> <PUBCHEM_CACTVS_TAUTO_COUNT>
4

> <PUBCHEM_CONFORMER_ID>
0362521F00000001

> <PUBCHEM_MMFF94_ENERGY>
63.5329

> <PUBCHEM_FEATURE_SELFOVERLAP>
35.74

> <PUBCHEM_SHAPE_FINGERPRINT>
10411042 1 17689716363928240142
10493431 412 18337109093634573804
11045977 3 17967823716810866323
12236239 1 18273210902313677895
12390115 104 18194137423690265156
12403259 327 16153708768668703049
12644460 14 18260828163976192466
12769317 202 18340759369481756981
12788726 201 17616804870399092362
13140716 1 18191018096676065528
13583140 156 18260276265300496017
13785724 45 17763744291102836003
13878862 14 18117534277059181485
13965767 371 18043509781178371376
14123255 52 18411138069097687844
14251764 38 18049719621173509093
14528608 73 18413669115280248213
146900 427 18272662251066060305
14787075 74 18199189684215946219
14790565 3 18265054802437474885
15342168 16 18261677072593770629
15475509 35 16299224605830315570
15475509 8 17842015307844696566
15534591 1 18270963577998651782
1813 80 17838902538671103294
18186145 218 18263638623593086220
19784866 9 18409728469531910296
20157964 124 18337387137734248805
204376 136 18409734001286198479
20510252 161 17615403001810987122
20715895 44 17765150571671770137
21524375 3 18272938244883791892
22182937 141 18193843866986479074
22620623 9 16056022701596782999
23558518 356 17757832604212020022
23559900 14 18195247720250609291
23845131 108 18187645838284223187
25147074 1 18269817826653110599
283562 15 17686048805560114154
298252 57 17489311922917639502
335352 9 18411420618628443860
350125 39 18336262336890725492
4340502 62 17894918438368479363
474 4 18411420605041967097
5104073 3 18044363067021401832
59755656 520 18337670918433287966
6034566 193 17607534823034485789
633830 44 18338515365286240044
8272917 22 18338235964293676543
9999458 23 18335706013976890062

> <PUBCHEM_SHAPE_MULTIPOLES>
399.62
10.86
3.09
0.92
11.28
0.82
0.04
-9.71
0.31
-2.07
0.11
0.26
0.21
-0.85

> <PUBCHEM_SHAPE_SELFOVERLAP>
847.967

> <PUBCHEM_SHAPE_VOLUME>
223.1

> <PUBCHEM_COORDINATE_TYPE>
2
5
10

$$$$
