75536736
  -OEChem-12032416393D

 44 45  0     1  0  0  0  0  0999 V2000
    0.5563    1.1108   -0.4301 O   0  0  0  0  0  0  0  0  0  0  0  0
   -0.4079   -2.2102    0.5429 O   0  0  0  0  0  0  0  0  0  0  0  0
    4.1722   -1.3309    0.5999 O   0  0  0  0  0  0  0  0  0  0  0  0
   -2.7941   -0.2567   -0.0621 N   0  0  0  0  0  0  0  0  0  0  0  0
    3.1445   -0.0036   -1.0058 N   0  0  0  0  0  0  0  0  0  0  0  0
    5.2470    0.5499   -0.2314 N   0  0  0  0  0  0  0  0  0  0  0  0
   -5.9760    1.2979   -0.0712 N   0  0  0  0  0  0  0  0  0  0  0  0
   -7.1970   -0.5571   -0.0810 N   0  0  0  0  0  0  0  0  0  0  0  0
   -1.4116    0.0026    0.3053 C   0  0  1  0  0  0  0  0  0  0  0  0
   -0.4352   -1.0273   -0.2321 C   0  0  1  0  0  0  0  0  0  0  0  0
    0.8775   -0.2607   -0.1442 C   0  0  1  0  0  0  0  0  0  0  0  0
   -0.8665    1.2822   -0.3075 C   0  0  0  0  0  0  0  0  0  0  0  0
    1.9287   -0.7561   -1.1214 C   0  0  0  0  0  0  0  0  0  0  0  0
   -3.7101    0.5451    0.7404 C   0  0  0  0  0  0  0  0  0  0  0  0
   -5.1469    0.3018    0.3622 C   0  0  0  0  0  0  0  0  0  0  0  0
    4.1884   -0.3508   -0.1434 C   0  0  0  0  0  0  0  0  0  0  0  0
    6.4513    0.4211    0.5548 C   0  0  0  0  0  0  0  0  0  0  0  0
   -5.9228   -0.8332    0.3477 C   0  0  0  0  0  0  0  0  0  0  0  0
   -7.1956    0.7346   -0.3249 C   0  0  0  0  0  0  0  0  0  0  0  0
    7.4688   -0.4549   -0.1654 C   0  0  0  0  0  0  0  0  0  0  0  0
    7.0289    1.7954    0.8671 C   0  0  0  0  0  0  0  0  0  0  0  0
   -1.3089    0.0300    1.3995 H   0  0  0  0  0  0  0  0  0  0  0  0
   -0.6709   -1.2904   -1.2708 H   0  0  0  0  0  0  0  0  0  0  0  0
    1.2803   -0.2958    0.8767 H   0  0  0  0  0  0  0  0  0  0  0  0
   -1.2579    1.4612   -1.3156 H   0  0  0  0  0  0  0  0  0  0  0  0
   -1.0731    2.1655    0.3044 H   0  0  0  0  0  0  0  0  0  0  0  0
    1.5857   -0.6287   -2.1540 H   0  0  0  0  0  0  0  0  0  0  0  0
    2.1427   -1.8170   -0.9537 H   0  0  0  0  0  0  0  0  0  0  0  0
   -2.9980   -1.2449    0.0898 H   0  0  0  0  0  0  0  0  0  0  0  0
   -3.4888    1.6126    0.6198 H   0  0  0  0  0  0  0  0  0  0  0  0
   -3.5978    0.3047    1.8053 H   0  0  0  0  0  0  0  0  0  0  0  0
   -0.2000   -1.9693    1.4615 H   0  0  0  0  0  0  0  0  0  0  0  0
    3.2456    0.8341   -1.5708 H   0  0  0  0  0  0  0  0  0  0  0  0
    5.1981    1.2851   -0.9304 H   0  0  0  0  0  0  0  0  0  0  0  0
    6.1895   -0.0658    1.5020 H   0  0  0  0  0  0  0  0  0  0  0  0
   -5.7353    2.2736   -0.1848 H   0  0  0  0  0  0  0  0  0  0  0  0
   -5.6312   -1.8362    0.6243 H   0  0  0  0  0  0  0  0  0  0  0  0
    8.3775   -0.5730    0.4340 H   0  0  0  0  0  0  0  0  0  0  0  0
    7.0601   -1.4527   -0.3586 H   0  0  0  0  0  0  0  0  0  0  0  0
    7.7508   -0.0225   -1.1320 H   0  0  0  0  0  0  0  0  0  0  0  0
    6.2975    2.4114    1.4017 H   0  0  0  0  0  0  0  0  0  0  0  0
    7.9231    1.7115    1.4934 H   0  0  0  0  0  0  0  0  0  0  0  0
    7.3029    2.3302   -0.0492 H   0  0  0  0  0  0  0  0  0  0  0  0
   -8.0335    1.3160   -0.6823 H   0  0  0  0  0  0  0  0  0  0  0  0
  1 11  1  0  0  0  0
  1 12  1  0  0  0  0
  2 10  1  0  0  0  0
  2 32  1  0  0  0  0
  3 16  2  0  0  0  0
  4  9  1  0  0  0  0
  4 14  1  0  0  0  0
  4 29  1  0  0  0  0
  5 13  1  0  0  0  0
  5 16  1  0  0  0  0
  5 33  1  0  0  0  0
  6 16  1  0  0  0  0
  6 17  1  0  0  0  0
  6 34  1  0  0  0  0
  7 15  1  0  0  0  0
  7 19  1  0  0  0  0
  7 36  1  0  0  0  0
  8 18  1  0  0  0  0
  8 19  2  0  0  0  0
  9 10  1  0  0  0  0
  9 12  1  0  0  0  0
  9 22  1  0  0  0  0
 10 11  1  0  0  0  0
 10 23  1  0  0  0  0
 11 13  1  0  0  0  0
 11 24  1  0  0  0  0
 12 25  1  0  0  0  0
 12 26  1  0  0  0  0
 13 27  1  0  0  0  0
 13 28  1  0  0  0  0
 14 15  1  0  0  0  0
 14 30  1  0  0  0  0
 14 31  1  0  0  0  0
 15 18  2  0  0  0  0
 17 20  1  0  0  0  0
 17 21  1  0  0  0  0
 17 35  1  0  0  0  0
 18 37  1  0  0  0  0
 19 44  1  0  0  0  0
 20 38  1  0  0  0  0
 20 39  1  0  0  0  0
 20 40  1  0  0  0  0
 21 41  1  0  0  0  0
 21 42  1  0  0  0  0
 21 43  1  0  0  0  0
M  END
> <PUBCHEM_COMPOUND_CID>
75536736

> <PUBCHEM_CONFORMER_RMSD>
1

> <PUBCHEM_CONFORMER_DIVERSEORDER>
1
77
101
20
30
9
58
56
25
106
18
62
72
41
91
51
87
81
70
6
86
108
67
23
59
65
7
100
107
84
88
13
66
52
47
105
17
98
43
33
90
63
74
21
39
89
103
80
97
95
61
26
76
37
11
45
53
50
99
82
79
38
48
92
32
55
22
19
10
96
28
12
36
5
42
94
78
93
71
27
54
34
4
85
46
68
14
29
60
109
35
44
102
69
8
73
49
2
15
75
16
24
3
83
31
64
104
40
57

> <PUBCHEM_MMFF94_PARTIAL_CHARGES>
26
1 -0.56
10 0.28
11 0.28
12 0.28
13 0.3
14 0.45
15 -0.33
16 0.69
17 0.3
18 0.08
19 0.04
2 -0.68
29 0.36
3 -0.57
32 0.4
33 0.37
34 0.37
36 0.27
37 0.15
4 -0.9
44 0.15
5 -0.73
6 -0.73
7 0.03
8 -0.57
9 0.27

> <PUBCHEM_EFFECTIVE_ROTOR_COUNT>
9

> <PUBCHEM_PHARMACOPHORE_FEATURES>
13
1 1 acceptor
1 2 acceptor
1 2 donor
1 3 acceptor
1 4 cation
1 4 donor
1 5 donor
1 6 donor
1 7 donor
3 17 20 21 hydrophobe
3 7 8 19 cation
5 1 9 10 11 12 rings
5 7 8 15 18 19 rings

> <PUBCHEM_HEAVY_ATOM_COUNT>
21

> <PUBCHEM_ATOM_DEF_STEREO_COUNT>
3

> <PUBCHEM_ATOM_UDEF_STEREO_COUNT>
0

> <PUBCHEM_BOND_DEF_STEREO_COUNT>
0

> <PUBCHEM_BOND_UDEF_STEREO_COUNT>
0

> <PUBCHEM_ISOTOPIC_ATOM_COUNT>
0

> <PUBCHEM_COMPONENT_COUNT>
1

> <PUBCHEM_CACTVS_TAUTO_COUNT>
6

> <PUBCHEM_CONFORMER_ID>
0480996000000001

> <PUBCHEM_MMFF94_ENERGY>
23.9267

> <PUBCHEM_FEATURE_SELFOVERLAP>
66.021

> <PUBCHEM_SHAPE_FINGERPRINT>
10 15 18187361065479114320
10299344 5 10231755587154944837
106641 1 18412262873671721763
10968037 39 17132114641786213557
11315181 36 17846500336354868609
11638347 137 18333732395184920522
12091667 2 18408606959783023531
12236239 1 18201158767838702455
125118 31 18407762538610685260
13533116 47 18041276557282780354
13885169 127 11169901784373676238
13899415 154 16343704348331452992
14123256 10 14549019874927427970
14251752 14 8070033259090276826
14251764 18 17967250905548774542
14251764 46 17489588952719041622
15048467 5 17131833166023532236
15183329 4 14056717946016793293
15849732 13 18335421278771601814
17834076 25 16486975089743798918
18006028 8 13984662555355130422
18335252 98 17132119061033696855
20157964 124 17560805420852448614
20281389 69 18411417306850293368
21095086 128 15482672368524300900
21150785 3 13830131702445951720
220451 1 14261351336765294013
22224240 67 18343017804950992078
23402539 116 18410291432264777471
23622692 88 17458349654194567246
28498 318 12324232867176660745
29717793 49 8862941693606676578
3009799 131 18186239524341454793
34797466 226 16415485964740130180
4325135 7 17346880044025397909
5207 217 17418375800574940911
59682541 35 18341611559332393784
6438161 24 10159710071435965764
8209 1 18411419505314113405

> <PUBCHEM_SHAPE_MULTIPOLES>
389.66
22.35
1.43
0.84
1.53
0.03
0.04
-5.12
-2.41
0.66
-0.2
0.39
0.02
0.71

> <PUBCHEM_SHAPE_SELFOVERLAP>
790.899

> <PUBCHEM_SHAPE_VOLUME>
229.4

> <PUBCHEM_COORDINATE_TYPE>
2
5
10

$$$$
