45360923
  -OEChem-12032416333D

 69 72  0     1  0  0  0  0  0999 V2000
    8.4672    0.4177   -0.2124 S   0  0  0  0  0  0  0  0  0  0  0  0
   -3.9040    4.6998   -0.1145 F   0  0  0  0  0  0  0  0  0  0  0  0
    1.5791   -2.6528    0.7388 O   0  0  0  0  0  0  0  0  0  0  0  0
   -5.7725   -1.7714   -1.4590 O   0  0  0  0  0  0  0  0  0  0  0  0
    9.0123    1.7528   -0.0076 O   0  0  0  0  0  0  0  0  0  0  0  0
    9.0637   -0.7194    0.4739 O   0  0  0  0  0  0  0  0  0  0  0  0
    1.7669   -0.0631   -0.0038 N   0  0  1  0  0  0  0  0  0  0  0  0
   -1.4840   -1.2637   -1.1787 N   0  0  1  0  0  0  0  0  0  0  0  0
   -0.6459   -2.5512    1.2632 N   0  0  0  0  0  0  0  0  0  0  0  0
   -5.8623   -1.2352    0.7978 N   0  0  0  0  0  0  0  0  0  0  0  0
   -0.5400   -0.2104   -0.7438 C   0  0  1  0  0  0  0  0  0  0  0  0
    0.4350   -0.5269    0.4281 C   0  0  1  0  0  0  0  0  0  0  0  0
    0.4266    0.2571   -1.8478 C   0  0  0  0  0  0  0  0  0  0  0  0
    1.5572    0.9036   -1.0756 C   0  0  0  0  0  0  0  0  0  0  0  0
   -2.4798   -1.6637   -0.1456 C   0  0  2  0  0  0  0  0  0  0  0  0
    0.5364   -2.0031    0.8032 C   0  0  0  0  0  0  0  0  0  0  0  0
   -1.9072   -1.8370    1.2748 C   0  0  0  0  0  0  0  0  0  0  0  0
    2.5669    0.4877    1.0827 C   0  0  0  0  0  0  0  0  0  0  0  0
   -3.1595   -2.9926   -0.5372 C   0  0  0  0  0  0  0  0  0  0  0  0
   -2.1688   -0.8721   -2.4225 C   0  0  0  0  0  0  0  0  0  0  0  0
   -4.5215   -3.1131    0.1210 C   0  0  0  0  0  0  0  0  0  0  0  0
    4.0375    0.4706    0.7607 C   0  0  0  0  0  0  0  0  0  0  0  0
    4.7534   -0.7244    0.8329 C   0  0  0  0  0  0  0  0  0  0  0  0
    4.6842    1.6497    0.3902 C   0  0  0  0  0  0  0  0  0  0  0  0
   -5.4460   -1.9827   -0.2941 C   0  0  0  0  0  0  0  0  0  0  0  0
    6.1158   -0.7403    0.5347 C   0  0  0  0  0  0  0  0  0  0  0  0
    6.0466    1.6339    0.0920 C   0  0  0  0  0  0  0  0  0  0  0  0
    6.7625    0.4388    0.1642 C   0  0  0  0  0  0  0  0  0  0  0  0
   -6.7471   -0.1023    0.6643 C   0  0  0  0  0  0  0  0  0  0  0  0
    8.5301    0.0955   -1.9604 C   0  0  0  0  0  0  0  0  0  0  0  0
   -5.9874    1.1808    0.4560 C   0  0  0  0  0  0  0  0  0  0  0  0
   -5.5969    1.9461    1.5550 C   0  0  0  0  0  0  0  0  0  0  0  0
   -5.6741    1.6045   -0.8355 C   0  0  0  0  0  0  0  0  0  0  0  0
   -4.8934    3.1349    1.3625 C   0  0  0  0  0  0  0  0  0  0  0  0
   -4.9706    2.7934   -1.0282 C   0  0  0  0  0  0  0  0  0  0  0  0
   -4.5802    3.5585    0.0708 C   0  0  0  0  0  0  0  0  0  0  0  0
   -1.1247    0.6743   -0.4468 H   0  0  0  0  0  0  0  0  0  0  0  0
    0.1129    0.0353    1.3148 H   0  0  0  0  0  0  0  0  0  0  0  0
    0.8060   -0.5953   -2.4272 H   0  0  0  0  0  0  0  0  0  0  0  0
   -0.0389    0.9673   -2.5390 H   0  0  0  0  0  0  0  0  0  0  0  0
    2.4433    1.0298   -1.7051 H   0  0  0  0  0  0  0  0  0  0  0  0
    1.2430    1.8852   -0.6988 H   0  0  0  0  0  0  0  0  0  0  0  0
   -3.2185   -0.8563   -0.0819 H   0  0  0  0  0  0  0  0  0  0  0  0
   -2.5791   -2.3906    1.9363 H   0  0  0  0  0  0  0  0  0  0  0  0
   -1.7625   -0.8605    1.7483 H   0  0  0  0  0  0  0  0  0  0  0  0
    2.4403   -0.1177    1.9915 H   0  0  0  0  0  0  0  0  0  0  0  0
    2.2362    1.4959    1.3667 H   0  0  0  0  0  0  0  0  0  0  0  0
   -3.3120   -3.0985   -1.6135 H   0  0  0  0  0  0  0  0  0  0  0  0
   -2.5352   -3.8494   -0.2539 H   0  0  0  0  0  0  0  0  0  0  0  0
   -0.6417   -3.5248    1.5516 H   0  0  0  0  0  0  0  0  0  0  0  0
   -2.7243    0.0645   -2.2941 H   0  0  0  0  0  0  0  0  0  0  0  0
   -1.4550   -0.7387   -3.2417 H   0  0  0  0  0  0  0  0  0  0  0  0
   -2.8684   -1.6203   -2.7989 H   0  0  0  0  0  0  0  0  0  0  0  0
   -4.9995   -4.0465   -0.2014 H   0  0  0  0  0  0  0  0  0  0  0  0
   -4.4393   -3.1826    1.2095 H   0  0  0  0  0  0  0  0  0  0  0  0
    4.2621   -1.6499    1.1203 H   0  0  0  0  0  0  0  0  0  0  0  0
    4.1372    2.5867    0.3271 H   0  0  0  0  0  0  0  0  0  0  0  0
    6.6516   -1.6837    0.5905 H   0  0  0  0  0  0  0  0  0  0  0  0
    6.5288    2.5621   -0.2014 H   0  0  0  0  0  0  0  0  0  0  0  0
   -5.5233   -1.4616    1.7280 H   0  0  0  0  0  0  0  0  0  0  0  0
   -7.4418   -0.2725   -0.1668 H   0  0  0  0  0  0  0  0  0  0  0  0
   -7.3508   -0.0458    1.5771 H   0  0  0  0  0  0  0  0  0  0  0  0
    8.0572   -0.8677   -2.1611 H   0  0  0  0  0  0  0  0  0  0  0  0
    9.5793    0.0649   -2.2618 H   0  0  0  0  0  0  0  0  0  0  0  0
    8.0141    0.8994   -2.4889 H   0  0  0  0  0  0  0  0  0  0  0  0
   -5.8332    1.6255    2.5662 H   0  0  0  0  0  0  0  0  0  0  0  0
   -5.9736    1.0203   -1.7011 H   0  0  0  0  0  0  0  0  0  0  0  0
   -4.5885    3.7306    2.2178 H   0  0  0  0  0  0  0  0  0  0  0  0
   -4.7262    3.1233   -2.0335 H   0  0  0  0  0  0  0  0  0  0  0  0
  1  5  2  0  0  0  0
  1  6  2  0  0  0  0
  1 28  1  0  0  0  0
  1 30  1  0  0  0  0
  2 36  1  0  0  0  0
  3 16  2  0  0  0  0
  4 25  2  0  0  0  0
  7 12  1  0  0  0  0
  7 14  1  0  0  0  0
  7 18  1  0  0  0  0
  8 11  1  0  0  0  0
  8 15  1  0  0  0  0
  8 20  1  0  0  0  0
  9 16  1  0  0  0  0
  9 17  1  0  0  0  0
  9 50  1  0  0  0  0
 10 25  1  0  0  0  0
 10 29  1  0  0  0  0
 10 60  1  0  0  0  0
 11 12  1  0  0  0  0
 11 13  1  0  0  0  0
 11 37  1  0  0  0  0
 12 16  1  0  0  0  0
 12 38  1  0  0  0  0
 13 14  1  0  0  0  0
 13 39  1  0  0  0  0
 13 40  1  0  0  0  0
 14 41  1  0  0  0  0
 14 42  1  0  0  0  0
 15 17  1  0  0  0  0
 15 19  1  0  0  0  0
 15 43  1  0  0  0  0
 17 44  1  0  0  0  0
 17 45  1  0  0  0  0
 18 22  1  0  0  0  0
 18 46  1  0  0  0  0
 18 47  1  0  0  0  0
 19 21  1  0  0  0  0
 19 48  1  0  0  0  0
 19 49  1  0  0  0  0
 20 51  1  0  0  0  0
 20 52  1  0  0  0  0
 20 53  1  0  0  0  0
 21 25  1  0  0  0  0
 21 54  1  0  0  0  0
 21 55  1  0  0  0  0
 22 23  2  0  0  0  0
 22 24  1  0  0  0  0
 23 26  1  0  0  0  0
 23 56  1  0  0  0  0
 24 27  2  0  0  0  0
 24 57  1  0  0  0  0
 26 28  2  0  0  0  0
 26 58  1  0  0  0  0
 27 28  1  0  0  0  0
 27 59  1  0  0  0  0
 29 31  1  0  0  0  0
 29 61  1  0  0  0  0
 29 62  1  0  0  0  0
 30 63  1  0  0  0  0
 30 64  1  0  0  0  0
 30 65  1  0  0  0  0
 31 32  2  0  0  0  0
 31 33  1  0  0  0  0
 32 34  1  0  0  0  0
 32 66  1  0  0  0  0
 33 35  2  0  0  0  0
 33 67  1  0  0  0  0
 34 36  2  0  0  0  0
 34 68  1  0  0  0  0
 35 36  1  0  0  0  0
 35 69  1  0  0  0  0
M  END
> <PUBCHEM_COMPOUND_CID>
45360923

> <PUBCHEM_CONFORMER_RMSD>
1.4

> <PUBCHEM_CONFORMER_DIVERSEORDER>
4
149
30
45
159
152
122
8
154
85
42
62
160
25
84
143
125
157
58
161
56
116
146
24
163
48
97
110
38
98
129
59
2
15
108
96
94
66
124
158
79
83
106
139
32
33
90
37
68
144
75
140
14
51
17
155
92
127
105
123
95
78
40
20
118
49
115
147
41
113
119
34
128
35
156
73
137
135
101
121
44
16
47
60
43
57
142
87
151
138
130
131
141
93
120
145
52
36
126
162
80
50
31
7
18
61
133
9
65
5
46
111
82
71
148
64
102
76
150
104
69
54
112
72
70
19
153
117
55
134
13
29
136
67
11
99
103
89
107
132
88
100
28
53
1
109
81
91
74
21
22
77
39
23
27
6
63
86
12
26
3
10
114

> <PUBCHEM_MMFF94_PARTIAL_CHARGES>
44
1 1.2
10 -0.73
11 0.27
12 0.33
14 0.27
15 0.27
16 0.57
17 0.3
18 0.41
2 -0.19
20 0.27
21 0.06
22 -0.14
23 -0.15
24 -0.15
25 0.57
26 -0.15
27 -0.15
28 -0.01
29 0.44
3 -0.57
30 0.11
31 -0.14
32 -0.15
33 -0.15
34 -0.15
35 -0.15
36 0.19
4 -0.57
5 -0.65
50 0.37
56 0.15
57 0.15
58 0.15
59 0.15
6 -0.65
60 0.37
66 0.15
67 0.15
68 0.15
69 0.15
7 -0.81
8 -0.81
9 -0.73

> <PUBCHEM_EFFECTIVE_ROTOR_COUNT>
10.4

> <PUBCHEM_PHARMACOPHORE_FEATURES>
12
1 10 donor
1 3 acceptor
1 4 acceptor
1 5 acceptor
1 6 acceptor
1 7 cation
1 8 cation
1 9 donor
5 7 11 12 13 14 rings
6 22 23 24 26 27 28 rings
6 31 32 33 34 35 36 rings
7 8 9 11 12 15 16 17 rings

> <PUBCHEM_HEAVY_ATOM_COUNT>
36

> <PUBCHEM_ATOM_DEF_STEREO_COUNT>
3

> <PUBCHEM_ATOM_UDEF_STEREO_COUNT>
0

> <PUBCHEM_BOND_DEF_STEREO_COUNT>
0

> <PUBCHEM_BOND_UDEF_STEREO_COUNT>
0

> <PUBCHEM_ISOTOPIC_ATOM_COUNT>
0

> <PUBCHEM_COMPONENT_COUNT>
1

> <PUBCHEM_CACTVS_TAUTO_COUNT>
6

> <PUBCHEM_CONFORMER_ID>
02B4271B00000004

> <PUBCHEM_MMFF94_ENERGY>
84.3685

> <PUBCHEM_FEATURE_SELFOVERLAP>
60.951

> <PUBCHEM_SHAPE_FINGERPRINT>
100830 39 18411136931179670705
10462385 53 16081083771064715930
10554248 39 14476963432795791320
10580692 12 18412544314621444930
10670039 82 18413101784665841939
10674148 151 18408884054172732618
10815517 723 18186801387515234933
10951579 204 18267888115596593348
11007060 377 17095797823616892509
11374522 101 18334012782896998133
11434127 23 17845653634576027333
12104220 1 18261388975325920541
12128747 34 18342457006691835503
12373685 5 11455897940820136164
13383665 225 18114481002573334638
13627175 23 17095533924295236692
13885169 127 18412825807041398658
13914758 101 18131074848701839914
13947934 56 18272370855363871920
14294032 229 18113897118390753724
14856354 85 18337952411033258607
15021287 119 17168148944494672917
15183329 4 18187354454923065594
15484559 13 13819509089130381971
15604295 49 18058442283419523976
15876981 60 18266456697886621303
16112460 7 17749956677541519060
18603816 31 12396586277973766601
21756936 100 18342734101249966149
21927370 108 18267587004694062263
23522609 53 17895208688206313220
2838139 119 17704066287697560577
3711267 37 17458348576585109556
4098825 35 18411417315587784698
4169191 19 18186515488537592482
4280585 95 10015577307725569899
4403749 210 18041835100262613717
44802255 64 17775283880901318263
563151 97 18408318878419566659
6086070 43 16343688950425563242
6201320 215 18201438034511581777
9953998 17 11242244148192661855

> <PUBCHEM_SHAPE_MULTIPOLES>
694.04
24.91
3.9
1.55
46.22
2.04
-0.62
9.82
-0.25
-9.08
0.46
-0.5
-0.09
-1.06

> <PUBCHEM_SHAPE_SELFOVERLAP>
1456.105

> <PUBCHEM_SHAPE_VOLUME>
394.8

> <PUBCHEM_COORDINATE_TYPE>
2
5
10

$$$$
