56775017
  -OEChem-12032416273D

 48 51  0     1  0  0  0  0  0999 V2000
   -1.2442   -2.7432    0.8438 O   0  0  0  0  0  0  0  0  0  0  0  0
   -4.5598   -2.4368   -0.3091 O   0  0  0  0  0  0  0  0  0  0  0  0
    7.6461    0.1942    1.2219 O   0  0  0  0  0  0  0  0  0  0  0  0
    7.2874    2.3075    0.4655 O   0  0  0  0  0  0  0  0  0  0  0  0
    0.7868   -0.5336   -0.5156 N   0  0  1  0  0  0  0  0  0  0  0  0
   -2.8468   -0.8628   -0.3744 N   0  0  0  0  0  0  0  0  0  0  0  0
   -6.3145    1.5966    0.8330 N   0  0  0  0  0  0  0  0  0  0  0  0
   -1.4730   -0.5060   -0.0314 C   0  0  1  0  0  0  0  0  0  0  0  0
   -0.8201   -1.3942    1.0229 C   0  0  2  0  0  0  0  0  0  0  0  0
   -0.5011   -0.6322   -1.2015 C   0  0  0  0  0  0  0  0  0  0  0  0
    0.6790   -1.3304    0.7134 C   0  0  0  0  0  0  0  0  0  0  0  0
    1.9037   -0.9361   -1.3553 C   0  0  0  0  0  0  0  0  0  0  0  0
   -3.4395   -2.0547    0.0319 C   0  0  0  0  0  0  0  0  0  0  0  0
   -2.6357   -2.8631    1.0277 C   0  0  0  0  0  0  0  0  0  0  0  0
   -3.5659    0.0458   -1.2578 C   0  0  0  0  0  0  0  0  0  0  0  0
    3.2123   -0.3926   -0.8463 C   0  0  0  0  0  0  0  0  0  0  0  0
   -4.3591    1.0669   -0.4865 C   0  0  0  0  0  0  0  0  0  0  0  0
    3.5361    0.9489   -1.0499 C   0  0  0  0  0  0  0  0  0  0  0  0
    4.1006   -1.2300   -0.1717 C   0  0  0  0  0  0  0  0  0  0  0  0
   -3.9152    2.3794   -0.3688 C   0  0  0  0  0  0  0  0  0  0  0  0
   -5.5544    0.7292    0.1275 C   0  0  0  0  0  0  0  0  0  0  0  0
    4.7482    1.4529   -0.5785 C   0  0  0  0  0  0  0  0  0  0  0  0
    5.3128   -0.7260    0.2995 C   0  0  0  0  0  0  0  0  0  0  0  0
    5.6366    0.6155    0.0963 C   0  0  0  0  0  0  0  0  0  0  0  0
   -4.6695    3.3008    0.3491 C   0  0  0  0  0  0  0  0  0  0  0  0
   -5.8509    2.8632    0.9256 C   0  0  0  0  0  0  0  0  0  0  0  0
    6.9002    1.1408    0.5886 C   0  0  0  0  0  0  0  0  0  0  0  0
   -1.4748    0.5310    0.3321 H   0  0  0  0  0  0  0  0  0  0  0  0
   -1.0419   -1.0676    2.0456 H   0  0  0  0  0  0  0  0  0  0  0  0
   -0.6251    0.1749   -1.9302 H   0  0  0  0  0  0  0  0  0  0  0  0
   -0.6237   -1.5933   -1.7181 H   0  0  0  0  0  0  0  0  0  0  0  0
    1.2126   -0.8135    1.5183 H   0  0  0  0  0  0  0  0  0  0  0  0
    1.0984   -2.3388    0.6111 H   0  0  0  0  0  0  0  0  0  0  0  0
    1.7703   -0.5348   -2.3701 H   0  0  0  0  0  0  0  0  0  0  0  0
    1.9511   -2.0257   -1.4858 H   0  0  0  0  0  0  0  0  0  0  0  0
   -2.9162   -2.5632    2.0438 H   0  0  0  0  0  0  0  0  0  0  0  0
   -2.8959   -3.9188    0.9009 H   0  0  0  0  0  0  0  0  0  0  0  0
   -4.2574   -0.5300   -1.8858 H   0  0  0  0  0  0  0  0  0  0  0  0
   -2.8682    0.5320   -1.9476 H   0  0  0  0  0  0  0  0  0  0  0  0
    2.8522    1.6113   -1.5741 H   0  0  0  0  0  0  0  0  0  0  0  0
    3.8595   -2.2767   -0.0059 H   0  0  0  0  0  0  0  0  0  0  0  0
   -2.9835    2.6949   -0.8301 H   0  0  0  0  0  0  0  0  0  0  0  0
   -5.9650   -0.2726    0.0660 H   0  0  0  0  0  0  0  0  0  0  0  0
    4.9818    2.5009   -0.7470 H   0  0  0  0  0  0  0  0  0  0  0  0
    5.9746   -1.4127    0.8198 H   0  0  0  0  0  0  0  0  0  0  0  0
   -4.3427    4.3289    0.4544 H   0  0  0  0  0  0  0  0  0  0  0  0
   -6.4756    3.5428    1.4959 H   0  0  0  0  0  0  0  0  0  0  0  0
    8.4957    0.5585    1.5502 H   0  0  0  0  0  0  0  0  0  0  0  0
  1  9  1  0  0  0  0
  1 14  1  0  0  0  0
  2 13  2  0  0  0  0
  3 27  1  0  0  0  0
  3 48  1  0  0  0  0
  4 27  2  0  0  0  0
  5 10  1  0  0  0  0
  5 11  1  0  0  0  0
  5 12  1  0  0  0  0
  6  8  1  0  0  0  0
  6 13  1  0  0  0  0
  6 15  1  0  0  0  0
  7 21  1  0  0  0  0
  7 26  2  0  0  0  0
  8  9  1  0  0  0  0
  8 10  1  0  0  0  0
  8 28  1  0  0  0  0
  9 11  1  0  0  0  0
  9 29  1  0  0  0  0
 10 30  1  0  0  0  0
 10 31  1  0  0  0  0
 11 32  1  0  0  0  0
 11 33  1  0  0  0  0
 12 16  1  0  0  0  0
 12 34  1  0  0  0  0
 12 35  1  0  0  0  0
 13 14  1  0  0  0  0
 14 36  1  0  0  0  0
 14 37  1  0  0  0  0
 15 17  1  0  0  0  0
 15 38  1  0  0  0  0
 15 39  1  0  0  0  0
 16 18  2  0  0  0  0
 16 19  1  0  0  0  0
 17 20  1  0  0  0  0
 17 21  2  0  0  0  0
 18 22  1  0  0  0  0
 18 40  1  0  0  0  0
 19 23  2  0  0  0  0
 19 41  1  0  0  0  0
 20 25  2  0  0  0  0
 20 42  1  0  0  0  0
 21 43  1  0  0  0  0
 22 24  2  0  0  0  0
 22 44  1  0  0  0  0
 23 24  1  0  0  0  0
 23 45  1  0  0  0  0
 24 27  1  0  0  0  0
 25 26  1  0  0  0  0
 25 46  1  0  0  0  0
 26 47  1  0  0  0  0
M  END
> <PUBCHEM_COMPOUND_CID>
56775017

> <PUBCHEM_CONFORMER_RMSD>
0.8

> <PUBCHEM_CONFORMER_DIVERSEORDER>
1
23
154
79
102
101
99
115
139
60
169
37
11
121
170
94
89
105
137
173
29
56
43
41
179
123
73
133
166
162
88
142
9
167
57
95
82
149
171
30
106
67
159
100
49
44
70
174
134
144
55
84
21
26
113
13
53
33
150
28
129
38
97
165
27
135
177
172
140
103
126
31
59
148
52
130
178
81
114
47
145
12
132
108
20
7
96
155
25
68
157
128
116
92
5
80
119
104
76
160
85
48
6
83
131
107
42
62
158
22
16
120
51
90
156
153
146
36
124
127
125
163
17
2
164
122
93
138
10
161
69
136
117
75
35
74
87
111
152
176
91
143
86
72
175
54
168
14
50
71
77
8
4
65
78
61
151
46
98
109
147
58
19
39
63
24
34
110
141
66
112
3
40
32
118
64
15
18
45

> <PUBCHEM_MMFF94_PARTIAL_CHARGES>
36
1 -0.56
10 0.27
11 0.27
12 0.41
13 0.57
14 0.34
15 0.44
16 -0.14
17 -0.14
18 -0.15
19 -0.15
2 -0.57
20 -0.15
21 0.16
22 -0.15
23 -0.15
24 0.09
25 -0.15
26 0.16
27 0.63
3 -0.65
4 -0.57
40 0.15
41 0.15
42 0.15
43 0.15
44 0.15
45 0.15
46 0.15
47 0.15
48 0.5
5 -0.81
6 -0.66
7 -0.62
8 0.3
9 0.28

> <PUBCHEM_EFFECTIVE_ROTOR_COUNT>
6.2

> <PUBCHEM_PHARMACOPHORE_FEATURES>
11
1 1 acceptor
1 2 acceptor
1 3 acceptor
1 4 acceptor
1 5 cation
1 7 acceptor
3 3 4 27 anion
5 5 8 9 10 11 rings
6 1 6 8 9 13 14 rings
6 16 18 19 22 23 24 rings
6 7 17 20 21 25 26 rings

> <PUBCHEM_HEAVY_ATOM_COUNT>
27

> <PUBCHEM_ATOM_DEF_STEREO_COUNT>
2

> <PUBCHEM_ATOM_UDEF_STEREO_COUNT>
0

> <PUBCHEM_BOND_DEF_STEREO_COUNT>
0

> <PUBCHEM_BOND_UDEF_STEREO_COUNT>
0

> <PUBCHEM_ISOTOPIC_ATOM_COUNT>
0

> <PUBCHEM_COMPONENT_COUNT>
1

> <PUBCHEM_CACTVS_TAUTO_COUNT>
2

> <PUBCHEM_CONFORMER_ID>
0362516900000001

> <PUBCHEM_MMFF94_ENERGY>
79.2531

> <PUBCHEM_FEATURE_SELFOVERLAP>
56.034

> <PUBCHEM_SHAPE_FINGERPRINT>
10 15 18260555523610150249
10042902 136 9222931682680414873
10087517 78 18409447003398432741
10291535 26 18413674617059326017
10411042 1 17906172103568461243
10554248 39 16128388034631770268
10692045 39 18116430337146114594
10835480 77 18412821404763243204
10883706 163 18260827090050739748
10906281 52 17676783049895977222
11135609 201 18128548055486917841
11315181 36 17749950089219779910
11720765 8 17121713016537188879
12107183 9 18116988893522019986
12403259 118 18338799026280017508
12616971 3 16515407391207650870
12633257 1 17676488375994175500
12838862 33 18261384513377704757
12895836 83 17775563105525648661
12895837 130 18202562908179651397
13073987 5 18334858329003335730
13167372 99 18411135832084481784
13540713 5 17024893672990199582
13668630 136 11819266738384987472
13690498 29 15625357152671844085
13911987 19 16559033791761996183
14251764 30 7781517018900981806
14251764 38 18337959003227776676
14598715 104 17845922022829027192
14739800 52 18339631252954630112
14790565 3 18122066395290157897
15021287 119 16443065010641397436
15183329 4 17967527987285599086
15238133 3 18334583460414060644
16126227 98 18342183233240352945
16993089 31 13768201637255527400
17980427 23 18260270788674018126
19438510 23 18271248222803489505
21130935 74 18334288800030520346
21236236 1 18335984246532918783
21315763 129 18339078319318460812
21424621 283 18339645534037335129
21623969 137 13623526840716216944
21756936 100 18412540995059637439
22122407 14 18339647858010807288
23522609 53 17386588933044800596
23569943 247 16299764496768911274
249057 25 17968098693448914590
2838139 119 18201711856120366644
2916195 48 18340208497039207965
3459 39 18263065635847900441
4073 2 18261396676360895098
445580 125 18334017159526207582
465052 167 12396590619757940194
5104073 3 18040714762348468610
5283173 99 18413671309438603369
5385378 56 18114179675736120098
5969126 39 18199743821144617471
636775 72 18341890831508677792
7226269 152 18342737377719773353
7808743 9 18411137996753150449
8863177 126 10953747715912254172

> <PUBCHEM_SHAPE_MULTIPOLES>
517.23
18.99
3.26
1.15
20.75
0.5
-0.09
14.83
4.87
-5.06
0.97
0.15
-0.11
-0.18

> <PUBCHEM_SHAPE_SELFOVERLAP>
1122.209

> <PUBCHEM_SHAPE_VOLUME>
281.1

> <PUBCHEM_COORDINATE_TYPE>
2
5
10

$$$$
