7127914
  -OEChem-12032416393D

 57 58  0     1  0  0  0  0  0999 V2000
   -6.2799   -1.2294   -0.1988 S   0  0  0  0  0  0  0  0  0  0  0  0
    2.1389   -0.2669    2.0375 O   0  0  0  0  0  0  0  0  0  0  0  0
    0.6134   -3.2105    0.4913 O   0  0  0  0  0  0  0  0  0  0  0  0
    5.0424   -1.6085   -0.7953 O   0  0  0  0  0  0  0  0  0  0  0  0
   -1.1938    0.7541   -2.2124 O   0  0  0  0  0  0  0  0  0  0  0  0
   -7.4434   -0.4040   -0.4757 O   0  0  0  0  0  0  0  0  0  0  0  0
   -5.7886   -2.1710   -1.1902 O   0  0  0  0  0  0  0  0  0  0  0  0
   -3.1858    2.5662    1.7272 O   0  0  0  0  0  0  0  0  0  0  0  0
    3.4348    0.0259   -0.3893 N   0  0  0  0  0  0  0  0  0  0  0  0
    7.0183    0.0504   -0.9360 N   0  0  0  0  0  0  0  0  0  0  0  0
   -2.2055    0.9136   -0.1182 N   0  0  0  0  0  0  0  0  0  0  0  0
   -4.7691    3.4514    0.3184 N   0  0  0  0  0  0  0  0  0  0  0  0
    2.2839   -0.8407   -0.3170 C   0  0  1  0  0  0  0  0  0  0  0  0
    2.0492   -1.3556    1.1160 C   0  0  2  0  0  0  0  0  0  0  0  0
    0.6697   -2.0102    1.2595 C   0  0  1  0  0  0  0  0  0  0  0  0
    5.7200    0.6711   -0.6742 C   0  0  2  0  0  0  0  0  0  0  0  0
   -0.4673   -1.0623    0.8410 C   0  0  0  0  0  0  0  0  0  0  0  0
    5.8520    1.3935    0.6625 C   0  0  0  0  0  0  0  0  0  0  0  0
    7.2715    1.0972    1.1210 C   0  0  0  0  0  0  0  0  0  0  0  0
    1.0950   -0.1194   -0.8920 C   0  0  0  0  0  0  0  0  0  0  0  0
   -0.1314   -0.2210   -0.3576 C   0  0  0  0  0  0  0  0  0  0  0  0
    8.0028    0.8132   -0.1745 C   0  0  0  0  0  0  0  0  0  0  0  0
    4.7202   -0.4359   -0.6233 C   0  0  0  0  0  0  0  0  0  0  0  0
   -1.2154    0.5247   -1.0036 C   0  0  0  0  0  0  0  0  0  0  0  0
   -3.3745    1.6625   -0.5202 C   0  0  1  0  0  0  0  0  0  0  0  0
   -4.5448    0.7468   -0.8867 C   0  0  0  0  0  0  0  0  0  0  0  0
   -4.9471   -0.1678    0.2629 C   0  0  0  0  0  0  0  0  0  0  0  0
   -3.7531    2.5752    0.6374 C   0  0  0  0  0  0  0  0  0  0  0  0
   -6.6123   -2.1427    1.2903 C   0  0  0  0  0  0  0  0  0  0  0  0
    2.4753   -1.7042   -0.9678 H   0  0  0  0  0  0  0  0  0  0  0  0
    2.8398   -2.0680    1.3785 H   0  0  0  0  0  0  0  0  0  0  0  0
    0.5009   -2.2937    2.3056 H   0  0  0  0  0  0  0  0  0  0  0  0
    5.4524    1.3727   -1.4729 H   0  0  0  0  0  0  0  0  0  0  0  0
   -0.6695   -0.4022    1.6932 H   0  0  0  0  0  0  0  0  0  0  0  0
   -1.3703   -1.6522    0.6406 H   0  0  0  0  0  0  0  0  0  0  0  0
    5.7402    2.4737    0.5084 H   0  0  0  0  0  0  0  0  0  0  0  0
    5.1299    1.0859    1.4258 H   0  0  0  0  0  0  0  0  0  0  0  0
    7.2786    0.2108    1.7673 H   0  0  0  0  0  0  0  0  0  0  0  0
    7.7102    1.9303    1.6778 H   0  0  0  0  0  0  0  0  0  0  0  0
    1.2678    0.4861   -1.7790 H   0  0  0  0  0  0  0  0  0  0  0  0
    3.2930    1.0205   -0.2335 H   0  0  0  0  0  0  0  0  0  0  0  0
    8.9206    0.2413   -0.0133 H   0  0  0  0  0  0  0  0  0  0  0  0
    8.2537    1.7447   -0.6953 H   0  0  0  0  0  0  0  0  0  0  0  0
    7.2362    0.0600   -1.9307 H   0  0  0  0  0  0  0  0  0  0  0  0
    1.5497    0.4460    1.7408 H   0  0  0  0  0  0  0  0  0  0  0  0
   -3.1134    2.2870   -1.3830 H   0  0  0  0  0  0  0  0  0  0  0  0
    1.3327   -3.7884    0.7981 H   0  0  0  0  0  0  0  0  0  0  0  0
   -2.1308    0.6949    0.8688 H   0  0  0  0  0  0  0  0  0  0  0  0
   -4.2566    0.1318   -1.7492 H   0  0  0  0  0  0  0  0  0  0  0  0
   -5.4096    1.3362   -1.2129 H   0  0  0  0  0  0  0  0  0  0  0  0
   -5.2882    0.4078    1.1287 H   0  0  0  0  0  0  0  0  0  0  0  0
   -4.1198   -0.8152    0.5700 H   0  0  0  0  0  0  0  0  0  0  0  0
   -7.4334   -2.8338    1.0894 H   0  0  0  0  0  0  0  0  0  0  0  0
   -5.7153   -2.6980    1.5702 H   0  0  0  0  0  0  0  0  0  0  0  0
   -6.8966   -1.4420    2.0774 H   0  0  0  0  0  0  0  0  0  0  0  0
   -5.2010    3.4796   -0.5993 H   0  0  0  0  0  0  0  0  0  0  0  0
   -5.1095    4.1217    0.9998 H   0  0  0  0  0  0  0  0  0  0  0  0
  1  6  2  0  0  0  0
  1  7  2  0  0  0  0
  1 27  1  0  0  0  0
  1 29  1  0  0  0  0
  2 14  1  0  0  0  0
  2 45  1  0  0  0  0
  3 15  1  0  0  0  0
  3 47  1  0  0  0  0
  4 23  2  0  0  0  0
  5 24  2  0  0  0  0
  8 28  2  0  0  0  0
  9 13  1  0  0  0  0
  9 23  1  0  0  0  0
  9 41  1  0  0  0  0
 10 16  1  0  0  0  0
 10 22  1  0  0  0  0
 10 44  1  0  0  0  0
 11 24  1  0  0  0  0
 11 25  1  0  0  0  0
 11 48  1  0  0  0  0
 12 28  1  0  0  0  0
 12 56  1  0  0  0  0
 12 57  1  0  0  0  0
 13 14  1  0  0  0  0
 13 20  1  0  0  0  0
 13 30  1  0  0  0  0
 14 15  1  0  0  0  0
 14 31  1  0  0  0  0
 15 17  1  0  0  0  0
 15 32  1  0  0  0  0
 16 18  1  0  0  0  0
 16 23  1  0  0  0  0
 16 33  1  0  0  0  0
 17 21  1  0  0  0  0
 17 34  1  0  0  0  0
 17 35  1  0  0  0  0
 18 19  1  0  0  0  0
 18 36  1  0  0  0  0
 18 37  1  0  0  0  0
 19 22  1  0  0  0  0
 19 38  1  0  0  0  0
 19 39  1  0  0  0  0
 20 21  2  0  0  0  0
 20 40  1  0  0  0  0
 21 24  1  0  0  0  0
 22 42  1  0  0  0  0
 22 43  1  0  0  0  0
 25 26  1  0  0  0  0
 25 28  1  0  0  0  0
 25 46  1  0  0  0  0
 26 27  1  0  0  0  0
 26 49  1  0  0  0  0
 26 50  1  0  0  0  0
 27 51  1  0  0  0  0
 27 52  1  0  0  0  0
 29 53  1  0  0  0  0
 29 54  1  0  0  0  0
 29 55  1  0  0  0  0
M  END
> <PUBCHEM_COMPOUND_CID>
7127914

> <PUBCHEM_CONFORMER_RMSD>
1

> <PUBCHEM_CONFORMER_DIVERSEORDER>
1
392
19
72
94
384
266
380
45
262
242
336
253
333
361
317
431
356
310
65
213
6
86
326
110
161
363
63
252
204
84
16
119
382
425
153
171
85
295
285
420
31
91
376
374
227
309
279
351
66
283
417
250
177
192
419
304
305
81
412
147
410
428
249
22
359
79
201
432
137
57
144
237
414
426
224
140
344
117
101
339
131
416
104
48
18
145
415
120
180
247
212
71
401
162
36
418
334
396
196
139
286
89
329
23
206
109
251
195
61
44
256
290
142
216
348
288
436
215
321
296
340
135
68
52
156
207
29
320
200
134
146
372
125
330
245
375
308
47
389
220
186
93
272
102
233
325
21
413
219
42
369
269
38
194
157
366
122
211
407
223
43
390
46
287
291
188
284
20
83
364
198
399
228
411
347
387
7
386
260
297
406
199
174
193
331
337
133
35
106
170
159
307
302
127
141
429
105
388
394
111
191
225
403
118
383
400
187
2
124
152
218
230
282
313
56
92
358
318
150
37
240
169
280
294
430
77
149
54
11
217
303
239
371
173
271
273
349
55
95
343
59
178
78
393
76
373
338
82
28
99
381
151
203
67
397
341
10
202
427
88
433
90
402
113
166
210
378
60
365
87
49
75
267
234
222
26
165
404
32
367
261
236
97
41
292
352
158
300
126
50
293
13
244
129
323
385
422
163
58
189
107
316
168
346
184
164
259
424
398
322
405
34
123
208
175
435
143
155
27
12
39
324
265
8
354
121
182
4
270
277
209
25
130
391
17
9
114
335
395
167
258
243
299
197
353
263
69
80
350
100
327
24
276
160
205
70
15
370
190
73
154
268
3
74
408
108
172
281
264
51
360
306
231
328
14
30
368
238
298
103
226
409
248
314
176
377
319
62
315
185
179
274
332
5
355
116
53
115
362
275
138
254
421
255
423
221
342
128
232
132
136
246
434
257
40
214
235
33
181
357
278
289
311
379
98
312
229
301
64
345
241
183
148
112
96

> <PUBCHEM_MMFF94_PARTIAL_CHARGES>
34
1 1.09
10 -0.9
11 -0.73
12 -0.8
13 0.44
14 0.28
15 0.28
16 0.33
17 0.14
2 -0.68
20 -0.29
21 -0.12
22 0.27
23 0.57
24 0.62
25 0.36
27 0.11
28 0.57
29 0.11
3 -0.68
4 -0.57
40 0.15
41 0.37
44 0.36
45 0.4
47 0.4
48 0.37
5 -0.57
56 0.37
57 0.37
6 -0.65
7 -0.65
8 -0.57
9 -0.73

> <PUBCHEM_EFFECTIVE_ROTOR_COUNT>
11.8

> <PUBCHEM_PHARMACOPHORE_FEATURES>
16
1 10 cation
1 10 donor
1 11 donor
1 12 donor
1 2 acceptor
1 2 donor
1 3 acceptor
1 3 donor
1 4 acceptor
1 5 acceptor
1 6 acceptor
1 7 acceptor
1 8 acceptor
1 9 donor
5 10 16 18 19 22 rings
6 13 14 15 17 20 21 rings

> <PUBCHEM_HEAVY_ATOM_COUNT>
29

> <PUBCHEM_ATOM_DEF_STEREO_COUNT>
5

> <PUBCHEM_ATOM_UDEF_STEREO_COUNT>
0

> <PUBCHEM_BOND_DEF_STEREO_COUNT>
0

> <PUBCHEM_BOND_UDEF_STEREO_COUNT>
0

> <PUBCHEM_ISOTOPIC_ATOM_COUNT>
0

> <PUBCHEM_COMPONENT_COUNT>
1

> <PUBCHEM_CACTVS_TAUTO_COUNT>
8

> <PUBCHEM_CONFORMER_ID>
006CC36A00000001

> <PUBCHEM_MMFF94_ENERGY>
46.9369

> <PUBCHEM_FEATURE_SELFOVERLAP>
81.226

> <PUBCHEM_SHAPE_FINGERPRINT>
10674148 151 12175627270030436622
12596602 18 18341332193211291177
13073987 5 18342458106408814958
13631057 29 18408885161968449783
13690498 29 15840402947877629948
13947920 75 18261106422017552195
1454969 45 17967247624215028503
14856354 85 18059855116836693175
15183329 4 15051729772739110144
18335252 98 18343024406278958798
18608769 82 18129939091275308278
20511986 3 17895748484085811373
21424621 283 18412826855288030936
21521721 280 17203326754100322798
21792961 116 16702026336149190254
22079108 93 18408037433881237900
22224240 67 17821727247736623876
23559900 14 18261668264507454541
23569917 315 18040158409697546338
24771293 8 18113344107018055380
34797466 226 17346604092988644380
4098825 35 18060423487112551542
4258327 124 17677628630019448420
4325135 7 18408884057402219295
5104073 3 18041844995607910898

> <PUBCHEM_SHAPE_MULTIPOLES>
539.65
21.21
2.73
1.45
12.14
0.54
0.16
2.05
-0.32
-4.27
0.98
-0.12
0.06
-0.02

> <PUBCHEM_SHAPE_SELFOVERLAP>
1095.434

> <PUBCHEM_SHAPE_VOLUME>
314.6

> <PUBCHEM_COORDINATE_TYPE>
2
5
10

$$$$
