51137041
  -OEChem-12032416293D

 42 45  0     1  0  0  0  0  0999 V2000
   -6.9666    0.0049    1.6725 F   0  0  0  0  0  0  0  0  0  0  0  0
   -7.2600   -1.3194   -0.0270 F   0  0  0  0  0  0  0  0  0  0  0  0
   -7.5798    0.8207   -0.2413 F   0  0  0  0  0  0  0  0  0  0  0  0
   -0.3114   -0.2223   -0.2870 N   0  0  1  0  0  0  0  0  0  0  0  0
    4.3030   -1.4072    0.2298 N   0  0  0  0  0  0  0  0  0  0  0  0
    3.7856    0.7543    0.0871 N   0  0  0  0  0  0  0  0  0  0  0  0
    6.0556    1.5879   -0.1269 N   0  0  0  0  0  0  0  0  0  0  0  0
    1.8561   -0.8582    0.3432 C   0  0  1  0  0  0  0  0  0  0  0  0
    1.1250   -0.2524    1.5539 C   0  0  0  0  0  0  0  0  0  0  0  0
    1.0151   -0.4368   -0.8693 C   0  0  0  0  0  0  0  0  0  0  0  0
   -0.0628    0.4961    0.9629 C   0  0  0  0  0  0  0  0  0  0  0  0
    3.3099   -0.4650    0.2173 C   0  0  0  0  0  0  0  0  0  0  0  0
   -1.1980    0.5094   -1.1797 C   0  0  0  0  0  0  0  0  0  0  0  0
   -2.6432    0.3507   -0.7884 C   0  0  0  0  0  0  0  0  0  0  0  0
    5.4966   -0.7511    0.0993 C   0  0  0  0  0  0  0  0  0  0  0  0
    5.1460    0.5915    0.0127 C   0  0  0  0  0  0  0  0  0  0  0  0
   -3.3184   -0.8343   -1.0805 C   0  0  0  0  0  0  0  0  0  0  0  0
   -3.3067    1.3882   -0.1332 C   0  0  0  0  0  0  0  0  0  0  0  0
    6.8213   -1.1710    0.0477 C   0  0  0  0  0  0  0  0  0  0  0  0
   -4.6570   -0.9821   -0.7177 C   0  0  0  0  0  0  0  0  0  0  0  0
   -4.6454    1.2406    0.2296 C   0  0  0  0  0  0  0  0  0  0  0  0
   -5.3205    0.0556   -0.0626 C   0  0  0  0  0  0  0  0  0  0  0  0
    7.7666   -0.1589   -0.0954 C   0  0  0  0  0  0  0  0  0  0  0  0
    7.3400    1.1625   -0.1751 C   0  0  0  0  0  0  0  0  0  0  0  0
   -6.7509   -0.1037    0.3281 C   0  0  0  0  0  0  0  0  0  0  0  0
    1.7984   -1.9522    0.4400 H   0  0  0  0  0  0  0  0  0  0  0  0
    0.7737   -1.0600    2.2083 H   0  0  0  0  0  0  0  0  0  0  0  0
    1.7552    0.4115    2.1551 H   0  0  0  0  0  0  0  0  0  0  0  0
    1.0007   -1.2206   -1.6344 H   0  0  0  0  0  0  0  0  0  0  0  0
    1.4048    0.4825   -1.3267 H   0  0  0  0  0  0  0  0  0  0  0  0
   -0.9202    0.4695    1.6426 H   0  0  0  0  0  0  0  0  0  0  0  0
    0.2135    1.5436    0.7864 H   0  0  0  0  0  0  0  0  0  0  0  0
   -0.9254    1.5708   -1.2550 H   0  0  0  0  0  0  0  0  0  0  0  0
   -1.1029    0.1168   -2.2021 H   0  0  0  0  0  0  0  0  0  0  0  0
    4.1793   -2.4072    0.3192 H   0  0  0  0  0  0  0  0  0  0  0  0
   -2.8122   -1.6499   -1.5903 H   0  0  0  0  0  0  0  0  0  0  0  0
   -2.7917    2.3158    0.1019 H   0  0  0  0  0  0  0  0  0  0  0  0
    7.1021   -2.2148    0.1143 H   0  0  0  0  0  0  0  0  0  0  0  0
   -5.1646   -1.9132   -0.9539 H   0  0  0  0  0  0  0  0  0  0  0  0
   -5.1537    2.0540    0.7406 H   0  0  0  0  0  0  0  0  0  0  0  0
    8.8238   -0.3989   -0.1442 H   0  0  0  0  0  0  0  0  0  0  0  0
    8.0713    1.9586   -0.2869 H   0  0  0  0  0  0  0  0  0  0  0  0
  1 25  1  0  0  0  0
  2 25  1  0  0  0  0
  3 25  1  0  0  0  0
  4 10  1  0  0  0  0
  4 11  1  0  0  0  0
  4 13  1  0  0  0  0
  5 12  1  0  0  0  0
  5 15  1  0  0  0  0
  5 35  1  0  0  0  0
  6 12  2  0  0  0  0
  6 16  1  0  0  0  0
  7 16  1  0  0  0  0
  7 24  2  0  0  0  0
  8  9  1  0  0  0  0
  8 10  1  0  0  0  0
  8 12  1  0  0  0  0
  8 26  1  0  0  0  0
  9 11  1  0  0  0  0
  9 27  1  0  0  0  0
  9 28  1  0  0  0  0
 10 29  1  0  0  0  0
 10 30  1  0  0  0  0
 11 31  1  0  0  0  0
 11 32  1  0  0  0  0
 13 14  1  0  0  0  0
 13 33  1  0  0  0  0
 13 34  1  0  0  0  0
 14 17  2  0  0  0  0
 14 18  1  0  0  0  0
 15 16  2  0  0  0  0
 15 19  1  0  0  0  0
 17 20  1  0  0  0  0
 17 36  1  0  0  0  0
 18 21  2  0  0  0  0
 18 37  1  0  0  0  0
 19 23  2  0  0  0  0
 19 38  1  0  0  0  0
 20 22  2  0  0  0  0
 20 39  1  0  0  0  0
 21 22  1  0  0  0  0
 21 40  1  0  0  0  0
 22 25  1  0  0  0  0
 23 24  1  0  0  0  0
 23 41  1  0  0  0  0
 24 42  1  0  0  0  0
M  END
> <PUBCHEM_COMPOUND_CID>
51137041

> <PUBCHEM_CONFORMER_RMSD>
0.8

> <PUBCHEM_CONFORMER_DIVERSEORDER>
1
15
47
49
28
53
44
40
33
20
39
37
52
42
43
7
3
30
31
38
9
41
21
36
2
29
34
35
12
22
45
14
50
4
17
51
25
10
18
48
13
46
6
19
11
8
5
16
32
24
26
27
23

> <PUBCHEM_MMFF94_PARTIAL_CHARGES>
32
1 -0.34
10 0.27
11 0.27
12 0.01
13 0.41
14 -0.14
15 -0.15
16 0.48
17 -0.15
18 -0.15
19 -0.15
2 -0.34
20 -0.15
21 -0.15
22 -0.14
23 -0.15
24 0.16
25 1.16
3 -0.34
35 0.27
36 0.15
37 0.15
38 0.15
39 0.15
4 -0.81
40 0.15
41 0.15
42 0.15
5 0.03
6 -0.57
7 -0.57
8 0.18

> <PUBCHEM_EFFECTIVE_ROTOR_COUNT>
5

> <PUBCHEM_PHARMACOPHORE_FEATURES>
8
1 4 cation
1 5 donor
1 7 acceptor
3 5 6 12 cation
5 4 8 9 10 11 rings
5 5 6 12 15 16 rings
6 14 17 18 20 21 22 rings
6 7 15 16 19 23 24 rings

> <PUBCHEM_HEAVY_ATOM_COUNT>
25

> <PUBCHEM_ATOM_DEF_STEREO_COUNT>
1

> <PUBCHEM_ATOM_UDEF_STEREO_COUNT>
0

> <PUBCHEM_BOND_DEF_STEREO_COUNT>
0

> <PUBCHEM_BOND_UDEF_STEREO_COUNT>
0

> <PUBCHEM_ISOTOPIC_ATOM_COUNT>
0

> <PUBCHEM_COMPONENT_COUNT>
1

> <PUBCHEM_CACTVS_TAUTO_COUNT>
3

> <PUBCHEM_CONFORMER_ID>
030C4A1100000001

> <PUBCHEM_MMFF94_ENERGY>
47.7503

> <PUBCHEM_FEATURE_SELFOVERLAP>
40.726

> <PUBCHEM_SHAPE_FINGERPRINT>
10 15 18343303665352848239
10299344 5 18201718461558203455
10595046 47 18410571752237981720
106641 1 18334017216199260019
10670039 82 10231764362501572439
10968037 39 18260264153698449207
11315181 36 18410012131475259873
11524674 6 15769772485667431079
11638347 137 16081080464673191952
11646440 116 17095527288296762884
12166972 35 18333169466928232460
12236239 1 18201717345647116420
12516196 113 16732701644758214485
12730499 353 18040714745690728082
12838862 33 16081357588637008739
13533116 47 17023173874523580338
14123256 10 16950281801776572098
14170010 4 18113900485813736684
14251764 18 17846495941701316063
14251764 46 18410573976561529543
14849402 71 18337394962727624188
14856354 85 17703791444545454653
14933364 13 18413107255979390612
15142383 8 15913327983759596274
15183329 4 15841556275239466602
15419008 47 16008741429116387820
15461852 350 13551197692690825883
15716309 27 18409728452262389615
17093844 174 13758066407637202799
18006028 8 10303815384669572082
18335252 98 18408327691918856531
20157964 124 18407760340277642538
20281389 69 18202279199962267456
21095086 128 18412824689806946551
21267235 1 18410857654914673836
21315763 28 18409165485577342472
21521721 280 18334015016653830322
21792961 116 17417531311436447444
220451 1 17704066292013458022
22224240 67 16587743148786504344
22956985 138 13986597589089464976
23035841 295 18202562877966855531
23516275 137 18057625203734255747
23522609 53 17916885615255243985
23536379 177 18342173350256444518
23569943 247 17171229613162714058
2747138 104 17385449825195864308
28498 318 11815904448748758500
335352 9 15697994154313082705
34797466 226 18343869918289081876
4073 2 18187930620512215698
4325135 7 18408885139686524412
4339292 15 11311473816316722509
5283156 175 17275107207273937862
5385378 56 15626235584709706007
5758199 1 17749108880924428882
59682541 35 17095527330982665248
5969126 39 15864063274529739815
59755656 215 13758363258148537572
59755656 520 18333726939959658958

> <PUBCHEM_SHAPE_MULTIPOLES>
472.74
23.93
1.29
1.03
0.12
0.11
-0.17
0.61
-1.28
-0.5
0.07
0.85
-0.04
-0.45

> <PUBCHEM_SHAPE_SELFOVERLAP>
1040.037

> <PUBCHEM_SHAPE_VOLUME>
259.2

> <PUBCHEM_COORDINATE_TYPE>
2
5
10

$$$$
