25313130
  -OEChem-12032416193D

 65 68  0     1  0  0  0  0  0999 V2000
    0.2909    5.4236    1.0814 F   0  0  0  0  0  0  0  0  0  0  0  0
   -3.8073    2.1347   -2.2775 O   0  0  0  0  0  0  0  0  0  0  0  0
   -3.5229   -5.7431    0.2614 O   0  0  0  0  0  0  0  0  0  0  0  0
   -5.2923   -4.3126    0.3219 O   0  0  0  0  0  0  0  0  0  0  0  0
   -3.7589    0.7321   -0.4055 N   0  0  0  0  0  0  0  0  0  0  0  0
    1.1169   -0.4063    0.4493 N   0  0  0  0  0  0  0  0  0  0  0  0
    3.9453   -0.6759    0.1544 N   0  0  0  0  0  0  0  0  0  0  0  0
   -2.6066   -1.0005    0.9530 C   0  0  2  0  0  0  0  0  0  0  0  0
   -3.5951   -2.0494    0.3826 C   0  0  1  0  0  0  0  0  0  0  0  0
   -3.2547    0.3960    0.9335 C   0  0  0  0  0  0  0  0  0  0  0  0
   -4.1305   -1.6305   -0.9971 C   0  0  0  0  0  0  0  0  0  0  0  0
   -1.2507   -0.9685    0.2364 C   0  0  0  0  0  0  0  0  0  0  0  0
   -4.7182   -0.2226   -0.9577 C   0  0  0  0  0  0  0  0  0  0  0  0
   -0.1608   -0.4436    1.1599 C   0  0  0  0  0  0  0  0  0  0  0  0
   -3.0088   -3.4599    0.3274 C   0  0  0  0  0  0  0  0  0  0  0  0
    1.7398   -1.7354    0.4395 C   0  0  0  0  0  0  0  0  0  0  0  0
    2.0241    0.5658    1.0719 C   0  0  0  0  0  0  0  0  0  0  0  0
    3.0513   -1.7228   -0.3498 C   0  0  0  0  0  0  0  0  0  0  0  0
    3.3442    0.6556    0.3030 C   0  0  0  0  0  0  0  0  0  0  0  0
   -3.3921    1.8526   -1.1546 C   0  0  0  0  0  0  0  0  0  0  0  0
   -4.0864   -4.5085    0.3049 C   0  0  0  0  0  0  0  0  0  0  0  0
   -2.4266    2.7886   -0.5680 C   0  0  0  0  0  0  0  0  0  0  0  0
    5.3185   -0.7523   -0.1036 C   0  0  0  0  0  0  0  0  0  0  0  0
   -1.0603    2.6064   -0.7825 C   0  0  0  0  0  0  0  0  0  0  0  0
   -2.8746    3.8607    0.2036 C   0  0  0  0  0  0  0  0  0  0  0  0
    5.7764   -1.3702   -1.2673 C   0  0  0  0  0  0  0  0  0  0  0  0
    6.2293   -0.2074    0.8014 C   0  0  0  0  0  0  0  0  0  0  0  0
   -0.1421    3.4962   -0.2253 C   0  0  0  0  0  0  0  0  0  0  0  0
   -1.9563    4.7505    0.7611 C   0  0  0  0  0  0  0  0  0  0  0  0
    7.1452   -1.4433   -1.5260 C   0  0  0  0  0  0  0  0  0  0  0  0
    7.5981   -0.2802    0.5426 C   0  0  0  0  0  0  0  0  0  0  0  0
   -0.5901    4.5682    0.5467 C   0  0  0  0  0  0  0  0  0  0  0  0
    8.0559   -0.8983   -0.6210 C   0  0  0  0  0  0  0  0  0  0  0  0
   -2.4332   -1.2704    2.0041 H   0  0  0  0  0  0  0  0  0  0  0  0
   -4.4534   -2.0591    1.0708 H   0  0  0  0  0  0  0  0  0  0  0  0
   -4.1238    0.4063    1.6036 H   0  0  0  0  0  0  0  0  0  0  0  0
   -2.5696    1.1548    1.3138 H   0  0  0  0  0  0  0  0  0  0  0  0
   -4.8999   -2.3261   -1.3488 H   0  0  0  0  0  0  0  0  0  0  0  0
   -3.3168   -1.6583   -1.7331 H   0  0  0  0  0  0  0  0  0  0  0  0
   -1.3025   -0.3806   -0.6857 H   0  0  0  0  0  0  0  0  0  0  0  0
   -0.9796   -1.9792   -0.0763 H   0  0  0  0  0  0  0  0  0  0  0  0
   -5.0285    0.0762   -1.9642 H   0  0  0  0  0  0  0  0  0  0  0  0
   -5.6098   -0.1974   -0.3201 H   0  0  0  0  0  0  0  0  0  0  0  0
   -0.0930   -1.0402    2.0790 H   0  0  0  0  0  0  0  0  0  0  0  0
   -0.4366    0.5699    1.4725 H   0  0  0  0  0  0  0  0  0  0  0  0
   -2.3865   -3.5967   -0.5638 H   0  0  0  0  0  0  0  0  0  0  0  0
   -2.4014   -3.6443    1.2214 H   0  0  0  0  0  0  0  0  0  0  0  0
    1.0865   -2.4795   -0.0277 H   0  0  0  0  0  0  0  0  0  0  0  0
    1.9383   -2.0777    1.4645 H   0  0  0  0  0  0  0  0  0  0  0  0
    2.2267    0.2876    2.1153 H   0  0  0  0  0  0  0  0  0  0  0  0
    1.5710    1.5617    1.0881 H   0  0  0  0  0  0  0  0  0  0  0  0
    3.5168   -2.7114   -0.2502 H   0  0  0  0  0  0  0  0  0  0  0  0
    2.8382   -1.5524   -1.4130 H   0  0  0  0  0  0  0  0  0  0  0  0
    3.1723    1.0866   -0.6919 H   0  0  0  0  0  0  0  0  0  0  0  0
    4.0056    1.3432    0.8423 H   0  0  0  0  0  0  0  0  0  0  0  0
   -4.1994   -6.4534    0.2454 H   0  0  0  0  0  0  0  0  0  0  0  0
   -0.6982    1.7853   -1.3945 H   0  0  0  0  0  0  0  0  0  0  0  0
   -3.9369    4.0117    0.3773 H   0  0  0  0  0  0  0  0  0  0  0  0
    5.0958   -1.7921   -2.0012 H   0  0  0  0  0  0  0  0  0  0  0  0
    5.8937    0.2659    1.7205 H   0  0  0  0  0  0  0  0  0  0  0  0
    0.9208    3.3629   -0.4021 H   0  0  0  0  0  0  0  0  0  0  0  0
   -2.3047    5.5852    1.3622 H   0  0  0  0  0  0  0  0  0  0  0  0
    7.5020   -1.9215   -2.4335 H   0  0  0  0  0  0  0  0  0  0  0  0
    8.3076    0.1414    1.2486 H   0  0  0  0  0  0  0  0  0  0  0  0
    9.1216   -0.9551   -0.8225 H   0  0  0  0  0  0  0  0  0  0  0  0
  1 32  1  0  0  0  0
  2 20  2  0  0  0  0
  3 21  1  0  0  0  0
  3 56  1  0  0  0  0
  4 21  2  0  0  0  0
  5 10  1  0  0  0  0
  5 13  1  0  0  0  0
  5 20  1  0  0  0  0
  6 14  1  0  0  0  0
  6 16  1  0  0  0  0
  6 17  1  0  0  0  0
  7 18  1  0  0  0  0
  7 19  1  0  0  0  0
  7 23  1  0  0  0  0
  8  9  1  0  0  0  0
  8 10  1  0  0  0  0
  8 12  1  0  0  0  0
  8 34  1  0  0  0  0
  9 11  1  0  0  0  0
  9 15  1  0  0  0  0
  9 35  1  0  0  0  0
 10 36  1  0  0  0  0
 10 37  1  0  0  0  0
 11 13  1  0  0  0  0
 11 38  1  0  0  0  0
 11 39  1  0  0  0  0
 12 14  1  0  0  0  0
 12 40  1  0  0  0  0
 12 41  1  0  0  0  0
 13 42  1  0  0  0  0
 13 43  1  0  0  0  0
 14 44  1  0  0  0  0
 14 45  1  0  0  0  0
 15 21  1  0  0  0  0
 15 46  1  0  0  0  0
 15 47  1  0  0  0  0
 16 18  1  0  0  0  0
 16 48  1  0  0  0  0
 16 49  1  0  0  0  0
 17 19  1  0  0  0  0
 17 50  1  0  0  0  0
 17 51  1  0  0  0  0
 18 52  1  0  0  0  0
 18 53  1  0  0  0  0
 19 54  1  0  0  0  0
 19 55  1  0  0  0  0
 20 22  1  0  0  0  0
 22 24  2  0  0  0  0
 22 25  1  0  0  0  0
 23 26  2  0  0  0  0
 23 27  1  0  0  0  0
 24 28  1  0  0  0  0
 24 57  1  0  0  0  0
 25 29  2  0  0  0  0
 25 58  1  0  0  0  0
 26 30  1  0  0  0  0
 26 59  1  0  0  0  0
 27 31  2  0  0  0  0
 27 60  1  0  0  0  0
 28 32  2  0  0  0  0
 28 61  1  0  0  0  0
 29 32  1  0  0  0  0
 29 62  1  0  0  0  0
 30 33  2  0  0  0  0
 30 63  1  0  0  0  0
 31 33  1  0  0  0  0
 31 64  1  0  0  0  0
 33 65  1  0  0  0  0
M  END
> <PUBCHEM_COMPOUND_CID>
25313130

> <PUBCHEM_CONFORMER_RMSD>
1

> <PUBCHEM_CONFORMER_DIVERSEORDER>
1
19
99
48
73
97
81
61
26
95
69
87
44
75
53
83
113
109
36
77
57
106
22
63
21
65
54
67
31
111
4
116
33
68
82
58
62
16
51
13
34
56
18
114
59
35
50
91
29
52
100
20
30
12
78
102
45
72
103
79
101
104
66
10
8
60
32
74
90
27
42
107
110
41
94
23
92
47
64
43
105
9
55
84
49
24
112
28
70
40
89
98
76
15
11
46
96
7
38
108
6
14
80
2
71
115
86
5
85
25
88
17
93
3
39
37

> <PUBCHEM_MMFF94_PARTIAL_CHARGES>
39
1 -0.19
10 0.3
13 0.3
14 0.27
15 0.06
16 0.27
17 0.27
18 0.37
19 0.37
2 -0.57
20 0.54
21 0.66
22 0.09
23 0.1
24 -0.15
25 -0.15
26 -0.15
27 -0.15
28 -0.15
29 -0.15
3 -0.65
30 -0.15
31 -0.15
32 0.19
33 -0.15
4 -0.57
5 -0.66
56 0.5
57 0.15
58 0.15
59 0.15
6 -0.81
60 0.15
61 0.15
62 0.15
63 0.15
64 0.15
65 0.15
7 -0.84

> <PUBCHEM_EFFECTIVE_ROTOR_COUNT>
10.4

> <PUBCHEM_PHARMACOPHORE_FEATURES>
10
1 2 acceptor
1 3 acceptor
1 4 acceptor
1 6 cation
1 7 cation
3 3 4 21 anion
6 22 24 25 28 29 32 rings
6 23 26 27 30 31 33 rings
6 5 8 9 10 11 13 rings
6 6 7 16 17 18 19 rings

> <PUBCHEM_HEAVY_ATOM_COUNT>
33

> <PUBCHEM_ATOM_DEF_STEREO_COUNT>
2

> <PUBCHEM_ATOM_UDEF_STEREO_COUNT>
0

> <PUBCHEM_BOND_DEF_STEREO_COUNT>
0

> <PUBCHEM_BOND_UDEF_STEREO_COUNT>
0

> <PUBCHEM_ISOTOPIC_ATOM_COUNT>
0

> <PUBCHEM_COMPONENT_COUNT>
1

> <PUBCHEM_CACTVS_TAUTO_COUNT>
1

> <PUBCHEM_CONFORMER_ID>
01823F6A00000001

> <PUBCHEM_MMFF94_ENERGY>
93.1029

> <PUBCHEM_FEATURE_SELFOVERLAP>
50.806

> <PUBCHEM_SHAPE_FINGERPRINT>
10290309 65 17973718083215525271
10411042 1 18265898145304808579
10454371 7 18337961087104475956
10816530 145 18342189855541535473
11049842 53 17617358602967724618
11434127 23 18270396084043568222
11445158 3 16701736172422361416
11756154 67 18337114561845574163
12788726 201 18261105227884171459
13690498 29 18409452526357740086
13782708 43 18060419093667196454
13911987 19 18117825613613060925
14068700 675 18186802525902906654
14856354 85 18341615893313065924
15064981 194 18335150764826380341
15183329 4 17749112154575958950
15324884 4 17984673835727926521
15400415 2 17762056537118732512
15419008 47 18130784586105738128
15876981 60 18333739038897616382
15968369 153 18129931374158567964
16114785 44 18055928593378895113
17686467 74 18268707381019086024
19958102 18 18120372047829602902
20101258 96 18335990882268090387
20775438 99 17546396458504506191
22956985 138 17831862721867390375
23559900 14 18122897896758999235
255183 451 18050004695195624799
3383291 50 18410294667034794009
57527452 28 15984523591173823061

> <PUBCHEM_SHAPE_MULTIPOLES>
639.3
16.45
7.1
1.25
40.41
1.71
-0.37
-11.82
-4.2
-14.27
1.45
-0.05
0.36
1.8

> <PUBCHEM_SHAPE_SELFOVERLAP>
1353.342

> <PUBCHEM_SHAPE_VOLUME>
356.7

> <PUBCHEM_COORDINATE_TYPE>
2
5
10

$$$$
