11882024
  -OEChem-12032416343D

 71 75  0     1  0  0  0  0  0999 V2000
    2.7641   -1.9292   -2.4879 F   0  0  0  0  0  0  0  0  0  0  0  0
    6.7543   -3.4315   -0.4380 F   0  0  0  0  0  0  0  0  0  0  0  0
   -2.1654    1.1207   -0.8145 O   0  0  0  0  0  0  0  0  0  0  0  0
   -5.1420    1.1229   -0.0817 O   0  0  0  0  0  0  0  0  0  0  0  0
    0.9402   -2.3508    2.2216 O   0  0  0  0  0  0  0  0  0  0  0  0
   -2.0317    4.9226    0.3652 O   0  0  0  0  0  0  0  0  0  0  0  0
   -3.6217   -0.3645    0.8120 N   0  0  0  0  0  0  0  0  0  0  0  0
   -0.6997   -1.6131    0.7681 N   0  0  0  0  0  0  0  0  0  0  0  0
   -1.1991    2.3590    0.9036 N   0  0  0  0  0  0  0  0  0  0  0  0
   -5.9018   -1.3784   -1.6775 N   0  0  0  0  0  0  0  0  0  0  0  0
    1.4039   -2.0325   -0.0575 N   0  0  0  0  0  0  0  0  0  0  0  0
    3.2029    0.8753    1.5857 N   0  0  0  0  0  0  0  0  0  0  0  0
   -0.8259    4.8658   -1.5890 N   0  0  0  0  0  0  0  0  0  0  0  0
   -1.7564   -1.5121    1.7424 C   0  0  1  0  0  0  0  0  0  0  0  0
   -2.7919    0.6530    1.4414 C   0  0  1  0  0  0  0  0  0  0  0  0
   -1.8475   -0.1154    2.3637 C   0  0  0  0  0  0  0  0  0  0  0  0
   -3.1293   -1.7117    1.1090 C   0  0  0  0  0  0  0  0  0  0  0  0
   -2.0374    1.3915    0.3766 C   0  0  0  0  0  0  0  0  0  0  0  0
   -4.7970   -0.0407    0.1283 C   0  0  0  0  0  0  0  0  0  0  0  0
   -0.3458    3.1941    0.0896 C   0  0  2  0  0  0  0  0  0  0  0  0
   -5.5929   -1.1593   -0.3603 C   0  0  0  0  0  0  0  0  0  0  0  0
    0.5985   -2.0338    1.0847 C   0  0  0  0  0  0  0  0  0  0  0  0
    0.9099    3.6507    0.8430 C   0  0  0  0  0  0  0  0  0  0  0  0
    1.9770    2.5953    0.9033 C   0  0  0  0  0  0  0  0  0  0  0  0
   -6.1655   -2.1692    0.3810 C   0  0  0  0  0  0  0  0  0  0  0  0
   -1.1746    4.3959   -0.3403 C   0  0  0  0  0  0  0  0  0  0  0  0
    3.0232    2.3927   -0.0398 C   0  0  0  0  0  0  0  0  0  0  0  0
   -6.6622   -2.5133   -1.7881 C   0  0  0  0  0  0  0  0  0  0  0  0
   -6.8422   -3.0257   -0.5224 C   0  0  0  0  0  0  0  0  0  0  0  0
   -5.4955   -0.5506   -2.7918 C   0  0  0  0  0  0  0  0  0  0  0  0
    2.1141    1.6471    1.8908 C   0  0  0  0  0  0  0  0  0  0  0  0
    3.7777    1.3078    0.4119 C   0  0  0  0  0  0  0  0  0  0  0  0
    2.7688   -2.3899   -0.1578 C   0  0  0  0  0  0  0  0  0  0  0  0
    3.4019    3.0301   -1.2380 C   0  0  0  0  0  0  0  0  0  0  0  0
    4.8964    0.8264   -0.2776 C   0  0  0  0  0  0  0  0  0  0  0  0
    4.5186    2.5596   -1.9383 C   0  0  0  0  0  0  0  0  0  0  0  0
    5.2530    1.4746   -1.4636 C   0  0  0  0  0  0  0  0  0  0  0  0
    3.4212   -2.3268   -1.3891 C   0  0  0  0  0  0  0  0  0  0  0  0
    3.4625   -2.8053    0.9787 C   0  0  0  0  0  0  0  0  0  0  0  0
    4.7674   -2.6790   -1.4839 C   0  0  0  0  0  0  0  0  0  0  0  0
    4.8088   -3.1576    0.8838 C   0  0  0  0  0  0  0  0  0  0  0  0
    5.4613   -3.0946   -0.3474 C   0  0  0  0  0  0  0  0  0  0  0  0
   -3.4211    1.3652    1.9874 H   0  0  0  0  0  0  0  0  0  0  0  0
   -1.5734   -2.2690    2.5131 H   0  0  0  0  0  0  0  0  0  0  0  0
   -2.3236   -0.2051    3.3489 H   0  0  0  0  0  0  0  0  0  0  0  0
   -0.8674    0.3458    2.5141 H   0  0  0  0  0  0  0  0  0  0  0  0
   -3.8093   -2.1537    1.8443 H   0  0  0  0  0  0  0  0  0  0  0  0
   -3.1201   -2.3297    0.2059 H   0  0  0  0  0  0  0  0  0  0  0  0
   -0.8859   -1.3026   -0.1807 H   0  0  0  0  0  0  0  0  0  0  0  0
   -1.2400    2.5537    1.9001 H   0  0  0  0  0  0  0  0  0  0  0  0
   -0.0689    2.6237   -0.8065 H   0  0  0  0  0  0  0  0  0  0  0  0
    1.3328    4.5416    0.3605 H   0  0  0  0  0  0  0  0  0  0  0  0
    0.6502    3.9642    1.8632 H   0  0  0  0  0  0  0  0  0  0  0  0
   -6.1224   -2.2781    1.4558 H   0  0  0  0  0  0  0  0  0  0  0  0
    0.9658   -1.7395   -0.9273 H   0  0  0  0  0  0  0  0  0  0  0  0
   -7.0145   -2.8632   -2.7492 H   0  0  0  0  0  0  0  0  0  0  0  0
   -7.4032   -3.9166   -0.2774 H   0  0  0  0  0  0  0  0  0  0  0  0
    1.5360    1.4506    2.7829 H   0  0  0  0  0  0  0  0  0  0  0  0
   -5.7409   -1.0547   -3.7301 H   0  0  0  0  0  0  0  0  0  0  0  0
   -4.4156   -0.3914   -2.7341 H   0  0  0  0  0  0  0  0  0  0  0  0
   -6.0323    0.3991   -2.7272 H   0  0  0  0  0  0  0  0  0  0  0  0
    3.5368    0.0997    2.1410 H   0  0  0  0  0  0  0  0  0  0  0  0
    2.8395    3.8760   -1.6230 H   0  0  0  0  0  0  0  0  0  0  0  0
   -0.0982    4.4350   -2.1504 H   0  0  0  0  0  0  0  0  0  0  0  0
   -1.2922    5.6726   -1.9904 H   0  0  0  0  0  0  0  0  0  0  0  0
    5.4779   -0.0069    0.0992 H   0  0  0  0  0  0  0  0  0  0  0  0
    4.8153    3.0475   -2.8629 H   0  0  0  0  0  0  0  0  0  0  0  0
    6.1187    1.1273   -2.0218 H   0  0  0  0  0  0  0  0  0  0  0  0
    3.0291   -2.8787    1.9658 H   0  0  0  0  0  0  0  0  0  0  0  0
    5.2758   -2.6285   -2.4421 H   0  0  0  0  0  0  0  0  0  0  0  0
    5.3509   -3.4801    1.7679 H   0  0  0  0  0  0  0  0  0  0  0  0
  1 38  1  0  0  0  0
  2 42  1  0  0  0  0
  3 18  2  0  0  0  0
  4 19  2  0  0  0  0
  5 22  2  0  0  0  0
  6 26  2  0  0  0  0
  7 15  1  0  0  0  0
  7 17  1  0  0  0  0
  7 19  1  0  0  0  0
  8 14  1  0  0  0  0
  8 22  1  0  0  0  0
  8 49  1  0  0  0  0
  9 18  1  0  0  0  0
  9 20  1  0  0  0  0
  9 50  1  0  0  0  0
 10 21  1  0  0  0  0
 10 28  1  0  0  0  0
 10 30  1  0  0  0  0
 11 22  1  0  0  0  0
 11 33  1  0  0  0  0
 11 55  1  0  0  0  0
 12 31  1  0  0  0  0
 12 32  1  0  0  0  0
 12 62  1  0  0  0  0
 13 26  1  0  0  0  0
 13 64  1  0  0  0  0
 13 65  1  0  0  0  0
 14 16  1  0  0  0  0
 14 17  1  0  0  0  0
 14 44  1  0  0  0  0
 15 16  1  0  0  0  0
 15 18  1  0  0  0  0
 15 43  1  0  0  0  0
 16 45  1  0  0  0  0
 16 46  1  0  0  0  0
 17 47  1  0  0  0  0
 17 48  1  0  0  0  0
 19 21  1  0  0  0  0
 20 23  1  0  0  0  0
 20 26  1  0  0  0  0
 20 51  1  0  0  0  0
 21 25  2  0  0  0  0
 23 24  1  0  0  0  0
 23 52  1  0  0  0  0
 23 53  1  0  0  0  0
 24 27  1  0  0  0  0
 24 31  2  0  0  0  0
 25 29  1  0  0  0  0
 25 54  1  0  0  0  0
 27 32  1  0  0  0  0
 27 34  2  0  0  0  0
 28 29  2  0  0  0  0
 28 56  1  0  0  0  0
 29 57  1  0  0  0  0
 30 59  1  0  0  0  0
 30 60  1  0  0  0  0
 30 61  1  0  0  0  0
 31 58  1  0  0  0  0
 32 35  2  0  0  0  0
 33 38  2  0  0  0  0
 33 39  1  0  0  0  0
 34 36  1  0  0  0  0
 34 63  1  0  0  0  0
 35 37  1  0  0  0  0
 35 66  1  0  0  0  0
 36 37  2  0  0  0  0
 36 67  1  0  0  0  0
 37 68  1  0  0  0  0
 38 40  1  0  0  0  0
 39 41  2  0  0  0  0
 39 69  1  0  0  0  0
 40 42  2  0  0  0  0
 40 70  1  0  0  0  0
 41 42  1  0  0  0  0
 41 71  1  0  0  0  0
M  END
> <PUBCHEM_COMPOUND_CID>
11882024

> <PUBCHEM_CONFORMER_RMSD>
1.4

> <PUBCHEM_CONFORMER_DIVERSEORDER>
1
119
127
85
137
193
174
46
12
153
140
96
179
106
121
31
90
196
78
143
117
43
195
164
145
177
186
38
44
161
72
109
190
37
107
83
92
150
110
34
133
176
51
114
191
113
194
103
165
126
22
192
84
184
66
50
75
173
54
156
3
180
139
48
181
168
24
36
10
104
159
188
95
123
149
135
27
125
138
183
40
169
144
32
152
134
148
4
158
171
23
8
122
162
116
80
147
39
63
111
101
151
67
69
189
79
16
94
18
81
197
13
5
88
77
9
2
70
102
105
41
142
115
118
21
166
52
28
170
175
25
178
98
71
65
97
33
57
130
17
87
86
112
42
19
157
62
82
129
49
60
136
64
55
99
167
14
53
124
132
61
29
89
154
58
182
131
56
198
146
47
163
76
187
155
120
11
20
185
73
141
68
93
59
15
128
108
100
7
45
35
172
91
26
160
74
30
6

> <PUBCHEM_MMFF94_PARTIAL_CHARGES>
57
1 -0.19
10 0.05
11 -0.55
12 0.03
13 -0.8
14 0.3
15 0.36
17 0.3
18 0.57
19 0.71
2 -0.19
20 0.36
21 -0.24
22 0.69
23 0.18
24 -0.18
25 -0.15
26 0.57
28 -0.3
29 -0.15
3 -0.57
30 0.26
31 -0.3
32 -0.15
33 0.12
34 -0.15
35 -0.15
36 -0.15
37 -0.15
38 0.19
39 -0.15
4 -0.57
40 -0.15
41 -0.15
42 0.19
49 0.37
5 -0.57
50 0.37
54 0.15
55 0.37
56 0.15
57 0.15
58 0.15
6 -0.57
62 0.27
63 0.15
64 0.37
65 0.37
66 0.15
67 0.15
68 0.15
69 0.15
7 -0.66
70 0.15
71 0.15
8 -0.73
9 -0.73

> <PUBCHEM_EFFECTIVE_ROTOR_COUNT>
13

> <PUBCHEM_PHARMACOPHORE_FEATURES>
16
1 10 cation
1 11 donor
1 12 cation
1 12 donor
1 13 donor
1 3 acceptor
1 4 acceptor
1 5 acceptor
1 6 acceptor
1 8 donor
1 9 donor
5 10 21 25 28 29 rings
5 12 24 27 31 32 rings
5 7 14 15 16 17 rings
6 27 32 34 35 36 37 rings
6 33 38 39 40 41 42 rings

> <PUBCHEM_HEAVY_ATOM_COUNT>
42

> <PUBCHEM_ATOM_DEF_STEREO_COUNT>
3

> <PUBCHEM_ATOM_UDEF_STEREO_COUNT>
0

> <PUBCHEM_BOND_DEF_STEREO_COUNT>
0

> <PUBCHEM_BOND_UDEF_STEREO_COUNT>
0

> <PUBCHEM_ISOTOPIC_ATOM_COUNT>
0

> <PUBCHEM_COMPONENT_COUNT>
1

> <PUBCHEM_CACTVS_TAUTO_COUNT>
12

> <PUBCHEM_CONFORMER_ID>
00B54E2800000001

> <PUBCHEM_MMFF94_ENERGY>
91.3915

> <PUBCHEM_FEATURE_SELFOVERLAP>
81.343

> <PUBCHEM_SHAPE_FINGERPRINT>
10556698 54 17391867641277717383
11093857 51 18120938575327582240
11170278 133 17465646898289252421
11513181 2 18270695151137647142
12107698 1 18337954467984755718
12147406 95 18411978070459327590
12645989 146 18198349451090096878
1361 2 18124873718737147281
13636023 20 18337376206736421715
14068700 675 18263082128231692622
15328829 1 17487361428672814355
16067689 302 18264778842847917707
17686467 74 18272925004275806370
19315092 285 17775568658375063184
20721686 56 18409172108565002738
20764821 26 18191036603368741456
20775438 99 18125420150194354023
21344244 246 18267019634448952211
22899556 105 18271815686884025127
3388396 114 18336280023434480924
4017518 198 17765709509861902152
4066623 53 18334572434694571076
45266715 3 18199183087172540736
513532 50 17703796950878163470
57527358 35 15696626366649850560

> <PUBCHEM_SHAPE_MULTIPOLES>
791.45
15.55
6.29
2.13
14.86
4.41
0.48
-14.51
8.26
-4.93
0.95
0.59
-0.39
-0.96

> <PUBCHEM_SHAPE_SELFOVERLAP>
1728.403

> <PUBCHEM_SHAPE_VOLUME>
431.6

> <PUBCHEM_COORDINATE_TYPE>
2
5
10

$$$$
