75367102
  -OEChem-12032416393D

 46 48  0     1  0  0  0  0  0999 V2000
    0.8315   -0.8847   -0.1470 O   0  0  0  0  0  0  0  0  0  0  0  0
    1.9198    2.5374   -0.0429 O   0  0  0  0  0  0  0  0  0  0  0  0
   -6.4480   -1.1982    0.3076 O   0  0  0  0  0  0  0  0  0  0  0  0
   -2.5804    1.8857    0.4224 O   0  0  0  0  0  0  0  0  0  0  0  0
    4.2254    0.4162   -0.2883 N   0  0  0  0  0  0  0  0  0  0  0  0
   -1.7733    0.1458   -0.8368 N   0  0  0  0  0  0  0  0  0  0  0  0
   -3.8763   -0.0285    0.2287 N   0  0  0  0  0  0  0  0  0  0  0  0
    5.1280   -0.2897    0.6092 C   0  0  0  0  0  0  0  0  0  0  0  0
    2.8616    0.2982    0.2011 C   0  0  1  0  0  0  0  0  0  0  0  0
    6.5730    0.1963    0.3638 C   0  0  0  0  0  0  0  0  0  0  0  0
    5.5465   -1.6277   -0.0380 C   0  0  0  0  0  0  0  0  0  0  0  0
    1.8771    1.2046   -0.5146 C   0  0  1  0  0  0  0  0  0  0  0  0
    6.9881   -1.2920    0.4075 C   0  0  0  0  0  0  0  0  0  0  0  0
    0.5561    0.5257   -0.1793 C   0  0  1  0  0  0  0  0  0  0  0  0
    2.2552   -1.0706   -0.0609 C   0  0  0  0  0  0  0  0  0  0  0  0
   -0.5396    0.8116   -1.1906 C   0  0  0  0  0  0  0  0  0  0  0  0
   -2.7340    0.7472   -0.0323 C   0  0  0  0  0  0  0  0  0  0  0  0
   -4.0710   -1.4372   -0.1434 C   0  0  0  0  0  0  0  0  0  0  0  0
   -4.9370    0.5246    1.0739 C   0  0  0  0  0  0  0  0  0  0  0  0
   -5.4927   -1.6752   -0.6409 C   0  0  0  0  0  0  0  0  0  0  0  0
   -6.3101    0.2106    0.5007 C   0  0  0  0  0  0  0  0  0  0  0  0
    4.8630   -0.3370    1.6721 H   0  0  0  0  0  0  0  0  0  0  0  0
    2.8199    0.5355    1.2738 H   0  0  0  0  0  0  0  0  0  0  0  0
    7.0019    0.8246    1.1493 H   0  0  0  0  0  0  0  0  0  0  0  0
    6.7669    0.6657   -0.6089 H   0  0  0  0  0  0  0  0  0  0  0  0
    5.4377   -1.6911   -1.1279 H   0  0  0  0  0  0  0  0  0  0  0  0
    5.1177   -2.5274    0.4120 H   0  0  0  0  0  0  0  0  0  0  0  0
    2.0573    1.2066   -1.5968 H   0  0  0  0  0  0  0  0  0  0  0  0
    7.7812   -1.5861   -0.2842 H   0  0  0  0  0  0  0  0  0  0  0  0
    7.2357   -1.6527    1.4125 H   0  0  0  0  0  0  0  0  0  0  0  0
    4.4482    1.4083   -0.3764 H   0  0  0  0  0  0  0  0  0  0  0  0
    0.2143    0.8145    0.8233 H   0  0  0  0  0  0  0  0  0  0  0  0
    2.5806   -1.4957   -1.0174 H   0  0  0  0  0  0  0  0  0  0  0  0
    2.4790   -1.7909    0.7319 H   0  0  0  0  0  0  0  0  0  0  0  0
   -0.7178    1.8887   -1.2772 H   0  0  0  0  0  0  0  0  0  0  0  0
   -0.2607    0.4270   -2.1779 H   0  0  0  0  0  0  0  0  0  0  0  0
    1.7596    2.5278    0.9159 H   0  0  0  0  0  0  0  0  0  0  0  0
   -1.8891   -0.7914   -1.1942 H   0  0  0  0  0  0  0  0  0  0  0  0
   -3.8956   -2.0162    0.7712 H   0  0  0  0  0  0  0  0  0  0  0  0
   -3.3706   -1.7896   -0.8982 H   0  0  0  0  0  0  0  0  0  0  0  0
   -4.8187    1.6047    1.2017 H   0  0  0  0  0  0  0  0  0  0  0  0
   -4.8227    0.0534    2.0574 H   0  0  0  0  0  0  0  0  0  0  0  0
   -5.6653   -2.7468   -0.7817 H   0  0  0  0  0  0  0  0  0  0  0  0
   -5.6629   -1.1807   -1.6048 H   0  0  0  0  0  0  0  0  0  0  0  0
   -6.4751    0.7269   -0.4524 H   0  0  0  0  0  0  0  0  0  0  0  0
   -7.0909    0.5332    1.1964 H   0  0  0  0  0  0  0  0  0  0  0  0
  1 14  1  0  0  0  0
  1 15  1  0  0  0  0
  2 12  1  0  0  0  0
  2 37  1  0  0  0  0
  3 20  1  0  0  0  0
  3 21  1  0  0  0  0
  4 17  2  0  0  0  0
  5  8  1  0  0  0  0
  5  9  1  0  0  0  0
  5 31  1  0  0  0  0
  6 16  1  0  0  0  0
  6 17  1  0  0  0  0
  6 38  1  0  0  0  0
  7 17  1  0  0  0  0
  7 18  1  0  0  0  0
  7 19  1  0  0  0  0
  8 10  1  0  0  0  0
  8 11  1  0  0  0  0
  8 22  1  0  0  0  0
  9 12  1  0  0  0  0
  9 15  1  0  0  0  0
  9 23  1  0  0  0  0
 10 13  1  0  0  0  0
 10 24  1  0  0  0  0
 10 25  1  0  0  0  0
 11 13  1  0  0  0  0
 11 26  1  0  0  0  0
 11 27  1  0  0  0  0
 12 14  1  0  0  0  0
 12 28  1  0  0  0  0
 13 29  1  0  0  0  0
 13 30  1  0  0  0  0
 14 16  1  0  0  0  0
 14 32  1  0  0  0  0
 15 33  1  0  0  0  0
 15 34  1  0  0  0  0
 16 35  1  0  0  0  0
 16 36  1  0  0  0  0
 18 20  1  0  0  0  0
 18 39  1  0  0  0  0
 18 40  1  0  0  0  0
 19 21  1  0  0  0  0
 19 41  1  0  0  0  0
 19 42  1  0  0  0  0
 20 43  1  0  0  0  0
 20 44  1  0  0  0  0
 21 45  1  0  0  0  0
 21 46  1  0  0  0  0
M  END
> <PUBCHEM_COMPOUND_CID>
75367102

> <PUBCHEM_CONFORMER_RMSD>
0.8

> <PUBCHEM_CONFORMER_DIVERSEORDER>
1
48
28
35
58
85
10
40
96
17
99
93
76
97
39
38
25
49
102
51
45
105
91
32
73
83
64
20
59
4
43
69
53
31
61
57
94
54
84
80
52
106
71
95
98
21
55
74
24
18
16
44
26
70
86
90
104
68
34
65
82
50
87
92
60
5
22
42
23
63
75
77
101
29
89
72
13
8
7
41
81
47
56
66
33
78
15
36
79
46
100
3
11
67
88
19
30
62
9
2
103
6
12
37
14
27

> <PUBCHEM_MMFF94_PARTIAL_CHARGES>
21
1 -0.56
12 0.28
14 0.28
15 0.28
16 0.3
17 0.69
18 0.3
19 0.3
2 -0.68
20 0.28
21 0.28
3 -0.56
31 0.36
37 0.4
38 0.37
4 -0.57
5 -0.84
6 -0.73
7 -0.66
8 0.21
9 0.27

> <PUBCHEM_EFFECTIVE_ROTOR_COUNT>
9

> <PUBCHEM_PHARMACOPHORE_FEATURES>
11
1 1 acceptor
1 2 acceptor
1 2 donor
1 3 acceptor
1 4 acceptor
1 5 cation
1 5 donor
1 6 donor
4 8 10 11 13 rings
5 1 9 12 14 15 rings
6 3 7 18 19 20 21 rings

> <PUBCHEM_HEAVY_ATOM_COUNT>
21

> <PUBCHEM_ATOM_DEF_STEREO_COUNT>
3

> <PUBCHEM_ATOM_UDEF_STEREO_COUNT>
0

> <PUBCHEM_BOND_DEF_STEREO_COUNT>
0

> <PUBCHEM_BOND_UDEF_STEREO_COUNT>
0

> <PUBCHEM_ISOTOPIC_ATOM_COUNT>
0

> <PUBCHEM_COMPONENT_COUNT>
1

> <PUBCHEM_CACTVS_TAUTO_COUNT>
2

> <PUBCHEM_CONFORMER_ID>
047E02BE00000001

> <PUBCHEM_MMFF94_ENERGY>
47.5986

> <PUBCHEM_FEATURE_SELFOVERLAP>
55.822

> <PUBCHEM_SHAPE_FINGERPRINT>
10 15 16630241485002715442
10087517 78 10303820873458902739
10299344 5 18409451380228518014
11315181 36 18272089414118970113
11524674 6 16917066672430918575
117890 112 10879990268439621014
12166972 35 18342458162212404304
12236239 1 18343585152671193681
12516196 113 18411698781900720800
12596602 18 17918273156079577010
12670543 26 10953454112000555952
13288520 33 18335138696400067229
13533116 47 18337673113504642512
13668630 136 16660648461836484675
13685833 64 18040436594242860992
13862211 1 18260545607005319938
13968360 50 12901538036591091288
1420 363 17458347433411450042
14251764 18 18413670232098066118
14341114 176 18412827988373244512
14556957 393 15068915096495063302
14849402 71 18200593743343069272
15048467 5 10663819680737659898
15348495 7 17131261475885913138
15461852 350 16486966302868907333
15716309 27 18409729556121712590
17492 89 17973154034025491034
17857418 61 18409166619037368927
18222031 100 17458339758452760756
20028762 73 18341610447195171326
20281389 69 12679465270323131922
20621476 66 10663816399335335378
21150785 3 13695874727092985418
21267235 1 18410294675872304094
22224240 67 18060413625387747806
23035841 295 18259985972260307523
23402539 116 18410008841018419853
23522609 53 18118997786733283052
23559900 14 18189052169696068161
246663 6 18333454218906590570
26918003 58 18261115192799082809
2767999 5 12103843453934026874
2916195 48 12535631565834857719
3009799 131 12684813312202805062
351380 3 18113897165086397091
4072396 5 11095885926637119276
4325135 7 18113340825847124502
4340502 62 15985104103063524062
465052 167 18335424586339615622
5104073 3 18129389353110639161
5385378 56 13470698022932259772
543368 44 9799693697417908275
559249 180 18409448090515573887
59682541 35 18335976559005423368
5969126 39 17095516275467606573
59755656 215 17095239202911768090
67856867 119 18341613780152732545
9996256 80 18342455937239658518

> <PUBCHEM_SHAPE_MULTIPOLES>
393.75
18.86
1.77
0.85
2.44
0.23
-0.03
-8.27
4.16
-0.11
-0.1
-0.41
0.07
-0.69

> <PUBCHEM_SHAPE_SELFOVERLAP>
804.193

> <PUBCHEM_SHAPE_VOLUME>
229.2

> <PUBCHEM_COORDINATE_TYPE>
2
5
10

$$$$
