71693643
  -OEChem-12032416233D

 47 48  0     1  0  0  0  0  0999 V2000
    2.7584   -1.6037    0.3123 O   0  0  0  0  0  0  0  0  0  0  0  0
    3.0608    2.4848    0.9133 O   0  0  0  0  0  0  0  0  0  0  0  0
    6.2859   -1.1350    0.1372 O   0  0  0  0  0  0  0  0  0  0  0  0
   -4.1736    0.4950    1.5583 O   0  0  0  0  0  0  0  0  0  0  0  0
    4.5829    0.3558   -0.4201 N   0  0  0  0  0  0  0  0  0  0  0  0
   -3.3052   -0.2340   -0.4893 N   0  0  0  0  0  0  0  0  0  0  0  0
    3.1270    0.6043   -0.5587 C   0  0  1  0  0  0  0  0  0  0  0  0
    2.3186   -0.2506    0.4364 C   0  0  1  0  0  0  0  0  0  0  0  0
    0.8243   -0.2457    0.1899 C   0  0  0  0  0  0  0  0  0  0  0  0
    2.7674    2.0897   -0.4110 C   0  0  0  0  0  0  0  0  0  0  0  0
    4.0799   -1.7448    0.7751 C   0  0  0  0  0  0  0  0  0  0  0  0
    5.0918   -0.8285    0.1164 C   0  0  0  0  0  0  0  0  0  0  0  0
    5.5033    1.2743   -1.0849 C   0  0  0  0  0  0  0  0  0  0  0  0
   -5.7541   -0.0011   -0.2098 C   0  0  0  0  0  0  0  0  0  0  0  0
    0.3208   -0.6280   -1.0534 C   0  0  0  0  0  0  0  0  0  0  0  0
   -0.0485    0.1409    1.2070 C   0  0  0  0  0  0  0  0  0  0  0  0
   -1.9284   -0.2376   -0.2626 C   0  0  0  0  0  0  0  0  0  0  0  0
   -1.0556   -0.6241   -1.2796 C   0  0  0  0  0  0  0  0  0  0  0  0
   -1.4249    0.1449    0.9808 C   0  0  0  0  0  0  0  0  0  0  0  0
   -4.3346    0.1193    0.3985 C   0  0  0  0  0  0  0  0  0  0  0  0
   -6.8137    0.3814    0.8352 C   0  0  0  0  0  0  0  0  0  0  0  0
   -5.8792    0.9011   -1.4476 C   0  0  0  0  0  0  0  0  0  0  0  0
   -6.0033   -1.4582   -0.6432 C   0  0  0  0  0  0  0  0  0  0  0  0
    2.9045    0.2955   -1.5878 H   0  0  0  0  0  0  0  0  0  0  0  0
    2.5122    0.0729    1.4685 H   0  0  0  0  0  0  0  0  0  0  0  0
    1.7023    2.2597   -0.5980 H   0  0  0  0  0  0  0  0  0  0  0  0
    3.3236    2.7245   -1.1069 H   0  0  0  0  0  0  0  0  0  0  0  0
    4.3855   -2.7786    0.5830 H   0  0  0  0  0  0  0  0  0  0  0  0
    4.1154   -1.5824    1.8586 H   0  0  0  0  0  0  0  0  0  0  0  0
    5.1858    1.4076   -2.1232 H   0  0  0  0  0  0  0  0  0  0  0  0
    6.5279    0.8932   -1.0817 H   0  0  0  0  0  0  0  0  0  0  0  0
    5.4964    2.2336   -0.5610 H   0  0  0  0  0  0  0  0  0  0  0  0
    0.9820   -0.9440   -1.8553 H   0  0  0  0  0  0  0  0  0  0  0  0
    0.3301    0.4419    2.1802 H   0  0  0  0  0  0  0  0  0  0  0  0
   -1.4342   -0.9271   -2.2526 H   0  0  0  0  0  0  0  0  0  0  0  0
   -2.0321    0.4569    1.8184 H   0  0  0  0  0  0  0  0  0  0  0  0
   -3.5787   -0.5279   -1.4231 H   0  0  0  0  0  0  0  0  0  0  0  0
   -6.7508   -0.2618    1.7205 H   0  0  0  0  0  0  0  0  0  0  0  0
   -6.6802    1.4163    1.1706 H   0  0  0  0  0  0  0  0  0  0  0  0
   -7.8268    0.2919    0.4276 H   0  0  0  0  0  0  0  0  0  0  0  0
   -6.9021    0.8907   -1.8408 H   0  0  0  0  0  0  0  0  0  0  0  0
   -5.6268    1.9381   -1.1978 H   0  0  0  0  0  0  0  0  0  0  0  0
   -5.2145    0.5920   -2.2609 H   0  0  0  0  0  0  0  0  0  0  0  0
   -5.3414   -1.7704   -1.4579 H   0  0  0  0  0  0  0  0  0  0  0  0
   -5.8360   -2.1477    0.1925 H   0  0  0  0  0  0  0  0  0  0  0  0
   -7.0334   -1.5960   -0.9914 H   0  0  0  0  0  0  0  0  0  0  0  0
    2.8182    3.4229    0.9943 H   0  0  0  0  0  0  0  0  0  0  0  0
  1  8  1  0  0  0  0
  1 11  1  0  0  0  0
  2 10  1  0  0  0  0
  2 47  1  0  0  0  0
  3 12  2  0  0  0  0
  4 20  2  0  0  0  0
  5  7  1  0  0  0  0
  5 12  1  0  0  0  0
  5 13  1  0  0  0  0
  6 17  1  0  0  0  0
  6 20  1  0  0  0  0
  6 37  1  0  0  0  0
  7  8  1  0  0  0  0
  7 10  1  0  0  0  0
  7 24  1  0  0  0  0
  8  9  1  0  0  0  0
  8 25  1  0  0  0  0
  9 15  2  0  0  0  0
  9 16  1  0  0  0  0
 10 26  1  0  0  0  0
 10 27  1  0  0  0  0
 11 12  1  0  0  0  0
 11 28  1  0  0  0  0
 11 29  1  0  0  0  0
 13 30  1  0  0  0  0
 13 31  1  0  0  0  0
 13 32  1  0  0  0  0
 14 20  1  0  0  0  0
 14 21  1  0  0  0  0
 14 22  1  0  0  0  0
 14 23  1  0  0  0  0
 15 18  1  0  0  0  0
 15 33  1  0  0  0  0
 16 19  2  0  0  0  0
 16 34  1  0  0  0  0
 17 18  2  0  0  0  0
 17 19  1  0  0  0  0
 18 35  1  0  0  0  0
 19 36  1  0  0  0  0
 21 38  1  0  0  0  0
 21 39  1  0  0  0  0
 21 40  1  0  0  0  0
 22 41  1  0  0  0  0
 22 42  1  0  0  0  0
 22 43  1  0  0  0  0
 23 44  1  0  0  0  0
 23 45  1  0  0  0  0
 23 46  1  0  0  0  0
M  END
> <PUBCHEM_COMPOUND_CID>
71693643

> <PUBCHEM_CONFORMER_RMSD>
0.8

> <PUBCHEM_CONFORMER_DIVERSEORDER>
1
11
4
5
9
3
7
6
8
10
12
2

> <PUBCHEM_MMFF94_PARTIAL_CHARGES>
26
1 -0.56
10 0.28
11 0.34
12 0.57
13 0.3
14 0.06
15 -0.15
16 -0.15
17 0.12
18 -0.15
19 -0.15
2 -0.68
20 0.57
3 -0.57
33 0.15
34 0.15
35 0.15
36 0.15
37 0.37
4 -0.57
47 0.4
5 -0.66
6 -0.55
7 0.3
8 0.42
9 -0.14

> <PUBCHEM_EFFECTIVE_ROTOR_COUNT>
6

> <PUBCHEM_PHARMACOPHORE_FEATURES>
9
1 1 acceptor
1 2 acceptor
1 2 donor
1 3 acceptor
1 4 acceptor
1 6 donor
4 14 21 22 23 hydrophobe
6 1 5 7 8 11 12 rings
6 9 15 16 17 18 19 rings

> <PUBCHEM_HEAVY_ATOM_COUNT>
23

> <PUBCHEM_ATOM_DEF_STEREO_COUNT>
2

> <PUBCHEM_ATOM_UDEF_STEREO_COUNT>
0

> <PUBCHEM_BOND_DEF_STEREO_COUNT>
0

> <PUBCHEM_BOND_UDEF_STEREO_COUNT>
0

> <PUBCHEM_ISOTOPIC_ATOM_COUNT>
0

> <PUBCHEM_COMPONENT_COUNT>
1

> <PUBCHEM_CACTVS_TAUTO_COUNT>
4

> <PUBCHEM_CONFORMER_ID>
0445F54B00000001

> <PUBCHEM_MMFF94_ENERGY>
71.6781

> <PUBCHEM_FEATURE_SELFOVERLAP>
45.672

> <PUBCHEM_SHAPE_FINGERPRINT>
10763959 59 18113615698858442237
11045977 3 17967820478468399755
11089746 13 18409165519652198781
11646440 116 15267347348836530763
12107183 9 17689998929915380043
12166972 35 18410013269125102805
12236239 1 18201720660549595999
12516196 113 16298389067493213575
12616971 3 17988637519511781669
12730499 353 17603869996550331034
13167372 99 18341055125224668585
13533116 47 18335701611730409106
13583140 156 18262527008409944419
13862211 1 16773790394694482615
14170010 4 18335136510330636160
14251764 18 18343020008527495948
14294032 229 17058113016343194825
14341114 176 18040721359080306437
14573314 32 17458061543366491317
14933364 13 18040436577537921037
15183329 4 18201722851368285725
15788980 27 18333167263403618439
15849732 13 17989203738167371806
17349148 13 17346883347050193419
17834072 33 18411979191609549295
17844677 252 18261112955079177093
20567600 75 17530963562408547311
20612939 158 18410576210261405032
21033648 29 17749094609091463445
21267235 1 18337112264159253694
220451 1 18411421717834505783
221357 26 18186516584018088380
22289505 5 18186796959546448804
23402539 116 18413105044440355373
23536379 177 18333730195997867891
23559900 14 16805328802967466050
23569914 2 17321492372270738597
23622692 88 18343581837373218390
29717793 49 18201443549876914798
3004659 81 17561088029194298272
3411729 13 14708356797037306230
4073 2 17458634453164865515
465052 167 18343867718717570158
5104073 3 18269834366687868163
542803 24 18201720652719186775
59755656 215 16443063859532341026
7495541 125 18060415863350143003

> <PUBCHEM_SHAPE_MULTIPOLES>
439.89
16.92
1.61
1.24
12.06
0.43
-0.02
-0.16
1.28
-2.23
-0.05
0.91
0.17
-0.6

> <PUBCHEM_SHAPE_SELFOVERLAP>
912.924

> <PUBCHEM_SHAPE_VOLUME>
250.8

> <PUBCHEM_COORDINATE_TYPE>
2
5
10

$$$$
