75536625
  -OEChem-12032416343D

 49 51  0     1  0  0  0  0  0999 V2000
    4.1914    0.6569    1.0094 O   0  0  0  0  0  0  0  0  0  0  0  0
    4.9394   -1.9972   -0.6230 O   0  0  0  0  0  0  0  0  0  0  0  0
    0.8194    0.9319   -2.1813 O   0  0  0  0  0  0  0  0  0  0  0  0
   -5.0835   -0.6105   -1.4552 O   0  0  0  0  0  0  0  0  0  0  0  0
   -5.4814   -0.8528    0.7696 O   0  0  0  0  0  0  0  0  0  0  0  0
    1.6785   -1.0862    0.7087 N   0  0  0  0  0  0  0  0  0  0  0  0
    2.2643    1.6556   -0.5165 N   0  0  0  0  0  0  0  0  0  0  0  0
    3.0974   -1.4295    0.7758 C   0  0  1  0  0  0  0  0  0  0  0  0
    3.8092   -1.1268   -0.5311 C   0  0  1  0  0  0  0  0  0  0  0  0
    4.2990    0.3134   -0.3846 C   0  0  1  0  0  0  0  0  0  0  0  0
    3.8269   -0.5158    1.7470 C   0  0  0  0  0  0  0  0  0  0  0  0
    3.4857    1.3167   -1.1881 C   0  0  0  0  0  0  0  0  0  0  0  0
    0.8958   -2.1922    0.1704 C   0  0  0  0  0  0  0  0  0  0  0  0
   -0.5678   -1.8509    0.0787 C   0  0  0  0  0  0  0  0  0  0  0  0
    1.0097    1.4324   -1.0759 C   0  0  0  0  0  0  0  0  0  0  0  0
   -1.3565   -1.8462    1.2293 C   0  0  0  0  0  0  0  0  0  0  0  0
   -1.1350   -1.5398   -1.1570 C   0  0  0  0  0  0  0  0  0  0  0  0
   -0.1571    1.8636   -0.2638 C   0  0  0  0  0  0  0  0  0  0  0  0
   -2.7124   -1.5300    1.1439 C   0  0  0  0  0  0  0  0  0  0  0  0
   -2.4908   -1.2237   -1.2425 C   0  0  0  0  0  0  0  0  0  0  0  0
   -3.2795   -1.2187   -0.0921 C   0  0  0  0  0  0  0  0  0  0  0  0
   -1.3531    2.2126   -0.8909 C   0  0  0  0  0  0  0  0  0  0  0  0
   -0.0567    1.9178    1.1263 C   0  0  0  0  0  0  0  0  0  0  0  0
   -4.6931   -0.8883   -0.1809 C   0  0  0  0  0  0  0  0  0  0  0  0
   -2.4490    2.6161   -0.1278 C   0  0  0  0  0  0  0  0  0  0  0  0
   -1.1524    2.3212    1.8895 C   0  0  0  0  0  0  0  0  0  0  0  0
   -2.3485    2.6703    1.2623 C   0  0  0  0  0  0  0  0  0  0  0  0
    3.2254   -2.4655    1.1130 H   0  0  0  0  0  0  0  0  0  0  0  0
    3.2069   -1.2998   -1.4282 H   0  0  0  0  0  0  0  0  0  0  0  0
    5.3534    0.3968   -0.6731 H   0  0  0  0  0  0  0  0  0  0  0  0
    3.2402   -0.2303    2.6258 H   0  0  0  0  0  0  0  0  0  0  0  0
    4.7524   -0.9847    2.1013 H   0  0  0  0  0  0  0  0  0  0  0  0
    3.3081    0.9710   -2.2113 H   0  0  0  0  0  0  0  0  0  0  0  0
    4.0465    2.2565   -1.2514 H   0  0  0  0  0  0  0  0  0  0  0  0
    1.3392   -0.8768    1.6478 H   0  0  0  0  0  0  0  0  0  0  0  0
    1.0013   -3.0849    0.8012 H   0  0  0  0  0  0  0  0  0  0  0  0
    1.2614   -2.4750   -0.8243 H   0  0  0  0  0  0  0  0  0  0  0  0
    5.4071   -1.7790   -1.4473 H   0  0  0  0  0  0  0  0  0  0  0  0
    2.3521    2.1486    0.3657 H   0  0  0  0  0  0  0  0  0  0  0  0
   -0.9259   -2.0868    2.1977 H   0  0  0  0  0  0  0  0  0  0  0  0
   -0.5335   -1.5435   -2.0619 H   0  0  0  0  0  0  0  0  0  0  0  0
   -3.3095   -1.5305    2.0519 H   0  0  0  0  0  0  0  0  0  0  0  0
   -2.8910   -0.9871   -2.2243 H   0  0  0  0  0  0  0  0  0  0  0  0
   -1.4504    2.1793   -1.9728 H   0  0  0  0  0  0  0  0  0  0  0  0
    0.8464    1.6332    1.6573 H   0  0  0  0  0  0  0  0  0  0  0  0
   -3.3808    2.8861   -0.6159 H   0  0  0  0  0  0  0  0  0  0  0  0
   -1.0769    2.3573    2.9723 H   0  0  0  0  0  0  0  0  0  0  0  0
   -3.2025    2.9816    1.8566 H   0  0  0  0  0  0  0  0  0  0  0  0
   -6.0378   -0.3881   -1.5041 H   0  0  0  0  0  0  0  0  0  0  0  0
  1 10  1  0  0  0  0
  1 11  1  0  0  0  0
  2  9  1  0  0  0  0
  2 38  1  0  0  0  0
  3 15  2  0  0  0  0
  4 24  1  0  0  0  0
  4 49  1  0  0  0  0
  5 24  2  0  0  0  0
  6  8  1  0  0  0  0
  6 13  1  0  0  0  0
  6 35  1  0  0  0  0
  7 12  1  0  0  0  0
  7 15  1  0  0  0  0
  7 39  1  0  0  0  0
  8  9  1  0  0  0  0
  8 11  1  0  0  0  0
  8 28  1  0  0  0  0
  9 10  1  0  0  0  0
  9 29  1  0  0  0  0
 10 12  1  0  0  0  0
 10 30  1  0  0  0  0
 11 31  1  0  0  0  0
 11 32  1  0  0  0  0
 12 33  1  0  0  0  0
 12 34  1  0  0  0  0
 13 14  1  0  0  0  0
 13 36  1  0  0  0  0
 13 37  1  0  0  0  0
 14 16  2  0  0  0  0
 14 17  1  0  0  0  0
 15 18  1  0  0  0  0
 16 19  1  0  0  0  0
 16 40  1  0  0  0  0
 17 20  2  0  0  0  0
 17 41  1  0  0  0  0
 18 22  2  0  0  0  0
 18 23  1  0  0  0  0
 19 21  2  0  0  0  0
 19 42  1  0  0  0  0
 20 21  1  0  0  0  0
 20 43  1  0  0  0  0
 21 24  1  0  0  0  0
 22 25  1  0  0  0  0
 22 44  1  0  0  0  0
 23 26  2  0  0  0  0
 23 45  1  0  0  0  0
 25 27  2  0  0  0  0
 25 46  1  0  0  0  0
 26 27  1  0  0  0  0
 26 47  1  0  0  0  0
 27 48  1  0  0  0  0
M  END
> <PUBCHEM_COMPOUND_CID>
75536625

> <PUBCHEM_CONFORMER_RMSD>
1

> <PUBCHEM_CONFORMER_DIVERSEORDER>
4
48
66
31
47
39
30
9
55
64
58
45
25
13
16
5
59
11
24
42
46
28
57
29
40
8
18
51
50
19
43
14
34
1
23
53
26
22
32
37
41
65
27
3
38
20
54
10
21
52
35
36
44
63
6
60
62
17
56
49
15
33
67
12
2
7
61

> <PUBCHEM_MMFF94_PARTIAL_CHARGES>
40
1 -0.56
10 0.28
11 0.28
12 0.3
13 0.41
14 -0.14
15 0.54
16 -0.15
17 -0.15
18 0.09
19 -0.15
2 -0.68
20 -0.15
21 0.09
22 -0.15
23 -0.15
24 0.63
25 -0.15
26 -0.15
27 -0.15
3 -0.57
35 0.36
38 0.4
39 0.37
4 -0.65
40 0.15
41 0.15
42 0.15
43 0.15
44 0.15
45 0.15
46 0.15
47 0.15
48 0.15
49 0.5
5 -0.57
6 -0.9
7 -0.73
8 0.27
9 0.28

> <PUBCHEM_EFFECTIVE_ROTOR_COUNT>
9

> <PUBCHEM_PHARMACOPHORE_FEATURES>
13
1 1 acceptor
1 2 acceptor
1 2 donor
1 3 acceptor
1 4 acceptor
1 5 acceptor
1 6 cation
1 6 donor
1 7 donor
3 4 5 24 anion
5 1 8 9 10 11 rings
6 14 16 17 19 20 21 rings
6 18 22 23 25 26 27 rings

> <PUBCHEM_HEAVY_ATOM_COUNT>
27

> <PUBCHEM_ATOM_DEF_STEREO_COUNT>
3

> <PUBCHEM_ATOM_UDEF_STEREO_COUNT>
0

> <PUBCHEM_BOND_DEF_STEREO_COUNT>
0

> <PUBCHEM_BOND_UDEF_STEREO_COUNT>
0

> <PUBCHEM_ISOTOPIC_ATOM_COUNT>
0

> <PUBCHEM_COMPONENT_COUNT>
1

> <PUBCHEM_CACTVS_TAUTO_COUNT>
2

> <PUBCHEM_CONFORMER_ID>
048098F100000004

> <PUBCHEM_MMFF94_ENERGY>
68.4912

> <PUBCHEM_FEATURE_SELFOVERLAP>
66.03

> <PUBCHEM_SHAPE_FINGERPRINT>
104564 63 18411705382621778912
1100329 8 17541933187797098275
11513181 2 18200600176592025798
12422481 6 18196396752935133321
12467345 10 18260830375926631997
12788726 201 18341908418850881392
13140716 1 18119803862079244394
13224815 77 18334011671011352568
14251757 17 17458888397501156007
14464042 87 18341900692757960985
14955137 171 18200039563786433083
16752209 62 18412550907290353108
17349148 13 18335989700719021247
17357779 13 18340476820620310483
21236236 1 18338802213457272870
23419403 2 18051375661187404477
23557571 272 18059859424129623518
23559900 14 18194122047876884596
2818148 4 17901107421881354602
3027735 51 18339362955275368627
35225 105 17916020149316953128
469060 322 17603871048410973998

> <PUBCHEM_SHAPE_MULTIPOLES>
516.34
9.05
3.24
1.65
0.61
1.35
0.07
-3.6
-0.32
-1.27
0.48
0.01
0.4
-0.76

> <PUBCHEM_SHAPE_SELFOVERLAP>
1104.464

> <PUBCHEM_SHAPE_VOLUME>
285.8

> <PUBCHEM_COORDINATE_TYPE>
2
5
10

$$$$
