45784343
  -OEChem-12032416283D

 42 45  0     1  0  0  0  0  0999 V2000
    7.1187    1.4273   -0.7739 F   0  0  0  0  0  0  0  0  0  0  0  0
    2.6927   -1.3997    0.5678 O   0  0  0  0  0  0  0  0  0  0  0  0
   -1.8241   -0.1471   -0.0148 N   0  0  1  0  0  0  0  0  0  0  0  0
    2.3387    0.7607   -0.0190 N   0  0  0  0  0  0  0  0  0  0  0  0
    0.3593   -0.7001    0.6381 C   0  0  2  0  0  0  0  0  0  0  0  0
   -0.5302   -0.5087   -0.5977 C   0  0  0  0  0  0  0  0  0  0  0  0
   -0.3039    0.1553    1.7317 C   0  0  0  0  0  0  0  0  0  0  0  0
   -1.5051    0.8007    1.0528 C   0  0  0  0  0  0  0  0  0  0  0  0
   -2.7390    0.4134   -0.9983 C   0  0  0  0  0  0  0  0  0  0  0  0
    1.8120   -0.3782    0.3740 C   0  0  0  0  0  0  0  0  0  0  0  0
   -4.1668    0.3743   -0.5221 C   0  0  0  0  0  0  0  0  0  0  0  0
   -4.8942   -0.8157   -0.5314 C   0  0  0  0  0  0  0  0  0  0  0  0
    3.6812    0.4791   -0.0945 C   0  0  0  0  0  0  0  0  0  0  0  0
    3.9018   -0.8426    0.2640 C   0  0  0  0  0  0  0  0  0  0  0  0
   -4.7610    1.5514   -0.0672 C   0  0  0  0  0  0  0  0  0  0  0  0
   -6.2158   -0.8288   -0.0857 C   0  0  0  0  0  0  0  0  0  0  0  0
   -4.2795   -2.0884   -1.0139 C   0  0  0  0  0  0  0  0  0  0  0  0
    4.7777    1.2754   -0.4547 C   0  0  0  0  0  0  0  0  0  0  0  0
    5.1476   -1.4568    0.2965 C   0  0  0  0  0  0  0  0  0  0  0  0
   -6.0828    1.5385    0.3786 C   0  0  0  0  0  0  0  0  0  0  0  0
   -6.8101    0.3483    0.3694 C   0  0  0  0  0  0  0  0  0  0  0  0
    6.0521    0.6905   -0.4341 C   0  0  0  0  0  0  0  0  0  0  0  0
    6.2307   -0.6487   -0.0655 C   0  0  0  0  0  0  0  0  0  0  0  0
    0.2948   -1.7508    0.9553 H   0  0  0  0  0  0  0  0  0  0  0  0
   -0.1460    0.2896   -1.2467 H   0  0  0  0  0  0  0  0  0  0  0  0
   -0.5942   -1.4295   -1.1876 H   0  0  0  0  0  0  0  0  0  0  0  0
   -0.6381   -0.4953    2.5495 H   0  0  0  0  0  0  0  0  0  0  0  0
    0.3653    0.9095    2.1591 H   0  0  0  0  0  0  0  0  0  0  0  0
   -2.3301    0.9331    1.7597 H   0  0  0  0  0  0  0  0  0  0  0  0
   -1.2192    1.7841    0.6578 H   0  0  0  0  0  0  0  0  0  0  0  0
   -2.6802   -0.1471   -1.9406 H   0  0  0  0  0  0  0  0  0  0  0  0
   -2.4528    1.4372   -1.2777 H   0  0  0  0  0  0  0  0  0  0  0  0
   -4.2067    2.4860   -0.0522 H   0  0  0  0  0  0  0  0  0  0  0  0
   -6.7971   -1.7471   -0.0858 H   0  0  0  0  0  0  0  0  0  0  0  0
   -4.9919   -2.9199   -0.9660 H   0  0  0  0  0  0  0  0  0  0  0  0
   -3.4232   -2.3722   -0.3950 H   0  0  0  0  0  0  0  0  0  0  0  0
   -3.9687   -2.0021   -2.0598 H   0  0  0  0  0  0  0  0  0  0  0  0
    4.6512    2.3139   -0.7420 H   0  0  0  0  0  0  0  0  0  0  0  0
    5.2750   -2.4932    0.5830 H   0  0  0  0  0  0  0  0  0  0  0  0
   -6.5454    2.4548    0.7333 H   0  0  0  0  0  0  0  0  0  0  0  0
   -7.8391    0.3383    0.7167 H   0  0  0  0  0  0  0  0  0  0  0  0
    7.2332   -1.0697   -0.0608 H   0  0  0  0  0  0  0  0  0  0  0  0
  1 22  1  0  0  0  0
  2 10  1  0  0  0  0
  2 14  1  0  0  0  0
  3  6  1  0  0  0  0
  3  8  1  0  0  0  0
  3  9  1  0  0  0  0
  4 10  2  0  0  0  0
  4 13  1  0  0  0  0
  5  6  1  0  0  0  0
  5  7  1  0  0  0  0
  5 10  1  0  0  0  0
  5 24  1  0  0  0  0
  6 25  1  0  0  0  0
  6 26  1  0  0  0  0
  7  8  1  0  0  0  0
  7 27  1  0  0  0  0
  7 28  1  0  0  0  0
  8 29  1  0  0  0  0
  8 30  1  0  0  0  0
  9 11  1  0  0  0  0
  9 31  1  0  0  0  0
  9 32  1  0  0  0  0
 11 12  1  0  0  0  0
 11 15  2  0  0  0  0
 12 16  2  0  0  0  0
 12 17  1  0  0  0  0
 13 14  2  0  0  0  0
 13 18  1  0  0  0  0
 14 19  1  0  0  0  0
 15 20  1  0  0  0  0
 15 33  1  0  0  0  0
 16 21  1  0  0  0  0
 16 34  1  0  0  0  0
 17 35  1  0  0  0  0
 17 36  1  0  0  0  0
 17 37  1  0  0  0  0
 18 22  2  0  0  0  0
 18 38  1  0  0  0  0
 19 23  2  0  0  0  0
 19 39  1  0  0  0  0
 20 21  2  0  0  0  0
 20 40  1  0  0  0  0
 21 41  1  0  0  0  0
 22 23  1  0  0  0  0
 23 42  1  0  0  0  0
M  END
> <PUBCHEM_COMPOUND_CID>
45784343

> <PUBCHEM_CONFORMER_RMSD>
0.8

> <PUBCHEM_CONFORMER_DIVERSEORDER>
1
61
58
48
35
26
33
52
30
60
17
11
49
53
59
21
54
42
56
39
5
38
55
57
24
37
46
19
47
27
31
2
13
44
12
25
40
36
28
8
51
23
18
14
7
41
20
45
50
34
4
22
10
32
16
9
15
43
6
3
29

> <PUBCHEM_MMFF94_PARTIAL_CHARGES>
29
1 -0.19
10 0.3
11 -0.14
12 -0.14
13 0.23
14 0.14
15 -0.15
16 -0.15
17 0.14
18 -0.15
19 -0.15
2 -0.28
20 -0.15
21 -0.15
22 0.19
23 -0.15
3 -0.81
33 0.15
34 0.15
38 0.15
39 0.15
4 -0.57
40 0.15
41 0.15
42 0.15
5 0.18
6 0.27
8 0.27
9 0.41

> <PUBCHEM_EFFECTIVE_ROTOR_COUNT>
4

> <PUBCHEM_PHARMACOPHORE_FEATURES>
5
1 3 cation
5 2 4 10 13 14 rings
5 3 5 6 7 8 rings
6 11 12 15 16 20 21 rings
6 13 14 18 19 22 23 rings

> <PUBCHEM_HEAVY_ATOM_COUNT>
23

> <PUBCHEM_ATOM_DEF_STEREO_COUNT>
1

> <PUBCHEM_ATOM_UDEF_STEREO_COUNT>
0

> <PUBCHEM_BOND_DEF_STEREO_COUNT>
0

> <PUBCHEM_BOND_UDEF_STEREO_COUNT>
0

> <PUBCHEM_ISOTOPIC_ATOM_COUNT>
0

> <PUBCHEM_COMPONENT_COUNT>
1

> <PUBCHEM_CACTVS_TAUTO_COUNT>
1

> <PUBCHEM_CONFORMER_ID>
02BA9D1700000001

> <PUBCHEM_MMFF94_ENERGY>
48.531

> <PUBCHEM_FEATURE_SELFOVERLAP>
25.492

> <PUBCHEM_SHAPE_FINGERPRINT>
10 15 13406799952007539316
10299344 5 18413389843679775919
10595046 47 18408038490116177411
11315181 36 16343702149640493515
11524674 6 16272206410286793935
11646440 116 16153714210455246140
11719270 70 17703789181008727294
12107183 9 17544752331442025057
12166972 35 18334297573894403100
12236239 1 18413388722265803382
12643181 29 14548734015290502852
12730499 353 17530966852411726450
12788726 201 17274544213695766931
12916748 109 16370443328647127508
13167372 99 18335983060758058536
13533116 47 18342454803853771138
13690498 29 18129653240513199455
1420 363 16732986410022719251
14251752 14 18060137622114592913
14251764 18 18408040718977454741
14849402 71 18188779464600088260
14856354 85 18059859489403115103
14933364 13 18411139134265505517
15183329 4 18341610408376116605
16993438 75 18116158955116476195
17093844 174 16486965203167141195
17844677 252 18202002148881006081
18335252 98 18260555549559432307
19489759 90 8358259250729200039
200 152 18413387635496737354
20157964 124 18186803578586534066
21150785 3 18343587361001795676
220451 1 18343581841278022575
22224240 67 15936411156089177993
23035841 295 18272931618234687147
23081809 10 18412254034697897047
23198884 109 18334014986726150649
23402539 116 18342171159422255525
23516275 137 18199208212378723403
23522609 53 18267608882112996289
23536379 177 18410854339289416691
23559900 14 17846206795702038089
23569943 247 17025141926563830770
2838139 119 17531242885532997724
29717793 49 18131356280944941310
3004659 81 18342738490633001050
314173 85 14979955873964780875
335352 9 18131346407211045845
34797466 226 16343985836757788440
3545911 37 17967251996655084066
397830 11 15069489174487097348
4073 2 18040439927306911890
4325135 7 18335138700505169629
4340502 62 15502374513493393442
5265222 85 18130505356996437863
5283156 175 17632298939523660950
542803 24 18411415103020133735
5758199 1 17967817149689319136
59682541 35 16226056613018737681
59755656 215 15410621358924412940
59755656 520 17313103064100534067
9996256 80 18261108564962977021
999808 66 18188218693223312075

> <PUBCHEM_SHAPE_MULTIPOLES>
450.22
19.59
1.57
1.01
3.87
0.19
-0.18
-2.57
2.89
-0.58
0.19
-0.17
-0.02
-1.37

> <PUBCHEM_SHAPE_SELFOVERLAP>
989.375

> <PUBCHEM_SHAPE_VOLUME>
246.9

> <PUBCHEM_COORDINATE_TYPE>
2
5
10

$$$$
