7114630
  -OEChem-12032416163D

 58 59  0     1  0  0  0  0  0999 V2000
    4.4421   -3.9360    0.2733 S   0  0  0  0  0  0  0  0  0  0  0  0
    0.9655    0.5913   -1.7963 O   0  0  0  0  0  0  0  0  0  0  0  0
    1.2088    4.5681   -1.0418 O   0  0  0  0  0  0  0  0  0  0  0  0
    3.1544    4.3241    0.5484 O   0  0  0  0  0  0  0  0  0  0  0  0
   -3.8221   -1.3799   -0.0842 O   0  0  0  0  0  0  0  0  0  0  0  0
   -6.2403   -1.6126    1.0753 O   0  0  0  0  0  0  0  0  0  0  0  0
   -1.1776   -2.6912   -1.1012 O   0  0  0  0  0  0  0  0  0  0  0  0
    0.0942    2.6209   -0.4197 N   0  0  0  0  0  0  0  0  0  0  0  0
   -3.7165    0.9004    0.3638 N   0  0  0  0  0  0  0  0  0  0  0  0
    0.6896   -0.9537   -0.0770 N   0  0  0  0  0  0  0  0  0  0  0  0
    0.3151   -3.2084   -2.7689 N   0  0  0  0  0  0  0  0  0  0  0  0
   -2.4214    1.1527   -0.2203 C   0  0  2  0  0  0  0  0  0  0  0  0
    0.0782    1.3334    0.2937 C   0  0  1  0  0  0  0  0  0  0  0  0
   -1.3094    0.9495    0.8127 C   0  0  0  0  0  0  0  0  0  0  0  0
   -2.3570    2.5655   -0.7963 C   0  0  0  0  0  0  0  0  0  0  0  0
   -0.9833    2.8477   -1.3902 C   0  0  0  0  0  0  0  0  0  0  0  0
    0.6323    0.3056   -0.6492 C   0  0  0  0  0  0  0  0  0  0  0  0
    1.1344    3.5546   -0.3419 C   0  0  0  0  0  0  0  0  0  0  0  0
    1.1635   -2.1220   -0.7832 C   0  0  1  0  0  0  0  0  0  0  0  0
   -4.3095   -0.3536    0.3816 C   0  0  0  0  0  0  0  0  0  0  0  0
    2.2136    3.2865    0.6777 C   0  0  0  0  0  0  0  0  0  0  0  0
    1.7667   -3.1684    0.1618 C   0  0  0  0  0  0  0  0  0  0  0  0
   -5.6637   -0.3241    1.0578 C   0  0  0  0  0  0  0  0  0  0  0  0
   -0.0266   -2.7055   -1.5310 C   0  0  0  0  0  0  0  0  0  0  0  0
    3.1772   -2.8223    0.5765 C   0  0  0  0  0  0  0  0  0  0  0  0
    3.6319   -1.6806    1.1991 C   0  0  0  0  0  0  0  0  0  0  0  0
    4.2367    4.1845    1.4673 C   0  0  0  0  0  0  0  0  0  0  0  0
    5.0373   -1.7208    1.4301 C   0  0  0  0  0  0  0  0  0  0  0  0
    5.6031   -2.8915    0.9754 C   0  0  0  0  0  0  0  0  0  0  0  0
   -7.5174   -1.6144    1.7069 C   0  0  0  0  0  0  0  0  0  0  0  0
   -2.2770    0.4322   -1.0358 H   0  0  0  0  0  0  0  0  0  0  0  0
    0.7550    1.3698    1.1523 H   0  0  0  0  0  0  0  0  0  0  0  0
   -1.5289    1.5928    1.6774 H   0  0  0  0  0  0  0  0  0  0  0  0
   -1.3492   -0.0736    1.2016 H   0  0  0  0  0  0  0  0  0  0  0  0
   -3.1266    2.6963   -1.5665 H   0  0  0  0  0  0  0  0  0  0  0  0
   -2.5722    3.2999   -0.0088 H   0  0  0  0  0  0  0  0  0  0  0  0
   -0.9569    3.8820   -1.7495 H   0  0  0  0  0  0  0  0  0  0  0  0
   -0.8082    2.2106   -2.2632 H   0  0  0  0  0  0  0  0  0  0  0  0
   -4.1860    1.6702    0.8324 H   0  0  0  0  0  0  0  0  0  0  0  0
    0.4017   -1.0786    0.8883 H   0  0  0  0  0  0  0  0  0  0  0  0
    1.9118   -1.7937   -1.5164 H   0  0  0  0  0  0  0  0  0  0  0  0
    1.7768    3.2978    1.6814 H   0  0  0  0  0  0  0  0  0  0  0  0
    2.6916    2.3247    0.4660 H   0  0  0  0  0  0  0  0  0  0  0  0
    1.7544   -4.1516   -0.3268 H   0  0  0  0  0  0  0  0  0  0  0  0
    1.1515   -3.2728    1.0656 H   0  0  0  0  0  0  0  0  0  0  0  0
   -6.3111    0.3676    0.5063 H   0  0  0  0  0  0  0  0  0  0  0  0
   -5.5317    0.0393    2.0836 H   0  0  0  0  0  0  0  0  0  0  0  0
    2.9974   -0.8528    1.4873 H   0  0  0  0  0  0  0  0  0  0  0  0
   -0.3883   -3.6132   -3.3778 H   0  0  0  0  0  0  0  0  0  0  0  0
    1.2697   -3.2106   -3.1135 H   0  0  0  0  0  0  0  0  0  0  0  0
    4.9266    5.0186    1.3140 H   0  0  0  0  0  0  0  0  0  0  0  0
    4.7715    3.2473    1.2860 H   0  0  0  0  0  0  0  0  0  0  0  0
    3.8682    4.2169    2.4970 H   0  0  0  0  0  0  0  0  0  0  0  0
    5.6041   -0.9318    1.9071 H   0  0  0  0  0  0  0  0  0  0  0  0
    6.6428   -3.1835    1.0224 H   0  0  0  0  0  0  0  0  0  0  0  0
   -7.4286   -1.2921    2.7487 H   0  0  0  0  0  0  0  0  0  0  0  0
   -8.2113   -0.9629    1.1671 H   0  0  0  0  0  0  0  0  0  0  0  0
   -7.9083   -2.6352    1.6879 H   0  0  0  0  0  0  0  0  0  0  0  0
  1 25  1  0  0  0  0
  1 29  1  0  0  0  0
  2 17  2  0  0  0  0
  3 18  2  0  0  0  0
  4 21  1  0  0  0  0
  4 27  1  0  0  0  0
  5 20  2  0  0  0  0
  6 23  1  0  0  0  0
  6 30  1  0  0  0  0
  7 24  2  0  0  0  0
  8 13  1  0  0  0  0
  8 16  1  0  0  0  0
  8 18  1  0  0  0  0
  9 12  1  0  0  0  0
  9 20  1  0  0  0  0
  9 39  1  0  0  0  0
 10 17  1  0  0  0  0
 10 19  1  0  0  0  0
 10 40  1  0  0  0  0
 11 24  1  0  0  0  0
 11 49  1  0  0  0  0
 11 50  1  0  0  0  0
 12 14  1  0  0  0  0
 12 15  1  0  0  0  0
 12 31  1  0  0  0  0
 13 14  1  0  0  0  0
 13 17  1  0  0  0  0
 13 32  1  0  0  0  0
 14 33  1  0  0  0  0
 14 34  1  0  0  0  0
 15 16  1  0  0  0  0
 15 35  1  0  0  0  0
 15 36  1  0  0  0  0
 16 37  1  0  0  0  0
 16 38  1  0  0  0  0
 18 21  1  0  0  0  0
 19 22  1  0  0  0  0
 19 24  1  0  0  0  0
 19 41  1  0  0  0  0
 20 23  1  0  0  0  0
 21 42  1  0  0  0  0
 21 43  1  0  0  0  0
 22 25  1  0  0  0  0
 22 44  1  0  0  0  0
 22 45  1  0  0  0  0
 23 46  1  0  0  0  0
 23 47  1  0  0  0  0
 25 26  2  0  0  0  0
 26 28  1  0  0  0  0
 26 48  1  0  0  0  0
 27 51  1  0  0  0  0
 27 52  1  0  0  0  0
 27 53  1  0  0  0  0
 28 29  2  0  0  0  0
 28 54  1  0  0  0  0
 29 55  1  0  0  0  0
 30 56  1  0  0  0  0
 30 57  1  0  0  0  0
 30 58  1  0  0  0  0
M  END
> <PUBCHEM_COMPOUND_CID>
7114630

> <PUBCHEM_CONFORMER_RMSD>
1.2

> <PUBCHEM_CONFORMER_DIVERSEORDER>
1
9
24
16
22
2
18
6
15
7
21
20
19
23
8
17
4
25
11
12
3
13
10
5
14

> <PUBCHEM_MMFF94_PARTIAL_CHARGES>
35
1 -0.08
10 -0.73
11 -0.8
12 0.3
13 0.36
16 0.3
17 0.57
18 0.57
19 0.36
2 -0.57
20 0.57
21 0.34
22 0.18
23 0.34
24 0.57
25 -0.14
26 -0.15
27 0.28
28 -0.15
29 -0.11
3 -0.57
30 0.28
39 0.37
4 -0.56
40 0.37
48 0.15
49 0.37
5 -0.57
50 0.37
54 0.15
55 0.15
6 -0.56
7 -0.57
8 -0.66
9 -0.73

> <PUBCHEM_EFFECTIVE_ROTOR_COUNT>
14.2

> <PUBCHEM_PHARMACOPHORE_FEATURES>
11
1 10 donor
1 11 donor
1 2 acceptor
1 3 acceptor
1 4 acceptor
1 5 acceptor
1 6 acceptor
1 7 acceptor
1 9 donor
5 1 25 26 28 29 rings
6 8 12 13 14 15 16 rings

> <PUBCHEM_HEAVY_ATOM_COUNT>
30

> <PUBCHEM_ATOM_DEF_STEREO_COUNT>
3

> <PUBCHEM_ATOM_UDEF_STEREO_COUNT>
0

> <PUBCHEM_BOND_DEF_STEREO_COUNT>
0

> <PUBCHEM_BOND_UDEF_STEREO_COUNT>
0

> <PUBCHEM_ISOTOPIC_ATOM_COUNT>
0

> <PUBCHEM_COMPONENT_COUNT>
1

> <PUBCHEM_CACTVS_TAUTO_COUNT>
8

> <PUBCHEM_CONFORMER_ID>
006C8F8600000001

> <PUBCHEM_MMFF94_ENERGY>
62.111

> <PUBCHEM_FEATURE_SELFOVERLAP>
55.849

> <PUBCHEM_SHAPE_FINGERPRINT>
10169797 241 18193585426326208715
12422481 6 18343580707849898307
12717326 69 17608101080724745963
13083527 12 18188217493966950550
13540713 4 18187070751243755533
14363568 33 18340477903501026920
14444916 359 18266457805988936688
14866123 147 17907848858441487064
14955137 171 18340769217735985950
15324884 4 17980162380663673288
15420108 30 17914053354927291135
15927050 60 18052821635421672542
16120349 306 17982449596645500593
17852330 53 18128845047984868451
19611394 137 18334014965463064922
1979834 28 17845950533001681671
20642791 268 17773325539065069657
22956985 138 18333733507322850568
23419403 2 18042104518991272181
469060 322 17768773564767487447
5309563 4 18267575802648766480
6004065 56 18053362324681581021

> <PUBCHEM_SHAPE_MULTIPOLES>
566.1
11.99
6.95
1.66
13.47
7.25
0.58
-13.09
-9.65
-7.57
0.29
0.19
-0.72
1.97

> <PUBCHEM_SHAPE_SELFOVERLAP>
1142.63

> <PUBCHEM_SHAPE_VOLUME>
330.3

> <PUBCHEM_COORDINATE_TYPE>
2
5
10

$$$$
