7143818
  -OEChem-12032416283D

 52 56  0     1  0  0  0  0  0999 V2000
    1.8409   -1.3841   -0.9899 S   0  0  0  0  0  0  0  0  0  0  0  0
    1.8124   -1.4964   -2.4329 O   0  0  0  0  0  0  0  0  0  0  0  0
    1.4184   -2.4843   -0.1489 O   0  0  0  0  0  0  0  0  0  0  0  0
   -3.7863    0.8838   -1.6249 O   0  0  0  0  0  0  0  0  0  0  0  0
   -5.7207   -1.0201   -0.8695 O   0  0  0  0  0  0  0  0  0  0  0  0
    7.3237    0.1031    0.5919 O   0  0  0  0  0  0  0  0  0  0  0  0
    0.9993    0.0300   -0.5214 N   0  0  2  0  0  0  0  0  0  0  0  0
   -1.9311    1.1778   -0.2425 N   0  0  0  0  0  0  0  0  0  0  0  0
    0.2086    2.3421   -1.0341 C   0  0  1  0  0  0  0  0  0  0  0  0
    0.0644    1.4869    1.2634 C   0  0  2  0  0  0  0  0  0  0  0  0
    0.3723    2.7278    0.4300 C   0  0  0  0  0  0  0  0  0  0  0  0
    1.1839    1.2140   -1.4084 C   0  0  0  0  0  0  0  0  0  0  0  0
    1.0781    0.3776    0.9290 C   0  0  0  0  0  0  0  0  0  0  0  0
   -1.2548    1.9592   -1.2873 C   0  0  0  0  0  0  0  0  0  0  0  0
   -1.3513    1.0002    1.0158 C   0  0  0  0  0  0  0  0  0  0  0  0
   -2.0365    0.3834    1.9918 C   0  0  0  0  0  0  0  0  0  0  0  0
   -3.2283    0.7149   -0.5392 C   0  0  0  0  0  0  0  0  0  0  0  0
   -3.9574   -0.0045    0.5637 C   0  0  0  0  0  0  0  0  0  0  0  0
   -3.3560   -0.1302    1.7562 C   0  0  0  0  0  0  0  0  0  0  0  0
    3.4825   -0.9386   -0.5163 C   0  0  0  0  0  0  0  0  0  0  0  0
   -5.3002   -0.5710    0.3484 C   0  0  0  0  0  0  0  0  0  0  0  0
    3.9255   -1.2417    0.7606 C   0  0  0  0  0  0  0  0  0  0  0  0
    4.3000   -0.2934   -1.4296 C   0  0  0  0  0  0  0  0  0  0  0  0
    5.2223   -0.8898    1.1350 C   0  0  0  0  0  0  0  0  0  0  0  0
    5.5969    0.0586   -1.0553 C   0  0  0  0  0  0  0  0  0  0  0  0
   -6.3052   -0.7386    1.2822 C   0  0  0  0  0  0  0  0  0  0  0  0
    6.0579   -0.2397    0.2269 C   0  0  0  0  0  0  0  0  0  0  0  0
   -7.3975   -1.3214    0.5966 C   0  0  0  0  0  0  0  0  0  0  0  0
   -6.9920   -1.4728   -0.7090 C   0  0  0  0  0  0  0  0  0  0  0  0
    7.7305   -0.2326    1.9175 C   0  0  0  0  0  0  0  0  0  0  0  0
    0.4487    3.2058   -1.6669 H   0  0  0  0  0  0  0  0  0  0  0  0
    0.1816    1.7522    2.3225 H   0  0  0  0  0  0  0  0  0  0  0  0
   -0.3044    3.5510    0.6914 H   0  0  0  0  0  0  0  0  0  0  0  0
    1.3936    3.0781    0.6232 H   0  0  0  0  0  0  0  0  0  0  0  0
    1.0137    0.9305   -2.4523 H   0  0  0  0  0  0  0  0  0  0  0  0
    2.2084    1.5900   -1.3175 H   0  0  0  0  0  0  0  0  0  0  0  0
    2.0805    0.7405    1.1788 H   0  0  0  0  0  0  0  0  0  0  0  0
    0.8668   -0.5089    1.5375 H   0  0  0  0  0  0  0  0  0  0  0  0
   -1.8438    2.8806   -1.3938 H   0  0  0  0  0  0  0  0  0  0  0  0
   -1.3545    1.4268   -2.2416 H   0  0  0  0  0  0  0  0  0  0  0  0
   -1.6065    0.2259    2.9755 H   0  0  0  0  0  0  0  0  0  0  0  0
   -3.8206   -0.6465    2.5906 H   0  0  0  0  0  0  0  0  0  0  0  0
    3.2902   -1.7458    1.4826 H   0  0  0  0  0  0  0  0  0  0  0  0
    3.9598   -0.0495   -2.4313 H   0  0  0  0  0  0  0  0  0  0  0  0
    5.5157   -1.1507    2.1461 H   0  0  0  0  0  0  0  0  0  0  0  0
    6.2431    0.5656   -1.7666 H   0  0  0  0  0  0  0  0  0  0  0  0
   -6.2699   -0.4720    2.3295 H   0  0  0  0  0  0  0  0  0  0  0  0
   -8.3604   -1.5954    1.0028 H   0  0  0  0  0  0  0  0  0  0  0  0
   -7.4645   -1.8638   -1.5982 H   0  0  0  0  0  0  0  0  0  0  0  0
    7.7361   -1.3166    2.0744 H   0  0  0  0  0  0  0  0  0  0  0  0
    7.1297    0.2925    2.6679 H   0  0  0  0  0  0  0  0  0  0  0  0
    8.7628    0.1127    2.0360 H   0  0  0  0  0  0  0  0  0  0  0  0
  1  2  2  0  0  0  0
  1  3  2  0  0  0  0
  1  7  1  0  0  0  0
  1 20  1  0  0  0  0
  4 17  2  0  0  0  0
  5 21  1  0  0  0  0
  5 29  1  0  0  0  0
  6 27  1  0  0  0  0
  6 30  1  0  0  0  0
  7 12  1  0  0  0  0
  7 13  1  0  0  0  0
  8 14  1  0  0  0  0
  8 15  1  0  0  0  0
  8 17  1  0  0  0  0
  9 11  1  0  0  0  0
  9 12  1  0  0  0  0
  9 14  1  0  0  0  0
  9 31  1  0  0  0  0
 10 11  1  0  0  0  0
 10 13  1  0  0  0  0
 10 15  1  0  0  0  0
 10 32  1  0  0  0  0
 11 33  1  0  0  0  0
 11 34  1  0  0  0  0
 12 35  1  0  0  0  0
 12 36  1  0  0  0  0
 13 37  1  0  0  0  0
 13 38  1  0  0  0  0
 14 39  1  0  0  0  0
 14 40  1  0  0  0  0
 15 16  2  0  0  0  0
 16 19  1  0  0  0  0
 16 41  1  0  0  0  0
 17 18  1  0  0  0  0
 18 19  2  0  0  0  0
 18 21  1  0  0  0  0
 19 42  1  0  0  0  0
 20 22  2  0  0  0  0
 20 23  1  0  0  0  0
 21 26  2  0  0  0  0
 22 24  1  0  0  0  0
 22 43  1  0  0  0  0
 23 25  2  0  0  0  0
 23 44  1  0  0  0  0
 24 27  2  0  0  0  0
 24 45  1  0  0  0  0
 25 27  1  0  0  0  0
 25 46  1  0  0  0  0
 26 28  1  0  0  0  0
 26 47  1  0  0  0  0
 28 29  2  0  0  0  0
 28 48  1  0  0  0  0
 29 49  1  0  0  0  0
 30 50  1  0  0  0  0
 30 51  1  0  0  0  0
 30 52  1  0  0  0  0
M  END
> <PUBCHEM_COMPOUND_CID>
7143818

> <PUBCHEM_CONFORMER_RMSD>
0.8

> <PUBCHEM_CONFORMER_DIVERSEORDER>
1
12
7
9
15
3
13
6
14
8
2
5
11
4
10

> <PUBCHEM_MMFF94_PARTIAL_CHARGES>
37
1 1.45
10 0.14
12 0.36
13 0.36
14 0.3
15 -0.03
16 -0.15
17 0.62
18 0.06
19 -0.15
2 -0.65
20 -0.01
21 0.09
22 -0.15
23 -0.15
24 -0.15
25 -0.15
26 -0.15
27 0.08
28 -0.15
29 -0.01
3 -0.65
30 0.28
4 -0.57
41 0.15
42 0.15
43 0.15
44 0.15
45 0.15
46 0.15
47 0.15
48 0.15
49 0.15
5 -0.28
6 -0.36
7 -0.85
8 -0.47

> <PUBCHEM_EFFECTIVE_ROTOR_COUNT>
5

> <PUBCHEM_PHARMACOPHORE_FEATURES>
10
1 2 acceptor
1 3 acceptor
1 4 acceptor
1 5 acceptor
1 6 acceptor
5 5 21 26 28 29 rings
6 20 22 23 24 25 27 rings
6 7 9 10 11 12 13 rings
6 8 15 16 17 18 19 rings
6 8 9 10 11 14 15 rings

> <PUBCHEM_HEAVY_ATOM_COUNT>
30

> <PUBCHEM_ATOM_DEF_STEREO_COUNT>
2

> <PUBCHEM_ATOM_UDEF_STEREO_COUNT>
0

> <PUBCHEM_BOND_DEF_STEREO_COUNT>
0

> <PUBCHEM_BOND_UDEF_STEREO_COUNT>
0

> <PUBCHEM_ISOTOPIC_ATOM_COUNT>
0

> <PUBCHEM_COMPONENT_COUNT>
1

> <PUBCHEM_CACTVS_TAUTO_COUNT>
1

> <PUBCHEM_CONFORMER_ID>
006D018A00000001

> <PUBCHEM_MMFF94_ENERGY>
71.3

> <PUBCHEM_FEATURE_SELFOVERLAP>
52.355

> <PUBCHEM_SHAPE_FINGERPRINT>
10 15 14333413354656258251
10165383 225 11527950058273120401
10483366 6 13118273764083253432
106641 1 15697998565835209467
10930396 42 17969480758977000568
11135609 99 17845369028557180039
11578080 2 17700419070258086320
11828532 37 14346378847674681859
12107698 1 17967534584302852389
12516196 113 18202568371166795337
12596602 18 16271936982313753979
12633257 1 12751232567938176631
12892183 10 16629975308784038893
12977781 61 16517959465038974200
13914758 101 14634862037995733920
14068700 675 18342458166660150817
14341114 176 15051737469014309242
1454969 45 18410863183107068724
14849402 71 16701729579446979384
14955137 171 15195570112893425560
15052358 14 11963392929755637960
15183329 4 14056996122358205496
15188451 53 17313098632421680320
15475509 8 11241967075604928050
15728490 51 16916780829340293207
17349148 13 16588887676225082828
17492 89 18045216034299015962
1813 80 18272102569039828117
18335252 114 12540966443814277147
18393751 57 17846486068278462210
19315092 285 18196086647617406554
20511986 3 15719678757686571840
21365058 27 16128655267254191894
22079108 93 17275102826058999826
22149856 69 18200326428250229083
22224240 67 17704070707292637350
22956985 138 17979923709753722750
23559900 14 17023471974933896101
2747138 104 17918000490064823010
2838139 119 11602538736985011319
3009799 131 16732985344628184776
329604 57 17967257493933745853
3633792 109 14779269713834947644
3737641 26 17345482483015711015
404807 14 15724709869228695154
4058900 60 11023844863669740525
4066623 53 16515683372931818237
4098825 35 17530963575631254557
4149490 64 18197782314007162499
4280585 95 18040996280406408707
439807 62 17530970202850064175
463206 1 18270402827706938711
469060 322 18338780278737325270
474113 269 14563072704064141304
5104073 3 17344916217817015562
57724786 102 9582935953243047418
59682541 35 18201716293248383978
5969126 39 18187078438728553477
59755656 215 12324233966683202146
6081469 158 15357691977808137738
6086070 43 7997678780133952741
6126387 218 17989203734304959929
613672 6 18188228536296486419
6669772 16 17824545394786471056
6913067 236 18335425638685516404
9689198 14 14189575260632676378

> <PUBCHEM_SHAPE_MULTIPOLES>
581.93
18.41
2.06
1.87
0.25
0.88
0.03
-10.7
-3.61
0.54
0.37
-0.71
-0.1
-0.05

> <PUBCHEM_SHAPE_SELFOVERLAP>
1269.178

> <PUBCHEM_SHAPE_VOLUME>
317.2

> <PUBCHEM_COORDINATE_TYPE>
2
5
10

$$$$
