11886038
  -OEChem-12032416123D

 63 68  0     1  0  0  0  0  0999 V2000
   -6.9865    0.1554    0.3003 S   0  0  0  0  0  0  0  0  0  0  0  0
   -1.8701   -2.0580   -0.4605 O   0  0  0  0  0  0  0  0  0  0  0  0
   -3.0947   -0.9745    2.1629 O   0  0  0  0  0  0  0  0  0  0  0  0
    0.3029   -1.5268    1.1723 O   0  0  0  0  0  0  0  0  0  0  0  0
    1.3723    0.3970    0.5515 O   0  0  0  0  0  0  0  0  0  0  0  0
    7.6390   -0.4132   -1.0675 O   0  0  0  0  0  0  0  0  0  0  0  0
   -4.7777   -0.6450   -1.0738 N   0  0  0  0  0  0  0  0  0  0  0  0
   -4.2124   -0.5660   -2.2865 N   0  0  0  0  0  0  0  0  0  0  0  0
   -6.1527    0.5320   -2.2685 N   0  0  0  0  0  0  0  0  0  0  0  0
   -5.0581    0.1545   -3.0130 N   0  0  0  0  0  0  0  0  0  0  0  0
    2.4773   -1.6665    0.5892 N   0  0  0  0  0  0  0  0  0  0  0  0
   -3.1576   -0.5068    0.7975 C   0  0  1  0  0  0  0  0  0  0  0  0
   -1.7992   -0.7745    0.1802 C   0  0  1  0  0  0  0  0  0  0  0  0
   -4.1134   -1.3782    0.0062 C   0  0  2  0  0  0  0  0  0  0  0  0
   -0.8865   -0.8005    1.3830 C   0  0  1  0  0  0  0  0  0  0  0  0
   -3.2236   -2.5340   -0.4398 C   0  0  0  0  0  0  0  0  0  0  0  0
   -1.7649   -1.4386    2.4339 C   0  0  0  0  0  0  0  0  0  0  0  0
   -8.3615    1.1557   -0.3651 C   0  0  0  0  0  0  0  0  0  0  0  0
   -5.9588    0.0262   -1.0723 C   0  0  0  0  0  0  0  0  0  0  0  0
   -8.0342    2.6454   -0.3327 C   0  0  0  0  0  0  0  0  0  0  0  0
   -9.5989    1.0710    0.5232 C   0  0  0  0  0  0  0  0  0  0  0  0
   -8.3608    3.1001    1.0885 C   0  0  0  0  0  0  0  0  0  0  0  0
   -9.3632    2.0857    1.6403 C   0  0  0  0  0  0  0  0  0  0  0  0
    1.4031   -0.8122    0.7454 C   0  0  0  0  0  0  0  0  0  0  0  0
    3.7890   -1.3479    0.1698 C   0  0  0  0  0  0  0  0  0  0  0  0
    4.7524   -2.3517    0.0697 C   0  0  0  0  0  0  0  0  0  0  0  0
    4.1196   -0.0300   -0.1453 C   0  0  0  0  0  0  0  0  0  0  0  0
    6.0464   -2.0376   -0.3454 C   0  0  0  0  0  0  0  0  0  0  0  0
    5.4136    0.2843   -0.5604 C   0  0  0  0  0  0  0  0  0  0  0  0
    6.3771   -0.7195   -0.6604 C   0  0  0  0  0  0  0  0  0  0  0  0
    8.2413    0.7036   -0.5126 C   0  0  0  0  0  0  0  0  0  0  0  0
    8.1647    0.9268    0.8622 C   0  0  0  0  0  0  0  0  0  0  0  0
    8.9236    1.6060   -1.3286 C   0  0  0  0  0  0  0  0  0  0  0  0
    8.7704    2.0522    1.4210 C   0  0  0  0  0  0  0  0  0  0  0  0
    9.5294    2.7312   -0.7698 C   0  0  0  0  0  0  0  0  0  0  0  0
    9.4528    2.9544    0.6050 C   0  0  0  0  0  0  0  0  0  0  0  0
   -3.4173    0.5561    0.8261 H   0  0  0  0  0  0  0  0  0  0  0  0
   -1.5038   -0.0430   -0.5775 H   0  0  0  0  0  0  0  0  0  0  0  0
   -4.9163   -1.7898    0.6280 H   0  0  0  0  0  0  0  0  0  0  0  0
   -0.6847    0.2291    1.7092 H   0  0  0  0  0  0  0  0  0  0  0  0
   -3.4795   -2.9555   -1.4164 H   0  0  0  0  0  0  0  0  0  0  0  0
   -3.2601   -3.3476    0.2936 H   0  0  0  0  0  0  0  0  0  0  0  0
   -1.7524   -2.5329    2.3792 H   0  0  0  0  0  0  0  0  0  0  0  0
   -1.4750   -1.1530    3.4496 H   0  0  0  0  0  0  0  0  0  0  0  0
   -8.6028    0.8118   -1.3760 H   0  0  0  0  0  0  0  0  0  0  0  0
   -8.6979    3.1722   -1.0307 H   0  0  0  0  0  0  0  0  0  0  0  0
   -7.0078    2.8920   -0.6224 H   0  0  0  0  0  0  0  0  0  0  0  0
   -9.8055    0.0668    0.9074 H   0  0  0  0  0  0  0  0  0  0  0  0
  -10.4790    1.3820   -0.0545 H   0  0  0  0  0  0  0  0  0  0  0  0
   -8.7675    4.1165    1.0955 H   0  0  0  0  0  0  0  0  0  0  0  0
   -7.4568    3.1067    1.7083 H   0  0  0  0  0  0  0  0  0  0  0  0
   -8.9466    1.5932    2.5265 H   0  0  0  0  0  0  0  0  0  0  0  0
  -10.2993    2.5650    1.9445 H   0  0  0  0  0  0  0  0  0  0  0  0
    2.3070   -2.6465    0.8014 H   0  0  0  0  0  0  0  0  0  0  0  0
    4.5078   -3.3827    0.3120 H   0  0  0  0  0  0  0  0  0  0  0  0
    3.4257    0.7978   -0.0972 H   0  0  0  0  0  0  0  0  0  0  0  0
    6.7927   -2.8235   -0.4217 H   0  0  0  0  0  0  0  0  0  0  0  0
    5.6376    1.3152   -0.8223 H   0  0  0  0  0  0  0  0  0  0  0  0
    7.6585    0.2291    1.5239 H   0  0  0  0  0  0  0  0  0  0  0  0
    8.9859    1.4374   -2.4001 H   0  0  0  0  0  0  0  0  0  0  0  0
    8.7151    2.2236    2.4921 H   0  0  0  0  0  0  0  0  0  0  0  0
   10.0608    3.4337   -1.4052 H   0  0  0  0  0  0  0  0  0  0  0  0
    9.9254    3.8300    1.0401 H   0  0  0  0  0  0  0  0  0  0  0  0
  1 18  1  0  0  0  0
  1 19  1  0  0  0  0
  2 13  1  0  0  0  0
  2 16  1  0  0  0  0
  3 12  1  0  0  0  0
  3 17  1  0  0  0  0
  4 15  1  0  0  0  0
  4 24  1  0  0  0  0
  5 24  2  0  0  0  0
  6 30  1  0  0  0  0
  6 31  1  0  0  0  0
  7  8  1  0  0  0  0
  7 14  1  0  0  0  0
  7 19  1  0  0  0  0
  8 10  2  0  0  0  0
  9 10  1  0  0  0  0
  9 19  2  0  0  0  0
 11 24  1  0  0  0  0
 11 25  1  0  0  0  0
 11 54  1  0  0  0  0
 12 13  1  0  0  0  0
 12 14  1  0  0  0  0
 12 37  1  0  0  0  0
 13 15  1  0  0  0  0
 13 38  1  0  0  0  0
 14 16  1  0  0  0  0
 14 39  1  0  0  0  0
 15 17  1  0  0  0  0
 15 40  1  0  0  0  0
 16 41  1  0  0  0  0
 16 42  1  0  0  0  0
 17 43  1  0  0  0  0
 17 44  1  0  0  0  0
 18 20  1  0  0  0  0
 18 21  1  0  0  0  0
 18 45  1  0  0  0  0
 20 22  1  0  0  0  0
 20 46  1  0  0  0  0
 20 47  1  0  0  0  0
 21 23  1  0  0  0  0
 21 48  1  0  0  0  0
 21 49  1  0  0  0  0
 22 23  1  0  0  0  0
 22 50  1  0  0  0  0
 22 51  1  0  0  0  0
 23 52  1  0  0  0  0
 23 53  1  0  0  0  0
 25 26  2  0  0  0  0
 25 27  1  0  0  0  0
 26 28  1  0  0  0  0
 26 55  1  0  0  0  0
 27 29  2  0  0  0  0
 27 56  1  0  0  0  0
 28 30  2  0  0  0  0
 28 57  1  0  0  0  0
 29 30  1  0  0  0  0
 29 58  1  0  0  0  0
 31 32  2  0  0  0  0
 31 33  1  0  0  0  0
 32 34  1  0  0  0  0
 32 59  1  0  0  0  0
 33 35  2  0  0  0  0
 33 60  1  0  0  0  0
 34 36  2  0  0  0  0
 34 61  1  0  0  0  0
 35 36  1  0  0  0  0
 35 62  1  0  0  0  0
 36 63  1  0  0  0  0
M  END
> <PUBCHEM_COMPOUND_CID>
11886038

> <PUBCHEM_CONFORMER_RMSD>
1.2

> <PUBCHEM_CONFORMER_DIVERSEORDER>
1
52
51
5
64
6
28
9
49
42
46
17
41
47
7
23
56
60
19
25
65
31
39
62
45
43
13
18
54
57
59
69
37
10
67
73
2
63
21
22
66
26
33
53
11
58
14
15
48
38
12
36
68
74
44
32
24
27
71
61
20
30
4
72
29
55
3
40
16
8
70
34
50
35

> <PUBCHEM_MMFF94_PARTIAL_CHARGES>
41
1 -0.29
11 -0.55
12 0.28
13 0.28
14 0.26
15 0.28
16 0.28
17 0.28
18 0.23
19 0.24
2 -0.56
24 0.78
25 0.12
26 -0.15
27 -0.15
28 -0.15
29 -0.15
3 -0.56
30 0.08
31 0.08
32 -0.15
33 -0.15
34 -0.15
35 -0.15
36 -0.15
4 -0.43
5 -0.57
54 0.37
55 0.15
56 0.15
57 0.15
58 0.15
59 0.15
6 -0.17
60 0.15
61 0.15
62 0.15
63 0.15
7 0.31
8 -0.42
9 -0.34

> <PUBCHEM_EFFECTIVE_ROTOR_COUNT>
11.2

> <PUBCHEM_PHARMACOPHORE_FEATURES>
12
1 11 donor
1 2 acceptor
1 3 acceptor
1 5 acceptor
1 6 acceptor
3 7 9 19 cation
5 18 20 21 22 23 rings
5 2 12 13 14 16 rings
5 3 12 13 15 17 rings
5 7 8 9 10 19 rings
6 25 26 27 28 29 30 rings
6 31 32 33 34 35 36 rings

> <PUBCHEM_HEAVY_ATOM_COUNT>
36

> <PUBCHEM_ATOM_DEF_STEREO_COUNT>
4

> <PUBCHEM_ATOM_UDEF_STEREO_COUNT>
0

> <PUBCHEM_BOND_DEF_STEREO_COUNT>
0

> <PUBCHEM_BOND_UDEF_STEREO_COUNT>
0

> <PUBCHEM_ISOTOPIC_ATOM_COUNT>
0

> <PUBCHEM_COMPONENT_COUNT>
1

> <PUBCHEM_CACTVS_TAUTO_COUNT>
2

> <PUBCHEM_CONFORMER_ID>
00B55DD600000001

> <PUBCHEM_MMFF94_ENERGY>
105.0034

> <PUBCHEM_FEATURE_SELFOVERLAP>
61.6

> <PUBCHEM_SHAPE_FINGERPRINT>
10 15 15864073144527933675
10029044 110 18334857234134834864
10190206 1 16343427194745853059
10280341 67 16588846993973012045
10369192 42 18187645753212746863
10533779 47 15285627778263801840
11181472 205 17845662430130173922
11408170 132 17489300880720330096
11456790 92 14562529587472873732
11534866 41 7997699710169930904
11578821 258 18338800130172034588
11607047 141 17677042440441288890
11621639 179 18338787927868973989
11621639 254 18272371941442777377
11828042 74 16988275474084274607
12144603 126 18060138730084611317
13008946 119 17749388174221511763
13165054 301 18189611654128568045
13530399 1 18341616958861548897
13627175 4 10807940328107819804
13740195 50 15502377846483323749
14040221 8 15985111790775467889
14117953 113 14405179560795877741
14340393 48 18186526518678942476
15183329 4 18343015563015233655
15198563 99 15123515761714341851
15461852 350 13614248065893538633
15604295 49 18411698824371073432
16067689 68 8934994868434630233
16991971 28 13686299106286334114
1754911 235 17561085834961823676
1768 4 17894633643508597045
17852330 134 18202561804399735584
19302320 297 16443352005157381964
20156587 128 17560528309694229846
2026 5 10375883960997177740
21033648 29 17603304873707954746
21307412 95 14405172985765450543
21795232 338 18260835930221861571
21895431 317 9655310211436711708
23576562 1 16701162239620249112
3633792 109 17988925574446974490
3711267 37 18410587175186700793
4339292 15 12823300074697177128
44280117 145 18263649640216784171
44575985 287 18340775948277553336
4516262 110 18188763947779247191
45270241 37 18342463600057907902
4760202 170 18060418045605856984
504579 68 17060338556863227602
5470011 282 17418378000078277318
57035037 87 18131917056875193340
5937810 71 18411980260945844221
6698420 124 17968384442097829227
9689198 14 18114748110720941407

> <PUBCHEM_SHAPE_MULTIPOLES>
690.46
39.09
3
1.87
18.12
1.46
-0.43
39.51
-3
1.34
0.57
-2.65
0
-0.86

> <PUBCHEM_SHAPE_SELFOVERLAP>
1490.836

> <PUBCHEM_SHAPE_VOLUME>
381

> <PUBCHEM_COORDINATE_TYPE>
2
5
10

$$$$
