45783634
  -OEChem-12032416203D

 57 60  0     1  0  0  0  0  0999 V2000
   -2.0785    2.3878   -1.4993 O   0  0  0  0  0  0  0  0  0  0  0  0
    5.3060   -1.0387    1.4507 O   0  0  0  0  0  0  0  0  0  0  0  0
    7.8711   -1.4366    1.2141 O   0  0  0  0  0  0  0  0  0  0  0  0
   -3.8833    0.4577    1.0548 N   0  0  1  0  0  0  0  0  0  0  0  0
   -3.8204   -3.4473   -0.6218 N   0  0  0  0  0  0  0  0  0  0  0  0
   -1.1367    1.1757    0.1319 N   0  0  0  0  0  0  0  0  0  0  0  0
   -0.7191    2.2900   -1.8220 N   0  0  0  0  0  0  0  0  0  0  0  0
    3.3796    1.2963   -1.6602 N   0  0  0  0  0  0  0  0  0  0  0  0
    5.1590    0.2167   -0.5369 N   0  0  0  0  0  0  0  0  0  0  0  0
   -4.3012   -0.7020    0.2705 C   0  0  0  0  0  0  0  0  0  0  0  0
   -3.6420    1.6602    0.2326 C   0  0  1  0  0  0  0  0  0  0  0  0
   -4.8822    0.8346    2.0552 C   0  0  0  0  0  0  0  0  0  0  0  0
   -4.5224   -1.9089    1.1858 C   0  0  0  0  0  0  0  0  0  0  0  0
   -3.2613   -1.0427   -0.8009 C   0  0  0  0  0  0  0  0  0  0  0  0
   -3.9411    2.8430    1.1721 C   0  0  0  0  0  0  0  0  0  0  0  0
   -4.4008    2.2081    2.4769 C   0  0  0  0  0  0  0  0  0  0  0  0
   -4.8643   -3.1596    0.3717 C   0  0  0  0  0  0  0  0  0  0  0  0
   -3.6441   -2.3217   -1.5500 C   0  0  0  0  0  0  0  0  0  0  0  0
   -2.2390    1.7052   -0.3354 C   0  0  0  0  0  0  0  0  0  0  0  0
   -4.1365   -4.6719   -1.3564 C   0  0  0  0  0  0  0  0  0  0  0  0
   -0.2315    1.5611   -0.8136 C   0  0  0  0  0  0  0  0  0  0  0  0
    1.1541    1.2023   -0.7203 C   0  0  0  0  0  0  0  0  0  0  0  0
    1.6278    0.4436    0.3443 C   0  0  0  0  0  0  0  0  0  0  0  0
    2.0625    1.6002   -1.6879 C   0  0  0  0  0  0  0  0  0  0  0  0
    2.9764    0.1108    0.4079 C   0  0  0  0  0  0  0  0  0  0  0  0
    3.8034    0.5576   -0.6103 C   0  0  0  0  0  0  0  0  0  0  0  0
    5.8061   -0.5325    0.4509 C   0  0  0  0  0  0  0  0  0  0  0  0
    7.2872   -0.6765    0.1764 C   0  0  0  0  0  0  0  0  0  0  0  0
    9.2711   -1.6126    1.0195 C   0  0  0  0  0  0  0  0  0  0  0  0
   -5.2512   -0.4823   -0.2386 H   0  0  0  0  0  0  0  0  0  0  0  0
   -4.3591    1.7108   -0.5993 H   0  0  0  0  0  0  0  0  0  0  0  0
   -4.8987    0.1642    2.9196 H   0  0  0  0  0  0  0  0  0  0  0  0
   -5.8910    0.9014    1.6284 H   0  0  0  0  0  0  0  0  0  0  0  0
   -5.3487   -1.7373    1.8847 H   0  0  0  0  0  0  0  0  0  0  0  0
   -3.6240   -2.1021    1.7878 H   0  0  0  0  0  0  0  0  0  0  0  0
   -2.2708   -1.1860   -0.3508 H   0  0  0  0  0  0  0  0  0  0  0  0
   -3.1896   -0.2606   -1.5622 H   0  0  0  0  0  0  0  0  0  0  0  0
   -3.0825    3.5019    1.3414 H   0  0  0  0  0  0  0  0  0  0  0  0
   -4.7533    3.4500    0.7536 H   0  0  0  0  0  0  0  0  0  0  0  0
   -5.1825    2.7943    2.9690 H   0  0  0  0  0  0  0  0  0  0  0  0
   -3.5529    2.1219    3.1679 H   0  0  0  0  0  0  0  0  0  0  0  0
   -4.9569   -4.0036    1.0661 H   0  0  0  0  0  0  0  0  0  0  0  0
   -5.8406   -3.0284   -0.1135 H   0  0  0  0  0  0  0  0  0  0  0  0
   -4.5591   -2.1488   -2.1322 H   0  0  0  0  0  0  0  0  0  0  0  0
   -2.8434   -2.5522   -2.2635 H   0  0  0  0  0  0  0  0  0  0  0  0
   -4.2181   -5.5221   -0.6702 H   0  0  0  0  0  0  0  0  0  0  0  0
   -5.0751   -4.5887   -1.9161 H   0  0  0  0  0  0  0  0  0  0  0  0
   -3.3344   -4.9152   -2.0621 H   0  0  0  0  0  0  0  0  0  0  0  0
    0.9681    0.0989    1.1367 H   0  0  0  0  0  0  0  0  0  0  0  0
    1.7740    2.1939   -2.5503 H   0  0  0  0  0  0  0  0  0  0  0  0
    3.2698   -0.4785    1.2610 H   0  0  0  0  0  0  0  0  0  0  0  0
    5.7229    0.5684   -1.3069 H   0  0  0  0  0  0  0  0  0  0  0  0
    7.7383    0.3214    0.1377 H   0  0  0  0  0  0  0  0  0  0  0  0
    7.4205   -1.1835   -0.7859 H   0  0  0  0  0  0  0  0  0  0  0  0
    9.4621   -2.1496    0.0854 H   0  0  0  0  0  0  0  0  0  0  0  0
    9.7799   -0.6439    1.0095 H   0  0  0  0  0  0  0  0  0  0  0  0
    9.6616   -2.2053    1.8509 H   0  0  0  0  0  0  0  0  0  0  0  0
  1  7  1  0  0  0  0
  1 19  1  0  0  0  0
  2 27  2  0  0  0  0
  3 28  1  0  0  0  0
  3 29  1  0  0  0  0
  4 10  1  0  0  0  0
  4 11  1  0  0  0  0
  4 12  1  0  0  0  0
  5 17  1  0  0  0  0
  5 18  1  0  0  0  0
  5 20  1  0  0  0  0
  6 19  2  0  0  0  0
  6 21  1  0  0  0  0
  7 21  2  0  0  0  0
  8 24  1  0  0  0  0
  8 26  2  0  0  0  0
  9 26  1  0  0  0  0
  9 27  1  0  0  0  0
  9 52  1  0  0  0  0
 10 13  1  0  0  0  0
 10 14  1  0  0  0  0
 10 30  1  0  0  0  0
 11 15  1  0  0  0  0
 11 19  1  0  0  0  0
 11 31  1  0  0  0  0
 12 16  1  0  0  0  0
 12 32  1  0  0  0  0
 12 33  1  0  0  0  0
 13 17  1  0  0  0  0
 13 34  1  0  0  0  0
 13 35  1  0  0  0  0
 14 18  1  0  0  0  0
 14 36  1  0  0  0  0
 14 37  1  0  0  0  0
 15 16  1  0  0  0  0
 15 38  1  0  0  0  0
 15 39  1  0  0  0  0
 16 40  1  0  0  0  0
 16 41  1  0  0  0  0
 17 42  1  0  0  0  0
 17 43  1  0  0  0  0
 18 44  1  0  0  0  0
 18 45  1  0  0  0  0
 20 46  1  0  0  0  0
 20 47  1  0  0  0  0
 20 48  1  0  0  0  0
 21 22  1  0  0  0  0
 22 23  1  0  0  0  0
 22 24  2  0  0  0  0
 23 25  2  0  0  0  0
 23 49  1  0  0  0  0
 24 50  1  0  0  0  0
 25 26  1  0  0  0  0
 25 51  1  0  0  0  0
 27 28  1  0  0  0  0
 28 53  1  0  0  0  0
 28 54  1  0  0  0  0
 29 55  1  0  0  0  0
 29 56  1  0  0  0  0
 29 57  1  0  0  0  0
M  END
> <PUBCHEM_COMPOUND_CID>
45783634

> <PUBCHEM_CONFORMER_RMSD>
1

> <PUBCHEM_CONFORMER_DIVERSEORDER>
1
32
14
31
8
25
18
15
34
16
26
36
33
24
12
35
22
27
38
39
21
7
9
4
3
23
17
5
20
30
19
28
29
11
13
2
37
6
10

> <PUBCHEM_MMFF94_PARTIAL_CHARGES>
29
1 -0.02
10 0.27
11 0.45
12 0.27
17 0.27
18 0.27
19 0.3
2 -0.57
20 0.27
21 0.46
22 0.05
23 -0.15
24 0.16
25 -0.15
26 0.43
27 0.57
28 0.34
29 0.28
3 -0.56
4 -0.81
49 0.15
5 -0.81
50 0.15
51 0.15
52 0.37
6 -0.57
7 -0.41
8 -0.62
9 -0.55

> <PUBCHEM_EFFECTIVE_ROTOR_COUNT>
9.2

> <PUBCHEM_PHARMACOPHORE_FEATURES>
10
1 2 acceptor
1 3 acceptor
1 4 cation
1 5 cation
1 9 donor
3 6 7 21 cation
5 1 6 7 19 21 rings
5 4 11 12 15 16 rings
6 5 10 13 14 17 18 rings
6 8 22 23 24 25 26 rings

> <PUBCHEM_HEAVY_ATOM_COUNT>
29

> <PUBCHEM_ATOM_DEF_STEREO_COUNT>
1

> <PUBCHEM_ATOM_UDEF_STEREO_COUNT>
0

> <PUBCHEM_BOND_DEF_STEREO_COUNT>
0

> <PUBCHEM_BOND_UDEF_STEREO_COUNT>
0

> <PUBCHEM_ISOTOPIC_ATOM_COUNT>
0

> <PUBCHEM_COMPONENT_COUNT>
1

> <PUBCHEM_CACTVS_TAUTO_COUNT>
11

> <PUBCHEM_CONFORMER_ID>
02BA9A5200000001

> <PUBCHEM_MMFF94_ENERGY>
56.1654

> <PUBCHEM_FEATURE_SELFOVERLAP>
50.758

> <PUBCHEM_SHAPE_FINGERPRINT>
10 15 15984818208523436192
10319926 262 17918005966069146996
10622 236 18191868049087176463
11036077 4 18413395319815722097
11135926 11 15792012234559080024
11227150 75 16410105135681975463
11552529 35 18272657878604950313
11607047 403 17406540880889419352
11963148 33 18042677322665884802
12422481 6 18272378525099686238
12523318 42 18059863878506361129
12616971 3 18041292010131953916
12717326 25 16056607526034946934
13583140 156 16773800290114496513
13782708 43 18335411371284324256
14040221 310 16370996379106977766
14344974 204 18271524290860558310
14844126 61 18342745139463817955
14856354 85 18202565060074356580
14950920 106 18202281428728748896
15021287 119 17822298976571848732
15250474 111 18410296934033617438
15320294 125 18408893919106170455
15326921 28 17980483364918699433
15348495 7 17917709106815039776
16728300 4 17974031706534936275
17324776 126 17698141187071869486
1754908 1 18270385128742675498
17780758 139 18272370867114656497
17913733 40 15985110699864382462
18927931 339 17386013823173923425
21033648 29 16271942471282068553
21133410 221 17698463034809383519
21360442 33 17118870186912893031
23522609 53 18044972080257135676
23523787 8 11111179278792054451
312425 54 18059297557024795626
3504750 166 18411415094725578958
3711267 37 13613939173064838562
397830 11 18200861973051381144
4169191 19 12607397794203512600
484985 159 18409721885932751255
5104073 3 18201440319982854736
5364581 5 17703501211761812472
559249 180 18334296470693813205
58260988 114 18334579061961256631
6009941 240 17632296727219748344
6058803 2 18120396477620160397
636775 72 10015566326070064254
6431902 208 17821729433785625442
6691757 9 18201160958462148777
68570916 9 18411139165200954952
7970288 3 18117842329082853859
9953998 17 18343579616832947944

> <PUBCHEM_SHAPE_MULTIPOLES>
549.31
19.51
4.11
1.87
50.79
4.22
-0.17
13.71
-10.37
-9.05
0.94
-1
-0.69
-4.2

> <PUBCHEM_SHAPE_SELFOVERLAP>
1163.162

> <PUBCHEM_SHAPE_VOLUME>
308

> <PUBCHEM_COORDINATE_TYPE>
2
5
10

$$$$
