45361564
  -OEChem-12032416333D

 67 69  0     1  0  0  0  0  0999 V2000
    1.5978   -2.0283   -0.0973 O   0  0  0  0  0  0  0  0  0  0  0  0
    6.0575    0.4817    1.2481 O   0  0  0  0  0  0  0  0  0  0  0  0
   -4.3588    0.7724   -2.0493 O   0  0  0  0  0  0  0  0  0  0  0  0
   -3.3887    0.0870   -0.0581 N   0  0  0  0  0  0  0  0  0  0  0  0
    6.0116   -0.8770   -0.6312 N   0  0  0  0  0  0  0  0  0  0  0  0
   -8.2685   -1.0480    0.4760 N   0  0  0  0  0  0  0  0  0  0  0  0
    0.5988    1.6042    0.5210 C   0  0  1  0  0  0  0  0  0  0  0  0
    0.4668    0.1288    0.0163 C   0  0  2  0  0  0  0  0  0  0  0  0
   -0.9795   -0.4249    0.2797 C   0  0  1  0  0  0  0  0  0  0  0  0
    1.6290   -0.7563    0.5517 C   0  0  2  0  0  0  0  0  0  0  0  0
    1.9946    2.1551    0.1455 C   0  0  0  0  0  0  0  0  0  0  0  0
   -0.4593    2.4775   -0.1920 C   0  0  0  0  0  0  0  0  0  0  0  0
    3.0212   -0.1474    0.2640 C   0  0  1  0  0  0  0  0  0  0  0  0
   -2.0393    0.5026   -0.3785 C   0  0  2  0  0  0  0  0  0  0  0  0
    3.1353    1.3128    0.7013 C   0  0  0  0  0  0  0  0  0  0  0  0
   -1.8818    1.9736    0.0056 C   0  0  0  0  0  0  0  0  0  0  0  0
    0.4116    1.7263    2.0546 C   0  0  0  0  0  0  0  0  0  0  0  0
    4.1450   -0.9656    0.9120 C   0  0  2  0  0  0  0  0  0  0  0  0
   -1.1881   -1.8648   -0.2193 C   0  0  0  0  0  0  0  0  0  0  0  0
    3.9469   -1.0251    2.4225 C   0  0  0  0  0  0  0  0  0  0  0  0
    5.4999   -0.3641    0.5519 C   0  0  0  0  0  0  0  0  0  0  0  0
   -4.4452    0.2616   -0.9356 C   0  0  0  0  0  0  0  0  0  0  0  0
   -5.7721   -0.1941   -0.4471 C   0  0  0  0  0  0  0  0  0  0  0  0
    7.2814   -0.4596   -1.1792 C   0  0  0  0  0  0  0  0  0  0  0  0
    7.9429   -1.6082   -1.9306 C   0  0  0  0  0  0  0  0  0  0  0  0
    7.0959    0.7548   -2.0797 C   0  0  0  0  0  0  0  0  0  0  0  0
   -6.9343    0.3972   -0.9297 C   0  0  0  0  0  0  0  0  0  0  0  0
   -5.8566   -1.2119    0.4965 C   0  0  0  0  0  0  0  0  0  0  0  0
   -8.1468   -0.0616   -0.4407 C   0  0  0  0  0  0  0  0  0  0  0  0
   -7.1173   -1.5989    0.9217 C   0  0  0  0  0  0  0  0  0  0  0  0
    0.5782    0.1447   -1.0799 H   0  0  0  0  0  0  0  0  0  0  0  0
   -1.1586   -0.4482    1.3621 H   0  0  0  0  0  0  0  0  0  0  0  0
    1.4565   -0.9294    1.6155 H   0  0  0  0  0  0  0  0  0  0  0  0
    2.0927    2.1970   -0.9478 H   0  0  0  0  0  0  0  0  0  0  0  0
    2.1043    3.1877    0.5014 H   0  0  0  0  0  0  0  0  0  0  0  0
    3.1808   -0.1760   -0.8243 H   0  0  0  0  0  0  0  0  0  0  0  0
   -0.3952    3.5152    0.1595 H   0  0  0  0  0  0  0  0  0  0  0  0
   -0.2487    2.5056   -1.2697 H   0  0  0  0  0  0  0  0  0  0  0  0
   -1.9192    0.4296   -1.4684 H   0  0  0  0  0  0  0  0  0  0  0  0
    3.1548    1.4349    1.7859 H   0  0  0  0  0  0  0  0  0  0  0  0
    4.0643    1.7567    0.3259 H   0  0  0  0  0  0  0  0  0  0  0  0
   -2.5614    2.5900   -0.5971 H   0  0  0  0  0  0  0  0  0  0  0  0
   -2.1953    2.1287    1.0452 H   0  0  0  0  0  0  0  0  0  0  0  0
    1.1219    1.1107    2.6134 H   0  0  0  0  0  0  0  0  0  0  0  0
    0.5554    2.7639    2.3785 H   0  0  0  0  0  0  0  0  0  0  0  0
   -0.5857    1.4257    2.3859 H   0  0  0  0  0  0  0  0  0  0  0  0
    4.1213   -1.9960    0.5342 H   0  0  0  0  0  0  0  0  0  0  0  0
   -0.8709   -1.9743   -1.2614 H   0  0  0  0  0  0  0  0  0  0  0  0
   -2.2376   -2.1706   -0.1586 H   0  0  0  0  0  0  0  0  0  0  0  0
   -0.6403   -2.5805    0.4001 H   0  0  0  0  0  0  0  0  0  0  0  0
   -3.5555   -0.2398    0.8879 H   0  0  0  0  0  0  0  0  0  0  0  0
    1.6991   -1.8823   -1.0533 H   0  0  0  0  0  0  0  0  0  0  0  0
    3.0588   -1.5914    2.7129 H   0  0  0  0  0  0  0  0  0  0  0  0
    4.7957   -1.5579    2.8711 H   0  0  0  0  0  0  0  0  0  0  0  0
    3.9244   -0.0516    2.9166 H   0  0  0  0  0  0  0  0  0  0  0  0
    5.4466   -1.5226   -1.1755 H   0  0  0  0  0  0  0  0  0  0  0  0
    7.9342   -0.1722   -0.3461 H   0  0  0  0  0  0  0  0  0  0  0  0
    8.0884   -2.4704   -1.2705 H   0  0  0  0  0  0  0  0  0  0  0  0
    8.9219   -1.3098   -2.3194 H   0  0  0  0  0  0  0  0  0  0  0  0
    7.3269   -1.9394   -2.7741 H   0  0  0  0  0  0  0  0  0  0  0  0
    8.0557    1.0931   -2.4838 H   0  0  0  0  0  0  0  0  0  0  0  0
    6.6501    1.5888   -1.5265 H   0  0  0  0  0  0  0  0  0  0  0  0
    6.4319    0.5271   -2.9211 H   0  0  0  0  0  0  0  0  0  0  0  0
   -6.9121    1.1968   -1.6623 H   0  0  0  0  0  0  0  0  0  0  0  0
   -4.9903   -1.7313    0.8899 H   0  0  0  0  0  0  0  0  0  0  0  0
   -9.0824    0.3673   -0.7840 H   0  0  0  0  0  0  0  0  0  0  0  0
   -7.2382   -2.3931    1.6511 H   0  0  0  0  0  0  0  0  0  0  0  0
  1 10  1  0  0  0  0
  1 52  1  0  0  0  0
  2 21  2  0  0  0  0
  3 22  2  0  0  0  0
  4 14  1  0  0  0  0
  4 22  1  0  0  0  0
  4 51  1  0  0  0  0
  5 21  1  0  0  0  0
  5 24  1  0  0  0  0
  5 56  1  0  0  0  0
  6 29  2  0  0  0  0
  6 30  1  0  0  0  0
  7  8  1  0  0  0  0
  7 11  1  0  0  0  0
  7 12  1  0  0  0  0
  7 17  1  0  0  0  0
  8  9  1  0  0  0  0
  8 10  1  0  0  0  0
  8 31  1  0  0  0  0
  9 14  1  0  0  0  0
  9 19  1  0  0  0  0
  9 32  1  0  0  0  0
 10 13  1  0  0  0  0
 10 33  1  0  0  0  0
 11 15  1  0  0  0  0
 11 34  1  0  0  0  0
 11 35  1  0  0  0  0
 12 16  1  0  0  0  0
 12 37  1  0  0  0  0
 12 38  1  0  0  0  0
 13 15  1  0  0  0  0
 13 18  1  0  0  0  0
 13 36  1  0  0  0  0
 14 16  1  0  0  0  0
 14 39  1  0  0  0  0
 15 40  1  0  0  0  0
 15 41  1  0  0  0  0
 16 42  1  0  0  0  0
 16 43  1  0  0  0  0
 17 44  1  0  0  0  0
 17 45  1  0  0  0  0
 17 46  1  0  0  0  0
 18 20  1  0  0  0  0
 18 21  1  0  0  0  0
 18 47  1  0  0  0  0
 19 48  1  0  0  0  0
 19 49  1  0  0  0  0
 19 50  1  0  0  0  0
 20 53  1  0  0  0  0
 20 54  1  0  0  0  0
 20 55  1  0  0  0  0
 22 23  1  0  0  0  0
 23 27  2  0  0  0  0
 23 28  1  0  0  0  0
 24 25  1  0  0  0  0
 24 26  1  0  0  0  0
 24 57  1  0  0  0  0
 25 58  1  0  0  0  0
 25 59  1  0  0  0  0
 25 60  1  0  0  0  0
 26 61  1  0  0  0  0
 26 62  1  0  0  0  0
 26 63  1  0  0  0  0
 27 29  1  0  0  0  0
 27 64  1  0  0  0  0
 28 30  2  0  0  0  0
 28 65  1  0  0  0  0
 29 66  1  0  0  0  0
 30 67  1  0  0  0  0
M  END
> <PUBCHEM_COMPOUND_CID>
45361564

> <PUBCHEM_CONFORMER_RMSD>
1

> <PUBCHEM_CONFORMER_DIVERSEORDER>
1
48
38
51
45
54
46
16
47
29
52
49
43
56
14
31
50
10
40
55
9
35
34
39
44
33
36
28
26
22
32
23
17
18
27
41
12
5
53
21
4
20
11
57
19
42
7
37
25
13
30
8
24
3
15
6
2

> <PUBCHEM_MMFF94_PARTIAL_CHARGES>
24
1 -0.68
10 0.28
14 0.3
18 0.06
2 -0.57
21 0.57
22 0.54
23 0.09
24 0.3
27 -0.15
28 -0.15
29 0.16
3 -0.57
30 0.16
4 -0.73
5 -0.73
51 0.37
52 0.4
56 0.37
6 -0.62
64 0.15
65 0.15
66 0.15
67 0.15

> <PUBCHEM_EFFECTIVE_ROTOR_COUNT>
8.6

> <PUBCHEM_PHARMACOPHORE_FEATURES>
12
1 1 acceptor
1 1 donor
1 2 acceptor
1 20 hydrophobe
1 3 acceptor
1 4 donor
1 5 donor
1 6 acceptor
3 24 25 26 hydrophobe
6 6 23 27 28 29 30 rings
6 7 8 10 11 13 15 rings
6 7 8 9 12 14 16 rings

> <PUBCHEM_HEAVY_ATOM_COUNT>
30

> <PUBCHEM_ATOM_DEF_STEREO_COUNT>
6

> <PUBCHEM_ATOM_UDEF_STEREO_COUNT>
1

> <PUBCHEM_BOND_DEF_STEREO_COUNT>
0

> <PUBCHEM_BOND_UDEF_STEREO_COUNT>
0

> <PUBCHEM_ISOTOPIC_ATOM_COUNT>
0

> <PUBCHEM_COMPONENT_COUNT>
1

> <PUBCHEM_CACTVS_TAUTO_COUNT>
4

> <PUBCHEM_CONFORMER_ID>
02B4299C00000001

> <PUBCHEM_MMFF94_ENERGY>
86.081

> <PUBCHEM_FEATURE_SELFOVERLAP>
60.911

> <PUBCHEM_SHAPE_FINGERPRINT>
10076449 9 18409174319744776169
10591671 39 18260831479806865990
10595046 47 16805597027943740364
11315181 36 15357699687448377239
11331351 85 17275103933491481193
11646440 116 18060132154774154473
11963148 33 18335973229605110531
12166972 35 17603584132038117677
13165053 68 16372999851869156491
13383668 254 14562824201430491157
13402501 40 18333446556816829611
13617811 41 18410859850608332924
13673619 4 17274823528620412424
13685833 64 18409725171260790481
13914758 101 14189584030724000303
14251764 18 17967529078170544267
14347424 109 14045733838362783618
14856354 85 18335423478892012167
14955137 171 17561360716498960496
15183329 4 18260548909444942793
15301273 46 17703791401147557257
15361156 5 17749110037141186159
15419008 145 13254527417929545122
15840311 113 16271917251571190993
15849732 13 18272650164474207567
16994733 274 15430029942035162396
20105231 36 18341899593057247679
20554085 129 11963389687071686812
21049683 271 18113339738519532285
21130935 74 16630232723085133887
21150785 3 16805323296872146757
21267235 1 18342460335053957073
21344244 181 17847066567305348958
21403212 168 9079116639909379740
21521721 280 18200868586515013944
21623969 137 18411978070871056795
21781051 124 18261682565841325571
23522609 53 18043269958520613276
23559900 14 18201150061982425552
23569917 315 17060051606167849455
23569943 247 17131274532666225678
23576562 1 18042128828811707079
2747138 104 18342457058094144145
3004659 81 18261108586416967777
3178227 256 18411417328367256819
335352 9 18411979191540880407
3383291 50 18343298184368657754
34797466 226 17988640822885288864
4093350 32 17131831023594948832
4098825 35 17240759562911494549
4258327 124 15864652638284240902
439807 62 17676196949899928147
465052 167 18335413565063137547
484989 97 18188500188973109155
5104073 3 18339347601036623321
5265222 85 17894917381279386723
5470011 282 18259990366581466702
58260988 647 16558481782077098430
59755656 215 18412543189007762607
6081469 158 15985105193552589737

> <PUBCHEM_SHAPE_MULTIPOLES>
584.83
23.41
2.05
1.65
11.8
0.6
-0.04
-10.29
8.6
-0.4
-0.21
-2.55
-0.04
1.34

> <PUBCHEM_SHAPE_SELFOVERLAP>
1213.943

> <PUBCHEM_SHAPE_VOLUME>
329.1

> <PUBCHEM_COORDINATE_TYPE>
2
5
10

$$$$
