38029949
  -OEChem-12032416383D

 65 67  0     1  0  0  0  0  0999 V2000
   -0.9001   -2.2568   -1.5274 O   0  0  0  0  0  0  0  0  0  0  0  0
    5.6339   -1.3204   -0.4669 O   0  0  0  0  0  0  0  0  0  0  0  0
    0.7174   -1.5288   -0.0297 N   0  0  0  0  0  0  0  0  0  0  0  0
    3.1600   -0.1224    0.1064 N   0  0  0  0  0  0  0  0  0  0  0  0
   -3.2685    2.2493    2.6613 N   0  0  0  0  0  0  0  0  0  0  0  0
   -3.8302    0.7899   -0.7130 C   0  0  2  0  0  0  0  0  0  0  0  0
   -3.3798   -0.5744   -1.2572 C   0  0  0  0  0  0  0  0  0  0  0  0
   -5.0885    0.6286    0.1764 C   0  0  1  0  0  0  0  0  0  0  0  0
   -3.0562   -1.5733   -0.1302 C   0  0  2  0  0  0  0  0  0  0  0  0
   -4.0757    1.7568   -1.8755 C   0  0  0  0  0  0  0  0  0  0  0  0
   -4.1357   -1.5918    0.9330 C   0  0  0  0  0  0  0  0  0  0  0  0
   -5.0433   -0.6058    1.0462 C   0  0  0  0  0  0  0  0  0  0  0  0
   -1.6833   -1.2840    0.4868 C   0  0  0  0  0  0  0  0  0  0  0  0
   -5.3065    1.8651    1.0556 C   0  0  0  0  0  0  0  0  0  0  0  0
   -2.7583    2.3592   -2.3536 C   0  0  0  0  0  0  0  0  0  0  0  0
   -4.7908    1.0437   -3.0186 C   0  0  0  0  0  0  0  0  0  0  0  0
   -0.5936   -1.7365   -0.4517 C   0  0  0  0  0  0  0  0  0  0  0  0
   -4.1765   -2.7934    1.8355 C   0  0  0  0  0  0  0  0  0  0  0  0
    1.1216   -0.9159    1.2371 C   0  0  0  0  0  0  0  0  0  0  0  0
    1.8369   -1.9574   -0.8641 C   0  0  0  0  0  0  0  0  0  0  0  0
    2.0540    0.2699    0.9904 C   0  0  0  0  0  0  0  0  0  0  0  0
    2.7774   -0.7886   -1.1490 C   0  0  0  0  0  0  0  0  0  0  0  0
   -4.1672    2.0736    1.9487 C   0  0  0  0  0  0  0  0  0  0  0  0
    4.3466    0.6197    0.1124 C   0  0  0  0  0  0  0  0  0  0  0  0
    5.5675    0.0093   -0.1746 C   0  0  0  0  0  0  0  0  0  0  0  0
    4.3007    1.9818    0.4090 C   0  0  0  0  0  0  0  0  0  0  0  0
    6.7424    0.7609   -0.1650 C   0  0  0  0  0  0  0  0  0  0  0  0
    5.4757    2.7336    0.4187 C   0  0  0  0  0  0  0  0  0  0  0  0
    6.6965    2.1231    0.1317 C   0  0  0  0  0  0  0  0  0  0  0  0
    5.8236   -2.2149    0.6275 C   0  0  0  0  0  0  0  0  0  0  0  0
   -3.0091    1.1924   -0.1100 H   0  0  0  0  0  0  0  0  0  0  0  0
   -2.5267   -0.4612   -1.9326 H   0  0  0  0  0  0  0  0  0  0  0  0
   -4.1825   -1.0408   -1.8431 H   0  0  0  0  0  0  0  0  0  0  0  0
   -5.9769    0.5189   -0.4586 H   0  0  0  0  0  0  0  0  0  0  0  0
   -3.0548   -2.5742   -0.5848 H   0  0  0  0  0  0  0  0  0  0  0  0
   -4.7044    2.5924   -1.5512 H   0  0  0  0  0  0  0  0  0  0  0  0
   -5.8251   -0.6957    1.7981 H   0  0  0  0  0  0  0  0  0  0  0  0
   -1.5538   -1.8425    1.4204 H   0  0  0  0  0  0  0  0  0  0  0  0
   -1.5601   -0.2193    0.7055 H   0  0  0  0  0  0  0  0  0  0  0  0
   -6.2189    1.7438    1.6536 H   0  0  0  0  0  0  0  0  0  0  0  0
   -5.4672    2.7601    0.4465 H   0  0  0  0  0  0  0  0  0  0  0  0
   -2.0675    1.6012   -2.7354 H   0  0  0  0  0  0  0  0  0  0  0  0
   -2.2564    2.8977   -1.5426 H   0  0  0  0  0  0  0  0  0  0  0  0
   -2.9376    3.0769   -3.1619 H   0  0  0  0  0  0  0  0  0  0  0  0
   -4.1429    0.3514   -3.5667 H   0  0  0  0  0  0  0  0  0  0  0  0
   -5.1217    1.7869   -3.7547 H   0  0  0  0  0  0  0  0  0  0  0  0
   -5.6898    0.5140   -2.6900 H   0  0  0  0  0  0  0  0  0  0  0  0
   -4.2390   -3.7120    1.2431 H   0  0  0  0  0  0  0  0  0  0  0  0
   -5.0445   -2.7760    2.5035 H   0  0  0  0  0  0  0  0  0  0  0  0
   -3.2825   -2.8438    2.4635 H   0  0  0  0  0  0  0  0  0  0  0  0
    1.6424   -1.6913    1.8124 H   0  0  0  0  0  0  0  0  0  0  0  0
    0.2691   -0.5908    1.8354 H   0  0  0  0  0  0  0  0  0  0  0  0
    1.4820   -2.3876   -1.8058 H   0  0  0  0  0  0  0  0  0  0  0  0
    2.3654   -2.7482   -0.3180 H   0  0  0  0  0  0  0  0  0  0  0  0
    1.4870    1.0884    0.5290 H   0  0  0  0  0  0  0  0  0  0  0  0
    2.4297    0.6145    1.9615 H   0  0  0  0  0  0  0  0  0  0  0  0
    3.6302   -1.1608   -1.7235 H   0  0  0  0  0  0  0  0  0  0  0  0
    2.2667   -0.0552   -1.7869 H   0  0  0  0  0  0  0  0  0  0  0  0
    3.3676    2.4955    0.6215 H   0  0  0  0  0  0  0  0  0  0  0  0
    7.6970    0.2924   -0.3886 H   0  0  0  0  0  0  0  0  0  0  0  0
    5.4399    3.7951    0.6459 H   0  0  0  0  0  0  0  0  0  0  0  0
    7.6112    2.7087    0.1381 H   0  0  0  0  0  0  0  0  0  0  0  0
    5.8385   -3.2358    0.2362 H   0  0  0  0  0  0  0  0  0  0  0  0
    5.0021   -2.1285    1.3457 H   0  0  0  0  0  0  0  0  0  0  0  0
    6.7789   -2.0160    1.1235 H   0  0  0  0  0  0  0  0  0  0  0  0
  1 17  2  0  0  0  0
  2 25  1  0  0  0  0
  2 30  1  0  0  0  0
  3 17  1  0  0  0  0
  3 19  1  0  0  0  0
  3 20  1  0  0  0  0
  4 21  1  0  0  0  0
  4 22  1  0  0  0  0
  4 24  1  0  0  0  0
  5 23  3  0  0  0  0
  6  7  1  0  0  0  0
  6  8  1  0  0  0  0
  6 10  1  0  0  0  0
  6 31  1  0  0  0  0
  7  9  1  0  0  0  0
  7 32  1  0  0  0  0
  7 33  1  0  0  0  0
  8 12  1  0  0  0  0
  8 14  1  0  0  0  0
  8 34  1  0  0  0  0
  9 11  1  0  0  0  0
  9 13  1  0  0  0  0
  9 35  1  0  0  0  0
 10 15  1  0  0  0  0
 10 16  1  0  0  0  0
 10 36  1  0  0  0  0
 11 12  2  0  0  0  0
 11 18  1  0  0  0  0
 12 37  1  0  0  0  0
 13 17  1  0  0  0  0
 13 38  1  0  0  0  0
 13 39  1  0  0  0  0
 14 23  1  0  0  0  0
 14 40  1  0  0  0  0
 14 41  1  0  0  0  0
 15 42  1  0  0  0  0
 15 43  1  0  0  0  0
 15 44  1  0  0  0  0
 16 45  1  0  0  0  0
 16 46  1  0  0  0  0
 16 47  1  0  0  0  0
 18 48  1  0  0  0  0
 18 49  1  0  0  0  0
 18 50  1  0  0  0  0
 19 21  1  0  0  0  0
 19 51  1  0  0  0  0
 19 52  1  0  0  0  0
 20 22  1  0  0  0  0
 20 53  1  0  0  0  0
 20 54  1  0  0  0  0
 21 55  1  0  0  0  0
 21 56  1  0  0  0  0
 22 57  1  0  0  0  0
 22 58  1  0  0  0  0
 24 25  1  0  0  0  0
 24 26  2  0  0  0  0
 25 27  2  0  0  0  0
 26 28  1  0  0  0  0
 26 59  1  0  0  0  0
 27 29  1  0  0  0  0
 27 60  1  0  0  0  0
 28 29  2  0  0  0  0
 28 61  1  0  0  0  0
 29 62  1  0  0  0  0
 30 63  1  0  0  0  0
 30 64  1  0  0  0  0
 30 65  1  0  0  0  0
M  END
> <PUBCHEM_COMPOUND_CID>
38029949

> <PUBCHEM_CONFORMER_RMSD>
1.2

> <PUBCHEM_CONFORMER_DIVERSEORDER>
1
57
38
122
106
99
52
94
121
65
86
28
66
26
110
103
88
97
13
72
54
70
43
50
89
74
113
118
129
102
69
42
96
9
128
82
33
45
44
120
68
100
114
64
85
126
76
101
21
10
35
49
107
67
25
2
14
41
18
23
53
80
51
63
116
117
27
79
127
73
87
91
4
61
98
55
17
124
47
104
78
62
29
3
92
56
7
90
123
125
111
39
93
60
84
24
109
40
108
71
59
15
77
8
36
19
46
95
34
115
22
11
31
5
16
105
30
48
83
119
75
6
32
58
20
112
12
37
81

> <PUBCHEM_MMFF94_PARTIAL_CHARGES>
30
1 -0.57
11 -0.28
12 -0.29
13 0.06
14 0.2
17 0.57
18 0.14
19 0.3
2 -0.36
20 0.3
21 0.37
22 0.37
23 0.36
24 0.1
25 0.08
26 -0.15
27 -0.15
28 -0.15
29 -0.15
3 -0.66
30 0.28
37 0.15
4 -0.84
5 -0.56
59 0.15
60 0.15
61 0.15
62 0.15
8 0.14
9 0.14

> <PUBCHEM_EFFECTIVE_ROTOR_COUNT>
9

> <PUBCHEM_PHARMACOPHORE_FEATURES>
8
1 1 acceptor
1 2 acceptor
1 4 cation
1 5 acceptor
3 10 15 16 hydrophobe
6 24 25 26 27 28 29 rings
6 3 4 19 20 21 22 rings
6 6 7 8 9 11 12 rings

> <PUBCHEM_HEAVY_ATOM_COUNT>
30

> <PUBCHEM_ATOM_DEF_STEREO_COUNT>
3

> <PUBCHEM_ATOM_UDEF_STEREO_COUNT>
0

> <PUBCHEM_BOND_DEF_STEREO_COUNT>
0

> <PUBCHEM_BOND_UDEF_STEREO_COUNT>
0

> <PUBCHEM_ISOTOPIC_ATOM_COUNT>
0

> <PUBCHEM_COMPONENT_COUNT>
1

> <PUBCHEM_CACTVS_TAUTO_COUNT>
1

> <PUBCHEM_CONFORMER_ID>
02444A7D00000001

> <PUBCHEM_MMFF94_ENERGY>
98.1613

> <PUBCHEM_FEATURE_SELFOVERLAP>
40.597

> <PUBCHEM_SHAPE_FINGERPRINT>
10554248 39 17989487403561800478
10675989 125 16454004885140396685
10930396 42 17168143464786614441
12128747 34 17896036555705416986
12422481 6 18114188522740905092
12664476 115 18337670918554600480
13103583 49 13551192152019386125
13785724 45 17981611468956004638
13947947 63 15576370490143504860
14347329 18 18202562865224288384
15183329 4 18060701702066341118
15484559 13 15755464209742169385
17844677 252 18339370767783937450
20511986 3 17632008767475461994
21033648 144 18335699425354418807
21033648 29 18337658828416665568
21315759 148 17894352211302666290
21927370 108 17750807738982399411
22956985 138 16673044640003171203
23569914 2 17613102651550650428
2838139 119 17775283885243393576
392239 28 17240485865825033869
4144715 1 18336280001986076442
469060 322 17603876628290968305
5104073 3 18333452045204915482
57724786 102 18199189490573113767
9981440 41 17241599508765470053

> <PUBCHEM_SHAPE_MULTIPOLES>
590.7
17.87
3.2
2.11
20.74
0.15
-0.33
7.15
1.97
-0.54
0.33
-4.26
1.16
1.67

> <PUBCHEM_SHAPE_SELFOVERLAP>
1226.567

> <PUBCHEM_SHAPE_VOLUME>
333.3

> <PUBCHEM_COORDINATE_TYPE>
2
5
10

$$$$
