26743574
  -OEChem-12032416373D

 44 47  0     1  0  0  0  0  0999 V2000
   -2.4002    3.7838    0.0407 O   0  0  0  0  0  0  0  0  0  0  0  0
   -3.8064   -3.5293   -1.0304 O   0  0  0  0  0  0  0  0  0  0  0  0
    0.4611   -1.2674    1.9962 O   0  0  0  0  0  0  0  0  0  0  0  0
   -2.2354   -0.3938   -0.3434 N   0  0  1  0  0  0  0  0  0  0  0  0
    0.7369   -0.5674   -0.1134 N   0  0  0  0  0  0  0  0  0  0  0  0
    1.8225   -0.9671    1.8603 N   0  0  0  0  0  0  0  0  0  0  0  0
   -2.6259    0.9166    0.1712 C   0  0  0  0  0  0  0  0  0  0  0  0
   -1.5940   -1.2513    0.6739 C   0  0  1  0  0  0  0  0  0  0  0  0
   -3.3783   -1.1458   -0.8578 C   0  0  0  0  0  0  0  0  0  0  0  0
   -1.9276   -2.6915    0.2419 C   0  0  0  0  0  0  0  0  0  0  0  0
   -2.7967   -2.5394   -1.0002 C   0  0  1  0  0  0  0  0  0  0  0  0
   -1.4005    1.6684    0.6986 C   0  0  0  0  0  0  0  0  0  0  0  0
   -3.3253    1.7470   -0.9096 C   0  0  0  0  0  0  0  0  0  0  0  0
   -0.1046   -1.0046    0.7891 C   0  0  0  0  0  0  0  0  0  0  0  0
   -1.7870    3.0814    1.1217 C   0  0  0  0  0  0  0  0  0  0  0  0
   -3.6052    3.1555   -0.3972 C   0  0  0  0  0  0  0  0  0  0  0  0
    1.9062   -0.5610    0.5899 C   0  0  0  0  0  0  0  0  0  0  0  0
    3.1420   -0.1442   -0.0071 C   0  0  0  0  0  0  0  0  0  0  0  0
    3.1679    0.2683   -1.3394 C   0  0  0  0  0  0  0  0  0  0  0  0
    4.3175   -0.1515    0.7437 C   0  0  0  0  0  0  0  0  0  0  0  0
    4.3694    0.6734   -1.9209 C   0  0  0  0  0  0  0  0  0  0  0  0
    5.5188    0.2536    0.1623 C   0  0  0  0  0  0  0  0  0  0  0  0
    5.5448    0.6660   -1.1701 C   0  0  0  0  0  0  0  0  0  0  0  0
   -3.3316    0.7908    1.0055 H   0  0  0  0  0  0  0  0  0  0  0  0
   -2.0529   -1.0899    1.6598 H   0  0  0  0  0  0  0  0  0  0  0  0
   -3.7253   -0.7881   -1.8327 H   0  0  0  0  0  0  0  0  0  0  0  0
   -4.2328   -1.1493   -0.1680 H   0  0  0  0  0  0  0  0  0  0  0  0
   -1.0400   -3.2925    0.0128 H   0  0  0  0  0  0  0  0  0  0  0  0
   -2.4734   -3.2103    1.0399 H   0  0  0  0  0  0  0  0  0  0  0  0
   -2.1892   -2.6171   -1.9103 H   0  0  0  0  0  0  0  0  0  0  0  0
   -0.6382    1.7424   -0.0869 H   0  0  0  0  0  0  0  0  0  0  0  0
   -0.9656    1.1930    1.5811 H   0  0  0  0  0  0  0  0  0  0  0  0
   -4.2761    1.3005   -1.2190 H   0  0  0  0  0  0  0  0  0  0  0  0
   -2.6804    1.8137   -1.7956 H   0  0  0  0  0  0  0  0  0  0  0  0
   -2.4679    3.0696    1.9811 H   0  0  0  0  0  0  0  0  0  0  0  0
   -0.8927    3.6398    1.4167 H   0  0  0  0  0  0  0  0  0  0  0  0
   -4.0260    3.7673   -1.2015 H   0  0  0  0  0  0  0  0  0  0  0  0
   -4.3307    3.1450    0.4248 H   0  0  0  0  0  0  0  0  0  0  0  0
   -3.3654   -4.3959   -1.0449 H   0  0  0  0  0  0  0  0  0  0  0  0
    2.2689    0.2855   -1.9506 H   0  0  0  0  0  0  0  0  0  0  0  0
    4.3362   -0.4662    1.7841 H   0  0  0  0  0  0  0  0  0  0  0  0
    4.3899    0.9947   -2.9582 H   0  0  0  0  0  0  0  0  0  0  0  0
    6.4345    0.2481    0.7465 H   0  0  0  0  0  0  0  0  0  0  0  0
    6.4804    0.9814   -1.6227 H   0  0  0  0  0  0  0  0  0  0  0  0
  1 15  1  0  0  0  0
  1 16  1  0  0  0  0
  2 11  1  0  0  0  0
  2 39  1  0  0  0  0
  3  6  1  0  0  0  0
  3 14  1  0  0  0  0
  4  7  1  0  0  0  0
  4  8  1  0  0  0  0
  4  9  1  0  0  0  0
  5 14  2  0  0  0  0
  5 17  1  0  0  0  0
  6 17  2  0  0  0  0
  7 12  1  0  0  0  0
  7 13  1  0  0  0  0
  7 24  1  0  0  0  0
  8 10  1  0  0  0  0
  8 14  1  0  0  0  0
  8 25  1  0  0  0  0
  9 11  1  0  0  0  0
  9 26  1  0  0  0  0
  9 27  1  0  0  0  0
 10 11  1  0  0  0  0
 10 28  1  0  0  0  0
 10 29  1  0  0  0  0
 11 30  1  0  0  0  0
 12 15  1  0  0  0  0
 12 31  1  0  0  0  0
 12 32  1  0  0  0  0
 13 16  1  0  0  0  0
 13 33  1  0  0  0  0
 13 34  1  0  0  0  0
 15 35  1  0  0  0  0
 15 36  1  0  0  0  0
 16 37  1  0  0  0  0
 16 38  1  0  0  0  0
 17 18  1  0  0  0  0
 18 19  2  0  0  0  0
 18 20  1  0  0  0  0
 19 21  1  0  0  0  0
 19 40  1  0  0  0  0
 20 22  2  0  0  0  0
 20 41  1  0  0  0  0
 21 23  2  0  0  0  0
 21 42  1  0  0  0  0
 22 23  1  0  0  0  0
 22 43  1  0  0  0  0
 23 44  1  0  0  0  0
M  END
> <PUBCHEM_COMPOUND_CID>
26743574

> <PUBCHEM_CONFORMER_RMSD>
0.8

> <PUBCHEM_CONFORMER_DIVERSEORDER>
1
8
14
6
18
10
2
13
7
9
12
3
16
5
11
15
17
4

> <PUBCHEM_MMFF94_PARTIAL_CHARGES>
26
1 -0.56
11 0.28
14 0.3
15 0.28
16 0.28
17 0.46
18 0.05
19 -0.15
2 -0.68
20 -0.15
21 -0.15
22 -0.15
23 -0.15
3 -0.02
39 0.4
4 -0.81
40 0.15
41 0.15
42 0.15
43 0.15
44 0.15
5 -0.57
6 -0.41
7 0.27
8 0.45
9 0.27

> <PUBCHEM_EFFECTIVE_ROTOR_COUNT>
5.2

> <PUBCHEM_PHARMACOPHORE_FEATURES>
9
1 1 acceptor
1 2 acceptor
1 2 donor
1 4 cation
3 5 6 17 cation
5 3 5 6 14 17 rings
5 4 8 9 10 11 rings
6 1 7 12 13 15 16 rings
6 18 19 20 21 22 23 rings

> <PUBCHEM_HEAVY_ATOM_COUNT>
23

> <PUBCHEM_ATOM_DEF_STEREO_COUNT>
2

> <PUBCHEM_ATOM_UDEF_STEREO_COUNT>
0

> <PUBCHEM_BOND_DEF_STEREO_COUNT>
0

> <PUBCHEM_BOND_UDEF_STEREO_COUNT>
0

> <PUBCHEM_ISOTOPIC_ATOM_COUNT>
0

> <PUBCHEM_COMPONENT_COUNT>
1

> <PUBCHEM_CACTVS_TAUTO_COUNT>
1

> <PUBCHEM_CONFORMER_ID>
0198131600000001

> <PUBCHEM_MMFF94_ENERGY>
45.578

> <PUBCHEM_FEATURE_SELFOVERLAP>
45.672

> <PUBCHEM_SHAPE_FINGERPRINT>
10498660 4 18342171133563235704
10673678 19 17611452040206177301
10871710 139 18259990366191342429
10937287 8 17908990902608552161
11049842 53 17982718684836945938
11477941 20 18200031897169661556
11640471 11 18042124258634343385
12107183 9 17902220127748592394
12173636 292 18268422435054925525
12788726 201 18335411396553591747
13583140 156 17703495637442595258
13828863 39 14349224366218226214
13994607 96 17968680257785613817
14142880 1 17968097486937799773
14187579 7 18266470973883808740
14251757 5 18413107281859899383
14251764 38 18265053707927981700
14420673 8 8861850978109657912
14739800 52 18265310937951067712
14767858 380 18266157480347549237
14790565 3 18054513508881852401
15463212 79 18334572395718079593
15475509 8 18130785720489346015
15534591 1 18261117326738576019
15842332 3 18042105597033396634
16994733 274 15286456844222130455
17492 54 18263063454537225405
17818456 19 18122612861196059946
1813 80 17913776286697964695
18785283 64 17403749844005453651
20300324 65 18410294756769846358
20642791 239 18187914128201510013
21033650 10 18265076703197734652
21315759 148 10881404227872237420
21756936 100 17895494565233994256
22393880 68 18201169758792356670
22620623 9 18059851787957164479
22907989 373 18340192043045968727
235170 7 17704080611835122156
23557571 272 18202562903852593480
25147074 1 18041545954489525850
255183 451 17623280985756019671
266924 1 18115012044044212203
312425 83 18267611086105485382
3268164 11 18341895224942904798
341906 21 18410851062926111504
3610482 184 18043555905000371460
469060 322 17970092052538674857
474 4 17603871048822495720
4921388 177 17846227639078046265
5048184 11 18263085409666282596
531348 171 18341343193382341222
621550 5 17559961106921722427
633830 44 17531539693869969794
7808743 9 18338515235852229969

> <PUBCHEM_SHAPE_MULTIPOLES>
440.78
10.18
3.69
1.51
13.86
1.28
0.06
2.02
-4.04
-7.61
-0.24
0.93
-0.21
-1.47

> <PUBCHEM_SHAPE_SELFOVERLAP>
950.666

> <PUBCHEM_SHAPE_VOLUME>
243.4

> <PUBCHEM_COORDINATE_TYPE>
2
5
10

$$$$
