26742669
  -OEChem-12032416173D

 66 69  0     1  0  0  0  0  0999 V2000
    3.6546   -2.3655   -1.5349 O   0  0  0  0  0  0  0  0  0  0  0  0
   -3.2027   -0.9599   -1.4381 O   0  0  0  0  0  0  0  0  0  0  0  0
    6.8715    3.9963    0.0756 O   0  0  0  0  0  0  0  0  0  0  0  0
   -7.1264    3.3043   -0.4798 O   0  0  0  0  0  0  0  0  0  0  0  0
   -1.8490   -2.3226   -0.1313 N   0  0  0  0  0  0  0  0  0  0  0  0
    2.8638   -1.1390    0.2685 N   0  0  0  0  0  0  0  0  0  0  0  0
    5.3767    1.5900   -0.2018 N   0  0  0  0  0  0  0  0  0  0  0  0
    0.1895   -2.7091    1.2426 C   0  0  2  0  0  0  0  0  0  0  0  0
    0.7951   -3.4867    0.0502 C   0  0  1  0  0  0  0  0  0  0  0  0
    0.2131   -3.0079   -1.2927 C   0  0  0  0  0  0  0  0  0  0  0  0
   -1.3500   -2.7744    1.1737 C   0  0  0  0  0  0  0  0  0  0  0  0
    0.6485   -1.2441    1.3711 C   0  0  0  0  0  0  0  0  0  0  0  0
    2.3280   -3.5423    0.0516 C   0  0  0  0  0  0  0  0  0  0  0  0
   -1.3131   -3.0556   -1.2782 C   0  0  0  0  0  0  0  0  0  0  0  0
    2.1556   -1.0941    1.5458 C   0  0  0  0  0  0  0  0  0  0  0  0
    3.0146   -2.2993   -0.4823 C   0  0  0  0  0  0  0  0  0  0  0  0
    3.4189    0.1190   -0.2135 C   0  0  0  0  0  0  0  0  0  0  0  0
   -2.7801   -1.3040   -0.3314 C   0  0  0  0  0  0  0  0  0  0  0  0
    4.8284    0.3382    0.3161 C   0  0  0  0  0  0  0  0  0  0  0  0
   -3.2813   -0.5949    0.9014 C   0  0  0  0  0  0  0  0  0  0  0  0
    6.8451    1.5801   -0.1438 C   0  0  0  0  0  0  0  0  0  0  0  0
    4.8511    2.7394    0.5479 C   0  0  0  0  0  0  0  0  0  0  0  0
   -4.3005    0.4392    0.5376 C   0  0  0  0  0  0  0  0  0  0  0  0
    7.3936    2.9005   -0.6770 C   0  0  0  0  0  0  0  0  0  0  0  0
    5.4461    4.0322   -0.0026 C   0  0  0  0  0  0  0  0  0  0  0  0
   -3.8987    1.7434    0.2487 C   0  0  0  0  0  0  0  0  0  0  0  0
   -5.6520    0.0980    0.4850 C   0  0  0  0  0  0  0  0  0  0  0  0
   -4.8484    2.7063   -0.0926 C   0  0  0  0  0  0  0  0  0  0  0  0
   -6.6016    1.0608    0.1436 C   0  0  0  0  0  0  0  0  0  0  0  0
   -6.1999    2.3650   -0.1451 C   0  0  0  0  0  0  0  0  0  0  0  0
   -8.4904    2.8870   -0.5142 C   0  0  0  0  0  0  0  0  0  0  0  0
    0.4913   -3.2239    2.1657 H   0  0  0  0  0  0  0  0  0  0  0  0
    0.4672   -4.5300    0.1774 H   0  0  0  0  0  0  0  0  0  0  0  0
    0.5875   -3.6360   -2.1095 H   0  0  0  0  0  0  0  0  0  0  0  0
    0.5318   -1.9806   -1.5048 H   0  0  0  0  0  0  0  0  0  0  0  0
   -1.6839   -3.8126    1.2957 H   0  0  0  0  0  0  0  0  0  0  0  0
   -1.7841   -2.2103    2.0013 H   0  0  0  0  0  0  0  0  0  0  0  0
    0.1669   -0.8197    2.2617 H   0  0  0  0  0  0  0  0  0  0  0  0
    0.3057   -0.6458    0.5186 H   0  0  0  0  0  0  0  0  0  0  0  0
    2.6426   -4.3751   -0.5921 H   0  0  0  0  0  0  0  0  0  0  0  0
    2.7167   -3.7787    1.0482 H   0  0  0  0  0  0  0  0  0  0  0  0
   -1.7031   -2.6513   -2.2177 H   0  0  0  0  0  0  0  0  0  0  0  0
   -1.6641   -4.0913   -1.1982 H   0  0  0  0  0  0  0  0  0  0  0  0
    2.3713   -0.1355    2.0324 H   0  0  0  0  0  0  0  0  0  0  0  0
    2.5556   -1.8732    2.2036 H   0  0  0  0  0  0  0  0  0  0  0  0
    3.4427    0.0927   -1.3103 H   0  0  0  0  0  0  0  0  0  0  0  0
    2.7287    0.9224    0.0649 H   0  0  0  0  0  0  0  0  0  0  0  0
    4.8539    0.3042    1.4131 H   0  0  0  0  0  0  0  0  0  0  0  0
    5.4416   -0.5069   -0.0254 H   0  0  0  0  0  0  0  0  0  0  0  0
   -2.4389   -0.1220    1.4193 H   0  0  0  0  0  0  0  0  0  0  0  0
   -3.7314   -1.3226    1.5865 H   0  0  0  0  0  0  0  0  0  0  0  0
    7.2468    0.7617   -0.7522 H   0  0  0  0  0  0  0  0  0  0  0  0
    7.1827    1.4339    0.8907 H   0  0  0  0  0  0  0  0  0  0  0  0
    5.1062    2.6495    1.6120 H   0  0  0  0  0  0  0  0  0  0  0  0
    3.7617    2.8057    0.4663 H   0  0  0  0  0  0  0  0  0  0  0  0
    8.4837    2.9184   -0.5778 H   0  0  0  0  0  0  0  0  0  0  0  0
    7.1548    3.0388   -1.7385 H   0  0  0  0  0  0  0  0  0  0  0  0
    5.1404    4.2088   -1.0412 H   0  0  0  0  0  0  0  0  0  0  0  0
    5.1024    4.8840    0.5929 H   0  0  0  0  0  0  0  0  0  0  0  0
   -2.8485    2.0211    0.2838 H   0  0  0  0  0  0  0  0  0  0  0  0
   -5.9767   -0.9156    0.7054 H   0  0  0  0  0  0  0  0  0  0  0  0
   -4.5294    3.7204   -0.3174 H   0  0  0  0  0  0  0  0  0  0  0  0
   -7.6335    0.7277    0.1210 H   0  0  0  0  0  0  0  0  0  0  0  0
   -9.0883    3.7596   -0.7970 H   0  0  0  0  0  0  0  0  0  0  0  0
   -8.8386    2.5677    0.4740 H   0  0  0  0  0  0  0  0  0  0  0  0
   -8.6581    2.1226   -1.2805 H   0  0  0  0  0  0  0  0  0  0  0  0
  1 16  2  0  0  0  0
  2 18  2  0  0  0  0
  3 24  1  0  0  0  0
  3 25  1  0  0  0  0
  4 30  1  0  0  0  0
  4 31  1  0  0  0  0
  5 11  1  0  0  0  0
  5 14  1  0  0  0  0
  5 18  1  0  0  0  0
  6 15  1  0  0  0  0
  6 16  1  0  0  0  0
  6 17  1  0  0  0  0
  7 19  1  0  0  0  0
  7 21  1  0  0  0  0
  7 22  1  0  0  0  0
  8  9  1  0  0  0  0
  8 11  1  0  0  0  0
  8 12  1  0  0  0  0
  8 32  1  0  0  0  0
  9 10  1  0  0  0  0
  9 13  1  0  0  0  0
  9 33  1  0  0  0  0
 10 14  1  0  0  0  0
 10 34  1  0  0  0  0
 10 35  1  0  0  0  0
 11 36  1  0  0  0  0
 11 37  1  0  0  0  0
 12 15  1  0  0  0  0
 12 38  1  0  0  0  0
 12 39  1  0  0  0  0
 13 16  1  0  0  0  0
 13 40  1  0  0  0  0
 13 41  1  0  0  0  0
 14 42  1  0  0  0  0
 14 43  1  0  0  0  0
 15 44  1  0  0  0  0
 15 45  1  0  0  0  0
 17 19  1  0  0  0  0
 17 46  1  0  0  0  0
 17 47  1  0  0  0  0
 18 20  1  0  0  0  0
 19 48  1  0  0  0  0
 19 49  1  0  0  0  0
 20 23  1  0  0  0  0
 20 50  1  0  0  0  0
 20 51  1  0  0  0  0
 21 24  1  0  0  0  0
 21 52  1  0  0  0  0
 21 53  1  0  0  0  0
 22 25  1  0  0  0  0
 22 54  1  0  0  0  0
 22 55  1  0  0  0  0
 23 26  2  0  0  0  0
 23 27  1  0  0  0  0
 24 56  1  0  0  0  0
 24 57  1  0  0  0  0
 25 58  1  0  0  0  0
 25 59  1  0  0  0  0
 26 28  1  0  0  0  0
 26 60  1  0  0  0  0
 27 29  2  0  0  0  0
 27 61  1  0  0  0  0
 28 30  2  0  0  0  0
 28 62  1  0  0  0  0
 29 30  1  0  0  0  0
 29 63  1  0  0  0  0
 31 64  1  0  0  0  0
 31 65  1  0  0  0  0
 31 66  1  0  0  0  0
M  END
> <PUBCHEM_COMPOUND_CID>
26742669

> <PUBCHEM_CONFORMER_RMSD>
1.4

> <PUBCHEM_CONFORMER_DIVERSEORDER>
1
29
13
7
51
19
98
71
21
87
123
115
75
118
132
37
27
11
66
56
14
92
109
106
81
111
85
10
77
23
46
94
134
47
113
34
24
86
8
73
58
95
104
88
76
49
105
126
33
133
90
114
3
130
136
50
84
55
107
112
110
36
53
116
15
2
62
119
82
135
69
70
121
4
120
44
64
127
68
48
63
41
12
101
59
9
5
78
20
96
79
39
128
16
65
45
32
122
61
52
38
102
129
26
125
18
124
83
57
93
31
91
67
28
42
89
22
97
54
25
35
103
43
131
108
74
40
99
100
30
17
6
117
60
72
80

> <PUBCHEM_MMFF94_PARTIAL_CHARGES>
31
1 -0.57
11 0.3
13 0.06
14 0.3
15 0.3
16 0.57
17 0.3
18 0.57
19 0.27
2 -0.57
20 0.2
21 0.27
22 0.27
23 -0.14
24 0.28
25 0.28
26 -0.15
27 -0.15
28 -0.15
29 -0.15
3 -0.56
30 0.08
31 0.28
4 -0.36
5 -0.66
6 -0.66
60 0.15
61 0.15
62 0.15
63 0.15
7 -0.81

> <PUBCHEM_EFFECTIVE_ROTOR_COUNT>
9.8

> <PUBCHEM_PHARMACOPHORE_FEATURES>
9
1 1 acceptor
1 2 acceptor
1 3 acceptor
1 4 acceptor
1 7 cation
6 23 26 27 28 29 30 rings
6 3 7 21 22 24 25 rings
6 5 8 9 10 11 14 rings
7 6 8 9 12 13 15 16 rings

> <PUBCHEM_HEAVY_ATOM_COUNT>
31

> <PUBCHEM_ATOM_DEF_STEREO_COUNT>
2

> <PUBCHEM_ATOM_UDEF_STEREO_COUNT>
0

> <PUBCHEM_BOND_DEF_STEREO_COUNT>
0

> <PUBCHEM_BOND_UDEF_STEREO_COUNT>
0

> <PUBCHEM_ISOTOPIC_ATOM_COUNT>
0

> <PUBCHEM_COMPONENT_COUNT>
1

> <PUBCHEM_CACTVS_TAUTO_COUNT>
2

> <PUBCHEM_CONFORMER_ID>
01980F8D00000001

> <PUBCHEM_MMFF94_ENERGY>
78.8118

> <PUBCHEM_FEATURE_SELFOVERLAP>
45.699

> <PUBCHEM_SHAPE_FINGERPRINT>
10050765 1 18410013256077106010
10280341 67 18269823354824887504
10533779 1 18409718578112425448
10673678 19 18341616984214062119
10864689 126 18342739650417297792
11273773 38 18411697694968552976
11386260 185 17983012241651339743
11621639 179 18261678057001007958
12633257 1 15502669216637514059
12895837 130 18266181827957616620
12988421 55 17604414319341690642
13944108 23 18268709420353754032
14223995 32 18270673303394049040
14251764 75 18410569582862837485
14347329 18 18267579299052748280
14394314 77 18408888430360428197
14429380 30 9223239550447326852
14739800 52 17969501511736455803
14931854 50 17917998256297064576
14950920 106 13118272703173714142
15142526 21 18261112933425460547
15152005 290 18410011069885030228
15198563 99 17767676527447608199
15510800 12 11239706492002491364
15803439 3 17060622226194019046
15980000 95 17761775066764088738
17899979 129 18341337678016260737
19053607 189 18340757178652752473
19302320 297 18334294267138681680
19438510 23 18187644743151335186
20691028 202 18334574698169287660
20715895 44 18411982451674447522
21033648 29 17822302253647947163
21365058 113 17481436971505732895
23522609 53 17415850094572268161
23569914 152 17915483622940782348
23569914 2 16953903520692433637
23569943 247 9367052377907229725
270888 7 18408885148271145226
27425 322 18408882910852426415
2748736 6 18409720785735418112
2838139 119 18339642360494391978
34797466 226 17984703317232713599
3918712 181 18409725145206936105
393628 194 18189898788990959908
4112364 45 18040988497466544643
5219985 13 18411980290852255610
5265222 85 18195247943082656272
5718773 13 9583522009803386265
57724786 102 18335974312326655034
5776283 40 18337689516285095606
6327066 14 18410855477313312225
6712543 237 14996280314861116529
7288768 16 18040434433811592803
7808743 9 18411978100202832491
9849439 229 18334579044422814830

> <PUBCHEM_SHAPE_MULTIPOLES>
599.55
20.95
6.07
1.18
7.92
1.48
0
36.26
2.77
-4.62
0.84
-0.07
-0.88
0.59

> <PUBCHEM_SHAPE_SELFOVERLAP>
1251.611

> <PUBCHEM_SHAPE_VOLUME>
335.5

> <PUBCHEM_COORDINATE_TYPE>
2
5
10

$$$$
