75536617
  -OEChem-12032416303D

 49 51  0     1  0  0  0  0  0999 V2000
   -7.4865    1.8510    0.6461 F   0  0  0  0  0  0  0  0  0  0  0  0
   -7.1915   -0.3033    0.6661 F   0  0  0  0  0  0  0  0  0  0  0  0
    0.5536    0.3137   -1.0275 O   0  0  0  0  0  0  0  0  0  0  0  0
   -0.6456   -2.3708    1.0367 O   0  0  0  0  0  0  0  0  0  0  0  0
    3.8670   -1.3708    1.4606 O   0  0  0  0  0  0  0  0  0  0  0  0
   -2.8484   -0.9246   -0.6757 N   0  0  0  0  0  0  0  0  0  0  0  0
    3.1693   -0.8322   -0.6856 N   0  0  0  0  0  0  0  0  0  0  0  0
   -3.8573    0.0993   -0.4101 C   0  0  0  0  0  0  0  0  0  0  0  0
   -1.5368   -0.4835   -0.2299 C   0  0  1  0  0  0  0  0  0  0  0  0
   -0.5150   -1.6021   -0.1434 C   0  0  1  0  0  0  0  0  0  0  0  0
   -5.0532   -0.0924   -1.3509 C   0  0  0  0  0  0  0  0  0  0  0  0
   -4.2907    0.0341    1.0595 C   0  0  0  0  0  0  0  0  0  0  0  0
    0.7868   -0.8124   -0.1653 C   0  0  1  0  0  0  0  0  0  0  0  0
   -0.8651    0.4621   -1.2121 C   0  0  0  0  0  0  0  0  0  0  0  0
   -6.1604    0.9174   -1.0542 C   0  0  0  0  0  0  0  0  0  0  0  0
   -5.3974    1.0440    1.3573 C   0  0  0  0  0  0  0  0  0  0  0  0
   -6.5721    0.8781    0.4080 C   0  0  0  0  0  0  0  0  0  0  0  0
    1.9680   -1.6163   -0.6790 C   0  0  0  0  0  0  0  0  0  0  0  0
    4.0357   -0.7718    0.4017 C   0  0  0  0  0  0  0  0  0  0  0  0
    5.2237    0.1067    0.2461 C   0  0  0  0  0  0  0  0  0  0  0  0
    5.8206    0.6786    1.3695 C   0  0  0  0  0  0  0  0  0  0  0  0
    5.7429    0.3580   -1.0238 C   0  0  0  0  0  0  0  0  0  0  0  0
    6.9369    1.5022    1.2231 C   0  0  0  0  0  0  0  0  0  0  0  0
    6.8592    1.1814   -1.1703 C   0  0  0  0  0  0  0  0  0  0  0  0
    7.4562    1.7535   -0.0468 C   0  0  0  0  0  0  0  0  0  0  0  0
   -3.4533    1.0995   -0.6162 H   0  0  0  0  0  0  0  0  0  0  0  0
   -1.5868   -0.0119    0.7592 H   0  0  0  0  0  0  0  0  0  0  0  0
   -0.5868   -2.2704   -1.0106 H   0  0  0  0  0  0  0  0  0  0  0  0
   -5.4571   -1.1082   -1.2462 H   0  0  0  0  0  0  0  0  0  0  0  0
   -4.7348    0.0164   -2.3950 H   0  0  0  0  0  0  0  0  0  0  0  0
   -3.4555    0.2351    1.7387 H   0  0  0  0  0  0  0  0  0  0  0  0
   -4.6571   -0.9727    1.3013 H   0  0  0  0  0  0  0  0  0  0  0  0
   -3.1047   -1.7945   -0.2098 H   0  0  0  0  0  0  0  0  0  0  0  0
    1.0181   -0.4173    0.8326 H   0  0  0  0  0  0  0  0  0  0  0  0
   -1.0834    0.2035   -2.2548 H   0  0  0  0  0  0  0  0  0  0  0  0
   -1.1411    1.5086   -1.0518 H   0  0  0  0  0  0  0  0  0  0  0  0
   -5.8255    1.9284   -1.3155 H   0  0  0  0  0  0  0  0  0  0  0  0
   -7.0292    0.7006   -1.6860 H   0  0  0  0  0  0  0  0  0  0  0  0
   -5.0036    2.0647    1.2817 H   0  0  0  0  0  0  0  0  0  0  0  0
   -5.7402    0.9145    2.3902 H   0  0  0  0  0  0  0  0  0  0  0  0
    1.7997   -1.9282   -1.7156 H   0  0  0  0  0  0  0  0  0  0  0  0
    2.1214   -2.5117   -0.0673 H   0  0  0  0  0  0  0  0  0  0  0  0
   -0.5840   -1.7721    1.8002 H   0  0  0  0  0  0  0  0  0  0  0  0
    3.3315   -0.2565   -1.5048 H   0  0  0  0  0  0  0  0  0  0  0  0
    5.4284    0.4983    2.3669 H   0  0  0  0  0  0  0  0  0  0  0  0
    5.3281   -0.0918   -1.9208 H   0  0  0  0  0  0  0  0  0  0  0  0
    7.4015    1.9482    2.0977 H   0  0  0  0  0  0  0  0  0  0  0  0
    7.2685    1.3718   -2.1582 H   0  0  0  0  0  0  0  0  0  0  0  0
    8.3263    2.3935   -0.1609 H   0  0  0  0  0  0  0  0  0  0  0  0
  1 17  1  0  0  0  0
  2 17  1  0  0  0  0
  3 13  1  0  0  0  0
  3 14  1  0  0  0  0
  4 10  1  0  0  0  0
  4 43  1  0  0  0  0
  5 19  2  0  0  0  0
  6  8  1  0  0  0  0
  6  9  1  0  0  0  0
  6 33  1  0  0  0  0
  7 18  1  0  0  0  0
  7 19  1  0  0  0  0
  7 44  1  0  0  0  0
  8 11  1  0  0  0  0
  8 12  1  0  0  0  0
  8 26  1  0  0  0  0
  9 10  1  0  0  0  0
  9 14  1  0  0  0  0
  9 27  1  0  0  0  0
 10 13  1  0  0  0  0
 10 28  1  0  0  0  0
 11 15  1  0  0  0  0
 11 29  1  0  0  0  0
 11 30  1  0  0  0  0
 12 16  1  0  0  0  0
 12 31  1  0  0  0  0
 12 32  1  0  0  0  0
 13 18  1  0  0  0  0
 13 34  1  0  0  0  0
 14 35  1  0  0  0  0
 14 36  1  0  0  0  0
 15 17  1  0  0  0  0
 15 37  1  0  0  0  0
 15 38  1  0  0  0  0
 16 17  1  0  0  0  0
 16 39  1  0  0  0  0
 16 40  1  0  0  0  0
 18 41  1  0  0  0  0
 18 42  1  0  0  0  0
 19 20  1  0  0  0  0
 20 21  2  0  0  0  0
 20 22  1  0  0  0  0
 21 23  1  0  0  0  0
 21 45  1  0  0  0  0
 22 24  2  0  0  0  0
 22 46  1  0  0  0  0
 23 25  2  0  0  0  0
 23 47  1  0  0  0  0
 24 25  1  0  0  0  0
 24 48  1  0  0  0  0
 25 49  1  0  0  0  0
M  END
> <PUBCHEM_COMPOUND_CID>
75536617

> <PUBCHEM_CONFORMER_RMSD>
0.8

> <PUBCHEM_CONFORMER_DIVERSEORDER>
1
9
165
63
27
192
134
87
160
68
45
66
77
175
98
16
208
203
199
202
40
120
205
119
61
186
106
169
121
130
167
116
7
127
153
206
164
131
139
12
209
113
190
181
145
200
107
135
30
204
191
11
136
110
122
57
94
54
67
147
117
123
19
189
41
149
193
92
196
104
108
56
21
142
188
201
38
194
93
140
170
138
185
79
95
148
173
2
99
49
118
171
124
96
187
35
162
32
53
50
197
159
74
161
158
80
58
168
125
155
182
207
69
60
180
62
177
111
133
33
26
195
48
115
198
105
17
109
166
156
146
101
43
34
4
144
179
73
141
59
70
23
15
82
72
91
90
37
83
137
13
157
78
81
75
154
88
176
143
46
71
100
42
51
18
76
102
174
55
85
47
128
44
172
183
132
52
29
36
152
129
163
3
28
20
64
8
103
178
89
184
24
84
86
5
150
126
65
25
14
22
114
39
112
151
6
10
31
97

> <PUBCHEM_MMFF94_PARTIAL_CHARGES>
29
1 -0.34
10 0.28
13 0.28
14 0.28
17 0.68
18 0.3
19 0.54
2 -0.34
20 0.09
21 -0.15
22 -0.15
23 -0.15
24 -0.15
25 -0.15
3 -0.56
33 0.36
4 -0.68
43 0.4
44 0.37
45 0.15
46 0.15
47 0.15
48 0.15
49 0.15
5 -0.57
6 -0.9
7 -0.73
8 0.27
9 0.27

> <PUBCHEM_EFFECTIVE_ROTOR_COUNT>
8.2

> <PUBCHEM_PHARMACOPHORE_FEATURES>
10
1 3 acceptor
1 4 acceptor
1 4 donor
1 5 acceptor
1 6 cation
1 6 donor
1 7 donor
5 3 9 10 13 14 rings
6 20 21 22 23 24 25 rings
6 8 11 12 15 16 17 rings

> <PUBCHEM_HEAVY_ATOM_COUNT>
25

> <PUBCHEM_ATOM_DEF_STEREO_COUNT>
3

> <PUBCHEM_ATOM_UDEF_STEREO_COUNT>
0

> <PUBCHEM_BOND_DEF_STEREO_COUNT>
0

> <PUBCHEM_BOND_UDEF_STEREO_COUNT>
0

> <PUBCHEM_ISOTOPIC_ATOM_COUNT>
0

> <PUBCHEM_COMPONENT_COUNT>
1

> <PUBCHEM_CACTVS_TAUTO_COUNT>
2

> <PUBCHEM_CONFORMER_ID>
048098E900000001

> <PUBCHEM_MMFF94_ENERGY>
48.5825

> <PUBCHEM_FEATURE_SELFOVERLAP>
50.747

> <PUBCHEM_SHAPE_FINGERPRINT>
10 15 17167864175193285892
106641 1 18113622313571599739
10670039 82 14620523297957003274
10753850 27 8070028861333903102
10906281 52 18336554884245652686
11315181 36 18413386545772367511
11991303 11 13973671862778388381
12166972 35 13614518593083403970
12236239 1 18201718406551888199
125118 31 18337671914749863437
12596602 18 18186523181066412179
12760667 363 9079119968313848950
13533116 47 18338795607687165658
13540713 5 17243313891383974054
13668630 136 9079113354169805241
13673619 4 8718830886007669982
13685833 64 11458422440786058758
13782708 43 8286202747180513494
13862211 1 9223231849338590398
14251752 14 13542465349731113420
14251764 18 18187082884040433255
14347332 77 10447663378672087434
14556957 393 14045473292281659226
14849402 71 18337956791652175173
14933364 13 16917350341818931213
15048467 5 18273495671583110446
15183329 4 14261359050457907322
15188451 53 10953732314470520060
15348495 7 16443635686977297768
15419008 91 10954014969925986518
15461852 350 16988554716015561893
15706992 2 18272101512472403649
15716309 27 13623531268368309407
1577012 14 18060133228732398767
16988056 13 15482377764586843914
16994733 274 18342736287087925633
17093844 174 16153422832344065573
1768 124 12685083779463666776
17980427 23 18114180908170220990
190975 80 16515688874399619376
2026 5 7853579002391134457
20281389 69 18412823560346299824
21150785 3 15697999647618335588
21424621 283 18342181029410206043
21637258 2 13262399972855377355
221357 26 15339122343000893010
2215653 11 12967130527910746692
22224240 67 18113337509784536883
23035841 295 7997965774317744093
23081809 10 18059844048278794023
23569943 247 8718564821031090349
23576562 1 14835535052449590353
24771293 8 18335419084106877125
249999 5 18042400245081505738
29717793 49 10663817490383668186
3004659 81 13038904426384467542
3383291 50 13118009894310150937
4073 2 18343304777497021551
4340502 62 16226045583447477450
445580 37 16630532817098286249
5104073 3 17313958556976348568
543368 44 18131350791955533785
559249 180 12179842793495430627
5758199 1 18410576180365282963
59682541 35 17676492782250916633
59682541 52 14764353734855749388
59755656 215 11959735962366050500
6438161 24 10879994632290047924
9689198 14 18060704995794684201

> <PUBCHEM_SHAPE_MULTIPOLES>
472.37
23.77
1.71
1.39
0
0.19
-0.07
-15.71
-2.06
0.63
-0.37
0.26
-0.12
-0.44

> <PUBCHEM_SHAPE_SELFOVERLAP>
992.792

> <PUBCHEM_SHAPE_VOLUME>
267.7

> <PUBCHEM_COORDINATE_TYPE>
2
5
10

$$$$
