7135391
  -OEChem-12032416353D

 52 54  0     1  0  0  0  0  0999 V2000
   -2.3966    1.7629   -1.8240 S   0  0  0  0  0  0  0  0  0  0  0  0
    3.7151    2.4630    0.8147 O   0  0  0  0  0  0  0  0  0  0  0  0
   -3.2903   -1.0339    1.8813 O   0  0  0  0  0  0  0  0  0  0  0  0
   -3.2318   -0.9447   -0.4358 N   0  0  0  0  0  0  0  0  0  0  0  0
   -0.5120   -1.9930    0.0423 C   0  0  2  0  0  0  0  0  0  0  0  0
    0.5393   -3.0991   -0.0879 C   0  0  0  0  0  0  0  0  0  0  0  0
    0.0664   -0.8198    0.8479 C   0  0  0  0  0  0  0  0  0  0  0  0
   -1.7841   -2.5226    0.7006 C   0  0  2  0  0  0  0  0  0  0  0  0
    1.7577   -2.5926   -0.8587 C   0  0  0  0  0  0  0  0  0  0  0  0
    1.4435   -0.4018    0.3941 C   0  0  0  0  0  0  0  0  0  0  0  0
    2.2552   -1.2538   -0.3762 C   0  0  0  0  0  0  0  0  0  0  0  0
    1.9446    0.8445    0.8006 C   0  0  0  0  0  0  0  0  0  0  0  0
    3.5373   -0.8271   -0.7550 C   0  0  0  0  0  0  0  0  0  0  0  0
   -2.3326   -3.7142   -0.0815 C   0  0  0  0  0  0  0  0  0  0  0  0
   -2.8450   -1.4285    0.8056 C   0  0  0  0  0  0  0  0  0  0  0  0
    3.2242    1.2527    0.4263 C   0  0  0  0  0  0  0  0  0  0  0  0
    4.0195    0.4181   -0.3532 C   0  0  0  0  0  0  0  0  0  0  0  0
    1.1223    1.7613    1.6541 C   0  0  0  0  0  0  0  0  0  0  0  0
    4.4261   -1.6788   -1.6049 C   0  0  0  0  0  0  0  0  0  0  0  0
   -4.2202    0.0966   -0.5949 C   0  0  0  0  0  0  0  0  0  0  0  0
   -3.5619    1.4479   -0.6262 C   0  0  0  0  0  0  0  0  0  0  0  0
    5.0335    2.7956    0.3846 C   0  0  0  0  0  0  0  0  0  0  0  0
   -3.7813    2.5008    0.2103 C   0  0  0  0  0  0  0  0  0  0  0  0
   -2.9653    3.6157   -0.1378 C   0  0  0  0  0  0  0  0  0  0  0  0
   -2.1638    3.3505   -1.2262 C   0  0  0  0  0  0  0  0  0  0  0  0
   -0.7316   -1.6310   -0.9717 H   0  0  0  0  0  0  0  0  0  0  0  0
    0.1602   -3.9743   -0.6239 H   0  0  0  0  0  0  0  0  0  0  0  0
    0.8466   -3.4402    0.9096 H   0  0  0  0  0  0  0  0  0  0  0  0
    0.1302   -1.0940    1.9090 H   0  0  0  0  0  0  0  0  0  0  0  0
   -0.6203    0.0291    0.7578 H   0  0  0  0  0  0  0  0  0  0  0  0
   -1.5707   -2.8546    1.7253 H   0  0  0  0  0  0  0  0  0  0  0  0
    1.4975   -2.5002   -1.9207 H   0  0  0  0  0  0  0  0  0  0  0  0
    2.5418   -3.3528   -0.7688 H   0  0  0  0  0  0  0  0  0  0  0  0
   -1.7702   -4.6277    0.1368 H   0  0  0  0  0  0  0  0  0  0  0  0
   -3.3738   -3.9146    0.1973 H   0  0  0  0  0  0  0  0  0  0  0  0
   -2.3125   -3.5490   -1.1643 H   0  0  0  0  0  0  0  0  0  0  0  0
    5.0199    0.6849   -0.6762 H   0  0  0  0  0  0  0  0  0  0  0  0
    1.7036    2.5819    2.0863 H   0  0  0  0  0  0  0  0  0  0  0  0
    0.3168    2.2061    1.0606 H   0  0  0  0  0  0  0  0  0  0  0  0
    0.6907    1.2229    2.5044 H   0  0  0  0  0  0  0  0  0  0  0  0
    4.7578   -2.5594   -1.0454 H   0  0  0  0  0  0  0  0  0  0  0  0
    3.9064   -1.9981   -2.5143 H   0  0  0  0  0  0  0  0  0  0  0  0
    5.3238   -1.1414   -1.9303 H   0  0  0  0  0  0  0  0  0  0  0  0
   -2.8190   -1.3242   -1.2816 H   0  0  0  0  0  0  0  0  0  0  0  0
   -4.9441    0.0389    0.2255 H   0  0  0  0  0  0  0  0  0  0  0  0
   -4.7554   -0.0904   -1.5322 H   0  0  0  0  0  0  0  0  0  0  0  0
    5.0963    2.8722   -0.7063 H   0  0  0  0  0  0  0  0  0  0  0  0
    5.7803    2.1111    0.8014 H   0  0  0  0  0  0  0  0  0  0  0  0
    5.2597    3.7899    0.7839 H   0  0  0  0  0  0  0  0  0  0  0  0
   -4.4843    2.4907    1.0333 H   0  0  0  0  0  0  0  0  0  0  0  0
   -2.9655    4.5637    0.3842 H   0  0  0  0  0  0  0  0  0  0  0  0
   -1.4519    4.0128   -1.6983 H   0  0  0  0  0  0  0  0  0  0  0  0
  1 21  1  0  0  0  0
  1 25  1  0  0  0  0
  2 16  1  0  0  0  0
  2 22  1  0  0  0  0
  3 15  2  0  0  0  0
  4 15  1  0  0  0  0
  4 20  1  0  0  0  0
  4 44  1  0  0  0  0
  5  6  1  0  0  0  0
  5  7  1  0  0  0  0
  5  8  1  0  0  0  0
  5 26  1  0  0  0  0
  6  9  1  0  0  0  0
  6 27  1  0  0  0  0
  6 28  1  0  0  0  0
  7 10  1  0  0  0  0
  7 29  1  0  0  0  0
  7 30  1  0  0  0  0
  8 14  1  0  0  0  0
  8 15  1  0  0  0  0
  8 31  1  0  0  0  0
  9 11  1  0  0  0  0
  9 32  1  0  0  0  0
  9 33  1  0  0  0  0
 10 11  2  0  0  0  0
 10 12  1  0  0  0  0
 11 13  1  0  0  0  0
 12 16  2  0  0  0  0
 12 18  1  0  0  0  0
 13 17  2  0  0  0  0
 13 19  1  0  0  0  0
 14 34  1  0  0  0  0
 14 35  1  0  0  0  0
 14 36  1  0  0  0  0
 16 17  1  0  0  0  0
 17 37  1  0  0  0  0
 18 38  1  0  0  0  0
 18 39  1  0  0  0  0
 18 40  1  0  0  0  0
 19 41  1  0  0  0  0
 19 42  1  0  0  0  0
 19 43  1  0  0  0  0
 20 21  1  0  0  0  0
 20 45  1  0  0  0  0
 20 46  1  0  0  0  0
 21 23  2  0  0  0  0
 22 47  1  0  0  0  0
 22 48  1  0  0  0  0
 22 49  1  0  0  0  0
 23 24  1  0  0  0  0
 23 50  1  0  0  0  0
 24 25  2  0  0  0  0
 24 51  1  0  0  0  0
 25 52  1  0  0  0  0
M  END
> <PUBCHEM_COMPOUND_CID>
7135391

> <PUBCHEM_CONFORMER_RMSD>
0.8

> <PUBCHEM_CONFORMER_DIVERSEORDER>
3
60
82
55
123
89
38
64
29
35
122
48
45
73
25
6
43
117
99
47
52
120
107
81
100
49
125
42
86
95
39
17
91
65
104
20
8
44
16
19
72
22
114
85
13
103
110
26
92
41
94
14
24
36
51
97
61
116
1
124
37
7
109
59
70
118
78
75
112
108
106
32
50
33
11
102
57
40
30
74
84
27
54
63
111
23
98
9
62
101
71
77
68
34
113
5
115
58
83
87
2
67
96
105
15
88
4
119
21
69
93
12
10
121
76
90
80
18
66
28
31
56
79
53
46

> <PUBCHEM_MMFF94_PARTIAL_CHARGES>
27
1 -0.08
10 -0.14
11 -0.14
12 -0.14
13 -0.14
15 0.57
16 0.08
17 -0.15
18 0.14
19 0.14
2 -0.36
20 0.48
21 -0.14
22 0.28
23 -0.15
24 -0.15
25 -0.11
3 -0.57
37 0.15
4 -0.73
44 0.37
50 0.15
51 0.15
52 0.15
7 0.14
8 0.06
9 0.14

> <PUBCHEM_EFFECTIVE_ROTOR_COUNT>
6.8

> <PUBCHEM_PHARMACOPHORE_FEATURES>
7
1 14 hydrophobe
1 2 acceptor
1 3 acceptor
1 4 donor
5 1 21 23 24 25 rings
6 10 11 12 13 16 17 rings
6 5 6 7 9 10 11 rings

> <PUBCHEM_HEAVY_ATOM_COUNT>
25

> <PUBCHEM_ATOM_DEF_STEREO_COUNT>
2

> <PUBCHEM_ATOM_UDEF_STEREO_COUNT>
0

> <PUBCHEM_BOND_DEF_STEREO_COUNT>
0

> <PUBCHEM_BOND_UDEF_STEREO_COUNT>
0

> <PUBCHEM_ISOTOPIC_ATOM_COUNT>
0

> <PUBCHEM_COMPONENT_COUNT>
1

> <PUBCHEM_CACTVS_TAUTO_COUNT>
2

> <PUBCHEM_CONFORMER_ID>
006CE09F00000003

> <PUBCHEM_MMFF94_ENERGY>
65.5456

> <PUBCHEM_FEATURE_SELFOVERLAP>
35.541

> <PUBCHEM_SHAPE_FINGERPRINT>
10165383 225 17973457507170245893
10498660 4 18187915150213692565
11578080 2 18335998523310179300
11595378 159 17749940180534867608
12156800 1 14499961985779479831
12403259 226 18198626725013428338
13402501 40 18410569613281257033
13464514 151 18194685864891115951
13944108 23 16677530041284513213
14251757 17 18341616971339268104
14251764 38 18410847755389836800
14279260 333 17624701150893606550
14363568 33 16964935281251061553
14466204 15 18192700147408408466
14713325 29 18264766743554980520
14931854 50 17909263585971480533
151778 21 17760367691468526637
15322687 12 17832980551631611949
15961568 22 17975133454922456796
20398071 114 18264482889055968965
21033648 144 18272097153170496262
21859007 373 18198895002748115864
221357 26 18272086050843098783
22182313 1 18343026614392866936
23536364 44 17910978850017719470
23557571 272 18117836822770723787
23559900 14 18273219669291929946
238 59 18125412264765358567
3524813 1 18410297978074498123
46194498 28 18059858329055356231
508706 21 18410289207366112463
5252454 2 17899137109675704381
5283173 99 18411140225857001160
6287921 2 18263934404373215116
7399639 24 18338523048540244291
9862522 239 18126547141211715890

> <PUBCHEM_SHAPE_MULTIPOLES>
501.62
9.12
4.86
1.4
3.21
0.28
-0.06
5.34
-1.5
-1.94
-0.17
-0.12
0.25
2.59

> <PUBCHEM_SHAPE_SELFOVERLAP>
1051.428

> <PUBCHEM_SHAPE_VOLUME>
287.1

> <PUBCHEM_COORDINATE_TYPE>
2
5
10

$$$$
