56774124
  -OEChem-12032416293D

 49 51  0     1  0  0  0  0  0999 V2000
   -4.6048    0.2744    0.9283 O   0  0  0  0  0  0  0  0  0  0  0  0
   -6.0209    2.4934   -0.5256 O   0  0  0  0  0  0  0  0  0  0  0  0
    2.4446   -0.7490   -0.5286 N   0  0  0  0  0  0  0  0  0  0  0  0
   -3.8528   -0.8823    0.7625 N   0  0  0  0  0  0  0  0  0  0  0  0
    0.5649   -2.3184   -0.1175 C   0  0  0  0  0  0  0  0  0  0  0  0
    1.4038   -1.1424    0.4246 C   0  0  2  0  0  0  0  0  0  0  0  0
   -0.6849   -1.5377    0.3398 C   0  0  1  0  0  0  0  0  0  0  0  0
    0.1613   -0.2546    0.2038 C   0  0  0  0  0  0  0  0  0  0  0  0
   -1.8980   -1.5899   -0.5608 C   0  0  0  0  0  0  0  0  0  0  0  0
    0.7205   -2.4845   -1.6196 C   0  0  0  0  0  0  0  0  0  0  0  0
    0.7254   -3.6630    0.5590 C   0  0  0  0  0  0  0  0  0  0  0  0
    3.0987    0.4686   -0.0533 C   0  0  0  0  0  0  0  0  0  0  0  0
    3.6622    1.2553   -1.2418 C   0  0  0  0  0  0  0  0  0  0  0  0
    4.2039    0.1099    0.9462 C   0  0  0  0  0  0  0  0  0  0  0  0
   -2.9144   -0.5593   -0.1320 C   0  0  0  0  0  0  0  0  0  0  0  0
    4.4204    2.4977   -0.7773 C   0  0  0  0  0  0  0  0  0  0  0  0
    4.9621    1.3534    1.4076 C   0  0  0  0  0  0  0  0  0  0  0  0
    5.5147    2.1464    0.2266 C   0  0  0  0  0  0  0  0  0  0  0  0
   -3.0237    0.7746   -0.5620 C   0  0  0  0  0  0  0  0  0  0  0  0
   -4.1014    1.2539    0.1344 C   0  0  0  0  0  0  0  0  0  0  0  0
   -4.7817    2.5535    0.1859 C   0  0  0  0  0  0  0  0  0  0  0  0
    1.7100   -1.2539    1.4710 H   0  0  0  0  0  0  0  0  0  0  0  0
   -0.9490   -1.7437    1.3887 H   0  0  0  0  0  0  0  0  0  0  0  0
   -0.0146    0.4967    0.9806 H   0  0  0  0  0  0  0  0  0  0  0  0
    0.0927    0.2437   -0.7718 H   0  0  0  0  0  0  0  0  0  0  0  0
    3.1433   -1.4700   -0.7062 H   0  0  0  0  0  0  0  0  0  0  0  0
   -2.3512   -2.5882   -0.5251 H   0  0  0  0  0  0  0  0  0  0  0  0
   -1.6512   -1.3936   -1.6102 H   0  0  0  0  0  0  0  0  0  0  0  0
    1.6974   -2.9098   -1.8806 H   0  0  0  0  0  0  0  0  0  0  0  0
    0.5988   -1.5560   -2.1885 H   0  0  0  0  0  0  0  0  0  0  0  0
   -0.0268   -3.1873   -2.0089 H   0  0  0  0  0  0  0  0  0  0  0  0
    1.7059   -4.1010    0.3418 H   0  0  0  0  0  0  0  0  0  0  0  0
   -0.0421   -4.3704    0.2262 H   0  0  0  0  0  0  0  0  0  0  0  0
    0.6434   -3.5775    1.6483 H   0  0  0  0  0  0  0  0  0  0  0  0
    2.3794    1.1308    0.4473 H   0  0  0  0  0  0  0  0  0  0  0  0
    2.8495    1.5577   -1.9138 H   0  0  0  0  0  0  0  0  0  0  0  0
    4.3403    0.6211   -1.8281 H   0  0  0  0  0  0  0  0  0  0  0  0
    4.9175   -0.5888    0.4892 H   0  0  0  0  0  0  0  0  0  0  0  0
    3.7900   -0.3929    1.8276 H   0  0  0  0  0  0  0  0  0  0  0  0
    3.7175    3.2044   -0.3192 H   0  0  0  0  0  0  0  0  0  0  0  0
    4.8631    3.0037   -1.6427 H   0  0  0  0  0  0  0  0  0  0  0  0
    5.7840    1.0592    2.0700 H   0  0  0  0  0  0  0  0  0  0  0  0
    4.2914    1.9926    1.9950 H   0  0  0  0  0  0  0  0  0  0  0  0
    5.9909    3.0642    0.5892 H   0  0  0  0  0  0  0  0  0  0  0  0
    6.2936    1.5585   -0.2744 H   0  0  0  0  0  0  0  0  0  0  0  0
   -2.4112    1.3098   -1.2726 H   0  0  0  0  0  0  0  0  0  0  0  0
   -4.1650    3.3352   -0.2692 H   0  0  0  0  0  0  0  0  0  0  0  0
   -4.9932    2.8391    1.2213 H   0  0  0  0  0  0  0  0  0  0  0  0
   -6.4279    3.3742   -0.4595 H   0  0  0  0  0  0  0  0  0  0  0  0
  1  4  1  0  0  0  0
  1 20  1  0  0  0  0
  2 21  1  0  0  0  0
  2 49  1  0  0  0  0
  3  6  1  0  0  0  0
  3 12  1  0  0  0  0
  3 26  1  0  0  0  0
  4 15  2  0  0  0  0
  5  6  1  0  0  0  0
  5  7  1  0  0  0  0
  5 10  1  0  0  0  0
  5 11  1  0  0  0  0
  6  8  1  0  0  0  0
  6 22  1  0  0  0  0
  7  8  1  0  0  0  0
  7  9  1  0  0  0  0
  7 23  1  0  0  0  0
  8 24  1  0  0  0  0
  8 25  1  0  0  0  0
  9 15  1  0  0  0  0
  9 27  1  0  0  0  0
  9 28  1  0  0  0  0
 10 29  1  0  0  0  0
 10 30  1  0  0  0  0
 10 31  1  0  0  0  0
 11 32  1  0  0  0  0
 11 33  1  0  0  0  0
 11 34  1  0  0  0  0
 12 13  1  0  0  0  0
 12 14  1  0  0  0  0
 12 35  1  0  0  0  0
 13 16  1  0  0  0  0
 13 36  1  0  0  0  0
 13 37  1  0  0  0  0
 14 17  1  0  0  0  0
 14 38  1  0  0  0  0
 14 39  1  0  0  0  0
 15 19  1  0  0  0  0
 16 18  1  0  0  0  0
 16 40  1  0  0  0  0
 16 41  1  0  0  0  0
 17 18  1  0  0  0  0
 17 42  1  0  0  0  0
 17 43  1  0  0  0  0
 18 44  1  0  0  0  0
 18 45  1  0  0  0  0
 19 20  2  0  0  0  0
 19 46  1  0  0  0  0
 20 21  1  0  0  0  0
 21 47  1  0  0  0  0
 21 48  1  0  0  0  0
M  END
> <PUBCHEM_COMPOUND_CID>
56774124

> <PUBCHEM_CONFORMER_RMSD>
0.8

> <PUBCHEM_CONFORMER_DIVERSEORDER>
1
14
25
56
79
67
65
29
60
41
62
15
20
4
57
53
63
47
36
11
19
69
55
21
58
43
40
71
3
80
22
52
66
82
6
28
51
32
44
39
10
77
70
9
83
49
54
33
2
78
7
35
37
46
72
68
75
48
18
23
13
61
5
45
30
73
42
34
81
64
24
76
74
8
17
38
59
26
31
12
16
50
27

> <PUBCHEM_MMFF94_PARTIAL_CHARGES>
14
1 -0.02
12 0.27
15 0.11
19 -0.15
2 -0.68
20 -0.04
21 0.46
26 0.36
3 -0.84
4 -0.41
46 0.15
49 0.4
6 0.21
9 0.18

> <PUBCHEM_EFFECTIVE_ROTOR_COUNT>
7

> <PUBCHEM_PHARMACOPHORE_FEATURES>
9
1 2 acceptor
1 2 donor
1 3 cation
1 3 donor
1 4 acceptor
3 5 10 11 hydrophobe
4 5 6 7 8 rings
5 1 4 15 19 20 rings
6 12 13 14 16 17 18 rings

> <PUBCHEM_HEAVY_ATOM_COUNT>
21

> <PUBCHEM_ATOM_DEF_STEREO_COUNT>
2

> <PUBCHEM_ATOM_UDEF_STEREO_COUNT>
0

> <PUBCHEM_BOND_DEF_STEREO_COUNT>
0

> <PUBCHEM_BOND_UDEF_STEREO_COUNT>
0

> <PUBCHEM_ISOTOPIC_ATOM_COUNT>
0

> <PUBCHEM_COMPONENT_COUNT>
1

> <PUBCHEM_CACTVS_TAUTO_COUNT>
1

> <PUBCHEM_CONFORMER_ID>
03624DEC00000001

> <PUBCHEM_MMFF94_ENERGY>
30.4921

> <PUBCHEM_FEATURE_SELFOVERLAP>
45.671

> <PUBCHEM_SHAPE_FINGERPRINT>
10498660 4 18202567276024013905
10692045 39 18341039741232063578
12107183 9 18262222366865046610
12363563 72 8790890704547948170
12390115 104 18341345468939054105
12403259 118 18260264191588374353
12403259 415 18339936964616472766
12422481 6 17895464839544227788
12596602 18 17023459879889220568
12633257 1 16081096999426966325
12769317 202 18201715137316937104
12788726 201 17612037379480993138
12892183 10 16298655149228059042
12969540 114 16988569047477077878
13103583 49 11747211308461898943
13544653 18 11097850804828081070
13583140 156 16298925641878493966
13590594 115 17547306501232803290
13785724 45 17903911168200991634
13955234 65 18119534232738536731
13965767 371 17967526861724612374
14123256 34 7997974604559963088
14251740 57 10737292346467447208
14251764 30 11675149338116663920
14251764 38 17695616738781501216
14251764 75 18199759042376865089
14341114 328 17167868594461679044
14461889 52 18187092737412660339
14576447 43 10592042475334501368
14774955 27 18338794512433166373
14790565 3 18336831991103862588
14848178 5 9151181917554187668
14848178 96 18342179933824501312
15163728 17 18339659896376201108
15188451 53 14851890326345353065
15238133 3 18338231678760717320
15342168 16 18410292467831807325
15342816 4 9583524243729628018
1741750 31 18338800147261602762
17810953 82 18336546023654397588
17834072 32 18409449197657287405
1813 80 8502378857946998314
18222031 100 11530478960654972962
18785283 64 18262235521975840514
193927 3 11241964867542968456
19784866 34 18413105052444883475
200 152 12463028665933261246
20715895 44 18338513045508644768
21033648 29 18341604971343555616
21452121 103 18410572838754223634
21756936 100 18266456684511095182
22950370 63 9439411250007474682
23403322 49 9583520914929532657
235170 7 15841557383188535524
23559900 14 18122065308368591491
245318 6 17678195972917876933
270888 7 18411134740419373361
2838139 119 18272642480841245524
2916195 48 18201433744171256976
314194 84 7853561409750564528
316301 35 9006763276932616540
3459 39 18198319893040231072
350125 39 18336547106481521628
351380 3 9151173168626905297
394222 165 18338513041103148642
474 4 18408606928874344147
5104073 3 18115877308925330403
59682541 52 16486980535588692780
60123966 16 17981881948282590581
633830 44 18411697673430283350
636775 72 17980758565734167432
7062679 13 9511458922592262777
7064713 232 18334857242376577644
76465 3 9295289434649401045
77188 2 17473259873391428802
7808743 9 18339078297411062280
7970288 3 9151180848081619912
88748 71 9871459929211397573
960060 61 12895356598966618616
9981440 41 18334859441489445867

> <PUBCHEM_SHAPE_MULTIPOLES>
410.47
12.45
3.61
1.13
2.85
1.18
-0.13
-15.05
1.57
0.58
-0.34
-0.82
0.1
0.04

> <PUBCHEM_SHAPE_SELFOVERLAP>
849.709

> <PUBCHEM_SHAPE_VOLUME>
236.9

> <PUBCHEM_COORDINATE_TYPE>
2
5
10

$$$$
