11865552
  -OEChem-12032416123D

 48 51  0     1  0  0  0  0  0999 V2000
    8.1169    0.1606    0.5643 F   0  0  0  0  0  0  0  0  0  0  0  0
    8.1949   -2.0059    0.6246 F   0  0  0  0  0  0  0  0  0  0  0  0
    7.2132   -0.9111    2.2266 F   0  0  0  0  0  0  0  0  0  0  0  0
   -1.0719    1.0860    0.8743 O   0  0  0  0  0  0  0  0  0  0  0  0
   -2.1838    3.6198   -0.4477 O   0  0  0  0  0  0  0  0  0  0  0  0
    1.1167    2.2279   -0.3956 O   0  0  0  0  0  0  0  0  0  0  0  0
   -5.7786    0.7769    1.6920 O   0  0  0  0  0  0  0  0  0  0  0  0
    1.2030    0.2844   -1.5979 O   0  0  0  0  0  0  0  0  0  0  0  0
   -4.0634    0.5287    0.1509 N   0  0  0  0  0  0  0  0  0  0  0  0
    2.9762    0.9625   -0.2281 N   0  0  0  0  0  0  0  0  0  0  0  0
   -7.2125   -3.0179    0.7374 N   0  0  0  0  0  0  0  0  0  0  0  0
   -6.1943   -2.7059   -1.4244 N   0  0  0  0  0  0  0  0  0  0  0  0
   -2.4996    2.2248   -0.6384 C   0  0  1  0  0  0  0  0  0  0  0  0
   -1.1988    1.4582   -0.5082 C   0  0  1  0  0  0  0  0  0  0  0  0
   -3.3349    1.7195    0.5148 C   0  0  2  0  0  0  0  0  0  0  0  0
   -0.1708    2.4897   -0.9067 C   0  0  1  0  0  0  0  0  0  0  0  0
   -2.2825    1.4231    1.5692 C   0  0  0  0  0  0  0  0  0  0  0  0
   -0.7598    3.7623   -0.3409 C   0  0  0  0  0  0  0  0  0  0  0  0
   -5.2417    0.1530    0.7804 C   0  0  0  0  0  0  0  0  0  0  0  0
    1.7310    1.0668   -0.8171 C   0  0  0  0  0  0  0  0  0  0  0  0
   -5.8566   -1.1141    0.3076 C   0  0  0  0  0  0  0  0  0  0  0  0
    3.9306   -0.0680   -0.3867 C   0  0  0  0  0  0  0  0  0  0  0  0
   -6.6392   -1.8623    1.1330 C   0  0  0  0  0  0  0  0  0  0  0  0
   -5.6524   -1.5600   -0.9625 C   0  0  0  0  0  0  0  0  0  0  0  0
    5.1333    0.0083    0.2975 C   0  0  0  0  0  0  0  0  0  0  0  0
    3.6441   -1.1357   -1.2225 C   0  0  0  0  0  0  0  0  0  0  0  0
    6.0742   -1.0096    0.1417 C   0  0  0  0  0  0  0  0  0  0  0  0
    4.5851   -2.1535   -1.3784 C   0  0  0  0  0  0  0  0  0  0  0  0
   -6.9521   -3.3750   -0.5347 C   0  0  0  0  0  0  0  0  0  0  0  0
    5.8001   -2.0905   -0.6963 C   0  0  0  0  0  0  0  0  0  0  0  0
    7.3734   -0.9430    0.8716 C   0  0  0  0  0  0  0  0  0  0  0  0
   -2.9690    2.1219   -1.6220 H   0  0  0  0  0  0  0  0  0  0  0  0
   -1.1878    0.5411   -1.1030 H   0  0  0  0  0  0  0  0  0  0  0  0
   -4.0442    2.4670    0.8863 H   0  0  0  0  0  0  0  0  0  0  0  0
   -0.1307    2.5794   -2.0006 H   0  0  0  0  0  0  0  0  0  0  0  0
   -2.5497    0.6060    2.2463 H   0  0  0  0  0  0  0  0  0  0  0  0
   -2.0709    2.3135    2.1714 H   0  0  0  0  0  0  0  0  0  0  0  0
   -0.4376    4.6505   -0.8926 H   0  0  0  0  0  0  0  0  0  0  0  0
   -0.4966    3.9108    0.7124 H   0  0  0  0  0  0  0  0  0  0  0  0
   -3.6294   -0.0907   -0.5258 H   0  0  0  0  0  0  0  0  0  0  0  0
    3.2411    1.7194    0.3976 H   0  0  0  0  0  0  0  0  0  0  0  0
   -6.8481   -1.5808    2.1592 H   0  0  0  0  0  0  0  0  0  0  0  0
   -5.0692   -1.0254   -1.7032 H   0  0  0  0  0  0  0  0  0  0  0  0
    5.3480    0.8501    0.9511 H   0  0  0  0  0  0  0  0  0  0  0  0
    2.7278   -1.2543   -1.7821 H   0  0  0  0  0  0  0  0  0  0  0  0
    4.3726   -2.9958   -2.0306 H   0  0  0  0  0  0  0  0  0  0  0  0
    6.5201   -2.8931   -0.8304 H   0  0  0  0  0  0  0  0  0  0  0  0
   -7.3999   -4.2992   -0.8789 H   0  0  0  0  0  0  0  0  0  0  0  0
  1 31  1  0  0  0  0
  2 31  1  0  0  0  0
  3 31  1  0  0  0  0
  4 14  1  0  0  0  0
  4 17  1  0  0  0  0
  5 13  1  0  0  0  0
  5 18  1  0  0  0  0
  6 16  1  0  0  0  0
  6 20  1  0  0  0  0
  7 19  2  0  0  0  0
  8 20  2  0  0  0  0
  9 15  1  0  0  0  0
  9 19  1  0  0  0  0
  9 40  1  0  0  0  0
 10 20  1  0  0  0  0
 10 22  1  0  0  0  0
 10 41  1  0  0  0  0
 11 23  2  0  0  0  0
 11 29  1  0  0  0  0
 12 24  1  0  0  0  0
 12 29  2  0  0  0  0
 13 14  1  0  0  0  0
 13 15  1  0  0  0  0
 13 32  1  0  0  0  0
 14 16  1  0  0  0  0
 14 33  1  0  0  0  0
 15 17  1  0  0  0  0
 15 34  1  0  0  0  0
 16 18  1  0  0  0  0
 16 35  1  0  0  0  0
 17 36  1  0  0  0  0
 17 37  1  0  0  0  0
 18 38  1  0  0  0  0
 18 39  1  0  0  0  0
 19 21  1  0  0  0  0
 21 23  1  0  0  0  0
 21 24  2  0  0  0  0
 22 25  1  0  0  0  0
 22 26  2  0  0  0  0
 23 42  1  0  0  0  0
 24 43  1  0  0  0  0
 25 27  2  0  0  0  0
 25 44  1  0  0  0  0
 26 28  1  0  0  0  0
 26 45  1  0  0  0  0
 27 30  1  0  0  0  0
 27 31  1  0  0  0  0
 28 30  2  0  0  0  0
 28 46  1  0  0  0  0
 29 48  1  0  0  0  0
 30 47  1  0  0  0  0
M  END
> <PUBCHEM_COMPOUND_CID>
11865552

> <PUBCHEM_CONFORMER_RMSD>
1

> <PUBCHEM_CONFORMER_DIVERSEORDER>
1
67
58
47
46
7
19
5
71
87
52
70
48
76
79
59
9
68
45
42
35
14
6
25
17
51
63
44
80
13
60
23
41
33
77
10
16
15
40
65
73
20
8
81
29
18
57
64
56
78
30
12
72
39
21
85
66
86
34
88
31
36
37
2
50
4
27
75
61
55
83
32
54
22
24
49
69
62
3
11
26
43
53
28
74
82
38
84

> <PUBCHEM_MMFF94_PARTIAL_CHARGES>
40
1 -0.34
10 -0.55
11 -0.62
12 -0.62
13 0.28
14 0.28
15 0.3
16 0.28
17 0.28
18 0.28
19 0.54
2 -0.34
20 0.78
21 0.09
22 0.12
23 0.16
24 0.16
25 -0.15
26 -0.15
27 -0.14
28 -0.15
29 0.47
3 -0.34
30 -0.15
31 1.16
4 -0.56
40 0.37
41 0.37
42 0.15
43 0.15
44 0.15
45 0.15
46 0.15
47 0.15
48 0.15
5 -0.56
6 -0.43
7 -0.57
8 -0.57
9 -0.73

> <PUBCHEM_EFFECTIVE_ROTOR_COUNT>
9.2

> <PUBCHEM_PHARMACOPHORE_FEATURES>
12
1 10 donor
1 11 acceptor
1 4 acceptor
1 5 acceptor
1 7 acceptor
1 8 acceptor
1 9 donor
3 11 12 29 cation
5 4 13 14 15 17 rings
5 5 13 14 16 18 rings
6 11 12 21 23 24 29 rings
6 22 25 26 27 28 30 rings

> <PUBCHEM_HEAVY_ATOM_COUNT>
31

> <PUBCHEM_ATOM_DEF_STEREO_COUNT>
4

> <PUBCHEM_ATOM_UDEF_STEREO_COUNT>
0

> <PUBCHEM_BOND_DEF_STEREO_COUNT>
0

> <PUBCHEM_BOND_UDEF_STEREO_COUNT>
0

> <PUBCHEM_ISOTOPIC_ATOM_COUNT>
0

> <PUBCHEM_COMPONENT_COUNT>
1

> <PUBCHEM_CACTVS_TAUTO_COUNT>
4

> <PUBCHEM_CONFORMER_ID>
00B50DD000000001

> <PUBCHEM_MMFF94_ENERGY>
84.9118

> <PUBCHEM_FEATURE_SELFOVERLAP>
61.614

> <PUBCHEM_SHAPE_FINGERPRINT>
10 15 15554447370872999857
10190206 1 12179837277887615599
10391435 84 18341605997708382887
10939801 23 17986956451937014452
11211813 128 18413673505296117302
11410812 94 16298651812117501548
11497681 19 18411429414452902212
1200032 147 11167949060544633884
12218070 45 17202473563010345063
12390115 104 10231747882152901733
12422481 6 17418103092037893615
12643181 29 18336261259386619341
13540713 5 18190767339180076813
13782708 43 18340768152805266104
13944108 23 8140994636051971311
14068700 675 18259707795723898525
14344974 204 18338518534930977990
14671636 106 18410857677249346886
14747281 78 8141541157528898664
15064981 113 14056716833815358442
15064981 194 10519116275648175033
15183329 4 12757146878905226014
15188451 53 18113620054229014796
15510800 12 18187932836683354467
15684389 69 18337397136465632308
16120349 67 8358262561901253869
16992779 147 16342277264243990352
190975 80 18412543224126746888
19303781 99 18263640826880290559
19438510 23 11240002248130765021
20028762 73 18411423903572355358
20691028 202 10231750085228141634
208703 8 18337105769979077295
21130935 74 18268146466901632098
21197605 99 18413390956319256190
21315759 148 17417258615473084446
21424621 283 9511464420361190453
21987483 16 18264485260130825530
22864921 47 18041549248993445938
229767 44 17988925600212140855
23389318 12 17894635890050598508
23522609 53 17976017312016730125
23569914 152 12470008262624867064
24204213 310 16842739819917699215
25222932 49 18187642463146322666
255183 313 17203323433726496759
2747138 104 17988925536029827376
2748736 6 9583239392750529431
2838139 119 10881405356778560721
312425 54 17917159294913083457
32027 91 18191590959651343987
3383291 50 18335706078476058251
3711267 37 12319443420966520050
392239 28 16415479376602832157
397830 11 18201997708064208912
4058900 60 9799700285671478861
406291 66 18335983164106565467
4280585 95 18408886244231454815
444735 79 18342738512023480950
50009960 94 18126842923131639791
50742298 180 18338521966235593319
508180 173 12396305876015771311
5104073 3 17913209759384549224
5718773 13 18335420188081971339
57634706 229 10375871922277505469
6201320 221 16879323676813212330
636775 72 8934414295555783494
6698420 124 17695635048085003665
6712543 237 16630255757738723223
7970288 3 18410578409601204271
96874 4 18341049722419567367
9689198 14 10015588328416407503
9953998 17 17846219921702323721

> <PUBCHEM_SHAPE_MULTIPOLES>
566.87
24.25
4.03
1.42
16.06
0.88
0.28
-27.38
7.52
-5.94
-1.03
0.25
-0.31
-0.79

> <PUBCHEM_SHAPE_SELFOVERLAP>
1238.707

> <PUBCHEM_SHAPE_VOLUME>
307.1

> <PUBCHEM_COORDINATE_TYPE>
2
5
10

$$$$
