45783276
  -OEChem-12032416273D

 52 54  0     1  0  0  0  0  0999 V2000
   -2.5183    1.9615    0.6286 O   0  0  0  0  0  0  0  0  0  0  0  0
    5.4901   -2.3807   -0.7870 O   0  0  0  0  0  0  0  0  0  0  0  0
   -3.4665   -1.3770    0.0765 N   0  0  1  0  0  0  0  0  0  0  0  0
   -0.9333    0.3798    0.6844 N   0  0  0  0  0  0  0  0  0  0  0  0
   -1.3046    2.6177    0.3878 N   0  0  0  0  0  0  0  0  0  0  0  0
    4.0976   -0.1065    0.1747 N   0  0  0  0  0  0  0  0  0  0  0  0
    3.7281    2.2264   -0.1381 N   0  0  0  0  0  0  0  0  0  0  0  0
   -3.3682   -0.2876    1.0683 C   0  0  1  0  0  0  0  0  0  0  0  0
   -3.2430   -1.0043    2.4255 C   0  0  0  0  0  0  0  0  0  0  0  0
   -4.0668   -2.5159    0.7715 C   0  0  0  0  0  0  0  0  0  0  0  0
   -3.3423   -2.4883    2.1022 C   0  0  0  0  0  0  0  0  0  0  0  0
   -4.2182   -1.0033   -1.1147 C   0  0  0  0  0  0  0  0  0  0  0  0
   -3.3600   -0.2342   -2.1338 C   0  0  0  0  0  0  0  0  0  0  0  0
   -2.2100    0.6483    0.7924 C   0  0  0  0  0  0  0  0  0  0  0  0
   -2.1811   -1.1045   -2.5775 C   0  0  0  0  0  0  0  0  0  0  0  0
   -4.1616    0.2102   -3.3600 C   0  0  0  0  0  0  0  0  0  0  0  0
   -0.4182    1.6188    0.4362 C   0  0  0  0  0  0  0  0  0  0  0  0
    0.9880    1.8249    0.2426 C   0  0  0  0  0  0  0  0  0  0  0  0
    1.8664    0.7486    0.3036 C   0  0  0  0  0  0  0  0  0  0  0  0
    1.4782    3.1017   -0.0084 C   0  0  0  0  0  0  0  0  0  0  0  0
    3.2148    1.0002    0.1081 C   0  0  0  0  0  0  0  0  0  0  0  0
    2.8440    3.2480   -0.1900 C   0  0  0  0  0  0  0  0  0  0  0  0
    3.6478   -1.4359    0.4305 C   0  0  0  0  0  0  0  0  0  0  0  0
    4.8323   -2.3861    0.4738 C   0  0  0  0  0  0  0  0  0  0  0  0
    6.6046   -3.2621   -0.7969 C   0  0  0  0  0  0  0  0  0  0  0  0
   -4.2963    0.3005    1.0951 H   0  0  0  0  0  0  0  0  0  0  0  0
   -2.3138   -0.7840    2.9618 H   0  0  0  0  0  0  0  0  0  0  0  0
   -4.0798   -0.7147    3.0730 H   0  0  0  0  0  0  0  0  0  0  0  0
   -5.1451   -2.3783    0.9225 H   0  0  0  0  0  0  0  0  0  0  0  0
   -3.8979   -3.4584    0.2416 H   0  0  0  0  0  0  0  0  0  0  0  0
   -3.8714   -3.0468    2.8799 H   0  0  0  0  0  0  0  0  0  0  0  0
   -2.3369   -2.9152    1.9994 H   0  0  0  0  0  0  0  0  0  0  0  0
   -5.1173   -0.4274   -0.8594 H   0  0  0  0  0  0  0  0  0  0  0  0
   -4.5809   -1.9119   -1.6160 H   0  0  0  0  0  0  0  0  0  0  0  0
   -2.9656    0.6812   -1.6854 H   0  0  0  0  0  0  0  0  0  0  0  0
   -2.5245   -2.0422   -3.0278 H   0  0  0  0  0  0  0  0  0  0  0  0
   -1.5750   -0.5788   -3.3237 H   0  0  0  0  0  0  0  0  0  0  0  0
   -1.5180   -1.3503   -1.7421 H   0  0  0  0  0  0  0  0  0  0  0  0
   -3.5314    0.7723   -4.0572 H   0  0  0  0  0  0  0  0  0  0  0  0
   -4.9931    0.8573   -3.0621 H   0  0  0  0  0  0  0  0  0  0  0  0
   -4.5772   -0.6505   -3.8948 H   0  0  0  0  0  0  0  0  0  0  0  0
    1.4800   -0.2454    0.4973 H   0  0  0  0  0  0  0  0  0  0  0  0
    0.8416    3.9784   -0.0676 H   0  0  0  0  0  0  0  0  0  0  0  0
    3.2769    4.2229   -0.3887 H   0  0  0  0  0  0  0  0  0  0  0  0
    5.0808    0.0904    0.0264 H   0  0  0  0  0  0  0  0  0  0  0  0
    3.1273   -1.4988    1.3932 H   0  0  0  0  0  0  0  0  0  0  0  0
    2.9707   -1.7643   -0.3674 H   0  0  0  0  0  0  0  0  0  0  0  0
    5.5379   -2.0789    1.2554 H   0  0  0  0  0  0  0  0  0  0  0  0
    4.4796   -3.3996    0.6975 H   0  0  0  0  0  0  0  0  0  0  0  0
    7.3435   -2.9549   -0.0504 H   0  0  0  0  0  0  0  0  0  0  0  0
    6.2823   -4.2906   -0.6080 H   0  0  0  0  0  0  0  0  0  0  0  0
    7.0692   -3.2183   -1.7857 H   0  0  0  0  0  0  0  0  0  0  0  0
  1  5  1  0  0  0  0
  1 14  1  0  0  0  0
  2 24  1  0  0  0  0
  2 25  1  0  0  0  0
  3  8  1  0  0  0  0
  3 10  1  0  0  0  0
  3 12  1  0  0  0  0
  4 14  2  0  0  0  0
  4 17  1  0  0  0  0
  5 17  2  0  0  0  0
  6 21  1  0  0  0  0
  6 23  1  0  0  0  0
  6 45  1  0  0  0  0
  7 21  2  0  0  0  0
  7 22  1  0  0  0  0
  8  9  1  0  0  0  0
  8 14  1  0  0  0  0
  8 26  1  0  0  0  0
  9 11  1  0  0  0  0
  9 27  1  0  0  0  0
  9 28  1  0  0  0  0
 10 11  1  0  0  0  0
 10 29  1  0  0  0  0
 10 30  1  0  0  0  0
 11 31  1  0  0  0  0
 11 32  1  0  0  0  0
 12 13  1  0  0  0  0
 12 33  1  0  0  0  0
 12 34  1  0  0  0  0
 13 15  1  0  0  0  0
 13 16  1  0  0  0  0
 13 35  1  0  0  0  0
 15 36  1  0  0  0  0
 15 37  1  0  0  0  0
 15 38  1  0  0  0  0
 16 39  1  0  0  0  0
 16 40  1  0  0  0  0
 16 41  1  0  0  0  0
 17 18  1  0  0  0  0
 18 19  2  0  0  0  0
 18 20  1  0  0  0  0
 19 21  1  0  0  0  0
 19 42  1  0  0  0  0
 20 22  2  0  0  0  0
 20 43  1  0  0  0  0
 22 44  1  0  0  0  0
 23 24  1  0  0  0  0
 23 46  1  0  0  0  0
 23 47  1  0  0  0  0
 24 48  1  0  0  0  0
 24 49  1  0  0  0  0
 25 50  1  0  0  0  0
 25 51  1  0  0  0  0
 25 52  1  0  0  0  0
M  END
> <PUBCHEM_COMPOUND_CID>
45783276

> <PUBCHEM_CONFORMER_RMSD>
1

> <PUBCHEM_CONFORMER_DIVERSEORDER>
1
85
10
84
45
12
21
83
9
66
81
75
37
79
58
19
65
82
94
70
53
68
90
76
56
7
36
78
38
72
92
67
13
54
5
55
42
8
91
33
89
16
64
46
31
43
61
73
49
86
29
2
23
59
27
4
22
80
28
32
6
69
71
17
50
14
62
11
44
20
87
60
74
35
25
18
63
77
93
24
3
39
48
88
51
41
52
15
57
47
30
26
40
34

> <PUBCHEM_MMFF94_PARTIAL_CHARGES>
24
1 -0.02
10 0.27
12 0.27
14 0.3
17 0.46
18 0.05
19 -0.15
2 -0.56
20 -0.15
21 0.41
22 0.16
23 0.37
24 0.28
25 0.28
3 -0.81
4 -0.57
42 0.15
43 0.15
44 0.15
45 0.4
5 -0.41
6 -0.87
7 -0.62
8 0.45

> <PUBCHEM_EFFECTIVE_ROTOR_COUNT>
9

> <PUBCHEM_PHARMACOPHORE_FEATURES>
9
1 2 acceptor
1 3 cation
1 6 donor
3 13 15 16 hydrophobe
3 4 5 17 cation
3 6 7 21 cation
5 1 4 5 14 17 rings
5 3 8 9 10 11 rings
6 7 18 19 20 21 22 rings

> <PUBCHEM_HEAVY_ATOM_COUNT>
25

> <PUBCHEM_ATOM_DEF_STEREO_COUNT>
1

> <PUBCHEM_ATOM_UDEF_STEREO_COUNT>
0

> <PUBCHEM_BOND_DEF_STEREO_COUNT>
0

> <PUBCHEM_BOND_UDEF_STEREO_COUNT>
0

> <PUBCHEM_ISOTOPIC_ATOM_COUNT>
0

> <PUBCHEM_COMPONENT_COUNT>
1

> <PUBCHEM_CACTVS_TAUTO_COUNT>
2

> <PUBCHEM_CONFORMER_ID>
02BA98EC00000001

> <PUBCHEM_MMFF94_ENERGY>
51.1953

> <PUBCHEM_FEATURE_SELFOVERLAP>
45.671

> <PUBCHEM_SHAPE_FINGERPRINT>
10319926 262 14117526436986395878
10622 236 17630588223510608271
11049842 53 14997378700859203752
11135926 11 18267026244677901428
12107183 9 18124618413054363337
12422481 6 17202774687599382982
12553582 1 17986676076177006177
12623949 98 17247824144179501739
13911987 19 17541667548365594341
14081887 123 14620520077195442701
14251757 17 17968364758146133859
14910302 57 17604142735590077827
15119646 57 14057581002457235166
15163728 17 13479417102594949296
15961568 22 15361345873236982517
17492 89 18338525230346395730
20645477 70 18262793094197086560
20693207 138 17822578299374233722
20775530 9 18340488851208705562
21033650 10 16081363042454573700
21049683 118 14116147606682935839
221490 88 18335150808102542216
22393880 68 17531513365034448570
22620623 9 16878213256094272463
22907989 373 12901836064049877329
235170 7 17459746123702520821
23559900 14 18408322194286858360
23598288 3 18060151907339967225
312425 83 16660364792215745558
3729539 64 17461981199504613507
46194498 28 17387129982100045101
5104073 3 10952050031293992412
5486654 36 18264507112681717600
602551 16 15338009726631863709
613672 6 18336531734667313394
6431902 208 18411421666411274066
7970288 3 18198063788145511795
9709674 26 18334585671747029784

> <PUBCHEM_SHAPE_MULTIPOLES>
477.84
12.29
4.02
2.27
14.17
0.28
-1.67
-12.49
-3.19
5.45
0.51
-4.8
-1.04
1.96

> <PUBCHEM_SHAPE_SELFOVERLAP>
992.886

> <PUBCHEM_SHAPE_VOLUME>
274.8

> <PUBCHEM_COORDINATE_TYPE>
2
5
10

$$$$
