45784186
  -OEChem-12032416293D

 45 48  0     1  0  0  0  0  0999 V2000
    2.0892    1.1456    1.0926 O   0  0  0  0  0  0  0  0  0  0  0  0
   -2.4988    0.7635    0.0367 N   0  0  1  0  0  0  0  0  0  0  0  0
    1.5987   -0.1295   -0.7159 N   0  0  0  0  0  0  0  0  0  0  0  0
   -3.5568   -0.2275   -0.1504 C   0  0  0  0  0  0  0  0  0  0  0  0
   -0.2328    1.2717    0.3638 C   0  0  2  0  0  0  0  0  0  0  0  0
   -1.2845    0.1822    0.6133 C   0  0  0  0  0  0  0  0  0  0  0  0
   -2.0672    1.3626   -1.2261 C   0  0  0  0  0  0  0  0  0  0  0  0
   -3.9640   -0.8166    1.2046 C   0  0  0  0  0  0  0  0  0  0  0  0
   -4.7552    0.4168   -0.8558 C   0  0  0  0  0  0  0  0  0  0  0  0
   -0.7681    2.0605   -0.8440 C   0  0  0  0  0  0  0  0  0  0  0  0
   -5.1223   -1.8019    1.0576 C   0  0  0  0  0  0  0  0  0  0  0  0
   -5.9122   -0.5704   -1.0006 C   0  0  0  0  0  0  0  0  0  0  0  0
   -6.3136   -1.1680    0.3449 C   0  0  0  0  0  0  0  0  0  0  0  0
    1.1619    0.7160    0.1916 C   0  0  0  0  0  0  0  0  0  0  0  0
    2.9267   -0.2781   -0.3965 C   0  0  0  0  0  0  0  0  0  0  0  0
    3.2306    0.5011    0.7100 C   0  0  0  0  0  0  0  0  0  0  0  0
    3.9422   -1.0461   -0.9840 C   0  0  0  0  0  0  0  0  0  0  0  0
    4.4867    0.5855    1.2980 C   0  0  0  0  0  0  0  0  0  0  0  0
    5.2241   -0.9871   -0.4184 C   0  0  0  0  0  0  0  0  0  0  0  0
    5.4883   -0.1867    0.6999 C   0  0  0  0  0  0  0  0  0  0  0  0
    6.3271   -1.7936   -1.0214 C   0  0  0  0  0  0  0  0  0  0  0  0
   -3.1924   -1.0484   -0.7853 H   0  0  0  0  0  0  0  0  0  0  0  0
   -0.2239    1.9538    1.2261 H   0  0  0  0  0  0  0  0  0  0  0  0
   -1.0082   -0.7583    0.1184 H   0  0  0  0  0  0  0  0  0  0  0  0
   -1.3760   -0.0045    1.6885 H   0  0  0  0  0  0  0  0  0  0  0  0
   -2.7764    2.0963   -1.6214 H   0  0  0  0  0  0  0  0  0  0  0  0
   -1.8690    0.6046   -1.9948 H   0  0  0  0  0  0  0  0  0  0  0  0
   -3.1335   -1.3552    1.6743 H   0  0  0  0  0  0  0  0  0  0  0  0
   -4.2599   -0.0151    1.8943 H   0  0  0  0  0  0  0  0  0  0  0  0
   -5.1007    1.2955   -0.2952 H   0  0  0  0  0  0  0  0  0  0  0  0
   -4.4959    0.7574   -1.8643 H   0  0  0  0  0  0  0  0  0  0  0  0
   -0.9702    3.0956   -0.5412 H   0  0  0  0  0  0  0  0  0  0  0  0
   -0.0695    2.0912   -1.6868 H   0  0  0  0  0  0  0  0  0  0  0  0
   -5.4320   -2.1571    2.0471 H   0  0  0  0  0  0  0  0  0  0  0  0
   -4.7851   -2.6805    0.4939 H   0  0  0  0  0  0  0  0  0  0  0  0
   -5.6213   -1.3764   -1.6856 H   0  0  0  0  0  0  0  0  0  0  0  0
   -6.7742   -0.0648   -1.4503 H   0  0  0  0  0  0  0  0  0  0  0  0
   -7.0968   -1.9197    0.1957 H   0  0  0  0  0  0  0  0  0  0  0  0
   -6.7415   -0.3821    0.9794 H   0  0  0  0  0  0  0  0  0  0  0  0
    3.7347   -1.6672   -1.8496 H   0  0  0  0  0  0  0  0  0  0  0  0
    4.6804    1.2073    2.1631 H   0  0  0  0  0  0  0  0  0  0  0  0
    6.4901   -0.1575    1.1238 H   0  0  0  0  0  0  0  0  0  0  0  0
    7.2872   -1.2735   -0.9348 H   0  0  0  0  0  0  0  0  0  0  0  0
    6.1535   -1.9689   -2.0886 H   0  0  0  0  0  0  0  0  0  0  0  0
    6.4035   -2.7614   -0.5160 H   0  0  0  0  0  0  0  0  0  0  0  0
  1 14  1  0  0  0  0
  1 16  1  0  0  0  0
  2  4  1  0  0  0  0
  2  6  1  0  0  0  0
  2  7  1  0  0  0  0
  3 14  2  0  0  0  0
  3 15  1  0  0  0  0
  4  8  1  0  0  0  0
  4  9  1  0  0  0  0
  4 22  1  0  0  0  0
  5  6  1  0  0  0  0
  5 10  1  0  0  0  0
  5 14  1  0  0  0  0
  5 23  1  0  0  0  0
  6 24  1  0  0  0  0
  6 25  1  0  0  0  0
  7 10  1  0  0  0  0
  7 26  1  0  0  0  0
  7 27  1  0  0  0  0
  8 11  1  0  0  0  0
  8 28  1  0  0  0  0
  8 29  1  0  0  0  0
  9 12  1  0  0  0  0
  9 30  1  0  0  0  0
  9 31  1  0  0  0  0
 10 32  1  0  0  0  0
 10 33  1  0  0  0  0
 11 13  1  0  0  0  0
 11 34  1  0  0  0  0
 11 35  1  0  0  0  0
 12 13  1  0  0  0  0
 12 36  1  0  0  0  0
 12 37  1  0  0  0  0
 13 38  1  0  0  0  0
 13 39  1  0  0  0  0
 15 16  2  0  0  0  0
 15 17  1  0  0  0  0
 16 18  1  0  0  0  0
 17 19  2  0  0  0  0
 17 40  1  0  0  0  0
 18 20  2  0  0  0  0
 18 41  1  0  0  0  0
 19 20  1  0  0  0  0
 19 21  1  0  0  0  0
 20 42  1  0  0  0  0
 21 43  1  0  0  0  0
 21 44  1  0  0  0  0
 21 45  1  0  0  0  0
M  END
> <PUBCHEM_COMPOUND_CID>
45784186

> <PUBCHEM_CONFORMER_RMSD>
0.6

> <PUBCHEM_CONFORMER_DIVERSEORDER>
1
58
12
51
10
61
50
55
41
19
60
37
45
29
63
54
56
39
47
14
52
43
59
49
15
64
27
48
57
42
21
11
16
53
2
18
5
35
23
26
62
8
34
46
7
6
40
9
33
24
30
4
20
13
44
3
38
32
22
17
28
36
25
31

> <PUBCHEM_MMFF94_PARTIAL_CHARGES>
18
1 -0.28
14 0.3
15 0.23
16 0.14
17 -0.15
18 -0.15
19 -0.14
2 -0.81
20 -0.15
21 0.14
3 -0.57
4 0.27
40 0.15
41 0.15
42 0.15
5 0.18
6 0.27
7 0.27

> <PUBCHEM_EFFECTIVE_ROTOR_COUNT>
4.2

> <PUBCHEM_PHARMACOPHORE_FEATURES>
5
1 2 cation
5 1 3 14 15 16 rings
5 2 5 6 7 10 rings
6 15 16 17 18 19 20 rings
6 4 8 9 11 12 13 rings

> <PUBCHEM_HEAVY_ATOM_COUNT>
21

> <PUBCHEM_ATOM_DEF_STEREO_COUNT>
1

> <PUBCHEM_ATOM_UDEF_STEREO_COUNT>
0

> <PUBCHEM_BOND_DEF_STEREO_COUNT>
0

> <PUBCHEM_BOND_UDEF_STEREO_COUNT>
0

> <PUBCHEM_ISOTOPIC_ATOM_COUNT>
0

> <PUBCHEM_COMPONENT_COUNT>
1

> <PUBCHEM_CACTVS_TAUTO_COUNT>
1

> <PUBCHEM_CONFORMER_ID>
02BA9C7A00000001

> <PUBCHEM_MMFF94_ENERGY>
29.5572

> <PUBCHEM_FEATURE_SELFOVERLAP>
25.492

> <PUBCHEM_SHAPE_FINGERPRINT>
10 15 18340472466357078680
10014705 185 10881694506830278304
10354089 29 14979958090352398232
10692045 39 11671519837174355228
11089746 13 14779269717934762198
11128504 68 15213299746507543365
11796584 16 18114176445403450027
11963148 33 18187077381898411682
12107183 9 15479050448500345243
12236239 1 15936404528991550193
12403259 118 14333414454252406099
12516196 113 18342174492475438081
12596602 18 16056879152192996547
12616971 3 16128366069873774788
12633257 1 16774079600395853447
12760667 363 18343586226877195835
12969540 114 10737281385600002049
13288520 33 18259985977135328557
13402501 40 18411422808202687815
13533116 47 17561081419455628562
13544653 18 18273497883786959385
13668630 136 18411135870776454991
13673619 4 18202005404645473224
13685833 64 18412829109897746491
13782708 43 18341614755395152118
13914758 101 17418095391689149161
13955234 65 17917702548790284744
14123256 34 18260275165593948931
1420 363 18411982463910320715
14251752 14 16732973220457663295
14294032 229 17242726486514887637
14341114 176 17704071806793475432
14341114 328 15482674602054863911
14350574 20 18201721730724336180
14386348 63 18410291419516888843
14528608 73 14779268626527869390
14848160 23 18412260644805383923
14849402 71 15625643025900729266
15183329 4 15574429921066211659
15238133 3 13039187013715542410
15510800 12 18336273452672944939
15880784 105 17775001319176249707
17844677 252 17989209235035031400
17870717 6 17894911832956677843
1813 80 17846792813909605197
18222031 100 18040718069509994908
19141452 34 18130222765723778111
193927 3 18335427884795358073
19784866 240 18409455790912017645
200 152 17846492621602016281
20028762 73 17203604887239407734
20281389 69 10447930563728089055
20374829 77 18040431109975883833
20621476 21 18410864264896170823
21150785 3 17530972388935631766
21267235 1 18342745108570760990
21307412 95 18260266382913855959
21623969 137 17989208135734146902
21637258 2 18131346406203236787
21682296 61 18059582334330528662
220451 1 17095521769063008937
2297311 6 18114184125116107389
23198884 109 13984659253063187091
23402539 116 17312816074390582741
23402655 69 13479135704864391552
23522609 53 17843434910052216544
23557571 272 18335135337113799581
23559900 14 17822291339708780012
239999 70 18408884062235107224
25122255 55 18410019831439375251
2767999 5 9799693688353265547
2838139 119 11602813618669944863
29717793 49 15864066538683648626
3004659 81 17530968003008994966
314173 85 18407760339655566169
34797466 226 18186525423403577564
3663271 9 16128373804714444011
4325135 7 18188211000620139604
44062 13 17822577243556532611
465052 167 18059859463285223126
5104073 3 17703225101562588706
5718773 13 18266456517335048474
5758199 1 16414904358271227776
59682541 35 18201427109222069642
59682541 52 13695853814654472850
59755656 215 18259982652187797522
59755656 520 17977664213073598189
7495541 125 18412263943804594768
8863177 126 18271807955895412734

> <PUBCHEM_SHAPE_MULTIPOLES>
416.34
16.51
1.67
1.27
1.48
0.05
-0.03
-10.01
1.09
0.42
0.19
-0.22
-0.05
2.09

> <PUBCHEM_SHAPE_SELFOVERLAP>
897.117

> <PUBCHEM_SHAPE_VOLUME>
231

> <PUBCHEM_COORDINATE_TYPE>
2
5
10

$$$$
