45784192
  -OEChem-12032416293D

 41 43  0     1  0  0  0  0  0999 V2000
    1.3086    1.0795    1.0775 O   0  0  0  0  0  0  0  0  0  0  0  0
   -3.1508    0.5462   -0.3853 N   0  0  1  0  0  0  0  0  0  0  0  0
    1.0338   -0.1255   -0.8223 N   0  0  0  0  0  0  0  0  0  0  0  0
   -0.9476    1.1380    0.1581 C   0  0  2  0  0  0  0  0  0  0  0  0
   -1.9624   -0.0081    0.2666 C   0  0  0  0  0  0  0  0  0  0  0  0
   -1.4174    1.9607   -1.0542 C   0  0  0  0  0  0  0  0  0  0  0  0
   -2.6443    1.2255   -1.5779 C   0  0  0  0  0  0  0  0  0  0  0  0
   -4.1358   -0.4760   -0.7062 C   0  0  0  0  0  0  0  0  0  0  0  0
   -4.7211   -1.1429    0.5506 C   0  0  0  0  0  0  0  0  0  0  0  0
    0.4820    0.6539    0.0816 C   0  0  0  0  0  0  0  0  0  0  0  0
   -5.4070   -0.0883    1.4232 C   0  0  0  0  0  0  0  0  0  0  0  0
   -5.7145   -2.2584    0.2151 C   0  0  0  0  0  0  0  0  0  0  0  0
    2.3361   -0.2304   -0.3969 C   0  0  0  0  0  0  0  0  0  0  0  0
    2.5080    0.5061    0.7659 C   0  0  0  0  0  0  0  0  0  0  0  0
    3.4332   -0.9227   -0.9291 C   0  0  0  0  0  0  0  0  0  0  0  0
    3.7047    0.6172    1.4629 C   0  0  0  0  0  0  0  0  0  0  0  0
    4.6588   -0.8346   -0.2531 C   0  0  0  0  0  0  0  0  0  0  0  0
    4.7893   -0.0794    0.9188 C   0  0  0  0  0  0  0  0  0  0  0  0
    5.8463   -1.5606   -0.7950 C   0  0  0  0  0  0  0  0  0  0  0  0
   -1.0442    1.7763    1.0481 H   0  0  0  0  0  0  0  0  0  0  0  0
   -2.1374   -0.2561    1.3188 H   0  0  0  0  0  0  0  0  0  0  0  0
   -1.6013   -0.9096   -0.2461 H   0  0  0  0  0  0  0  0  0  0  0  0
   -1.6955    2.9693   -0.7238 H   0  0  0  0  0  0  0  0  0  0  0  0
   -0.6531    2.0646   -1.8316 H   0  0  0  0  0  0  0  0  0  0  0  0
   -2.3452    0.5119   -2.3564 H   0  0  0  0  0  0  0  0  0  0  0  0
   -3.3774    1.9191   -2.0015 H   0  0  0  0  0  0  0  0  0  0  0  0
   -3.7011   -1.2478   -1.3557 H   0  0  0  0  0  0  0  0  0  0  0  0
   -4.9572   -0.0193   -1.2742 H   0  0  0  0  0  0  0  0  0  0  0  0
   -3.9196   -1.6086    1.1363 H   0  0  0  0  0  0  0  0  0  0  0  0
   -4.6988    0.6638    1.7851 H   0  0  0  0  0  0  0  0  0  0  0  0
   -6.2026    0.4274    0.8742 H   0  0  0  0  0  0  0  0  0  0  0  0
   -5.8590   -0.5541    2.3059 H   0  0  0  0  0  0  0  0  0  0  0  0
   -5.2316   -3.0356   -0.3864 H   0  0  0  0  0  0  0  0  0  0  0  0
   -6.0978   -2.7287    1.1267 H   0  0  0  0  0  0  0  0  0  0  0  0
   -6.5671   -1.8715   -0.3531 H   0  0  0  0  0  0  0  0  0  0  0  0
    3.3294   -1.5089   -1.8366 H   0  0  0  0  0  0  0  0  0  0  0  0
    3.7949    1.2035    2.3687 H   0  0  0  0  0  0  0  0  0  0  0  0
    5.7494   -0.0265    1.4281 H   0  0  0  0  0  0  0  0  0  0  0  0
    6.7694   -1.0035   -0.6024 H   0  0  0  0  0  0  0  0  0  0  0  0
    5.7716   -1.6903   -1.8801 H   0  0  0  0  0  0  0  0  0  0  0  0
    5.9266   -2.5480   -0.3296 H   0  0  0  0  0  0  0  0  0  0  0  0
  1 10  1  0  0  0  0
  1 14  1  0  0  0  0
  2  5  1  0  0  0  0
  2  7  1  0  0  0  0
  2  8  1  0  0  0  0
  3 10  2  0  0  0  0
  3 13  1  0  0  0  0
  4  5  1  0  0  0  0
  4  6  1  0  0  0  0
  4 10  1  0  0  0  0
  4 20  1  0  0  0  0
  5 21  1  0  0  0  0
  5 22  1  0  0  0  0
  6  7  1  0  0  0  0
  6 23  1  0  0  0  0
  6 24  1  0  0  0  0
  7 25  1  0  0  0  0
  7 26  1  0  0  0  0
  8  9  1  0  0  0  0
  8 27  1  0  0  0  0
  8 28  1  0  0  0  0
  9 11  1  0  0  0  0
  9 12  1  0  0  0  0
  9 29  1  0  0  0  0
 11 30  1  0  0  0  0
 11 31  1  0  0  0  0
 11 32  1  0  0  0  0
 12 33  1  0  0  0  0
 12 34  1  0  0  0  0
 12 35  1  0  0  0  0
 13 14  2  0  0  0  0
 13 15  1  0  0  0  0
 14 16  1  0  0  0  0
 15 17  2  0  0  0  0
 15 36  1  0  0  0  0
 16 18  2  0  0  0  0
 16 37  1  0  0  0  0
 17 18  1  0  0  0  0
 17 19  1  0  0  0  0
 18 38  1  0  0  0  0
 19 39  1  0  0  0  0
 19 40  1  0  0  0  0
 19 41  1  0  0  0  0
M  END
> <PUBCHEM_COMPOUND_CID>
45784192

> <PUBCHEM_CONFORMER_RMSD>
0.6

> <PUBCHEM_CONFORMER_DIVERSEORDER>
1
15
18
32
13
38
45
16
24
31
29
14
2
39
3
40
12
44
19
34
41
6
26
22
43
17
35
8
37
20
46
25
23
5
21
42
4
11
33
27
28
30
7
10
36
9

> <PUBCHEM_MMFF94_PARTIAL_CHARGES>
18
1 -0.28
10 0.3
13 0.23
14 0.14
15 -0.15
16 -0.15
17 -0.14
18 -0.15
19 0.14
2 -0.81
3 -0.57
36 0.15
37 0.15
38 0.15
4 0.18
5 0.27
7 0.27
8 0.27

> <PUBCHEM_EFFECTIVE_ROTOR_COUNT>
4

> <PUBCHEM_PHARMACOPHORE_FEATURES>
5
1 2 cation
3 9 11 12 hydrophobe
5 1 3 10 13 14 rings
5 2 4 5 6 7 rings
6 13 14 15 16 17 18 rings

> <PUBCHEM_HEAVY_ATOM_COUNT>
19

> <PUBCHEM_ATOM_DEF_STEREO_COUNT>
1

> <PUBCHEM_ATOM_UDEF_STEREO_COUNT>
0

> <PUBCHEM_BOND_DEF_STEREO_COUNT>
0

> <PUBCHEM_BOND_UDEF_STEREO_COUNT>
0

> <PUBCHEM_ISOTOPIC_ATOM_COUNT>
0

> <PUBCHEM_COMPONENT_COUNT>
1

> <PUBCHEM_CACTVS_TAUTO_COUNT>
1

> <PUBCHEM_CONFORMER_ID>
02BA9C8000000001

> <PUBCHEM_MMFF94_ENERGY>
30.5902

> <PUBCHEM_FEATURE_SELFOVERLAP>
25.49

> <PUBCHEM_SHAPE_FINGERPRINT>
10014705 185 7853563621663963996
10912923 1 16153422801514636796
11045515 52 14779265319888342623
11046707 91 18040431105760057237
11089746 13 10087635966651720958
11128504 68 16877950450844544974
11552529 35 16628536232646992263
11796584 16 17974281033158903626
12236239 1 16081087052203477092
12403259 415 18342450422707391720
12596602 18 17060623325985474179
12616971 3 16343696630317464820
12670546 177 14706924047144095259
12892183 10 17274834558106691955
13103583 49 17703523150913267083
13288520 33 18261114058669221365
13402501 40 18413394236883323855
13760787 5 16988550304408966932
13955234 65 17917701453547133544
14123256 34 18041006193444512523
14251718 22 17821450158037541172
14251732 14 18041289807013840406
14251757 5 16154571911298121675
14251758 9 14405197144249874676
14341114 176 17489592276670268648
14341114 328 15554449634426201167
14350574 20 18272091578645317654
14386348 63 18413108355295891479
14455015 7 18202565055773737566
14528608 73 14056723452360013082
14576447 43 16805602572973288408
15238133 3 12967131627127384738
15475509 84 15769504118946862106
15527383 91 17346600767966434945
15537594 2 17894912923704616723
15880784 105 18272655692408581371
17349148 13 16950282884097787840
17834072 33 15502377833039012394
17844677 252 18410858754426756297
1813 80 18260269685326533725
18222031 100 18114179774177014981
18785283 64 18127400379341763496
19050596 39 15482662485962645420
19141452 34 18272651298873457991
193927 3 18186806911122414179
200 152 15864069866929907349
20374829 77 18113896083361104863
20621476 21 18411145739788576478
20871999 31 16805319990180014397
21054139 6 17022617576994686274
21065201 7 18189322486205214952
21150785 3 17749400260971696902
2297311 6 18260271823755795949
23402539 116 16805602547388237437
23402655 69 13117993405592233123
23503953 91 14692563317252187564
23522609 53 18123504701895901696
23557571 272 18263361404328014733
23559900 14 18040995176267712196
26918003 58 17846781802045292851
2767999 5 11815901132902215515
2838139 119 8286200513639653663
29717793 49 15936682684296248770
3004659 81 17531247292158724759
312425 54 18202007629359684811
314173 85 18334293180511650029
34797466 226 18113911468060631660
351380 3 17603587447990058355
465052 167 17989210326726617494
5104073 3 17702941419136387122
5352402 22 17988929972050425831
542803 24 14979954787306282562
5924683 9 16701730679370186775
59755656 215 18261390010223686747
7495541 125 18410292519308279876
8863177 126 18272652385009846230

> <PUBCHEM_SHAPE_MULTIPOLES>
375.18
13.82
1.67
1.33
2.56
0.21
0.1
8.84
1.48
1.46
-0.36
-0.11
-0.25
1.55

> <PUBCHEM_SHAPE_SELFOVERLAP>
796.425

> <PUBCHEM_SHAPE_VOLUME>
213.8

> <PUBCHEM_COORDINATE_TYPE>
2
5
10

$$$$
