26743848
  -OEChem-12032416213D

 50 54  0     1  0  0  0  0  0999 V2000
   -5.3526    1.7381    1.9727 O   0  0  0  0  0  0  0  0  0  0  0  0
   -1.0176    2.1790   -1.7018 O   0  0  0  0  0  0  0  0  0  0  0  0
   -2.9291   -0.2627    0.2713 N   0  0  1  0  0  0  0  0  0  0  0  0
   -0.2452    1.0289    0.0580 N   0  0  0  0  0  0  0  0  0  0  0  0
    0.2667   -2.2415   -2.2656 N   0  0  0  0  0  0  0  0  0  0  0  0
    0.3709    2.3628   -1.6956 N   0  0  0  0  0  0  0  0  0  0  0  0
   -2.7534    1.0301   -0.4212 C   0  0  1  0  0  0  0  0  0  0  0  0
   -3.4890    2.0538    0.4634 C   0  0  0  0  0  0  0  0  0  0  0  0
   -4.0834    1.2355    1.6029 C   0  0  2  0  0  0  0  0  0  0  0  0
   -4.1785   -0.1630    1.0232 C   0  0  0  0  0  0  0  0  0  0  0  0
   -2.9234   -1.4045   -0.6339 C   0  0  0  0  0  0  0  0  0  0  0  0
   -1.2966    1.3824   -0.6371 C   0  0  0  0  0  0  0  0  0  0  0  0
   -1.5256   -1.7954   -1.0345 C   0  0  0  0  0  0  0  0  0  0  0  0
   -0.4705   -2.1806   -0.1608 C   0  0  0  0  0  0  0  0  0  0  0  0
   -1.0418   -1.8426   -2.3216 C   0  0  0  0  0  0  0  0  0  0  0  0
    0.6424   -2.4551   -0.9585 C   0  0  0  0  0  0  0  0  0  0  0  0
    0.7541    1.6542   -0.6293 C   0  0  0  0  0  0  0  0  0  0  0  0
   -0.3552   -2.3225    1.2363 C   0  0  0  0  0  0  0  0  0  0  0  0
    1.8699   -2.8660   -0.4267 C   0  0  0  0  0  0  0  0  0  0  0  0
    2.1260    1.5521   -0.2232 C   0  0  0  0  0  0  0  0  0  0  0  0
    0.8665   -2.7329    1.7823 C   0  0  0  0  0  0  0  0  0  0  0  0
    1.9606   -2.9999    0.9617 C   0  0  0  0  0  0  0  0  0  0  0  0
    2.4674    0.7977    0.8994 C   0  0  0  0  0  0  0  0  0  0  0  0
    3.1191    2.2064   -0.9523 C   0  0  0  0  0  0  0  0  0  0  0  0
    3.8018    0.6972    1.2928 C   0  0  0  0  0  0  0  0  0  0  0  0
    4.4536    2.1061   -0.5587 C   0  0  0  0  0  0  0  0  0  0  0  0
    4.7951    1.3514    0.5636 C   0  0  0  0  0  0  0  0  0  0  0  0
    4.1675   -0.1091    2.4929 C   0  0  0  0  0  0  0  0  0  0  0  0
   -3.2556    1.0177   -1.3987 H   0  0  0  0  0  0  0  0  0  0  0  0
   -2.8317    2.8360    0.8606 H   0  0  0  0  0  0  0  0  0  0  0  0
   -4.2782    2.5544   -0.1115 H   0  0  0  0  0  0  0  0  0  0  0  0
   -3.4215    1.2500    2.4775 H   0  0  0  0  0  0  0  0  0  0  0  0
   -4.2478   -0.9170    1.8144 H   0  0  0  0  0  0  0  0  0  0  0  0
   -5.0647   -0.2611    0.3822 H   0  0  0  0  0  0  0  0  0  0  0  0
   -3.5520   -1.2324   -1.5172 H   0  0  0  0  0  0  0  0  0  0  0  0
   -3.3501   -2.2800   -0.1244 H   0  0  0  0  0  0  0  0  0  0  0  0
   -5.2294    2.6582    2.2620 H   0  0  0  0  0  0  0  0  0  0  0  0
   -1.5089   -1.6272   -3.2724 H   0  0  0  0  0  0  0  0  0  0  0  0
    0.8705   -2.3610   -3.0672 H   0  0  0  0  0  0  0  0  0  0  0  0
   -1.1972   -2.1207    1.8921 H   0  0  0  0  0  0  0  0  0  0  0  0
    2.7228   -3.0725   -1.0645 H   0  0  0  0  0  0  0  0  0  0  0  0
    0.9619   -2.8428    2.8593 H   0  0  0  0  0  0  0  0  0  0  0  0
    2.9005   -3.3155    1.4072 H   0  0  0  0  0  0  0  0  0  0  0  0
    1.7048    0.2878    1.4826 H   0  0  0  0  0  0  0  0  0  0  0  0
    2.8916    2.8026   -1.8323 H   0  0  0  0  0  0  0  0  0  0  0  0
    5.2273    2.6150   -1.1263 H   0  0  0  0  0  0  0  0  0  0  0  0
    5.8380    1.2789    0.8604 H   0  0  0  0  0  0  0  0  0  0  0  0
    4.9196    0.4118    3.0949 H   0  0  0  0  0  0  0  0  0  0  0  0
    3.3019   -0.2847    3.1406 H   0  0  0  0  0  0  0  0  0  0  0  0
    4.5697   -1.0795    2.1853 H   0  0  0  0  0  0  0  0  0  0  0  0
  1  9  1  0  0  0  0
  1 37  1  0  0  0  0
  2  6  1  0  0  0  0
  2 12  1  0  0  0  0
  3  7  1  0  0  0  0
  3 10  1  0  0  0  0
  3 11  1  0  0  0  0
  4 12  2  0  0  0  0
  4 17  1  0  0  0  0
  5 15  1  0  0  0  0
  5 16  1  0  0  0  0
  5 39  1  0  0  0  0
  6 17  2  0  0  0  0
  7  8  1  0  0  0  0
  7 12  1  0  0  0  0
  7 29  1  0  0  0  0
  8  9  1  0  0  0  0
  8 30  1  0  0  0  0
  8 31  1  0  0  0  0
  9 10  1  0  0  0  0
  9 32  1  0  0  0  0
 10 33  1  0  0  0  0
 10 34  1  0  0  0  0
 11 13  1  0  0  0  0
 11 35  1  0  0  0  0
 11 36  1  0  0  0  0
 13 14  1  0  0  0  0
 13 15  2  0  0  0  0
 14 16  1  0  0  0  0
 14 18  2  0  0  0  0
 15 38  1  0  0  0  0
 16 19  2  0  0  0  0
 17 20  1  0  0  0  0
 18 21  1  0  0  0  0
 18 40  1  0  0  0  0
 19 22  1  0  0  0  0
 19 41  1  0  0  0  0
 20 23  1  0  0  0  0
 20 24  2  0  0  0  0
 21 22  2  0  0  0  0
 21 42  1  0  0  0  0
 22 43  1  0  0  0  0
 23 25  2  0  0  0  0
 23 44  1  0  0  0  0
 24 26  1  0  0  0  0
 24 45  1  0  0  0  0
 25 27  1  0  0  0  0
 25 28  1  0  0  0  0
 26 27  2  0  0  0  0
 26 46  1  0  0  0  0
 27 47  1  0  0  0  0
 28 48  1  0  0  0  0
 28 49  1  0  0  0  0
 28 50  1  0  0  0  0
M  END
> <PUBCHEM_COMPOUND_CID>
26743848

> <PUBCHEM_CONFORMER_RMSD>
0.8

> <PUBCHEM_CONFORMER_DIVERSEORDER>
1
8
221
53
115
214
127
219
238
52
228
224
176
61
143
18
211
158
222
21
183
87
205
133
72
116
96
81
159
188
195
227
28
170
83
206
223
208
6
212
38
181
196
172
2
153
131
235
36
120
103
105
80
147
63
104
239
226
109
234
12
30
230
3
199
171
62
98
114
69
154
190
26
17
194
4
169
106
207
220
177
125
218
99
91
11
191
175
184
45
132
110
231
55
138
174
60
167
65
163
165
79
90
135
118
54
187
24
92
48
27
139
73
200
150
186
10
178
129
189
215
134
232
225
157
47
78
160
111
41
37
102
151
35
185
20
141
182
149
29
84
142
168
124
43
51
202
161
152
204
140
180
75
88
19
162
97
117
216
136
145
77
156
107
70
57
56
14
123
39
22
155
198
40
5
122
16
34
82
119
137
148
126
15
46
25
128
67
31
121
237
213
71
13
201
7
193
58
203
229
93
66
166
209
236
94
50
44
23
86
33
113
164
101
89
68
59
74
85
9
130
32
179
76
217
197
108
112
42
192
64
210
233
240
95
100
146
49
173
144

> <PUBCHEM_MMFF94_PARTIAL_CHARGES>
37
1 -0.68
10 0.27
11 0.45
12 0.3
13 -0.18
15 -0.3
16 -0.15
17 0.46
18 -0.15
19 -0.15
2 -0.02
20 0.05
21 -0.15
22 -0.15
23 -0.15
24 -0.15
25 -0.14
26 -0.15
27 -0.15
28 0.14
3 -0.81
37 0.4
38 0.15
39 0.27
4 -0.57
40 0.15
41 0.15
42 0.15
43 0.15
44 0.15
45 0.15
46 0.15
47 0.15
5 0.03
6 -0.41
7 0.45
9 0.28

> <PUBCHEM_EFFECTIVE_ROTOR_COUNT>
5

> <PUBCHEM_PHARMACOPHORE_FEATURES>
11
1 1 acceptor
1 1 donor
1 3 cation
1 5 cation
1 5 donor
3 4 6 17 cation
5 2 4 6 12 17 rings
5 3 7 8 9 10 rings
5 5 13 14 15 16 rings
6 14 16 18 19 21 22 rings
6 20 23 24 25 26 27 rings

> <PUBCHEM_HEAVY_ATOM_COUNT>
28

> <PUBCHEM_ATOM_DEF_STEREO_COUNT>
2

> <PUBCHEM_ATOM_UDEF_STEREO_COUNT>
0

> <PUBCHEM_BOND_DEF_STEREO_COUNT>
0

> <PUBCHEM_BOND_UDEF_STEREO_COUNT>
0

> <PUBCHEM_ISOTOPIC_ATOM_COUNT>
0

> <PUBCHEM_COMPONENT_COUNT>
1

> <PUBCHEM_CACTVS_TAUTO_COUNT>
1

> <PUBCHEM_CONFORMER_ID>
0198142800000001

> <PUBCHEM_MMFF94_ENERGY>
53.0787

> <PUBCHEM_FEATURE_SELFOVERLAP>
55.915

> <PUBCHEM_SHAPE_FINGERPRINT>
10382601 240 18335990782855756995
10674148 151 18270695229481266796
12035759 4 17984391257050317519
12047536 79 17974882500722441409
12156800 1 16448463707455315402
12422481 6 18194660602526432426
12553582 1 17970892570250306084
12633257 1 17894345592261944387
12788726 201 17692545819651753631
13140716 1 17906739459693234179
133893 2 18265034865578452167
14840074 17 17968662725961304724
15420108 30 18201723916831132405
20691752 17 18186806863424470287
20739085 24 18040442091965108404
20905425 154 18338517417616164015
23419403 2 17533489037591023215
23728640 28 18054794154543999278
3411729 13 18268725934824533089
35225 105 18057611060342360616
392239 28 17968091993310976107
445580 8 18337377310236892584
5265222 85 17913511292027760148
6287921 2 18058448690587016959
6438718 38 18198340865396691790
7064713 232 18271516567996675904
81228 2 17834655464180296284
90525 40 18262506104624760100
9862522 239 18338784659366979517

> <PUBCHEM_SHAPE_MULTIPOLES>
544.56
8.15
3.99
2.09
0
2.04
-0.09
-6.39
-4.92
0.81
0.61
-0.13
0.47
-1.77

> <PUBCHEM_SHAPE_SELFOVERLAP>
1208.942

> <PUBCHEM_SHAPE_VOLUME>
294.8

> <PUBCHEM_COORDINATE_TYPE>
2
5
10

$$$$
