7144103
  -OEChem-12032416113D

 52 56  0     1  0  0  0  0  0999 V2000
   -2.9419    2.6142    2.2689 O   0  0  0  0  0  0  0  0  0  0  0  0
   -3.9219   -1.4714   -0.5767 O   0  0  0  0  0  0  0  0  0  0  0  0
    5.6771   -0.6808   -0.6924 O   0  0  0  0  0  0  0  0  0  0  0  0
   -1.5989    1.9592    0.4652 N   0  0  0  0  0  0  0  0  0  0  0  0
   -2.1116   -0.3876   -1.5842 N   0  0  0  0  0  0  0  0  0  0  0  0
   -1.4420   -1.9041    1.1795 N   0  0  0  0  0  0  0  0  0  0  0  0
   -0.6804   -4.3547    0.0480 N   0  0  0  0  0  0  0  0  0  0  0  0
   -2.4623    2.0420   -1.9495 C   0  0  2  0  0  0  0  0  0  0  0  0
   -0.1998    1.1978   -1.4789 C   0  0  2  0  0  0  0  0  0  0  0  0
   -0.9938    2.2013   -2.3143 C   0  0  0  0  0  0  0  0  0  0  0  0
   -2.6379    2.4068   -0.4742 C   0  0  0  0  0  0  0  0  0  0  0  0
   -2.9432    0.6125   -2.2509 C   0  0  0  0  0  0  0  0  0  0  0  0
   -0.6671   -0.2357   -1.8123 C   0  0  0  0  0  0  0  0  0  0  0  0
   -0.3570    1.4634    0.0204 C   0  0  0  0  0  0  0  0  0  0  0  0
    0.6314    1.2090    0.9172 C   0  0  0  0  0  0  0  0  0  0  0  0
   -1.8815    2.1718    1.8262 C   0  0  0  0  0  0  0  0  0  0  0  0
   -2.7127   -1.3469   -0.7656 C   0  0  0  0  0  0  0  0  0  0  0  0
    0.3745    1.4122    2.3301 C   0  0  0  0  0  0  0  0  0  0  0  0
   -0.8002    1.8482    2.7844 C   0  0  0  0  0  0  0  0  0  0  0  0
    1.9587    0.7115    0.4932 C   0  0  0  0  0  0  0  0  0  0  0  0
   -1.8457   -2.2861   -0.0443 C   0  0  0  0  0  0  0  0  0  0  0  0
    2.1815   -0.6578    0.3865 C   0  0  0  0  0  0  0  0  0  0  0  0
    2.9753    1.6168    0.2046 C   0  0  0  0  0  0  0  0  0  0  0  0
   -1.4765   -3.4844   -0.6042 C   0  0  0  0  0  0  0  0  0  0  0  0
    3.4334   -1.1264   -0.0127 C   0  0  0  0  0  0  0  0  0  0  0  0
    4.2269    1.1482   -0.1947 C   0  0  0  0  0  0  0  0  0  0  0  0
    4.4560   -0.2234   -0.3033 C   0  0  0  0  0  0  0  0  0  0  0  0
   -0.6461   -2.7745    1.8318 C   0  0  0  0  0  0  0  0  0  0  0  0
   -0.2720   -3.9781    1.2760 C   0  0  0  0  0  0  0  0  0  0  0  0
    6.6776    0.2969   -0.9741 C   0  0  0  0  0  0  0  0  0  0  0  0
   -3.0683    2.7297   -2.5522 H   0  0  0  0  0  0  0  0  0  0  0  0
    0.8487    1.2945   -1.7819 H   0  0  0  0  0  0  0  0  0  0  0  0
   -0.6533    3.2258   -2.1185 H   0  0  0  0  0  0  0  0  0  0  0  0
   -0.8434    2.0121   -3.3843 H   0  0  0  0  0  0  0  0  0  0  0  0
   -2.6590    3.5021   -0.3867 H   0  0  0  0  0  0  0  0  0  0  0  0
   -3.6131    2.0593   -0.1099 H   0  0  0  0  0  0  0  0  0  0  0  0
   -3.9940    0.4982   -1.9643 H   0  0  0  0  0  0  0  0  0  0  0  0
   -2.8791    0.4148   -3.3279 H   0  0  0  0  0  0  0  0  0  0  0  0
   -0.4925   -0.4459   -2.8750 H   0  0  0  0  0  0  0  0  0  0  0  0
   -0.0980   -0.9767   -1.2509 H   0  0  0  0  0  0  0  0  0  0  0  0
    1.1689    1.1848    3.0350 H   0  0  0  0  0  0  0  0  0  0  0  0
   -0.9854    1.9908    3.8423 H   0  0  0  0  0  0  0  0  0  0  0  0
    1.4019   -1.3748    0.6110 H   0  0  0  0  0  0  0  0  0  0  0  0
    2.8098    2.6885    0.2847 H   0  0  0  0  0  0  0  0  0  0  0  0
   -1.8005   -3.7925   -1.5911 H   0  0  0  0  0  0  0  0  0  0  0  0
    3.6057   -2.1961   -0.0948 H   0  0  0  0  0  0  0  0  0  0  0  0
    4.9758    1.9041   -0.4051 H   0  0  0  0  0  0  0  0  0  0  0  0
   -0.3160   -2.4712    2.8176 H   0  0  0  0  0  0  0  0  0  0  0  0
    0.3689   -4.6761    1.8002 H   0  0  0  0  0  0  0  0  0  0  0  0
    6.9297    0.8827   -0.0836 H   0  0  0  0  0  0  0  0  0  0  0  0
    6.3937    0.9305   -1.8213 H   0  0  0  0  0  0  0  0  0  0  0  0
    7.5834   -0.2431   -1.2684 H   0  0  0  0  0  0  0  0  0  0  0  0
  1 16  2  0  0  0  0
  2 17  2  0  0  0  0
  3 27  1  0  0  0  0
  3 30  1  0  0  0  0
  4 11  1  0  0  0  0
  4 14  1  0  0  0  0
  4 16  1  0  0  0  0
  5 12  1  0  0  0  0
  5 13  1  0  0  0  0
  5 17  1  0  0  0  0
  6 21  2  0  0  0  0
  6 28  1  0  0  0  0
  7 24  2  0  0  0  0
  7 29  1  0  0  0  0
  8 10  1  0  0  0  0
  8 11  1  0  0  0  0
  8 12  1  0  0  0  0
  8 31  1  0  0  0  0
  9 10  1  0  0  0  0
  9 13  1  0  0  0  0
  9 14  1  0  0  0  0
  9 32  1  0  0  0  0
 10 33  1  0  0  0  0
 10 34  1  0  0  0  0
 11 35  1  0  0  0  0
 11 36  1  0  0  0  0
 12 37  1  0  0  0  0
 12 38  1  0  0  0  0
 13 39  1  0  0  0  0
 13 40  1  0  0  0  0
 14 15  2  0  0  0  0
 15 18  1  0  0  0  0
 15 20  1  0  0  0  0
 16 19  1  0  0  0  0
 17 21  1  0  0  0  0
 18 19  2  0  0  0  0
 18 41  1  0  0  0  0
 19 42  1  0  0  0  0
 20 22  2  0  0  0  0
 20 23  1  0  0  0  0
 21 24  1  0  0  0  0
 22 25  1  0  0  0  0
 22 43  1  0  0  0  0
 23 26  2  0  0  0  0
 23 44  1  0  0  0  0
 24 45  1  0  0  0  0
 25 27  2  0  0  0  0
 25 46  1  0  0  0  0
 26 27  1  0  0  0  0
 26 47  1  0  0  0  0
 28 29  2  0  0  0  0
 28 48  1  0  0  0  0
 29 49  1  0  0  0  0
 30 50  1  0  0  0  0
 30 51  1  0  0  0  0
 30 52  1  0  0  0  0
M  END
> <PUBCHEM_COMPOUND_CID>
7144103

> <PUBCHEM_CONFORMER_RMSD>
0.8

> <PUBCHEM_CONFORMER_DIVERSEORDER>
1
6
5
4
2
3

> <PUBCHEM_MMFF94_PARTIAL_CHARGES>
37
1 -0.57
11 0.3
12 0.3
13 0.3
14 -0.03
15 -0.03
16 0.62
17 0.54
18 -0.15
19 -0.14
2 -0.57
20 0.03
21 0.4
22 -0.15
23 -0.15
24 0.16
25 -0.15
26 -0.15
27 0.08
28 0.16
29 0.16
3 -0.36
30 0.28
4 -0.47
41 0.15
42 0.15
43 0.15
44 0.15
45 0.15
46 0.15
47 0.15
48 0.15
49 0.15
5 -0.66
6 -0.62
7 -0.62
9 0.14

> <PUBCHEM_EFFECTIVE_ROTOR_COUNT>
5

> <PUBCHEM_PHARMACOPHORE_FEATURES>
10
1 1 acceptor
1 2 acceptor
1 3 acceptor
1 6 acceptor
1 7 acceptor
6 20 22 23 25 26 27 rings
6 4 14 15 16 18 19 rings
6 4 8 9 10 11 14 rings
6 5 8 9 10 12 13 rings
6 6 7 21 24 28 29 rings

> <PUBCHEM_HEAVY_ATOM_COUNT>
30

> <PUBCHEM_ATOM_DEF_STEREO_COUNT>
2

> <PUBCHEM_ATOM_UDEF_STEREO_COUNT>
0

> <PUBCHEM_BOND_DEF_STEREO_COUNT>
0

> <PUBCHEM_BOND_UDEF_STEREO_COUNT>
0

> <PUBCHEM_ISOTOPIC_ATOM_COUNT>
0

> <PUBCHEM_COMPONENT_COUNT>
1

> <PUBCHEM_CACTVS_TAUTO_COUNT>
1

> <PUBCHEM_CONFORMER_ID>
006D02A700000001

> <PUBCHEM_MMFF94_ENERGY>
102.6215

> <PUBCHEM_FEATURE_SELFOVERLAP>
52.338

> <PUBCHEM_SHAPE_FINGERPRINT>
12156800 1 17615464367971545795
12788726 201 18130788949402464562
133893 2 17472968511430806733
14114206 34 17986936484334063080
14251740 79 18410572886030531786
15463212 79 17821996602442303746
20642791 178 17472389094921029973
20775530 9 17904763637129991338
238 59 17537704504615190159
3027735 51 18413108338116490138
3493558 16 11232418598326611670
35225 105 17912120263087562563
394222 165 16765934152080710401
469060 322 17458925815013749618
484985 159 18060145323260402550
5080951 261 18187081797967563544
59755656 520 18198636444893275128

> <PUBCHEM_SHAPE_MULTIPOLES>
579.85
7.71
4.37
2.44
16.58
5
-0.78
-0.81
3.53
-3.82
-1.24
-1.94
-1.61
-0.12

> <PUBCHEM_SHAPE_SELFOVERLAP>
1282.612

> <PUBCHEM_SHAPE_VOLUME>
304.4

> <PUBCHEM_COORDINATE_TYPE>
2
5
10

$$$$
