51136856
  -OEChem-12032416223D

 63 67  0     1  0  0  0  0  0999 V2000
   -2.1221    2.1072   -1.8057 O   0  0  0  0  0  0  0  0  0  0  0  0
   -4.2174    0.6681    0.8485 N   0  0  1  0  0  0  0  0  0  0  0  0
   -4.1934   -3.4546   -0.1844 N   0  0  0  0  0  0  0  0  0  0  0  0
   -1.3743    1.1419    0.0720 N   0  0  0  0  0  0  0  0  0  0  0  0
   -0.7466    1.9160   -1.9873 N   0  0  0  0  0  0  0  0  0  0  0  0
    4.9038   -0.1109    0.1278 N   0  0  0  0  0  0  0  0  0  0  0  0
    7.6830   -0.6521    0.5042 N   0  0  0  0  0  0  0  0  0  0  0  0
    3.2754    0.8314   -1.3090 N   0  0  0  0  0  0  0  0  0  0  0  0
   -4.6212   -0.5882    0.2213 C   0  0  0  0  0  0  0  0  0  0  0  0
   -3.8547    1.7154   -0.1270 C   0  0  1  0  0  0  0  0  0  0  0  0
   -5.2774    1.2313    1.6850 C   0  0  0  0  0  0  0  0  0  0  0  0
   -4.9717   -1.6258    1.2908 C   0  0  0  0  0  0  0  0  0  0  0  0
   -3.5129   -1.1285   -0.6871 C   0  0  0  0  0  0  0  0  0  0  0  0
   -4.1764    3.0420    0.5858 C   0  0  0  0  0  0  0  0  0  0  0  0
   -4.7707    2.6386    1.9277 C   0  0  0  0  0  0  0  0  0  0  0  0
   -5.3016   -2.9791    0.6552 C   0  0  0  0  0  0  0  0  0  0  0  0
   -3.8903   -2.4980   -1.2580 C   0  0  0  0  0  0  0  0  0  0  0  0
   -2.4090    1.6246   -0.5683 C   0  0  0  0  0  0  0  0  0  0  0  0
   -4.5029   -4.7702   -0.7437 C   0  0  0  0  0  0  0  0  0  0  0  0
   -0.3775    1.3425   -0.8381 C   0  0  0  0  0  0  0  0  0  0  0  0
    5.7389   -0.5020   -1.0148 C   0  0  0  0  0  0  0  0  0  0  0  0
    5.6190    0.4773    1.2645 C   0  0  0  0  0  0  0  0  0  0  0  0
    6.9278   -1.3446   -0.5472 C   0  0  0  0  0  0  0  0  0  0  0  0
    6.8127   -0.3964    1.6583 C   0  0  0  0  0  0  0  0  0  0  0  0
    0.9780    0.9595   -0.5672 C   0  0  0  0  0  0  0  0  0  0  0  0
    3.5772    0.2569   -0.1230 C   0  0  0  0  0  0  0  0  0  0  0  0
    1.3272    0.3659    0.6408 C   0  0  0  0  0  0  0  0  0  0  0  0
    8.8471   -1.4419    0.9045 C   0  0  0  0  0  0  0  0  0  0  0  0
    2.6496    0.0049    0.8750 C   0  0  0  0  0  0  0  0  0  0  0  0
    1.9803    1.1687   -1.5007 C   0  0  0  0  0  0  0  0  0  0  0  0
   -5.5150   -0.4226   -0.3982 H   0  0  0  0  0  0  0  0  0  0  0  0
   -4.4976    1.6553   -1.0168 H   0  0  0  0  0  0  0  0  0  0  0  0
   -5.3956    0.7085    2.6387 H   0  0  0  0  0  0  0  0  0  0  0  0
   -6.2434    1.2610    1.1652 H   0  0  0  0  0  0  0  0  0  0  0  0
   -5.8443   -1.3187    1.8782 H   0  0  0  0  0  0  0  0  0  0  0  0
   -4.1358   -1.7487    1.9929 H   0  0  0  0  0  0  0  0  0  0  0  0
   -2.5705   -1.2294   -0.1339 H   0  0  0  0  0  0  0  0  0  0  0  0
   -3.3431   -0.4807   -1.5519 H   0  0  0  0  0  0  0  0  0  0  0  0
   -3.3057    3.6918    0.7255 H   0  0  0  0  0  0  0  0  0  0  0  0
   -4.9228    3.5999    0.0071 H   0  0  0  0  0  0  0  0  0  0  0  0
   -5.5629    3.3203    2.2507 H   0  0  0  0  0  0  0  0  0  0  0  0
   -3.9876    2.6370    2.6962 H   0  0  0  0  0  0  0  0  0  0  0  0
   -5.4894   -3.6979    1.4622 H   0  0  0  0  0  0  0  0  0  0  0  0
   -6.2276   -2.8962    0.0709 H   0  0  0  0  0  0  0  0  0  0  0  0
   -4.7452   -2.3913   -1.9389 H   0  0  0  0  0  0  0  0  0  0  0  0
   -3.0446   -2.8648   -1.8527 H   0  0  0  0  0  0  0  0  0  0  0  0
   -4.6795   -5.4969    0.0571 H   0  0  0  0  0  0  0  0  0  0  0  0
   -5.3874   -4.7478   -1.3906 H   0  0  0  0  0  0  0  0  0  0  0  0
   -3.6572   -5.1484   -1.3286 H   0  0  0  0  0  0  0  0  0  0  0  0
    5.1582   -1.0968   -1.7310 H   0  0  0  0  0  0  0  0  0  0  0  0
    6.0937    0.3963   -1.5363 H   0  0  0  0  0  0  0  0  0  0  0  0
    4.9704    0.5853    2.1413 H   0  0  0  0  0  0  0  0  0  0  0  0
    5.9618    1.4838    0.9919 H   0  0  0  0  0  0  0  0  0  0  0  0
    7.5751   -1.5338   -1.4122 H   0  0  0  0  0  0  0  0  0  0  0  0
    6.5687   -2.3189   -0.1887 H   0  0  0  0  0  0  0  0  0  0  0  0
    6.4504   -1.3402    2.0880 H   0  0  0  0  0  0  0  0  0  0  0  0
    7.3744    0.1250    2.4429 H   0  0  0  0  0  0  0  0  0  0  0  0
    0.5901    0.1695    1.4151 H   0  0  0  0  0  0  0  0  0  0  0  0
    9.4306   -0.9085    1.6632 H   0  0  0  0  0  0  0  0  0  0  0  0
    8.5659   -2.4204    1.3105 H   0  0  0  0  0  0  0  0  0  0  0  0
    9.5148   -1.6018    0.0506 H   0  0  0  0  0  0  0  0  0  0  0  0
    2.9177   -0.4724    1.8118 H   0  0  0  0  0  0  0  0  0  0  0  0
    1.7913    1.6258   -2.4675 H   0  0  0  0  0  0  0  0  0  0  0  0
  1  5  1  0  0  0  0
  1 18  1  0  0  0  0
  2  9  1  0  0  0  0
  2 10  1  0  0  0  0
  2 11  1  0  0  0  0
  3 16  1  0  0  0  0
  3 17  1  0  0  0  0
  3 19  1  0  0  0  0
  4 18  2  0  0  0  0
  4 20  1  0  0  0  0
  5 20  2  0  0  0  0
  6 21  1  0  0  0  0
  6 22  1  0  0  0  0
  6 26  1  0  0  0  0
  7 23  1  0  0  0  0
  7 24  1  0  0  0  0
  7 28  1  0  0  0  0
  8 26  2  0  0  0  0
  8 30  1  0  0  0  0
  9 12  1  0  0  0  0
  9 13  1  0  0  0  0
  9 31  1  0  0  0  0
 10 14  1  0  0  0  0
 10 18  1  0  0  0  0
 10 32  1  0  0  0  0
 11 15  1  0  0  0  0
 11 33  1  0  0  0  0
 11 34  1  0  0  0  0
 12 16  1  0  0  0  0
 12 35  1  0  0  0  0
 12 36  1  0  0  0  0
 13 17  1  0  0  0  0
 13 37  1  0  0  0  0
 13 38  1  0  0  0  0
 14 15  1  0  0  0  0
 14 39  1  0  0  0  0
 14 40  1  0  0  0  0
 15 41  1  0  0  0  0
 15 42  1  0  0  0  0
 16 43  1  0  0  0  0
 16 44  1  0  0  0  0
 17 45  1  0  0  0  0
 17 46  1  0  0  0  0
 19 47  1  0  0  0  0
 19 48  1  0  0  0  0
 19 49  1  0  0  0  0
 20 25  1  0  0  0  0
 21 23  1  0  0  0  0
 21 50  1  0  0  0  0
 21 51  1  0  0  0  0
 22 24  1  0  0  0  0
 22 52  1  0  0  0  0
 22 53  1  0  0  0  0
 23 54  1  0  0  0  0
 23 55  1  0  0  0  0
 24 56  1  0  0  0  0
 24 57  1  0  0  0  0
 25 27  1  0  0  0  0
 25 30  2  0  0  0  0
 26 29  1  0  0  0  0
 27 29  2  0  0  0  0
 27 58  1  0  0  0  0
 28 59  1  0  0  0  0
 28 60  1  0  0  0  0
 28 61  1  0  0  0  0
 29 62  1  0  0  0  0
 30 63  1  0  0  0  0
M  END
> <PUBCHEM_COMPOUND_CID>
51136856

> <PUBCHEM_CONFORMER_RMSD>
1

> <PUBCHEM_CONFORMER_DIVERSEORDER>
1
135
111
106
62
56
157
102
110
119
148
152
47
89
124
125
108
138
31
133
27
69
94
49
82
85
44
123
3
137
26
143
90
155
41
154
63
12
156
37
129
140
151
72
4
103
120
141
134
54
101
58
107
33
130
132
61
126
17
147
66
15
100
116
117
2
57
118
145
80
43
109
21
91
139
20
39
76
150
42
83
144
84
67
59
113
78
68
19
34
38
53
87
29
136
52
6
35
11
114
127
40
55
88
79
71
105
64
5
51
97
153
128
86
75
77
22
30
73
24
28
131
115
92
25
60
46
16
48
96
146
93
23
74
45
36
142
18
149
70
7
14
98
10
112
99
81
32
122
50
8
13
65
121
95
9
104

> <PUBCHEM_MMFF94_PARTIAL_CHARGES>
29
1 -0.02
10 0.45
11 0.27
16 0.27
17 0.27
18 0.3
19 0.27
2 -0.81
20 0.46
21 0.37
22 0.37
23 0.27
24 0.27
25 0.05
26 0.41
27 -0.15
28 0.27
29 -0.15
3 -0.81
30 0.16
4 -0.57
5 -0.41
58 0.15
6 -0.84
62 0.15
63 0.15
7 -0.81
8 -0.62
9 0.27

> <PUBCHEM_EFFECTIVE_ROTOR_COUNT>
7.4

> <PUBCHEM_PHARMACOPHORE_FEATURES>
10
1 2 cation
1 3 cation
1 7 cation
3 4 5 20 cation
3 6 8 26 cation
5 1 4 5 18 20 rings
5 2 10 11 14 15 rings
6 3 9 12 13 16 17 rings
6 6 7 21 22 23 24 rings
6 8 25 26 27 29 30 rings

> <PUBCHEM_HEAVY_ATOM_COUNT>
30

> <PUBCHEM_ATOM_DEF_STEREO_COUNT>
1

> <PUBCHEM_ATOM_UDEF_STEREO_COUNT>
0

> <PUBCHEM_BOND_DEF_STEREO_COUNT>
0

> <PUBCHEM_BOND_UDEF_STEREO_COUNT>
0

> <PUBCHEM_ISOTOPIC_ATOM_COUNT>
0

> <PUBCHEM_COMPONENT_COUNT>
1

> <PUBCHEM_CACTVS_TAUTO_COUNT>
1

> <PUBCHEM_CONFORMER_ID>
030C495800000001

> <PUBCHEM_MMFF94_ENERGY>
64.6132

> <PUBCHEM_FEATURE_SELFOVERLAP>
50.752

> <PUBCHEM_SHAPE_FINGERPRINT>
10 15 16774075159779834704
10319926 262 18130797754074845740
10622 236 18117841234150718311
11103572 155 18269839723208983238
11135926 11 15864070940835243112
11227150 75 16409825868466238967
11545043 162 18131067147213431936
11552529 35 18341895216833147873
11963148 33 18114734938015053970
12422481 6 18273220785392713902
12522641 68 17245244329018056933
12523318 42 18201444692433232553
12616971 3 17895204298048161940
12988421 55 14404912405261218767
13009979 54 18264778834336253085
13540713 5 18189632698761085757
13583140 156 17203610380718323273
13782708 43 18409158927410234218
14344974 204 18342738572148612494
14705955 166 17131569254143977265
14844126 61 18412549838597929267
14849402 71 18337114570652585480
14856354 85 18272373053000127596
15021287 119 17749116586159470804
15183329 4 17167863071803799450
15289351 153 10375282550566877258
15320294 125 18334301972489176711
15326921 28 18049720711837129369
15348495 7 18131628998103858736
15352257 5 18341332198239728286
155225 5 9006519206826794791
16989713 51 18260261945573868542
17093844 174 17703502207930252896
17324776 126 17697580444583958207
17780758 139 18342458140832136113
17913733 40 16487262058158028142
18927931 339 17095809832451343297
19841028 212 17897168146770910171
20028762 73 18259984890551379042
21033648 29 16415214334171587093
21136928 126 16181276025213180662
21315759 148 18131914871147828314
21360442 33 17189524808514266895
21424621 283 10879996869830605702
21774942 28 9799694805836137762
21814621 53 17703506606762644082
23522609 53 17897759546350739252
23523787 8 17757506904468838455
23569914 152 11894932899256774904
2838139 119 10159691409206549582
312425 54 18272654498259745810
3504750 166 18410289207350197374
3711267 37 13613940272502593762
397830 11 18272361023566696000
4073 2 18202002106110440558
4144715 1 18131075917906448312
4169191 19 13326560879231194618
44555599 121 12391502123427627186
445580 167 17312830394687228404
4616759 239 17845928537914347506
484985 159 18335411392669821447
4938544 92 18342175523341741017
5080951 261 18338218419294140119
5104073 3 18343303708071016888
5364581 5 17988636462465193192
58260988 114 17241629337344983737
6009941 240 17917430878453731808
6058803 2 18046369662715370421
636775 72 10087629413223438250
6691757 9 18343025450710320953
68570916 9 18410014368979381628
7970288 3 18121499317726310191
9896288 288 18338809923102690635
9953998 17 18342455919854113360

> <PUBCHEM_SHAPE_MULTIPOLES>
576.65
21.2
3.86
1.67
42.75
4.02
0.03
11.41
-8.74
-10.69
0.39
-0.18
-0.66
-1.72

> <PUBCHEM_SHAPE_SELFOVERLAP>
1227.677

> <PUBCHEM_SHAPE_VOLUME>
322.2

> <PUBCHEM_COORDINATE_TYPE>
2
5
10

$$$$
