40779459
  -OEChem-12032416163D

 67 73  0     1  0  0  0  0  0999 V2000
    1.5089   -0.8907    1.2754 O   0  0  0  0  0  0  0  0  0  0  0  0
    6.7512   -1.8323   -1.3779 O   0  0  0  0  0  0  0  0  0  0  0  0
    6.4373   -4.1710   -0.8891 O   0  0  0  0  0  0  0  0  0  0  0  0
    1.5135    4.1436    1.3135 N   0  0  2  0  0  0  0  0  0  0  0  0
   -2.6815    2.9336   -1.1382 N   0  0  0  0  0  0  0  0  0  0  0  0
    3.1434    0.7566    1.2692 N   0  0  0  0  0  0  0  0  0  0  0  0
   -3.5688    1.9248   -1.1011 N   0  0  0  0  0  0  0  0  0  0  0  0
    0.7322    3.6364   -1.1186 C   0  0  2  0  0  0  0  0  0  0  0  0
   -0.4922    3.7793   -0.1727 C   0  0  2  0  0  0  0  0  0  0  0  0
    2.2568    2.9744    0.7743 C   0  0  2  0  0  0  0  0  0  0  0  0
    1.6656    2.5311   -0.5812 C   0  0  0  0  0  0  0  0  0  0  0  0
    1.5123    4.9663   -1.0410 C   0  0  0  0  0  0  0  0  0  0  0  0
    0.0537    3.8773    1.2805 C   0  0  0  0  0  0  0  0  0  0  0  0
    1.7922    5.3041    0.4339 C   0  0  0  0  0  0  0  0  0  0  0  0
   -1.6198    2.7649   -0.2986 C   0  0  0  0  0  0  0  0  0  0  0  0
    2.3254    1.8167    1.7725 C   0  0  0  0  0  0  0  0  0  0  0  0
   -1.8272    1.5624    0.3319 C   0  0  0  0  0  0  0  0  0  0  0  0
   -3.0416    1.0903   -0.2014 C   0  0  0  0  0  0  0  0  0  0  0  0
   -2.9217    4.0525   -2.0199 C   0  0  0  0  0  0  0  0  0  0  0  0
    2.6638   -0.5347    1.0565 C   0  0  0  0  0  0  0  0  0  0  0  0
   -3.7080   -0.1412    0.1334 C   0  0  0  0  0  0  0  0  0  0  0  0
    3.6469   -1.5289    0.5546 C   0  0  0  0  0  0  0  0  0  0  0  0
   -4.4920   -0.7913   -0.8202 C   0  0  0  0  0  0  0  0  0  0  0  0
   -3.5692   -0.6828    1.4079 C   0  0  0  0  0  0  0  0  0  0  0  0
   -5.1481   -1.9935   -0.5096 C   0  0  0  0  0  0  0  0  0  0  0  0
    4.7452   -1.1003   -0.1948 C   0  0  0  0  0  0  0  0  0  0  0  0
    3.4637   -2.8936    0.8396 C   0  0  0  0  0  0  0  0  0  0  0  0
   -4.2140   -1.8764    1.7338 C   0  0  0  0  0  0  0  0  0  0  0  0
   -5.0071   -2.5442    0.7865 C   0  0  0  0  0  0  0  0  0  0  0  0
    5.6316   -2.0601   -0.6384 C   0  0  0  0  0  0  0  0  0  0  0  0
    4.3766   -3.8451    0.3785 C   0  0  0  0  0  0  0  0  0  0  0  0
   -5.9413   -2.6611   -1.4569 C   0  0  0  0  0  0  0  0  0  0  0  0
    5.4524   -3.3956   -0.3593 C   0  0  0  0  0  0  0  0  0  0  0  0
   -5.6633   -3.7463    1.0971 C   0  0  0  0  0  0  0  0  0  0  0  0
   -6.5862   -3.8546   -1.1310 C   0  0  0  0  0  0  0  0  0  0  0  0
   -6.4475   -4.3962    0.1436 C   0  0  0  0  0  0  0  0  0  0  0  0
    7.2567   -3.1741   -1.5326 C   0  0  0  0  0  0  0  0  0  0  0  0
    0.4249    3.4201   -2.1470 H   0  0  0  0  0  0  0  0  0  0  0  0
   -0.9436    4.7595   -0.3889 H   0  0  0  0  0  0  0  0  0  0  0  0
    3.2969    3.2899    0.6018 H   0  0  0  0  0  0  0  0  0  0  0  0
    1.1055    1.5930   -0.4983 H   0  0  0  0  0  0  0  0  0  0  0  0
    2.4800    2.3566   -1.2953 H   0  0  0  0  0  0  0  0  0  0  0  0
    0.9365    5.7752   -1.5055 H   0  0  0  0  0  0  0  0  0  0  0  0
    2.4547    4.8785   -1.5952 H   0  0  0  0  0  0  0  0  0  0  0  0
   -0.4636    4.6990    1.7951 H   0  0  0  0  0  0  0  0  0  0  0  0
   -0.1748    2.9974    1.8882 H   0  0  0  0  0  0  0  0  0  0  0  0
    2.8356    5.6215    0.5517 H   0  0  0  0  0  0  0  0  0  0  0  0
    1.1868    6.1637    0.7488 H   0  0  0  0  0  0  0  0  0  0  0  0
    1.3322    1.4314    2.0207 H   0  0  0  0  0  0  0  0  0  0  0  0
    2.7870    2.1553    2.7072 H   0  0  0  0  0  0  0  0  0  0  0  0
   -1.1820    1.0916    1.0599 H   0  0  0  0  0  0  0  0  0  0  0  0
    4.1299    0.9605    1.1494 H   0  0  0  0  0  0  0  0  0  0  0  0
   -2.0206    4.2392   -2.6086 H   0  0  0  0  0  0  0  0  0  0  0  0
   -3.7509    3.8143   -2.6916 H   0  0  0  0  0  0  0  0  0  0  0  0
   -3.1769    4.9219   -1.4092 H   0  0  0  0  0  0  0  0  0  0  0  0
   -4.5986   -0.3789   -1.8228 H   0  0  0  0  0  0  0  0  0  0  0  0
   -2.9735   -0.1948    2.1753 H   0  0  0  0  0  0  0  0  0  0  0  0
    4.9109   -0.0627   -0.4614 H   0  0  0  0  0  0  0  0  0  0  0  0
    2.6123   -3.2292    1.4267 H   0  0  0  0  0  0  0  0  0  0  0  0
   -4.0934   -2.2806    2.7368 H   0  0  0  0  0  0  0  0  0  0  0  0
    4.2396   -4.8980    0.5968 H   0  0  0  0  0  0  0  0  0  0  0  0
   -6.0643   -2.2565   -2.4594 H   0  0  0  0  0  0  0  0  0  0  0  0
   -5.5691   -4.1878    2.0871 H   0  0  0  0  0  0  0  0  0  0  0  0
   -7.1969   -4.3610   -1.8728 H   0  0  0  0  0  0  0  0  0  0  0  0
   -6.9498   -5.3253    0.3966 H   0  0  0  0  0  0  0  0  0  0  0  0
    8.2654   -3.2205   -1.1064 H   0  0  0  0  0  0  0  0  0  0  0  0
    7.3158   -3.4056   -2.6023 H   0  0  0  0  0  0  0  0  0  0  0  0
  1 20  2  0  0  0  0
  2 30  1  0  0  0  0
  2 37  1  0  0  0  0
  3 33  1  0  0  0  0
  3 37  1  0  0  0  0
  4 10  1  0  0  0  0
  4 13  1  0  0  0  0
  4 14  1  0  0  0  0
  5  7  1  0  0  0  0
  5 15  1  0  0  0  0
  5 19  1  0  0  0  0
  6 16  1  0  0  0  0
  6 20  1  0  0  0  0
  6 52  1  0  0  0  0
  7 18  2  0  0  0  0
  8  9  1  0  0  0  0
  8 11  1  0  0  0  0
  8 12  1  0  0  0  0
  8 38  1  0  0  0  0
  9 13  1  0  0  0  0
  9 15  1  0  0  0  0
  9 39  1  0  0  0  0
 10 11  1  0  0  0  0
 10 16  1  0  0  0  0
 10 40  1  0  0  0  0
 11 41  1  0  0  0  0
 11 42  1  0  0  0  0
 12 14  1  0  0  0  0
 12 43  1  0  0  0  0
 12 44  1  0  0  0  0
 13 45  1  0  0  0  0
 13 46  1  0  0  0  0
 14 47  1  0  0  0  0
 14 48  1  0  0  0  0
 15 17  2  0  0  0  0
 16 49  1  0  0  0  0
 16 50  1  0  0  0  0
 17 18  1  0  0  0  0
 17 51  1  0  0  0  0
 18 21  1  0  0  0  0
 19 53  1  0  0  0  0
 19 54  1  0  0  0  0
 19 55  1  0  0  0  0
 20 22  1  0  0  0  0
 21 23  2  0  0  0  0
 21 24  1  0  0  0  0
 22 26  2  0  0  0  0
 22 27  1  0  0  0  0
 23 25  1  0  0  0  0
 23 56  1  0  0  0  0
 24 28  2  0  0  0  0
 24 57  1  0  0  0  0
 25 29  1  0  0  0  0
 25 32  2  0  0  0  0
 26 30  1  0  0  0  0
 26 58  1  0  0  0  0
 27 31  2  0  0  0  0
 27 59  1  0  0  0  0
 28 29  1  0  0  0  0
 28 60  1  0  0  0  0
 29 34  2  0  0  0  0
 30 33  2  0  0  0  0
 31 33  1  0  0  0  0
 31 61  1  0  0  0  0
 32 35  1  0  0  0  0
 32 62  1  0  0  0  0
 34 36  1  0  0  0  0
 34 63  1  0  0  0  0
 35 36  2  0  0  0  0
 35 64  1  0  0  0  0
 36 65  1  0  0  0  0
 37 66  1  0  0  0  0
 37 67  1  0  0  0  0
M  END
> <PUBCHEM_COMPOUND_CID>
40779459

> <PUBCHEM_CONFORMER_RMSD>
1

> <PUBCHEM_CONFORMER_DIVERSEORDER>
5
67
138
44
109
72
23
63
92
129
114
133
15
19
115
81
101
14
87
95
33
108
73
106
100
121
35
110
60
111
42
76
88
136
128
107
7
93
139
117
51
24
104
119
89
8
29
96
2
47
78
126
68
36
105
132
62
22
70
124
64
43
82
48
135
113
27
131
103
99
31
40
77
17
90
16
122
21
116
120
1
46
137
30
127
71
4
28
84
49
25
59
74
54
75
98
9
83
12
32
94
130
11
6
34
57
80
86
79
125
134
20
53
55
102
58
118
97
50
112
91
66
39
10
41
65
38
123
85
18
56
13
61
26
69
45
3
37
52

> <PUBCHEM_MMFF94_PARTIAL_CHARGES>
44
1 -0.57
10 0.27
13 0.27
14 0.27
15 -0.33
16 0.3
17 -0.15
18 0.23
19 0.26
2 -0.36
20 0.54
21 0.05
22 0.09
23 -0.15
24 -0.15
26 -0.15
27 -0.15
28 -0.15
3 -0.36
30 0.08
31 -0.15
32 -0.15
33 0.08
34 -0.15
35 -0.15
36 -0.15
37 0.56
4 -0.81
5 0.31
51 0.15
52 0.37
56 0.15
57 0.15
58 0.15
59 0.15
6 -0.73
60 0.15
61 0.15
62 0.15
63 0.15
64 0.15
65 0.15
7 -0.71
9 0.18

> <PUBCHEM_EFFECTIVE_ROTOR_COUNT>
7.8

> <PUBCHEM_PHARMACOPHORE_FEATURES>
12
1 1 acceptor
1 2 acceptor
1 3 acceptor
1 4 cation
1 6 donor
1 7 acceptor
5 2 3 30 33 37 rings
5 5 7 15 17 18 rings
6 21 23 24 25 28 29 rings
6 22 26 27 30 31 33 rings
6 25 29 32 34 35 36 rings
8 4 8 9 10 11 12 13 14 rings

> <PUBCHEM_HEAVY_ATOM_COUNT>
37

> <PUBCHEM_ATOM_DEF_STEREO_COUNT>
3

> <PUBCHEM_ATOM_UDEF_STEREO_COUNT>
0

> <PUBCHEM_BOND_DEF_STEREO_COUNT>
0

> <PUBCHEM_BOND_UDEF_STEREO_COUNT>
0

> <PUBCHEM_ISOTOPIC_ATOM_COUNT>
0

> <PUBCHEM_COMPONENT_COUNT>
1

> <PUBCHEM_CACTVS_TAUTO_COUNT>
2

> <PUBCHEM_CONFORMER_ID>
026E3EC300000005

> <PUBCHEM_MMFF94_ENERGY>
101.5124

> <PUBCHEM_FEATURE_SELFOVERLAP>
61.081

> <PUBCHEM_SHAPE_FINGERPRINT>
10319688 140 18195249046893921624
11093857 51 17613728436490145733
11227688 84 18412538812810764652
11285246 1 18113897161160507299
11409948 41 17838880879720924495
117089 54 18412267237585919502
12660671 118 17824809273603989072
131258 43 18341344353028435284
1361 2 17831856120808741635
1361 87 18267857294372680308
13690498 29 18188214191310965061
13989917 61 17976819015075739923
14856354 85 17982734069983994820
15324884 4 18055882503462303800
15392192 29 18199193888688164357
15419008 42 17682921679069220237
15448158 91 18335980960365609370
15530120 55 17749973067553329446
15876981 60 18189629249748794806
15927050 60 15737974953270276293
15968369 26 17393329127689632895
16991981 162 17903915561435012099
17909252 39 18336547243219310233
19301676 85 18049152273115074055
19311894 1 18194118521312472587
19315092 285 17986681565646052625
20775438 99 17905317782163124627
20775530 9 18261394416543310153
21133410 32 16228054442731149354
21307412 95 18338790097096191973
21360442 43 17691694386000275830
23569914 152 18124564589304684839
255183 451 18341051895002904638
3383291 50 17977935796914524409
404807 14 18411418406720799531
4112364 45 10015593786992852204
4408954 87 17333914852045673496
4435113 14 17270043788260582214
44426699 300 18269010712410029602
4461854 278 17834944653261260112
49967989 163 17980773640815123334
5265222 85 17469601807117766260
57307002 29 17752480958733889445
70251023 43 18337672030987988529
9555976 147 17417271913256686835
9980921 52 17701237347944402623

> <PUBCHEM_SHAPE_MULTIPOLES>
723.91
17.32
9.2
1.64
1.82
5.16
0
-34.96
5.31
-4.42
1.77
0.24
0.29
3.17

> <PUBCHEM_SHAPE_SELFOVERLAP>
1620.729

> <PUBCHEM_SHAPE_VOLUME>
380.9

> <PUBCHEM_COORDINATE_TYPE>
2
5
10

$$$$
