51137436
  -OEChem-12032416203D

 46 49  0     1  0  0  0  0  0999 V2000
   -6.1774   -1.7894    0.6638 O   0  0  0  0  0  0  0  0  0  0  0  0
    1.0788    0.8395   -0.1373 O   0  0  0  0  0  0  0  0  0  0  0  0
   -2.9678    0.7044   -0.3879 N   0  0  1  0  0  0  0  0  0  0  0  0
    1.1857    2.9362    0.6351 N   0  0  0  0  0  0  0  0  0  0  0  0
    2.4456    2.3772    0.7411 N   0  0  0  0  0  0  0  0  0  0  0  0
   -3.6918   -0.5128   -0.0291 C   0  0  0  0  0  0  0  0  0  0  0  0
   -1.0507    2.0450   -0.2237 C   0  0  2  0  0  0  0  0  0  0  0  0
   -1.8716    0.9959    0.5384 C   0  0  0  0  0  0  0  0  0  0  0  0
   -2.3348    0.6089   -1.7033 C   0  0  0  0  0  0  0  0  0  0  0  0
   -1.3779    1.7940   -1.7061 C   0  0  0  0  0  0  0  0  0  0  0  0
   -4.7632   -0.8446   -1.0724 C   0  0  0  0  0  0  0  0  0  0  0  0
   -4.3345   -0.3625    1.3526 C   0  0  0  0  0  0  0  0  0  0  0  0
   -5.5956   -2.0378   -0.6161 C   0  0  0  0  0  0  0  0  0  0  0  0
   -5.1907   -1.5824    1.6746 C   0  0  0  0  0  0  0  0  0  0  0  0
    0.4209    2.0035    0.1176 C   0  0  0  0  0  0  0  0  0  0  0  0
    2.3360    1.1536    0.2791 C   0  0  0  0  0  0  0  0  0  0  0  0
    3.3180    0.1167    0.1474 C   0  0  0  0  0  0  0  0  0  0  0  0
    4.6340    0.3478    0.5479 C   0  0  0  0  0  0  0  0  0  0  0  0
    2.9571   -1.1230   -0.3806 C   0  0  0  0  0  0  0  0  0  0  0  0
    5.5892   -0.6606    0.4202 C   0  0  0  0  0  0  0  0  0  0  0  0
    3.9123   -2.1314   -0.5083 C   0  0  0  0  0  0  0  0  0  0  0  0
    5.2283   -1.9001   -0.1080 C   0  0  0  0  0  0  0  0  0  0  0  0
    6.2499   -2.9782   -0.2448 C   0  0  0  0  0  0  0  0  0  0  0  0
   -2.9929   -1.3615    0.0124 H   0  0  0  0  0  0  0  0  0  0  0  0
   -1.4203    3.0463    0.0379 H   0  0  0  0  0  0  0  0  0  0  0  0
   -1.2761    0.1001    0.7581 H   0  0  0  0  0  0  0  0  0  0  0  0
   -2.2248    1.4169    1.4858 H   0  0  0  0  0  0  0  0  0  0  0  0
   -1.7693   -0.3246   -1.8199 H   0  0  0  0  0  0  0  0  0  0  0  0
   -3.0462    0.7003   -2.5298 H   0  0  0  0  0  0  0  0  0  0  0  0
   -1.8760    2.6789   -2.1218 H   0  0  0  0  0  0  0  0  0  0  0  0
   -0.4940    1.5919   -2.3203 H   0  0  0  0  0  0  0  0  0  0  0  0
   -4.3256   -1.0850   -2.0471 H   0  0  0  0  0  0  0  0  0  0  0  0
   -5.4263    0.0203   -1.2054 H   0  0  0  0  0  0  0  0  0  0  0  0
   -3.5850   -0.2503    2.1431 H   0  0  0  0  0  0  0  0  0  0  0  0
   -4.9722    0.5312    1.3656 H   0  0  0  0  0  0  0  0  0  0  0  0
   -4.9924   -2.9523   -0.5713 H   0  0  0  0  0  0  0  0  0  0  0  0
   -6.4117   -2.2146   -1.3239 H   0  0  0  0  0  0  0  0  0  0  0  0
   -5.7139   -1.4297    2.6239 H   0  0  0  0  0  0  0  0  0  0  0  0
   -4.5775   -2.4856    1.7762 H   0  0  0  0  0  0  0  0  0  0  0  0
    4.9376    1.3061    0.9626 H   0  0  0  0  0  0  0  0  0  0  0  0
    1.9420   -1.3409   -0.7028 H   0  0  0  0  0  0  0  0  0  0  0  0
    6.6110   -0.4691    0.7373 H   0  0  0  0  0  0  0  0  0  0  0  0
    3.6190   -3.0937   -0.9195 H   0  0  0  0  0  0  0  0  0  0  0  0
    7.2463   -2.5584   -0.4204 H   0  0  0  0  0  0  0  0  0  0  0  0
    6.0237   -3.6316   -1.0943 H   0  0  0  0  0  0  0  0  0  0  0  0
    6.2802   -3.5846    0.6659 H   0  0  0  0  0  0  0  0  0  0  0  0
  1 13  1  0  0  0  0
  1 14  1  0  0  0  0
  2 15  1  0  0  0  0
  2 16  1  0  0  0  0
  3  6  1  0  0  0  0
  3  8  1  0  0  0  0
  3  9  1  0  0  0  0
  4  5  1  0  0  0  0
  4 15  2  0  0  0  0
  5 16  2  0  0  0  0
  6 11  1  0  0  0  0
  6 12  1  0  0  0  0
  6 24  1  0  0  0  0
  7  8  1  0  0  0  0
  7 10  1  0  0  0  0
  7 15  1  0  0  0  0
  7 25  1  0  0  0  0
  8 26  1  0  0  0  0
  8 27  1  0  0  0  0
  9 10  1  0  0  0  0
  9 28  1  0  0  0  0
  9 29  1  0  0  0  0
 10 30  1  0  0  0  0
 10 31  1  0  0  0  0
 11 13  1  0  0  0  0
 11 32  1  0  0  0  0
 11 33  1  0  0  0  0
 12 14  1  0  0  0  0
 12 34  1  0  0  0  0
 12 35  1  0  0  0  0
 13 36  1  0  0  0  0
 13 37  1  0  0  0  0
 14 38  1  0  0  0  0
 14 39  1  0  0  0  0
 16 17  1  0  0  0  0
 17 18  2  0  0  0  0
 17 19  1  0  0  0  0
 18 20  1  0  0  0  0
 18 40  1  0  0  0  0
 19 21  2  0  0  0  0
 19 41  1  0  0  0  0
 20 22  2  0  0  0  0
 20 42  1  0  0  0  0
 21 22  1  0  0  0  0
 21 43  1  0  0  0  0
 22 23  1  0  0  0  0
 23 44  1  0  0  0  0
 23 45  1  0  0  0  0
 23 46  1  0  0  0  0
M  END
> <PUBCHEM_COMPOUND_CID>
51137436

> <PUBCHEM_CONFORMER_RMSD>
0.8

> <PUBCHEM_CONFORMER_DIVERSEORDER>
1
14
20
19
7
5
8
13
21
22
9
23
11
6
18
15
2
4
16
12
10
3
17

> <PUBCHEM_MMFF94_PARTIAL_CHARGES>
24
1 -0.56
13 0.28
14 0.28
15 0.3
16 0.43
17 0.05
18 -0.15
19 -0.15
2 -0.28
20 -0.15
21 -0.15
22 -0.14
23 0.14
3 -0.81
4 -0.34
40 0.15
41 0.15
42 0.15
43 0.15
5 -0.34
6 0.27
7 0.18
8 0.27
9 0.27

> <PUBCHEM_EFFECTIVE_ROTOR_COUNT>
5.2

> <PUBCHEM_PHARMACOPHORE_FEATURES>
6
1 1 acceptor
1 3 cation
5 2 4 5 15 16 rings
5 3 7 8 9 10 rings
6 1 6 11 12 13 14 rings
6 17 18 19 20 21 22 rings

> <PUBCHEM_HEAVY_ATOM_COUNT>
23

> <PUBCHEM_ATOM_DEF_STEREO_COUNT>
1

> <PUBCHEM_ATOM_UDEF_STEREO_COUNT>
0

> <PUBCHEM_BOND_DEF_STEREO_COUNT>
0

> <PUBCHEM_BOND_UDEF_STEREO_COUNT>
0

> <PUBCHEM_ISOTOPIC_ATOM_COUNT>
0

> <PUBCHEM_COMPONENT_COUNT>
1

> <PUBCHEM_CACTVS_TAUTO_COUNT>
1

> <PUBCHEM_CONFORMER_ID>
030C4B9C00000001

> <PUBCHEM_MMFF94_ENERGY>
41.3954

> <PUBCHEM_FEATURE_SELFOVERLAP>
30.448

> <PUBCHEM_SHAPE_FINGERPRINT>
10319926 262 13901911145411241765
10498660 4 7997679918168280644
10692045 39 13038644898379618260
11796584 16 18042393643573547304
11809386 21 17970057860150634290
12107183 9 18200607886875648769
12422481 6 16916510242153001550
12596602 18 16845575361003337987
12633257 1 17917716841787317879
12760667 363 18410011027230684915
13103583 49 17632304475319566465
13402501 40 18334860523552321451
13533116 47 18199468943089310961
13540713 4 18337932541929413348
13544653 18 18410014346929356869
13551218 46 18342458170844296063
13911852 28 18413106152046168967
13914758 101 18131351909058604381
13955234 65 18055629762070407344
14123256 34 18408891728150882806
14216079 64 18335420193047299931
14251751 18 18260831479437574983
14251764 30 18410857642088086498
14347424 109 18201444705297295585
14528608 73 11169911710259082779
14950920 106 17060333058983634491
14951699 99 12822998864383126570
15352361 1 18411979152611822310
15475509 84 17560809813845085001
15510800 12 18042406992590860523
15537594 2 18202562912716822308
17780758 139 17845935117556266025
17870717 6 17023178362706472507
193927 3 18114185258929438145
20028762 73 18060415850086388447
20403669 9 18335421274619338291
21033650 10 16370997465475792645
212916 134 14333137394497008501
21344244 246 18187940499770297404
21401589 2 11023822881910983983
21623969 137 18413105074331234990
21682296 61 18409732880964781747
21774942 28 12829472741529004198
221490 88 18339356375791704884
22950370 63 18341336608822767256
23424784 1240 18129105524550593438
23522609 53 18123787276500440640
23559900 14 18336536188453836677
239999 70 17822847727094708472
270888 7 9295285036677061222
2748736 6 8718538385876329766
2916195 48 11024112053516548421
3014063 24 18272082846987893871
3089732 80 18334296486998509043
314194 84 18342454876308623588
329604 57 18334017173012307766
3421961 26 18341891943509204528
34797466 226 16443910612672110557
3737641 26 18058173813081240390
3862424 121 17170421716866422803
439807 62 18187083910221508570
445580 182 17131836408993074435
46194498 28 17822288037369449564
465052 167 18343867727476017606
474113 269 17774993623344052879
484985 159 18266178327664784945
5104073 3 18058723590712278480
5309563 4 18341048536422745222
5486654 36 18340211778104396833
56633871 153 18131067138792822343
5718773 13 18263639577092397298
59755656 520 18046898287379982301
636775 8 18198351650883453806
6431902 208 18411135805618696614
7062679 13 18335137553606814498
7918774 8 18040726895678188507
7970288 3 18341610382770531822
8863177 126 18409731789478657610
9862886 166 17821732745437467306
9980921 7 17749969860278018956

> <PUBCHEM_SHAPE_MULTIPOLES>
446.65
15.6
3.11
1.27
0.3
0.16
-0.13
-16.43
1.83
1.7
0.04
-1.73
0.04
1.6

> <PUBCHEM_SHAPE_SELFOVERLAP>
959.806

> <PUBCHEM_SHAPE_VOLUME>
248.5

> <PUBCHEM_COORDINATE_TYPE>
2
5
10

$$$$
