75536666
  -OEChem-12032416323D

 46 47  0     1  0  0  0  0  0999 V2000
    6.9900   -0.9542    0.1509 S   0  0  0  0  0  0  0  0  0  0  0  0
   -6.7628   -0.7030    0.6021 S   0  0  0  0  0  0  0  0  0  0  0  0
    3.1895    0.0296   -1.2784 O   0  0  0  0  0  0  0  0  0  0  0  0
    2.0831    2.1671    1.3886 O   0  0  0  0  0  0  0  0  0  0  0  0
    8.2185   -0.6495   -0.5560 O   0  0  0  0  0  0  0  0  0  0  0  0
    6.3573   -2.2520    0.0136 O   0  0  0  0  0  0  0  0  0  0  0  0
   -6.7467   -2.0938    1.0344 O   0  0  0  0  0  0  0  0  0  0  0  0
   -7.2656    0.3271    1.4999 O   0  0  0  0  0  0  0  0  0  0  0  0
   -0.1983    0.5723   -0.0703 N   0  0  0  0  0  0  0  0  0  0  0  0
    5.8244    0.2507   -0.1672 N   0  0  0  0  0  0  0  0  0  0  0  0
    1.1395    0.9438   -0.5018 C   0  0  1  0  0  0  0  0  0  0  0  0
    2.1552    0.9786    0.6251 C   0  0  1  0  0  0  0  0  0  0  0  0
    3.4603    0.8822   -0.1533 C   0  0  1  0  0  0  0  0  0  0  0  0
    1.7641   -0.0775   -1.4382 C   0  0  0  0  0  0  0  0  0  0  0  0
    4.6049    0.3077    0.6623 C   0  0  0  0  0  0  0  0  0  0  0  0
   -1.1856    0.8773   -1.0989 C   0  0  0  0  0  0  0  0  0  0  0  0
   -2.5758    0.4838   -0.6758 C   0  0  0  0  0  0  0  0  0  0  0  0
   -3.4812    1.4602   -0.2602 C   0  0  0  0  0  0  0  0  0  0  0  0
   -2.9585   -0.8574   -0.6991 C   0  0  0  0  0  0  0  0  0  0  0  0
    7.2750   -0.6832    1.8850 C   0  0  0  0  0  0  0  0  0  0  0  0
   -5.1518   -0.2456    0.1082 C   0  0  0  0  0  0  0  0  0  0  0  0
   -4.7692    1.0956    0.1316 C   0  0  0  0  0  0  0  0  0  0  0  0
   -4.2465   -1.2221   -0.3072 C   0  0  0  0  0  0  0  0  0  0  0  0
   -7.7200   -0.6376   -0.8955 C   0  0  0  0  0  0  0  0  0  0  0  0
    1.1239    1.9357   -0.9754 H   0  0  0  0  0  0  0  0  0  0  0  0
    2.0296    0.1196    1.2960 H   0  0  0  0  0  0  0  0  0  0  0  0
    3.7514    1.8640   -0.5496 H   0  0  0  0  0  0  0  0  0  0  0  0
    1.4867   -1.1057   -1.1782 H   0  0  0  0  0  0  0  0  0  0  0  0
    1.5033    0.0953   -2.4867 H   0  0  0  0  0  0  0  0  0  0  0  0
    4.3429   -0.7040    0.9911 H   0  0  0  0  0  0  0  0  0  0  0  0
    4.7984    0.9308    1.5413 H   0  0  0  0  0  0  0  0  0  0  0  0
   -0.4317    1.0928    0.7758 H   0  0  0  0  0  0  0  0  0  0  0  0
   -0.9538    0.3475   -2.0317 H   0  0  0  0  0  0  0  0  0  0  0  0
   -1.1685    1.9482   -1.3402 H   0  0  0  0  0  0  0  0  0  0  0  0
    2.1933    2.9235    0.7879 H   0  0  0  0  0  0  0  0  0  0  0  0
    6.1878    1.1787   -0.4219 H   0  0  0  0  0  0  0  0  0  0  0  0
   -3.1964    2.5087   -0.2363 H   0  0  0  0  0  0  0  0  0  0  0  0
   -2.2623   -1.6268   -1.0226 H   0  0  0  0  0  0  0  0  0  0  0  0
    8.0745   -1.3582    2.1998 H   0  0  0  0  0  0  0  0  0  0  0  0
    7.5902    0.3510    2.0357 H   0  0  0  0  0  0  0  0  0  0  0  0
    6.3691   -0.9083    2.4493 H   0  0  0  0  0  0  0  0  0  0  0  0
   -5.4595    1.8734    0.4456 H   0  0  0  0  0  0  0  0  0  0  0  0
   -4.5254   -2.2715   -0.3389 H   0  0  0  0  0  0  0  0  0  0  0  0
   -8.7489   -0.9112   -0.6523 H   0  0  0  0  0  0  0  0  0  0  0  0
   -7.3056   -1.3478   -1.6136 H   0  0  0  0  0  0  0  0  0  0  0  0
   -7.6893    0.3789   -1.2923 H   0  0  0  0  0  0  0  0  0  0  0  0
  1  5  2  0  0  0  0
  1  6  2  0  0  0  0
  1 10  1  0  0  0  0
  1 20  1  0  0  0  0
  2  7  2  0  0  0  0
  2  8  2  0  0  0  0
  2 21  1  0  0  0  0
  2 24  1  0  0  0  0
  3 13  1  0  0  0  0
  3 14  1  0  0  0  0
  4 12  1  0  0  0  0
  4 35  1  0  0  0  0
  9 11  1  0  0  0  0
  9 16  1  0  0  0  0
  9 32  1  0  0  0  0
 10 15  1  0  0  0  0
 10 36  1  0  0  0  0
 11 12  1  0  0  0  0
 11 14  1  0  0  0  0
 11 25  1  0  0  0  0
 12 13  1  0  0  0  0
 12 26  1  0  0  0  0
 13 15  1  0  0  0  0
 13 27  1  0  0  0  0
 14 28  1  0  0  0  0
 14 29  1  0  0  0  0
 15 30  1  0  0  0  0
 15 31  1  0  0  0  0
 16 17  1  0  0  0  0
 16 33  1  0  0  0  0
 16 34  1  0  0  0  0
 17 18  2  0  0  0  0
 17 19  1  0  0  0  0
 18 22  1  0  0  0  0
 18 37  1  0  0  0  0
 19 23  2  0  0  0  0
 19 38  1  0  0  0  0
 20 39  1  0  0  0  0
 20 40  1  0  0  0  0
 20 41  1  0  0  0  0
 21 22  2  0  0  0  0
 21 23  1  0  0  0  0
 22 42  1  0  0  0  0
 23 43  1  0  0  0  0
 24 44  1  0  0  0  0
 24 45  1  0  0  0  0
 24 46  1  0  0  0  0
M  END
> <PUBCHEM_COMPOUND_CID>
75536666

> <PUBCHEM_CONFORMER_RMSD>
1

> <PUBCHEM_CONFORMER_DIVERSEORDER>
1
119
102
124
91
14
116
90
100
104
117
95
70
103
26
40
64
126
115
86
98
56
72
131
118
101
57
88
44
38
15
74
43
99
123
129
27
93
125
18
3
61
134
11
106
47
16
73
68
75
112
110
59
50
135
17
62
132
69
22
80
67
31
42
51
36
89
107
52
48
5
46
4
39
65
53
79
133
87
105
35
60
114
120
76
8
45
128
84
78
21
130
32
24
20
77
111
121
85
29
41
82
34
7
96
66
113
37
81
97
30
49
127
25
94
58
55
10
12
9
83
6
92
108
136
28
19
54
71
109
13
2
63
122
23
33

> <PUBCHEM_MMFF94_PARTIAL_CHARGES>
31
1 1.33
10 -0.91
11 0.27
12 0.28
13 0.28
14 0.28
15 0.36
16 0.41
17 -0.14
18 -0.15
19 -0.15
2 1.2
20 0.11
21 -0.01
22 -0.15
23 -0.15
24 0.11
3 -0.56
32 0.36
35 0.4
36 0.42
37 0.15
38 0.15
4 -0.68
42 0.15
43 0.15
5 -0.65
6 -0.65
7 -0.65
8 -0.65
9 -0.9

> <PUBCHEM_EFFECTIVE_ROTOR_COUNT>
8

> <PUBCHEM_PHARMACOPHORE_FEATURES>
12
1 10 donor
1 3 acceptor
1 4 acceptor
1 4 donor
1 5 acceptor
1 6 acceptor
1 7 acceptor
1 8 acceptor
1 9 cation
1 9 donor
5 3 11 12 13 14 rings
6 17 18 19 21 22 23 rings

> <PUBCHEM_HEAVY_ATOM_COUNT>
24

> <PUBCHEM_ATOM_DEF_STEREO_COUNT>
3

> <PUBCHEM_ATOM_UDEF_STEREO_COUNT>
0

> <PUBCHEM_BOND_DEF_STEREO_COUNT>
0

> <PUBCHEM_BOND_UDEF_STEREO_COUNT>
0

> <PUBCHEM_ISOTOPIC_ATOM_COUNT>
0

> <PUBCHEM_COMPONENT_COUNT>
1

> <PUBCHEM_CACTVS_TAUTO_COUNT>
1

> <PUBCHEM_CONFORMER_ID>
0480991A00000001

> <PUBCHEM_MMFF94_ENERGY>
39.8958

> <PUBCHEM_FEATURE_SELFOVERLAP>
60.934

> <PUBCHEM_SHAPE_FINGERPRINT>
10 15 16774075198249592560
10299344 5 18186804677655024166
106641 1 14907896111696238711
10693767 8 15358245002034155504
10968037 39 11025795406135197457
11315181 36 18040437707325543805
11524674 6 17918273173280993567
11646440 116 17203891864163591312
11991303 11 13407089110390904928
12166972 35 17603588547127588316
12236239 1 17386007308373024629
125118 31 12607408797419517482
13073987 5 17417540103049950941
13540713 5 13986319429527189404
13668630 136 16443065015120746603
13673619 4 18333728018296974940
13685833 64 18333731316931428732
13885169 127 18114458977417051029
13968360 50 12107779706137043600
14123256 10 11674877792639656446
14251764 18 18202565089774663004
14341114 176 18342173405500864360
14556957 393 13984948368128089102
14729087 3 12535631557339823347
14849402 71 17345745438589670992
14931854 50 13334728025052067957
15183329 4 16950563273001621994
15348495 7 17488731402537749274
15352257 5 18114181925887500530
15475509 35 18261376825311898754
15716309 27 18410293626992961669
20157964 124 9151179762045185428
2026 5 17168975683303777786
20281389 69 12247685963020608198
20554085 129 9655292589053352340
21150785 3 14562531782322584454
21267235 1 17822014224614114933
21315759 40 17748830708819863988
21521239 73 15502372293359454048
22224240 67 16558746823580240534
23035841 295 18113336414092732851
23559900 14 17969223524690076365
23576562 1 12324826642269134315
246663 6 18113339708501466874
300161 21 12463572872021785605
3004659 81 15864066602802287301
3178227 256 17846498145546981576
33532 11 18260264131891745202
4325135 7 10303814280968368122
465052 167 18343018870783038910
5104073 3 17273990037938277811
5385378 56 15338847434559725332
5470011 282 15719112461753634342
5758199 1 14692568827737491660
5937810 71 10665212749697970159
59682541 35 16415472783427405138
999808 66 17967542280863115395

> <PUBCHEM_SHAPE_MULTIPOLES>
456.43
25.23
1.62
1.29
8.98
0.29
-0.24
12.98
-5.66
-0.04
-0.29
0.43
-0.02
0.26

> <PUBCHEM_SHAPE_SELFOVERLAP>
911.309

> <PUBCHEM_SHAPE_VOLUME>
271.9

> <PUBCHEM_COORDINATE_TYPE>
2
5
10

$$$$
