38029425
  -OEChem-12032416243D

 70 72  0     1  0  0  0  0  0999 V2000
   -1.7808   -3.6962    1.7059 O   0  0  0  0  0  0  0  0  0  0  0  0
   -1.1110    2.7729   -2.0631 O   0  0  0  0  0  0  0  0  0  0  0  0
    1.0124    3.3268   -0.5036 O   0  0  0  0  0  0  0  0  0  0  0  0
   -2.5472    2.5982   -0.2397 N   0  0  0  0  0  0  0  0  0  0  0  0
   -0.3581   -2.2498    0.5725 N   0  0  0  0  0  0  0  0  0  0  0  0
    6.9170   -0.8871   -0.8710 N   0  0  0  0  0  0  0  0  0  0  0  0
   -3.3641   -0.2090   -0.9438 C   0  0  1  0  0  0  0  0  0  0  0  0
   -4.3154    0.9456   -0.5416 C   0  0  1  0  0  0  0  0  0  0  0  0
   -3.7135   -1.4872   -0.1664 C   0  0  0  0  0  0  0  0  0  0  0  0
   -3.6197   -1.2860    1.3579 C   0  0  2  0  0  0  0  0  0  0  0  0
   -3.4129   -0.4880   -2.4493 C   0  0  0  0  0  0  0  0  0  0  0  0
   -4.3123   -0.0134    1.8015 C   0  0  0  0  0  0  0  0  0  0  0  0
   -4.6273    0.9669    0.9364 C   0  0  0  0  0  0  0  0  0  0  0  0
   -3.7447    2.3046   -0.9628 C   0  0  0  0  0  0  0  0  0  0  0  0
   -2.1615   -1.3101    1.8295 C   0  0  0  0  0  0  0  0  0  0  0  0
   -4.6158   -1.3620   -2.7896 C   0  0  0  0  0  0  0  0  0  0  0  0
   -2.1172   -1.1475   -2.9106 C   0  0  0  0  0  0  0  0  0  0  0  0
   -4.6761    0.0874    3.2568 C   0  0  0  0  0  0  0  0  0  0  0  0
   -1.4401   -2.5616    1.3826 C   0  0  0  0  0  0  0  0  0  0  0  0
   -1.3127    2.8113   -0.8523 C   0  0  0  0  0  0  0  0  0  0  0  0
    0.5143   -3.2502    0.0017 C   0  0  0  0  0  0  0  0  0  0  0  0
   -0.2180    3.1035    0.1516 C   0  0  0  0  0  0  0  0  0  0  0  0
    1.9115   -2.7346   -0.1888 C   0  0  0  0  0  0  0  0  0  0  0  0
    2.1950   -1.8594   -1.2374 C   0  0  0  0  0  0  0  0  0  0  0  0
    2.9260   -3.1308    0.6828 C   0  0  0  0  0  0  0  0  0  0  0  0
    2.1570    2.9865    0.1781 C   0  0  0  0  0  0  0  0  0  0  0  0
    3.4930   -1.3804   -1.4143 C   0  0  0  0  0  0  0  0  0  0  0  0
    4.2239   -2.6518    0.5057 C   0  0  0  0  0  0  0  0  0  0  0  0
    4.5075   -1.7764   -0.5426 C   0  0  0  0  0  0  0  0  0  0  0  0
    2.1845    3.0505    1.5711 C   0  0  0  0  0  0  0  0  0  0  0  0
    3.2910    2.5776   -0.5238 C   0  0  0  0  0  0  0  0  0  0  0  0
    3.3460    2.7059    2.2625 C   0  0  0  0  0  0  0  0  0  0  0  0
    4.4524    2.2328    0.1675 C   0  0  0  0  0  0  0  0  0  0  0  0
    5.8371   -1.2857   -0.7239 C   0  0  0  0  0  0  0  0  0  0  0  0
    4.4799    2.2970    1.5607 C   0  0  0  0  0  0  0  0  0  0  0  0
   -2.3369    0.0700   -0.6786 H   0  0  0  0  0  0  0  0  0  0  0  0
   -5.2775    0.8236   -1.0549 H   0  0  0  0  0  0  0  0  0  0  0  0
   -3.1069   -2.3376   -0.4908 H   0  0  0  0  0  0  0  0  0  0  0  0
   -4.7571   -1.7725   -0.3563 H   0  0  0  0  0  0  0  0  0  0  0  0
   -4.1409   -2.1387    1.8152 H   0  0  0  0  0  0  0  0  0  0  0  0
   -3.5057    0.4487   -3.0084 H   0  0  0  0  0  0  0  0  0  0  0  0
   -5.1669    1.8380    1.3031 H   0  0  0  0  0  0  0  0  0  0  0  0
   -3.5652    2.3572   -2.0399 H   0  0  0  0  0  0  0  0  0  0  0  0
   -4.4577    3.1035   -0.7254 H   0  0  0  0  0  0  0  0  0  0  0  0
   -1.6321   -0.4066    1.5041 H   0  0  0  0  0  0  0  0  0  0  0  0
   -2.1148   -1.3047    2.9259 H   0  0  0  0  0  0  0  0  0  0  0  0
   -4.4957   -2.4030   -2.4719 H   0  0  0  0  0  0  0  0  0  0  0  0
   -4.7384   -1.3961   -3.8794 H   0  0  0  0  0  0  0  0  0  0  0  0
   -5.5529   -0.9671   -2.3863 H   0  0  0  0  0  0  0  0  0  0  0  0
   -1.9515   -2.1186   -2.4339 H   0  0  0  0  0  0  0  0  0  0  0  0
   -1.2534   -0.5108   -2.6903 H   0  0  0  0  0  0  0  0  0  0  0  0
   -2.1361   -1.3119   -3.9936 H   0  0  0  0  0  0  0  0  0  0  0  0
   -5.2954   -0.7653    3.5535 H   0  0  0  0  0  0  0  0  0  0  0  0
   -5.2424    0.9983    3.4782 H   0  0  0  0  0  0  0  0  0  0  0  0
   -3.7771    0.0995    3.8802 H   0  0  0  0  0  0  0  0  0  0  0  0
   -2.6114    2.7112    0.7681 H   0  0  0  0  0  0  0  0  0  0  0  0
   -0.2025   -1.2828    0.3027 H   0  0  0  0  0  0  0  0  0  0  0  0
    0.0884   -3.5448   -0.9647 H   0  0  0  0  0  0  0  0  0  0  0  0
    0.5068   -4.1466    0.6326 H   0  0  0  0  0  0  0  0  0  0  0  0
   -0.4973    3.9974    0.7208 H   0  0  0  0  0  0  0  0  0  0  0  0
   -0.1775    2.2316    0.8184 H   0  0  0  0  0  0  0  0  0  0  0  0
    1.4123   -1.5431   -1.9220 H   0  0  0  0  0  0  0  0  0  0  0  0
    2.7183   -3.8105    1.5049 H   0  0  0  0  0  0  0  0  0  0  0  0
    3.6982   -0.6977   -2.2354 H   0  0  0  0  0  0  0  0  0  0  0  0
    5.0040   -2.9692    1.1937 H   0  0  0  0  0  0  0  0  0  0  0  0
    1.3318    3.3887    2.1523 H   0  0  0  0  0  0  0  0  0  0  0  0
    3.2754    2.5253   -1.6089 H   0  0  0  0  0  0  0  0  0  0  0  0
    3.3698    2.7613    3.3469 H   0  0  0  0  0  0  0  0  0  0  0  0
    5.3362    1.9184   -0.3793 H   0  0  0  0  0  0  0  0  0  0  0  0
    5.3848    2.0299    2.0986 H   0  0  0  0  0  0  0  0  0  0  0  0
  1 19  2  0  0  0  0
  2 20  2  0  0  0  0
  3 22  1  0  0  0  0
  3 26  1  0  0  0  0
  4 14  1  0  0  0  0
  4 20  1  0  0  0  0
  4 56  1  0  0  0  0
  5 19  1  0  0  0  0
  5 21  1  0  0  0  0
  5 57  1  0  0  0  0
  6 34  3  0  0  0  0
  7  8  1  0  0  0  0
  7  9  1  0  0  0  0
  7 11  1  0  0  0  0
  7 36  1  0  0  0  0
  8 13  1  0  0  0  0
  8 14  1  0  0  0  0
  8 37  1  0  0  0  0
  9 10  1  0  0  0  0
  9 38  1  0  0  0  0
  9 39  1  0  0  0  0
 10 12  1  0  0  0  0
 10 15  1  0  0  0  0
 10 40  1  0  0  0  0
 11 16  1  0  0  0  0
 11 17  1  0  0  0  0
 11 41  1  0  0  0  0
 12 13  2  0  0  0  0
 12 18  1  0  0  0  0
 13 42  1  0  0  0  0
 14 43  1  0  0  0  0
 14 44  1  0  0  0  0
 15 19  1  0  0  0  0
 15 45  1  0  0  0  0
 15 46  1  0  0  0  0
 16 47  1  0  0  0  0
 16 48  1  0  0  0  0
 16 49  1  0  0  0  0
 17 50  1  0  0  0  0
 17 51  1  0  0  0  0
 17 52  1  0  0  0  0
 18 53  1  0  0  0  0
 18 54  1  0  0  0  0
 18 55  1  0  0  0  0
 20 22  1  0  0  0  0
 21 23  1  0  0  0  0
 21 58  1  0  0  0  0
 21 59  1  0  0  0  0
 22 60  1  0  0  0  0
 22 61  1  0  0  0  0
 23 24  2  0  0  0  0
 23 25  1  0  0  0  0
 24 27  1  0  0  0  0
 24 62  1  0  0  0  0
 25 28  2  0  0  0  0
 25 63  1  0  0  0  0
 26 30  2  0  0  0  0
 26 31  1  0  0  0  0
 27 29  2  0  0  0  0
 27 64  1  0  0  0  0
 28 29  1  0  0  0  0
 28 65  1  0  0  0  0
 29 34  1  0  0  0  0
 30 32  1  0  0  0  0
 30 66  1  0  0  0  0
 31 33  2  0  0  0  0
 31 67  1  0  0  0  0
 32 35  2  0  0  0  0
 32 68  1  0  0  0  0
 33 35  1  0  0  0  0
 33 69  1  0  0  0  0
 35 70  1  0  0  0  0
M  END
> <PUBCHEM_COMPOUND_CID>
38029425

> <PUBCHEM_CONFORMER_RMSD>
1.2

> <PUBCHEM_CONFORMER_DIVERSEORDER>
1
77
88
18
85
47
62
67
17
19
115
98
56
81
23
34
73
36
63
40
57
35
70
71
72
6
52
110
83
114
59
27
58
113
3
26
96
29
68
37
104
93
69
41
91
51
95
13
79
89
9
97
8
22
100
39
64
112
4
32
106
2
66
87
105
7
102
21
86
99
20
31
48
78
42
65
46
55
50
16
111
82
108
61
60
90
80
14
54
76
11
43
12
44
107
84
38
94
30
45
75
103
10
24
109
33
101
49
5
15
53
92
74
25
28

> <PUBCHEM_MMFF94_PARTIAL_CHARGES>
42
1 -0.57
10 0.14
12 -0.28
13 -0.29
14 0.3
15 0.06
18 0.14
19 0.57
2 -0.57
20 0.57
21 0.44
22 0.34
23 -0.14
24 -0.15
25 -0.15
26 0.08
27 -0.15
28 -0.15
29 0.07
3 -0.36
30 -0.15
31 -0.15
32 -0.15
33 -0.15
34 0.48
35 -0.15
4 -0.73
42 0.15
5 -0.73
56 0.37
57 0.37
6 -0.56
62 0.15
63 0.15
64 0.15
65 0.15
66 0.15
67 0.15
68 0.15
69 0.15
70 0.15
8 0.14

> <PUBCHEM_EFFECTIVE_ROTOR_COUNT>
12.8

> <PUBCHEM_PHARMACOPHORE_FEATURES>
10
1 1 acceptor
1 2 acceptor
1 3 acceptor
1 4 donor
1 5 donor
1 6 acceptor
3 11 16 17 hydrophobe
6 23 24 25 27 28 29 rings
6 26 30 31 32 33 35 rings
6 7 8 9 10 12 13 rings

> <PUBCHEM_HEAVY_ATOM_COUNT>
35

> <PUBCHEM_ATOM_DEF_STEREO_COUNT>
3

> <PUBCHEM_ATOM_UDEF_STEREO_COUNT>
0

> <PUBCHEM_BOND_DEF_STEREO_COUNT>
0

> <PUBCHEM_BOND_UDEF_STEREO_COUNT>
0

> <PUBCHEM_ISOTOPIC_ATOM_COUNT>
0

> <PUBCHEM_COMPONENT_COUNT>
1

> <PUBCHEM_CACTVS_TAUTO_COUNT>
4

> <PUBCHEM_CONFORMER_ID>
0244487100000001

> <PUBCHEM_MMFF94_ENERGY>
77.4011

> <PUBCHEM_FEATURE_SELFOVERLAP>
50.754

> <PUBCHEM_SHAPE_FINGERPRINT>
10675989 125 16171149930783689661
10864689 126 17910105816479045156
12786520 15 17915208821104344529
13165053 68 18197498631749921327
13402501 40 18409453557502597992
14279260 333 17760646971981388686
14904385 31 18192982945514867632
19315092 285 16843576474887137205
20764821 26 18408884031817011968
238918 7 18268982271378622904
3027735 51 18268130128461013453
354706 35 17183598426794349516
4112364 45 17487084214287908761
437795 96 18335986458288037370
508706 21 18334288782027237100
57527585 103 17679578111063922619

> <PUBCHEM_SHAPE_MULTIPOLES>
687.73
12.48
5.41
2.65
7.7
1.53
0.04
-1.3
-0.08
4.5
0.83
-3.7
-0.35
1.67

> <PUBCHEM_SHAPE_SELFOVERLAP>
1436.469

> <PUBCHEM_SHAPE_VOLUME>
385.6

> <PUBCHEM_COORDINATE_TYPE>
2
5
10

$$$$
