75368502
  -OEChem-12032416393D

 45 47  0     1  0  0  0  0  0999 V2000
   -5.5626    1.6217    0.1936 O   0  0  0  0  0  0  0  0  0  0  0  0
   -1.7268   -2.6513   -0.5254 O   0  0  0  0  0  0  0  0  0  0  0  0
    4.9019   -0.8062    0.1552 O   0  0  0  0  0  0  0  0  0  0  0  0
   -1.8804   -0.3245   -0.1748 N   0  0  0  0  0  0  0  0  0  0  0  0
    0.1568   -1.2638   -0.3072 N   0  0  0  0  0  0  0  0  0  0  0  0
    2.6559   -0.4310    0.5851 N   0  0  0  0  0  0  0  0  0  0  0  0
    4.1798    1.3611    0.3522 N   0  0  0  0  0  0  0  0  0  0  0  0
    0.4159    0.1636   -0.2140 C   0  0  1  0  0  0  0  0  0  0  0  0
   -0.9539    0.7606    0.0969 C   0  0  0  0  0  0  0  0  0  0  0  0
   -3.3090   -0.1435   -0.1065 C   0  0  0  0  0  0  0  0  0  0  0  0
    1.4868    0.4361    0.8380 C   0  0  0  0  0  0  0  0  0  0  0  0
    1.2650   -2.1946   -0.4351 C   0  0  0  0  0  0  0  0  0  0  0  0
   -1.2142   -1.5520   -0.3609 C   0  0  0  0  0  0  0  0  0  0  0  0
    2.3438   -1.8697    0.5976 C   0  0  0  0  0  0  0  0  0  0  0  0
   -3.7999    0.7594   -1.2386 C   0  0  0  0  0  0  0  0  0  0  0  0
   -3.7290    0.4284    1.2484 C   0  0  0  0  0  0  0  0  0  0  0  0
   -5.2871    1.0526   -1.0862 C   0  0  0  0  0  0  0  0  0  0  0  0
   -5.2204    0.7384    1.2613 C   0  0  0  0  0  0  0  0  0  0  0  0
    3.9752   -0.0131    0.3528 C   0  0  0  0  0  0  0  0  0  0  0  0
    5.4825    1.9448    0.1218 C   0  0  0  0  0  0  0  0  0  0  0  0
    5.8198    1.9828   -1.3543 C   0  0  0  0  0  0  0  0  0  0  0  0
    0.7603    0.4870   -1.2047 H   0  0  0  0  0  0  0  0  0  0  0  0
   -1.0347    1.0449    1.1505 H   0  0  0  0  0  0  0  0  0  0  0  0
   -1.1620    1.6283   -0.5339 H   0  0  0  0  0  0  0  0  0  0  0  0
   -3.7795   -1.1279   -0.2265 H   0  0  0  0  0  0  0  0  0  0  0  0
    1.1236    0.1751    1.8403 H   0  0  0  0  0  0  0  0  0  0  0  0
    1.7229    1.4987    0.8568 H   0  0  0  0  0  0  0  0  0  0  0  0
    1.6621   -2.0783   -1.4499 H   0  0  0  0  0  0  0  0  0  0  0  0
    0.9027   -3.2212   -0.3250 H   0  0  0  0  0  0  0  0  0  0  0  0
    1.9888   -2.1100    1.6070 H   0  0  0  0  0  0  0  0  0  0  0  0
    3.2360   -2.4740    0.4084 H   0  0  0  0  0  0  0  0  0  0  0  0
   -3.6013    0.2987   -2.2130 H   0  0  0  0  0  0  0  0  0  0  0  0
   -3.2631    1.7152   -1.2198 H   0  0  0  0  0  0  0  0  0  0  0  0
   -3.1970    1.3666    1.4462 H   0  0  0  0  0  0  0  0  0  0  0  0
   -3.4760   -0.2660    2.0576 H   0  0  0  0  0  0  0  0  0  0  0  0
   -5.6049    1.7726   -1.8470 H   0  0  0  0  0  0  0  0  0  0  0  0
   -5.8878    0.1451   -1.2187 H   0  0  0  0  0  0  0  0  0  0  0  0
   -5.8186   -0.1771    1.1836 H   0  0  0  0  0  0  0  0  0  0  0  0
   -5.4909    1.2304    2.2010 H   0  0  0  0  0  0  0  0  0  0  0  0
    3.4176    2.0117    0.4758 H   0  0  0  0  0  0  0  0  0  0  0  0
    5.4647    2.9589    0.5333 H   0  0  0  0  0  0  0  0  0  0  0  0
    6.2353    1.3659    0.6670 H   0  0  0  0  0  0  0  0  0  0  0  0
    5.8558    0.9761   -1.7831 H   0  0  0  0  0  0  0  0  0  0  0  0
    5.0704    2.5544   -1.9121 H   0  0  0  0  0  0  0  0  0  0  0  0
    6.7952    2.4537   -1.5103 H   0  0  0  0  0  0  0  0  0  0  0  0
  1 17  1  0  0  0  0
  1 18  1  0  0  0  0
  2 13  2  0  0  0  0
  3 19  2  0  0  0  0
  4  9  1  0  0  0  0
  4 10  1  0  0  0  0
  4 13  1  0  0  0  0
  5  8  1  0  0  0  0
  5 12  1  0  0  0  0
  5 13  1  0  0  0  0
  6 11  1  0  0  0  0
  6 14  1  0  0  0  0
  6 19  1  0  0  0  0
  7 19  1  0  0  0  0
  7 20  1  0  0  0  0
  7 40  1  0  0  0  0
  8  9  1  0  0  0  0
  8 11  1  0  0  0  0
  8 22  1  0  0  0  0
  9 23  1  0  0  0  0
  9 24  1  0  0  0  0
 10 15  1  0  0  0  0
 10 16  1  0  0  0  0
 10 25  1  0  0  0  0
 11 26  1  0  0  0  0
 11 27  1  0  0  0  0
 12 14  1  0  0  0  0
 12 28  1  0  0  0  0
 12 29  1  0  0  0  0
 14 30  1  0  0  0  0
 14 31  1  0  0  0  0
 15 17  1  0  0  0  0
 15 32  1  0  0  0  0
 15 33  1  0  0  0  0
 16 18  1  0  0  0  0
 16 34  1  0  0  0  0
 16 35  1  0  0  0  0
 17 36  1  0  0  0  0
 17 37  1  0  0  0  0
 18 38  1  0  0  0  0
 18 39  1  0  0  0  0
 20 21  1  0  0  0  0
 20 41  1  0  0  0  0
 20 42  1  0  0  0  0
 21 43  1  0  0  0  0
 21 44  1  0  0  0  0
 21 45  1  0  0  0  0
M  END
> <PUBCHEM_COMPOUND_CID>
75368502

> <PUBCHEM_CONFORMER_RMSD>
0.8

> <PUBCHEM_CONFORMER_DIVERSEORDER>
1
28
25
40
31
8
24
26
35
38
19
9
30
3
41
34
4
5
15
13
14
33
20
17
37
10
32
12
29
39
18
7
22
6
23
2
21
36
27
16
42
11

> <PUBCHEM_MMFF94_PARTIAL_CHARGES>
19
1 -0.56
10 0.3
11 0.3
12 0.3
13 0.69
14 0.3
17 0.28
18 0.28
19 0.69
2 -0.57
20 0.3
3 -0.57
4 -0.66
40 0.37
5 -0.66
6 -0.66
7 -0.73
8 0.3
9 0.3

> <PUBCHEM_EFFECTIVE_ROTOR_COUNT>
6.4

> <PUBCHEM_PHARMACOPHORE_FEATURES>
7
1 1 acceptor
1 2 acceptor
1 3 acceptor
1 7 donor
5 4 5 8 9 13 rings
6 1 10 15 16 17 18 rings
6 5 6 8 11 12 14 rings

> <PUBCHEM_HEAVY_ATOM_COUNT>
21

> <PUBCHEM_ATOM_DEF_STEREO_COUNT>
1

> <PUBCHEM_ATOM_UDEF_STEREO_COUNT>
0

> <PUBCHEM_BOND_DEF_STEREO_COUNT>
0

> <PUBCHEM_BOND_UDEF_STEREO_COUNT>
0

> <PUBCHEM_ISOTOPIC_ATOM_COUNT>
0

> <PUBCHEM_COMPONENT_COUNT>
1

> <PUBCHEM_CACTVS_TAUTO_COUNT>
2

> <PUBCHEM_CONFORMER_ID>
047E083600000001

> <PUBCHEM_MMFF94_ENERGY>
39.1001

> <PUBCHEM_FEATURE_SELFOVERLAP>
35.619

> <PUBCHEM_SHAPE_FINGERPRINT>
10 15 17676772053825118656
10014705 185 18335695070215356407
10498660 4 18341894138711849984
11089746 13 17417801847094493432
11796584 16 13183014103442322141
12236239 1 17489299734406835149
12390115 104 18341623662550460882
12596602 18 17457781180792170217
12616971 3 17968083253721791474
12644460 14 18335698278572154002
12788726 201 17489316234854036056
12839892 36 12324231785056509840
12892183 10 16805598119239941019
13540713 5 18266999787368621714
13583140 156 16733250301461258085
13675066 3 17603585192773550947
13760787 5 18342451500464419787
13955234 65 18188768332524534874
14528608 73 18201714067811908388
14790565 3 18342745078480240017
15183329 4 15769785628119792676
15188451 53 14779556729272251057
15196674 1 18412259566900695234
1601671 61 18409164441837395324
17834072 32 18411417358189239460
17857418 61 9655586205538585012
1813 80 10809631342420487835
18222031 100 10809340032121078280
18785283 64 15286219417886344236
19784866 140 10663821871186720877
19784866 170 18260269659102724136
204376 136 18412542090018224651
20612939 158 18272370815395713782
20645477 56 18333725836173585069
21033648 29 18261936471797678185
21033650 10 15913064083277715658
21315764 119 14692583091240017993
22079108 93 16732986457251645952
23402539 116 17203318992967558609
23402655 69 18131625690546225022
23559900 14 18130505232954452910
25147074 1 18268972293895768046
293599 30 18412546543851630032
296302 2 18408882919526022851
335352 9 18341327813125436230
3472631 163 18339647853652296532
34934 24 18335133202482956346
350125 39 18268710687801343331
4340502 62 17313106323927580875
474 4 18201434736546111387
5104073 3 18335974372418871874
542803 24 17846497024101750233
56616090 163 18342465854524873614
59682541 52 16414925132179154260
633830 44 17987803982387210927
960060 61 16271935913230673372

> <PUBCHEM_SHAPE_MULTIPOLES>
394.64
13.56
2.25
1.11
2.81
0.83
0.03
-10.38
0.57
1.65
0.46
-0.69
-0.3
-0.71

> <PUBCHEM_SHAPE_SELFOVERLAP>
811.73

> <PUBCHEM_SHAPE_VOLUME>
225.3

> <PUBCHEM_COORDINATE_TYPE>
2
5
10

$$$$
