71694030
  -OEChem-12032416273D

 46 48  0     1  0  0  0  0  0999 V2000
    0.8052   -3.2792    0.7066 O   0  0  0  0  0  0  0  0  0  0  0  0
    3.4722   -2.6719    0.9178 O   0  0  0  0  0  0  0  0  0  0  0  0
   -6.1873    1.1394   -0.2716 O   0  0  0  0  0  0  0  0  0  0  0  0
   -0.0646   -0.5141   -0.3368 N   0  0  0  0  0  0  0  0  0  0  0  0
    1.2756   -1.0098   -0.0443 C   0  0  2  0  0  0  0  0  0  0  0  0
    2.3414   -0.3912   -0.9775 C   0  0  2  0  0  0  0  0  0  0  0  0
    1.3986   -2.5080   -0.3205 C   0  0  1  0  0  0  0  0  0  0  0  0
    3.3994   -1.5066   -1.1946 C   0  0  0  0  0  0  0  0  0  0  0  0
    2.9093   -2.7125   -0.3905 C   0  0  1  0  0  0  0  0  0  0  0  0
    2.9109    0.9093   -0.4527 C   0  0  0  0  0  0  0  0  0  0  0  0
   -0.9555   -0.7275    0.7949 C   0  0  0  0  0  0  0  0  0  0  0  0
    2.3011    2.1204   -0.7797 C   0  0  0  0  0  0  0  0  0  0  0  0
    4.0458    0.8963    0.3581 C   0  0  0  0  0  0  0  0  0  0  0  0
   -2.3486   -0.2306    0.5133 C   0  0  0  0  0  0  0  0  0  0  0  0
    2.8263    3.3188   -0.2959 C   0  0  0  0  0  0  0  0  0  0  0  0
    4.5709    2.0946    0.8419 C   0  0  0  0  0  0  0  0  0  0  0  0
    3.9613    3.3058    0.5148 C   0  0  0  0  0  0  0  0  0  0  0  0
   -2.6222    1.1368    0.5495 C   0  0  0  0  0  0  0  0  0  0  0  0
   -3.3651   -1.1375    0.2139 C   0  0  0  0  0  0  0  0  0  0  0  0
   -3.9123    1.5971    0.2863 C   0  0  0  0  0  0  0  0  0  0  0  0
   -4.6551   -0.6772   -0.0494 C   0  0  0  0  0  0  0  0  0  0  0  0
   -4.9288    0.6900   -0.0131 C   0  0  0  0  0  0  0  0  0  0  0  0
   -7.1784    0.1574   -0.5706 C   0  0  0  0  0  0  0  0  0  0  0  0
    1.5340   -0.7917    1.0021 H   0  0  0  0  0  0  0  0  0  0  0  0
    1.9043   -0.1876   -1.9669 H   0  0  0  0  0  0  0  0  0  0  0  0
    0.9330   -2.7716   -1.2790 H   0  0  0  0  0  0  0  0  0  0  0  0
    3.3708   -1.7774   -2.2593 H   0  0  0  0  0  0  0  0  0  0  0  0
    4.4382   -1.2464   -0.9834 H   0  0  0  0  0  0  0  0  0  0  0  0
    3.1775   -3.6710   -0.8445 H   0  0  0  0  0  0  0  0  0  0  0  0
   -0.0192    0.4855   -0.5323 H   0  0  0  0  0  0  0  0  0  0  0  0
   -0.5816   -0.2086    1.6877 H   0  0  0  0  0  0  0  0  0  0  0  0
   -1.0212   -1.7866    1.0614 H   0  0  0  0  0  0  0  0  0  0  0  0
    1.0079   -4.2124    0.5238 H   0  0  0  0  0  0  0  0  0  0  0  0
    4.4366   -2.7508    0.8221 H   0  0  0  0  0  0  0  0  0  0  0  0
    1.4188    2.1468   -1.4133 H   0  0  0  0  0  0  0  0  0  0  0  0
    4.5257   -0.0224    0.6776 H   0  0  0  0  0  0  0  0  0  0  0  0
    2.3517    4.2619   -0.5506 H   0  0  0  0  0  0  0  0  0  0  0  0
    5.4481    2.0845    1.4823 H   0  0  0  0  0  0  0  0  0  0  0  0
    4.3688    4.2386    0.8935 H   0  0  0  0  0  0  0  0  0  0  0  0
   -1.8385    1.8533    0.7819 H   0  0  0  0  0  0  0  0  0  0  0  0
   -3.1651   -2.2053    0.1795 H   0  0  0  0  0  0  0  0  0  0  0  0
   -4.1194    2.6634    0.3156 H   0  0  0  0  0  0  0  0  0  0  0  0
   -5.3966   -1.4358   -0.2758 H   0  0  0  0  0  0  0  0  0  0  0  0
   -8.1182    0.6905   -0.7485 H   0  0  0  0  0  0  0  0  0  0  0  0
   -7.3479   -0.5146    0.2776 H   0  0  0  0  0  0  0  0  0  0  0  0
   -6.9407   -0.3871   -1.4907 H   0  0  0  0  0  0  0  0  0  0  0  0
  1  7  1  0  0  0  0
  1 33  1  0  0  0  0
  2  9  1  0  0  0  0
  2 34  1  0  0  0  0
  3 22  1  0  0  0  0
  3 23  1  0  0  0  0
  4  5  1  0  0  0  0
  4 11  1  0  0  0  0
  4 30  1  0  0  0  0
  5  6  1  0  0  0  0
  5  7  1  0  0  0  0
  5 24  1  0  0  0  0
  6  8  1  0  0  0  0
  6 10  1  0  0  0  0
  6 25  1  0  0  0  0
  7  9  1  0  0  0  0
  7 26  1  0  0  0  0
  8  9  1  0  0  0  0
  8 27  1  0  0  0  0
  8 28  1  0  0  0  0
  9 29  1  0  0  0  0
 10 12  2  0  0  0  0
 10 13  1  0  0  0  0
 11 14  1  0  0  0  0
 11 31  1  0  0  0  0
 11 32  1  0  0  0  0
 12 15  1  0  0  0  0
 12 35  1  0  0  0  0
 13 16  2  0  0  0  0
 13 36  1  0  0  0  0
 14 18  2  0  0  0  0
 14 19  1  0  0  0  0
 15 17  2  0  0  0  0
 15 37  1  0  0  0  0
 16 17  1  0  0  0  0
 16 38  1  0  0  0  0
 17 39  1  0  0  0  0
 18 20  1  0  0  0  0
 18 40  1  0  0  0  0
 19 21  2  0  0  0  0
 19 41  1  0  0  0  0
 20 22  2  0  0  0  0
 20 42  1  0  0  0  0
 21 22  1  0  0  0  0
 21 43  1  0  0  0  0
 23 44  1  0  0  0  0
 23 45  1  0  0  0  0
 23 46  1  0  0  0  0
M  END
> <PUBCHEM_COMPOUND_CID>
71694030

> <PUBCHEM_CONFORMER_RMSD>
0.8

> <PUBCHEM_CONFORMER_DIVERSEORDER>
1
20
28
31
5
7
24
12
19
23
26
9
21
6
4
14
25
22
8
15
29
27
13
30
16
17
3
2
18
10
11

> <PUBCHEM_MMFF94_PARTIAL_CHARGES>
34
1 -0.68
10 -0.14
11 0.41
12 -0.15
13 -0.15
14 -0.14
15 -0.15
16 -0.15
17 -0.15
18 -0.15
19 -0.15
2 -0.68
20 -0.15
21 -0.15
22 0.08
23 0.28
3 -0.36
30 0.36
33 0.4
34 0.4
35 0.15
36 0.15
37 0.15
38 0.15
39 0.15
4 -0.9
40 0.15
41 0.15
42 0.15
43 0.15
5 0.27
6 0.14
7 0.28
9 0.28

> <PUBCHEM_EFFECTIVE_ROTOR_COUNT>
6

> <PUBCHEM_PHARMACOPHORE_FEATURES>
10
1 1 acceptor
1 1 donor
1 2 acceptor
1 2 donor
1 3 acceptor
1 4 cation
1 4 donor
5 5 6 7 8 9 rings
6 10 12 13 15 16 17 rings
6 14 18 19 20 21 22 rings

> <PUBCHEM_HEAVY_ATOM_COUNT>
23

> <PUBCHEM_ATOM_DEF_STEREO_COUNT>
4

> <PUBCHEM_ATOM_UDEF_STEREO_COUNT>
0

> <PUBCHEM_BOND_DEF_STEREO_COUNT>
0

> <PUBCHEM_BOND_UDEF_STEREO_COUNT>
0

> <PUBCHEM_ISOTOPIC_ATOM_COUNT>
0

> <PUBCHEM_COMPONENT_COUNT>
1

> <PUBCHEM_CACTVS_TAUTO_COUNT>
1

> <PUBCHEM_CONFORMER_ID>
0445F6CE00000001

> <PUBCHEM_MMFF94_ENERGY>
77.5654

> <PUBCHEM_FEATURE_SELFOVERLAP>
50.757

> <PUBCHEM_SHAPE_FINGERPRINT>
10411042 1 17979073787217666902
10595046 47 18272087219480450029
10835480 77 18409161105180491501
11135609 127 18341880880290647845
11370993 70 18338800142649962072
12166972 35 18058448699198083482
12403259 327 16515961592265587544
12633257 1 16660922304471830132
12730499 353 18337682995997024251
12769317 202 18272085045462562120
12788726 201 17326066048905795378
13533116 47 18410016503298124381
13955234 65 18336267838575364811
13965767 371 18042953454196168684
14461889 52 18188775080192158219
14528608 73 18413673517558150319
15420108 30 18198889470571223302
17492 54 10735590384652011546
17844677 252 18340775828175814737
18681886 176 18199465480929835210
20157964 124 18411417319735058949
20369508 70 18263646173512920886
20567600 254 18341890861472695560
20715895 44 18408600387892879657
21033648 29 17385722453352062709
21304303 282 17270859969659504558
21315764 268 18334851672215165469
2132832 1 18057322790611453848
21403212 168 18342447172055205776
21452121 103 18409163320639460378
21859007 373 17314772024410108661
22149856 69 18192740984653609795
22393880 68 18341344365217186814
23558518 356 17974851988963091206
23559900 14 18411420579193464323
239999 70 18201444644587511086
3004659 81 18130508535530465647
335352 9 18411985772005654508
34797466 226 17989213642388226293
474 4 18410577326820792736
495365 180 18334860506477667818
5104073 3 18335430045570097107
59755656 215 18410015437961871988
6327066 14 18123188167639198132
6328613 192 18191314978107499972
67856867 119 18411695482917489979
84936 182 18272094915576723416
9981440 41 18192712469268420570

> <PUBCHEM_SHAPE_MULTIPOLES>
450.74
13.28
3.79
0.94
23.05
0.22
-0.04
-6.48
-0.9
-6.24
0.34
-0.51
0.1
0.5

> <PUBCHEM_SHAPE_SELFOVERLAP>
960.237

> <PUBCHEM_SHAPE_VOLUME>
251.7

> <PUBCHEM_COORDINATE_TYPE>
2
5
10

$$$$
