7155500
  -OEChem-12032416403D

 61 66  0     1  0  0  0  0  0999 V2000
   -3.8547    4.6593   -0.0300 S   0  0  0  0  0  0  0  0  0  0  0  0
   -3.4649   -1.7295    1.0484 O   0  0  0  0  0  0  0  0  0  0  0  0
    1.3242   -2.7932    2.6902 O   0  0  0  0  0  0  0  0  0  0  0  0
   -2.1097    2.5163   -0.8602 O   0  0  0  0  0  0  0  0  0  0  0  0
    1.1566   -3.5188    0.4720 N   0  0  0  0  0  0  0  0  0  0  0  0
   -1.7729   -2.5909   -0.3134 N   0  0  0  0  0  0  0  0  0  0  0  0
   -3.4295    0.7188   -0.1990 N   0  0  0  0  0  0  0  0  0  0  0  0
   -0.8206   -4.9500   -0.0133 C   0  0  1  0  0  0  0  0  0  0  0  0
    0.0837   -3.4781   -1.7673 C   0  0  2  0  0  0  0  0  0  0  0  0
   -0.5101   -4.8609   -1.5035 C   0  0  0  0  0  0  0  0  0  0  0  0
    0.4630   -4.7599    0.8150 C   0  0  0  0  0  0  0  0  0  0  0  0
   -1.8903   -3.9062    0.3318 C   0  0  0  0  0  0  0  0  0  0  0  0
    1.3917   -3.3163   -0.9669 C   0  0  0  0  0  0  0  0  0  0  0  0
   -0.8915   -2.3826   -1.3794 C   0  0  0  0  0  0  0  0  0  0  0  0
   -0.8829   -1.2071   -2.0302 C   0  0  0  0  0  0  0  0  0  0  0  0
   -2.6600   -1.5879    0.1266 C   0  0  0  0  0  0  0  0  0  0  0  0
    1.5179   -2.6296    1.4868 C   0  0  0  0  0  0  0  0  0  0  0  0
   -2.5999   -0.2838   -0.6068 C   0  0  0  0  0  0  0  0  0  0  0  0
   -1.7549   -0.1382   -1.6329 C   0  0  0  0  0  0  0  0  0  0  0  0
    2.1707   -1.3745    1.1004 C   0  0  0  0  0  0  0  0  0  0  0  0
    1.3998   -0.2462    0.8329 C   0  0  0  0  0  0  0  0  0  0  0  0
    3.5587   -1.3168    1.0042 C   0  0  0  0  0  0  0  0  0  0  0  0
   -3.1333    2.0664   -0.3509 C   0  0  0  0  0  0  0  0  0  0  0  0
    2.0209    0.9479    0.4671 C   0  0  0  0  0  0  0  0  0  0  0  0
    4.1798   -0.1226    0.6383 C   0  0  0  0  0  0  0  0  0  0  0  0
    3.4110    1.0098    0.3697 C   0  0  0  0  0  0  0  0  0  0  0  0
   -4.1711    3.0130    0.1342 C   0  0  0  0  0  0  0  0  0  0  0  0
    4.0554    2.2480   -0.0113 C   0  0  0  0  0  0  0  0  0  0  0  0
   -5.3480    2.6987    0.6959 C   0  0  0  0  0  0  0  0  0  0  0  0
    4.2973    2.5231   -1.3571 C   0  0  0  0  0  0  0  0  0  0  0  0
    4.4328    3.1672    0.9674 C   0  0  0  0  0  0  0  0  0  0  0  0
   -6.0649    3.8849    1.0261 C   0  0  0  0  0  0  0  0  0  0  0  0
   -5.3675    5.0229    0.6851 C   0  0  0  0  0  0  0  0  0  0  0  0
    4.9167    3.7176   -1.7243 C   0  0  0  0  0  0  0  0  0  0  0  0
    5.0522    4.3618    0.6002 C   0  0  0  0  0  0  0  0  0  0  0  0
    5.2941    4.6372   -0.7457 C   0  0  0  0  0  0  0  0  0  0  0  0
   -1.2211   -5.9443    0.2200 H   0  0  0  0  0  0  0  0  0  0  0  0
    0.3196   -3.4044   -2.8368 H   0  0  0  0  0  0  0  0  0  0  0  0
    0.1998   -5.6448   -1.7942 H   0  0  0  0  0  0  0  0  0  0  0  0
   -1.4196   -5.0142   -2.0978 H   0  0  0  0  0  0  0  0  0  0  0  0
    0.2313   -4.7917    1.8849 H   0  0  0  0  0  0  0  0  0  0  0  0
    1.1623   -5.5803    0.6124 H   0  0  0  0  0  0  0  0  0  0  0  0
   -2.8715   -4.2963    0.0283 H   0  0  0  0  0  0  0  0  0  0  0  0
   -1.9475   -3.7595    1.4177 H   0  0  0  0  0  0  0  0  0  0  0  0
    1.8449   -2.3434   -1.1722 H   0  0  0  0  0  0  0  0  0  0  0  0
    2.1189   -4.0764   -1.2784 H   0  0  0  0  0  0  0  0  0  0  0  0
   -0.2010   -1.0185   -2.8528 H   0  0  0  0  0  0  0  0  0  0  0  0
   -1.6929    0.7496   -2.2502 H   0  0  0  0  0  0  0  0  0  0  0  0
   -4.1922    0.4413    0.4112 H   0  0  0  0  0  0  0  0  0  0  0  0
    0.3174   -0.2810    0.9166 H   0  0  0  0  0  0  0  0  0  0  0  0
    4.1665   -2.1937    1.2111 H   0  0  0  0  0  0  0  0  0  0  0  0
    1.4060    1.8213    0.2626 H   0  0  0  0  0  0  0  0  0  0  0  0
    5.2645   -0.0920    0.5666 H   0  0  0  0  0  0  0  0  0  0  0  0
   -5.7344    1.7063    0.8837 H   0  0  0  0  0  0  0  0  0  0  0  0
    4.0090    1.8175   -2.1328 H   0  0  0  0  0  0  0  0  0  0  0  0
    4.2512    2.9687    2.0211 H   0  0  0  0  0  0  0  0  0  0  0  0
   -7.0430    3.9030    1.4893 H   0  0  0  0  0  0  0  0  0  0  0  0
   -5.6742    6.0504    0.8215 H   0  0  0  0  0  0  0  0  0  0  0  0
    5.1050    3.9322   -2.7722 H   0  0  0  0  0  0  0  0  0  0  0  0
    5.3461    5.0779    1.3622 H   0  0  0  0  0  0  0  0  0  0  0  0
    5.7763    5.5674   -1.0315 H   0  0  0  0  0  0  0  0  0  0  0  0
  1 27  1  0  0  0  0
  1 33  1  0  0  0  0
  2 16  2  0  0  0  0
  3 17  2  0  0  0  0
  4 23  2  0  0  0  0
  5 11  1  0  0  0  0
  5 13  1  0  0  0  0
  5 17  1  0  0  0  0
  6 12  1  0  0  0  0
  6 14  1  0  0  0  0
  6 16  1  0  0  0  0
  7 18  1  0  0  0  0
  7 23  1  0  0  0  0
  7 49  1  0  0  0  0
  8 10  1  0  0  0  0
  8 11  1  0  0  0  0
  8 12  1  0  0  0  0
  8 37  1  0  0  0  0
  9 10  1  0  0  0  0
  9 13  1  0  0  0  0
  9 14  1  0  0  0  0
  9 38  1  0  0  0  0
 10 39  1  0  0  0  0
 10 40  1  0  0  0  0
 11 41  1  0  0  0  0
 11 42  1  0  0  0  0
 12 43  1  0  0  0  0
 12 44  1  0  0  0  0
 13 45  1  0  0  0  0
 13 46  1  0  0  0  0
 14 15  2  0  0  0  0
 15 19  1  0  0  0  0
 15 47  1  0  0  0  0
 16 18  1  0  0  0  0
 17 20  1  0  0  0  0
 18 19  2  0  0  0  0
 19 48  1  0  0  0  0
 20 21  2  0  0  0  0
 20 22  1  0  0  0  0
 21 24  1  0  0  0  0
 21 50  1  0  0  0  0
 22 25  2  0  0  0  0
 22 51  1  0  0  0  0
 23 27  1  0  0  0  0
 24 26  2  0  0  0  0
 24 52  1  0  0  0  0
 25 26  1  0  0  0  0
 25 53  1  0  0  0  0
 26 28  1  0  0  0  0
 27 29  2  0  0  0  0
 28 30  2  0  0  0  0
 28 31  1  0  0  0  0
 29 32  1  0  0  0  0
 29 54  1  0  0  0  0
 30 34  1  0  0  0  0
 30 55  1  0  0  0  0
 31 35  2  0  0  0  0
 31 56  1  0  0  0  0
 32 33  2  0  0  0  0
 32 57  1  0  0  0  0
 33 58  1  0  0  0  0
 34 36  2  0  0  0  0
 34 59  1  0  0  0  0
 35 36  1  0  0  0  0
 35 60  1  0  0  0  0
 36 61  1  0  0  0  0
M  END
> <PUBCHEM_COMPOUND_CID>
7155500

> <PUBCHEM_CONFORMER_RMSD>
1

> <PUBCHEM_CONFORMER_DIVERSEORDER>
1
3
2
8
11
6
12
10
7
4
13
5
9

> <PUBCHEM_MMFF94_PARTIAL_CHARGES>
47
1 -0.08
11 0.3
12 0.3
13 0.3
14 -0.03
15 -0.15
16 0.62
17 0.54
18 0.12
19 -0.15
2 -0.57
20 0.09
21 -0.15
22 -0.15
23 0.71
24 -0.15
25 -0.15
27 -0.05
29 -0.15
3 -0.57
30 -0.15
31 -0.15
32 -0.15
33 -0.11
34 -0.15
35 -0.15
36 -0.15
4 -0.57
47 0.15
48 0.15
49 0.37
5 -0.66
50 0.15
51 0.15
52 0.15
53 0.15
54 0.15
55 0.15
56 0.15
57 0.15
58 0.15
59 0.15
6 -0.47
60 0.15
61 0.15
7 -0.54
9 0.14

> <PUBCHEM_EFFECTIVE_ROTOR_COUNT>
7

> <PUBCHEM_PHARMACOPHORE_FEATURES>
10
1 2 acceptor
1 3 acceptor
1 4 acceptor
1 7 donor
5 1 27 29 32 33 rings
6 20 21 22 24 25 26 rings
6 28 30 31 34 35 36 rings
6 5 8 9 10 11 13 rings
6 6 14 15 16 18 19 rings
6 6 8 9 10 12 14 rings

> <PUBCHEM_HEAVY_ATOM_COUNT>
36

> <PUBCHEM_ATOM_DEF_STEREO_COUNT>
2

> <PUBCHEM_ATOM_UDEF_STEREO_COUNT>
0

> <PUBCHEM_BOND_DEF_STEREO_COUNT>
0

> <PUBCHEM_BOND_UDEF_STEREO_COUNT>
0

> <PUBCHEM_ISOTOPIC_ATOM_COUNT>
0

> <PUBCHEM_COMPONENT_COUNT>
1

> <PUBCHEM_CACTVS_TAUTO_COUNT>
2

> <PUBCHEM_CONFORMER_ID>
006D2F2C00000001

> <PUBCHEM_MMFF94_ENERGY>
109.4061

> <PUBCHEM_FEATURE_SELFOVERLAP>
52.331

> <PUBCHEM_SHAPE_FINGERPRINT>
10937287 8 18411133649539676884
10951579 204 17904213864943726644
11059048 146 18410854378124081220
11059845 2 18123719133350806424
11434127 23 18054506082978025404
11476731 47 17976238159762416821
11505856 67 18271237335409378525
11828042 279 18192977250746975653
12708847 88 18264482894100483813
12788726 201 17975966889031063586
13761468 95 18055658319380999080
14394314 77 17906173207020946467
14790565 3 18411700989028893433
14849402 71 17979644437819927525
151778 21 18267017267521142889
15264996 163 17830450936153320253
15439362 3 18341616993421142908
16067690 210 17472723771515575996
16988056 13 17691689982751300085
18785283 64 18050567340115878693
21792965 270 18122635946440151258
22121540 332 17826269351566656866
469060 322 16302302392533231214
4760202 170 17038650376854101205
5219985 13 18413393141882804553
53794403 172 18267027142072761205
57527585 21 18127394864249957671
5776283 40 18195270861676319196
6201320 215 17907854356348507024
6608658 132 18054783159707471903
6609424 69 16830924033566147982
9896288 288 18265063598646197073

> <PUBCHEM_SHAPE_MULTIPOLES>
712.16
11.49
9.87
1.69
4.56
0.06
-0.17
-25.93
1.83
0.66
-0.48
-0.81
0.95
-2.9

> <PUBCHEM_SHAPE_SELFOVERLAP>
1575.728

> <PUBCHEM_SHAPE_VOLUME>
380.4

> <PUBCHEM_COORDINATE_TYPE>
2
5
10

$$$$
