26763478
  -OEChem-12032416373D

 58 59  0     1  0  0  0  0  0999 V2000
   -2.3494    3.5537    0.2664 S   0  0  0  0  0  0  0  0  0  0  0  0
    3.4708   -1.9966   -0.2733 O   0  0  0  0  0  0  0  0  0  0  0  0
    1.3672   -0.1830   -1.2477 O   0  0  0  0  0  0  0  0  0  0  0  0
   -2.0325   -2.8641   -1.1155 O   0  0  0  0  0  0  0  0  0  0  0  0
   -3.5858   -1.3688    0.1989 O   0  0  0  0  0  0  0  0  0  0  0  0
    3.0144    2.5945    2.0165 O   0  0  0  0  0  0  0  0  0  0  0  0
   -6.7082    0.0573    1.2405 O   0  0  0  0  0  0  0  0  0  0  0  0
   -6.2398   -1.4378   -0.4127 O   0  0  0  0  0  0  0  0  0  0  0  0
   -0.0557   -2.1827   -0.0903 N   0  0  0  0  0  0  0  0  0  0  0  0
    1.1300    1.1096    0.6740 N   0  0  0  0  0  0  0  0  0  0  0  0
    3.6927    3.4426   -0.0076 N   0  0  0  0  0  0  0  0  0  0  0  0
    0.6670   -1.2400    0.7778 C   0  0  1  0  0  0  0  0  0  0  0  0
    2.7165   -2.7844    0.6417 C   0  0  1  0  0  0  0  0  0  0  0  0
    1.8561   -1.8700    1.5133 C   0  0  0  0  0  0  0  0  0  0  0  0
    1.8442   -3.7822   -0.1137 C   0  0  0  0  0  0  0  0  0  0  0  0
    0.7591   -3.0780   -0.9202 C   0  0  0  0  0  0  0  0  0  0  0  0
    1.0860   -0.0648   -0.0579 C   0  0  0  0  0  0  0  0  0  0  0  0
   -1.4424   -2.1681   -0.2848 C   0  0  0  0  0  0  0  0  0  0  0  0
    1.5252    2.3794    0.1083 C   0  0  1  0  0  0  0  0  0  0  0  0
   -2.2424   -1.2397    0.5955 C   0  0  0  0  0  0  0  0  0  0  0  0
    4.5947   -1.4006    0.3584 C   0  0  0  0  0  0  0  0  0  0  0  0
    0.4330    3.4449    0.2567 C   0  0  0  0  0  0  0  0  0  0  0  0
    2.7927    2.8155    0.8283 C   0  0  0  0  0  0  0  0  0  0  0  0
    5.5855   -1.0152   -0.6893 C   0  0  0  0  0  0  0  0  0  0  0  0
   -0.8605    3.0529   -0.4151 C   0  0  0  0  0  0  0  0  0  0  0  0
   -4.4534   -0.5334    0.9635 C   0  0  0  0  0  0  0  0  0  0  0  0
   -1.0405    2.3091   -1.5606 C   0  0  0  0  0  0  0  0  0  0  0  0
    6.0066    0.2377   -0.8946 C   0  0  0  0  0  0  0  0  0  0  0  0
   -2.4190    2.1484   -1.8830 C   0  0  0  0  0  0  0  0  0  0  0  0
   -3.2400    2.7754   -0.9718 C   0  0  0  0  0  0  0  0  0  0  0  0
   -5.8720   -0.7114    0.4983 C   0  0  0  0  0  0  0  0  0  0  0  0
   -0.0187   -0.8739    1.5479 H   0  0  0  0  0  0  0  0  0  0  0  0
    3.3974   -3.3654    1.2771 H   0  0  0  0  0  0  0  0  0  0  0  0
    2.4552   -1.0902    1.9946 H   0  0  0  0  0  0  0  0  0  0  0  0
    1.4475   -2.4871    2.3256 H   0  0  0  0  0  0  0  0  0  0  0  0
    1.3759   -4.4704    0.6008 H   0  0  0  0  0  0  0  0  0  0  0  0
    2.4610   -4.3781   -0.7963 H   0  0  0  0  0  0  0  0  0  0  0  0
    1.1945   -2.5016   -1.7417 H   0  0  0  0  0  0  0  0  0  0  0  0
    0.1219   -3.8373   -1.3869 H   0  0  0  0  0  0  0  0  0  0  0  0
    0.9180    1.0840    1.6675 H   0  0  0  0  0  0  0  0  0  0  0  0
    1.7632    2.2333   -0.9522 H   0  0  0  0  0  0  0  0  0  0  0  0
   -1.9083   -0.2086    0.4486 H   0  0  0  0  0  0  0  0  0  0  0  0
   -2.1307   -1.5449    1.6409 H   0  0  0  0  0  0  0  0  0  0  0  0
    4.2740   -0.5246    0.9317 H   0  0  0  0  0  0  0  0  0  0  0  0
    5.0879   -2.1031    1.0407 H   0  0  0  0  0  0  0  0  0  0  0  0
    0.7790    4.3919   -0.1774 H   0  0  0  0  0  0  0  0  0  0  0  0
    0.2585    3.6374    1.3240 H   0  0  0  0  0  0  0  0  0  0  0  0
    5.9850   -1.8084   -1.3157 H   0  0  0  0  0  0  0  0  0  0  0  0
   -0.2352    1.9051   -2.1594 H   0  0  0  0  0  0  0  0  0  0  0  0
   -4.3931   -0.8189    2.0191 H   0  0  0  0  0  0  0  0  0  0  0  0
   -4.1678    0.5139    0.8294 H   0  0  0  0  0  0  0  0  0  0  0  0
    3.4995    3.6149   -0.9889 H   0  0  0  0  0  0  0  0  0  0  0  0
    4.5872    3.7689    0.3429 H   0  0  0  0  0  0  0  0  0  0  0  0
    6.7305    0.4533   -1.6727 H   0  0  0  0  0  0  0  0  0  0  0  0
    5.6419    1.0642   -0.2953 H   0  0  0  0  0  0  0  0  0  0  0  0
   -2.7896    1.6023   -2.7407 H   0  0  0  0  0  0  0  0  0  0  0  0
   -4.3202    2.8127   -0.9735 H   0  0  0  0  0  0  0  0  0  0  0  0
   -7.6425   -0.0399    0.9577 H   0  0  0  0  0  0  0  0  0  0  0  0
  1 25  1  0  0  0  0
  1 30  1  0  0  0  0
  2 13  1  0  0  0  0
  2 21  1  0  0  0  0
  3 17  2  0  0  0  0
  4 18  2  0  0  0  0
  5 20  1  0  0  0  0
  5 26  1  0  0  0  0
  6 23  2  0  0  0  0
  7 31  1  0  0  0  0
  7 58  1  0  0  0  0
  8 31  2  0  0  0  0
  9 12  1  0  0  0  0
  9 16  1  0  0  0  0
  9 18  1  0  0  0  0
 10 17  1  0  0  0  0
 10 19  1  0  0  0  0
 10 40  1  0  0  0  0
 11 23  1  0  0  0  0
 11 52  1  0  0  0  0
 11 53  1  0  0  0  0
 12 14  1  0  0  0  0
 12 17  1  0  0  0  0
 12 32  1  0  0  0  0
 13 14  1  0  0  0  0
 13 15  1  0  0  0  0
 13 33  1  0  0  0  0
 14 34  1  0  0  0  0
 14 35  1  0  0  0  0
 15 16  1  0  0  0  0
 15 36  1  0  0  0  0
 15 37  1  0  0  0  0
 16 38  1  0  0  0  0
 16 39  1  0  0  0  0
 18 20  1  0  0  0  0
 19 22  1  0  0  0  0
 19 23  1  0  0  0  0
 19 41  1  0  0  0  0
 20 42  1  0  0  0  0
 20 43  1  0  0  0  0
 21 24  1  0  0  0  0
 21 44  1  0  0  0  0
 21 45  1  0  0  0  0
 22 25  1  0  0  0  0
 22 46  1  0  0  0  0
 22 47  1  0  0  0  0
 24 28  2  0  0  0  0
 24 48  1  0  0  0  0
 25 27  2  0  0  0  0
 26 31  1  0  0  0  0
 26 50  1  0  0  0  0
 26 51  1  0  0  0  0
 27 29  1  0  0  0  0
 27 49  1  0  0  0  0
 28 54  1  0  0  0  0
 28 55  1  0  0  0  0
 29 30  2  0  0  0  0
 29 56  1  0  0  0  0
 30 57  1  0  0  0  0
M  END
> <PUBCHEM_COMPOUND_CID>
26763478

> <PUBCHEM_CONFORMER_RMSD>
1.2

> <PUBCHEM_CONFORMER_DIVERSEORDER>
1
6
9
17
20
18
3
11
8
10
15
7
21
16
2
12
13
19
4
14
5

> <PUBCHEM_MMFF94_PARTIAL_CHARGES>
39
1 -0.08
10 -0.73
11 -0.8
12 0.36
13 0.28
16 0.3
17 0.57
18 0.57
19 0.36
2 -0.56
20 0.34
21 0.42
22 0.18
23 0.57
24 -0.29
25 -0.14
26 0.34
27 -0.15
28 -0.3
29 -0.15
3 -0.57
30 -0.11
31 0.66
4 -0.57
40 0.37
48 0.15
49 0.15
5 -0.56
52 0.37
53 0.37
54 0.15
55 0.15
56 0.15
57 0.15
58 0.5
6 -0.57
7 -0.65
8 -0.57
9 -0.66

> <PUBCHEM_EFFECTIVE_ROTOR_COUNT>
15.2

> <PUBCHEM_PHARMACOPHORE_FEATURES>
13
1 10 donor
1 11 donor
1 2 acceptor
1 28 hydrophobe
1 3 acceptor
1 4 acceptor
1 5 acceptor
1 6 acceptor
1 7 acceptor
1 8 acceptor
3 7 8 31 anion
5 1 25 27 29 30 rings
6 9 12 13 14 15 16 rings

> <PUBCHEM_HEAVY_ATOM_COUNT>
31

> <PUBCHEM_ATOM_DEF_STEREO_COUNT>
3

> <PUBCHEM_ATOM_UDEF_STEREO_COUNT>
0

> <PUBCHEM_BOND_DEF_STEREO_COUNT>
0

> <PUBCHEM_BOND_UDEF_STEREO_COUNT>
0

> <PUBCHEM_ISOTOPIC_ATOM_COUNT>
0

> <PUBCHEM_COMPONENT_COUNT>
1

> <PUBCHEM_CACTVS_TAUTO_COUNT>
4

> <PUBCHEM_CONFORMER_ID>
019860D600000001

> <PUBCHEM_MMFF94_ENERGY>
59.31

> <PUBCHEM_FEATURE_SELFOVERLAP>
66.056

> <PUBCHEM_SHAPE_FINGERPRINT>
12293681 4 18113913645177118955
12788726 201 18114742625272758227
13140716 1 18337390572848716667
14178342 30 15744703216827257114
14363568 33 18336834194432154417
15420108 30 18127967714435324215
19591789 44 18410574007133112052
20642791 35 18339928238002283802
20764821 26 18338781395318220836
21641784 216 17969522432284537806
3380486 145 17977689527314688856
350125 39 18409452470512018097
469060 322 16515976856394429671
484989 97 18337397046070546950
513532 50 17987254372728610589
59755656 215 18335138708725962376

> <PUBCHEM_SHAPE_MULTIPOLES>
585.79
11.19
5.62
1.35
6.57
2.37
0.04
-3.48
-0.67
-0.78
0.14
0.13
0.42
1.23

> <PUBCHEM_SHAPE_SELFOVERLAP>
1186.808

> <PUBCHEM_SHAPE_VOLUME>
339.5

> <PUBCHEM_COORDINATE_TYPE>
2
5
10

$$$$
