11866332
  -OEChem-12032416153D

 49 51  0     1  0  0  0  0  0999 V2000
    1.1637    1.1139   -2.0810 O   0  0  0  0  0  0  0  0  0  0  0  0
   -0.0210    3.8325    0.0611 O   0  0  0  0  0  0  0  0  0  0  0  0
   -2.1017   -0.4004    2.0729 O   0  0  0  0  0  0  0  0  0  0  0  0
   -4.1081   -1.9332   -1.7409 O   0  0  0  0  0  0  0  0  0  0  0  0
    4.2394    1.6687    0.8014 O   0  0  0  0  0  0  0  0  0  0  0  0
   -3.1959   -0.0722    0.0409 N   0  0  0  0  0  0  0  0  0  0  0  0
    2.5092    0.2556    0.1789 N   0  0  0  0  0  0  0  0  0  0  0  0
   -6.2586   -1.6529   -1.0238 N   0  0  0  0  0  0  0  0  0  0  0  0
    7.0534   -1.1684   -0.3348 N   0  0  0  0  0  0  0  0  0  0  0  0
    1.2097    2.0120   -0.9701 C   0  0  1  0  0  0  0  0  0  0  0  0
   -0.1056    2.7991   -0.9181 C   0  0  1  0  0  0  0  0  0  0  0  0
    1.4439    1.2167    0.3284 C   0  0  1  0  0  0  0  0  0  0  0  0
   -1.3123    1.8912   -0.6243 C   0  0  0  0  0  0  0  0  0  0  0  0
   -1.0164    0.8124    0.3785 C   0  0  0  0  0  0  0  0  0  0  0  0
    0.2125    0.5054    0.8205 C   0  0  0  0  0  0  0  0  0  0  0  0
   -4.4115   -0.7767    0.3560 C   0  0  1  0  0  0  0  0  0  0  0  0
   -5.4327    0.1595    0.9874 C   0  0  0  0  0  0  0  0  0  0  0  0
   -6.7593   -0.5655    1.1463 C   0  0  0  0  0  0  0  0  0  0  0  0
   -2.1433    0.0548    0.9303 C   0  0  0  0  0  0  0  0  0  0  0  0
   -7.2646   -0.9805   -0.2226 C   0  0  0  0  0  0  0  0  0  0  0  0
   -4.8952   -1.4697   -0.9131 C   0  0  0  0  0  0  0  0  0  0  0  0
    3.8367    0.5687    0.4322 C   0  0  0  0  0  0  0  0  0  0  0  0
    4.8168   -0.5245    0.2058 C   0  0  0  0  0  0  0  0  0  0  0  0
    4.4189   -1.8343    0.3206 C   0  0  0  0  0  0  0  0  0  0  0  0
    6.1125   -0.2226   -0.1162 C   0  0  0  0  0  0  0  0  0  0  0  0
    5.3586   -2.8359    0.1030 C   0  0  0  0  0  0  0  0  0  0  0  0
    6.6509   -2.4538   -0.2193 C   0  0  0  0  0  0  0  0  0  0  0  0
    2.0584    2.6882   -1.1299 H   0  0  0  0  0  0  0  0  0  0  0  0
   -0.2848    3.2916   -1.8818 H   0  0  0  0  0  0  0  0  0  0  0  0
    1.7356    1.9220    1.1179 H   0  0  0  0  0  0  0  0  0  0  0  0
   -2.1493    2.5077   -0.2743 H   0  0  0  0  0  0  0  0  0  0  0  0
   -1.6003    1.4216   -1.5728 H   0  0  0  0  0  0  0  0  0  0  0  0
    0.3578   -0.2699    1.5695 H   0  0  0  0  0  0  0  0  0  0  0  0
   -4.1745   -1.5760    1.0705 H   0  0  0  0  0  0  0  0  0  0  0  0
   -5.5702    1.0551    0.3675 H   0  0  0  0  0  0  0  0  0  0  0  0
   -5.0762    0.5048    1.9651 H   0  0  0  0  0  0  0  0  0  0  0  0
   -7.4938    0.0819    1.6372 H   0  0  0  0  0  0  0  0  0  0  0  0
   -6.6254   -1.4492    1.7820 H   0  0  0  0  0  0  0  0  0  0  0  0
   -3.1387    0.3264   -0.8893 H   0  0  0  0  0  0  0  0  0  0  0  0
    2.2642   -0.6456   -0.2187 H   0  0  0  0  0  0  0  0  0  0  0  0
   -8.1234   -1.6531   -0.1325 H   0  0  0  0  0  0  0  0  0  0  0  0
   -7.5852   -0.1022   -0.7938 H   0  0  0  0  0  0  0  0  0  0  0  0
   -6.5880   -2.1643   -1.8367 H   0  0  0  0  0  0  0  0  0  0  0  0
    1.0436    1.6485   -2.8844 H   0  0  0  0  0  0  0  0  0  0  0  0
    0.7388    4.3935   -0.1701 H   0  0  0  0  0  0  0  0  0  0  0  0
    3.4143   -2.1303    0.6033 H   0  0  0  0  0  0  0  0  0  0  0  0
    6.4674    0.7971   -0.2214 H   0  0  0  0  0  0  0  0  0  0  0  0
    5.0903   -3.8825    0.1902 H   0  0  0  0  0  0  0  0  0  0  0  0
    7.4216   -3.1966   -0.3969 H   0  0  0  0  0  0  0  0  0  0  0  0
  1 10  1  0  0  0  0
  1 44  1  0  0  0  0
  2 11  1  0  0  0  0
  2 45  1  0  0  0  0
  3 19  2  0  0  0  0
  4 21  2  0  0  0  0
  5 22  2  0  0  0  0
  6 16  1  0  0  0  0
  6 19  1  0  0  0  0
  6 39  1  0  0  0  0
  7 12  1  0  0  0  0
  7 22  1  0  0  0  0
  7 40  1  0  0  0  0
  8 20  1  0  0  0  0
  8 21  1  0  0  0  0
  8 43  1  0  0  0  0
  9 25  1  0  0  0  0
  9 27  2  0  0  0  0
 10 11  1  0  0  0  0
 10 12  1  0  0  0  0
 10 28  1  0  0  0  0
 11 13  1  0  0  0  0
 11 29  1  0  0  0  0
 12 15  1  0  0  0  0
 12 30  1  0  0  0  0
 13 14  1  0  0  0  0
 13 31  1  0  0  0  0
 13 32  1  0  0  0  0
 14 15  2  0  0  0  0
 14 19  1  0  0  0  0
 15 33  1  0  0  0  0
 16 17  1  0  0  0  0
 16 21  1  0  0  0  0
 16 34  1  0  0  0  0
 17 18  1  0  0  0  0
 17 35  1  0  0  0  0
 17 36  1  0  0  0  0
 18 20  1  0  0  0  0
 18 37  1  0  0  0  0
 18 38  1  0  0  0  0
 20 41  1  0  0  0  0
 20 42  1  0  0  0  0
 22 23  1  0  0  0  0
 23 24  1  0  0  0  0
 23 25  2  0  0  0  0
 24 26  2  0  0  0  0
 24 46  1  0  0  0  0
 25 47  1  0  0  0  0
 26 27  1  0  0  0  0
 26 48  1  0  0  0  0
 27 49  1  0  0  0  0
M  END
> <PUBCHEM_COMPOUND_CID>
11866332

> <PUBCHEM_CONFORMER_RMSD>
0.8

> <PUBCHEM_CONFORMER_DIVERSEORDER>
2
212
6
181
171
152
75
210
110
61
90
34
99
204
62
178
219
81
14
120
141
91
205
49
180
82
156
38
85
59
30
92
67
86
215
128
153
111
169
123
138
187
68
115
220
177
46
80
36
88
12
29
149
151
131
25
15
7
214
18
161
54
103
207
47
134
108
162
101
31
37
209
199
98
1
208
9
172
163
196
64
69
186
158
28
42
195
24
122
106
133
55
57
73
20
183
168
52
124
184
51
33
135
194
70
32
165
87
26
40
190
139
4
164
66
217
102
100
117
213
39
8
72
216
200
48
126
10
218
170
203
160
119
16
146
95
201
130
154
185
13
56
197
193
202
114
3
125
145
79
143
96
188
189
60
27
144
63
94
211
136
150
23
21
140
45
93
191
167
5
198
97
155
179
166
77
22
159
182
89
206
11
71
41
174
129
109
147
121
17
44
43
175
127
53
142
104
173
116
132
157
148
137
19
50
83
84
107
58
35
112
74
176
65
192
105
113
76
78
118

> <PUBCHEM_MMFF94_PARTIAL_CHARGES>
35
1 -0.68
10 0.28
11 0.28
12 0.44
13 0.14
14 -0.12
15 -0.29
16 0.36
19 0.62
2 -0.68
20 0.3
21 0.57
22 0.54
23 0.09
24 -0.15
25 0.16
26 -0.15
27 0.16
3 -0.57
33 0.15
39 0.37
4 -0.57
40 0.37
43 0.37
44 0.4
45 0.4
46 0.15
47 0.15
48 0.15
49 0.15
5 -0.57
6 -0.73
7 -0.73
8 -0.73
9 -0.62

> <PUBCHEM_EFFECTIVE_ROTOR_COUNT>
7.8

> <PUBCHEM_PHARMACOPHORE_FEATURES>
14
1 1 acceptor
1 1 donor
1 2 acceptor
1 2 donor
1 3 acceptor
1 4 acceptor
1 5 acceptor
1 6 donor
1 7 donor
1 8 donor
1 9 acceptor
6 10 11 12 13 14 15 rings
6 8 16 17 18 20 21 rings
6 9 23 24 25 26 27 rings

> <PUBCHEM_HEAVY_ATOM_COUNT>
27

> <PUBCHEM_ATOM_DEF_STEREO_COUNT>
4

> <PUBCHEM_ATOM_UDEF_STEREO_COUNT>
0

> <PUBCHEM_BOND_DEF_STEREO_COUNT>
0

> <PUBCHEM_BOND_UDEF_STEREO_COUNT>
0

> <PUBCHEM_ISOTOPIC_ATOM_COUNT>
0

> <PUBCHEM_COMPONENT_COUNT>
1

> <PUBCHEM_CACTVS_TAUTO_COUNT>
8

> <PUBCHEM_CONFORMER_ID>
00B510DC00000002

> <PUBCHEM_MMFF94_ENERGY>
59.065

> <PUBCHEM_FEATURE_SELFOVERLAP>
71.057

> <PUBCHEM_SHAPE_FINGERPRINT>
10 15 14692566637341243394
10299344 5 18202567280276925986
11331351 85 18411704279443788885
11524674 6 16056876936200667871
11823591 26 9871467586679092076
11991303 11 17536303744119151213
12166972 35 18342459265765616337
12236239 1 18201440320161553121
12422481 6 17704354346632198654
12516196 113 18408885139902886720
12592606 108 18411416237883699039
12596602 18 17275101743658949434
12623949 98 18201447922317484174
12760667 363 18335144163255216241
12895836 83 13118006616642519721
13533116 47 18342739654321212432
13668630 136 18113899403429243619
13673619 4 18343302535908461304
13685833 64 18334861618873957346
13782708 43 18341890749887675594
14068700 675 18131071532338287065
14216079 64 18409166588904208091
14347332 77 18263075518783471922
14508225 48 17821731628377160220
14556957 393 17241064101931001356
14565420 104 17558253587566941880
14840074 17 18413107247073471270
14931854 50 17240482468643261234
15183329 4 15791728594396417189
15198563 99 17458903730371211213
15927050 60 17685493152586973049
16994733 274 11963384155042702023
17913733 40 12391519676030290885
18222031 100 18335134315164472280
19784866 240 18410296925865338009
20028762 73 18060418006603088966
20715895 44 8934993785812714158
21267235 1 18187090555142226473
21307412 95 18040444282229793723
21365058 113 17168151173962514541
21403212 168 11312056517621366498
21641784 216 16153980257909371437
21792961 116 15791732975532221352
22224240 67 11600005449261980649
23522609 53 18125473914732115784
23536364 44 17677036967930065341
23559900 14 17749957798295926441
23569943 247 18337107844137513683
3004659 81 17530967999083403016
3014063 24 18343016696506681358
3472631 163 8718822094214331424
4339292 15 18261675858374040030
4340502 62 14764635208898855013
437815 12 18259706700844425721
444735 86 18115020785036214026
445580 204 11314027972177372782
46194498 28 17168422774234138709
463206 1 18335984263090646602
465052 167 18131351891409224038
5081480 168 16226322732965094015
513202 73 18337387132674234791
559249 180 18130787859271951275
5718773 13 18263922151622901194
59682541 35 11815894592215390127
5969126 39 18334856074187476068
59755656 215 17895193277156851338
77188 2 18410575102134274208

> <PUBCHEM_SHAPE_MULTIPOLES>
506.38
19.25
2.99
1.29
2.43
1.36
0.16
-17.79
0.17
-2.41
0.82
1.36
-0.02
-0.63

> <PUBCHEM_SHAPE_SELFOVERLAP>
1075.235

> <PUBCHEM_SHAPE_VOLUME>
276.8

> <PUBCHEM_COORDINATE_TYPE>
2
5
10

$$$$
