38026421
  -OEChem-12032416143D

 59 60  0     1  0  0  0  0  0999 V2000
    0.4809   -3.2566    1.7749 O   0  0  0  0  0  0  0  0  0  0  0  0
   -6.3265    1.0648   -0.1148 O   0  0  0  0  0  0  0  0  0  0  0  0
   -5.8299   -1.0854   -0.6722 O   0  0  0  0  0  0  0  0  0  0  0  0
    5.4121   -0.3625   -0.7725 O   0  0  0  0  0  0  0  0  0  0  0  0
   -0.6679   -2.1569    0.0589 N   0  0  0  0  0  0  0  0  0  0  0  0
    0.5168    2.7660    0.4181 N   0  0  0  0  0  0  0  0  0  0  0  0
   -1.6447   -0.0753   -0.8838 C   0  0  2  0  0  0  0  0  0  0  0  0
   -3.0482   -0.6015   -0.4886 C   0  0  1  0  0  0  0  0  0  0  0  0
   -2.9736   -1.5731    0.7014 C   0  0  0  0  0  0  0  0  0  0  0  0
   -0.6839   -1.2583   -1.1040 C   0  0  0  0  0  0  0  0  0  0  0  0
   -1.0460    0.9169    0.1211 C   0  0  0  0  0  0  0  0  0  0  0  0
   -1.9732   -2.6950    0.4371 C   0  0  0  0  0  0  0  0  0  0  0  0
   -4.0522    0.5167   -0.2090 C   0  0  0  0  0  0  0  0  0  0  0  0
   -0.0504    1.8451   -0.5598 C   0  0  0  0  0  0  0  0  0  0  0  0
    0.4638   -2.5096    0.7980 C   0  0  0  0  0  0  0  0  0  0  0  0
   -5.4702    0.0414   -0.3664 C   0  0  0  0  0  0  0  0  0  0  0  0
   -0.4068    3.8707    0.6822 C   0  0  0  0  0  0  0  0  0  0  0  0
    1.8056    3.2821   -0.0468 C   0  0  0  0  0  0  0  0  0  0  0  0
    1.7567   -1.9497    0.3891 C   0  0  0  0  0  0  0  0  0  0  0  0
    0.1429    4.8029    1.7485 C   0  0  0  0  0  0  0  0  0  0  0  0
    1.6463    4.0835   -1.3276 C   0  0  0  0  0  0  0  0  0  0  0  0
    2.1913   -0.7362    0.9225 C   0  0  0  0  0  0  0  0  0  0  0  0
    2.5506   -2.6296   -0.5346 C   0  0  0  0  0  0  0  0  0  0  0  0
    3.4194   -0.2027    0.5322 C   0  0  0  0  0  0  0  0  0  0  0  0
    3.7788   -2.0961   -0.9249 C   0  0  0  0  0  0  0  0  0  0  0  0
    4.2131   -0.8827   -0.3916 C   0  0  0  0  0  0  0  0  0  0  0  0
    5.7951    0.8812   -0.1874 C   0  0  0  0  0  0  0  0  0  0  0  0
   -1.7619    0.4396   -1.8476 H   0  0  0  0  0  0  0  0  0  0  0  0
   -3.4072   -1.1794   -1.3532 H   0  0  0  0  0  0  0  0  0  0  0  0
   -3.9537   -2.0145    0.9116 H   0  0  0  0  0  0  0  0  0  0  0  0
   -2.6703   -1.0284    1.6047 H   0  0  0  0  0  0  0  0  0  0  0  0
   -1.0307   -1.8585   -1.9549 H   0  0  0  0  0  0  0  0  0  0  0  0
    0.3166   -0.9113   -1.3654 H   0  0  0  0  0  0  0  0  0  0  0  0
   -0.5847    0.3964    0.9666 H   0  0  0  0  0  0  0  0  0  0  0  0
   -1.8469    1.5214    0.5515 H   0  0  0  0  0  0  0  0  0  0  0  0
   -1.8892   -3.3312    1.3240 H   0  0  0  0  0  0  0  0  0  0  0  0
   -2.3180   -3.3291   -0.3882 H   0  0  0  0  0  0  0  0  0  0  0  0
   -3.9388    0.9074    0.8082 H   0  0  0  0  0  0  0  0  0  0  0  0
   -3.9070    1.3335   -0.9258 H   0  0  0  0  0  0  0  0  0  0  0  0
   -0.5405    2.3721   -1.3885 H   0  0  0  0  0  0  0  0  0  0  0  0
    0.7426    1.2309   -1.0014 H   0  0  0  0  0  0  0  0  0  0  0  0
   -0.6961    4.4358   -0.2111 H   0  0  0  0  0  0  0  0  0  0  0  0
   -1.3420    3.4738    1.0924 H   0  0  0  0  0  0  0  0  0  0  0  0
    2.3147    3.8734    0.7214 H   0  0  0  0  0  0  0  0  0  0  0  0
    2.4863    2.4462   -0.2409 H   0  0  0  0  0  0  0  0  0  0  0  0
   -0.6517    5.4742    2.0934 H   0  0  0  0  0  0  0  0  0  0  0  0
    0.9504    5.4399    1.3752 H   0  0  0  0  0  0  0  0  0  0  0  0
    0.5030    4.2503    2.6232 H   0  0  0  0  0  0  0  0  0  0  0  0
    2.6432    4.3708   -1.6837 H   0  0  0  0  0  0  0  0  0  0  0  0
    1.0990    5.0198   -1.1877 H   0  0  0  0  0  0  0  0  0  0  0  0
    1.1867    3.5196   -2.1440 H   0  0  0  0  0  0  0  0  0  0  0  0
   -7.2632    0.7890   -0.2084 H   0  0  0  0  0  0  0  0  0  0  0  0
    1.5894   -0.2046    1.6543 H   0  0  0  0  0  0  0  0  0  0  0  0
    2.2211   -3.5754   -0.9570 H   0  0  0  0  0  0  0  0  0  0  0  0
    3.7019    0.7365    0.9947 H   0  0  0  0  0  0  0  0  0  0  0  0
    4.3927   -2.6302   -1.6450 H   0  0  0  0  0  0  0  0  0  0  0  0
    6.7723    1.1470   -0.6039 H   0  0  0  0  0  0  0  0  0  0  0  0
    5.9229    0.7936    0.8968 H   0  0  0  0  0  0  0  0  0  0  0  0
    5.1023    1.6846   -0.4602 H   0  0  0  0  0  0  0  0  0  0  0  0
  1 15  2  0  0  0  0
  2 16  1  0  0  0  0
  2 52  1  0  0  0  0
  3 16  2  0  0  0  0
  4 26  1  0  0  0  0
  4 27  1  0  0  0  0
  5 10  1  0  0  0  0
  5 12  1  0  0  0  0
  5 15  1  0  0  0  0
  6 14  1  0  0  0  0
  6 17  1  0  0  0  0
  6 18  1  0  0  0  0
  7  8  1  0  0  0  0
  7 10  1  0  0  0  0
  7 11  1  0  0  0  0
  7 28  1  0  0  0  0
  8  9  1  0  0  0  0
  8 13  1  0  0  0  0
  8 29  1  0  0  0  0
  9 12  1  0  0  0  0
  9 30  1  0  0  0  0
  9 31  1  0  0  0  0
 10 32  1  0  0  0  0
 10 33  1  0  0  0  0
 11 14  1  0  0  0  0
 11 34  1  0  0  0  0
 11 35  1  0  0  0  0
 12 36  1  0  0  0  0
 12 37  1  0  0  0  0
 13 16  1  0  0  0  0
 13 38  1  0  0  0  0
 13 39  1  0  0  0  0
 14 40  1  0  0  0  0
 14 41  1  0  0  0  0
 15 19  1  0  0  0  0
 17 20  1  0  0  0  0
 17 42  1  0  0  0  0
 17 43  1  0  0  0  0
 18 21  1  0  0  0  0
 18 44  1  0  0  0  0
 18 45  1  0  0  0  0
 19 22  2  0  0  0  0
 19 23  1  0  0  0  0
 20 46  1  0  0  0  0
 20 47  1  0  0  0  0
 20 48  1  0  0  0  0
 21 49  1  0  0  0  0
 21 50  1  0  0  0  0
 21 51  1  0  0  0  0
 22 24  1  0  0  0  0
 22 53  1  0  0  0  0
 23 25  2  0  0  0  0
 23 54  1  0  0  0  0
 24 26  2  0  0  0  0
 24 55  1  0  0  0  0
 25 26  1  0  0  0  0
 25 56  1  0  0  0  0
 27 57  1  0  0  0  0
 27 58  1  0  0  0  0
 27 59  1  0  0  0  0
M  END
> <PUBCHEM_COMPOUND_CID>
38026421

> <PUBCHEM_CONFORMER_RMSD>
1

> <PUBCHEM_CONFORMER_DIVERSEORDER>
1
122
86
60
84
132
104
107
70
54
137
94
2
72
118
67
98
88
146
19
120
79
37
119
77
46
65
115
144
17
129
106
42
127
27
149
109
105
55
4
81
87
57
28
75
32
141
91
38
23
15
113
26
73
6
59
131
89
74
121
69
21
142
16
123
66
135
13
145
49
101
80
82
10
31
56
136
140
103
39
34
130
139
116
36
53
124
95
90
30
33
43
14
138
143
78
22
24
100
63
29
51
96
5
25
45
126
61
147
44
85
58
83
110
134
99
8
148
111
114
40
68
50
18
117
52
41
20
97
48
62
7
133
9
47
108
64
71
112
125
128
35
93
11
102
3
12
92
76

> <PUBCHEM_MMFF94_PARTIAL_CHARGES>
26
1 -0.57
10 0.3
12 0.3
13 0.06
14 0.27
15 0.54
16 0.66
17 0.27
18 0.27
19 0.09
2 -0.65
22 -0.15
23 -0.15
24 -0.15
25 -0.15
26 0.08
27 0.28
3 -0.57
4 -0.36
5 -0.66
52 0.5
53 0.15
54 0.15
55 0.15
56 0.15
6 -0.81

> <PUBCHEM_EFFECTIVE_ROTOR_COUNT>
11.2

> <PUBCHEM_PHARMACOPHORE_FEATURES>
8
1 1 acceptor
1 2 acceptor
1 3 acceptor
1 4 acceptor
1 6 cation
3 2 3 16 anion
6 19 22 23 24 25 26 rings
6 5 7 8 9 10 12 rings

> <PUBCHEM_HEAVY_ATOM_COUNT>
27

> <PUBCHEM_ATOM_DEF_STEREO_COUNT>
2

> <PUBCHEM_ATOM_UDEF_STEREO_COUNT>
0

> <PUBCHEM_BOND_DEF_STEREO_COUNT>
0

> <PUBCHEM_BOND_UDEF_STEREO_COUNT>
0

> <PUBCHEM_ISOTOPIC_ATOM_COUNT>
0

> <PUBCHEM_COMPONENT_COUNT>
1

> <PUBCHEM_CACTVS_TAUTO_COUNT>
1

> <PUBCHEM_CONFORMER_ID>
02443CB500000001

> <PUBCHEM_MMFF94_ENERGY>
70.6874

> <PUBCHEM_FEATURE_SELFOVERLAP>
40.654

> <PUBCHEM_SHAPE_FINGERPRINT>
10006869 2 18194391200249050875
10498660 4 18192148205265755846
10871710 139 18195537990755612376
1100329 8 18336827592856215923
11049842 53 17902230353375394077
11112241 14 17200214143972038552
11578080 2 12903273126021265014
11646440 116 18410864256258205099
12553582 1 18339625785682697444
12788726 201 18267018362663521976
13140716 1 18191292973986865107
13402501 40 18336545014547637778
13899415 154 18410300185771915391
14020679 6 17822019722303961003
14787075 74 18261109656212133663
14790565 3 18336551512506635333
14849402 71 18410301320187159297
14955137 171 18343587335026387199
15081414 286 18411427176278873219
15210252 30 18334014990968539100
15230672 131 17544190937059542552
15927050 60 17980480388278262461
17492 54 18115322167254445516
18681886 176 18130495414764345295
18785283 64 18188493596419680109
20567600 299 18054787557743368248
20642791 178 17969513777740936532
20642791 35 18412260670759920992
21285901 2 17845659127469297702
221357 26 18200597978291157430
23352939 185 18202004300189759354
23558518 356 17616532852855887019
23559900 14 18341323509330347987
24771293 8 18200858664919059448
3178227 256 18334305270928692539
3298306 158 17979080710124218908
3680242 22 18259979349768741194
469060 322 18263928726642513504
5265222 85 16892594017941535324
53794403 172 18116716416137687069
6004065 56 18270389628522884207
6443956 14 18411416223996496661
70251023 43 17978513027243970539

> <PUBCHEM_SHAPE_MULTIPOLES>
522.21
10.26
5.48
1.19
6.02
6.9
-0.21
-2.19
2.71
-2.29
-1.67
-0.26
0.3
-0.04

> <PUBCHEM_SHAPE_SELFOVERLAP>
1066.635

> <PUBCHEM_SHAPE_VOLUME>
301.9

> <PUBCHEM_COORDINATE_TYPE>
2
5
10

$$$$
