45360615
  -OEChem-12032416183D

 64 68  0     1  0  0  0  0  0999 V2000
   -5.1160   -4.1503    0.2682 Cl  0  0  0  0  0  0  0  0  0  0  0  0
    1.7645    2.3819   -0.7690 S   0  0  0  0  0  0  0  0  0  0  0  0
    2.3799    2.3322   -2.0776 O   0  0  0  0  0  0  0  0  0  0  0  0
    2.0403    3.4695    0.1445 O   0  0  0  0  0  0  0  0  0  0  0  0
    5.6306    0.6193    0.6322 O   0  0  0  0  0  0  0  0  0  0  0  0
    4.3680    0.5795   -1.3019 O   0  0  0  0  0  0  0  0  0  0  0  0
    2.0439    0.8957    0.0362 N   0  0  2  0  0  0  0  0  0  0  0  0
    1.4593   -2.7970   -0.0774 N   0  0  0  0  0  0  0  0  0  0  0  0
    2.6441   -2.8145    1.8167 N   0  0  0  0  0  0  0  0  0  0  0  0
   -4.5883    2.3300    0.6716 N   0  0  0  0  0  0  0  0  0  0  0  0
    3.3110    0.7959    0.8471 C   0  0  1  0  0  0  0  0  0  0  0  0
    1.6427   -0.3396   -0.7324 C   0  0  0  0  0  0  0  0  0  0  0  0
    3.2469   -0.3552    1.8743 C   0  0  0  0  0  0  0  0  0  0  0  0
    1.8834   -1.5176    0.1228 C   0  0  0  0  0  0  0  0  0  0  0  0
    2.6107   -1.5550    1.2867 C   0  0  0  0  0  0  0  0  0  0  0  0
    0.0157    2.2880   -0.9900 C   0  0  0  0  0  0  0  0  0  0  0  0
    4.4715    0.6528   -0.0849 C   0  0  0  0  0  0  0  0  0  0  0  0
    0.6643   -3.2920   -1.1748 C   0  0  0  0  0  0  0  0  0  0  0  0
    1.9419   -3.5409    0.9701 C   0  0  0  0  0  0  0  0  0  0  0  0
   -0.8927    2.3904    0.0761 C   0  0  0  0  0  0  0  0  0  0  0  0
   -0.4379    2.1047   -2.2966 C   0  0  0  0  0  0  0  0  0  0  0  0
   -2.2808    2.3054   -0.1868 C   0  0  0  0  0  0  0  0  0  0  0  0
   -0.7846   -3.5070   -0.8140 C   0  0  0  0  0  0  0  0  0  0  0  0
   -0.4541    2.5750    1.3974 C   0  0  0  0  0  0  0  0  0  0  0  0
   -3.1892    2.4077    0.8793 C   0  0  0  0  0  0  0  0  0  0  0  0
   -1.8029    2.0212   -2.5551 C   0  0  0  0  0  0  0  0  0  0  0  0
   -2.7196    2.1209   -1.5081 C   0  0  0  0  0  0  0  0  0  0  0  0
   -1.3707    2.6745    2.4445 C   0  0  0  0  0  0  0  0  0  0  0  0
   -2.7357    2.5911    2.1859 C   0  0  0  0  0  0  0  0  0  0  0  0
   -1.1622   -4.6372   -0.0888 C   0  0  0  0  0  0  0  0  0  0  0  0
   -1.7468   -2.5759   -1.2053 C   0  0  0  0  0  0  0  0  0  0  0  0
    6.8278    0.4846   -0.1401 C   0  0  0  0  0  0  0  0  0  0  0  0
   -2.5017   -4.8365    0.2449 C   0  0  0  0  0  0  0  0  0  0  0  0
   -3.0864   -2.7752   -0.8716 C   0  0  0  0  0  0  0  0  0  0  0  0
   -5.3525    3.5290    0.4069 C   0  0  0  0  0  0  0  0  0  0  0  0
   -5.2606    1.0501    0.7155 C   0  0  0  0  0  0  0  0  0  0  0  0
   -3.4638   -3.9055   -0.1466 C   0  0  0  0  0  0  0  0  0  0  0  0
    3.4478    1.7333    1.3999 H   0  0  0  0  0  0  0  0  0  0  0  0
    0.5742   -0.2927   -0.9580 H   0  0  0  0  0  0  0  0  0  0  0  0
    2.1944   -0.4215   -1.6723 H   0  0  0  0  0  0  0  0  0  0  0  0
    4.2344   -0.6089    2.2736 H   0  0  0  0  0  0  0  0  0  0  0  0
    2.6295   -0.0334    2.7228 H   0  0  0  0  0  0  0  0  0  0  0  0
    0.7606   -2.6012   -2.0202 H   0  0  0  0  0  0  0  0  0  0  0  0
    1.1112   -4.2380   -1.5060 H   0  0  0  0  0  0  0  0  0  0  0  0
    1.7610   -4.6031    1.0611 H   0  0  0  0  0  0  0  0  0  0  0  0
    0.2409    2.0182   -3.1394 H   0  0  0  0  0  0  0  0  0  0  0  0
    0.5872    2.6094    1.6904 H   0  0  0  0  0  0  0  0  0  0  0  0
   -2.1555    1.8773   -3.5723 H   0  0  0  0  0  0  0  0  0  0  0  0
   -3.7754    2.0516   -1.7576 H   0  0  0  0  0  0  0  0  0  0  0  0
   -1.0189    2.8078    3.4635 H   0  0  0  0  0  0  0  0  0  0  0  0
   -3.4383    2.6682    3.0120 H   0  0  0  0  0  0  0  0  0  0  0  0
   -0.4271   -5.3773    0.2146 H   0  0  0  0  0  0  0  0  0  0  0  0
   -1.4668   -1.6903   -1.7694 H   0  0  0  0  0  0  0  0  0  0  0  0
    7.6770    0.4720    0.5483 H   0  0  0  0  0  0  0  0  0  0  0  0
    6.9382    1.3356   -0.8189 H   0  0  0  0  0  0  0  0  0  0  0  0
    6.8139   -0.4564   -0.6983 H   0  0  0  0  0  0  0  0  0  0  0  0
   -2.7816   -5.7227    0.8087 H   0  0  0  0  0  0  0  0  0  0  0  0
   -3.8248   -2.0403   -1.1818 H   0  0  0  0  0  0  0  0  0  0  0  0
   -4.8365    4.1785   -0.3088 H   0  0  0  0  0  0  0  0  0  0  0  0
   -5.5063    4.0922    1.3332 H   0  0  0  0  0  0  0  0  0  0  0  0
   -6.3361    3.2983   -0.0158 H   0  0  0  0  0  0  0  0  0  0  0  0
   -6.3499    1.1627    0.7228 H   0  0  0  0  0  0  0  0  0  0  0  0
   -4.9859    0.4966    1.6203 H   0  0  0  0  0  0  0  0  0  0  0  0
   -4.9926    0.4413   -0.1541 H   0  0  0  0  0  0  0  0  0  0  0  0
  1 37  1  0  0  0  0
  2  3  2  0  0  0  0
  2  4  2  0  0  0  0
  2  7  1  0  0  0  0
  2 16  1  0  0  0  0
  5 17  1  0  0  0  0
  5 32  1  0  0  0  0
  6 17  2  0  0  0  0
  7 11  1  0  0  0  0
  7 12  1  0  0  0  0
  8 14  1  0  0  0  0
  8 18  1  0  0  0  0
  8 19  1  0  0  0  0
  9 15  1  0  0  0  0
  9 19  2  0  0  0  0
 10 25  1  0  0  0  0
 10 35  1  0  0  0  0
 10 36  1  0  0  0  0
 11 13  1  0  0  0  0
 11 17  1  0  0  0  0
 11 38  1  0  0  0  0
 12 14  1  0  0  0  0
 12 39  1  0  0  0  0
 12 40  1  0  0  0  0
 13 15  1  0  0  0  0
 13 41  1  0  0  0  0
 13 42  1  0  0  0  0
 14 15  2  0  0  0  0
 16 20  1  0  0  0  0
 16 21  2  0  0  0  0
 18 23  1  0  0  0  0
 18 43  1  0  0  0  0
 18 44  1  0  0  0  0
 19 45  1  0  0  0  0
 20 22  2  0  0  0  0
 20 24  1  0  0  0  0
 21 26  1  0  0  0  0
 21 46  1  0  0  0  0
 22 25  1  0  0  0  0
 22 27  1  0  0  0  0
 23 30  2  0  0  0  0
 23 31  1  0  0  0  0
 24 28  2  0  0  0  0
 24 47  1  0  0  0  0
 25 29  2  0  0  0  0
 26 27  2  0  0  0  0
 26 48  1  0  0  0  0
 27 49  1  0  0  0  0
 28 29  1  0  0  0  0
 28 50  1  0  0  0  0
 29 51  1  0  0  0  0
 30 33  1  0  0  0  0
 30 52  1  0  0  0  0
 31 34  2  0  0  0  0
 31 53  1  0  0  0  0
 32 54  1  0  0  0  0
 32 55  1  0  0  0  0
 32 56  1  0  0  0  0
 33 37  2  0  0  0  0
 33 57  1  0  0  0  0
 34 37  1  0  0  0  0
 34 58  1  0  0  0  0
 35 59  1  0  0  0  0
 35 60  1  0  0  0  0
 35 61  1  0  0  0  0
 36 62  1  0  0  0  0
 36 63  1  0  0  0  0
 36 64  1  0  0  0  0
M  END
> <PUBCHEM_COMPOUND_CID>
45360615

> <PUBCHEM_CONFORMER_RMSD>
1

> <PUBCHEM_CONFORMER_DIVERSEORDER>
1
63
43
128
23
114
38
118
96
48
61
39
81
28
115
24
108
130
123
129
97
31
111
133
68
83
16
57
7
126
49
50
66
86
80
100
54
13
87
131
58
29
26
110
40
56
84
103
53
20
132
113
21
90
47
78
107
22
12
82
117
37
109
120
64
10
102
32
122
127
124
34
76
27
134
52
93
121
73
51
60
89
30
18
92
35
67
2
11
101
119
59
8
116
106
69
77
33
91
15
3
99
74
135
112
44
72
65
98
42
75
41
70
36
14
46
88
6
17
95
45
125
25
55
104
94
9
5
19
4
79
85
62
71
105

> <PUBCHEM_MMFF94_PARTIAL_CHARGES>
46
1 -0.18
10 -0.84
11 0.42
12 0.54
13 0.18
14 -0.33
15 0.05
16 -0.01
17 0.66
18 0.4
19 0.04
2 1.45
21 -0.15
23 -0.14
24 -0.15
25 0.1
26 -0.15
27 -0.15
28 -0.15
29 -0.15
3 -0.65
30 -0.15
31 -0.15
32 0.28
33 -0.15
34 -0.15
35 0.37
36 0.37
37 0.18
4 -0.65
45 0.15
46 0.15
47 0.15
48 0.15
49 0.15
5 -0.43
50 0.15
51 0.15
52 0.15
53 0.15
57 0.15
58 0.15
6 -0.57
7 -0.85
8 0.05
9 -0.57

> <PUBCHEM_EFFECTIVE_ROTOR_COUNT>
7.8

> <PUBCHEM_PHARMACOPHORE_FEATURES>
10
1 10 cation
1 3 acceptor
1 4 acceptor
1 6 acceptor
3 8 9 19 cation
5 8 9 14 15 19 rings
6 16 20 21 22 26 27 rings
6 20 22 24 25 28 29 rings
6 23 30 31 33 34 37 rings
6 7 11 12 13 14 15 rings

> <PUBCHEM_HEAVY_ATOM_COUNT>
37

> <PUBCHEM_ATOM_DEF_STEREO_COUNT>
1

> <PUBCHEM_ATOM_UDEF_STEREO_COUNT>
0

> <PUBCHEM_BOND_DEF_STEREO_COUNT>
0

> <PUBCHEM_BOND_UDEF_STEREO_COUNT>
0

> <PUBCHEM_ISOTOPIC_ATOM_COUNT>
0

> <PUBCHEM_COMPONENT_COUNT>
1

> <PUBCHEM_CACTVS_TAUTO_COUNT>
1

> <PUBCHEM_CONFORMER_ID>
02B425E700000001

> <PUBCHEM_MMFF94_ENERGY>
116.5753

> <PUBCHEM_FEATURE_SELFOVERLAP>
50.899

> <PUBCHEM_SHAPE_FINGERPRINT>
10049733 16 18340497733137666174
10190108 129 18261124009824220570
11513181 2 18060422378916564159
12156800 1 18124627333595688518
12788726 201 18051425260070592892
1361 2 18267023843753973937
14466204 15 16395204699761450664
15264996 142 18115046189113389282
15297060 5 18060424594581195930
16112460 7 18268982099084149543
19315092 285 15751125605741530407
20764821 26 18195793077785689239
20775530 9 18119793962348250007
21133410 58 18117550727369233509
244849 19 17346332496642241684
469060 322 17749099024227828820
59755656 520 18342177718391509812
6287921 2 17696195807561690867

> <PUBCHEM_SHAPE_MULTIPOLES>
723.76
10.05
7.44
2
4.9
7.38
0.12
-1.47
-1.94
-9.15
-0.38
-0.15
-1.51
-1.93

> <PUBCHEM_SHAPE_SELFOVERLAP>
1563.323

> <PUBCHEM_SHAPE_VOLUME>
400.1

> <PUBCHEM_COORDINATE_TYPE>
2
5
10

$$$$
