45784002
  -OEChem-12032416403D

 62 64  0     1  0  0  0  0  0999 V2000
   -1.6235    1.9849   -0.7760 O   0  0  0  0  0  0  0  0  0  0  0  0
    1.5714   -2.6533    0.7895 N   0  0  0  0  0  0  0  0  0  0  0  0
   -0.6839    2.1753    1.2452 N   0  0  0  0  0  0  0  0  0  0  0  0
   -1.9535    1.6541    1.4117 N   0  0  0  0  0  0  0  0  0  0  0  0
   -2.0517   -2.9626   -1.5209 N   0  0  0  0  0  0  0  0  0  0  0  0
    2.7107   -0.3888   -0.6730 C   0  0  1  0  0  0  0  0  0  0  0  0
    2.7058   -0.4770    0.8709 C   0  0  1  0  0  0  0  0  0  0  0  0
    1.6821    0.6434   -1.1560 C   0  0  0  0  0  0  0  0  0  0  0  0
    1.9019    2.0506   -0.5606 C   0  0  2  0  0  0  0  0  0  0  0  0
    4.1122   -0.0691   -1.2107 C   0  0  0  0  0  0  0  0  0  0  0  0
    2.3122    2.0201    0.9039 C   0  0  0  0  0  0  0  0  0  0  0  0
    2.6565    0.8787    1.5283 C   0  0  0  0  0  0  0  0  0  0  0  0
    1.5409   -1.3289    1.3854 C   0  0  0  0  0  0  0  0  0  0  0  0
    0.6423    2.8897   -0.8096 C   0  0  0  0  0  0  0  0  0  0  0  0
    4.1038   -0.0438   -2.7357 C   0  0  0  0  0  0  0  0  0  0  0  0
    5.1254   -1.0845   -0.6919 C   0  0  0  0  0  0  0  0  0  0  0  0
    2.3806    3.3335    1.6337 C   0  0  0  0  0  0  0  0  0  0  0  0
   -0.5347    2.3524   -0.0468 C   0  0  0  0  0  0  0  0  0  0  0  0
    0.4602   -3.4686    1.2655 C   0  0  0  0  0  0  0  0  0  0  0  0
   -0.8245   -3.1353    0.5549 C   0  0  0  0  0  0  0  0  0  0  0  0
   -2.4646    1.5604    0.2064 C   0  0  0  0  0  0  0  0  0  0  0  0
   -3.7829    1.0704   -0.2151 C   0  0  0  0  0  0  0  0  0  0  0  0
   -1.9429   -2.7051    1.2603 C   0  0  0  0  0  0  0  0  0  0  0  0
   -0.9297   -3.2465   -0.8223 C   0  0  0  0  0  0  0  0  0  0  0  0
   -4.7652    2.2078   -0.5694 C   0  0  0  0  0  0  0  0  0  0  0  0
   -3.1156   -2.4035    0.5768 C   0  0  0  0  0  0  0  0  0  0  0  0
   -6.1151    1.6930   -1.0431 C   0  0  0  0  0  0  0  0  0  0  0  0
   -3.1182   -2.5473   -0.8014 C   0  0  0  0  0  0  0  0  0  0  0  0
    2.4229   -1.3546   -1.1073 H   0  0  0  0  0  0  0  0  0  0  0  0
    3.6093   -0.9695    1.2393 H   0  0  0  0  0  0  0  0  0  0  0  0
    1.6434    0.7043   -2.2489 H   0  0  0  0  0  0  0  0  0  0  0  0
    0.6931    0.2579   -0.8781 H   0  0  0  0  0  0  0  0  0  0  0  0
    2.7233    2.5275   -1.1125 H   0  0  0  0  0  0  0  0  0  0  0  0
    4.4477    0.9178   -0.8701 H   0  0  0  0  0  0  0  0  0  0  0  0
    2.9427    0.9094    2.5775 H   0  0  0  0  0  0  0  0  0  0  0  0
    0.5910   -0.8262    1.1660 H   0  0  0  0  0  0  0  0  0  0  0  0
    1.6099   -1.4104    2.4788 H   0  0  0  0  0  0  0  0  0  0  0  0
    0.4108    2.9006   -1.8822 H   0  0  0  0  0  0  0  0  0  0  0  0
    0.8010    3.9353   -0.5218 H   0  0  0  0  0  0  0  0  0  0  0  0
    3.5680    0.8242   -3.1304 H   0  0  0  0  0  0  0  0  0  0  0  0
    5.1254    0.0279   -3.1264 H   0  0  0  0  0  0  0  0  0  0  0  0
    3.6553   -0.9516   -3.1532 H   0  0  0  0  0  0  0  0  0  0  0  0
    6.0534   -1.0354   -1.2736 H   0  0  0  0  0  0  0  0  0  0  0  0
    5.4194   -0.8858    0.3428 H   0  0  0  0  0  0  0  0  0  0  0  0
    4.7500   -2.1109   -0.7650 H   0  0  0  0  0  0  0  0  0  0  0  0
    2.9861    4.0477    1.0658 H   0  0  0  0  0  0  0  0  0  0  0  0
    2.8460    3.2302    2.6202 H   0  0  0  0  0  0  0  0  0  0  0  0
    1.3885    3.7649    1.7886 H   0  0  0  0  0  0  0  0  0  0  0  0
    2.4495   -3.1078    1.0406 H   0  0  0  0  0  0  0  0  0  0  0  0
    0.6843   -4.5218    1.0531 H   0  0  0  0  0  0  0  0  0  0  0  0
    0.3510   -3.4032    2.3554 H   0  0  0  0  0  0  0  0  0  0  0  0
   -4.2182    0.4640    0.5871 H   0  0  0  0  0  0  0  0  0  0  0  0
   -3.6655    0.4151   -1.0856 H   0  0  0  0  0  0  0  0  0  0  0  0
   -1.9132   -2.5995    2.3411 H   0  0  0  0  0  0  0  0  0  0  0  0
   -0.0940   -3.5805   -1.4296 H   0  0  0  0  0  0  0  0  0  0  0  0
   -4.9114    2.8511    0.3071 H   0  0  0  0  0  0  0  0  0  0  0  0
   -4.3298    2.8396   -1.3535 H   0  0  0  0  0  0  0  0  0  0  0  0
   -4.0000   -2.0690    1.1065 H   0  0  0  0  0  0  0  0  0  0  0  0
   -6.7790    2.5297   -1.2815 H   0  0  0  0  0  0  0  0  0  0  0  0
   -6.0048    1.0781   -1.9419 H   0  0  0  0  0  0  0  0  0  0  0  0
   -6.5949    1.0864   -0.2686 H   0  0  0  0  0  0  0  0  0  0  0  0
   -4.0081   -2.3253   -1.3810 H   0  0  0  0  0  0  0  0  0  0  0  0
  1 18  1  0  0  0  0
  1 21  1  0  0  0  0
  2 13  1  0  0  0  0
  2 19  1  0  0  0  0
  2 49  1  0  0  0  0
  3  4  1  0  0  0  0
  3 18  2  0  0  0  0
  4 21  2  0  0  0  0
  5 24  1  0  0  0  0
  5 28  2  0  0  0  0
  6  7  1  0  0  0  0
  6  8  1  0  0  0  0
  6 10  1  0  0  0  0
  6 29  1  0  0  0  0
  7 12  1  0  0  0  0
  7 13  1  0  0  0  0
  7 30  1  0  0  0  0
  8  9  1  0  0  0  0
  8 31  1  0  0  0  0
  8 32  1  0  0  0  0
  9 11  1  0  0  0  0
  9 14  1  0  0  0  0
  9 33  1  0  0  0  0
 10 15  1  0  0  0  0
 10 16  1  0  0  0  0
 10 34  1  0  0  0  0
 11 12  2  0  0  0  0
 11 17  1  0  0  0  0
 12 35  1  0  0  0  0
 13 36  1  0  0  0  0
 13 37  1  0  0  0  0
 14 18  1  0  0  0  0
 14 38  1  0  0  0  0
 14 39  1  0  0  0  0
 15 40  1  0  0  0  0
 15 41  1  0  0  0  0
 15 42  1  0  0  0  0
 16 43  1  0  0  0  0
 16 44  1  0  0  0  0
 16 45  1  0  0  0  0
 17 46  1  0  0  0  0
 17 47  1  0  0  0  0
 17 48  1  0  0  0  0
 19 20  1  0  0  0  0
 19 50  1  0  0  0  0
 19 51  1  0  0  0  0
 20 23  1  0  0  0  0
 20 24  2  0  0  0  0
 21 22  1  0  0  0  0
 22 25  1  0  0  0  0
 22 52  1  0  0  0  0
 22 53  1  0  0  0  0
 23 26  2  0  0  0  0
 23 54  1  0  0  0  0
 24 55  1  0  0  0  0
 25 27  1  0  0  0  0
 25 56  1  0  0  0  0
 25 57  1  0  0  0  0
 26 28  1  0  0  0  0
 26 58  1  0  0  0  0
 27 59  1  0  0  0  0
 27 60  1  0  0  0  0
 27 61  1  0  0  0  0
 28 62  1  0  0  0  0
M  END
> <PUBCHEM_COMPOUND_CID>
45784002

> <PUBCHEM_CONFORMER_RMSD>
1

> <PUBCHEM_CONFORMER_DIVERSEORDER>
58
6
108
75
123
118
89
60
95
133
88
49
41
141
94
74
68
131
51
143
101
46
113
52
76
115
111
24
136
130
72
122
54
92
79
109
135
33
104
105
121
139
112
137
62
70
134
96
119
37
126
56
59
48
30
132
55
57
142
17
73
91
129
1
140
35
93
38
125
102
82
18
28
39
69
103
53
110
124
65
43
98
32
120
117
25
44
2
42
47
23
97
99
16
106
116
21
8
71
61
31
66
20
19
107
90
13
84
64
80
83
27
34
114
26
67
127
50
3
45
22
78
87
11
12
77
9
4
29
14
7
5
85
100
63
36
15
128
10
138
81
40
86

> <PUBCHEM_MMFF94_PARTIAL_CHARGES>
27
1 -0.28
11 -0.28
12 -0.29
13 0.27
14 0.18
17 0.14
18 0.3
19 0.41
2 -0.9
20 -0.14
21 0.3
22 0.18
23 -0.15
24 0.16
26 -0.15
28 0.16
3 -0.34
35 0.15
4 -0.34
49 0.36
5 -0.62
54 0.15
55 0.15
58 0.15
62 0.15
7 0.14
9 0.14

> <PUBCHEM_EFFECTIVE_ROTOR_COUNT>
9.8

> <PUBCHEM_PHARMACOPHORE_FEATURES>
8
1 2 cation
1 2 donor
1 27 hydrophobe
1 5 acceptor
3 10 15 16 hydrophobe
5 1 3 4 18 21 rings
6 5 20 23 24 26 28 rings
6 6 7 8 9 11 12 rings

> <PUBCHEM_HEAVY_ATOM_COUNT>
28

> <PUBCHEM_ATOM_DEF_STEREO_COUNT>
3

> <PUBCHEM_ATOM_UDEF_STEREO_COUNT>
0

> <PUBCHEM_BOND_DEF_STEREO_COUNT>
0

> <PUBCHEM_BOND_UDEF_STEREO_COUNT>
0

> <PUBCHEM_ISOTOPIC_ATOM_COUNT>
0

> <PUBCHEM_COMPONENT_COUNT>
1

> <PUBCHEM_CACTVS_TAUTO_COUNT>
1

> <PUBCHEM_CONFORMER_ID>
02BA9BC20000003A

> <PUBCHEM_MMFF94_ENERGY>
44.6069

> <PUBCHEM_FEATURE_SELFOVERLAP>
40.596

> <PUBCHEM_SHAPE_FINGERPRINT>
1100329 8 18410845543159536368
11513181 2 17983861356775195966
12156800 1 15812183891661161771
12788726 201 17976256069405924033
13122387 1 17400918601079049323
13140716 1 18337093648853004393
14117953 113 17762604102477168055
15968369 153 18197772414175966927
16752209 62 18335985371450424887
17492 54 18190188896698083409
19319366 153 17895759482848372882
23419403 2 17561361808148563458
3052486 1 18334574668293914170
3298306 158 18335694993644605317
338550 245 18261949756405344213
35225 105 18339912723741953023
463206 1 18265888052141588819

> <PUBCHEM_SHAPE_MULTIPOLES>
550.43
8.75
5.15
1.82
5.17
2.27
-0.35
-2.93
-4.08
3.1
1.01
-1.5
0.03
0.89

> <PUBCHEM_SHAPE_SELFOVERLAP>
1138.725

> <PUBCHEM_SHAPE_VOLUME>
313.6

> <PUBCHEM_COORDINATE_TYPE>
2
5
10

$$$$
