40777463
  -OEChem-12032416253D

 69 73  0     1  0  0  0  0  0999 V2000
   10.6600   -3.1627    0.5355 F   0  0  0  0  0  0  0  0  0  0  0  0
    2.3501    3.0214   -1.2680 O   0  0  0  0  0  0  0  0  0  0  0  0
   -5.0877    0.4759   -1.7798 O   0  0  0  0  0  0  0  0  0  0  0  0
  -10.3297   -2.2035    0.4430 O   0  0  0  0  0  0  0  0  0  0  0  0
   -1.4840    2.8634    2.4120 N   0  0  0  0  0  0  0  0  0  0  0  0
    3.5105    1.1463   -0.5348 N   0  0  0  0  0  0  0  0  0  0  0  0
    5.9635   -0.3568   -0.2129 N   0  0  0  0  0  0  0  0  0  0  0  0
   -3.7681    0.8879   -1.9209 N   0  0  0  0  0  0  0  0  0  0  0  0
    0.0045    2.4892   -0.1081 C   0  0  1  0  0  0  0  0  0  0  0  0
   -1.4047    1.8949    0.1269 C   0  0  2  0  0  0  0  0  0  0  0  0
    0.1937    3.7096    0.8086 C   0  0  0  0  0  0  0  0  0  0  0  0
   -1.6749    1.6474    1.6206 C   0  0  0  0  0  0  0  0  0  0  0  0
    1.1456    1.4827    0.0812 C   0  0  0  0  0  0  0  0  0  0  0  0
   -0.1317    3.3983    2.2688 C   0  0  0  0  0  0  0  0  0  0  0  0
   -1.6615    0.6236   -0.6833 C   0  0  0  0  0  0  0  0  0  0  0  0
    2.3833    1.9625   -0.6365 C   0  0  0  0  0  0  0  0  0  0  0  0
   -3.1314    0.3771   -0.8631 C   0  0  0  0  0  0  0  0  0  0  0  0
    4.7468    1.5393   -1.2060 C   0  0  0  0  0  0  0  0  0  0  0  0
    3.5513   -0.1054    0.2245 C   0  0  0  0  0  0  0  0  0  0  0  0
    5.9844    1.0925   -0.4309 C   0  0  0  0  0  0  0  0  0  0  0  0
    4.6686   -1.0415   -0.2368 C   0  0  0  0  0  0  0  0  0  0  0  0
   -3.9896   -0.3592   -0.0281 C   0  0  0  0  0  0  0  0  0  0  0  0
    7.1481   -1.0646   -0.0244 C   0  0  0  0  0  0  0  0  0  0  0  0
   -5.2070   -0.2659   -0.6491 C   0  0  0  0  0  0  0  0  0  0  0  0
    8.2458   -0.4411    0.5690 C   0  0  0  0  0  0  0  0  0  0  0  0
    7.2369   -2.3969   -0.4281 C   0  0  0  0  0  0  0  0  0  0  0  0
   -6.5222   -0.7644   -0.3691 C   0  0  0  0  0  0  0  0  0  0  0  0
    9.4321   -1.1495    0.7584 C   0  0  0  0  0  0  0  0  0  0  0  0
    8.4233   -3.1054   -0.2387 C   0  0  0  0  0  0  0  0  0  0  0  0
    9.5209   -2.4817    0.3545 C   0  0  0  0  0  0  0  0  0  0  0  0
   -6.7474   -1.5374    0.7700 C   0  0  0  0  0  0  0  0  0  0  0  0
   -7.5765   -0.4757   -1.2356 C   0  0  0  0  0  0  0  0  0  0  0  0
   -8.0266   -2.0219    1.0425 C   0  0  0  0  0  0  0  0  0  0  0  0
   -8.8558   -0.9601   -0.9632 C   0  0  0  0  0  0  0  0  0  0  0  0
   -9.0808   -1.7333    0.1757 C   0  0  0  0  0  0  0  0  0  0  0  0
  -10.4898   -2.9849    1.6261 C   0  0  0  0  0  0  0  0  0  0  0  0
    0.0099    2.8471   -1.1471 H   0  0  0  0  0  0  0  0  0  0  0  0
   -2.1194    2.6638   -0.2067 H   0  0  0  0  0  0  0  0  0  0  0  0
   -0.4700    4.5139    0.4631 H   0  0  0  0  0  0  0  0  0  0  0  0
    1.2116    4.1085    0.7436 H   0  0  0  0  0  0  0  0  0  0  0  0
   -2.7090    1.3256    1.7742 H   0  0  0  0  0  0  0  0  0  0  0  0
   -1.0321    0.8465    2.0066 H   0  0  0  0  0  0  0  0  0  0  0  0
    0.8793    0.5263   -0.3765 H   0  0  0  0  0  0  0  0  0  0  0  0
    1.3712    1.3059    1.1363 H   0  0  0  0  0  0  0  0  0  0  0  0
    0.5993    2.7051    2.6992 H   0  0  0  0  0  0  0  0  0  0  0  0
   -0.0616    4.3245    2.8502 H   0  0  0  0  0  0  0  0  0  0  0  0
   -1.2108   -0.2534   -0.2026 H   0  0  0  0  0  0  0  0  0  0  0  0
   -1.2037    0.7105   -1.6774 H   0  0  0  0  0  0  0  0  0  0  0  0
   -1.6631    2.6580    3.3946 H   0  0  0  0  0  0  0  0  0  0  0  0
    4.7672    2.6245   -1.3527 H   0  0  0  0  0  0  0  0  0  0  0  0
    4.7291    1.0756   -2.2000 H   0  0  0  0  0  0  0  0  0  0  0  0
    2.5941   -0.6284    0.1541 H   0  0  0  0  0  0  0  0  0  0  0  0
    3.6997    0.1713    1.2755 H   0  0  0  0  0  0  0  0  0  0  0  0
    6.8688    1.3888   -1.0081 H   0  0  0  0  0  0  0  0  0  0  0  0
    6.0200    1.6044    0.5386 H   0  0  0  0  0  0  0  0  0  0  0  0
    4.6697   -1.9124    0.4301 H   0  0  0  0  0  0  0  0  0  0  0  0
    4.4641   -1.3931   -1.2555 H   0  0  0  0  0  0  0  0  0  0  0  0
   -3.7481   -0.8800    0.8869 H   0  0  0  0  0  0  0  0  0  0  0  0
    8.2057    0.5901    0.9086 H   0  0  0  0  0  0  0  0  0  0  0  0
    6.4070   -2.9081   -0.9079 H   0  0  0  0  0  0  0  0  0  0  0  0
   10.2861   -0.6657    1.2232 H   0  0  0  0  0  0  0  0  0  0  0  0
    8.4944   -4.1415   -0.5562 H   0  0  0  0  0  0  0  0  0  0  0  0
   -5.9454   -1.7782    1.4632 H   0  0  0  0  0  0  0  0  0  0  0  0
   -7.4414    0.1231   -2.1327 H   0  0  0  0  0  0  0  0  0  0  0  0
   -8.1315   -2.6157    1.9441 H   0  0  0  0  0  0  0  0  0  0  0  0
   -9.6737   -0.7318   -1.6414 H   0  0  0  0  0  0  0  0  0  0  0  0
  -11.5442   -3.2748    1.6818 H   0  0  0  0  0  0  0  0  0  0  0  0
  -10.2708   -2.4012    2.5267 H   0  0  0  0  0  0  0  0  0  0  0  0
   -9.9060   -3.9105    1.5790 H   0  0  0  0  0  0  0  0  0  0  0  0
  1 30  1  0  0  0  0
  2 16  2  0  0  0  0
  3  8  1  0  0  0  0
  3 24  1  0  0  0  0
  4 35  1  0  0  0  0
  4 36  1  0  0  0  0
  5 12  1  0  0  0  0
  5 14  1  0  0  0  0
  5 49  1  0  0  0  0
  6 16  1  0  0  0  0
  6 18  1  0  0  0  0
  6 19  1  0  0  0  0
  7 20  1  0  0  0  0
  7 21  1  0  0  0  0
  7 23  1  0  0  0  0
  8 17  2  0  0  0  0
  9 10  1  0  0  0  0
  9 11  1  0  0  0  0
  9 13  1  0  0  0  0
  9 37  1  0  0  0  0
 10 12  1  0  0  0  0
 10 15  1  0  0  0  0
 10 38  1  0  0  0  0
 11 14  1  0  0  0  0
 11 39  1  0  0  0  0
 11 40  1  0  0  0  0
 12 41  1  0  0  0  0
 12 42  1  0  0  0  0
 13 16  1  0  0  0  0
 13 43  1  0  0  0  0
 13 44  1  0  0  0  0
 14 45  1  0  0  0  0
 14 46  1  0  0  0  0
 15 17  1  0  0  0  0
 15 47  1  0  0  0  0
 15 48  1  0  0  0  0
 17 22  1  0  0  0  0
 18 20  1  0  0  0  0
 18 50  1  0  0  0  0
 18 51  1  0  0  0  0
 19 21  1  0  0  0  0
 19 52  1  0  0  0  0
 19 53  1  0  0  0  0
 20 54  1  0  0  0  0
 20 55  1  0  0  0  0
 21 56  1  0  0  0  0
 21 57  1  0  0  0  0
 22 24  2  0  0  0  0
 22 58  1  0  0  0  0
 23 25  2  0  0  0  0
 23 26  1  0  0  0  0
 24 27  1  0  0  0  0
 25 28  1  0  0  0  0
 25 59  1  0  0  0  0
 26 29  2  0  0  0  0
 26 60  1  0  0  0  0
 27 31  2  0  0  0  0
 27 32  1  0  0  0  0
 28 30  2  0  0  0  0
 28 61  1  0  0  0  0
 29 30  1  0  0  0  0
 29 62  1  0  0  0  0
 31 33  1  0  0  0  0
 31 63  1  0  0  0  0
 32 34  2  0  0  0  0
 32 64  1  0  0  0  0
 33 35  2  0  0  0  0
 33 65  1  0  0  0  0
 34 35  1  0  0  0  0
 34 66  1  0  0  0  0
 36 67  1  0  0  0  0
 36 68  1  0  0  0  0
 36 69  1  0  0  0  0
M  END
> <PUBCHEM_COMPOUND_CID>
40777463

> <PUBCHEM_CONFORMER_RMSD>
1.2

> <PUBCHEM_CONFORMER_DIVERSEORDER>
1
28
14
112
123
43
30
23
121
165
129
48
172
91
101
180
82
78
25
89
126
160
125
155
124
17
95
8
152
90
131
86
66
42
37
33
81
70
58
69
64
29
148
143
170
73
107
130
164
61
104
53
109
67
173
171
16
83
72
99
105
168
27
75
135
146
88
157
117
114
150
85
102
87
51
49
144
166
118
151
84
156
12
80
52
35
139
147
74
6
149
26
136
96
167
65
39
92
100
59
103
54
56
38
178
10
161
119
175
50
34
45
128
159
176
2
22
76
138
79
133
57
116
5
137
127
169
113
177
154
108
141
120
3
47
15
94
162
179
60
106
97
44
134
142
158
93
24
110
32
18
145
111
19
31
62
115
63
20
174
46
132
7
98
13
11
163
9
140
36
153
21
68
77
55
71
40
4
122
41

> <PUBCHEM_MMFF94_PARTIAL_CHARGES>
43
1 -0.19
12 0.27
13 0.06
14 0.27
15 0.18
16 0.57
17 0.11
18 0.3
19 0.3
2 -0.57
20 0.37
21 0.37
22 -0.15
23 0.1
24 0.09
25 -0.15
26 -0.15
27 0.05
28 -0.15
29 -0.15
3 -0.02
30 0.19
31 -0.15
32 -0.15
33 -0.15
34 -0.15
35 0.08
36 0.28
4 -0.36
49 0.36
5 -0.9
58 0.15
59 0.15
6 -0.66
60 0.15
61 0.15
62 0.15
63 0.15
64 0.15
65 0.15
66 0.15
7 -0.84
8 -0.41

> <PUBCHEM_EFFECTIVE_ROTOR_COUNT>
10.4

> <PUBCHEM_PHARMACOPHORE_FEATURES>
11
1 2 acceptor
1 4 acceptor
1 5 cation
1 5 donor
1 7 cation
1 8 acceptor
5 3 8 17 22 24 rings
6 23 25 26 28 29 30 rings
6 27 31 32 33 34 35 rings
6 5 9 10 11 12 14 rings
6 6 7 18 19 20 21 rings

> <PUBCHEM_HEAVY_ATOM_COUNT>
36

> <PUBCHEM_ATOM_DEF_STEREO_COUNT>
2

> <PUBCHEM_ATOM_UDEF_STEREO_COUNT>
0

> <PUBCHEM_BOND_DEF_STEREO_COUNT>
0

> <PUBCHEM_BOND_UDEF_STEREO_COUNT>
0

> <PUBCHEM_ISOTOPIC_ATOM_COUNT>
0

> <PUBCHEM_COMPONENT_COUNT>
1

> <PUBCHEM_CACTVS_TAUTO_COUNT>
1

> <PUBCHEM_CONFORMER_ID>
026E36F700000001

> <PUBCHEM_MMFF94_ENERGY>
98.3728

> <PUBCHEM_FEATURE_SELFOVERLAP>
55.823

> <PUBCHEM_SHAPE_FINGERPRINT>
10100884 174 18412259528805763098
10258705 36 18042132110653102747
10429389 143 10519993660573996199
10625338 86 13758359942724046267
10904742 90 8718823202358429228
10930396 42 14908179746936354827
11273773 46 18260548931289135483
11297750 10 18272641364077000545
11456790 92 17988934405400700313
11463208 3 18114185289796952971
11607047 74 18188494713797629548
11672396 167 18270392911033933607
12013929 2 18259980489011019927
12013929 27 18260268546796099964
12013929 94 18412544277090047190
12522641 68 11188664722922479913
12539745 222 18410291376847525173
12838863 1 18334574617034323234
13165054 27 10663821849902653403
13947934 56 18410571752444509173
14202775 3 18041565853743538347
14359421 15 17895189978669733594
14664723 55 11025798661504468142
14705955 166 15267069111979941851
15131766 46 9367057818791445068
15145347 29 18197230157628848270
15247644 1 18263646338125736707
15347590 135 16486975064380605854
15350500 55 10952053351102939855
15419008 145 17846791698446937881
15773216 30 18190466159083218964
16993427 108 18131347501188107344
17134984 74 17821722845384648418
1754911 235 11314027976435332051
19301679 30 17917444076782711485
19841028 212 18335700563969028106
20105231 36 18260831536311977267
2026 5 18334290938053938150
20721686 146 9655581811765552875
20771845 65 18341612650445062552
21057603 199 18335138748178260587
212700 22 18335132090261136574
21756936 100 9654993581988918860
21792961 116 18340197510771529493
22899556 105 17604140454550695552
23389318 12 18186527580283866172
23523787 8 14851606596115920584
23524908 199 11963381913966345072
23528940 14 18339075979443116770
23569917 315 18337675188649612366
23569943 247 18271803562845456679
23576562 1 11747520361424078111
24771293 8 12103841259364202177
25242607 90 17988634216397237214
2851757 41 18408609136920947462
3383291 50 18413670210228480870
3986486 107 15864067658957917573
406291 66 18410855435060225022
4149490 64 18262516013330817072
4169191 19 8214157261351914047
439807 62 18261114109918763087
4403749 210 10015574026593057285
45377200 153 17242178071178636651
5219985 9 17846498162226411969
5372103 7 9439410125158728767
54039377 194 18409729556063781630
54131252 71 17274835606205761763
5470011 282 18040437732784027444
54728670 133 17131272338750314057
5719381 82 18260827098550281907
58260988 647 18334298703734455193
6201320 82 10737823363735675687
6327066 14 8070023372218382552
6691757 9 15697707156778752133
9937071 3 18411135839936243430
9953998 17 14548729616742857428

> <PUBCHEM_SHAPE_MULTIPOLES>
696.06
38.56
4.09
1.53
4.13
1.19
-0.41
-54.63
-4.95
-3.16
-1.82
2.21
0.94
0.67

> <PUBCHEM_SHAPE_SELFOVERLAP>
1495.219

> <PUBCHEM_SHAPE_VOLUME>
384.3

> <PUBCHEM_COORDINATE_TYPE>
2
5
10

$$$$
