26742999
  -OEChem-12032416193D

 72 76  0     1  0  0  0  0  0999 V2000
   -0.3471    2.8652    1.7964 O   0  0  0  0  0  0  0  0  0  0  0  0
    5.9725   -1.7931    1.3997 O   0  0  0  0  0  0  0  0  0  0  0  0
   -3.6959   -1.9547    1.4857 O   0  0  0  0  0  0  0  0  0  0  0  0
   -1.7993    1.9849    0.2110 N   0  0  0  0  0  0  0  0  0  0  0  0
    3.9238    3.1603   -1.3461 N   0  0  0  0  0  0  0  0  0  0  0  0
   -5.1040   -0.6342    0.0979 N   0  0  0  0  0  0  0  0  0  0  0  0
   -5.8681   -2.6319    0.8414 N   0  0  0  0  0  0  0  0  0  0  0  0
    4.7968   -1.0974    1.6539 N   0  0  0  0  0  0  0  0  0  0  0  0
    1.9497    2.2070    0.6290 C   0  0  1  0  0  0  0  0  0  0  0  0
    3.1830    1.3721    0.2094 C   0  0  2  0  0  0  0  0  0  0  0  0
    2.2455    3.6964    0.3853 C   0  0  0  0  0  0  0  0  0  0  0  0
    0.6479    1.7888   -0.0649 C   0  0  0  0  0  0  0  0  0  0  0  0
    3.6539    1.7285   -1.2107 C   0  0  0  0  0  0  0  0  0  0  0  0
   -4.2687    0.5161   -0.1452 C   0  0  0  0  0  0  0  0  0  0  0  0
    2.7465    3.9673   -1.0327 C   0  0  0  0  0  0  0  0  0  0  0  0
    2.9584   -0.1351    0.3384 C   0  0  0  0  0  0  0  0  0  0  0  0
   -3.9437    1.2361    1.1673 C   0  0  0  0  0  0  0  0  0  0  0  0
   -2.9820    0.1132   -0.8739 C   0  0  0  0  0  0  0  0  0  0  0  0
   -2.9999    2.4124    0.9320 C   0  0  0  0  0  0  0  0  0  0  0  0
   -2.0568    1.3127   -1.0686 C   0  0  0  0  0  0  0  0  0  0  0  0
   -0.5380    2.2648    0.7357 C   0  0  0  0  0  0  0  0  0  0  0  0
    4.2600   -0.8745    0.4509 C   0  0  0  0  0  0  0  0  0  0  0  0
   -6.3970   -0.8174   -0.4067 C   0  0  0  0  0  0  0  0  0  0  0  0
   -4.7440   -1.7589    0.8866 C   0  0  0  0  0  0  0  0  0  0  0  0
   -6.8609   -2.0479    0.0544 C   0  0  0  0  0  0  0  0  0  0  0  0
    5.0448   -1.4013   -0.5895 C   0  0  0  0  0  0  0  0  0  0  0  0
   -7.1721   -0.0111   -1.2139 C   0  0  0  0  0  0  0  0  0  0  0  0
    6.1092   -1.9679    0.0604 C   0  0  0  0  0  0  0  0  0  0  0  0
   -8.1105   -2.5325   -0.2636 C   0  0  0  0  0  0  0  0  0  0  0  0
    7.3061   -2.6899   -0.3875 C   0  0  0  0  0  0  0  0  0  0  0  0
   -8.4456   -0.4818   -1.5507 C   0  0  0  0  0  0  0  0  0  0  0  0
   -8.9095   -1.7286   -1.0808 C   0  0  0  0  0  0  0  0  0  0  0  0
    8.5833   -1.8205   -0.3595 C   0  0  0  0  0  0  0  0  0  0  0  0
    9.8145   -2.5686   -0.8706 C   0  0  0  0  0  0  0  0  0  0  0  0
   11.0474   -1.6787   -0.8702 C   0  0  0  0  0  0  0  0  0  0  0  0
    1.8441    2.0592    1.7127 H   0  0  0  0  0  0  0  0  0  0  0  0
    3.9934    1.6578    0.8986 H   0  0  0  0  0  0  0  0  0  0  0  0
    3.0142    4.0226    1.0992 H   0  0  0  0  0  0  0  0  0  0  0  0
    1.3665    4.3196    0.5818 H   0  0  0  0  0  0  0  0  0  0  0  0
    0.5655    0.6992   -0.1150 H   0  0  0  0  0  0  0  0  0  0  0  0
    0.5924    2.1867   -1.0816 H   0  0  0  0  0  0  0  0  0  0  0  0
    4.5840    1.2042   -1.4482 H   0  0  0  0  0  0  0  0  0  0  0  0
    2.9134    1.4164   -1.9576 H   0  0  0  0  0  0  0  0  0  0  0  0
   -4.8066    1.2225   -0.7875 H   0  0  0  0  0  0  0  0  0  0  0  0
    1.9581    3.7941   -1.7733 H   0  0  0  0  0  0  0  0  0  0  0  0
    3.0203    5.0253   -1.1127 H   0  0  0  0  0  0  0  0  0  0  0  0
    2.3988   -0.5293   -0.5187 H   0  0  0  0  0  0  0  0  0  0  0  0
    2.3610   -0.3523    1.2337 H   0  0  0  0  0  0  0  0  0  0  0  0
   -3.4704    0.5503    1.8800 H   0  0  0  0  0  0  0  0  0  0  0  0
   -4.8665    1.5923    1.6410 H   0  0  0  0  0  0  0  0  0  0  0  0
   -3.2240   -0.3282   -1.8483 H   0  0  0  0  0  0  0  0  0  0  0  0
   -2.4391   -0.6538   -0.3088 H   0  0  0  0  0  0  0  0  0  0  0  0
   -3.4899    3.1819    0.3238 H   0  0  0  0  0  0  0  0  0  0  0  0
   -2.7371    2.8721    1.8899 H   0  0  0  0  0  0  0  0  0  0  0  0
   -1.1385    0.9799   -1.5545 H   0  0  0  0  0  0  0  0  0  0  0  0
   -2.5236    2.0504   -1.7322 H   0  0  0  0  0  0  0  0  0  0  0  0
    4.2242    3.3583   -2.3002 H   0  0  0  0  0  0  0  0  0  0  0  0
    4.8646   -1.3770   -1.6542 H   0  0  0  0  0  0  0  0  0  0  0  0
   -5.9469   -3.5311    1.3003 H   0  0  0  0  0  0  0  0  0  0  0  0
   -6.8342    0.9486   -1.5846 H   0  0  0  0  0  0  0  0  0  0  0  0
   -8.4652   -3.4901    0.0983 H   0  0  0  0  0  0  0  0  0  0  0  0
    7.4579   -3.5743    0.2436 H   0  0  0  0  0  0  0  0  0  0  0  0
    7.1480   -3.0604   -1.4079 H   0  0  0  0  0  0  0  0  0  0  0  0
   -9.0905    0.1212   -2.1850 H   0  0  0  0  0  0  0  0  0  0  0  0
   -9.9042   -2.0666   -1.3603 H   0  0  0  0  0  0  0  0  0  0  0  0
    8.7646   -1.4720    0.6654 H   0  0  0  0  0  0  0  0  0  0  0  0
    8.4214   -0.9232   -0.9709 H   0  0  0  0  0  0  0  0  0  0  0  0
   10.0011   -3.4473   -0.2427 H   0  0  0  0  0  0  0  0  0  0  0  0
    9.6327   -2.9300   -1.8893 H   0  0  0  0  0  0  0  0  0  0  0  0
   10.9028   -0.8075   -1.5171 H   0  0  0  0  0  0  0  0  0  0  0  0
   11.9157   -2.2343   -1.2378 H   0  0  0  0  0  0  0  0  0  0  0  0
   11.2741   -1.3233    0.1400 H   0  0  0  0  0  0  0  0  0  0  0  0
  1 21  2  0  0  0  0
  2  8  1  0  0  0  0
  2 28  1  0  0  0  0
  3 24  2  0  0  0  0
  4 19  1  0  0  0  0
  4 20  1  0  0  0  0
  4 21  1  0  0  0  0
  5 13  1  0  0  0  0
  5 15  1  0  0  0  0
  5 57  1  0  0  0  0
  6 14  1  0  0  0  0
  6 23  1  0  0  0  0
  6 24  1  0  0  0  0
  7 24  1  0  0  0  0
  7 25  1  0  0  0  0
  7 59  1  0  0  0  0
  8 22  2  0  0  0  0
  9 10  1  0  0  0  0
  9 11  1  0  0  0  0
  9 12  1  0  0  0  0
  9 36  1  0  0  0  0
 10 13  1  0  0  0  0
 10 16  1  0  0  0  0
 10 37  1  0  0  0  0
 11 15  1  0  0  0  0
 11 38  1  0  0  0  0
 11 39  1  0  0  0  0
 12 21  1  0  0  0  0
 12 40  1  0  0  0  0
 12 41  1  0  0  0  0
 13 42  1  0  0  0  0
 13 43  1  0  0  0  0
 14 17  1  0  0  0  0
 14 18  1  0  0  0  0
 14 44  1  0  0  0  0
 15 45  1  0  0  0  0
 15 46  1  0  0  0  0
 16 22  1  0  0  0  0
 16 47  1  0  0  0  0
 16 48  1  0  0  0  0
 17 19  1  0  0  0  0
 17 49  1  0  0  0  0
 17 50  1  0  0  0  0
 18 20  1  0  0  0  0
 18 51  1  0  0  0  0
 18 52  1  0  0  0  0
 19 53  1  0  0  0  0
 19 54  1  0  0  0  0
 20 55  1  0  0  0  0
 20 56  1  0  0  0  0
 22 26  1  0  0  0  0
 23 25  1  0  0  0  0
 23 27  2  0  0  0  0
 25 29  2  0  0  0  0
 26 28  2  0  0  0  0
 26 58  1  0  0  0  0
 27 31  1  0  0  0  0
 27 60  1  0  0  0  0
 28 30  1  0  0  0  0
 29 32  1  0  0  0  0
 29 61  1  0  0  0  0
 30 33  1  0  0  0  0
 30 62  1  0  0  0  0
 30 63  1  0  0  0  0
 31 32  2  0  0  0  0
 31 64  1  0  0  0  0
 32 65  1  0  0  0  0
 33 34  1  0  0  0  0
 33 66  1  0  0  0  0
 33 67  1  0  0  0  0
 34 35  1  0  0  0  0
 34 68  1  0  0  0  0
 34 69  1  0  0  0  0
 35 70  1  0  0  0  0
 35 71  1  0  0  0  0
 35 72  1  0  0  0  0
M  END
> <PUBCHEM_COMPOUND_CID>
26742999

> <PUBCHEM_CONFORMER_RMSD>
1.4

> <PUBCHEM_CONFORMER_DIVERSEORDER>
1
187
41
115
179
141
133
22
93
82
185
166
25
145
62
152
83
20
183
182
31
52
118
177
29
45
181
76
88
8
191
111
75
97
17
180
146
21
78
159
150
160
162
23
38
132
172
56
134
65
173
161
58
158
176
128
125
73
168
154
14
184
157
89
148
24
170
112
34
189
140
50
70
113
155
64
19
136
135
71
142
69
116
7
164
67
102
32
186
101
114
54
49
151
174
74
99
57
122
40
129
124
46
175
188
3
42
110
30
98
61
126
144
130
137
94
5
127
18
84
43
81
26
44
106
169
12
36
47
51
156
35
143
79
48
9
59
117
4
107
138
68
95
131
103
72
33
139
171
66
87
153
11
96
85
190
39
147
178
55
165
53
192
86
80
121
149
100
28
16
90
108
92
60
104
91
6
167
15
13
163
10
123
2
109
105
63
27
120
77
37
119

> <PUBCHEM_MMFF94_PARTIAL_CHARGES>
34
1 -0.57
12 0.06
13 0.27
14 0.3
15 0.27
16 0.18
19 0.3
2 -0.02
20 0.3
21 0.57
22 0.11
23 0.12
24 0.69
25 0.12
26 -0.15
27 -0.15
28 -0.04
29 -0.15
3 -0.57
30 0.18
31 -0.15
32 -0.15
4 -0.66
5 -0.9
57 0.36
58 0.15
59 0.37
6 -0.48
60 0.15
61 0.15
64 0.15
65 0.15
7 -0.55
8 -0.41

> <PUBCHEM_EFFECTIVE_ROTOR_COUNT>
11.4

> <PUBCHEM_PHARMACOPHORE_FEATURES>
12
1 1 acceptor
1 3 acceptor
1 35 hydrophobe
1 5 cation
1 5 donor
1 7 donor
1 8 acceptor
5 2 8 22 26 28 rings
5 6 7 23 24 25 rings
6 23 25 27 29 31 32 rings
6 4 14 17 18 19 20 rings
6 5 9 10 11 13 15 rings

> <PUBCHEM_HEAVY_ATOM_COUNT>
35

> <PUBCHEM_ATOM_DEF_STEREO_COUNT>
2

> <PUBCHEM_ATOM_UDEF_STEREO_COUNT>
0

> <PUBCHEM_BOND_DEF_STEREO_COUNT>
0

> <PUBCHEM_BOND_UDEF_STEREO_COUNT>
0

> <PUBCHEM_ISOTOPIC_ATOM_COUNT>
0

> <PUBCHEM_COMPONENT_COUNT>
1

> <PUBCHEM_CACTVS_TAUTO_COUNT>
2

> <PUBCHEM_CONFORMER_ID>
019810D700000001

> <PUBCHEM_MMFF94_ENERGY>
67.4527

> <PUBCHEM_FEATURE_SELFOVERLAP>
60.998

> <PUBCHEM_SHAPE_FINGERPRINT>
10 15 10735883893968985485
10952577 141 16227725512719165325
11135609 99 18413389852158869766
11146851 88 18409446981586447134
11273773 46 18409726254093793351
11497681 19 18195532485942252710
11607047 74 18198617929764710936
11621639 148 18412537740181737800
117089 54 18342184310755294334
11756154 67 18409168800738194446
12522641 68 16959028662270409516
13008946 335 11815891263336882444
13533116 47 18339359790180007017
1361 87 17749119923438789715
13782708 43 18340200899748522277
14068700 675 18412265004566701736
14340393 91 18114455683061343637
15082195 135 17750238178489013565
15152005 290 9403652357381536812
15183329 4 18114455786731181273
15274700 208 12901839354116411774
15351339 4 17968089764687394338
15510800 12 18272088270961675207
16991971 28 18410581661281369774
17686467 74 18341327809326113800
18393751 57 10663830685167045945
19841028 212 18410287042929442403
20105231 36 17632579302637131894
208703 8 18411980239565550548
21344244 246 18261682558454372404
21792938 703 18334583477377398874
23559900 14 18191298485522312073
23569943 247 18272087224082074131
23729417 116 18263647278000804156
25269216 80 14490481928506841003
255183 451 18335420166903106100
3004659 81 18040988566713678137
3383291 50 18342167878458540987
406291 66 18342735204397671551
42767 23 17967810510129153102
42767 28 17967249832229055107
439807 62 18409166632280999477
4461854 278 17561080311402371366
474113 269 18130777976662772159
4760202 70 18334305254413455268
54039377 194 18341895177951686646
5718773 13 18341891883563732913
57303763 176 18059572440345357129
57527293 21 15912461633059107832
6695519 79 17040097883631954689
9962374 69 18271517693278276582

> <PUBCHEM_SHAPE_MULTIPOLES>
677.77
31.65
4.51
1.37
22.99
2.93
0.09
-40.75
-10.61
4.27
0.03
-0.46
0.22
-0.31

> <PUBCHEM_SHAPE_SELFOVERLAP>
1436.394

> <PUBCHEM_SHAPE_VOLUME>
374.3

> <PUBCHEM_COORDINATE_TYPE>
2
5
10

$$$$
