45783493
  -OEChem-12032416263D

 56 59  0     1  0  0  0  0  0999 V2000
    1.6402    2.5576    0.2979 F   0  0  0  0  0  0  0  0  0  0  0  0
    0.6116    4.0287    1.5250 F   0  0  0  0  0  0  0  0  0  0  0  0
    0.9089    4.3922   -0.5980 F   0  0  0  0  0  0  0  0  0  0  0  0
   -2.5681   -1.5992    2.0238 O   0  0  0  0  0  0  0  0  0  0  0  0
    7.3038   -0.1260   -0.5076 O   0  0  0  0  0  0  0  0  0  0  0  0
   -4.3373   -0.5691   -1.0281 N   0  0  1  0  0  0  0  0  0  0  0  0
   -1.6416   -1.3328    0.0020 N   0  0  0  0  0  0  0  0  0  0  0  0
   -1.1821   -1.6238    2.2243 N   0  0  0  0  0  0  0  0  0  0  0  0
    2.9759   -1.5255    1.5071 N   0  0  0  0  0  0  0  0  0  0  0  0
    4.7774   -1.3237   -0.0385 N   0  0  0  0  0  0  0  0  0  0  0  0
   -4.1868   -1.3627    0.2080 C   0  0  1  0  0  0  0  0  0  0  0  0
   -4.7557   -2.7492   -0.1457 C   0  0  0  0  0  0  0  0  0  0  0  0
   -5.2562   -2.6204   -1.5774 C   0  0  0  0  0  0  0  0  0  0  0  0
   -5.4831   -1.1314   -1.7433 C   0  0  0  0  0  0  0  0  0  0  0  0
   -4.4933    0.8582   -0.7789 C   0  0  0  0  0  0  0  0  0  0  0  0
   -2.7522   -1.4248    0.6889 C   0  0  0  0  0  0  0  0  0  0  0  0
   -3.1733    1.5258   -0.4981 C   0  0  0  0  0  0  0  0  0  0  0  0
   -2.9744    2.1975    0.7081 C   0  0  0  0  0  0  0  0  0  0  0  0
   -2.1490    1.4720   -1.4435 C   0  0  0  0  0  0  0  0  0  0  0  0
   -0.7054   -1.4606    0.9865 C   0  0  0  0  0  0  0  0  0  0  0  0
   -1.7516    2.8156    0.9689 C   0  0  0  0  0  0  0  0  0  0  0  0
   -0.9261    2.0902   -1.1828 C   0  0  0  0  0  0  0  0  0  0  0  0
   -0.7274    2.7619    0.0234 C   0  0  0  0  0  0  0  0  0  0  0  0
    0.6995   -1.4223    0.6995 C   0  0  0  0  0  0  0  0  0  0  0  0
    0.5811    3.4201    0.3038 C   0  0  0  0  0  0  0  0  0  0  0  0
    1.1608   -1.2524   -0.6012 C   0  0  0  0  0  0  0  0  0  0  0  0
    1.6394   -1.5529    1.7091 C   0  0  0  0  0  0  0  0  0  0  0  0
    2.5287   -1.2190   -0.8489 C   0  0  0  0  0  0  0  0  0  0  0  0
    3.3868   -1.3588    0.2300 C   0  0  0  0  0  0  0  0  0  0  0  0
    5.3041   -1.1531   -1.3536 C   0  0  0  0  0  0  0  0  0  0  0  0
    6.8223   -1.1933   -1.3147 C   0  0  0  0  0  0  0  0  0  0  0  0
    8.7233   -0.1188   -0.4461 C   0  0  0  0  0  0  0  0  0  0  0  0
   -4.8054   -0.9464    1.0156 H   0  0  0  0  0  0  0  0  0  0  0  0
   -4.0262   -3.5619   -0.0602 H   0  0  0  0  0  0  0  0  0  0  0  0
   -5.5978   -2.9821    0.5174 H   0  0  0  0  0  0  0  0  0  0  0  0
   -6.1638   -3.2055   -1.7526 H   0  0  0  0  0  0  0  0  0  0  0  0
   -4.4847   -2.9701   -2.2747 H   0  0  0  0  0  0  0  0  0  0  0  0
   -5.4935   -0.8414   -2.7985 H   0  0  0  0  0  0  0  0  0  0  0  0
   -6.4348   -0.8378   -1.2825 H   0  0  0  0  0  0  0  0  0  0  0  0
   -4.8975    1.3510   -1.6745 H   0  0  0  0  0  0  0  0  0  0  0  0
   -5.2222    1.0546    0.0183 H   0  0  0  0  0  0  0  0  0  0  0  0
   -3.7627    2.2452    1.4546 H   0  0  0  0  0  0  0  0  0  0  0  0
   -2.2900    0.9560   -2.3895 H   0  0  0  0  0  0  0  0  0  0  0  0
   -1.6166    3.3323    1.9150 H   0  0  0  0  0  0  0  0  0  0  0  0
   -0.1337    2.0420   -1.9249 H   0  0  0  0  0  0  0  0  0  0  0  0
    0.4776   -1.1430   -1.4395 H   0  0  0  0  0  0  0  0  0  0  0  0
    1.3623   -1.6884    2.7504 H   0  0  0  0  0  0  0  0  0  0  0  0
    2.8538   -1.0832   -1.8735 H   0  0  0  0  0  0  0  0  0  0  0  0
    5.3944   -1.4234    0.7595 H   0  0  0  0  0  0  0  0  0  0  0  0
    4.9595   -1.9496   -2.0233 H   0  0  0  0  0  0  0  0  0  0  0  0
    4.9936   -0.1828   -1.7598 H   0  0  0  0  0  0  0  0  0  0  0  0
    7.1668   -2.1488   -0.9007 H   0  0  0  0  0  0  0  0  0  0  0  0
    7.2166   -1.0885   -2.3322 H   0  0  0  0  0  0  0  0  0  0  0  0
    9.0929   -1.0474   -0.0005 H   0  0  0  0  0  0  0  0  0  0  0  0
    9.1502    0.0167   -1.4446 H   0  0  0  0  0  0  0  0  0  0  0  0
    9.0362    0.7185    0.1834 H   0  0  0  0  0  0  0  0  0  0  0  0
  1 25  1  0  0  0  0
  2 25  1  0  0  0  0
  3 25  1  0  0  0  0
  4  8  1  0  0  0  0
  4 16  1  0  0  0  0
  5 31  1  0  0  0  0
  5 32  1  0  0  0  0
  6 11  1  0  0  0  0
  6 14  1  0  0  0  0
  6 15  1  0  0  0  0
  7 16  2  0  0  0  0
  7 20  1  0  0  0  0
  8 20  2  0  0  0  0
  9 27  1  0  0  0  0
  9 29  2  0  0  0  0
 10 29  1  0  0  0  0
 10 30  1  0  0  0  0
 10 49  1  0  0  0  0
 11 12  1  0  0  0  0
 11 16  1  0  0  0  0
 11 33  1  0  0  0  0
 12 13  1  0  0  0  0
 12 34  1  0  0  0  0
 12 35  1  0  0  0  0
 13 14  1  0  0  0  0
 13 36  1  0  0  0  0
 13 37  1  0  0  0  0
 14 38  1  0  0  0  0
 14 39  1  0  0  0  0
 15 17  1  0  0  0  0
 15 40  1  0  0  0  0
 15 41  1  0  0  0  0
 17 18  2  0  0  0  0
 17 19  1  0  0  0  0
 18 21  1  0  0  0  0
 18 42  1  0  0  0  0
 19 22  2  0  0  0  0
 19 43  1  0  0  0  0
 20 24  1  0  0  0  0
 21 23  2  0  0  0  0
 21 44  1  0  0  0  0
 22 23  1  0  0  0  0
 22 45  1  0  0  0  0
 23 25  1  0  0  0  0
 24 26  1  0  0  0  0
 24 27  2  0  0  0  0
 26 28  2  0  0  0  0
 26 46  1  0  0  0  0
 27 47  1  0  0  0  0
 28 29  1  0  0  0  0
 28 48  1  0  0  0  0
 30 31  1  0  0  0  0
 30 50  1  0  0  0  0
 30 51  1  0  0  0  0
 31 52  1  0  0  0  0
 31 53  1  0  0  0  0
 32 54  1  0  0  0  0
 32 55  1  0  0  0  0
 32 56  1  0  0  0  0
M  END
> <PUBCHEM_COMPOUND_CID>
45783493

> <PUBCHEM_CONFORMER_RMSD>
1

> <PUBCHEM_CONFORMER_DIVERSEORDER>
1
64
19
93
14
76
8
83
26
32
91
30
21
60
73
2
41
97
36
28
96
37
101
27
72
80
48
77
105
85
89
17
12
49
95
99
82
10
20
107
42
94
34
58
47
39
33
70
87
74
53
81
88
50
109
98
3
102
78
23
15
69
35
56
11
90
7
18
54
68
67
38
108
59
103
24
55
104
61
44
52
9
16
71
84
57
43
86
106
31
92
66
5
100
4
75
29
62
25
79
63
22
13
40
51
45
6
65
46

> <PUBCHEM_MMFF94_PARTIAL_CHARGES>
38
1 -0.34
10 -0.87
11 0.45
14 0.27
15 0.41
16 0.3
17 -0.14
18 -0.15
19 -0.15
2 -0.34
20 0.46
21 -0.15
22 -0.15
23 -0.14
24 0.05
25 1.16
26 -0.15
27 0.16
28 -0.15
29 0.41
3 -0.34
30 0.37
31 0.28
32 0.28
4 -0.02
42 0.15
43 0.15
44 0.15
45 0.15
46 0.15
47 0.15
48 0.15
49 0.4
5 -0.56
6 -0.81
7 -0.57
8 -0.41
9 -0.62

> <PUBCHEM_EFFECTIVE_ROTOR_COUNT>
10

> <PUBCHEM_PHARMACOPHORE_FEATURES>
9
1 10 donor
1 5 acceptor
1 6 cation
3 7 8 20 cation
3 9 10 29 cation
5 4 7 8 16 20 rings
5 6 11 12 13 14 rings
6 17 18 19 21 22 23 rings
6 9 24 26 27 28 29 rings

> <PUBCHEM_HEAVY_ATOM_COUNT>
32

> <PUBCHEM_ATOM_DEF_STEREO_COUNT>
1

> <PUBCHEM_ATOM_UDEF_STEREO_COUNT>
0

> <PUBCHEM_BOND_DEF_STEREO_COUNT>
0

> <PUBCHEM_BOND_UDEF_STEREO_COUNT>
0

> <PUBCHEM_ISOTOPIC_ATOM_COUNT>
0

> <PUBCHEM_COMPONENT_COUNT>
1

> <PUBCHEM_CACTVS_TAUTO_COUNT>
8

> <PUBCHEM_CONFORMER_ID>
02BA99C500000001

> <PUBCHEM_MMFF94_ENERGY>
67.3154

> <PUBCHEM_FEATURE_SELFOVERLAP>
45.672

> <PUBCHEM_SHAPE_FINGERPRINT>
10454371 7 18338526253212958116
1100329 8 18338790118993105601
11477941 20 18341886398822119596
12156800 1 14856610387644566845
12788726 201 18191022300768572881
13761468 95 17756712927174752470
14931854 50 18114736053830175551
15876981 60 18410019805531857069
15968369 153 18131057278339207640
17492 54 18042679516765600045
18336668 15 17967823738275036468
19319366 153 17534621504930096675
20028762 73 16465018186779028943
20642791 239 18188195504478440053
20642791 35 18263344968321303885
20691752 17 17386828622295015997
20721686 56 18338236089475566584
20775438 99 17621293059826658703
20905425 154 18193267714793985981
21344244 246 17981037836748147975
23559900 14 17968936525804557479
3298306 158 17831851722767725749
5171179 24 18342452694391923561
5969126 39 18342741806300177086

> <PUBCHEM_SHAPE_MULTIPOLES>
600.08
14.79
4.4
1.69
32.18
5.42
0.34
-9.34
-7.93
-2.76
0.64
-0.62
-0.6
-0.25

> <PUBCHEM_SHAPE_SELFOVERLAP>
1289.385

> <PUBCHEM_SHAPE_VOLUME>
334.7

> <PUBCHEM_COORDINATE_TYPE>
2
5
10

$$$$
