51138126
  -OEChem-12032416323D

 58 60  0     1  0  0  0  0  0999 V2000
   -2.4775    2.5047   -0.7345 O   0  0  0  0  0  0  0  0  0  0  0  0
   -5.1637    1.0869   -0.8149 O   0  0  0  0  0  0  0  0  0  0  0  0
   -1.1195   -0.2218   -0.2787 N   0  0  0  0  0  0  0  0  0  0  0  0
    3.7215    1.1603    0.1195 N   0  0  0  0  0  0  0  0  0  0  0  0
   -3.1856    1.4739    1.2290 N   0  0  0  0  0  0  0  0  0  0  0  0
   -0.4344   -1.3519    0.3630 C   0  0  2  0  0  0  0  0  0  0  0  0
    1.0931   -1.2562    0.4329 C   0  0  0  0  0  0  0  0  0  0  0  0
   -0.9745    1.0502    0.4146 C   0  0  1  0  0  0  0  0  0  0  0  0
    1.8495   -0.0626    0.2498 C   0  0  0  0  0  0  0  0  0  0  0  0
   -0.9129   -2.5903   -0.4160 C   0  0  0  0  0  0  0  0  0  0  0  0
    0.1451    1.8946   -0.1908 C   0  0  0  0  0  0  0  0  0  0  0  0
    1.5060    1.3078   -0.0181 C   0  0  0  0  0  0  0  0  0  0  0  0
    3.2447   -0.1079    0.3533 C   0  0  0  0  0  0  0  0  0  0  0  0
   -2.3337   -3.0218   -0.0396 C   0  0  0  0  0  0  0  0  0  0  0  0
    2.6857    2.0197   -0.0989 C   0  0  0  0  0  0  0  0  0  0  0  0
    1.8304   -2.4165    0.7813 C   0  0  0  0  0  0  0  0  0  0  0  0
   -2.2818    1.7555    0.2188 C   0  0  0  0  0  0  0  0  0  0  0  0
    3.9561   -1.2712    0.6516 C   0  0  0  0  0  0  0  0  0  0  0  0
    3.2206   -2.4275    0.8777 C   0  0  0  0  0  0  0  0  0  0  0  0
   -3.3713   -1.9308   -0.3077 C   0  0  0  0  0  0  0  0  0  0  0  0
   -2.7002   -4.2869   -0.8191 C   0  0  0  0  0  0  0  0  0  0  0  0
    5.1154    1.5500    0.1213 C   0  0  0  0  0  0  0  0  0  0  0  0
    5.8102    1.1999   -1.1615 C   0  0  0  0  0  0  0  0  0  0  0  0
   -4.5114    2.0459    1.2858 C   0  0  0  0  0  0  0  0  0  0  0  0
   -5.5237    1.1809    0.5572 C   0  0  0  0  0  0  0  0  0  0  0  0
    6.8991    0.4261   -1.2335 C   0  0  0  0  0  0  0  0  0  0  0  0
   -6.0873    0.2890   -1.5427 C   0  0  0  0  0  0  0  0  0  0  0  0
   -0.7829   -1.4377    1.4014 H   0  0  0  0  0  0  0  0  0  0  0  0
   -0.8015    0.9142    1.4906 H   0  0  0  0  0  0  0  0  0  0  0  0
   -0.8402   -2.4146   -1.4996 H   0  0  0  0  0  0  0  0  0  0  0  0
   -0.2711   -3.4583   -0.2398 H   0  0  0  0  0  0  0  0  0  0  0  0
   -0.0203    2.0560   -1.2654 H   0  0  0  0  0  0  0  0  0  0  0  0
    0.1286    2.8921    0.2699 H   0  0  0  0  0  0  0  0  0  0  0  0
   -0.8491   -0.1407   -1.2581 H   0  0  0  0  0  0  0  0  0  0  0  0
   -2.3630   -3.2705    1.0290 H   0  0  0  0  0  0  0  0  0  0  0  0
    2.8591    3.0702   -0.2926 H   0  0  0  0  0  0  0  0  0  0  0  0
    1.3187   -3.3456    1.0215 H   0  0  0  0  0  0  0  0  0  0  0  0
    5.0372   -1.2835    0.7334 H   0  0  0  0  0  0  0  0  0  0  0  0
    3.7339   -3.3477    1.1438 H   0  0  0  0  0  0  0  0  0  0  0  0
   -3.3295   -1.1483    0.4510 H   0  0  0  0  0  0  0  0  0  0  0  0
   -4.3827   -2.3489   -0.2422 H   0  0  0  0  0  0  0  0  0  0  0  0
   -3.2666   -1.4962   -1.3069 H   0  0  0  0  0  0  0  0  0  0  0  0
   -3.6948   -4.6459   -0.5337 H   0  0  0  0  0  0  0  0  0  0  0  0
   -1.9876   -5.0932   -0.6151 H   0  0  0  0  0  0  0  0  0  0  0  0
   -2.7046   -4.1020   -1.8988 H   0  0  0  0  0  0  0  0  0  0  0  0
    5.1623    2.6351    0.2710 H   0  0  0  0  0  0  0  0  0  0  0  0
    5.5921    1.0897    0.9944 H   0  0  0  0  0  0  0  0  0  0  0  0
   -2.9253    0.8240    1.9651 H   0  0  0  0  0  0  0  0  0  0  0  0
    5.4076    1.6169   -2.0813 H   0  0  0  0  0  0  0  0  0  0  0  0
   -4.7824    2.1449    2.3413 H   0  0  0  0  0  0  0  0  0  0  0  0
   -4.4760    3.0444    0.8367 H   0  0  0  0  0  0  0  0  0  0  0  0
   -5.5487    0.1773    0.9980 H   0  0  0  0  0  0  0  0  0  0  0  0
   -6.5195    1.6300    0.6454 H   0  0  0  0  0  0  0  0  0  0  0  0
    7.3608    0.2153   -2.1919 H   0  0  0  0  0  0  0  0  0  0  0  0
    7.3457   -0.0082   -0.3460 H   0  0  0  0  0  0  0  0  0  0  0  0
   -6.1386   -0.7219   -1.1278 H   0  0  0  0  0  0  0  0  0  0  0  0
   -7.0799    0.7496   -1.5317 H   0  0  0  0  0  0  0  0  0  0  0  0
   -5.7442    0.2244   -2.5787 H   0  0  0  0  0  0  0  0  0  0  0  0
  1 17  2  0  0  0  0
  2 25  1  0  0  0  0
  2 27  1  0  0  0  0
  3  6  1  0  0  0  0
  3  8  1  0  0  0  0
  3 34  1  0  0  0  0
  4 13  1  0  0  0  0
  4 15  1  0  0  0  0
  4 22  1  0  0  0  0
  5 17  1  0  0  0  0
  5 24  1  0  0  0  0
  5 48  1  0  0  0  0
  6  7  1  0  0  0  0
  6 10  1  0  0  0  0
  6 28  1  0  0  0  0
  7  9  2  0  0  0  0
  7 16  1  0  0  0  0
  8 11  1  0  0  0  0
  8 17  1  0  0  0  0
  8 29  1  0  0  0  0
  9 12  1  0  0  0  0
  9 13  1  0  0  0  0
 10 14  1  0  0  0  0
 10 30  1  0  0  0  0
 10 31  1  0  0  0  0
 11 12  1  0  0  0  0
 11 32  1  0  0  0  0
 11 33  1  0  0  0  0
 12 15  2  0  0  0  0
 13 18  2  0  0  0  0
 14 20  1  0  0  0  0
 14 21  1  0  0  0  0
 14 35  1  0  0  0  0
 15 36  1  0  0  0  0
 16 19  2  0  0  0  0
 16 37  1  0  0  0  0
 18 19  1  0  0  0  0
 18 38  1  0  0  0  0
 19 39  1  0  0  0  0
 20 40  1  0  0  0  0
 20 41  1  0  0  0  0
 20 42  1  0  0  0  0
 21 43  1  0  0  0  0
 21 44  1  0  0  0  0
 21 45  1  0  0  0  0
 22 23  1  0  0  0  0
 22 46  1  0  0  0  0
 22 47  1  0  0  0  0
 23 26  2  0  0  0  0
 23 49  1  0  0  0  0
 24 25  1  0  0  0  0
 24 50  1  0  0  0  0
 24 51  1  0  0  0  0
 25 52  1  0  0  0  0
 25 53  1  0  0  0  0
 26 54  1  0  0  0  0
 26 55  1  0  0  0  0
 27 56  1  0  0  0  0
 27 57  1  0  0  0  0
 27 58  1  0  0  0  0
M  END
> <PUBCHEM_COMPOUND_CID>
51138126

> <PUBCHEM_CONFORMER_RMSD>
1

> <PUBCHEM_CONFORMER_DIVERSEORDER>
1
29
14
9
36
11
7
12
19
32
33
27
13
30
8
28
16
38
5
44
34
35
31
41
2
40
26
18
25
15
39
4
10
20
42
22
43
6
24
21
3
23
17
37

> <PUBCHEM_MMFF94_PARTIAL_CHARGES>
31
1 -0.57
11 0.18
12 -0.18
13 -0.15
15 -0.3
16 -0.15
17 0.57
18 -0.15
19 -0.15
2 -0.56
22 0.39
23 -0.29
24 0.3
25 0.28
26 -0.3
27 0.28
3 -0.9
34 0.36
36 0.15
37 0.15
38 0.15
39 0.15
4 0.05
48 0.37
49 0.15
5 -0.73
54 0.15
55 0.15
6 0.41
7 -0.14
8 0.33

> <PUBCHEM_EFFECTIVE_ROTOR_COUNT>
9.8

> <PUBCHEM_PHARMACOPHORE_FEATURES>
11
1 1 acceptor
1 2 acceptor
1 26 hydrophobe
1 3 cation
1 3 donor
1 4 cation
1 5 donor
3 14 20 21 hydrophobe
5 4 9 12 13 15 rings
6 7 9 13 16 18 19 rings
7 3 6 7 8 9 11 12 rings

> <PUBCHEM_HEAVY_ATOM_COUNT>
27

> <PUBCHEM_ATOM_DEF_STEREO_COUNT>
2

> <PUBCHEM_ATOM_UDEF_STEREO_COUNT>
0

> <PUBCHEM_BOND_DEF_STEREO_COUNT>
0

> <PUBCHEM_BOND_UDEF_STEREO_COUNT>
0

> <PUBCHEM_ISOTOPIC_ATOM_COUNT>
0

> <PUBCHEM_COMPONENT_COUNT>
1

> <PUBCHEM_CACTVS_TAUTO_COUNT>
2

> <PUBCHEM_CONFORMER_ID>
030C4E4E00000001

> <PUBCHEM_MMFF94_ENERGY>
55.0963

> <PUBCHEM_FEATURE_SELFOVERLAP>
55.951

> <PUBCHEM_SHAPE_FINGERPRINT>
1100329 8 18338231549447312690
11578080 2 17559377253214597019
12788726 201 17988923349659378337
12954195 1 18271818955548822222
13140716 1 18410285892263433002
13540713 5 18334846230623879562
13583140 156 17024300834517172355
14178342 30 18267285682034758064
14790565 3 18340207371657751009
14840074 17 18259989249731915133
14931854 50 18269254899091924095
15131766 46 15649050584694416988
15629462 23 16701479869942900888
17138139 8 17842807115235662231
19319366 153 17968099668802668530
19591789 44 17691123734289654570
20028762 73 18057592180130909815
21033648 144 18187649055651914561
21236236 1 18339366378532809672
22393880 68 18340485677227853702
23558518 356 18050013482207783544
23559900 14 18200307857197302128
25147074 1 18260821610283600482
283562 15 18121777498383210626
350125 39 18409167714343550930
5104073 3 18408878564766691858
5486654 2 18342176644486337305
59755656 215 18342181063922769588
59755656 520 18412268328285715797

> <PUBCHEM_SHAPE_MULTIPOLES>
528.97
13.17
3.94
1.1
3.16
3.6
0.13
-6.22
4.01
-3.19
0.14
-0.37
-0.1
-1.86

> <PUBCHEM_SHAPE_SELFOVERLAP>
1106.318

> <PUBCHEM_SHAPE_VOLUME>
300.3

> <PUBCHEM_COORDINATE_TYPE>
2
5
10

$$$$
