75537140
  -OEChem-12032416323D

 51 53  0     1  0  0  0  0  0999 V2000
   -4.1585   -1.9309    0.0016 O   0  0  0  0  0  0  0  0  0  0  0  0
   -5.4077    0.7072    1.3331 O   0  0  0  0  0  0  0  0  0  0  0  0
    6.5260    1.4074   -0.7558 O   0  0  0  0  0  0  0  0  0  0  0  0
    0.7184   -0.5454   -0.2412 N   0  0  2  0  0  0  0  0  0  0  0  0
   -2.0185   -1.1231   -0.5344 N   0  0  0  0  0  0  0  0  0  0  0  0
   -3.7911    0.1818   -0.9809 N   0  0  0  0  0  0  0  0  0  0  0  0
    4.7762    0.4324    0.4213 N   0  0  0  0  0  0  0  0  0  0  0  0
   -1.4631    0.0178   -1.2319 C   0  0  2  0  0  0  0  0  0  0  0  0
    1.9190   -0.0341    0.4156 C   0  0  0  0  0  0  0  0  0  0  0  0
   -0.2392    0.5516   -0.4882 C   0  0  0  0  0  0  0  0  0  0  0  0
    0.1002   -1.6107    0.5739 C   0  0  0  0  0  0  0  0  0  0  0  0
   -1.1386   -2.1926   -0.1116 C   0  0  0  0  0  0  0  0  0  0  0  0
   -2.6352    0.9930   -1.3225 C   0  0  0  0  0  0  0  0  0  0  0  0
    2.5552    1.0714   -0.4366 C   0  0  0  0  0  0  0  0  0  0  0  0
    2.9187   -1.1747    0.6474 C   0  0  0  0  0  0  0  0  0  0  0  0
   -3.4163   -1.0693   -0.4510 C   0  0  0  0  0  0  0  0  0  0  0  0
    3.8645    1.5538    0.1850 C   0  0  0  0  0  0  0  0  0  0  0  0
    4.2221   -0.6476    1.2473 C   0  0  0  0  0  0  0  0  0  0  0  0
   -5.1393    0.7005   -1.0515 C   0  0  0  0  0  0  0  0  0  0  0  0
    6.0716    0.4708   -0.0938 C   0  0  0  0  0  0  0  0  0  0  0  0
   -5.4837    1.5269    0.1740 C   0  0  0  0  0  0  0  0  0  0  0  0
    6.9475   -0.7231    0.1908 C   0  0  0  0  0  0  0  0  0  0  0  0
   -5.7281    1.4369    2.5096 C   0  0  0  0  0  0  0  0  0  0  0  0
   -1.1828   -0.3269   -2.2361 H   0  0  0  0  0  0  0  0  0  0  0  0
    1.6571    0.3961    1.3935 H   0  0  0  0  0  0  0  0  0  0  0  0
    0.1680    1.3291   -1.1393 H   0  0  0  0  0  0  0  0  0  0  0  0
   -0.5361    1.0205    0.4594 H   0  0  0  0  0  0  0  0  0  0  0  0
   -0.1769   -1.2240    1.5635 H   0  0  0  0  0  0  0  0  0  0  0  0
    0.7642   -2.4663    0.7183 H   0  0  0  0  0  0  0  0  0  0  0  0
   -0.8557   -2.7541   -1.0096 H   0  0  0  0  0  0  0  0  0  0  0  0
   -1.6806   -2.8705    0.5555 H   0  0  0  0  0  0  0  0  0  0  0  0
   -2.7495    1.4040   -2.3300 H   0  0  0  0  0  0  0  0  0  0  0  0
   -2.5591    1.8115   -0.5997 H   0  0  0  0  0  0  0  0  0  0  0  0
    1.9220    1.9599   -0.5141 H   0  0  0  0  0  0  0  0  0  0  0  0
    2.7499    0.7046   -1.4530 H   0  0  0  0  0  0  0  0  0  0  0  0
    3.1372   -1.6875   -0.2985 H   0  0  0  0  0  0  0  0  0  0  0  0
    2.5474   -1.9203    1.3564 H   0  0  0  0  0  0  0  0  0  0  0  0
    4.3282    2.3023   -0.4654 H   0  0  0  0  0  0  0  0  0  0  0  0
    3.6777    2.0326    1.1537 H   0  0  0  0  0  0  0  0  0  0  0  0
    4.0422   -0.2301    2.2453 H   0  0  0  0  0  0  0  0  0  0  0  0
    4.9258   -1.4733    1.3666 H   0  0  0  0  0  0  0  0  0  0  0  0
   -5.8193   -0.1568   -1.1106 H   0  0  0  0  0  0  0  0  0  0  0  0
   -5.2406    1.2901   -1.9680 H   0  0  0  0  0  0  0  0  0  0  0  0
   -6.5020    1.9195    0.0719 H   0  0  0  0  0  0  0  0  0  0  0  0
   -4.7920    2.3712    0.2761 H   0  0  0  0  0  0  0  0  0  0  0  0
    6.5045   -1.6272   -0.2353 H   0  0  0  0  0  0  0  0  0  0  0  0
    7.0933   -0.8371    1.2682 H   0  0  0  0  0  0  0  0  0  0  0  0
    7.9279   -0.5736   -0.2720 H   0  0  0  0  0  0  0  0  0  0  0  0
   -5.6556    0.7596    3.3648 H   0  0  0  0  0  0  0  0  0  0  0  0
   -6.7506    1.8229    2.4556 H   0  0  0  0  0  0  0  0  0  0  0  0
   -5.0212    2.2594    2.6552 H   0  0  0  0  0  0  0  0  0  0  0  0
  1 16  2  0  0  0  0
  2 21  1  0  0  0  0
  2 23  1  0  0  0  0
  3 20  2  0  0  0  0
  4  9  1  0  0  0  0
  4 10  1  0  0  0  0
  4 11  1  0  0  0  0
  5  8  1  0  0  0  0
  5 12  1  0  0  0  0
  5 16  1  0  0  0  0
  6 13  1  0  0  0  0
  6 16  1  0  0  0  0
  6 19  1  0  0  0  0
  7 17  1  0  0  0  0
  7 18  1  0  0  0  0
  7 20  1  0  0  0  0
  8 10  1  0  0  0  0
  8 13  1  0  0  0  0
  8 24  1  0  0  0  0
  9 14  1  0  0  0  0
  9 15  1  0  0  0  0
  9 25  1  0  0  0  0
 10 26  1  0  0  0  0
 10 27  1  0  0  0  0
 11 12  1  0  0  0  0
 11 28  1  0  0  0  0
 11 29  1  0  0  0  0
 12 30  1  0  0  0  0
 12 31  1  0  0  0  0
 13 32  1  0  0  0  0
 13 33  1  0  0  0  0
 14 17  1  0  0  0  0
 14 34  1  0  0  0  0
 14 35  1  0  0  0  0
 15 18  1  0  0  0  0
 15 36  1  0  0  0  0
 15 37  1  0  0  0  0
 17 38  1  0  0  0  0
 17 39  1  0  0  0  0
 18 40  1  0  0  0  0
 18 41  1  0  0  0  0
 19 21  1  0  0  0  0
 19 42  1  0  0  0  0
 19 43  1  0  0  0  0
 20 22  1  0  0  0  0
 21 44  1  0  0  0  0
 21 45  1  0  0  0  0
 22 46  1  0  0  0  0
 22 47  1  0  0  0  0
 22 48  1  0  0  0  0
 23 49  1  0  0  0  0
 23 50  1  0  0  0  0
 23 51  1  0  0  0  0
M  END
> <PUBCHEM_COMPOUND_CID>
75537140

> <PUBCHEM_CONFORMER_RMSD>
0.8

> <PUBCHEM_CONFORMER_DIVERSEORDER>
1
105
90
79
81
80
87
127
38
106
64
109
101
45
43
99
116
115
31
51
17
37
134
8
113
122
89
57
28
125
120
82
95
92
60
22
42
129
65
107
52
9
12
55
124
136
53
75
70
96
135
67
118
126
49
133
117
119
34
10
40
102
76
131
108
27
47
14
24
4
74
98
21
2
85
121
7
68
54
72
62
71
88
78
6
5
25
104
77
58
97
30
33
29
112
130
20
41
86
11
35
36
26
83
100
61
56
50
63
138
111
73
13
93
23
114
18
59
91
44
132
103
3
66
123
48
15
69
128
137
94
16
19
32
84
46
110
39

> <PUBCHEM_MMFF94_PARTIAL_CHARGES>
21
1 -0.57
10 0.27
11 0.27
12 0.3
13 0.3
16 0.69
17 0.3
18 0.3
19 0.3
2 -0.56
20 0.57
21 0.28
22 0.06
23 0.28
3 -0.57
4 -0.81
5 -0.66
6 -0.66
7 -0.66
8 0.3
9 0.27

> <PUBCHEM_EFFECTIVE_ROTOR_COUNT>
7.4

> <PUBCHEM_PHARMACOPHORE_FEATURES>
7
1 1 acceptor
1 2 acceptor
1 3 acceptor
1 4 cation
5 5 6 8 13 16 rings
6 4 5 8 10 11 12 rings
6 7 9 14 15 17 18 rings

> <PUBCHEM_HEAVY_ATOM_COUNT>
23

> <PUBCHEM_ATOM_DEF_STEREO_COUNT>
1

> <PUBCHEM_ATOM_UDEF_STEREO_COUNT>
0

> <PUBCHEM_BOND_DEF_STEREO_COUNT>
0

> <PUBCHEM_BOND_UDEF_STEREO_COUNT>
0

> <PUBCHEM_ISOTOPIC_ATOM_COUNT>
0

> <PUBCHEM_COMPONENT_COUNT>
1

> <PUBCHEM_CACTVS_TAUTO_COUNT>
1

> <PUBCHEM_CONFORMER_ID>
04809AF400000001

> <PUBCHEM_MMFF94_ENERGY>
47.6061

> <PUBCHEM_FEATURE_SELFOVERLAP>
35.618

> <PUBCHEM_SHAPE_FINGERPRINT>
10 15 17822011991252213417
106641 1 18187369835928563065
10670039 82 16630243607197062841
10803635 8 14476956792275029421
10906281 52 18342188769057226990
11089746 13 17275097340758236448
11315181 36 18201433718517445557
11796584 16 16128649774239043910
12236239 1 18261106400916599422
12390115 104 18341898502245836783
12730499 353 17313104129948196882
12788726 201 18130220450419992280
13914758 101 16200156452468381222
14251752 14 15985106284295025484
14251764 18 18408884057787334351
14341114 176 17967530142974131204
15163728 17 16414930626180601985
15183329 4 18411697669583156390
15188451 53 14418141742452473753
15196674 1 18187635921304443326
15475509 8 18059309677496644028
15716309 27 11602819090331458429
18769570 83 17203328884113919513
19489759 90 15339119052264776231
20281389 69 18409160013246078212
20645477 56 18259977171819382351
21236236 1 18335979865645327279
21267235 1 18114743840542754646
21756936 100 17775569720002014177
21859007 373 15051163472821838674
22079108 93 15213019362843084808
23081809 10 18410001161601278294
23198884 109 17060334132941463077
23402539 116 18201429307311615820
23522609 53 18263384597378506532
23559900 14 18339911736437687432
2838139 119 16988843865381438209
3004659 81 18114174226028886218
3009799 131 12607402174152263010
3545911 37 18261103071868623716
4214541 1 18261666056224072270
4340502 62 15430033236976477264
5104073 3 18261945358189820922
5283173 99 13182746913785489171
542803 24 18272365382515071028
59682541 35 17458634449212737321
5969126 39 9439409003624099875
59755656 520 18342459235732382771
7226269 152 18060421296331330993
9996256 80 18261953041449027874

> <PUBCHEM_SHAPE_MULTIPOLES>
435.8
16.81
1.84
1.38
9.89
0.5
-0.67
-6.29
-3.56
-0.8
-0.14
-2.33
-0.5
-1.48

> <PUBCHEM_SHAPE_SELFOVERLAP>
890.843

> <PUBCHEM_SHAPE_VOLUME>
252.4

> <PUBCHEM_COORDINATE_TYPE>
2
5
10

$$$$
