7049358
  -OEChem-12032416373D

 59 59  0     1  0  0  0  0  0999 V2000
   -1.7908    1.7336    1.5980 O   0  0  0  0  0  0  0  0  0  0  0  0
   -1.2378    3.8636   -1.3244 O   0  0  0  0  0  0  0  0  0  0  0  0
    2.9594    1.8501   -1.3224 O   0  0  0  0  0  0  0  0  0  0  0  0
   -4.2215    0.0489   -1.4647 O   0  0  0  0  0  0  0  0  0  0  0  0
    4.1977    0.6300    2.2510 O   0  0  0  0  0  0  0  0  0  0  0  0
   -2.2651   -0.2617   -0.2589 N   0  0  0  0  0  0  0  0  0  0  0  0
    2.5550    0.0659    0.1226 N   0  0  0  0  0  0  0  0  0  0  0  0
   -4.8433   -2.5933   -1.0876 N   0  0  0  0  0  0  0  0  0  0  0  0
    6.0181    0.3579    0.8773 N   0  0  0  0  0  0  0  0  0  0  0  0
   -1.9271    2.1338    0.2327 C   0  0  2  0  0  0  0  0  0  0  0  0
   -1.6005    0.9438   -0.6899 C   0  0  1  0  0  0  0  0  0  0  0  0
   -0.9922    3.3211   -0.0286 C   0  0  1  0  0  0  0  0  0  0  0  0
    0.4899    2.9319    0.1082 C   0  0  0  0  0  0  0  0  0  0  0  0
    0.8009    1.5676   -0.4386 C   0  0  0  0  0  0  0  0  0  0  0  0
   -0.1255    0.6704   -0.8081 C   0  0  0  0  0  0  0  0  0  0  0  0
    2.2088    1.1934   -0.6014 C   0  0  0  0  0  0  0  0  0  0  0  0
   -4.0166   -1.9301   -0.0764 C   0  0  1  0  0  0  0  0  0  0  0  0
    3.8864   -0.4964    0.1193 C   0  0  2  0  0  0  0  0  0  0  0  0
   -3.5366   -0.6141   -0.6873 C   0  0  0  0  0  0  0  0  0  0  0  0
    3.8811   -2.0052    0.3949 C   0  0  0  0  0  0  0  0  0  0  0  0
   -4.7907   -1.7391    1.2493 C   0  0  0  0  0  0  0  0  0  0  0  0
    3.0429   -2.8407   -0.5943 C   0  0  0  0  0  0  0  0  0  0  0  0
   -3.9054   -1.1353    2.3438 C   0  0  0  0  0  0  0  0  0  0  0  0
   -6.0742   -0.9133    1.1079 C   0  0  0  0  0  0  0  0  0  0  0  0
    4.6815    0.2333    1.1936 C   0  0  0  0  0  0  0  0  0  0  0  0
    3.5336   -2.7018   -2.0361 C   0  0  0  0  0  0  0  0  0  0  0  0
    3.0719   -4.3144   -0.1796 C   0  0  0  0  0  0  0  0  0  0  0  0
   -2.9725    2.4267    0.0770 H   0  0  0  0  0  0  0  0  0  0  0  0
   -1.9582    1.1813   -1.7005 H   0  0  0  0  0  0  0  0  0  0  0  0
   -1.2046    4.1184    0.6941 H   0  0  0  0  0  0  0  0  0  0  0  0
    1.1141    3.6803   -0.3943 H   0  0  0  0  0  0  0  0  0  0  0  0
    0.7633    2.9345    1.1710 H   0  0  0  0  0  0  0  0  0  0  0  0
    0.1715   -0.2836   -1.2393 H   0  0  0  0  0  0  0  0  0  0  0  0
   -1.7910   -0.8531    0.4181 H   0  0  0  0  0  0  0  0  0  0  0  0
   -3.1472   -2.5731    0.1104 H   0  0  0  0  0  0  0  0  0  0  0  0
    4.3451   -0.2871   -0.8540 H   0  0  0  0  0  0  0  0  0  0  0  0
    4.9163   -2.3722    0.3969 H   0  0  0  0  0  0  0  0  0  0  0  0
    3.4994   -2.1808    1.4104 H   0  0  0  0  0  0  0  0  0  0  0  0
   -5.0882   -2.7378    1.5991 H   0  0  0  0  0  0  0  0  0  0  0  0
    1.9988   -2.5071   -0.5536 H   0  0  0  0  0  0  0  0  0  0  0  0
    1.8687   -0.3578    0.7411 H   0  0  0  0  0  0  0  0  0  0  0  0
   -2.0369    2.4942    2.1515 H   0  0  0  0  0  0  0  0  0  0  0  0
   -0.6600    4.6380   -1.4336 H   0  0  0  0  0  0  0  0  0  0  0  0
   -3.6814   -0.0832    2.1489 H   0  0  0  0  0  0  0  0  0  0  0  0
   -4.4135   -1.1845    3.3133 H   0  0  0  0  0  0  0  0  0  0  0  0
   -2.9630   -1.6844    2.4379 H   0  0  0  0  0  0  0  0  0  0  0  0
   -5.8607    0.1142    0.7960 H   0  0  0  0  0  0  0  0  0  0  0  0
   -6.7591   -1.3572    0.3789 H   0  0  0  0  0  0  0  0  0  0  0  0
   -6.6046   -0.8643    2.0654 H   0  0  0  0  0  0  0  0  0  0  0  0
    4.5950   -2.9579   -2.1207 H   0  0  0  0  0  0  0  0  0  0  0  0
    3.3970   -1.6815   -2.4070 H   0  0  0  0  0  0  0  0  0  0  0  0
    2.9720   -3.3651   -2.7029 H   0  0  0  0  0  0  0  0  0  0  0  0
    4.0903   -4.7166   -0.2105 H   0  0  0  0  0  0  0  0  0  0  0  0
    2.4485   -4.9189   -0.8470 H   0  0  0  0  0  0  0  0  0  0  0  0
    2.6878   -4.4397    0.8382 H   0  0  0  0  0  0  0  0  0  0  0  0
   -4.2728   -2.8180   -1.9021 H   0  0  0  0  0  0  0  0  0  0  0  0
   -5.1798   -3.4835   -0.7225 H   0  0  0  0  0  0  0  0  0  0  0  0
    6.6634    0.8130    1.5145 H   0  0  0  0  0  0  0  0  0  0  0  0
    6.4088    0.0050    0.0095 H   0  0  0  0  0  0  0  0  0  0  0  0
  1 10  1  0  0  0  0
  1 42  1  0  0  0  0
  2 12  1  0  0  0  0
  2 43  1  0  0  0  0
  3 16  2  0  0  0  0
  4 19  2  0  0  0  0
  5 25  2  0  0  0  0
  6 11  1  0  0  0  0
  6 19  1  0  0  0  0
  6 34  1  0  0  0  0
  7 16  1  0  0  0  0
  7 18  1  0  0  0  0
  7 41  1  0  0  0  0
  8 17  1  0  0  0  0
  8 56  1  0  0  0  0
  8 57  1  0  0  0  0
  9 25  1  0  0  0  0
  9 58  1  0  0  0  0
  9 59  1  0  0  0  0
 10 11  1  0  0  0  0
 10 12  1  0  0  0  0
 10 28  1  0  0  0  0
 11 15  1  0  0  0  0
 11 29  1  0  0  0  0
 12 13  1  0  0  0  0
 12 30  1  0  0  0  0
 13 14  1  0  0  0  0
 13 31  1  0  0  0  0
 13 32  1  0  0  0  0
 14 15  2  0  0  0  0
 14 16  1  0  0  0  0
 15 33  1  0  0  0  0
 17 19  1  0  0  0  0
 17 21  1  0  0  0  0
 17 35  1  0  0  0  0
 18 20  1  0  0  0  0
 18 25  1  0  0  0  0
 18 36  1  0  0  0  0
 20 22  1  0  0  0  0
 20 37  1  0  0  0  0
 20 38  1  0  0  0  0
 21 23  1  0  0  0  0
 21 24  1  0  0  0  0
 21 39  1  0  0  0  0
 22 26  1  0  0  0  0
 22 27  1  0  0  0  0
 22 40  1  0  0  0  0
 23 44  1  0  0  0  0
 23 45  1  0  0  0  0
 23 46  1  0  0  0  0
 24 47  1  0  0  0  0
 24 48  1  0  0  0  0
 24 49  1  0  0  0  0
 26 50  1  0  0  0  0
 26 51  1  0  0  0  0
 26 52  1  0  0  0  0
 27 53  1  0  0  0  0
 27 54  1  0  0  0  0
 27 55  1  0  0  0  0
M  END
> <PUBCHEM_COMPOUND_CID>
7049358

> <PUBCHEM_CONFORMER_RMSD>
1

> <PUBCHEM_CONFORMER_DIVERSEORDER>
1
80
51
18
95
19
78
88
91
22
87
76
102
29
60
45
89
33
31
104
48
4
28
103
93
74
27
113
69
64
8
46
107
108
6
12
98
73
106
24
56
90
61
82
68
32
47
21
85
110
92
101
109
79
72
42
14
41
94
30
112
86
70
43
53
96
38
57
17
99
97
13
3
63
34
11
59
20
105
83
25
67
5
10
81
71
84
58
40
23
9
54
62
7
44
26
100
39
49
37
65
16
52
77
75
2
50
35
15
111
55
36
66

> <PUBCHEM_MMFF94_PARTIAL_CHARGES>
29
1 -0.68
10 0.28
11 0.44
12 0.28
13 0.14
14 -0.12
15 -0.29
16 0.62
17 0.33
18 0.36
19 0.57
2 -0.68
25 0.57
3 -0.57
33 0.15
34 0.37
4 -0.57
41 0.37
42 0.4
43 0.4
5 -0.57
56 0.36
57 0.36
58 0.37
59 0.37
6 -0.73
7 -0.73
8 -0.99
9 -0.8

> <PUBCHEM_EFFECTIVE_ROTOR_COUNT>
10.8

> <PUBCHEM_PHARMACOPHORE_FEATURES>
15
1 1 acceptor
1 1 donor
1 2 acceptor
1 2 donor
1 3 acceptor
1 4 acceptor
1 5 acceptor
1 6 donor
1 7 donor
1 8 cation
1 8 donor
1 9 donor
3 21 23 24 hydrophobe
3 22 26 27 hydrophobe
6 10 11 12 13 14 15 rings

> <PUBCHEM_HEAVY_ATOM_COUNT>
27

> <PUBCHEM_ATOM_DEF_STEREO_COUNT>
5

> <PUBCHEM_ATOM_UDEF_STEREO_COUNT>
0

> <PUBCHEM_BOND_DEF_STEREO_COUNT>
0

> <PUBCHEM_BOND_UDEF_STEREO_COUNT>
0

> <PUBCHEM_ISOTOPIC_ATOM_COUNT>
0

> <PUBCHEM_COMPONENT_COUNT>
1

> <PUBCHEM_CACTVS_TAUTO_COUNT>
8

> <PUBCHEM_CONFORMER_ID>
006B908E00000001

> <PUBCHEM_MMFF94_ENERGY>
44.791

> <PUBCHEM_FEATURE_SELFOVERLAP>
76.13

> <PUBCHEM_SHAPE_FINGERPRINT>
10928967 22 18196951979931669054
11135609 12 18334581200411741576
11552529 35 17988077781898544160
11595378 159 16343713109806611507
11796584 16 17749379378318139091
12422481 6 18057624083273785843
12553582 1 18339930418906719141
12596602 18 17060058210972909627
13140716 1 17983009247953106038
13544653 18 18409448102825508543
13583140 156 17845072018609945140
13911882 115 18342739598871804470
14429115 67 18341058457955428723
14840074 17 18060135470220134934
14863182 85 18411140273107150502
15927050 60 17403173098686506716
17492 89 18337671889285962822
1813 80 18337685186588685261
19301679 30 18337122206866061011
19958102 18 17829033330652341661
20775530 9 18270964522939163478
21315759 227 18113334232397624055
21315764 119 15069441797003581051
22907989 373 12974186098247533537
23559900 14 18053930763829721528
3004659 81 17894907464315503124
3117164 225 17986687973626547025
3737641 26 18272375230975788106
392239 28 17844508076592353984
463206 1 18264488575519023423
5104073 3 18199179603916783458
56633871 153 18271814506084607535
613672 6 18335133206989160459
9709674 26 18196644099885379644

> <PUBCHEM_SHAPE_MULTIPOLES>
506.38
12.34
4.55
1.7
2.79
0.43
0.49
9.56
3.91
-1.27
-1.32
0.16
0.3
1.48

> <PUBCHEM_SHAPE_SELFOVERLAP>
1013.207

> <PUBCHEM_SHAPE_VOLUME>
296.5

> <PUBCHEM_COORDINATE_TYPE>
2
5
10

$$$$
