45783728
  -OEChem-12032416263D

 45 48  0     1  0  0  0  0  0999 V2000
   -0.8618   -0.8517    2.0430 O   0  0  0  0  0  0  0  0  0  0  0  0
    2.3036    3.6705   -1.1587 O   0  0  0  0  0  0  0  0  0  0  0  0
    2.0433    4.3528    0.9938 O   0  0  0  0  0  0  0  0  0  0  0  0
   -3.2105   -0.4853   -0.5450 N   0  0  1  0  0  0  0  0  0  0  0  0
   -0.3388   -1.6331    0.0101 N   0  0  0  0  0  0  0  0  0  0  0  0
    0.5362   -0.9290    2.0032 N   0  0  0  0  0  0  0  0  0  0  0  0
    3.6870   -1.7751   -1.5197 N   0  0  0  0  0  0  0  0  0  0  0  0
    1.4472   -1.1796   -1.9954 N   0  0  0  0  0  0  0  0  0  0  0  0
    4.3743   -2.2475    0.7412 N   0  0  0  0  0  0  0  0  0  0  0  0
   -2.7963   -1.2966    0.6172 C   0  0  1  0  0  0  0  0  0  0  0  0
   -3.3440   -2.7058    0.3256 C   0  0  0  0  0  0  0  0  0  0  0  0
   -4.1014   -2.5743   -0.9882 C   0  0  0  0  0  0  0  0  0  0  0  0
   -4.4346   -1.0978   -1.0615 C   0  0  0  0  0  0  0  0  0  0  0  0
   -3.3957    0.9243   -0.2249 C   0  0  0  0  0  0  0  0  0  0  0  0
   -1.2972   -1.2847    0.8308 C   0  0  0  0  0  0  0  0  0  0  0  0
   -2.0847    1.6622   -0.1634 C   0  0  0  0  0  0  0  0  0  0  0  0
   -1.7076    2.3168    1.0093 C   0  0  0  0  0  0  0  0  0  0  0  0
   -1.2473    1.6913   -1.2787 C   0  0  0  0  0  0  0  0  0  0  0  0
    0.7676   -1.3977    0.7733 C   0  0  0  0  0  0  0  0  0  0  0  0
   -0.4933    3.0004    1.0666 C   0  0  0  0  0  0  0  0  0  0  0  0
   -0.0330    2.3751   -1.2212 C   0  0  0  0  0  0  0  0  0  0  0  0
    0.3442    3.0295   -0.0486 C   0  0  0  0  0  0  0  0  0  0  0  0
    2.0910   -1.6430    0.2774 C   0  0  0  0  0  0  0  0  0  0  0  0
    2.4420   -1.5439   -1.0535 C   0  0  0  0  0  0  0  0  0  0  0  0
    3.1084   -2.0018    1.1379 C   0  0  0  0  0  0  0  0  0  0  0  0
    1.6108    3.7416    0.0111 C   0  0  0  0  0  0  0  0  0  0  0  0
    4.5905   -2.1177   -0.5816 C   0  0  0  0  0  0  0  0  0  0  0  0
   -3.2854   -0.9401    1.5348 H   0  0  0  0  0  0  0  0  0  0  0  0
   -2.5709   -3.4784    0.2535 H   0  0  0  0  0  0  0  0  0  0  0  0
   -4.0398   -3.0018    1.1203 H   0  0  0  0  0  0  0  0  0  0  0  0
   -4.9927   -3.2078   -1.0173 H   0  0  0  0  0  0  0  0  0  0  0  0
   -3.4508   -2.8617   -1.8236 H   0  0  0  0  0  0  0  0  0  0  0  0
   -4.6512   -0.7851   -2.0876 H   0  0  0  0  0  0  0  0  0  0  0  0
   -5.3018   -0.8716   -0.4281 H   0  0  0  0  0  0  0  0  0  0  0  0
   -3.9814    1.4126   -1.0166 H   0  0  0  0  0  0  0  0  0  0  0  0
   -3.9777    1.0589    0.6962 H   0  0  0  0  0  0  0  0  0  0  0  0
   -2.3491    2.3004    1.8863 H   0  0  0  0  0  0  0  0  0  0  0  0
   -1.5295    1.1892   -2.2004 H   0  0  0  0  0  0  0  0  0  0  0  0
   -0.2171    3.5029    1.9899 H   0  0  0  0  0  0  0  0  0  0  0  0
    0.5885    2.3717   -2.1122 H   0  0  0  0  0  0  0  0  0  0  0  0
    2.9522   -2.1182    2.2064 H   0  0  0  0  0  0  0  0  0  0  0  0
    1.7483   -1.1069   -2.9599 H   0  0  0  0  0  0  0  0  0  0  0  0
    0.4899   -1.4625   -1.8291 H   0  0  0  0  0  0  0  0  0  0  0  0
    5.5986   -2.3091   -0.9282 H   0  0  0  0  0  0  0  0  0  0  0  0
    3.1560    4.1533   -1.1079 H   0  0  0  0  0  0  0  0  0  0  0  0
  1  6  1  0  0  0  0
  1 15  1  0  0  0  0
  2 26  1  0  0  0  0
  2 45  1  0  0  0  0
  3 26  2  0  0  0  0
  4 10  1  0  0  0  0
  4 13  1  0  0  0  0
  4 14  1  0  0  0  0
  5 15  2  0  0  0  0
  5 19  1  0  0  0  0
  6 19  2  0  0  0  0
  7 24  2  0  0  0  0
  7 27  1  0  0  0  0
  8 24  1  0  0  0  0
  8 42  1  0  0  0  0
  8 43  1  0  0  0  0
  9 25  1  0  0  0  0
  9 27  2  0  0  0  0
 10 11  1  0  0  0  0
 10 15  1  0  0  0  0
 10 28  1  0  0  0  0
 11 12  1  0  0  0  0
 11 29  1  0  0  0  0
 11 30  1  0  0  0  0
 12 13  1  0  0  0  0
 12 31  1  0  0  0  0
 12 32  1  0  0  0  0
 13 33  1  0  0  0  0
 13 34  1  0  0  0  0
 14 16  1  0  0  0  0
 14 35  1  0  0  0  0
 14 36  1  0  0  0  0
 16 17  2  0  0  0  0
 16 18  1  0  0  0  0
 17 20  1  0  0  0  0
 17 37  1  0  0  0  0
 18 21  2  0  0  0  0
 18 38  1  0  0  0  0
 19 23  1  0  0  0  0
 20 22  2  0  0  0  0
 20 39  1  0  0  0  0
 21 22  1  0  0  0  0
 21 40  1  0  0  0  0
 22 26  1  0  0  0  0
 23 24  1  0  0  0  0
 23 25  2  0  0  0  0
 25 41  1  0  0  0  0
 27 44  1  0  0  0  0
M  END
> <PUBCHEM_COMPOUND_CID>
45783728

> <PUBCHEM_CONFORMER_RMSD>
0.8

> <PUBCHEM_CONFORMER_DIVERSEORDER>
1
89
109
57
37
112
81
87
107
41
32
17
127
104
92
2
83
77
99
21
103
93
16
74
95
84
3
94
106
119
55
20
125
102
79
61
34
5
88
101
76
117
42
15
114
108
62
44
105
100
90
59
111
10
78
121
126
47
12
53
65
75
6
29
72
124
50
118
86
4
58
60
25
113
40
54
116
8
33
96
68
28
9
85
13
45
69
110
66
23
115
27
64
73
122
22
82
56
97
98
24
49
51
120
18
46
80
26
63
7
48
67
123
71
30
43
91
52
128
35
11
39
38
19
31
70
14
36

> <PUBCHEM_MMFF94_PARTIAL_CHARGES>
34
1 -0.02
10 0.45
13 0.27
14 0.41
15 0.3
16 -0.14
17 -0.15
18 -0.15
19 0.46
2 -0.65
20 -0.15
21 -0.15
22 0.09
23 0.05
24 0.41
25 0.16
26 0.63
27 0.47
3 -0.57
37 0.15
38 0.15
39 0.15
4 -0.81
40 0.15
41 0.15
42 0.4
43 0.4
44 0.15
45 0.5
5 -0.57
6 -0.41
7 -0.62
8 -0.9
9 -0.62

> <PUBCHEM_EFFECTIVE_ROTOR_COUNT>
6

> <PUBCHEM_PHARMACOPHORE_FEATURES>
12
1 2 acceptor
1 3 acceptor
1 4 cation
1 8 donor
3 2 3 26 anion
3 5 6 19 cation
3 7 8 24 cation
3 7 9 27 cation
5 1 5 6 15 19 rings
5 4 10 11 12 13 rings
6 16 17 18 20 21 22 rings
6 7 9 23 24 25 27 rings

> <PUBCHEM_HEAVY_ATOM_COUNT>
27

> <PUBCHEM_ATOM_DEF_STEREO_COUNT>
1

> <PUBCHEM_ATOM_UDEF_STEREO_COUNT>
0

> <PUBCHEM_BOND_DEF_STEREO_COUNT>
0

> <PUBCHEM_BOND_UDEF_STEREO_COUNT>
0

> <PUBCHEM_ISOTOPIC_ATOM_COUNT>
0

> <PUBCHEM_COMPONENT_COUNT>
1

> <PUBCHEM_CACTVS_TAUTO_COUNT>
11

> <PUBCHEM_CONFORMER_ID>
02BA9AB000000001

> <PUBCHEM_MMFF94_ENERGY>
68.7426

> <PUBCHEM_FEATURE_SELFOVERLAP>
61.091

> <PUBCHEM_SHAPE_FINGERPRINT>
10190108 129 16680072743808081363
107951 10 16665698724827593048
1100329 8 18338802204677642129
11524674 6 17622718035554625816
12156800 1 15361024562643601724
12173636 292 17332239797535649277
12539773 59 17610365751980104709
12788726 201 18046919181793587030
128993 33 16610552182339473704
13149001 5 18191560018359102493
133893 2 18194422192727472729
13761468 95 17104834430934956854
14081887 123 18049714127682685074
14790565 3 17618783557374251497
14910302 57 17842556236915586006
14955137 171 18122930650274225897
15876981 60 18263659381033073198
15961568 22 18410846677896182864
16719943 64 17688310514306391324
16728300 4 17105622127746866168
17492 54 17825937127778752437
17818456 19 17613702731480177074
1813 80 18201446891209087595
19319366 153 17389668480029394755
19930381 70 18124034791043173300
20028762 73 16539059290850180239
20600515 1 17834631026095983361
20691752 17 17241032315073162797
20775438 99 17688849249123993567
20905425 154 18265614479968123333
21344244 246 17908698780270388118
23419403 2 17971444485772978470
23557571 272 18199181802365460534
23559900 14 18339909502901608755
238918 7 17401211560829568242
3298306 158 17977944914443869165
4017518 198 17693657430952300812
4280585 95 18265314171238150730
59755656 215 17687458384231102975
7471813 234 18409165528327049510

> <PUBCHEM_SHAPE_MULTIPOLES>
508.15
7.22
5.34
1.6
1.47
6.22
0.04
-7.43
-1.86
2.25
0.16
0.42
-0.21
-0.24

> <PUBCHEM_SHAPE_SELFOVERLAP>
1113.421

> <PUBCHEM_SHAPE_VOLUME>
274.2

> <PUBCHEM_COORDINATE_TYPE>
2
5
10

$$$$
