11911859
  -OEChem-12032416333D

 58 62  0     1  0  0  0  0  0999 V2000
    4.8019    2.2457   -0.8796 S   0  0  0  0  0  0  0  0  0  0  0  0
    5.3981   -0.3876   -2.0011 S   0  0  0  0  0  0  0  0  0  0  0  0
    0.8059    1.2477    1.4341 O   0  0  0  0  0  0  0  0  0  0  0  0
    2.8009   -1.0917    1.9935 O   0  0  0  0  0  0  0  0  0  0  0  0
    5.3205    3.1755    0.1054 O   0  0  0  0  0  0  0  0  0  0  0  0
    4.7208    2.6314   -2.2754 O   0  0  0  0  0  0  0  0  0  0  0  0
    3.2806    1.6819   -0.3790 N   0  0  0  0  0  0  0  0  0  0  0  0
    0.1763   -2.3086    0.9039 N   0  0  0  0  0  0  0  0  0  0  0  0
   -1.9369   -1.5231    0.2528 N   0  0  0  0  0  0  0  0  0  0  0  0
   -1.1187   -3.6555   -0.5157 N   0  0  0  0  0  0  0  0  0  0  0  0
   -6.9232    2.3696   -0.1556 N   0  0  0  0  0  0  0  0  0  0  0  0
    2.5094   -0.2999    0.8299 C   0  0  1  0  0  0  0  0  0  0  0  0
    1.0161   -0.0372    0.8252 C   0  0  1  0  0  0  0  0  0  0  0  0
    3.1254    1.0715    0.9640 C   0  0  2  0  0  0  0  0  0  0  0  0
    0.4451   -1.1298    1.6982 C   0  0  2  0  0  0  0  0  0  0  0  0
    2.0770    1.8339    1.7506 C   0  0  0  0  0  0  0  0  0  0  0  0
    1.5755   -1.4006    2.6737 C   0  0  0  0  0  0  0  0  0  0  0  0
   -0.9945   -2.5014    0.1924 C   0  0  0  0  0  0  0  0  0  0  0  0
    5.7784    0.7739   -0.8075 C   0  0  0  0  0  0  0  0  0  0  0  0
    6.7922    0.3666    0.0208 C   0  0  0  0  0  0  0  0  0  0  0  0
   -3.0656   -1.7439   -0.4524 C   0  0  0  0  0  0  0  0  0  0  0  0
   -2.2727   -3.8109   -1.1974 C   0  0  0  0  0  0  0  0  0  0  0  0
    7.2716   -0.9289   -0.3287 C   0  0  0  0  0  0  0  0  0  0  0  0
   -3.2910   -2.8798   -1.2029 C   0  0  0  0  0  0  0  0  0  0  0  0
    6.6005   -1.4543   -1.4109 C   0  0  0  0  0  0  0  0  0  0  0  0
   -4.0518   -0.6928   -0.3754 C   0  0  0  0  0  0  0  0  0  0  0  0
   -5.4104   -0.9964   -0.4882 C   0  0  0  0  0  0  0  0  0  0  0  0
   -3.6508    0.6320   -0.1897 C   0  0  0  0  0  0  0  0  0  0  0  0
   -5.9596    1.3422   -0.2299 C   0  0  0  0  0  0  0  0  0  0  0  0
   -6.3630    0.0199   -0.4155 C   0  0  0  0  0  0  0  0  0  0  0  0
   -4.6035    1.6482   -0.1169 C   0  0  0  0  0  0  0  0  0  0  0  0
   -6.6758    3.5509    0.6470 C   0  0  0  0  0  0  0  0  0  0  0  0
   -8.1789    2.2512   -0.8696 C   0  0  0  0  0  0  0  0  0  0  0  0
    2.8433   -0.8679   -0.0432 H   0  0  0  0  0  0  0  0  0  0  0  0
    0.5970    0.0107   -0.1850 H   0  0  0  0  0  0  0  0  0  0  0  0
    4.0753    1.0735    1.5065 H   0  0  0  0  0  0  0  0  0  0  0  0
   -0.4475   -0.8269    2.2576 H   0  0  0  0  0  0  0  0  0  0  0  0
    2.2310    1.7126    2.8284 H   0  0  0  0  0  0  0  0  0  0  0  0
    2.0474    2.9043    1.5251 H   0  0  0  0  0  0  0  0  0  0  0  0
    1.5108   -0.7346    3.5412 H   0  0  0  0  0  0  0  0  0  0  0  0
    1.6130   -2.4325    3.0363 H   0  0  0  0  0  0  0  0  0  0  0  0
    2.6105    1.3711   -1.0936 H   0  0  0  0  0  0  0  0  0  0  0  0
    0.8925   -3.0198    0.8097 H   0  0  0  0  0  0  0  0  0  0  0  0
    7.1766    0.9608    0.8396 H   0  0  0  0  0  0  0  0  0  0  0  0
   -2.3560   -4.7330   -1.7626 H   0  0  0  0  0  0  0  0  0  0  0  0
    8.0678   -1.4491    0.1878 H   0  0  0  0  0  0  0  0  0  0  0  0
   -4.1815   -3.0582   -1.7917 H   0  0  0  0  0  0  0  0  0  0  0  0
    6.7587   -2.4136   -1.8830 H   0  0  0  0  0  0  0  0  0  0  0  0
   -5.7700   -2.0153   -0.6057 H   0  0  0  0  0  0  0  0  0  0  0  0
   -2.6013    0.9064   -0.1113 H   0  0  0  0  0  0  0  0  0  0  0  0
   -7.4118   -0.2538   -0.4895 H   0  0  0  0  0  0  0  0  0  0  0  0
   -4.2558    2.6690    0.0140 H   0  0  0  0  0  0  0  0  0  0  0  0
   -7.6097    4.0770    0.8746 H   0  0  0  0  0  0  0  0  0  0  0  0
   -6.2169    3.2938    1.6084 H   0  0  0  0  0  0  0  0  0  0  0  0
   -6.0246    4.2522    0.1147 H   0  0  0  0  0  0  0  0  0  0  0  0
   -8.8783    1.6114   -0.3212 H   0  0  0  0  0  0  0  0  0  0  0  0
   -8.6559    3.2298   -0.9944 H   0  0  0  0  0  0  0  0  0  0  0  0
   -8.0317    1.8426   -1.8758 H   0  0  0  0  0  0  0  0  0  0  0  0
  1  5  2  0  0  0  0
  1  6  2  0  0  0  0
  1  7  1  0  0  0  0
  1 19  1  0  0  0  0
  2 19  1  0  0  0  0
  2 25  1  0  0  0  0
  3 13  1  0  0  0  0
  3 16  1  0  0  0  0
  4 12  1  0  0  0  0
  4 17  1  0  0  0  0
  7 14  1  0  0  0  0
  7 42  1  0  0  0  0
  8 15  1  0  0  0  0
  8 18  1  0  0  0  0
  8 43  1  0  0  0  0
  9 18  1  0  0  0  0
  9 21  2  0  0  0  0
 10 18  2  0  0  0  0
 10 22  1  0  0  0  0
 11 29  1  0  0  0  0
 11 32  1  0  0  0  0
 11 33  1  0  0  0  0
 12 13  1  0  0  0  0
 12 14  1  0  0  0  0
 12 34  1  0  0  0  0
 13 15  1  0  0  0  0
 13 35  1  0  0  0  0
 14 16  1  0  0  0  0
 14 36  1  0  0  0  0
 15 17  1  0  0  0  0
 15 37  1  0  0  0  0
 16 38  1  0  0  0  0
 16 39  1  0  0  0  0
 17 40  1  0  0  0  0
 17 41  1  0  0  0  0
 19 20  2  0  0  0  0
 20 23  1  0  0  0  0
 20 44  1  0  0  0  0
 21 24  1  0  0  0  0
 21 26  1  0  0  0  0
 22 24  2  0  0  0  0
 22 45  1  0  0  0  0
 23 25  2  0  0  0  0
 23 46  1  0  0  0  0
 24 47  1  0  0  0  0
 25 48  1  0  0  0  0
 26 27  2  0  0  0  0
 26 28  1  0  0  0  0
 27 30  1  0  0  0  0
 27 49  1  0  0  0  0
 28 31  2  0  0  0  0
 28 50  1  0  0  0  0
 29 30  2  0  0  0  0
 29 31  1  0  0  0  0
 30 51  1  0  0  0  0
 31 52  1  0  0  0  0
 32 53  1  0  0  0  0
 32 54  1  0  0  0  0
 32 55  1  0  0  0  0
 33 56  1  0  0  0  0
 33 57  1  0  0  0  0
 33 58  1  0  0  0  0
M  END
> <PUBCHEM_COMPOUND_CID>
11911859

> <PUBCHEM_CONFORMER_RMSD>
1

> <PUBCHEM_CONFORMER_DIVERSEORDER>
1
140
97
6
15
152
66
25
58
96
22
145
109
63
151
39
94
77
46
64
52
7
86
41
123
48
69
118
133
50
37
31
75
112
122
137
93
101
141
148
159
135
45
72
131
95
136
79
127
81
130
59
103
155
110
147
26
78
28
83
98
153
60
71
157
119
124
38
114
44
92
104
108
14
154
126
73
70
80
125
53
34
146
84
111
142
61
67
54
116
143
99
107
117
89
62
121
16
36
33
85
51
76
158
12
35
82
149
11
105
88
2
102
156
139
57
134
21
13
132
30
160
47
128
43
150
129
17
91
144
120
49
74
8
20
106
42
87
56
10
40
32
23
9
5
138
100
55
24
115
113
19
65
3
4
27
18
29
90
68

> <PUBCHEM_MMFF94_PARTIAL_CHARGES>
43
1 1.5
10 -0.62
11 -0.84
12 0.28
13 0.28
14 0.36
15 0.37
16 0.28
17 0.28
18 0.72
19 -0.02
2 -0.08
20 -0.15
21 0.31
22 0.16
23 -0.15
24 -0.15
25 -0.11
27 -0.15
28 -0.15
29 0.1
3 -0.56
30 -0.15
31 -0.15
32 0.37
33 0.37
4 -0.56
42 0.42
43 0.4
44 0.15
45 0.15
46 0.15
47 0.15
48 0.15
49 0.15
5 -0.65
50 0.15
51 0.15
52 0.15
6 -0.65
7 -0.91
8 -0.87
9 -0.62

> <PUBCHEM_EFFECTIVE_ROTOR_COUNT>
8.2

> <PUBCHEM_PHARMACOPHORE_FEATURES>
14
1 11 cation
1 3 acceptor
1 4 acceptor
1 5 acceptor
1 6 acceptor
1 7 donor
1 8 donor
1 9 acceptor
4 8 9 10 18 cation
5 2 19 20 23 25 rings
5 3 12 13 14 16 rings
5 4 12 13 15 17 rings
6 26 27 28 29 30 31 rings
6 9 10 18 21 22 24 rings

> <PUBCHEM_HEAVY_ATOM_COUNT>
33

> <PUBCHEM_ATOM_DEF_STEREO_COUNT>
4

> <PUBCHEM_ATOM_UDEF_STEREO_COUNT>
0

> <PUBCHEM_BOND_DEF_STEREO_COUNT>
0

> <PUBCHEM_BOND_UDEF_STEREO_COUNT>
0

> <PUBCHEM_ISOTOPIC_ATOM_COUNT>
0

> <PUBCHEM_COMPONENT_COUNT>
1

> <PUBCHEM_CACTVS_TAUTO_COUNT>
3

> <PUBCHEM_CONFORMER_ID>
00B5C2B300000001

> <PUBCHEM_MMFF94_ENERGY>
102.3698

> <PUBCHEM_FEATURE_SELFOVERLAP>
71.768

> <PUBCHEM_SHAPE_FINGERPRINT>
10483366 6 18270967834632897850
10670039 82 18410569583358722557
10674148 151 18334014987163909494
10794284 68 11026673898614053456
10816530 90 18336541608496452826
10864689 126 18342730789709751657
11146851 88 8718533997010818305
11621639 336 17824821148925344596
11720765 8 17489585680170753952
11973864 155 17699305274271061849
1200032 147 18263087630638615739
12098696 120 18410575046678715129
13782708 43 16628557144938124303
13944108 23 17980199686992348369
14257110 125 18409448073240726797
14289585 56 17530962450065252956
14664723 55 18410016512073272853
14840074 17 17022901289327390581
15183329 4 18342746238759043998
15297060 5 18202006499909535601
15728490 51 9583514313712706160
16992727 255 18413111641014626800
19377110 9 9439410150796969138
20715895 44 18411143528666052062
21315764 119 18343305868618414662
21458453 9 12901837171971779149
21781055 127 17702665428790721955
22864921 10 17969780787595459237
23559900 14 17703221931407569858
24771750 20 18058732391211882375
3459 83 18342750611051588690
3610482 184 18043261334309672590
38570 142 18040718069103897682
397830 11 7997702982374989474
4058900 60 18337112259822147363
4098825 35 18270683185396118534
4149490 64 13254213039666867479
4173938 77 17241052118524398261
437795 163 10015568524058714904
4394409 98 17561367292326532766
444735 79 8358253727158573236
4461854 278 11747233324301819473
4756261 7 8213559083591414162
504579 68 18337377319359674991
508180 173 18272088309822207385
5252454 2 18262783147427407641
613672 6 14907632245779856694
6443934 186 9007063452935165462

> <PUBCHEM_SHAPE_MULTIPOLES>
638.44
21.44
4.15
1.81
7.19
0.79
0.54
-15.41
-9.54
4.09
-0.9
-2.52
0.22
-1.1

> <PUBCHEM_SHAPE_SELFOVERLAP>
1361.504

> <PUBCHEM_SHAPE_VOLUME>
358.3

> <PUBCHEM_COORDINATE_TYPE>
2
5
10

$$$$
