45360943
  -OEChem-12032416343D

 73 77  0     1  0  0  0  0  0999 V2000
    2.2111   -1.1794   -1.4601 O   0  0  0  0  0  0  0  0  0  0  0  0
   -4.1909    1.6464   -2.0389 O   0  0  0  0  0  0  0  0  0  0  0  0
  -10.9165   -2.0520    1.0352 O   0  0  0  0  0  0  0  0  0  0  0  0
    3.6637    0.1439    0.3924 N   0  0  1  0  0  0  0  0  0  0  0  0
    0.4651    1.8989    0.1101 N   0  0  1  0  0  0  0  0  0  0  0  0
    0.2171   -0.9361   -0.3641 N   0  0  0  0  0  0  0  0  0  0  0  0
    6.4129   -1.1305   -0.5532 N   0  0  0  0  0  0  0  0  0  0  0  0
    6.8308   -0.4305    1.5145 N   0  0  0  0  0  0  0  0  0  0  0  0
   -5.6174    1.1643   -0.2722 N   0  0  0  0  0  0  0  0  0  0  0  0
    1.6954    1.4960    0.8269 C   0  0  1  0  0  0  0  0  0  0  0  0
    2.2147    0.0392    0.6470 C   0  0  1  0  0  0  0  0  0  0  0  0
    2.9368    2.3273    0.4535 C   0  0  0  0  0  0  0  0  0  0  0  0
    4.0920    1.4485    0.8844 C   0  0  0  0  0  0  0  0  0  0  0  0
   -0.7598    1.1595    0.5245 C   0  0  2  0  0  0  0  0  0  0  0  0
    1.5775   -0.7361   -0.5032 C   0  0  0  0  0  0  0  0  0  0  0  0
   -0.5704   -0.3592    0.7073 C   0  0  0  0  0  0  0  0  0  0  0  0
    4.4336   -0.9442    0.9815 C   0  0  0  0  0  0  0  0  0  0  0  0
   -1.8893    1.3655   -0.5066 C   0  0  0  0  0  0  0  0  0  0  0  0
    0.2462    3.3511    0.2208 C   0  0  0  0  0  0  0  0  0  0  0  0
    5.8988   -0.8253    0.6763 C   0  0  0  0  0  0  0  0  0  0  0  0
   -3.2478    1.1577    0.1368 C   0  0  0  0  0  0  0  0  0  0  0  0
   -4.3755    1.3543   -0.8604 C   0  0  0  0  0  0  0  0  0  0  0  0
    7.7669   -0.9184   -0.5052 C   0  0  0  0  0  0  0  0  0  0  0  0
    8.0029   -0.4820    0.7955 C   0  0  0  0  0  0  0  0  0  0  0  0
    5.6663   -1.5941   -1.7010 C   0  0  0  0  0  0  0  0  0  0  0  0
    8.7746   -1.0665   -1.4588 C   0  0  0  0  0  0  0  0  0  0  0  0
    9.3163   -0.1702    1.1855 C   0  0  0  0  0  0  0  0  0  0  0  0
   -6.8496    1.2962   -1.0129 C   0  0  0  0  0  0  0  0  0  0  0  0
   10.0758   -0.7516   -1.0535 C   0  0  0  0  0  0  0  0  0  0  0  0
   10.3441   -0.3112    0.2446 C   0  0  0  0  0  0  0  0  0  0  0  0
   -7.9299    0.4065   -0.4693 C   0  0  0  0  0  0  0  0  0  0  0  0
   -7.8994   -0.9644   -0.7247 C   0  0  0  0  0  0  0  0  0  0  0  0
   -8.9641    0.9513    0.2918 C   0  0  0  0  0  0  0  0  0  0  0  0
   -8.9033   -1.7906   -0.2194 C   0  0  0  0  0  0  0  0  0  0  0  0
   -9.9681    0.1253    0.7971 C   0  0  0  0  0  0  0  0  0  0  0  0
   -9.9376   -1.2456    0.5415 C   0  0  0  0  0  0  0  0  0  0  0  0
  -10.8231   -3.4441    0.7366 C   0  0  0  0  0  0  0  0  0  0  0  0
    1.5311    1.6486    1.9050 H   0  0  0  0  0  0  0  0  0  0  0  0
    2.0363   -0.5161    1.5773 H   0  0  0  0  0  0  0  0  0  0  0  0
    2.9823    2.5042   -0.6295 H   0  0  0  0  0  0  0  0  0  0  0  0
    2.9621    3.2952    0.9649 H   0  0  0  0  0  0  0  0  0  0  0  0
    4.1956    1.4692    1.9769 H   0  0  0  0  0  0  0  0  0  0  0  0
    5.0271    1.7888    0.4287 H   0  0  0  0  0  0  0  0  0  0  0  0
   -1.0875    1.5575    1.4953 H   0  0  0  0  0  0  0  0  0  0  0  0
   -0.0830   -0.5690    1.6648 H   0  0  0  0  0  0  0  0  0  0  0  0
   -1.5174   -0.9050    0.7298 H   0  0  0  0  0  0  0  0  0  0  0  0
    4.0681   -1.9131    0.6211 H   0  0  0  0  0  0  0  0  0  0  0  0
    4.3096   -0.9616    2.0729 H   0  0  0  0  0  0  0  0  0  0  0  0
   -1.7615    0.6843   -1.3585 H   0  0  0  0  0  0  0  0  0  0  0  0
   -1.8897    2.3641   -0.9496 H   0  0  0  0  0  0  0  0  0  0  0  0
   -0.2648   -1.4653   -1.0844 H   0  0  0  0  0  0  0  0  0  0  0  0
   -0.6439    3.7079   -0.3001 H   0  0  0  0  0  0  0  0  0  0  0  0
    1.0670    3.9103   -0.2401 H   0  0  0  0  0  0  0  0  0  0  0  0
    0.1632    3.6631    1.2686 H   0  0  0  0  0  0  0  0  0  0  0  0
   -3.3520    0.1514    0.5542 H   0  0  0  0  0  0  0  0  0  0  0  0
   -3.3924    1.8763    0.9528 H   0  0  0  0  0  0  0  0  0  0  0  0
    5.0337   -2.4320   -1.3992 H   0  0  0  0  0  0  0  0  0  0  0  0
    5.0625   -0.7642   -2.0756 H   0  0  0  0  0  0  0  0  0  0  0  0
    6.3465   -1.9346   -2.4839 H   0  0  0  0  0  0  0  0  0  0  0  0
   -5.6698    0.9850    0.7269 H   0  0  0  0  0  0  0  0  0  0  0  0
    8.5755   -1.4056   -2.4687 H   0  0  0  0  0  0  0  0  0  0  0  0
    9.5350    0.1727    2.1917 H   0  0  0  0  0  0  0  0  0  0  0  0
   -6.6770    1.0704   -2.0720 H   0  0  0  0  0  0  0  0  0  0  0  0
   -7.1446    2.3507   -0.9616 H   0  0  0  0  0  0  0  0  0  0  0  0
   10.8934   -0.8513   -1.7632 H   0  0  0  0  0  0  0  0  0  0  0  0
   11.3658   -0.0740    0.5300 H   0  0  0  0  0  0  0  0  0  0  0  0
   -7.0978   -1.3986   -1.3166 H   0  0  0  0  0  0  0  0  0  0  0  0
   -8.9995    2.0173    0.5002 H   0  0  0  0  0  0  0  0  0  0  0  0
   -8.8182   -2.8457   -0.4557 H   0  0  0  0  0  0  0  0  0  0  0  0
  -10.7710    0.5553    1.3897 H   0  0  0  0  0  0  0  0  0  0  0  0
  -11.6818   -3.9339    1.2072 H   0  0  0  0  0  0  0  0  0  0  0  0
   -9.9225   -3.8897    1.1726 H   0  0  0  0  0  0  0  0  0  0  0  0
  -10.8992   -3.6307   -0.3400 H   0  0  0  0  0  0  0  0  0  0  0  0
  1 15  2  0  0  0  0
  2 22  2  0  0  0  0
  3 36  1  0  0  0  0
  3 37  1  0  0  0  0
  4 11  1  0  0  0  0
  4 13  1  0  0  0  0
  4 17  1  0  0  0  0
  5 10  1  0  0  0  0
  5 14  1  0  0  0  0
  5 19  1  0  0  0  0
  6 15  1  0  0  0  0
  6 16  1  0  0  0  0
  6 51  1  0  0  0  0
  7 20  1  0  0  0  0
  7 23  1  0  0  0  0
  7 25  1  0  0  0  0
  8 20  2  0  0  0  0
  8 24  1  0  0  0  0
  9 22  1  0  0  0  0
  9 28  1  0  0  0  0
  9 60  1  0  0  0  0
 10 11  1  0  0  0  0
 10 12  1  0  0  0  0
 10 38  1  0  0  0  0
 11 15  1  0  0  0  0
 11 39  1  0  0  0  0
 12 13  1  0  0  0  0
 12 40  1  0  0  0  0
 12 41  1  0  0  0  0
 13 42  1  0  0  0  0
 13 43  1  0  0  0  0
 14 16  1  0  0  0  0
 14 18  1  0  0  0  0
 14 44  1  0  0  0  0
 16 45  1  0  0  0  0
 16 46  1  0  0  0  0
 17 20  1  0  0  0  0
 17 47  1  0  0  0  0
 17 48  1  0  0  0  0
 18 21  1  0  0  0  0
 18 49  1  0  0  0  0
 18 50  1  0  0  0  0
 19 52  1  0  0  0  0
 19 53  1  0  0  0  0
 19 54  1  0  0  0  0
 21 22  1  0  0  0  0
 21 55  1  0  0  0  0
 21 56  1  0  0  0  0
 23 24  1  0  0  0  0
 23 26  2  0  0  0  0
 24 27  2  0  0  0  0
 25 57  1  0  0  0  0
 25 58  1  0  0  0  0
 25 59  1  0  0  0  0
 26 29  1  0  0  0  0
 26 61  1  0  0  0  0
 27 30  1  0  0  0  0
 27 62  1  0  0  0  0
 28 31  1  0  0  0  0
 28 63  1  0  0  0  0
 28 64  1  0  0  0  0
 29 30  2  0  0  0  0
 29 65  1  0  0  0  0
 30 66  1  0  0  0  0
 31 32  2  0  0  0  0
 31 33  1  0  0  0  0
 32 34  1  0  0  0  0
 32 67  1  0  0  0  0
 33 35  2  0  0  0  0
 33 68  1  0  0  0  0
 34 36  2  0  0  0  0
 34 69  1  0  0  0  0
 35 36  1  0  0  0  0
 35 70  1  0  0  0  0
 37 71  1  0  0  0  0
 37 72  1  0  0  0  0
 37 73  1  0  0  0  0
M  END
> <PUBCHEM_COMPOUND_CID>
45360943

> <PUBCHEM_CONFORMER_RMSD>
1.4

> <PUBCHEM_CONFORMER_DIVERSEORDER>
5
31
123
65
161
111
10
120
139
71
13
159
69
12
7
155
137
94
64
3
140
38
152
59
117
33
78
132
160
54
74
162
136
95
82
9
85
63
105
50
156
129
58
30
116
158
108
142
93
20
46
128
122
68
107
147
2
145
126
131
157
48
115
101
90
49
92
104
125
153
6
45
42
73
102
110
119
106
163
76
109
149
87
37
114
118
41
22
124
47
130
79
151
81
53
121
60
36
84
72
146
62
51
52
16
138
88
97
103
28
99
70
32
14
23
80
143
29
98
141
27
154
113
4
67
43
75
112
24
83
144
55
89
77
17
66
18
135
34
96
39
100
1
44
56
19
61
133
150
26
25
8
148
11
40
35
91
15
57
127
86
21
134

> <PUBCHEM_MMFF94_PARTIAL_CHARGES>
45
1 -0.57
10 0.27
11 0.33
13 0.27
14 0.27
15 0.57
16 0.3
17 0.45
19 0.27
2 -0.57
20 0.01
21 0.06
22 0.57
23 -0.15
24 0.23
25 0.26
26 -0.15
27 -0.15
28 0.44
29 -0.15
3 -0.36
30 -0.15
31 -0.14
32 -0.15
33 -0.15
34 -0.15
35 -0.15
36 0.08
37 0.28
4 -0.81
5 -0.81
51 0.37
6 -0.73
60 0.37
61 0.15
62 0.15
65 0.15
66 0.15
67 0.15
68 0.15
69 0.15
7 0.05
70 0.15
8 -0.57
9 -0.73

> <PUBCHEM_EFFECTIVE_ROTOR_COUNT>
10.4

> <PUBCHEM_PHARMACOPHORE_FEATURES>
13
1 1 acceptor
1 2 acceptor
1 3 acceptor
1 4 cation
1 5 cation
1 6 donor
1 9 donor
3 7 8 20 cation
5 4 10 11 12 13 rings
5 7 8 20 23 24 rings
6 23 24 26 27 29 30 rings
6 31 32 33 34 35 36 rings
7 5 6 10 11 14 15 16 rings

> <PUBCHEM_HEAVY_ATOM_COUNT>
37

> <PUBCHEM_ATOM_DEF_STEREO_COUNT>
3

> <PUBCHEM_ATOM_UDEF_STEREO_COUNT>
0

> <PUBCHEM_BOND_DEF_STEREO_COUNT>
0

> <PUBCHEM_BOND_UDEF_STEREO_COUNT>
0

> <PUBCHEM_ISOTOPIC_ATOM_COUNT>
0

> <PUBCHEM_COMPONENT_COUNT>
1

> <PUBCHEM_CACTVS_TAUTO_COUNT>
6

> <PUBCHEM_CONFORMER_ID>
02B4272F00000005

> <PUBCHEM_MMFF94_ENERGY>
99.0793

> <PUBCHEM_FEATURE_SELFOVERLAP>
66.118

> <PUBCHEM_SHAPE_FINGERPRINT>
10076449 9 18333731295124880497
10162869 55 16588026805770345918
10533779 47 16773802476363685310
11135609 127 16660656176547139092
11409948 35 9367079865729487904
11409948 8 18272079527173093344
11456790 92 17203611502200693145
12013929 2 8574713512252071540
12089408 11 16805600322300012696
12559415 141 17988934366019170806
13553643 46 13183024012802663395
13947947 19 18411420631023053508
14344974 52 18187366550104696572
15065858 18 18337383856157662348
15247644 1 18335980858484925690
15461852 350 17748825198925462629
15538507 75 13542471930317402420
15840311 113 18335702763552141588
16067689 302 18059859407198168686
16120349 18 15864075365015359404
16728433 110 18408882957833237936
1754911 235 12973604435147814785
1818759 1 18201718444430912845
20105231 36 18413388713502302350
21267235 1 18271804605499174937
21585481 151 18411983568798129561
232437 2 18334293158472129578
23729398 52 18266740362306187640
3092352 35 17530680988558811386
4339292 15 18040436612140330515
44280117 145 9655566419864196137
4461854 278 17418371402665873399
5028188 123 17821727218363326533
54039377 194 18342455941967142749
636775 8 18260548931737028111
636783 248 15841543116071569834
6691757 9 16878236281683433705
9937071 3 17846782892534560342

> <PUBCHEM_SHAPE_MULTIPOLES>
713.95
43.9
2.52
1.31
47.63
0.27
0.29
-30.05
-3.51
4.9
-0.11
-1.08
-0.2
3.22

> <PUBCHEM_SHAPE_SELFOVERLAP>
1529.754

> <PUBCHEM_SHAPE_VOLUME>
394.3

> <PUBCHEM_COORDINATE_TYPE>
2
5
10

$$$$
