71693202
  -OEChem-12032416303D

 76 79  0     1  0  0  0  0  0999 V2000
   -3.3292    0.5580    1.5479 O   0  0  0  0  0  0  0  0  0  0  0  0
   -0.6486   -1.7398    0.4877 O   0  0  0  0  0  0  0  0  0  0  0  0
   -1.5385   -3.1142   -1.0934 O   0  0  0  0  0  0  0  0  0  0  0  0
   -2.6309    1.9804   -0.1549 N   0  0  0  0  0  0  0  0  0  0  0  0
    3.7552    0.0556   -1.5762 N   0  0  0  0  0  0  0  0  0  0  0  0
    2.3216   -0.8690   -0.1515 N   0  0  0  0  0  0  0  0  0  0  0  0
   -4.0086   -1.5374   -0.1915 C   0  0  0  0  0  0  0  0  0  0  0  0
    0.1369    2.2608    0.9871 C   0  0  1  0  0  0  0  0  0  0  0  0
   -0.7586    3.4138    0.4686 C   0  0  2  0  0  0  0  0  0  0  0  0
   -4.4159   -2.4820   -1.3451 C   0  0  0  0  0  0  0  0  0  0  0  0
   -5.3073   -1.2998    0.6159 C   0  0  0  0  0  0  0  0  0  0  0  0
    1.5592    2.3903    0.4208 C   0  0  0  0  0  0  0  0  0  0  0  0
    1.5774    2.3677   -1.1192 C   0  0  2  0  0  0  0  0  0  0  0  0
   -5.9350   -2.4084   -1.4028 C   0  0  0  0  0  0  0  0  0  0  0  0
   -6.3248   -2.2873    0.0583 C   0  0  0  0  0  0  0  0  0  0  0  0
   -3.4717   -0.2088   -0.7416 C   0  0  0  0  0  0  0  0  0  0  0  0
    0.1892    2.2256    2.5177 C   0  0  0  0  0  0  0  0  0  0  0  0
   -2.9303   -2.1902    0.6821 C   0  0  0  0  0  0  0  0  0  0  0  0
   -2.2444    3.0892    0.6602 C   0  0  0  0  0  0  0  0  0  0  0  0
    0.5280    3.2884   -1.7084 C   0  0  0  0  0  0  0  0  0  0  0  0
   -0.5011    3.7565   -0.9801 C   0  0  0  0  0  0  0  0  0  0  0  0
    1.4162    0.9397   -1.6525 C   0  0  0  0  0  0  0  0  0  0  0  0
   -3.1484    0.7889    0.3554 C   0  0  0  0  0  0  0  0  0  0  0  0
    0.5337    0.8222    3.0062 C   0  0  0  0  0  0  0  0  0  0  0  0
    1.1992    3.2429    3.0389 C   0  0  0  0  0  0  0  0  0  0  0  0
    0.7138    3.6961   -3.1435 C   0  0  0  0  0  0  0  0  0  0  0  0
   -1.6673   -2.4243   -0.0934 C   0  0  0  0  0  0  0  0  0  0  0  0
    2.4733    0.0259   -1.1020 C   0  0  0  0  0  0  0  0  0  0  0  0
    4.4789   -0.8823   -0.8856 C   0  0  0  0  0  0  0  0  0  0  0  0
    3.5620   -1.4456   -0.0027 C   0  0  0  0  0  0  0  0  0  0  0  0
    3.9867   -2.4619    0.8697 C   0  0  0  0  0  0  0  0  0  0  0  0
    5.8162   -1.2743   -0.9556 C   0  0  0  0  0  0  0  0  0  0  0  0
    5.3249   -2.8717    0.8171 C   0  0  0  0  0  0  0  0  0  0  0  0
    6.2218   -2.2870   -0.0800 C   0  0  0  0  0  0  0  0  0  0  0  0
    3.0665   -3.1181    1.8465 C   0  0  0  0  0  0  0  0  0  0  0  0
   -0.2756    1.3070    0.6365 H   0  0  0  0  0  0  0  0  0  0  0  0
   -0.5487    4.3265    1.0402 H   0  0  0  0  0  0  0  0  0  0  0  0
   -3.9682   -2.2114   -2.3071 H   0  0  0  0  0  0  0  0  0  0  0  0
   -4.1356   -3.5210   -1.1314 H   0  0  0  0  0  0  0  0  0  0  0  0
   -5.1810   -1.4429    1.6945 H   0  0  0  0  0  0  0  0  0  0  0  0
   -5.6971   -0.2855    0.4640 H   0  0  0  0  0  0  0  0  0  0  0  0
    2.2353    1.6424    0.8432 H   0  0  0  0  0  0  0  0  0  0  0  0
    1.9860    3.3641    0.6977 H   0  0  0  0  0  0  0  0  0  0  0  0
    2.5645    2.7446   -1.4236 H   0  0  0  0  0  0  0  0  0  0  0  0
   -6.3754   -3.2884   -1.8801 H   0  0  0  0  0  0  0  0  0  0  0  0
   -6.2530   -1.5190   -1.9593 H   0  0  0  0  0  0  0  0  0  0  0  0
   -7.3539   -1.9403    0.1883 H   0  0  0  0  0  0  0  0  0  0  0  0
   -6.2243   -3.2568    0.5606 H   0  0  0  0  0  0  0  0  0  0  0  0
   -4.2242    0.2557   -1.3933 H   0  0  0  0  0  0  0  0  0  0  0  0
   -2.5766   -0.3526   -1.3584 H   0  0  0  0  0  0  0  0  0  0  0  0
   -0.7900    2.4743    2.9395 H   0  0  0  0  0  0  0  0  0  0  0  0
   -2.7086   -1.6368    1.5984 H   0  0  0  0  0  0  0  0  0  0  0  0
   -3.2675   -3.1738    1.0362 H   0  0  0  0  0  0  0  0  0  0  0  0
   -2.4900    2.8978    1.7082 H   0  0  0  0  0  0  0  0  0  0  0  0
   -2.8607    3.9398    0.3448 H   0  0  0  0  0  0  0  0  0  0  0  0
   -1.1984    4.4525   -1.4425 H   0  0  0  0  0  0  0  0  0  0  0  0
    1.4849    0.9259   -2.7475 H   0  0  0  0  0  0  0  0  0  0  0  0
    0.4285    0.5323   -1.4043 H   0  0  0  0  0  0  0  0  0  0  0  0
   -2.5771    2.0879   -1.1639 H   0  0  0  0  0  0  0  0  0  0  0  0
   -0.2155    0.0975    2.6707 H   0  0  0  0  0  0  0  0  0  0  0  0
    0.5507    0.7917    4.1012 H   0  0  0  0  0  0  0  0  0  0  0  0
    1.5132    0.4856    2.6529 H   0  0  0  0  0  0  0  0  0  0  0  0
    1.0405    4.2446    2.6287 H   0  0  0  0  0  0  0  0  0  0  0  0
    1.0892    3.3336    4.1268 H   0  0  0  0  0  0  0  0  0  0  0  0
    2.2389    2.9435    2.8699 H   0  0  0  0  0  0  0  0  0  0  0  0
   -0.0348    4.4286   -3.4640 H   0  0  0  0  0  0  0  0  0  0  0  0
    0.6306    2.8301   -3.8067 H   0  0  0  0  0  0  0  0  0  0  0  0
    1.6996    4.1508   -3.2848 H   0  0  0  0  0  0  0  0  0  0  0  0
    4.1091    0.6609   -2.3051 H   0  0  0  0  0  0  0  0  0  0  0  0
    0.1976   -1.8654    0.0078 H   0  0  0  0  0  0  0  0  0  0  0  0
    6.5102   -0.8190   -1.6528 H   0  0  0  0  0  0  0  0  0  0  0  0
    5.6812   -3.6565    1.4808 H   0  0  0  0  0  0  0  0  0  0  0  0
    7.2550   -2.6248   -0.0991 H   0  0  0  0  0  0  0  0  0  0  0  0
    3.4408   -2.9872    2.8671 H   0  0  0  0  0  0  0  0  0  0  0  0
    2.0596   -2.6909    1.8032 H   0  0  0  0  0  0  0  0  0  0  0  0
    2.9868   -4.1886    1.6313 H   0  0  0  0  0  0  0  0  0  0  0  0
  1 23  2  0  0  0  0
  2 27  1  0  0  0  0
  2 70  1  0  0  0  0
  3 27  2  0  0  0  0
  4 19  1  0  0  0  0
  4 23  1  0  0  0  0
  4 59  1  0  0  0  0
  5 28  1  0  0  0  0
  5 29  1  0  0  0  0
  5 69  1  0  0  0  0
  6 28  2  0  0  0  0
  6 30  1  0  0  0  0
  7 10  1  0  0  0  0
  7 11  1  0  0  0  0
  7 16  1  0  0  0  0
  7 18  1  0  0  0  0
  8  9  1  0  0  0  0
  8 12  1  0  0  0  0
  8 17  1  0  0  0  0
  8 36  1  0  0  0  0
  9 19  1  0  0  0  0
  9 21  1  0  0  0  0
  9 37  1  0  0  0  0
 10 14  1  0  0  0  0
 10 38  1  0  0  0  0
 10 39  1  0  0  0  0
 11 15  1  0  0  0  0
 11 40  1  0  0  0  0
 11 41  1  0  0  0  0
 12 13  1  0  0  0  0
 12 42  1  0  0  0  0
 12 43  1  0  0  0  0
 13 20  1  0  0  0  0
 13 22  1  0  0  0  0
 13 44  1  0  0  0  0
 14 15  1  0  0  0  0
 14 45  1  0  0  0  0
 14 46  1  0  0  0  0
 15 47  1  0  0  0  0
 15 48  1  0  0  0  0
 16 23  1  0  0  0  0
 16 49  1  0  0  0  0
 16 50  1  0  0  0  0
 17 24  1  0  0  0  0
 17 25  1  0  0  0  0
 17 51  1  0  0  0  0
 18 27  1  0  0  0  0
 18 52  1  0  0  0  0
 18 53  1  0  0  0  0
 19 54  1  0  0  0  0
 19 55  1  0  0  0  0
 20 21  2  0  0  0  0
 20 26  1  0  0  0  0
 21 56  1  0  0  0  0
 22 28  1  0  0  0  0
 22 57  1  0  0  0  0
 22 58  1  0  0  0  0
 24 60  1  0  0  0  0
 24 61  1  0  0  0  0
 24 62  1  0  0  0  0
 25 63  1  0  0  0  0
 25 64  1  0  0  0  0
 25 65  1  0  0  0  0
 26 66  1  0  0  0  0
 26 67  1  0  0  0  0
 26 68  1  0  0  0  0
 29 30  1  0  0  0  0
 29 32  2  0  0  0  0
 30 31  2  0  0  0  0
 31 33  1  0  0  0  0
 31 35  1  0  0  0  0
 32 34  1  0  0  0  0
 32 71  1  0  0  0  0
 33 34  2  0  0  0  0
 33 72  1  0  0  0  0
 34 73  1  0  0  0  0
 35 74  1  0  0  0  0
 35 75  1  0  0  0  0
 35 76  1  0  0  0  0
M  END
> <PUBCHEM_COMPOUND_CID>
71693202

> <PUBCHEM_CONFORMER_RMSD>
1.2

> <PUBCHEM_CONFORMER_DIVERSEORDER>
1
9
145
74
154
150
121
64
127
153
129
104
151
157
103
14
102
135
112
20
66
168
11
18
48
140
30
118
22
160
96
109
142
147
161
167
81
91
39
149
98
50
94
152
106
172
99
45
144
44
123
117
78
65
162
110
124
136
41
15
89
111
38
8
88
52
138
62
26
97
24
116
59
92
93
131
36
100
12
42
125
73
115
86
148
72
158
2
165
79
46
17
114
85
101
156
83
107
141
90
27
105
84
29
163
40
58
169
70
57
132
120
31
143
55
126
33
71
53
95
146
37
32
3
108
77
119
75
130
56
28
35
16
7
51
134
122
82
137
54
4
23
69
6
76
139
166
128
159
25
113
34
87
13
170
68
47
5
19
60
61
10
63
155
21
49
67
164
133
171
80
43

> <PUBCHEM_MMFF94_PARTIAL_CHARGES>
32
1 -0.57
13 0.14
16 0.06
18 0.06
19 0.3
2 -0.65
20 -0.28
21 -0.29
22 0.18
23 0.57
26 0.14
27 0.66
28 0.01
29 -0.15
3 -0.57
30 0.23
31 -0.14
32 -0.15
33 -0.15
34 -0.15
35 0.14
4 -0.73
5 0.03
56 0.15
59 0.37
6 -0.57
69 0.27
70 0.5
71 0.15
72 0.15
73 0.15
9 0.14

> <PUBCHEM_EFFECTIVE_ROTOR_COUNT>
11.8

> <PUBCHEM_PHARMACOPHORE_FEATURES>
12
1 1 acceptor
1 2 acceptor
1 3 acceptor
1 4 donor
1 5 donor
3 17 24 25 hydrophobe
3 2 3 27 anion
3 5 6 28 cation
5 5 6 28 29 30 rings
5 7 10 11 14 15 rings
6 29 30 31 32 33 34 rings
6 8 9 12 13 20 21 rings

> <PUBCHEM_HEAVY_ATOM_COUNT>
35

> <PUBCHEM_ATOM_DEF_STEREO_COUNT>
3

> <PUBCHEM_ATOM_UDEF_STEREO_COUNT>
0

> <PUBCHEM_BOND_DEF_STEREO_COUNT>
0

> <PUBCHEM_BOND_UDEF_STEREO_COUNT>
0

> <PUBCHEM_ISOTOPIC_ATOM_COUNT>
0

> <PUBCHEM_COMPONENT_COUNT>
1

> <PUBCHEM_CACTVS_TAUTO_COUNT>
6

> <PUBCHEM_CONFORMER_ID>
0445F39200000001

> <PUBCHEM_MMFF94_ENERGY>
73.0767

> <PUBCHEM_FEATURE_SELFOVERLAP>
61.059

> <PUBCHEM_SHAPE_FINGERPRINT>
10483366 6 18118104893972506877
10622 236 18334297534948988614
11421498 54 18261668165037963938
11456790 92 18340502123053782915
11552529 35 18124312701824892784
11720765 8 18335700615129535781
12156800 1 17462806983696269452
12166972 35 18411420643639144071
12422481 6 17398419441061204321
12788726 201 18340776948814457098
13631057 29 18410858720820878758
14068700 675 18341900683941270428
14114206 34 16805604711788504397
14394314 77 18409454652455956193
14725015 67 18341891901192319871
15484559 13 14099749936711081319
15968369 26 17686606253681184115
161222 619 10375025362785433991
19315092 285 18341619217966555040
19319366 153 17832437761879885765
20775530 9 18411416228554740485
23559900 14 18192708063191266791
469060 322 18263939738853783256
66674814 147 17603872169840959546

> <PUBCHEM_SHAPE_MULTIPOLES>
687.73
12.05
5.76
2.45
1.7
3.05
-0.85
-17.61
2.31
-0.14
0.31
-0.99
2.44
-1.81

> <PUBCHEM_SHAPE_SELFOVERLAP>
1456.967

> <PUBCHEM_SHAPE_VOLUME>
385.6

> <PUBCHEM_COORDINATE_TYPE>
2
5
10

$$$$
