44716951
  -OEChem-12032416133D

 83 86  0     1  0  0  0  0  0999 V2000
    2.1737   -1.2567    0.2209 O   0  0  0  0  0  0  0  0  0  0  0  0
   -4.8927   -2.8250    0.4754 O   0  0  0  0  0  0  0  0  0  0  0  0
    1.7125   -3.9564    0.4119 O   0  0  0  0  0  0  0  0  0  0  0  0
   -5.4728    0.5985   -1.3941 O   0  0  0  0  0  0  0  0  0  0  0  0
    2.7111    0.7620   -0.7095 O   0  0  0  0  0  0  0  0  0  0  0  0
   -6.4406    3.0653   -2.2360 O   0  0  0  0  0  0  0  0  0  0  0  0
    6.6609    3.3352   -1.1720 O   0  0  0  0  0  0  0  0  0  0  0  0
    9.0353   -0.0992    1.1412 O   0  0  0  0  0  0  0  0  0  0  0  0
   -6.2666    1.6498    0.5083 N   0  0  0  0  0  0  0  0  0  0  0  0
    4.3075   -0.5867    0.3454 N   0  0  0  0  0  0  0  0  0  0  0  0
   -2.1636   -1.2707    0.3835 C   0  0  2  0  0  0  0  0  0  0  0  0
   -1.4318   -2.1562   -0.6980 C   0  0  1  0  0  0  0  0  0  0  0  0
    0.1050   -2.4247   -0.4703 C   0  0  1  0  0  0  0  0  0  0  0  0
   -3.5773   -0.8804   -0.2179 C   0  0  1  0  0  0  0  0  0  0  0  0
   -1.3305    0.0200    0.6073 C   0  0  0  0  0  0  0  0  0  0  0  0
   -2.2628   -3.4139   -1.0348 C   0  0  0  0  0  0  0  0  0  0  0  0
    0.8158   -1.0689   -0.1771 C   0  0  1  0  0  0  0  0  0  0  0  0
   -4.4181   -2.1020   -0.6560 C   0  0  1  0  0  0  0  0  0  0  0  0
    0.1401   -0.2422    0.9114 C   0  0  0  0  0  0  0  0  0  0  0  0
   -3.6422   -3.0385   -1.5778 C   0  0  0  0  0  0  0  0  0  0  0  0
   -2.3309   -1.9756    1.7516 C   0  0  0  0  0  0  0  0  0  0  0  0
   -4.4249    0.0447    0.6704 C   0  0  0  0  0  0  0  0  0  0  0  0
    0.4069   -3.4668    0.6260 C   0  0  0  0  0  0  0  0  0  0  0  0
    0.7206   -2.9993   -1.7793 C   0  0  0  0  0  0  0  0  0  0  0  0
   -5.4316    0.7818   -0.1764 C   0  0  0  0  0  0  0  0  0  0  0  0
    3.0466   -0.2513   -0.1086 C   0  0  0  0  0  0  0  0  0  0  0  0
   -7.3620    2.3704   -0.1443 C   0  0  1  0  0  0  0  0  0  0  0  0
   -6.2535    1.8981    1.9478 C   0  0  0  0  0  0  0  0  0  0  0  0
   -8.2441    2.8247    1.0213 C   0  0  0  0  0  0  0  0  0  0  0  0
   -7.2493    3.0285    2.1580 C   0  0  0  0  0  0  0  0  0  0  0  0
   -6.8432    3.5477   -0.9679 C   0  0  0  0  0  0  0  0  0  0  0  0
    5.5029    0.1574    0.2232 C   0  0  0  0  0  0  0  0  0  0  0  0
    6.6937   -0.3447    0.7482 C   0  0  0  0  0  0  0  0  0  0  0  0
    5.4919    1.3939   -0.4223 C   0  0  0  0  0  0  0  0  0  0  0  0
    6.6716    2.1283   -0.5427 C   0  0  0  0  0  0  0  0  0  0  0  0
    7.8734    0.3898    0.6278 C   0  0  0  0  0  0  0  0  0  0  0  0
    7.8623    1.6262   -0.0176 C   0  0  0  0  0  0  0  0  0  0  0  0
    7.9027    4.0326   -1.2595 C   0  0  0  0  0  0  0  0  0  0  0  0
   10.2038    0.7042    0.9825 C   0  0  0  0  0  0  0  0  0  0  0  0
   -1.4554   -1.5472   -1.6177 H   0  0  0  0  0  0  0  0  0  0  0  0
   -3.3386   -0.3309   -1.1415 H   0  0  0  0  0  0  0  0  0  0  0  0
   -1.7370    0.6083    1.4375 H   0  0  0  0  0  0  0  0  0  0  0  0
   -1.3904    0.6576   -0.2846 H   0  0  0  0  0  0  0  0  0  0  0  0
   -1.7636   -4.0148   -1.8013 H   0  0  0  0  0  0  0  0  0  0  0  0
   -2.3765   -4.0640   -0.1621 H   0  0  0  0  0  0  0  0  0  0  0  0
    0.7796   -0.4896   -1.1113 H   0  0  0  0  0  0  0  0  0  0  0  0
   -5.3123   -1.7797   -1.1981 H   0  0  0  0  0  0  0  0  0  0  0  0
    0.2630   -0.7207    1.8893 H   0  0  0  0  0  0  0  0  0  0  0  0
    0.6501    0.7240    1.0152 H   0  0  0  0  0  0  0  0  0  0  0  0
   -4.2124   -3.9594   -1.7486 H   0  0  0  0  0  0  0  0  0  0  0  0
   -3.5150   -2.5533   -2.5539 H   0  0  0  0  0  0  0  0  0  0  0  0
   -1.3854   -2.1044    2.2785 H   0  0  0  0  0  0  0  0  0  0  0  0
   -2.9638   -1.3870    2.4243 H   0  0  0  0  0  0  0  0  0  0  0  0
   -2.7773   -2.9681    1.6705 H   0  0  0  0  0  0  0  0  0  0  0  0
   -4.9441   -0.5112    1.4571 H   0  0  0  0  0  0  0  0  0  0  0  0
   -3.8029    0.8052    1.1473 H   0  0  0  0  0  0  0  0  0  0  0  0
   -0.2745   -4.3199    0.5767 H   0  0  0  0  0  0  0  0  0  0  0  0
    0.3661   -3.0467    1.6317 H   0  0  0  0  0  0  0  0  0  0  0  0
    1.8162   -2.9613   -1.7809 H   0  0  0  0  0  0  0  0  0  0  0  0
    0.3955   -2.4171   -2.6497 H   0  0  0  0  0  0  0  0  0  0  0  0
    0.4260   -4.0400   -1.9525 H   0  0  0  0  0  0  0  0  0  0  0  0
   -5.4331   -3.5647    0.1496 H   0  0  0  0  0  0  0  0  0  0  0  0
    1.8918   -4.6153    1.1041 H   0  0  0  0  0  0  0  0  0  0  0  0
   -7.9030    1.6716   -0.7939 H   0  0  0  0  0  0  0  0  0  0  0  0
   -6.5802    0.9818    2.4510 H   0  0  0  0  0  0  0  0  0  0  0  0
   -5.2488    2.1572    2.2925 H   0  0  0  0  0  0  0  0  0  0  0  0
   -8.9388    2.0195    1.2923 H   0  0  0  0  0  0  0  0  0  0  0  0
   -8.8355    3.7197    0.8083 H   0  0  0  0  0  0  0  0  0  0  0  0
   -7.7168    2.9983    3.1460 H   0  0  0  0  0  0  0  0  0  0  0  0
   -6.7489    3.9976    2.0459 H   0  0  0  0  0  0  0  0  0  0  0  0
   -5.9936    4.0460   -0.4896 H   0  0  0  0  0  0  0  0  0  0  0  0
   -7.6368    4.2823   -1.1381 H   0  0  0  0  0  0  0  0  0  0  0  0
    4.3891   -1.4787    0.8272 H   0  0  0  0  0  0  0  0  0  0  0  0
   -6.1199    3.8289   -2.7455 H   0  0  0  0  0  0  0  0  0  0  0  0
    6.7099   -1.3079    1.2529 H   0  0  0  0  0  0  0  0  0  0  0  0
    4.6053    1.8407   -0.8511 H   0  0  0  0  0  0  0  0  0  0  0  0
    8.7754    2.1949   -0.1106 H   0  0  0  0  0  0  0  0  0  0  0  0
    7.7072    4.9703   -1.7903 H   0  0  0  0  0  0  0  0  0  0  0  0
    8.6362    3.4793   -1.8560 H   0  0  0  0  0  0  0  0  0  0  0  0
    8.2847    4.3041   -0.2694 H   0  0  0  0  0  0  0  0  0  0  0  0
   11.0322    0.1610    1.4493 H   0  0  0  0  0  0  0  0  0  0  0  0
   10.1137    1.6585    1.5127 H   0  0  0  0  0  0  0  0  0  0  0  0
   10.4660    0.8329   -0.0732 H   0  0  0  0  0  0  0  0  0  0  0  0
  1 17  1  0  0  0  0
  1 26  1  0  0  0  0
  2 18  1  0  0  0  0
  2 62  1  0  0  0  0
  3 23  1  0  0  0  0
  3 63  1  0  0  0  0
  4 25  2  0  0  0  0
  5 26  2  0  0  0  0
  6 31  1  0  0  0  0
  6 74  1  0  0  0  0
  7 35  1  0  0  0  0
  7 38  1  0  0  0  0
  8 36  1  0  0  0  0
  8 39  1  0  0  0  0
  9 25  1  0  0  0  0
  9 27  1  0  0  0  0
  9 28  1  0  0  0  0
 10 26  1  0  0  0  0
 10 32  1  0  0  0  0
 10 73  1  0  0  0  0
 11 12  1  0  0  0  0
 11 14  1  0  0  0  0
 11 15  1  0  0  0  0
 11 21  1  0  0  0  0
 12 13  1  0  0  0  0
 12 16  1  0  0  0  0
 12 40  1  0  0  0  0
 13 17  1  0  0  0  0
 13 23  1  0  0  0  0
 13 24  1  0  0  0  0
 14 18  1  0  0  0  0
 14 22  1  0  0  0  0
 14 41  1  0  0  0  0
 15 19  1  0  0  0  0
 15 42  1  0  0  0  0
 15 43  1  0  0  0  0
 16 20  1  0  0  0  0
 16 44  1  0  0  0  0
 16 45  1  0  0  0  0
 17 19  1  0  0  0  0
 17 46  1  0  0  0  0
 18 20  1  0  0  0  0
 18 47  1  0  0  0  0
 19 48  1  0  0  0  0
 19 49  1  0  0  0  0
 20 50  1  0  0  0  0
 20 51  1  0  0  0  0
 21 52  1  0  0  0  0
 21 53  1  0  0  0  0
 21 54  1  0  0  0  0
 22 25  1  0  0  0  0
 22 55  1  0  0  0  0
 22 56  1  0  0  0  0
 23 57  1  0  0  0  0
 23 58  1  0  0  0  0
 24 59  1  0  0  0  0
 24 60  1  0  0  0  0
 24 61  1  0  0  0  0
 27 29  1  0  0  0  0
 27 31  1  0  0  0  0
 27 64  1  0  0  0  0
 28 30  1  0  0  0  0
 28 65  1  0  0  0  0
 28 66  1  0  0  0  0
 29 30  1  0  0  0  0
 29 67  1  0  0  0  0
 29 68  1  0  0  0  0
 30 69  1  0  0  0  0
 30 70  1  0  0  0  0
 31 71  1  0  0  0  0
 31 72  1  0  0  0  0
 32 33  2  0  0  0  0
 32 34  1  0  0  0  0
 33 36  1  0  0  0  0
 33 75  1  0  0  0  0
 34 35  2  0  0  0  0
 34 76  1  0  0  0  0
 35 37  1  0  0  0  0
 36 37  2  0  0  0  0
 37 77  1  0  0  0  0
 38 78  1  0  0  0  0
 38 79  1  0  0  0  0
 38 80  1  0  0  0  0
 39 81  1  0  0  0  0
 39 82  1  0  0  0  0
 39 83  1  0  0  0  0
M  END
> <PUBCHEM_COMPOUND_CID>
44716951

> <PUBCHEM_CONFORMER_RMSD>
1.2

> <PUBCHEM_CONFORMER_DIVERSEORDER>
1
21
40
28
29
43
44
30
14
31
35
19
4
25
26
37
24
33
39
41
38
15
23
34
27
2
12
9
7
20
16
10
32
22
13
17
5
11
36
42
18
6
3
8

> <PUBCHEM_MMFF94_PARTIAL_CHARGES>
34
1 -0.43
10 -0.55
17 0.28
18 0.28
2 -0.68
22 0.06
23 0.28
25 0.57
26 0.78
27 0.3
28 0.3
3 -0.68
31 0.28
32 0.12
33 -0.15
34 -0.15
35 0.08
36 0.08
37 -0.15
38 0.28
39 0.28
4 -0.57
5 -0.57
6 -0.68
62 0.4
63 0.4
7 -0.36
73 0.37
74 0.4
75 0.15
76 0.15
77 0.15
8 -0.36
9 -0.66

> <PUBCHEM_EFFECTIVE_ROTOR_COUNT>
13.6

> <PUBCHEM_PHARMACOPHORE_FEATURES>
15
1 10 donor
1 2 acceptor
1 2 donor
1 3 acceptor
1 3 donor
1 4 acceptor
1 5 acceptor
1 6 acceptor
1 6 donor
1 7 acceptor
1 8 acceptor
5 9 27 28 29 30 rings
6 11 12 13 15 17 19 rings
6 11 12 14 16 18 20 rings
6 32 33 34 35 36 37 rings

> <PUBCHEM_HEAVY_ATOM_COUNT>
39

> <PUBCHEM_ATOM_DEF_STEREO_COUNT>
6

> <PUBCHEM_ATOM_UDEF_STEREO_COUNT>
1

> <PUBCHEM_BOND_DEF_STEREO_COUNT>
0

> <PUBCHEM_BOND_UDEF_STEREO_COUNT>
0

> <PUBCHEM_ISOTOPIC_ATOM_COUNT>
0

> <PUBCHEM_COMPONENT_COUNT>
1

> <PUBCHEM_CACTVS_TAUTO_COUNT>
2

> <PUBCHEM_CONFORMER_ID>
02AA539700000001

> <PUBCHEM_MMFF94_ENERGY>
149.649

> <PUBCHEM_FEATURE_SELFOVERLAP>
76.146

> <PUBCHEM_SHAPE_FINGERPRINT>
10533779 1 18342449297479208145
10625338 131 18411979187436174568
10930396 42 17167867444697937945
11135926 11 18335132068622250375
11181472 205 18409453596922311972
11475781 23 18059866056086383532
12013929 29 18264494060925815492
12539765 74 18272661142890794422
12895837 130 18412547639231716959
13248334 5 17982175509240431679
13782708 43 10015578402689204539
14394314 77 18409444795922340696
15439362 3 18341334401215599310
1577012 14 18335705009624403588
15803439 3 15913324680834840295
16126227 98 18343025467721228977
16992727 255 18341895199231422152
19302320 297 18113907056591869364
20105231 36 12396295938485198168
20691028 202 18337670940362018856
21033648 144 18338232649596847455
21298829 104 18413671292280047368
23389318 12 12103839073652980264
23522609 53 18042978756138348628
255183 451 9655282727275969515
2747138 104 11458425760574460198
3633792 109 18201723908489572266
393628 194 18342462513368144313
4169191 19 18339077099817072873
44389302 135 9150082411477836092
5470011 282 12319446693166752632
5776283 40 17917990556322848481
6289498 60 18333452014913745312
99344 41 18412543215563465302

> <PUBCHEM_SHAPE_MULTIPOLES>
745.69
29.24
5.17
1.57
40.29
0.08
-0.06
38.05
4.08
-5.33
-1.57
-1.86
0.59
-3.04

> <PUBCHEM_SHAPE_SELFOVERLAP>
1564.836

> <PUBCHEM_SHAPE_VOLUME>
417.2

> <PUBCHEM_COORDINATE_TYPE>
2
5
10

$$$$
