75536999
  -OEChem-12032416343D

 44 46  0     1  0  0  0  0  0999 V2000
   -4.7328    1.6065    0.0703 S   0  0  0  0  0  0  0  0  0  0  0  0
    0.1149   -2.7980   -1.2978 O   0  0  0  0  0  0  0  0  0  0  0  0
   -4.7676    2.1760    1.3989 O   0  0  0  0  0  0  0  0  0  0  0  0
   -5.9402    1.2240   -0.6270 O   0  0  0  0  0  0  0  0  0  0  0  0
    5.2787    2.0389   -0.9647 O   0  0  0  0  0  0  0  0  0  0  0  0
   -1.5566   -1.5518   -0.2148 N   0  0  0  0  0  0  0  0  0  0  0  0
   -3.6539    0.2745    0.0720 N   0  0  2  0  0  0  0  0  0  0  0  0
    0.4622   -1.7001    0.7598 N   0  0  0  0  0  0  0  0  0  0  0  0
   -1.7179   -0.8789    1.0599 C   0  0  2  0  0  0  0  0  0  0  0  0
   -2.3959    0.4730    0.8664 C   0  0  0  0  0  0  0  0  0  0  0  0
   -0.2970   -0.8041    1.6144 C   0  0  0  0  0  0  0  0  0  0  0  0
   -2.6911   -1.6761   -1.1088 C   0  0  0  0  0  0  0  0  0  0  0  0
   -3.3743   -0.3226   -1.2767 C   0  0  0  0  0  0  0  0  0  0  0  0
   -0.2785   -2.1069   -0.3673 C   0  0  0  0  0  0  0  0  0  0  0  0
    1.8544   -2.0008    1.0104 C   0  0  0  0  0  0  0  0  0  0  0  0
    2.7644   -0.9281    0.4854 C   0  0  0  0  0  0  0  0  0  0  0  0
   -3.8184    2.7085   -0.9766 C   0  0  0  0  0  0  0  0  0  0  0  0
    3.0108   -0.8306   -0.8841 C   0  0  0  0  0  0  0  0  0  0  0  0
    3.3629   -0.0285    1.3675 C   0  0  0  0  0  0  0  0  0  0  0  0
    3.8561    0.1663   -1.3713 C   0  0  0  0  0  0  0  0  0  0  0  0
    4.2080    0.9683    0.8804 C   0  0  0  0  0  0  0  0  0  0  0  0
    4.4546    1.0657   -0.4891 C   0  0  0  0  0  0  0  0  0  0  0  0
    5.8573    2.9247   -0.0071 C   0  0  0  0  0  0  0  0  0  0  0  0
   -2.3385   -1.5323    1.6866 H   0  0  0  0  0  0  0  0  0  0  0  0
   -1.7309    1.1591    0.3299 H   0  0  0  0  0  0  0  0  0  0  0  0
   -2.6214    0.8996    1.8485 H   0  0  0  0  0  0  0  0  0  0  0  0
    0.1336    0.1995    1.5380 H   0  0  0  0  0  0  0  0  0  0  0  0
   -0.2452   -1.1451    2.6528 H   0  0  0  0  0  0  0  0  0  0  0  0
   -3.3787   -2.3994   -0.6558 H   0  0  0  0  0  0  0  0  0  0  0  0
   -2.3609   -2.0771   -2.0721 H   0  0  0  0  0  0  0  0  0  0  0  0
   -2.7129    0.3406   -1.8446 H   0  0  0  0  0  0  0  0  0  0  0  0
   -4.3051   -0.4594   -1.8356 H   0  0  0  0  0  0  0  0  0  0  0  0
    2.1023   -2.9480    0.5159 H   0  0  0  0  0  0  0  0  0  0  0  0
    1.9898   -2.1585    2.0865 H   0  0  0  0  0  0  0  0  0  0  0  0
   -4.3734    3.6503   -1.0128 H   0  0  0  0  0  0  0  0  0  0  0  0
   -2.8323    2.9034   -0.5556 H   0  0  0  0  0  0  0  0  0  0  0  0
   -3.7558    2.3070   -1.9881 H   0  0  0  0  0  0  0  0  0  0  0  0
    2.5576   -1.5271   -1.5836 H   0  0  0  0  0  0  0  0  0  0  0  0
    3.1766   -0.0929    2.4364 H   0  0  0  0  0  0  0  0  0  0  0  0
    4.0454    0.2366   -2.4390 H   0  0  0  0  0  0  0  0  0  0  0  0
    4.6390    1.6337    1.6206 H   0  0  0  0  0  0  0  0  0  0  0  0
    6.4833    3.6333   -0.5593 H   0  0  0  0  0  0  0  0  0  0  0  0
    6.5147    2.3919    0.6882 H   0  0  0  0  0  0  0  0  0  0  0  0
    5.0919    3.5116    0.5120 H   0  0  0  0  0  0  0  0  0  0  0  0
  1  3  2  0  0  0  0
  1  4  2  0  0  0  0
  1  7  1  0  0  0  0
  1 17  1  0  0  0  0
  2 14  2  0  0  0  0
  5 22  1  0  0  0  0
  5 23  1  0  0  0  0
  6  9  1  0  0  0  0
  6 12  1  0  0  0  0
  6 14  1  0  0  0  0
  7 10  1  0  0  0  0
  7 13  1  0  0  0  0
  8 11  1  0  0  0  0
  8 14  1  0  0  0  0
  8 15  1  0  0  0  0
  9 10  1  0  0  0  0
  9 11  1  0  0  0  0
  9 24  1  0  0  0  0
 10 25  1  0  0  0  0
 10 26  1  0  0  0  0
 11 27  1  0  0  0  0
 11 28  1  0  0  0  0
 12 13  1  0  0  0  0
 12 29  1  0  0  0  0
 12 30  1  0  0  0  0
 13 31  1  0  0  0  0
 13 32  1  0  0  0  0
 15 16  1  0  0  0  0
 15 33  1  0  0  0  0
 15 34  1  0  0  0  0
 16 18  2  0  0  0  0
 16 19  1  0  0  0  0
 17 35  1  0  0  0  0
 17 36  1  0  0  0  0
 17 37  1  0  0  0  0
 18 20  1  0  0  0  0
 18 38  1  0  0  0  0
 19 21  2  0  0  0  0
 19 39  1  0  0  0  0
 20 22  2  0  0  0  0
 20 40  1  0  0  0  0
 21 22  1  0  0  0  0
 21 41  1  0  0  0  0
 23 42  1  0  0  0  0
 23 43  1  0  0  0  0
 23 44  1  0  0  0  0
M  END
> <PUBCHEM_COMPOUND_CID>
75536999

> <PUBCHEM_CONFORMER_RMSD>
0.8

> <PUBCHEM_CONFORMER_DIVERSEORDER>
1
21
23
18
45
27
31
15
24
37
19
46
26
28
17
22
38
35
39
42
36
20
40
34
14
32
8
25
44
16
3
29
43
9
11
13
41
2
4
33
12
7
30
47
10
6
5

> <PUBCHEM_MMFF94_PARTIAL_CHARGES>
27
1 1.33
10 0.36
11 0.3
12 0.3
13 0.36
14 0.69
15 0.44
16 -0.14
17 0.11
18 -0.15
19 -0.15
2 -0.57
20 -0.15
21 -0.15
22 0.08
23 0.28
3 -0.65
38 0.15
39 0.15
4 -0.65
40 0.15
41 0.15
5 -0.36
6 -0.66
7 -0.85
8 -0.66
9 0.3

> <PUBCHEM_EFFECTIVE_ROTOR_COUNT>
5.2

> <PUBCHEM_PHARMACOPHORE_FEATURES>
7
1 2 acceptor
1 3 acceptor
1 4 acceptor
1 5 acceptor
5 6 8 9 11 14 rings
6 16 18 19 20 21 22 rings
6 6 7 9 10 12 13 rings

> <PUBCHEM_HEAVY_ATOM_COUNT>
23

> <PUBCHEM_ATOM_DEF_STEREO_COUNT>
1

> <PUBCHEM_ATOM_UDEF_STEREO_COUNT>
0

> <PUBCHEM_BOND_DEF_STEREO_COUNT>
0

> <PUBCHEM_BOND_UDEF_STEREO_COUNT>
0

> <PUBCHEM_ISOTOPIC_ATOM_COUNT>
0

> <PUBCHEM_COMPONENT_COUNT>
1

> <PUBCHEM_CACTVS_TAUTO_COUNT>
1

> <PUBCHEM_CONFORMER_ID>
04809A6700000001

> <PUBCHEM_MMFF94_ENERGY>
59.4352

> <PUBCHEM_FEATURE_SELFOVERLAP>
35.638

> <PUBCHEM_SHAPE_FINGERPRINT>
10319926 262 13551737496922940410
10498660 4 18202283619356676802
10928967 22 11815908868006849908
10968037 57 10663825178174492445
11135609 201 18262523726775375288
11796584 16 11167643375232881261
12596602 18 15213596588730163089
12633257 1 15285365062970522484
12760667 363 9439405718285153153
12788726 201 18047461511330452643
12824470 246 10303812085723245042
12892183 10 14562522964454142818
12895836 83 18272368710814038493
12895837 130 18193843871540416268
13103583 49 11530750471312831790
1420 369 9007051370574885665
14251764 38 17901382290934672061
14251764 75 18341341019374742841
14341114 328 15864081995880524044
14774955 27 18336263462055793997
14848178 5 10087630481904773877
15163728 17 18271815604873120343
15342168 16 18260267438647089991
15475509 35 9149442550758295061
15475509 8 14836128728619548987
17780758 139 10737825631086796238
17959699 21 18341611490581255266
1813 80 10591762120843517850
193927 3 10663819689142926148
19784866 240 10952053359613668867
19784866 34 18260265256787853682
20403669 9 9223227464114060817
20567600 234 16877952629052320821
20645477 70 12966833637711225106
21401589 2 17968098654731034985
21864079 5 18261112984811385160
23227448 37 18409166619427525333
23503958 8 8646230129114776174
23559900 14 17703225097115471430
270888 7 18261673770260006052
2838139 119 18335135363009820356
312425 54 7853309622046662412
312425 83 18202570557674245766
3472631 163 18411699906612472820
4028521 119 18201162165036540370
44062 13 11455625252792306651
46194498 28 16557042696426267675
474 4 18260266304854871307
474113 269 11242258485305498145
484985 159 9870658354795106530
5104073 3 17531240703910962946
57724786 102 17821730563862885164
6034566 193 18337121171056340181
633830 44 18334010566867861922
7237137 82 18201706385001620047
7288768 16 17603586369699799960
76465 3 10303816488185893386
7808743 9 18337669827717049752
7970288 3 10231767686278875452
960060 61 14405176274808292984

> <PUBCHEM_SHAPE_MULTIPOLES>
438.76
12.8
3.07
1.49
1.44
0.9
0.08
13.58
-1.65
0.22
-0.49
0
-0.21
-0.77

> <PUBCHEM_SHAPE_SELFOVERLAP>
909.211

> <PUBCHEM_SHAPE_VOLUME>
254.1

> <PUBCHEM_COORDINATE_TYPE>
2
5
10

$$$$
