75536522
  -OEChem-12032416313D

 58 59  0     1  0  0  0  0  0999 V2000
    2.5220    0.0880    0.1412 O   0  0  0  0  0  0  0  0  0  0  0  0
    1.1012   -3.1074   -0.6813 O   0  0  0  0  0  0  0  0  0  0  0  0
    4.6357    1.4317   -1.5775 O   0  0  0  0  0  0  0  0  0  0  0  0
   -7.4044    2.1909   -1.0398 O   0  0  0  0  0  0  0  0  0  0  0  0
   -0.9853   -0.8717    0.0431 N   0  0  0  0  0  0  0  0  0  0  0  0
    4.9216   -0.8374   -1.1648 N   0  0  0  0  0  0  0  0  0  0  0  0
   -7.2911    0.0919    0.0278 N   0  0  0  0  0  0  0  0  0  0  0  0
    0.4261   -1.0072    0.3645 C   0  0  1  0  0  0  0  0  0  0  0  0
    1.2334   -1.6997   -0.7178 C   0  0  1  0  0  0  0  0  0  0  0  0
    2.6450   -1.2527   -0.3621 C   0  0  1  0  0  0  0  0  0  0  0  0
    1.1413    0.3303    0.4639 C   0  0  0  0  0  0  0  0  0  0  0  0
    3.5967   -1.2717   -1.5449 C   0  0  0  0  0  0  0  0  0  0  0  0
    6.9474    1.0009    0.7322 C   0  0  0  0  0  0  0  0  0  0  0  0
   -1.7616   -0.5182    1.2256 C   0  0  0  0  0  0  0  0  0  0  0  0
    6.7711    0.6786   -0.7707 C   0  0  0  0  0  0  0  0  0  0  0  0
    5.3302    0.4845   -1.2139 C   0  0  0  0  0  0  0  0  0  0  0  0
    6.3538   -0.1057    1.6191 C   0  0  0  0  0  0  0  0  0  0  0  0
    8.4313    1.1943    1.0868 C   0  0  0  0  0  0  0  0  0  0  0  0
    6.2004    2.3160    1.0291 C   0  0  0  0  0  0  0  0  0  0  0  0
   -3.2245   -0.3574    0.9083 C   0  0  0  0  0  0  0  0  0  0  0  0
   -3.6751    0.7938    0.2619 C   0  0  0  0  0  0  0  0  0  0  0  0
   -4.1294   -1.3587    1.2607 C   0  0  0  0  0  0  0  0  0  0  0  0
   -5.0303    0.9437   -0.0316 C   0  0  0  0  0  0  0  0  0  0  0  0
   -5.4847   -1.2089    0.9672 C   0  0  0  0  0  0  0  0  0  0  0  0
   -5.9352   -0.0577    0.3210 C   0  0  0  0  0  0  0  0  0  0  0  0
   -7.9248    1.1667   -0.6097 C   0  0  0  0  0  0  0  0  0  0  0  0
   -9.4109    0.9430   -0.7381 C   0  0  0  0  0  0  0  0  0  0  0  0
    0.5504   -1.5759    1.2969 H   0  0  0  0  0  0  0  0  0  0  0  0
    0.9446   -1.3432   -1.7145 H   0  0  0  0  0  0  0  0  0  0  0  0
    3.0591   -1.8686    0.4471 H   0  0  0  0  0  0  0  0  0  0  0  0
    0.7639    1.0599   -0.2619 H   0  0  0  0  0  0  0  0  0  0  0  0
    1.0753    0.7719    1.4628 H   0  0  0  0  0  0  0  0  0  0  0  0
    3.2364   -0.6073   -2.3386 H   0  0  0  0  0  0  0  0  0  0  0  0
    3.6893   -2.2831   -1.9533 H   0  0  0  0  0  0  0  0  0  0  0  0
   -1.3297   -1.7591   -0.3246 H   0  0  0  0  0  0  0  0  0  0  0  0
    5.5712   -1.5469   -0.8388 H   0  0  0  0  0  0  0  0  0  0  0  0
   -1.4045    0.4244    1.6596 H   0  0  0  0  0  0  0  0  0  0  0  0
   -1.6406   -1.2818    2.0051 H   0  0  0  0  0  0  0  0  0  0  0  0
    1.3576   -3.4157    0.2043 H   0  0  0  0  0  0  0  0  0  0  0  0
    7.3453   -0.2222   -1.0243 H   0  0  0  0  0  0  0  0  0  0  0  0
    7.1944    1.4841   -1.3851 H   0  0  0  0  0  0  0  0  0  0  0  0
    6.8012   -1.0780    1.3850 H   0  0  0  0  0  0  0  0  0  0  0  0
    6.5432    0.0981    2.6794 H   0  0  0  0  0  0  0  0  0  0  0  0
    5.2690   -0.1926    1.5008 H   0  0  0  0  0  0  0  0  0  0  0  0
    8.8778    1.9972    0.4896 H   0  0  0  0  0  0  0  0  0  0  0  0
    9.0010    0.2787    0.8934 H   0  0  0  0  0  0  0  0  0  0  0  0
    8.5609    1.4521    2.1439 H   0  0  0  0  0  0  0  0  0  0  0  0
    6.3718    2.6363    2.0637 H   0  0  0  0  0  0  0  0  0  0  0  0
    6.5430    3.1251    0.3743 H   0  0  0  0  0  0  0  0  0  0  0  0
    5.1172    2.2137    0.9049 H   0  0  0  0  0  0  0  0  0  0  0  0
   -2.9785    1.5804   -0.0166 H   0  0  0  0  0  0  0  0  0  0  0  0
   -3.7921   -2.2617    1.7626 H   0  0  0  0  0  0  0  0  0  0  0  0
   -5.3036    1.8618   -0.5327 H   0  0  0  0  0  0  0  0  0  0  0  0
   -6.1786   -1.9974    1.2474 H   0  0  0  0  0  0  0  0  0  0  0  0
   -7.8859   -0.6818    0.3175 H   0  0  0  0  0  0  0  0  0  0  0  0
   -9.8519    0.8002    0.2524 H   0  0  0  0  0  0  0  0  0  0  0  0
   -9.5993    0.0587   -1.3534 H   0  0  0  0  0  0  0  0  0  0  0  0
   -9.8770    1.8116   -1.2114 H   0  0  0  0  0  0  0  0  0  0  0  0
  1 10  1  0  0  0  0
  1 11  1  0  0  0  0
  2  9  1  0  0  0  0
  2 39  1  0  0  0  0
  3 16  2  0  0  0  0
  4 26  2  0  0  0  0
  5  8  1  0  0  0  0
  5 14  1  0  0  0  0
  5 35  1  0  0  0  0
  6 12  1  0  0  0  0
  6 16  1  0  0  0  0
  6 36  1  0  0  0  0
  7 25  1  0  0  0  0
  7 26  1  0  0  0  0
  7 55  1  0  0  0  0
  8  9  1  0  0  0  0
  8 11  1  0  0  0  0
  8 28  1  0  0  0  0
  9 10  1  0  0  0  0
  9 29  1  0  0  0  0
 10 12  1  0  0  0  0
 10 30  1  0  0  0  0
 11 31  1  0  0  0  0
 11 32  1  0  0  0  0
 12 33  1  0  0  0  0
 12 34  1  0  0  0  0
 13 15  1  0  0  0  0
 13 17  1  0  0  0  0
 13 18  1  0  0  0  0
 13 19  1  0  0  0  0
 14 20  1  0  0  0  0
 14 37  1  0  0  0  0
 14 38  1  0  0  0  0
 15 16  1  0  0  0  0
 15 40  1  0  0  0  0
 15 41  1  0  0  0  0
 17 42  1  0  0  0  0
 17 43  1  0  0  0  0
 17 44  1  0  0  0  0
 18 45  1  0  0  0  0
 18 46  1  0  0  0  0
 18 47  1  0  0  0  0
 19 48  1  0  0  0  0
 19 49  1  0  0  0  0
 19 50  1  0  0  0  0
 20 21  2  0  0  0  0
 20 22  1  0  0  0  0
 21 23  1  0  0  0  0
 21 51  1  0  0  0  0
 22 24  2  0  0  0  0
 22 52  1  0  0  0  0
 23 25  2  0  0  0  0
 23 53  1  0  0  0  0
 24 25  1  0  0  0  0
 24 54  1  0  0  0  0
 26 27  1  0  0  0  0
 27 56  1  0  0  0  0
 27 57  1  0  0  0  0
 27 58  1  0  0  0  0
M  END
> <PUBCHEM_COMPOUND_CID>
75536522

> <PUBCHEM_CONFORMER_RMSD>
1.2

> <PUBCHEM_CONFORMER_DIVERSEORDER>
1
24
44
97
56
85
63
76
57
47
41
22
13
21
103
40
106
37
92
77
111
15
90
93
3
80
60
64
7
116
27
18
91
62
115
36
87
6
52
104
79
30
117
107
20
121
71
14
59
99
110
84
69
39
50
26
118
109
8
89
9
73
33
43
86
61
101
12
98
95
48
49
100
45
34
53
68
112
123
83
42
51
58
120
82
4
23
31
25
108
102
66
19
28
54
119
55
46
88
72
96
32
17
29
78
74
65
11
114
75
38
113
5
67
94
16
124
10
70
81
105
35
2
122

> <PUBCHEM_MMFF94_PARTIAL_CHARGES>
31
1 -0.56
10 0.28
11 0.28
12 0.3
14 0.41
15 0.06
16 0.57
2 -0.68
20 -0.14
21 -0.15
22 -0.15
23 -0.15
24 -0.15
25 0.12
26 0.57
27 0.06
3 -0.57
35 0.36
36 0.37
39 0.4
4 -0.57
5 -0.9
51 0.15
52 0.15
53 0.15
54 0.15
55 0.37
6 -0.73
7 -0.55
8 0.27
9 0.28

> <PUBCHEM_EFFECTIVE_ROTOR_COUNT>
11

> <PUBCHEM_PHARMACOPHORE_FEATURES>
12
1 1 acceptor
1 2 acceptor
1 2 donor
1 3 acceptor
1 4 acceptor
1 5 cation
1 5 donor
1 6 donor
1 7 donor
4 13 17 18 19 hydrophobe
5 1 8 9 10 11 rings
6 20 21 22 23 24 25 rings

> <PUBCHEM_HEAVY_ATOM_COUNT>
27

> <PUBCHEM_ATOM_DEF_STEREO_COUNT>
3

> <PUBCHEM_ATOM_UDEF_STEREO_COUNT>
0

> <PUBCHEM_BOND_DEF_STEREO_COUNT>
0

> <PUBCHEM_BOND_UDEF_STEREO_COUNT>
0

> <PUBCHEM_ISOTOPIC_ATOM_COUNT>
0

> <PUBCHEM_COMPONENT_COUNT>
1

> <PUBCHEM_CACTVS_TAUTO_COUNT>
6

> <PUBCHEM_CONFORMER_ID>
0480988A00000001

> <PUBCHEM_MMFF94_ENERGY>
64.9882

> <PUBCHEM_FEATURE_SELFOVERLAP>
60.898

> <PUBCHEM_SHAPE_FINGERPRINT>
10 15 18409731802832661922
10280341 67 17823407211890756957
10533779 47 12396578469697211481
10835480 77 18335707118173679967
11315181 36 17775569741714266635
11456790 92 14345800418712211781
11476731 38 16486976219800219615
11524674 6 11746942001428978401
117089 54 11532130372135663992
11719270 70 18410576167486091130
12373685 5 17967243218143754811
125118 31 18113623404108599860
12778500 126 16950279616377015136
12838862 33 18271796930386835649
13422730 43 17385728019893188355
13673619 4 10879991350587205323
13685833 64 10015863172016445183
14117953 113 17846226592420173272
14347424 109 16443346512142285508
14429380 56 17561361807800656872
14444916 359 9367347050790724877
15183329 4 18114190726148746152
15352257 5 10375870775115126413
1577012 14 15285654221364716023
195137 95 18186514393247150660
20554085 129 18259980479044641954
21150785 3 15841834451565268812
21267235 1 8358260345265722546
21591340 7 15936410066101096451
21774942 28 18114180779162841957
22864921 267 16081361917874217064
23081809 10 16200163044858611083
23522609 53 14476146469301247842
23559900 14 18411983585725025385
246663 6 10735877279165448621
312425 54 15502660472490106136
34797466 226 15697730259254504644
445580 126 16805321081154312145
445580 167 16415761933499890513
5470011 282 16845292713985780869
57634706 306 18201150066102988224
636775 8 13254791374383176869
636783 248 15574729006289798564
6475588 51 18268430127885866881
9995097 26 13614236014537110773

> <PUBCHEM_SHAPE_MULTIPOLES>
517.23
28.48
2.03
1.41
19.1
0.38
-0.05
-17.91
-1.15
-0.65
-0.32
-1.45
0.01
2.77

> <PUBCHEM_SHAPE_SELFOVERLAP>
1056.463

> <PUBCHEM_SHAPE_VOLUME>
300.6

> <PUBCHEM_COORDINATE_TYPE>
2
5
10

$$$$
