45361538
  -OEChem-12032416353D

 76 79  0     1  0  0  0  0  0999 V2000
    0.0521   -1.4230    1.9366 O   0  0  0  0  0  0  0  0  0  0  0  0
   -4.3186   -2.4437   -0.8660 O   0  0  0  0  0  0  0  0  0  0  0  0
    5.3535    2.5478    0.1301 O   0  0  0  0  0  0  0  0  0  0  0  0
   -9.3995    2.8405    0.2876 O   0  0  0  0  0  0  0  0  0  0  0  0
    4.7842    0.3076   -0.0520 N   0  0  0  0  0  0  0  0  0  0  0  0
   -4.4696   -1.2939    1.1428 N   0  0  0  0  0  0  0  0  0  0  0  0
    7.3703   -0.3351    0.3239 N   0  0  0  0  0  0  0  0  0  0  0  0
   -7.3250    0.8952    0.1684 N   0  0  0  0  0  0  0  0  0  0  0  0
    9.3533    1.6057    0.7330 N   0  0  0  0  0  0  0  0  0  0  0  0
    0.8340   -0.3370   -1.6390 C   0  0  1  0  0  0  0  0  0  0  0  0
    1.0034   -0.4516   -0.0874 C   0  0  2  0  0  0  0  0  0  0  0  0
    2.5142   -0.6440    0.2974 C   0  0  1  0  0  0  0  0  0  0  0  0
    0.0225   -1.5008    0.5106 C   0  0  2  0  0  0  0  0  0  0  0  0
   -0.6454   -0.0356   -1.9757 C   0  0  0  0  0  0  0  0  0  0  0  0
    1.6843    0.8480   -2.1527 C   0  0  0  0  0  0  0  0  0  0  0  0
   -1.4437   -1.2546    0.0849 C   0  0  1  0  0  0  0  0  0  0  0  0
    3.3707    0.5137   -0.2883 C   0  0  2  0  0  0  0  0  0  0  0  0
   -1.6052   -1.0822   -1.4253 C   0  0  0  0  0  0  0  0  0  0  0  0
    3.1568    0.7302   -1.7861 C   0  0  0  0  0  0  0  0  0  0  0  0
    1.2601   -1.6296   -2.3801 C   0  0  0  0  0  0  0  0  0  0  0  0
   -2.3739   -2.3710    0.5755 C   0  0  2  0  0  0  0  0  0  0  0  0
    2.7567   -0.7356    1.8134 C   0  0  0  0  0  0  0  0  0  0  0  0
   -1.9260   -3.7139    0.0095 C   0  0  0  0  0  0  0  0  0  0  0  0
   -3.8148   -2.0559    0.1860 C   0  0  0  0  0  0  0  0  0  0  0  0
    5.6638    1.3595    0.1392 C   0  0  0  0  0  0  0  0  0  0  0  0
    7.0862    0.9823    0.3433 C   0  0  0  0  0  0  0  0  0  0  0  0
   -5.8423   -0.8684    0.9974 C   0  0  0  0  0  0  0  0  0  0  0  0
   -5.9298    0.4792    0.2962 C   0  0  0  0  0  0  0  0  0  0  0  0
    8.0601    1.9356    0.5444 C   0  0  0  0  0  0  0  0  0  0  0  0
   -7.8415    1.3905    1.4519 C   0  0  0  0  0  0  0  0  0  0  0  0
   -7.4682    1.9302   -0.8650 C   0  0  0  0  0  0  0  0  0  0  0  0
    8.6634   -0.6649    0.5127 C   0  0  0  0  0  0  0  0  0  0  0  0
   -9.2941    1.8293    1.2906 C   0  0  0  0  0  0  0  0  0  0  0  0
   -8.9295    2.3574   -0.9713 C   0  0  0  0  0  0  0  0  0  0  0  0
    9.6373    0.2883    0.7136 C   0  0  0  0  0  0  0  0  0  0  0  0
    0.7124    0.5179    0.3480 H   0  0  0  0  0  0  0  0  0  0  0  0
    2.8701   -1.5916   -0.1264 H   0  0  0  0  0  0  0  0  0  0  0  0
    0.3814   -2.4932    0.2314 H   0  0  0  0  0  0  0  0  0  0  0  0
   -0.9250    0.9442   -1.5652 H   0  0  0  0  0  0  0  0  0  0  0  0
   -0.7804    0.0391   -3.0625 H   0  0  0  0  0  0  0  0  0  0  0  0
    1.5930    0.9370   -3.2427 H   0  0  0  0  0  0  0  0  0  0  0  0
    1.2979    1.7875   -1.7350 H   0  0  0  0  0  0  0  0  0  0  0  0
   -1.7772   -0.3188    0.5582 H   0  0  0  0  0  0  0  0  0  0  0  0
    3.0796    1.4401    0.2259 H   0  0  0  0  0  0  0  0  0  0  0  0
   -1.4563   -2.0100   -1.9807 H   0  0  0  0  0  0  0  0  0  0  0  0
   -2.6170   -0.7381   -1.6685 H   0  0  0  0  0  0  0  0  0  0  0  0
    3.6745    1.6433   -2.1073 H   0  0  0  0  0  0  0  0  0  0  0  0
    3.6230   -0.0828   -2.3561 H   0  0  0  0  0  0  0  0  0  0  0  0
    2.3197   -1.8640   -2.2501 H   0  0  0  0  0  0  0  0  0  0  0  0
    1.0858   -1.5305   -3.4580 H   0  0  0  0  0  0  0  0  0  0  0  0
    0.7049   -2.5087   -2.0413 H   0  0  0  0  0  0  0  0  0  0  0  0
   -2.3267   -2.4412    1.6700 H   0  0  0  0  0  0  0  0  0  0  0  0
    2.3797   -1.6794    2.2172 H   0  0  0  0  0  0  0  0  0  0  0  0
    2.2825    0.0971    2.3429 H   0  0  0  0  0  0  0  0  0  0  0  0
    3.8235   -0.7194    2.0588 H   0  0  0  0  0  0  0  0  0  0  0  0
    5.1458   -0.6415   -0.0856 H   0  0  0  0  0  0  0  0  0  0  0  0
   -0.2167   -0.5252    2.1958 H   0  0  0  0  0  0  0  0  0  0  0  0
   -1.9035   -3.7626   -1.0812 H   0  0  0  0  0  0  0  0  0  0  0  0
   -2.6422   -4.4864    0.3192 H   0  0  0  0  0  0  0  0  0  0  0  0
   -0.9582   -4.0382    0.3994 H   0  0  0  0  0  0  0  0  0  0  0  0
   -3.9688   -0.9994    1.9760 H   0  0  0  0  0  0  0  0  0  0  0  0
   -6.3948   -1.6323    0.4378 H   0  0  0  0  0  0  0  0  0  0  0  0
   -6.2496   -0.8329    2.0117 H   0  0  0  0  0  0  0  0  0  0  0  0
   -5.3235    1.2340    0.8145 H   0  0  0  0  0  0  0  0  0  0  0  0
   -5.4826    0.3620   -0.7003 H   0  0  0  0  0  0  0  0  0  0  0  0
    7.8498    2.9984    0.5638 H   0  0  0  0  0  0  0  0  0  0  0  0
   -7.8108    0.6169    2.2249 H   0  0  0  0  0  0  0  0  0  0  0  0
   -7.2432    2.2426    1.8005 H   0  0  0  0  0  0  0  0  0  0  0  0
   -6.8488    2.8020   -0.6170 H   0  0  0  0  0  0  0  0  0  0  0  0
   -7.1421    1.5465   -1.8386 H   0  0  0  0  0  0  0  0  0  0  0  0
    8.8924   -1.7233    0.4972 H   0  0  0  0  0  0  0  0  0  0  0  0
   -9.9455    0.9860    1.0307 H   0  0  0  0  0  0  0  0  0  0  0  0
   -9.6617    2.2543    2.2302 H   0  0  0  0  0  0  0  0  0  0  0  0
   -9.0280    3.1706   -1.6974 H   0  0  0  0  0  0  0  0  0  0  0  0
   -9.5688    1.5324   -1.3087 H   0  0  0  0  0  0  0  0  0  0  0  0
   10.6761    0.0224    0.8652 H   0  0  0  0  0  0  0  0  0  0  0  0
  1 13  1  0  0  0  0
  1 57  1  0  0  0  0
  2 24  2  0  0  0  0
  3 25  2  0  0  0  0
  4 33  1  0  0  0  0
  4 34  1  0  0  0  0
  5 17  1  0  0  0  0
  5 25  1  0  0  0  0
  5 56  1  0  0  0  0
  6 24  1  0  0  0  0
  6 27  1  0  0  0  0
  6 61  1  0  0  0  0
  7 26  2  0  0  0  0
  7 32  1  0  0  0  0
  8 28  1  0  0  0  0
  8 30  1  0  0  0  0
  8 31  1  0  0  0  0
  9 29  2  0  0  0  0
  9 35  1  0  0  0  0
 10 11  1  0  0  0  0
 10 14  1  0  0  0  0
 10 15  1  0  0  0  0
 10 20  1  0  0  0  0
 11 12  1  0  0  0  0
 11 13  1  0  0  0  0
 11 36  1  0  0  0  0
 12 17  1  0  0  0  0
 12 22  1  0  0  0  0
 12 37  1  0  0  0  0
 13 16  1  0  0  0  0
 13 38  1  0  0  0  0
 14 18  1  0  0  0  0
 14 39  1  0  0  0  0
 14 40  1  0  0  0  0
 15 19  1  0  0  0  0
 15 41  1  0  0  0  0
 15 42  1  0  0  0  0
 16 18  1  0  0  0  0
 16 21  1  0  0  0  0
 16 43  1  0  0  0  0
 17 19  1  0  0  0  0
 17 44  1  0  0  0  0
 18 45  1  0  0  0  0
 18 46  1  0  0  0  0
 19 47  1  0  0  0  0
 19 48  1  0  0  0  0
 20 49  1  0  0  0  0
 20 50  1  0  0  0  0
 20 51  1  0  0  0  0
 21 23  1  0  0  0  0
 21 24  1  0  0  0  0
 21 52  1  0  0  0  0
 22 53  1  0  0  0  0
 22 54  1  0  0  0  0
 22 55  1  0  0  0  0
 23 58  1  0  0  0  0
 23 59  1  0  0  0  0
 23 60  1  0  0  0  0
 25 26  1  0  0  0  0
 26 29  1  0  0  0  0
 27 28  1  0  0  0  0
 27 62  1  0  0  0  0
 27 63  1  0  0  0  0
 28 64  1  0  0  0  0
 28 65  1  0  0  0  0
 29 66  1  0  0  0  0
 30 33  1  0  0  0  0
 30 67  1  0  0  0  0
 30 68  1  0  0  0  0
 31 34  1  0  0  0  0
 31 69  1  0  0  0  0
 31 70  1  0  0  0  0
 32 35  2  0  0  0  0
 32 71  1  0  0  0  0
 33 72  1  0  0  0  0
 33 73  1  0  0  0  0
 34 74  1  0  0  0  0
 34 75  1  0  0  0  0
 35 76  1  0  0  0  0
M  END
> <PUBCHEM_COMPOUND_CID>
45361538

> <PUBCHEM_CONFORMER_RMSD>
1.2

> <PUBCHEM_CONFORMER_DIVERSEORDER>
1
26
127
87
49
112
106
91
83
80
52
75
119
145
95
31
141
97
133
77
136
78
86
143
46
116
3
104
45
66
12
125
35
99
122
32
76
121
50
43
120
7
20
90
51
138
29
118
144
117
62
82
22
85
105
47
109
115
63
93
137
102
61
74
60
135
59
42
2
101
124
70
142
8
108
36
65
111
79
64
54
41
130
11
81
84
131
134
139
71
10
34
38
114
103
128
67
14
132
39
33
53
21
68
24
44
107
69
56
113
98
96
18
89
88
92
5
100
15
19
30
40
110
28
37
6
73
58
48
126
55
23
9
94
72
16
123
25
4
13
129
57
27
17
140

> <PUBCHEM_MMFF94_PARTIAL_CHARGES>
30
1 -0.68
13 0.28
17 0.3
2 -0.57
21 0.06
24 0.57
25 0.54
26 0.4
27 0.3
28 0.27
29 0.16
3 -0.57
30 0.27
31 0.27
32 0.16
33 0.28
34 0.28
35 0.16
4 -0.56
5 -0.73
56 0.37
57 0.4
6 -0.73
61 0.37
66 0.15
7 -0.62
71 0.15
76 0.15
8 -0.81
9 -0.62

> <PUBCHEM_EFFECTIVE_ROTOR_COUNT>
11.8

> <PUBCHEM_PHARMACOPHORE_FEATURES>
15
1 1 acceptor
1 1 donor
1 2 acceptor
1 23 hydrophobe
1 3 acceptor
1 4 acceptor
1 5 donor
1 6 donor
1 7 acceptor
1 8 cation
1 9 acceptor
6 10 11 12 15 17 19 rings
6 10 11 13 14 16 18 rings
6 4 8 30 31 33 34 rings
6 7 9 26 29 32 35 rings

> <PUBCHEM_HEAVY_ATOM_COUNT>
35

> <PUBCHEM_ATOM_DEF_STEREO_COUNT>
6

> <PUBCHEM_ATOM_UDEF_STEREO_COUNT>
1

> <PUBCHEM_BOND_DEF_STEREO_COUNT>
0

> <PUBCHEM_BOND_UDEF_STEREO_COUNT>
0

> <PUBCHEM_ISOTOPIC_ATOM_COUNT>
0

> <PUBCHEM_COMPONENT_COUNT>
1

> <PUBCHEM_CACTVS_TAUTO_COUNT>
4

> <PUBCHEM_CONFORMER_ID>
02B4298200000001

> <PUBCHEM_MMFF94_ENERGY>
91.4795

> <PUBCHEM_FEATURE_SELFOVERLAP>
76.142

> <PUBCHEM_SHAPE_FINGERPRINT>
10076449 9 11458426829768044101
10162869 55 12463568492130609354
10190108 129 16515682230581110440
10533779 1 17896875462563170597
11181472 205 18342185475366385316
11443803 9 14620507905500881998
11456790 92 16805612477442822565
11478447 183 11672066329308560873
11578821 258 18197777906991720280
12539745 222 12901541335384125423
12539747 363 16515402988755897116
12838862 33 15697997440785958162
13383668 40 18338238151376867670
13530399 1 18115314500838796396
1361 4 9078574593230069609
13782708 43 11025782228574231101
14150023 24 17917991689883224878
14671636 106 8934999274084514777
14931854 50 13470406644156505653
15131766 46 17410767382850764616
15419008 145 16877662336677239349
15439362 3 18339364072099526759
19315958 150 18410578353408173450
20105231 36 15430033258567326194
20721686 146 18413671305217742653
21150785 3 9583528616227926474
21267235 1 16443058444221970190
21781055 127 17894644634366831126
21792938 703 11167642318786906741
21792965 68 18272940401416577273
21927370 108 14056713530890783750
22149856 69 18186518826966943196
23424782 7 8502656991755416734
23522609 53 16879373287684464622
23569917 315 11531020965161772448
23576562 1 16056303059449700321
25269216 80 17274527807991185255
3178227 256 15791733018671635410
3552219 110 15213020445201231374
3918712 181 18341895139856689417
4330586 98 12822715190620400341
54039377 194 9295283946419896273
58083652 198 15502653871183414463
58260988 521 13262395566118569267
6004065 56 11024107660118945954
6058803 2 17027707400481412127
6204607 403 17826802731689598132

> <PUBCHEM_SHAPE_MULTIPOLES>
671.9
31.71
2.95
1.78
2.91
0.74
-0.73
-30.55
12.06
4.93
0.13
0.42
0.16
0.27

> <PUBCHEM_SHAPE_SELFOVERLAP>
1397.647

> <PUBCHEM_SHAPE_VOLUME>
376.8

> <PUBCHEM_COORDINATE_TYPE>
2
5
10

$$$$
