75368669
  -OEChem-12032416403D

 55 59  0     1  0  0  0  0  0999 V2000
   -6.5738    2.3115   -0.4018 O   0  0  0  0  0  0  0  0  0  0  0  0
   -3.7147   -2.7071   -0.0161 O   0  0  0  0  0  0  0  0  0  0  0  0
   -1.5840   -1.7178   -0.0320 N   0  0  0  0  0  0  0  0  0  0  0  0
   -3.3801   -0.3787   -0.1912 N   0  0  0  0  0  0  0  0  0  0  0  0
    1.0810   -1.2125    0.7119 N   0  0  2  0  0  0  0  0  0  0  0  0
    4.2050    1.9970    0.6544 N   0  0  0  0  0  0  0  0  0  0  0  0
   -1.0336   -0.3958   -0.2470 C   0  0  1  0  0  0  0  0  0  0  0  0
   -2.2453    0.5259   -0.1229 C   0  0  0  0  0  0  0  0  0  0  0  0
    0.0895   -0.1184    0.7518 C   0  0  0  0  0  0  0  0  0  0  0  0
   -4.7392    0.1012   -0.2191 C   0  0  0  0  0  0  0  0  0  0  0  0
   -0.6867   -2.8473    0.0942 C   0  0  0  0  0  0  0  0  0  0  0  0
   -2.9846   -1.7267   -0.0766 C   0  0  0  0  0  0  0  0  0  0  0  0
    0.4537   -2.5045    1.0561 C   0  0  0  0  0  0  0  0  0  0  0  0
   -5.0413    0.8090   -1.5403 C   0  0  0  0  0  0  0  0  0  0  0  0
   -5.0194    1.0349    0.9593 C   0  0  0  0  0  0  0  0  0  0  0  0
    2.1911   -0.9270    1.6206 C   0  0  0  0  0  0  0  0  0  0  0  0
   -6.4336    1.4268   -1.5133 C   0  0  0  0  0  0  0  0  0  0  0  0
   -6.4136    1.6383    0.8466 C   0  0  0  0  0  0  0  0  0  0  0  0
    3.1416    0.0879    1.0431 C   0  0  0  0  0  0  0  0  0  0  0  0
    4.1154   -0.1433    0.0316 C   0  0  0  0  0  0  0  0  0  0  0  0
    3.2209    1.4127    1.4057 C   0  0  0  0  0  0  0  0  0  0  0  0
    4.7685    1.0703   -0.1935 C   0  0  0  0  0  0  0  0  0  0  0  0
    4.5050   -1.2721   -0.7163 C   0  0  0  0  0  0  0  0  0  0  0  0
    5.7960    1.2121   -1.1330 C   0  0  0  0  0  0  0  0  0  0  0  0
    4.5857    3.3897    0.7504 C   0  0  0  0  0  0  0  0  0  0  0  0
    5.5312   -1.1452   -1.6596 C   0  0  0  0  0  0  0  0  0  0  0  0
    6.1654    0.0788   -1.8631 C   0  0  0  0  0  0  0  0  0  0  0  0
   -0.6476   -0.3733   -1.2747 H   0  0  0  0  0  0  0  0  0  0  0  0
   -2.2724    1.2599   -0.9320 H   0  0  0  0  0  0  0  0  0  0  0  0
   -2.2569    1.0416    0.8420 H   0  0  0  0  0  0  0  0  0  0  0  0
    0.5455    0.8410    0.4842 H   0  0  0  0  0  0  0  0  0  0  0  0
   -0.3199   -0.0174    1.7663 H   0  0  0  0  0  0  0  0  0  0  0  0
   -5.4050   -0.7676   -0.1374 H   0  0  0  0  0  0  0  0  0  0  0  0
   -0.2947   -3.0645   -0.9061 H   0  0  0  0  0  0  0  0  0  0  0  0
   -1.2456   -3.7236    0.4373 H   0  0  0  0  0  0  0  0  0  0  0  0
    0.0668   -2.4732    2.0835 H   0  0  0  0  0  0  0  0  0  0  0  0
    1.1949   -3.3112    1.0076 H   0  0  0  0  0  0  0  0  0  0  0  0
   -4.9514    0.1114   -2.3809 H   0  0  0  0  0  0  0  0  0  0  0  0
   -4.3169    1.6139   -1.7120 H   0  0  0  0  0  0  0  0  0  0  0  0
   -4.3023    1.8644    0.9656 H   0  0  0  0  0  0  0  0  0  0  0  0
   -4.9093    0.5022    1.9107 H   0  0  0  0  0  0  0  0  0  0  0  0
    2.7788   -1.8386    1.7971 H   0  0  0  0  0  0  0  0  0  0  0  0
    1.8348   -0.6047    2.6082 H   0  0  0  0  0  0  0  0  0  0  0  0
   -6.6013    2.0079   -2.4257 H   0  0  0  0  0  0  0  0  0  0  0  0
   -7.2110    0.6552   -1.4655 H   0  0  0  0  0  0  0  0  0  0  0  0
   -7.1898    0.8708    0.9496 H   0  0  0  0  0  0  0  0  0  0  0  0
   -6.5677    2.3725    1.6438 H   0  0  0  0  0  0  0  0  0  0  0  0
    2.6583    1.9821    2.1340 H   0  0  0  0  0  0  0  0  0  0  0  0
    4.0207   -2.2334   -0.5703 H   0  0  0  0  0  0  0  0  0  0  0  0
    6.2938    2.1621   -1.2962 H   0  0  0  0  0  0  0  0  0  0  0  0
    5.6388    3.4403    1.0387 H   0  0  0  0  0  0  0  0  0  0  0  0
    4.4271    3.8585   -0.2241 H   0  0  0  0  0  0  0  0  0  0  0  0
    3.9713    3.8877    1.5048 H   0  0  0  0  0  0  0  0  0  0  0  0
    5.8358   -2.0124   -2.2395 H   0  0  0  0  0  0  0  0  0  0  0  0
    6.9601    0.1548   -2.6009 H   0  0  0  0  0  0  0  0  0  0  0  0
  1 17  1  0  0  0  0
  1 18  1  0  0  0  0
  2 12  2  0  0  0  0
  3  7  1  0  0  0  0
  3 11  1  0  0  0  0
  3 12  1  0  0  0  0
  4  8  1  0  0  0  0
  4 10  1  0  0  0  0
  4 12  1  0  0  0  0
  5  9  1  0  0  0  0
  5 13  1  0  0  0  0
  5 16  1  0  0  0  0
  6 21  1  0  0  0  0
  6 22  1  0  0  0  0
  6 25  1  0  0  0  0
  7  8  1  0  0  0  0
  7  9  1  0  0  0  0
  7 28  1  0  0  0  0
  8 29  1  0  0  0  0
  8 30  1  0  0  0  0
  9 31  1  0  0  0  0
  9 32  1  0  0  0  0
 10 14  1  0  0  0  0
 10 15  1  0  0  0  0
 10 33  1  0  0  0  0
 11 13  1  0  0  0  0
 11 34  1  0  0  0  0
 11 35  1  0  0  0  0
 13 36  1  0  0  0  0
 13 37  1  0  0  0  0
 14 17  1  0  0  0  0
 14 38  1  0  0  0  0
 14 39  1  0  0  0  0
 15 18  1  0  0  0  0
 15 40  1  0  0  0  0
 15 41  1  0  0  0  0
 16 19  1  0  0  0  0
 16 42  1  0  0  0  0
 16 43  1  0  0  0  0
 17 44  1  0  0  0  0
 17 45  1  0  0  0  0
 18 46  1  0  0  0  0
 18 47  1  0  0  0  0
 19 20  1  0  0  0  0
 19 21  2  0  0  0  0
 20 22  1  0  0  0  0
 20 23  2  0  0  0  0
 21 48  1  0  0  0  0
 22 24  2  0  0  0  0
 23 26  1  0  0  0  0
 23 49  1  0  0  0  0
 24 27  1  0  0  0  0
 24 50  1  0  0  0  0
 25 51  1  0  0  0  0
 25 52  1  0  0  0  0
 25 53  1  0  0  0  0
 26 27  2  0  0  0  0
 26 54  1  0  0  0  0
 27 55  1  0  0  0  0
M  END
> <PUBCHEM_COMPOUND_CID>
75368669

> <PUBCHEM_CONFORMER_RMSD>
0.8

> <PUBCHEM_CONFORMER_DIVERSEORDER>
1
77
15
117
67
16
43
102
52
121
69
45
6
92
94
37
30
108
115
20
10
12
46
106
85
48
3
122
98
22
66
111
86
36
78
71
38
104
39
68
120
110
93
79
31
54
116
19
29
96
89
32
59
21
61
107
123
8
91
14
40
58
76
90
105
9
84
73
82
70
83
101
112
11
119
50
17
5
18
35
2
95
100
26
87
109
42
24
4
74
44
34
60
118
33
27
88
51
80
64
99
56
97
49
53
75
23
62
63
103
114
81
113
13
28
72
25
65
57
47
55
7
41

> <PUBCHEM_MMFF94_PARTIAL_CHARGES>
29
1 -0.56
10 0.3
11 0.3
12 0.69
13 0.27
16 0.45
17 0.28
18 0.28
19 -0.18
2 -0.57
21 -0.3
22 -0.15
23 -0.15
24 -0.15
25 0.26
26 -0.15
27 -0.15
3 -0.66
4 -0.66
48 0.15
49 0.15
5 -0.81
50 0.15
54 0.15
55 0.15
6 0.05
7 0.3
8 0.3
9 0.27

> <PUBCHEM_EFFECTIVE_ROTOR_COUNT>
5.4

> <PUBCHEM_PHARMACOPHORE_FEATURES>
9
1 1 acceptor
1 2 acceptor
1 5 cation
1 6 cation
5 3 4 7 8 12 rings
5 6 19 20 21 22 rings
6 1 10 14 15 17 18 rings
6 20 22 23 24 26 27 rings
6 3 5 7 9 11 13 rings

> <PUBCHEM_HEAVY_ATOM_COUNT>
27

> <PUBCHEM_ATOM_DEF_STEREO_COUNT>
1

> <PUBCHEM_ATOM_UDEF_STEREO_COUNT>
0

> <PUBCHEM_BOND_DEF_STEREO_COUNT>
0

> <PUBCHEM_BOND_UDEF_STEREO_COUNT>
0

> <PUBCHEM_ISOTOPIC_ATOM_COUNT>
0

> <PUBCHEM_COMPONENT_COUNT>
1

> <PUBCHEM_CACTVS_TAUTO_COUNT>
1

> <PUBCHEM_CONFORMER_ID>
047E08DD00000001

> <PUBCHEM_MMFF94_ENERGY>
56.691

> <PUBCHEM_FEATURE_SELFOVERLAP>
45.86

> <PUBCHEM_SHAPE_FINGERPRINT>
10 15 17531251635003676705
10378564 45 18131351904114829520
10454371 7 18342452686803958231
10498660 4 18335133228584998144
10554248 39 17970042488706093735
10670039 82 18340489945840407128
10835480 77 18130222770229969368
11720765 8 18131352974041701976
11991303 11 17489295426444154679
12166972 35 13686295781585891114
12390115 104 18409451401640265571
12403259 415 18338802315729399114
12422481 6 17022894619490963327
12596602 18 14345794920563410397
12616971 3 17240749680038759122
12892183 10 11314295157956099530
13540713 5 18189871219801861819
13782708 43 13470105437994743685
13944108 23 17979355261740385041
14341114 328 15646770106566372320
14347332 77 10447926187921312131
14528608 73 18410846660156890717
14790565 3 18410570678533217577
14840074 17 17967253079171719373
14848178 5 11024107659459127585
14931854 50 18271539615434485252
15001296 14 18334851766341144129
15183329 4 17632018563319995832
15210252 30 17749677393678864956
15510800 12 11239997896997000268
15575132 122 18113898204896192709
16992828 155 15675473227426227800
17349148 13 12895080664297194590
17857418 61 8718819903949945281
190975 80 11458721516370242101
19377110 9 13984666961996662067
2026 5 13254792409365268701
20567600 234 11242266172705749998
21033648 29 18187646955164987232
21279426 13 18272373087311983673
221357 26 18202003192674278680
2215653 11 17846500322536205620
23559900 14 18201720682604609858
2747138 104 17898863602164482843
2838139 119 18335968784539565029
3004659 81 17132115719654180382
312425 54 11314296218675547237
3472631 163 18410570712428615421
34797466 226 18200593725703432159
3663271 9 13406795506463765021
38570 142 18271812281243555771
4058900 60 18189058590761671579
4340502 62 13118288079351805440
46194498 28 18055083309597247486
50009960 94 11023011360837356276
5104073 3 18041266751154817906
53794403 172 18043537311829464876
5718773 13 12103578442063185228
59682541 52 17418092083498558742
59755656 520 17703520947843412251
633830 44 18341601650969766902
6438161 24 10087626088981586961
960060 61 16988843912726103240
9689198 14 17095539378624114470

> <PUBCHEM_SHAPE_MULTIPOLES>
523.98
18.07
2.94
1.51
9.96
0.06
-0.29
-11.88
-7.18
0
0.61
-1.04
-0.21
1.3

> <PUBCHEM_SHAPE_SELFOVERLAP>
1132.936

> <PUBCHEM_SHAPE_VOLUME>
289.1

> <PUBCHEM_COORDINATE_TYPE>
2
5
10

$$$$
