56774604
  -OEChem-12032416403D

 52 54  0     1  0  0  0  0  0999 V2000
   -1.5030   -2.5130   -1.5875 O   0  0  0  0  0  0  0  0  0  0  0  0
   -0.9462   -0.8003    2.2164 O   0  0  0  0  0  0  0  0  0  0  0  0
   -4.7429   -2.2087   -0.0218 O   0  0  0  0  0  0  0  0  0  0  0  0
    5.1920    1.8390    0.0276 O   0  0  0  0  0  0  0  0  0  0  0  0
    7.7588    1.7635   -0.4192 O   0  0  0  0  0  0  0  0  0  0  0  0
   -2.8909   -0.8105    0.1547 N   0  0  0  0  0  0  0  0  0  0  0  0
    4.9547   -0.5053   -0.0041 N   0  0  0  0  0  0  0  0  0  0  0  0
   -1.4638   -0.6179   -0.1316 C   0  0  1  0  0  0  0  0  0  0  0  0
   -0.6027   -1.3070    0.9310 C   0  0  1  0  0  0  0  0  0  0  0  0
   -1.1367   -1.1398   -1.5257 C   0  0  0  0  0  0  0  0  0  0  0  0
   -3.5036    0.0678    1.1422 C   0  0  0  0  0  0  0  0  0  0  0  0
   -3.5994   -1.8954   -0.3576 C   0  0  0  0  0  0  0  0  0  0  0  0
    0.8691   -1.0948    0.6834 C   0  0  0  0  0  0  0  0  0  0  0  0
   -2.8995   -2.6693   -1.4692 C   0  0  0  0  0  0  0  0  0  0  0  0
   -4.2740    1.1848    0.4995 C   0  0  0  0  0  0  0  0  0  0  0  0
    1.3890    0.1987    0.6367 C   0  0  0  0  0  0  0  0  0  0  0  0
    1.7110   -2.1919    0.5010 C   0  0  0  0  0  0  0  0  0  0  0  0
    2.7507    0.3952    0.4076 C   0  0  0  0  0  0  0  0  0  0  0  0
    3.0728   -1.9955    0.2719 C   0  0  0  0  0  0  0  0  0  0  0  0
   -3.6391    2.3914    0.2055 C   0  0  0  0  0  0  0  0  0  0  0  0
   -5.6249    1.0156    0.1967 C   0  0  0  0  0  0  0  0  0  0  0  0
    3.5926   -0.7019    0.2253 C   0  0  0  0  0  0  0  0  0  0  0  0
   -4.3552    3.4291   -0.3915 C   0  0  0  0  0  0  0  0  0  0  0  0
   -6.3411    2.0531   -0.4003 C   0  0  0  0  0  0  0  0  0  0  0  0
   -5.7062    3.2599   -0.6943 C   0  0  0  0  0  0  0  0  0  0  0  0
    5.6528    0.7070   -0.0843 C   0  0  0  0  0  0  0  0  0  0  0  0
    7.1288    0.5013   -0.3468 C   0  0  0  0  0  0  0  0  0  0  0  0
    9.1568    1.6451   -0.6656 C   0  0  0  0  0  0  0  0  0  0  0  0
   -1.2915    0.4647   -0.1274 H   0  0  0  0  0  0  0  0  0  0  0  0
   -0.8304   -2.3792    0.9631 H   0  0  0  0  0  0  0  0  0  0  0  0
   -0.0763   -1.0517   -1.7774 H   0  0  0  0  0  0  0  0  0  0  0  0
   -1.6886   -0.5831   -2.2944 H   0  0  0  0  0  0  0  0  0  0  0  0
   -2.7617    0.5040    1.8143 H   0  0  0  0  0  0  0  0  0  0  0  0
   -4.1762   -0.5234    1.7763 H   0  0  0  0  0  0  0  0  0  0  0  0
   -3.0968   -3.7345   -1.3101 H   0  0  0  0  0  0  0  0  0  0  0  0
   -3.3682   -2.3837   -2.4184 H   0  0  0  0  0  0  0  0  0  0  0  0
   -0.6039    0.1046    2.3060 H   0  0  0  0  0  0  0  0  0  0  0  0
    0.7540    1.0685    0.7804 H   0  0  0  0  0  0  0  0  0  0  0  0
    1.3200   -3.2053    0.5335 H   0  0  0  0  0  0  0  0  0  0  0  0
    3.0792    1.4248    0.3866 H   0  0  0  0  0  0  0  0  0  0  0  0
    3.7172   -2.8596    0.1311 H   0  0  0  0  0  0  0  0  0  0  0  0
   -2.5877    2.5380    0.4378 H   0  0  0  0  0  0  0  0  0  0  0  0
   -6.1364    0.0850    0.4251 H   0  0  0  0  0  0  0  0  0  0  0  0
   -3.8610    4.3688   -0.6200 H   0  0  0  0  0  0  0  0  0  0  0  0
   -7.3935    1.9220   -0.6348 H   0  0  0  0  0  0  0  0  0  0  0  0
   -6.2640    4.0679   -1.1587 H   0  0  0  0  0  0  0  0  0  0  0  0
    5.5020   -1.3549   -0.1262 H   0  0  0  0  0  0  0  0  0  0  0  0
    7.5543   -0.0884    0.4729 H   0  0  0  0  0  0  0  0  0  0  0  0
    7.2476   -0.0366   -1.2940 H   0  0  0  0  0  0  0  0  0  0  0  0
    9.5841    2.6504   -0.7103 H   0  0  0  0  0  0  0  0  0  0  0  0
    9.3347    1.1452   -1.6226 H   0  0  0  0  0  0  0  0  0  0  0  0
    9.6419    1.0932    0.1452 H   0  0  0  0  0  0  0  0  0  0  0  0
  1 10  1  0  0  0  0
  1 14  1  0  0  0  0
  2  9  1  0  0  0  0
  2 37  1  0  0  0  0
  3 12  2  0  0  0  0
  4 26  2  0  0  0  0
  5 27  1  0  0  0  0
  5 28  1  0  0  0  0
  6  8  1  0  0  0  0
  6 11  1  0  0  0  0
  6 12  1  0  0  0  0
  7 22  1  0  0  0  0
  7 26  1  0  0  0  0
  7 47  1  0  0  0  0
  8  9  1  0  0  0  0
  8 10  1  0  0  0  0
  8 29  1  0  0  0  0
  9 13  1  0  0  0  0
  9 30  1  0  0  0  0
 10 31  1  0  0  0  0
 10 32  1  0  0  0  0
 11 15  1  0  0  0  0
 11 33  1  0  0  0  0
 11 34  1  0  0  0  0
 12 14  1  0  0  0  0
 13 16  2  0  0  0  0
 13 17  1  0  0  0  0
 14 35  1  0  0  0  0
 14 36  1  0  0  0  0
 15 20  2  0  0  0  0
 15 21  1  0  0  0  0
 16 18  1  0  0  0  0
 16 38  1  0  0  0  0
 17 19  2  0  0  0  0
 17 39  1  0  0  0  0
 18 22  2  0  0  0  0
 18 40  1  0  0  0  0
 19 22  1  0  0  0  0
 19 41  1  0  0  0  0
 20 23  1  0  0  0  0
 20 42  1  0  0  0  0
 21 24  2  0  0  0  0
 21 43  1  0  0  0  0
 23 25  2  0  0  0  0
 23 44  1  0  0  0  0
 24 25  1  0  0  0  0
 24 45  1  0  0  0  0
 25 46  1  0  0  0  0
 26 27  1  0  0  0  0
 27 48  1  0  0  0  0
 27 49  1  0  0  0  0
 28 50  1  0  0  0  0
 28 51  1  0  0  0  0
 28 52  1  0  0  0  0
M  END
> <PUBCHEM_COMPOUND_CID>
56774604

> <PUBCHEM_CONFORMER_RMSD>
1

> <PUBCHEM_CONFORMER_DIVERSEORDER>
1
35
17
39
46
25
32
11
16
36
3
34
45
14
19
42
20
41
15
9
24
43
26
23
28
47
40
29
22
7
31
2
4
13
8
33
18
48
44
21
38
5
37
12
10
6
30
27

> <PUBCHEM_MMFF94_PARTIAL_CHARGES>
39
1 -0.56
10 0.28
11 0.44
12 0.57
13 -0.14
14 0.34
15 -0.14
16 -0.15
17 -0.15
18 -0.15
19 -0.15
2 -0.68
20 -0.15
21 -0.15
22 0.12
23 -0.15
24 -0.15
25 -0.15
26 0.57
27 0.34
28 0.28
3 -0.57
37 0.4
38 0.15
39 0.15
4 -0.57
40 0.15
41 0.15
42 0.15
43 0.15
44 0.15
45 0.15
46 0.15
47 0.37
5 -0.56
6 -0.66
7 -0.55
8 0.3
9 0.42

> <PUBCHEM_EFFECTIVE_ROTOR_COUNT>
9

> <PUBCHEM_PHARMACOPHORE_FEATURES>
10
1 1 acceptor
1 2 acceptor
1 2 donor
1 3 acceptor
1 4 acceptor
1 5 acceptor
1 7 donor
6 1 6 8 10 12 14 rings
6 13 16 17 18 19 22 rings
6 15 20 21 23 24 25 rings

> <PUBCHEM_HEAVY_ATOM_COUNT>
28

> <PUBCHEM_ATOM_DEF_STEREO_COUNT>
2

> <PUBCHEM_ATOM_UDEF_STEREO_COUNT>
0

> <PUBCHEM_BOND_DEF_STEREO_COUNT>
0

> <PUBCHEM_BOND_UDEF_STEREO_COUNT>
0

> <PUBCHEM_ISOTOPIC_ATOM_COUNT>
0

> <PUBCHEM_COMPONENT_COUNT>
1

> <PUBCHEM_CACTVS_TAUTO_COUNT>
6

> <PUBCHEM_CONFORMER_ID>
03624FCC00000001

> <PUBCHEM_MMFF94_ENERGY>
84.8757

> <PUBCHEM_FEATURE_SELFOVERLAP>
50.76

> <PUBCHEM_SHAPE_FINGERPRINT>
10 15 18113340795107444969
10165383 225 17846506924697648267
10411042 1 17907015433192242519
10429389 143 17603857851248384501
12895836 83 18343295951280315699
12895837 130 18408326609386494940
13540713 4 16700590510822591355
13690498 29 17774151461017978687
13911987 19 17988921112245193585
15183329 4 17346885529210097376
15198563 99 18128235965972343255
15604295 49 18200026387170043960
1577012 14 18334855031238059538
16994733 274 18261108591524448784
19427546 20 18342453785693379415
21033648 144 18261104120352568029
21424621 283 18186803578370191714
21756936 100 18186522124309336731
22393880 68 18060413660037337842
23559900 14 16558746858578555194
25122255 55 9943517544297056377
2838139 119 18191300473469619413
392239 28 14924235944652406486
4015057 19 13973671880226977122
4073 2 18041003942612682842
4098825 35 18410575055247583158
44249763 50 18130489921258398992
445580 204 18335420184024627724
44802255 64 18131355227955625182
4516262 110 17967805016707466191
5104073 3 17603585197110775730
5372103 7 17678722442521723877
563151 97 18409444804275476294
5718773 13 10303805480432886876
6327066 14 18338230445867700733
6328613 192 18411700950469035848
636775 72 18335422417809178344
7288768 16 17676490531930744515
7808743 9 18410286974573936321

> <PUBCHEM_SHAPE_MULTIPOLES>
536.92
19.76
3.53
1.18
37.54
1.05
0.02
19.75
-4.25
-4.52
-1.09
-0.66
-0.58
-0.9

> <PUBCHEM_SHAPE_SELFOVERLAP>
1137.963

> <PUBCHEM_SHAPE_VOLUME>
295.6

> <PUBCHEM_COORDINATE_TYPE>
2
5
10

$$$$
