28963166
  -OEChem-12032416203D

 68 71  0     1  0  0  0  0  0999 V2000
    8.3319    2.5447   -0.8150 F   0  0  0  0  0  0  0  0  0  0  0  0
   -2.3092    0.1244    2.1180 O   0  0  0  0  0  0  0  0  0  0  0  0
   -6.9011   -0.9522   -0.3060 O   0  0  0  0  0  0  0  0  0  0  0  0
    3.8459    1.1261   -0.7395 O   0  0  0  0  0  0  0  0  0  0  0  0
    2.6569   -0.6672    0.1048 N   0  0  0  0  0  0  0  0  0  0  0  0
   -6.6318    1.0317    0.8621 N   0  0  0  0  0  0  0  0  0  0  0  0
    4.9226   -0.5939    0.4408 N   0  0  0  0  0  0  0  0  0  0  0  0
   -1.3589   -0.9348   -1.4247 C   0  0  1  0  0  0  0  0  0  0  0  0
   -1.1819   -0.3138    0.0008 C   0  0  2  0  0  0  0  0  0  0  0  0
    0.2212   -0.6848    0.6020 C   0  0  1  0  0  0  0  0  0  0  0  0
   -2.4039   -0.6318    0.9099 C   0  0  2  0  0  0  0  0  0  0  0  0
   -2.6992   -0.4582   -2.0325 C   0  0  0  0  0  0  0  0  0  0  0  0
   -3.7500   -0.2479    0.2525 C   0  0  1  0  0  0  0  0  0  0  0  0
   -0.2205   -0.4283   -2.3402 C   0  0  0  0  0  0  0  0  0  0  0  0
    1.3556   -0.2378   -0.3625 C   0  0  2  0  0  0  0  0  0  0  0  0
   -3.9017   -0.8028   -1.1637 C   0  0  0  0  0  0  0  0  0  0  0  0
    1.1667   -0.7363   -1.7950 C   0  0  0  0  0  0  0  0  0  0  0  0
   -1.3451   -2.4844   -1.4034 C   0  0  0  0  0  0  0  0  0  0  0  0
   -4.9459   -0.6877    1.1059 C   0  0  2  0  0  0  0  0  0  0  0  0
    0.4739   -0.0813    1.9940 C   0  0  0  0  0  0  0  0  0  0  0  0
   -4.9281   -2.2010    1.2939 C   0  0  0  0  0  0  0  0  0  0  0  0
   -6.2594   -0.2464    0.4695 C   0  0  0  0  0  0  0  0  0  0  0  0
   -7.8291    1.6655    0.3890 C   0  0  0  0  0  0  0  0  0  0  0  0
   -7.8553    2.3942   -0.9224 C   0  0  0  0  0  0  0  0  0  0  0  0
   -7.9594    3.1602    0.3638 C   0  0  0  0  0  0  0  0  0  0  0  0
    3.8258    0.0626   -0.1243 C   0  0  0  0  0  0  0  0  0  0  0  0
    6.2772   -0.1872    0.4308 C   0  0  0  0  0  0  0  0  0  0  0  0
    6.6437    1.0022   -0.1991 C   0  0  0  0  0  0  0  0  0  0  0  0
    7.2469   -0.9759    1.0502 C   0  0  0  0  0  0  0  0  0  0  0  0
    7.9798    1.4031   -0.2094 C   0  0  0  0  0  0  0  0  0  0  0  0
    8.5829   -0.5753    1.0397 C   0  0  0  0  0  0  0  0  0  0  0  0
    8.9494    0.6144    0.4100 C   0  0  0  0  0  0  0  0  0  0  0  0
   -1.1686    0.7818   -0.1169 H   0  0  0  0  0  0  0  0  0  0  0  0
    0.2768   -1.7736    0.7268 H   0  0  0  0  0  0  0  0  0  0  0  0
   -2.3536   -1.6875    1.1826 H   0  0  0  0  0  0  0  0  0  0  0  0
   -2.8405   -0.8935   -3.0302 H   0  0  0  0  0  0  0  0  0  0  0  0
   -2.6730    0.6306   -2.1754 H   0  0  0  0  0  0  0  0  0  0  0  0
   -3.7871    0.8493    0.1795 H   0  0  0  0  0  0  0  0  0  0  0  0
   -0.3077    0.6589   -2.4700 H   0  0  0  0  0  0  0  0  0  0  0  0
   -0.3160   -0.8649   -3.3425 H   0  0  0  0  0  0  0  0  0  0  0  0
    1.3598    0.8606   -0.3907 H   0  0  0  0  0  0  0  0  0  0  0  0
   -4.7819   -0.3708   -1.6535 H   0  0  0  0  0  0  0  0  0  0  0  0
   -4.0405   -1.8853   -1.1864 H   0  0  0  0  0  0  0  0  0  0  0  0
    1.3620   -1.8142   -1.8492 H   0  0  0  0  0  0  0  0  0  0  0  0
    1.9148   -0.2728   -2.4511 H   0  0  0  0  0  0  0  0  0  0  0  0
   -0.3938   -2.8958   -1.0566 H   0  0  0  0  0  0  0  0  0  0  0  0
   -1.5173   -2.8848   -2.4094 H   0  0  0  0  0  0  0  0  0  0  0  0
   -2.1182   -2.9010   -0.7519 H   0  0  0  0  0  0  0  0  0  0  0  0
   -4.8815   -0.2294    2.1013 H   0  0  0  0  0  0  0  0  0  0  0  0
    0.2752    0.9953    2.0026 H   0  0  0  0  0  0  0  0  0  0  0  0
    1.5075   -0.2299    2.3228 H   0  0  0  0  0  0  0  0  0  0  0  0
   -0.1456   -0.5669    2.7531 H   0  0  0  0  0  0  0  0  0  0  0  0
    2.7333   -1.5770    0.5492 H   0  0  0  0  0  0  0  0  0  0  0  0
   -2.3008    1.0681    1.8838 H   0  0  0  0  0  0  0  0  0  0  0  0
   -4.9788   -2.7746    0.3660 H   0  0  0  0  0  0  0  0  0  0  0  0
   -4.0735   -2.5482    1.8793 H   0  0  0  0  0  0  0  0  0  0  0  0
   -5.8163   -2.4987    1.8669 H   0  0  0  0  0  0  0  0  0  0  0  0
   -8.7227    1.1132    0.6633 H   0  0  0  0  0  0  0  0  0  0  0  0
   -6.0444    1.5555    1.5053 H   0  0  0  0  0  0  0  0  0  0  0  0
   -8.7466    2.3049   -1.5312 H   0  0  0  0  0  0  0  0  0  0  0  0
   -6.9336    2.4785   -1.4850 H   0  0  0  0  0  0  0  0  0  0  0  0
   -7.1078    3.7591    0.6623 H   0  0  0  0  0  0  0  0  0  0  0  0
   -8.9209    3.5878    0.6199 H   0  0  0  0  0  0  0  0  0  0  0  0
    4.7328   -1.4704    0.9200 H   0  0  0  0  0  0  0  0  0  0  0  0
    5.9524    1.6652   -0.6994 H   0  0  0  0  0  0  0  0  0  0  0  0
    6.9748   -1.9051    1.5444 H   0  0  0  0  0  0  0  0  0  0  0  0
    9.3380   -1.1894    1.5217 H   0  0  0  0  0  0  0  0  0  0  0  0
    9.9895    0.9265    0.4016 H   0  0  0  0  0  0  0  0  0  0  0  0
  1 30  1  0  0  0  0
  2 11  1  0  0  0  0
  2 54  1  0  0  0  0
  3 22  2  0  0  0  0
  4 26  2  0  0  0  0
  5 15  1  0  0  0  0
  5 26  1  0  0  0  0
  5 53  1  0  0  0  0
  6 22  1  0  0  0  0
  6 23  1  0  0  0  0
  6 59  1  0  0  0  0
  7 26  1  0  0  0  0
  7 27  1  0  0  0  0
  7 64  1  0  0  0  0
  8  9  1  0  0  0  0
  8 12  1  0  0  0  0
  8 14  1  0  0  0  0
  8 18  1  0  0  0  0
  9 10  1  0  0  0  0
  9 11  1  0  0  0  0
  9 33  1  0  0  0  0
 10 15  1  0  0  0  0
 10 20  1  0  0  0  0
 10 34  1  0  0  0  0
 11 13  1  0  0  0  0
 11 35  1  0  0  0  0
 12 16  1  0  0  0  0
 12 36  1  0  0  0  0
 12 37  1  0  0  0  0
 13 16  1  0  0  0  0
 13 19  1  0  0  0  0
 13 38  1  0  0  0  0
 14 17  1  0  0  0  0
 14 39  1  0  0  0  0
 14 40  1  0  0  0  0
 15 17  1  0  0  0  0
 15 41  1  0  0  0  0
 16 42  1  0  0  0  0
 16 43  1  0  0  0  0
 17 44  1  0  0  0  0
 17 45  1  0  0  0  0
 18 46  1  0  0  0  0
 18 47  1  0  0  0  0
 18 48  1  0  0  0  0
 19 21  1  0  0  0  0
 19 22  1  0  0  0  0
 19 49  1  0  0  0  0
 20 50  1  0  0  0  0
 20 51  1  0  0  0  0
 20 52  1  0  0  0  0
 21 55  1  0  0  0  0
 21 56  1  0  0  0  0
 21 57  1  0  0  0  0
 23 24  1  0  0  0  0
 23 25  1  0  0  0  0
 23 58  1  0  0  0  0
 24 25  1  0  0  0  0
 24 60  1  0  0  0  0
 24 61  1  0  0  0  0
 25 62  1  0  0  0  0
 25 63  1  0  0  0  0
 27 28  2  0  0  0  0
 27 29  1  0  0  0  0
 28 30  1  0  0  0  0
 28 65  1  0  0  0  0
 29 31  2  0  0  0  0
 29 66  1  0  0  0  0
 30 32  2  0  0  0  0
 31 32  1  0  0  0  0
 31 67  1  0  0  0  0
 32 68  1  0  0  0  0
M  END
> <PUBCHEM_COMPOUND_CID>
28963166

> <PUBCHEM_CONFORMER_RMSD>
1

> <PUBCHEM_CONFORMER_DIVERSEORDER>
1
107
114
46
101
94
137
75
104
80
78
64
45
58
108
57
26
83
112
138
42
129
96
87
29
12
139
69
89
99
118
119
142
125
113
79
21
51
90
117
111
49
81
124
102
61
63
54
50
33
136
127
126
41
98
116
31
52
55
32
48
141
122
131
110
95
38
74
68
60
84
24
53
86
134
143
93
135
17
76
59
27
130
106
77
10
88
123
120
14
103
91
43
6
35
109
30
132
121
22
5
44
39
56
71
92
115
11
40
28
65
70
18
15
133
37
25
66
67
62
9
73
20
16
7
105
4
23
97
72
13
82
100
140
47
36
128
34
19
2
8
3
85

> <PUBCHEM_MMFF94_PARTIAL_CHARGES>
34
1 -0.19
11 0.28
15 0.3
19 0.06
2 -0.68
22 0.57
23 0.05
24 -0.2
25 -0.2
26 0.69
27 0.12
28 -0.15
29 -0.15
3 -0.57
30 0.19
31 -0.15
32 -0.15
4 -0.57
5 -0.73
53 0.37
54 0.4
58 0.1
59 0.37
6 -0.58
60 0.1
61 0.1
62 0.1
63 0.1
64 0.37
65 0.15
66 0.15
67 0.15
68 0.15
7 -0.55

> <PUBCHEM_EFFECTIVE_ROTOR_COUNT>
10.2

> <PUBCHEM_PHARMACOPHORE_FEATURES>
11
1 2 acceptor
1 2 donor
1 21 hydrophobe
1 3 acceptor
1 4 acceptor
1 5 donor
1 6 donor
1 7 donor
6 27 28 29 30 31 32 rings
6 8 9 10 14 15 17 rings
6 8 9 11 12 13 16 rings

> <PUBCHEM_HEAVY_ATOM_COUNT>
32

> <PUBCHEM_ATOM_DEF_STEREO_COUNT>
7

> <PUBCHEM_ATOM_UDEF_STEREO_COUNT>
0

> <PUBCHEM_BOND_DEF_STEREO_COUNT>
0

> <PUBCHEM_BOND_UDEF_STEREO_COUNT>
0

> <PUBCHEM_ISOTOPIC_ATOM_COUNT>
0

> <PUBCHEM_COMPONENT_COUNT>
1

> <PUBCHEM_CACTVS_TAUTO_COUNT>
6

> <PUBCHEM_CONFORMER_ID>
01B9F15E00000001

> <PUBCHEM_MMFF94_ENERGY>
94.2524

> <PUBCHEM_FEATURE_SELFOVERLAP>
55.889

> <PUBCHEM_SHAPE_FINGERPRINT>
10 15 18131635594867630858
11135926 11 14851598895450184931
11181472 205 18341619153393962904
11386260 185 14979945996062103954
11456790 92 16732711540432144309
11578821 258 18343021120635096904
12539745 222 11097858476699578911
12838862 33 16630233737150862330
13673619 4 14490472002009374606
14117953 113 16917348134512170912
14150023 24 18202280281898913887
14444916 359 15140681362679185640
15131766 46 17978229693031827916
15350500 55 18131069290871727821
15461852 350 17561359608845577005
1754911 235 14045741504615487473
1818759 1 12685093657677041368
19315958 150 18261678077822313971
20105231 36 14273458059335789160
20721686 146 18337670803102394677
21150785 3 12031784764647594955
21267235 1 14201401577298725262
21781055 127 16951705596541839342
21927370 108 13767926789070690263
22149856 69 17385724678298122116
23559900 14 14924801153679745014
23576562 1 17059477664997483897
249057 3 16845288375847181184
2747138 104 14345794959175561188
3103668 31 15481236497139453293
3178227 256 14273746135450230089
335352 9 16271923830886048953
3383291 50 14490194924799775552
3552219 110 13551480228229540718
4093350 32 18115021905595189666
4339292 15 17774153643795197503
437795 83 16701743736034194489
44280117 145 17896609577172635787
44802255 64 17703788103456570199
4516262 110 17489585654695952486
5104073 3 15864937450846010189
58260988 521 11602832272567545257
636775 72 18338518539637401817
6691757 9 16271932657366219615
9953998 17 17530684312309129411

> <PUBCHEM_SHAPE_MULTIPOLES>
618.72
28.66
2.11
1.77
30.26
1.11
-0.29
19.41
4.93
-3.67
-0.4
-0.89
-0.51
-0.64

> <PUBCHEM_SHAPE_SELFOVERLAP>
1295.502

> <PUBCHEM_SHAPE_VOLUME>
348

> <PUBCHEM_COORDINATE_TYPE>
2
5
10

$$$$
