45784212
  -OEChem-12032416243D

 40 43  0     1  0  0  0  0  0999 V2000
    3.1821    0.4019   -0.0953 N   0  0  1  0  0  0  0  0  0  0  0  0
   -1.4882    0.8118   -1.0873 N   0  0  0  0  0  0  0  0  0  0  0  0
   -0.9108   -0.1107    0.8506 N   0  0  0  0  0  0  0  0  0  0  0  0
    4.1419   -0.6353    0.3005 C   0  0  0  0  0  0  0  0  0  0  0  0
    4.6297   -1.3934   -0.9517 C   0  0  0  0  0  0  0  0  0  0  0  0
    5.5562   -0.0251    0.3881 C   0  0  0  0  0  0  0  0  0  0  0  0
    0.9416    0.9775   -0.4800 C   0  0  2  0  0  0  0  0  0  0  0  0
    1.9249   -0.1986   -0.5499 C   0  0  0  0  0  0  0  0  0  0  0  0
    6.0565   -1.2676   -0.3777 C   0  0  0  0  0  0  0  0  0  0  0  0
    2.8088    1.2287    1.0537 C   0  0  0  0  0  0  0  0  0  0  0  0
    1.5427    1.9256    0.5723 C   0  0  0  0  0  0  0  0  0  0  0  0
   -0.4793    0.5427   -0.2048 C   0  0  0  0  0  0  0  0  0  0  0  0
   -2.6479    0.2975   -0.5669 C   0  0  0  0  0  0  0  0  0  0  0  0
   -2.2613   -0.2729    0.6427 C   0  0  0  0  0  0  0  0  0  0  0  0
   -3.9619    0.2826   -1.0360 C   0  0  0  0  0  0  0  0  0  0  0  0
   -3.2299   -0.8994    1.4450 C   0  0  0  0  0  0  0  0  0  0  0  0
   -4.9128   -0.3451   -0.2247 C   0  0  0  0  0  0  0  0  0  0  0  0
   -4.5555   -0.9262    0.9940 C   0  0  0  0  0  0  0  0  0  0  0  0
   -6.3370   -0.3941   -0.6724 C   0  0  0  0  0  0  0  0  0  0  0  0
    3.8631   -1.2805    1.1426 H   0  0  0  0  0  0  0  0  0  0  0  0
    4.5135   -0.8721   -1.9104 H   0  0  0  0  0  0  0  0  0  0  0  0
    4.2591   -2.4165   -1.0609 H   0  0  0  0  0  0  0  0  0  0  0  0
    5.7124    0.9093   -0.1658 H   0  0  0  0  0  0  0  0  0  0  0  0
    5.9584    0.0944    1.3980 H   0  0  0  0  0  0  0  0  0  0  0  0
    0.9637    1.5041   -1.4454 H   0  0  0  0  0  0  0  0  0  0  0  0
    1.6092   -1.0215    0.1056 H   0  0  0  0  0  0  0  0  0  0  0  0
    1.9974   -0.5869   -1.5717 H   0  0  0  0  0  0  0  0  0  0  0  0
    6.3455   -2.1007    0.2733 H   0  0  0  0  0  0  0  0  0  0  0  0
    6.8504   -1.0906   -1.1073 H   0  0  0  0  0  0  0  0  0  0  0  0
    3.5873    1.9515    1.3175 H   0  0  0  0  0  0  0  0  0  0  0  0
    2.5823    0.6213    1.9396 H   0  0  0  0  0  0  0  0  0  0  0  0
    1.7962    2.8820    0.0981 H   0  0  0  0  0  0  0  0  0  0  0  0
    0.8639    2.1378    1.4051 H   0  0  0  0  0  0  0  0  0  0  0  0
   -1.3992    1.3019   -1.9676 H   0  0  0  0  0  0  0  0  0  0  0  0
   -4.2259    0.7394   -1.9837 H   0  0  0  0  0  0  0  0  0  0  0  0
   -2.9622   -1.3535    2.3937 H   0  0  0  0  0  0  0  0  0  0  0  0
   -5.3086   -1.4087    1.6131 H   0  0  0  0  0  0  0  0  0  0  0  0
   -6.8145   -1.3293   -0.3607 H   0  0  0  0  0  0  0  0  0  0  0  0
   -6.4131   -0.3444   -1.7640 H   0  0  0  0  0  0  0  0  0  0  0  0
   -6.8936    0.4459   -0.2451 H   0  0  0  0  0  0  0  0  0  0  0  0
  1  4  1  0  0  0  0
  1  8  1  0  0  0  0
  1 10  1  0  0  0  0
  2 12  1  0  0  0  0
  2 13  1  0  0  0  0
  2 34  1  0  0  0  0
  3 12  2  0  0  0  0
  3 14  1  0  0  0  0
  4  5  1  0  0  0  0
  4  6  1  0  0  0  0
  4 20  1  0  0  0  0
  5  9  1  0  0  0  0
  5 21  1  0  0  0  0
  5 22  1  0  0  0  0
  6  9  1  0  0  0  0
  6 23  1  0  0  0  0
  6 24  1  0  0  0  0
  7  8  1  0  0  0  0
  7 11  1  0  0  0  0
  7 12  1  0  0  0  0
  7 25  1  0  0  0  0
  8 26  1  0  0  0  0
  8 27  1  0  0  0  0
  9 28  1  0  0  0  0
  9 29  1  0  0  0  0
 10 11  1  0  0  0  0
 10 30  1  0  0  0  0
 10 31  1  0  0  0  0
 11 32  1  0  0  0  0
 11 33  1  0  0  0  0
 13 14  2  0  0  0  0
 13 15  1  0  0  0  0
 14 16  1  0  0  0  0
 15 17  2  0  0  0  0
 15 35  1  0  0  0  0
 16 18  2  0  0  0  0
 16 36  1  0  0  0  0
 17 18  1  0  0  0  0
 17 19  1  0  0  0  0
 18 37  1  0  0  0  0
 19 38  1  0  0  0  0
 19 39  1  0  0  0  0
 19 40  1  0  0  0  0
M  END
> <PUBCHEM_COMPOUND_CID>
45784212

> <PUBCHEM_CONFORMER_RMSD>
0.6

> <PUBCHEM_CONFORMER_DIVERSEORDER>
1
11
14
6
10
12
4
13
9
8
7
5
2
3

> <PUBCHEM_MMFF94_PARTIAL_CHARGES>
19
1 -0.75
10 0.27
12 0.01
13 -0.15
14 0.23
15 -0.15
16 -0.15
17 -0.14
18 -0.15
19 0.14
2 0.03
3 -0.57
34 0.27
35 0.15
36 0.15
37 0.15
4 0.21
7 0.18
8 0.27

> <PUBCHEM_EFFECTIVE_ROTOR_COUNT>
3.8

> <PUBCHEM_PHARMACOPHORE_FEATURES>
7
1 1 cation
1 2 donor
3 2 3 12 cation
4 4 5 6 9 rings
5 1 7 8 10 11 rings
5 2 3 12 13 14 rings
6 13 14 15 16 17 18 rings

> <PUBCHEM_HEAVY_ATOM_COUNT>
19

> <PUBCHEM_ATOM_DEF_STEREO_COUNT>
1

> <PUBCHEM_ATOM_UDEF_STEREO_COUNT>
0

> <PUBCHEM_BOND_DEF_STEREO_COUNT>
0

> <PUBCHEM_BOND_UDEF_STEREO_COUNT>
0

> <PUBCHEM_ISOTOPIC_ATOM_COUNT>
0

> <PUBCHEM_COMPONENT_COUNT>
1

> <PUBCHEM_CACTVS_TAUTO_COUNT>
2

> <PUBCHEM_CONFORMER_ID>
02BA9C9400000001

> <PUBCHEM_MMFF94_ENERGY>
42.4628

> <PUBCHEM_FEATURE_SELFOVERLAP>
35.63

> <PUBCHEM_SHAPE_FINGERPRINT>
10354089 29 14261350254702592674
106641 1 16988834008763685834
11128504 68 14779270825698824614
11315181 36 18113341911608920432
11796584 16 17967534583944305650
12011746 2 18186238420160469291
12107183 9 15406990634038269138
12236239 1 16845573119019599611
12390115 104 17532079507156594517
12403259 118 15841562872699533161
12516196 113 18272930523060218304
12596602 18 16415759721760979786
12616971 3 16917064494998263789
12788726 201 15792000139567534533
13288520 33 17967534571259408687
13402501 40 18333736810031843290
13533116 47 17703788137188579922
13544592 145 18186801417632473913
13631057 29 11603408493643175449
13668630 136 18272089405075926655
13685833 64 18411983563406163242
13862211 1 18272087163377181166
13911852 28 17915465999999662166
13914758 101 17774724165442976257
13955234 65 18269835483970507456
14211702 104 17203049694244777871
14251718 22 16587746447189622462
14251731 8 17530684307792745811
14251752 14 16009019562645366610
14252887 29 17917435285702002998
14341114 176 13470691443010563582
14341114 328 15267340730254640186
14366163 111 14418135132080982668
14386348 63 18333733511559737066
14528608 73 13407079218922803038
14617045 38 17676489428140051403
15048467 5 10881395427141220303
15183329 4 16660644029382632214
15242439 84 18040713680021509921
15527383 91 17846498140967385664
15788980 27 17989205945200377833
15880784 105 18200591522770396179
17804303 29 17749108919864172181
17834072 8 17603581937552162127
17844677 252 18410296904153754908
17870717 6 17603590716344138707
17980427 23 12822995548140827496
1813 80 17845950554291596652
18222031 100 18060426807111585396
19141452 34 18340486763612317839
193927 3 18339655464217845190
19489759 90 17632579332142018769
19784866 240 18342745104296866700
200 152 18060134336643991873
20281389 69 11959728261943258506
20325693 3 16588025710600995587
20374829 77 17821446871781034602
20645477 70 18413103974698054172
20681677 155 15647054888768329145
20871999 31 16877943810893871924
21120745 212 14735352353899017192
21150785 3 12829489281764299219
21267235 1 17917715665673004398
21682296 61 18129389206866031686
2215653 11 18259979375470037719
22224240 67 17561074822765948926
2297311 6 17531249457080639837
231179 274 9799691489709662188
23175994 123 18409730677293170009
23402539 116 17561081393627984145
23402655 69 12901546849367602944
23557571 272 17894909581644826701
23559900 14 17749671899650490157
23622692 88 17060338535072101044
239999 70 18260548940226787930
26918003 58 18060139860014165123
2838139 119 9150887231653921562
2871803 45 18113900429783775026
2916195 48 10807935946665879043
29717793 49 18040719168757567118
300161 21 14634864271035816944
3004659 81 16443337625680838114
335352 9 17313101961111116079
345986 75 17345469285203786986
34797466 226 17676779725285147006
351380 3 17988923349596081214
4325135 7 8214133050373300897
465052 167 18131072636761956422
5104073 3 15697430173947604539
59755656 215 18040148501112392187
59755656 520 18046060463703612829
67856867 119 16343128255382655329

> <PUBCHEM_SHAPE_MULTIPOLES>
376.07
14.53
1.33
1.16
1.82
0.26
0.14
-6.29
-0.97
1.39
0.08
-0.81
-0.07
1.08

> <PUBCHEM_SHAPE_SELFOVERLAP>
818.407

> <PUBCHEM_SHAPE_VOLUME>
207.6

> <PUBCHEM_COORDINATE_TYPE>
2
5
10

$$$$
