45783324
  -OEChem-12032416273D

 56 59  0     1  0  0  0  0  0999 V2000
   -3.6225   -2.1140   -0.1064 O   0  0  0  0  0  0  0  0  0  0  0  0
    5.6861    2.1324    1.4977 O   0  0  0  0  0  0  0  0  0  0  0  0
   -4.4314    1.3048   -0.1845 N   0  0  1  0  0  0  0  0  0  0  0  0
    3.0652   -0.2855   -0.1576 N   0  0  0  0  0  0  0  0  0  0  0  0
   -1.9811   -0.6385   -0.4877 N   0  0  0  0  0  0  0  0  0  0  0  0
   -2.4289   -2.7623    0.2352 N   0  0  0  0  0  0  0  0  0  0  0  0
    2.6273   -2.4869    0.5959 N   0  0  0  0  0  0  0  0  0  0  0  0
    7.2996    1.6354   -0.0655 N   0  0  0  0  0  0  0  0  0  0  0  0
   -4.3975    0.0440   -0.9523 C   0  0  1  0  0  0  0  0  0  0  0  0
   -4.2778    0.4848   -2.4229 C   0  0  0  0  0  0  0  0  0  0  0  0
   -5.0049    2.3151   -1.0737 C   0  0  0  0  0  0  0  0  0  0  0  0
   -4.3138    2.0060   -2.3864 C   0  0  0  0  0  0  0  0  0  0  0  0
   -5.1683    1.1950    1.0679 C   0  0  0  0  0  0  0  0  0  0  0  0
    4.9999    1.7915   -0.7681 C   0  0  0  0  0  0  0  0  0  0  0  0
    3.5938    2.1194   -0.2702 C   0  0  0  0  0  0  0  0  0  0  0  0
    5.0446    0.4207   -1.4404 C   0  0  0  0  0  0  0  0  0  0  0  0
    2.9596    0.9938    0.5495 C   0  0  0  0  0  0  0  0  0  0  0  0
    4.4123   -0.6794   -0.5883 C   0  0  0  0  0  0  0  0  0  0  0  0
   -3.2691   -0.8695   -0.5221 C   0  0  0  0  0  0  0  0  0  0  0  0
   -4.7335    2.2923    2.0363 C   0  0  0  0  0  0  0  0  0  0  0  0
    2.1547   -1.3094    0.1292 C   0  0  0  0  0  0  0  0  0  0  0  0
    6.0072    1.8679    0.3417 C   0  0  0  0  0  0  0  0  0  0  0  0
   -1.5071   -1.8282   -0.0167 C   0  0  0  0  0  0  0  0  0  0  0  0
   -5.4733    2.1867    3.3610 C   0  0  0  0  0  0  0  0  0  0  0  0
    0.8123   -1.0440   -0.0887 C   0  0  0  0  0  0  0  0  0  0  0  0
   -0.1040   -2.0521    0.1901 C   0  0  0  0  0  0  0  0  0  0  0  0
    0.3437   -3.2773    0.6716 C   0  0  0  0  0  0  0  0  0  0  0  0
    1.7069   -3.4428    0.8556 C   0  0  0  0  0  0  0  0  0  0  0  0
   -5.3504   -0.4937   -0.8442 H   0  0  0  0  0  0  0  0  0  0  0  0
   -5.1399    0.1120   -2.9896 H   0  0  0  0  0  0  0  0  0  0  0  0
   -3.3704    0.1287   -2.9225 H   0  0  0  0  0  0  0  0  0  0  0  0
   -6.0905    2.1994   -1.1851 H   0  0  0  0  0  0  0  0  0  0  0  0
   -4.7881    3.3361   -0.7461 H   0  0  0  0  0  0  0  0  0  0  0  0
   -3.2910    2.4029   -2.3834 H   0  0  0  0  0  0  0  0  0  0  0  0
   -4.8400    2.4280   -3.2477 H   0  0  0  0  0  0  0  0  0  0  0  0
   -6.2538    1.2149    0.9078 H   0  0  0  0  0  0  0  0  0  0  0  0
   -4.9444    0.2331    1.5477 H   0  0  0  0  0  0  0  0  0  0  0  0
    5.2903    2.5544   -1.5030 H   0  0  0  0  0  0  0  0  0  0  0  0
    2.9570    2.3031   -1.1462 H   0  0  0  0  0  0  0  0  0  0  0  0
    3.5871    3.0471    0.3146 H   0  0  0  0  0  0  0  0  0  0  0  0
    6.0587    0.1183   -1.7212 H   0  0  0  0  0  0  0  0  0  0  0  0
    4.4809    0.4888   -2.3812 H   0  0  0  0  0  0  0  0  0  0  0  0
    3.4423    0.9029    1.5293 H   0  0  0  0  0  0  0  0  0  0  0  0
    1.9158    1.2667    0.7432 H   0  0  0  0  0  0  0  0  0  0  0  0
    4.3744   -1.5926   -1.1958 H   0  0  0  0  0  0  0  0  0  0  0  0
    5.0354   -0.8923    0.2890 H   0  0  0  0  0  0  0  0  0  0  0  0
   -4.9267    3.2836    1.6106 H   0  0  0  0  0  0  0  0  0  0  0  0
   -3.6547    2.2244    2.2229 H   0  0  0  0  0  0  0  0  0  0  0  0
   -5.1483    2.9805    4.0409 H   0  0  0  0  0  0  0  0  0  0  0  0
   -5.2774    1.2245    3.8448 H   0  0  0  0  0  0  0  0  0  0  0  0
   -6.5539    2.2853    3.2157 H   0  0  0  0  0  0  0  0  0  0  0  0
    0.4924   -0.0836   -0.4823 H   0  0  0  0  0  0  0  0  0  0  0  0
    8.0642    1.6593    0.6011 H   0  0  0  0  0  0  0  0  0  0  0  0
    7.5539    1.4798   -1.0353 H   0  0  0  0  0  0  0  0  0  0  0  0
   -0.3239   -4.0997    0.9066 H   0  0  0  0  0  0  0  0  0  0  0  0
    2.1078   -4.3793    1.2291 H   0  0  0  0  0  0  0  0  0  0  0  0
  1  6  1  0  0  0  0
  1 19  1  0  0  0  0
  2 22  2  0  0  0  0
  3  9  1  0  0  0  0
  3 11  1  0  0  0  0
  3 13  1  0  0  0  0
  4 17  1  0  0  0  0
  4 18  1  0  0  0  0
  4 21  1  0  0  0  0
  5 19  2  0  0  0  0
  5 23  1  0  0  0  0
  6 23  2  0  0  0  0
  7 21  2  0  0  0  0
  7 28  1  0  0  0  0
  8 22  1  0  0  0  0
  8 53  1  0  0  0  0
  8 54  1  0  0  0  0
  9 10  1  0  0  0  0
  9 19  1  0  0  0  0
  9 29  1  0  0  0  0
 10 12  1  0  0  0  0
 10 30  1  0  0  0  0
 10 31  1  0  0  0  0
 11 12  1  0  0  0  0
 11 32  1  0  0  0  0
 11 33  1  0  0  0  0
 12 34  1  0  0  0  0
 12 35  1  0  0  0  0
 13 20  1  0  0  0  0
 13 36  1  0  0  0  0
 13 37  1  0  0  0  0
 14 15  1  0  0  0  0
 14 16  1  0  0  0  0
 14 22  1  0  0  0  0
 14 38  1  0  0  0  0
 15 17  1  0  0  0  0
 15 39  1  0  0  0  0
 15 40  1  0  0  0  0
 16 18  1  0  0  0  0
 16 41  1  0  0  0  0
 16 42  1  0  0  0  0
 17 43  1  0  0  0  0
 17 44  1  0  0  0  0
 18 45  1  0  0  0  0
 18 46  1  0  0  0  0
 20 24  1  0  0  0  0
 20 47  1  0  0  0  0
 20 48  1  0  0  0  0
 21 25  1  0  0  0  0
 23 26  1  0  0  0  0
 24 49  1  0  0  0  0
 24 50  1  0  0  0  0
 24 51  1  0  0  0  0
 25 26  2  0  0  0  0
 25 52  1  0  0  0  0
 26 27  1  0  0  0  0
 27 28  2  0  0  0  0
 27 55  1  0  0  0  0
 28 56  1  0  0  0  0
M  END
> <PUBCHEM_COMPOUND_CID>
45783324

> <PUBCHEM_CONFORMER_RMSD>
1

> <PUBCHEM_CONFORMER_DIVERSEORDER>
1
87
33
24
49
80
90
81
56
95
58
84
88
83
12
44
93
25
34
74
82
53
91
66
86
94
29
43
70
19
79
62
28
26
39
50
54
40
42
68
65
22
73
71
57
35
5
92
64
69
78
18
46
36
3
45
38
6
47
61
76
63
89
4
37
8
14
21
60
27
51
85
2
48
41
23
67
7
52
17
55
75
16
32
72
20
9
11
30
31
59
15
77
10
13

> <PUBCHEM_MMFF94_PARTIAL_CHARGES>
27
1 -0.02
11 0.27
13 0.27
14 0.06
17 0.37
18 0.37
19 0.3
2 -0.57
21 0.41
22 0.57
23 0.46
25 -0.15
26 0.05
27 -0.15
28 0.16
3 -0.81
4 -0.84
5 -0.57
52 0.15
53 0.37
54 0.37
55 0.15
56 0.15
6 -0.41
7 -0.62
8 -0.8
9 0.45

> <PUBCHEM_EFFECTIVE_ROTOR_COUNT>
8.2

> <PUBCHEM_PHARMACOPHORE_FEATURES>
10
1 2 acceptor
1 24 hydrophobe
1 3 cation
1 8 donor
3 4 7 21 cation
3 5 6 23 cation
5 1 5 6 19 23 rings
5 3 9 10 11 12 rings
6 4 14 15 16 17 18 rings
6 7 21 25 26 27 28 rings

> <PUBCHEM_HEAVY_ATOM_COUNT>
28

> <PUBCHEM_ATOM_DEF_STEREO_COUNT>
1

> <PUBCHEM_ATOM_UDEF_STEREO_COUNT>
0

> <PUBCHEM_BOND_DEF_STEREO_COUNT>
0

> <PUBCHEM_BOND_UDEF_STEREO_COUNT>
0

> <PUBCHEM_ISOTOPIC_ATOM_COUNT>
0

> <PUBCHEM_COMPONENT_COUNT>
1

> <PUBCHEM_CACTVS_TAUTO_COUNT>
2

> <PUBCHEM_CONFORMER_ID>
02BA991C00000001

> <PUBCHEM_MMFF94_ENERGY>
60.2529

> <PUBCHEM_FEATURE_SELFOVERLAP>
50.747

> <PUBCHEM_SHAPE_FINGERPRINT>
10042902 136 10303824215269941378
10917259 128 17489021545138201016
11135609 201 18341336668946983499
11273773 42 18131351891494068017
12107183 9 17969763329322754650
12390115 104 18337118946268679095
12422481 6 17168128019598389334
12769317 202 18338222821893964084
12788726 201 17416974915587796689
13590594 115 17615405861953543698
13878862 14 17752740477911142495
14187579 7 17418087754467560489
14251764 75 18411427210575379657
14466204 15 18188762959462054508
14765038 42 18271259235158223721
14848178 96 18336538356815605222
14950920 106 14418136231302726885
15119646 57 17775011176474347329
15183329 4 18412260640805932676
15513586 35 17463994701305079253
16067690 210 17418101974930522201
1768 23 17630060265130059201
18608769 82 18263645237743066739
18927931 339 10519710029085905253
19309040 13 17775013332378910765
20691028 202 18340210691873556473
21033648 144 18408879620843505455
21223535 225 17845945056548971392
21279426 13 18411139134998780838
21401589 2 18186806893726527491
21774942 28 17704076166792150576
22122407 14 17976821978956296413
23559900 14 18267853991733629946
25025965 108 8790060461965175916
2748736 6 18336252527259417452
2838139 119 17846498166721319616
328310 18 17132127839740894257
3459 39 18264750208173536088
3552219 110 18343584063078712263
3680242 22 18259697892246245056
38570 142 18129120947502988841
469060 322 17823150054849121891
5104073 3 18186238433246130802
57724786 102 18127137377103398543
6371009 1 17971458843969883750
6431902 208 10159699100955166684
7808743 9 18260541264197291319
7970288 3 10807669895370630420
9981440 41 18114176483968946354

> <PUBCHEM_SHAPE_MULTIPOLES>
534.6
16.64
3.98
2.03
8.43
2.23
-0.67
-17.19
-1.14
0.62
-1.32
-4.62
-1.91
-1.09

> <PUBCHEM_SHAPE_SELFOVERLAP>
1135.859

> <PUBCHEM_SHAPE_VOLUME>
298

> <PUBCHEM_COORDINATE_TYPE>
2
5
10

$$$$
