45783288
  -OEChem-12032416213D

 54 58  0     1  0  0  0  0  0999 V2000
   -1.2453   -2.5901    0.0617 F   0  0  0  0  0  0  0  0  0  0  0  0
   -2.5236    2.4852    0.1118 O   0  0  0  0  0  0  0  0  0  0  0  0
    5.5100   -2.4495    0.9454 O   0  0  0  0  0  0  0  0  0  0  0  0
   -3.4850   -0.9585    0.9615 N   0  0  1  0  0  0  0  0  0  0  0  0
   -1.1127    0.8202    0.6155 N   0  0  0  0  0  0  0  0  0  0  0  0
    3.8367   -0.2507    0.4310 N   0  0  0  0  0  0  0  0  0  0  0  0
   -1.2451    2.9396   -0.2357 N   0  0  0  0  0  0  0  0  0  0  0  0
    3.7260    1.9412   -0.4545 N   0  0  0  0  0  0  0  0  0  0  0  0
   -3.6087    0.5098    1.0573 C   0  0  1  0  0  0  0  0  0  0  0  0
   -3.9480    0.7783    2.5350 C   0  0  0  0  0  0  0  0  0  0  0  0
   -4.0542   -0.5984    3.1752 C   0  0  0  0  0  0  0  0  0  0  0  0
   -4.3473   -1.5147    2.0043 C   0  0  0  0  0  0  0  0  0  0  0  0
   -3.8165   -1.4780   -0.3590 C   0  0  0  0  0  0  0  0  0  0  0  0
   -2.3558    1.2303    0.6049 C   0  0  0  0  0  0  0  0  0  0  0  0
   -2.6786   -1.3081   -1.3302 C   0  0  0  0  0  0  0  0  0  0  0  0
   -0.4682    1.9025    0.0908 C   0  0  0  0  0  0  0  0  0  0  0  0
   -1.4367   -1.8830   -1.0608 C   0  0  0  0  0  0  0  0  0  0  0  0
   -2.8682   -0.5744   -2.5011 C   0  0  0  0  0  0  0  0  0  0  0  0
    3.5725   -1.5471   -0.2027 C   0  0  0  0  0  0  0  0  0  0  0  0
    5.2218   -0.0422    0.8751 C   0  0  0  0  0  0  0  0  0  0  0  0
    0.9543    1.9160   -0.0931 C   0  0  0  0  0  0  0  0  0  0  0  0
    3.0848    0.8706    0.0653 C   0  0  0  0  0  0  0  0  0  0  0  0
    4.1273   -2.6688    0.6682 C   0  0  0  0  0  0  0  0  0  0  0  0
    5.6879   -1.2440    1.6890 C   0  0  0  0  0  0  0  0  0  0  0  0
    1.7150    0.8082    0.2643 C   0  0  0  0  0  0  0  0  0  0  0  0
   -0.3844   -1.7242   -1.9623 C   0  0  0  0  0  0  0  0  0  0  0  0
   -1.8158   -0.4155   -3.4028 C   0  0  0  0  0  0  0  0  0  0  0  0
    1.5779    3.0365   -0.6309 C   0  0  0  0  0  0  0  0  0  0  0  0
   -0.5738   -0.9904   -3.1334 C   0  0  0  0  0  0  0  0  0  0  0  0
    2.9538    2.9991   -0.7899 C   0  0  0  0  0  0  0  0  0  0  0  0
   -4.4529    0.8696    0.4522 H   0  0  0  0  0  0  0  0  0  0  0  0
   -3.2052    1.3929    3.0551 H   0  0  0  0  0  0  0  0  0  0  0  0
   -4.9157    1.2901    2.6038 H   0  0  0  0  0  0  0  0  0  0  0  0
   -4.8312   -0.6384    3.9442 H   0  0  0  0  0  0  0  0  0  0  0  0
   -3.0983   -0.8673    3.6415 H   0  0  0  0  0  0  0  0  0  0  0  0
   -5.4083   -1.4546    1.7304 H   0  0  0  0  0  0  0  0  0  0  0  0
   -4.0969   -2.5547    2.2352 H   0  0  0  0  0  0  0  0  0  0  0  0
   -4.7462   -1.0408   -0.7462 H   0  0  0  0  0  0  0  0  0  0  0  0
   -4.0039   -2.5594   -0.2980 H   0  0  0  0  0  0  0  0  0  0  0  0
   -3.8296   -0.1191   -2.7232 H   0  0  0  0  0  0  0  0  0  0  0  0
    2.5035   -1.7206   -0.3578 H   0  0  0  0  0  0  0  0  0  0  0  0
    4.0614   -1.5612   -1.1846 H   0  0  0  0  0  0  0  0  0  0  0  0
    5.8630    0.0812   -0.0063 H   0  0  0  0  0  0  0  0  0  0  0  0
    5.3072    0.8588    1.4941 H   0  0  0  0  0  0  0  0  0  0  0  0
    4.0369   -3.6263    0.1454 H   0  0  0  0  0  0  0  0  0  0  0  0
    3.5747   -2.7522    1.6120 H   0  0  0  0  0  0  0  0  0  0  0  0
    5.1446   -1.3185    2.6388 H   0  0  0  0  0  0  0  0  0  0  0  0
    6.7528   -1.1464    1.9229 H   0  0  0  0  0  0  0  0  0  0  0  0
    1.2568   -0.0740    0.7018 H   0  0  0  0  0  0  0  0  0  0  0  0
    0.5805   -2.1759   -1.7555 H   0  0  0  0  0  0  0  0  0  0  0  0
   -1.9630    0.1568   -4.3141 H   0  0  0  0  0  0  0  0  0  0  0  0
    1.0367    3.9286   -0.9282 H   0  0  0  0  0  0  0  0  0  0  0  0
    0.2458   -0.8668   -3.8351 H   0  0  0  0  0  0  0  0  0  0  0  0
    3.4886    3.8471   -1.2050 H   0  0  0  0  0  0  0  0  0  0  0  0
  1 17  1  0  0  0  0
  2  7  1  0  0  0  0
  2 14  1  0  0  0  0
  3 23  1  0  0  0  0
  3 24  1  0  0  0  0
  4  9  1  0  0  0  0
  4 12  1  0  0  0  0
  4 13  1  0  0  0  0
  5 14  2  0  0  0  0
  5 16  1  0  0  0  0
  6 19  1  0  0  0  0
  6 20  1  0  0  0  0
  6 22  1  0  0  0  0
  7 16  2  0  0  0  0
  8 22  2  0  0  0  0
  8 30  1  0  0  0  0
  9 10  1  0  0  0  0
  9 14  1  0  0  0  0
  9 31  1  0  0  0  0
 10 11  1  0  0  0  0
 10 32  1  0  0  0  0
 10 33  1  0  0  0  0
 11 12  1  0  0  0  0
 11 34  1  0  0  0  0
 11 35  1  0  0  0  0
 12 36  1  0  0  0  0
 12 37  1  0  0  0  0
 13 15  1  0  0  0  0
 13 38  1  0  0  0  0
 13 39  1  0  0  0  0
 15 17  1  0  0  0  0
 15 18  2  0  0  0  0
 16 21  1  0  0  0  0
 17 26  2  0  0  0  0
 18 27  1  0  0  0  0
 18 40  1  0  0  0  0
 19 23  1  0  0  0  0
 19 41  1  0  0  0  0
 19 42  1  0  0  0  0
 20 24  1  0  0  0  0
 20 43  1  0  0  0  0
 20 44  1  0  0  0  0
 21 25  2  0  0  0  0
 21 28  1  0  0  0  0
 22 25  1  0  0  0  0
 23 45  1  0  0  0  0
 23 46  1  0  0  0  0
 24 47  1  0  0  0  0
 24 48  1  0  0  0  0
 25 49  1  0  0  0  0
 26 29  1  0  0  0  0
 26 50  1  0  0  0  0
 27 29  2  0  0  0  0
 27 51  1  0  0  0  0
 28 30  2  0  0  0  0
 28 52  1  0  0  0  0
 29 53  1  0  0  0  0
 30 54  1  0  0  0  0
M  END
> <PUBCHEM_COMPOUND_CID>
45783288

> <PUBCHEM_CONFORMER_RMSD>
1

> <PUBCHEM_CONFORMER_DIVERSEORDER>
1
182
153
160
155
163
71
31
110
165
90
80
107
47
2
65
45
88
152
72
36
167
20
136
158
126
125
64
124
111
150
148
129
54
116
123
56
57
26
10
183
66
140
61
168
70
159
84
43
15
34
62
143
68
97
127
173
137
190
185
101
117
93
119
102
170
24
27
78
91
7
89
161
86
74
162
40
42
181
41
113
85
100
52
44
106
51
134
3
94
21
145
179
53
178
87
99
96
39
131
128
4
189
38
49
79
171
187
19
69
105
25
180
166
5
177
104
172
142
75
175
132
118
164
149
6
17
50
92
186
14
121
151
138
108
133
146
139
60
16
98
147
33
30
95
176
169
112
28
9
48
109
115
37
157
154
76
32
83
59
103
35
67
120
29
23
114
58
184
156
11
77
135
130
13
174
73
81
12
46
8
144
63
82
22
55
141
18
122
188

> <PUBCHEM_MMFF94_PARTIAL_CHARGES>
35
1 -0.19
12 0.27
13 0.41
14 0.3
15 -0.14
16 0.46
17 0.19
18 -0.15
19 0.37
2 -0.02
20 0.37
21 0.05
22 0.41
23 0.28
24 0.28
25 -0.15
26 -0.15
27 -0.15
28 -0.15
29 -0.15
3 -0.56
30 0.16
4 -0.81
40 0.15
49 0.15
5 -0.57
50 0.15
51 0.15
52 0.15
53 0.15
54 0.15
6 -0.84
7 -0.41
8 -0.62
9 0.45

> <PUBCHEM_EFFECTIVE_ROTOR_COUNT>
7.2

> <PUBCHEM_PHARMACOPHORE_FEATURES>
9
1 3 acceptor
1 4 cation
3 5 7 16 cation
3 6 8 22 cation
5 2 5 7 14 16 rings
5 4 9 10 11 12 rings
6 15 17 18 26 27 29 rings
6 3 6 19 20 23 24 rings
6 8 21 22 25 28 30 rings

> <PUBCHEM_HEAVY_ATOM_COUNT>
30

> <PUBCHEM_ATOM_DEF_STEREO_COUNT>
1

> <PUBCHEM_ATOM_UDEF_STEREO_COUNT>
0

> <PUBCHEM_BOND_DEF_STEREO_COUNT>
0

> <PUBCHEM_BOND_UDEF_STEREO_COUNT>
0

> <PUBCHEM_ISOTOPIC_ATOM_COUNT>
0

> <PUBCHEM_COMPONENT_COUNT>
1

> <PUBCHEM_CACTVS_TAUTO_COUNT>
1

> <PUBCHEM_CONFORMER_ID>
02BA98F800000001

> <PUBCHEM_MMFF94_ENERGY>
74.026

> <PUBCHEM_FEATURE_SELFOVERLAP>
45.674

> <PUBCHEM_SHAPE_FINGERPRINT>
10369192 42 16881900051779803964
10764073 3 18043263349129712793
11135926 11 18189616223857154260
11582403 64 13757516544206376513
11607047 141 15287933535836055417
12422481 6 17987812799390657811
12553582 1 18410292498086404374
12633257 1 18338807796097463446
12655387 17 18044122115298441153
12788726 201 16700049602983743549
13004483 165 15623669505286020685
14910302 57 16443337710746662432
15419009 47 13843038736775143202
15537594 2 18341621412683624676
16110190 28 18342742893063786714
17809404 112 17681793506544507306
19319366 153 17689455083734664025
20554085 129 16414927327461018809
21133410 90 11268423013539221998
21315759 227 17821445755559199090
21796203 349 18195274228909716576
484985 159 18189036638809664423
7064713 232 17417820512626852474
9862522 239 17775010046729032709

> <PUBCHEM_SHAPE_MULTIPOLES>
573.47
10.63
3.41
2.88
10.73
1.24
-0.76
-4.65
8.02
2.12
-0.6
-3.73
-1.32
-2.32

> <PUBCHEM_SHAPE_SELFOVERLAP>
1249.902

> <PUBCHEM_SHAPE_VOLUME>
313.7

> <PUBCHEM_COORDINATE_TYPE>
2
5
10

$$$$
