71694373
  -OEChem-12032416413D

 87 91  0     1  0  0  0  0  0999 V2000
    5.0798    0.6297   -1.7106 O   0  0  0  0  0  0  0  0  0  0  0  0
    7.1109    2.3833   -2.4861 O   0  0  0  0  0  0  0  0  0  0  0  0
   -0.0958    2.4821    2.3440 O   0  0  0  0  0  0  0  0  0  0  0  0
   -0.4421   -2.3107    0.0939 O   0  0  0  0  0  0  0  0  0  0  0  0
    6.9150    0.0862   -0.4100 N   0  0  0  0  0  0  0  0  0  0  0  0
    1.5827    0.8913    2.2441 N   0  0  0  0  0  0  0  0  0  0  0  0
   -1.2061   -0.6312    2.3431 N   0  0  0  0  0  0  0  0  0  0  0  0
   -5.9080   -1.9323   -0.9870 N   0  0  3  0  0  0  0  0  0  0  0  0
   -8.6046    1.6923   -1.3010 N   0  0  0  0  0  0  0  0  0  0  0  0
    3.1846   -0.1162    0.0275 C   0  0  1  0  0  0  0  0  0  0  0  0
    2.1745   -0.9951    0.8235 C   0  0  2  0  0  0  0  0  0  0  0  0
    2.7632    1.3680    0.1397 C   0  0  0  0  0  0  0  0  0  0  0  0
    4.6509   -0.2928    0.4416 C   0  0  0  0  0  0  0  0  0  0  0  0
    2.0463   -0.5004    2.2767 C   0  0  0  0  0  0  0  0  0  0  0  0
    2.5205    1.8051    1.5868 C   0  0  0  0  0  0  0  0  0  0  0  0
    7.9320    0.4141   -1.4115 C   0  0  2  0  0  0  0  0  0  0  0  0
    9.2026   -0.2451   -0.8689 C   0  0  0  0  0  0  0  0  0  0  0  0
    7.5238   -0.4338    0.8119 C   0  0  0  0  0  0  0  0  0  0  0  0
    5.5568    0.1846   -0.6654 C   0  0  0  0  0  0  0  0  0  0  0  0
    9.0145   -0.1832    0.6424 C   0  0  0  0  0  0  0  0  0  0  0  0
    2.4682   -2.4708    0.7723 C   0  0  0  0  0  0  0  0  0  0  0  0
    8.0900    1.9247   -1.5728 C   0  0  0  0  0  0  0  0  0  0  0  0
    0.2989    1.3310    2.5653 C   0  0  0  0  0  0  0  0  0  0  0  0
    1.6950   -3.4677    0.3086 C   0  0  0  0  0  0  0  0  0  0  0  0
   -0.6510    0.3672    3.2524 C   0  0  0  0  0  0  0  0  0  0  0  0
    0.2959   -3.4769   -0.2527 C   0  0  0  0  0  0  0  0  0  0  0  0
   -1.8446   -0.0910    1.1448 C   0  0  0  0  0  0  0  0  0  0  0  0
    7.1957    3.7896   -2.6886 C   0  0  0  0  0  0  0  0  0  0  0  0
   -2.5074   -1.1801    0.3183 C   0  0  0  0  0  0  0  0  0  0  0  0
   -1.7807   -2.2735   -0.2069 C   0  0  0  0  0  0  0  0  0  0  0  0
   -3.8819   -1.0816    0.0473 C   0  0  0  0  0  0  0  0  0  0  0  0
   -2.4383   -3.2318   -0.9875 C   0  0  0  0  0  0  0  0  0  0  0  0
   -4.5269   -2.0455   -0.7257 C   0  0  0  0  0  0  0  0  0  0  0  0
   -3.8057   -3.1169   -1.2426 C   0  0  0  0  0  0  0  0  0  0  0  0
   -6.6691   -0.8236   -0.4462 C   0  0  0  0  0  0  0  0  0  0  0  0
   -6.5864   -2.9274   -1.7935 C   0  0  0  0  0  0  0  0  0  0  0  0
   -6.5292    0.4168   -1.3276 C   0  0  0  0  0  0  0  0  0  0  0  0
   -7.3406    1.5893   -0.8328 C   0  0  0  0  0  0  0  0  0  0  0  0
   -6.7676    2.4838    0.0568 C   0  0  0  0  0  0  0  0  0  0  0  0
   -7.5419    3.5525    0.4945 C   0  0  0  0  0  0  0  0  0  0  0  0
   -9.3269    2.7438   -0.8534 C   0  0  0  0  0  0  0  0  0  0  0  0
   -8.8470    3.6921    0.0355 C   0  0  0  0  0  0  0  0  0  0  0  0
    3.0743   -0.4123   -1.0256 H   0  0  0  0  0  0  0  0  0  0  0  0
    1.2133   -0.8078    0.3373 H   0  0  0  0  0  0  0  0  0  0  0  0
    1.8289    1.5004   -0.4226 H   0  0  0  0  0  0  0  0  0  0  0  0
    3.4973    2.0363   -0.3219 H   0  0  0  0  0  0  0  0  0  0  0  0
    4.8933   -1.3459    0.6042 H   0  0  0  0  0  0  0  0  0  0  0  0
    4.8763    0.2518    1.3623 H   0  0  0  0  0  0  0  0  0  0  0  0
    1.3583   -1.1355    2.8380 H   0  0  0  0  0  0  0  0  0  0  0  0
    3.0083   -0.5271    2.8022 H   0  0  0  0  0  0  0  0  0  0  0  0
    3.4501    1.8045    2.1657 H   0  0  0  0  0  0  0  0  0  0  0  0
    2.1362    2.8301    1.5990 H   0  0  0  0  0  0  0  0  0  0  0  0
    7.6390   -0.0341   -2.3687 H   0  0  0  0  0  0  0  0  0  0  0  0
   10.1288    0.2317   -1.2020 H   0  0  0  0  0  0  0  0  0  0  0  0
    9.2343   -1.2960   -1.1836 H   0  0  0  0  0  0  0  0  0  0  0  0
    7.1158    0.0632    1.6960 H   0  0  0  0  0  0  0  0  0  0  0  0
    7.3043   -1.5054    0.8689 H   0  0  0  0  0  0  0  0  0  0  0  0
    9.6268   -0.9124    1.1797 H   0  0  0  0  0  0  0  0  0  0  0  0
    9.2729    0.8172    1.0093 H   0  0  0  0  0  0  0  0  0  0  0  0
    3.4325   -2.7775    1.1734 H   0  0  0  0  0  0  0  0  0  0  0  0
    9.0779    2.1554   -1.9886 H   0  0  0  0  0  0  0  0  0  0  0  0
    7.9821    2.4439   -0.6128 H   0  0  0  0  0  0  0  0  0  0  0  0
    2.1398   -4.4629    0.3510 H   0  0  0  0  0  0  0  0  0  0  0  0
   -0.1311   -0.1235    4.0818 H   0  0  0  0  0  0  0  0  0  0  0  0
   -1.4643    0.9492    3.7030 H   0  0  0  0  0  0  0  0  0  0  0  0
    0.3630   -3.5727   -1.3426 H   0  0  0  0  0  0  0  0  0  0  0  0
   -0.2079   -4.3596    0.1608 H   0  0  0  0  0  0  0  0  0  0  0  0
   -1.8782   -1.1994    2.8593 H   0  0  0  0  0  0  0  0  0  0  0  0
   -1.1140    0.4102    0.4988 H   0  0  0  0  0  0  0  0  0  0  0  0
   -2.5882    0.6612    1.4354 H   0  0  0  0  0  0  0  0  0  0  0  0
    6.4185    4.0813   -3.4000 H   0  0  0  0  0  0  0  0  0  0  0  0
    8.1709    4.0588   -3.1057 H   0  0  0  0  0  0  0  0  0  0  0  0
    7.0264    4.3223   -1.7479 H   0  0  0  0  0  0  0  0  0  0  0  0
   -4.4028   -0.2250    0.4618 H   0  0  0  0  0  0  0  0  0  0  0  0
   -1.9132   -4.0799   -1.4163 H   0  0  0  0  0  0  0  0  0  0  0  0
   -4.2608   -3.8917   -1.8520 H   0  0  0  0  0  0  0  0  0  0  0  0
   -6.4258   -0.6184    0.6036 H   0  0  0  0  0  0  0  0  0  0  0  0
   -7.7328   -1.0976   -0.4069 H   0  0  0  0  0  0  0  0  0  0  0  0
   -7.6465   -2.6828   -1.9261 H   0  0  0  0  0  0  0  0  0  0  0  0
   -6.1559   -2.9838   -2.7996 H   0  0  0  0  0  0  0  0  0  0  0  0
   -6.5470   -3.9146   -1.3200 H   0  0  0  0  0  0  0  0  0  0  0  0
   -5.4819    0.7232   -1.4347 H   0  0  0  0  0  0  0  0  0  0  0  0
   -6.8612    0.1753   -2.3466 H   0  0  0  0  0  0  0  0  0  0  0  0
   -5.7491    2.3644    0.4105 H   0  0  0  0  0  0  0  0  0  0  0  0
   -7.1294    4.2749    1.1924 H   0  0  0  0  0  0  0  0  0  0  0  0
  -10.3383    2.8075   -1.2412 H   0  0  0  0  0  0  0  0  0  0  0  0
   -9.4689    4.5172    0.3633 H   0  0  0  0  0  0  0  0  0  0  0  0
  1 19  2  0  0  0  0
  2 22  1  0  0  0  0
  2 28  1  0  0  0  0
  3 23  2  0  0  0  0
  4 26  1  0  0  0  0
  4 30  1  0  0  0  0
  5 16  1  0  0  0  0
  5 18  1  0  0  0  0
  5 19  1  0  0  0  0
  6 14  1  0  0  0  0
  6 15  1  0  0  0  0
  6 23  1  0  0  0  0
  7 25  1  0  0  0  0
  7 27  1  0  0  0  0
  7 68  1  0  0  0  0
  8 33  1  0  0  0  0
  8 35  1  0  0  0  0
  8 36  1  0  0  0  0
  9 38  1  0  0  0  0
  9 41  2  0  0  0  0
 10 11  1  0  0  0  0
 10 12  1  0  0  0  0
 10 13  1  0  0  0  0
 10 43  1  0  0  0  0
 11 14  1  0  0  0  0
 11 21  1  0  0  0  0
 11 44  1  0  0  0  0
 12 15  1  0  0  0  0
 12 45  1  0  0  0  0
 12 46  1  0  0  0  0
 13 19  1  0  0  0  0
 13 47  1  0  0  0  0
 13 48  1  0  0  0  0
 14 49  1  0  0  0  0
 14 50  1  0  0  0  0
 15 51  1  0  0  0  0
 15 52  1  0  0  0  0
 16 17  1  0  0  0  0
 16 22  1  0  0  0  0
 16 53  1  0  0  0  0
 17 20  1  0  0  0  0
 17 54  1  0  0  0  0
 17 55  1  0  0  0  0
 18 20  1  0  0  0  0
 18 56  1  0  0  0  0
 18 57  1  0  0  0  0
 20 58  1  0  0  0  0
 20 59  1  0  0  0  0
 21 24  2  0  0  0  0
 21 60  1  0  0  0  0
 22 61  1  0  0  0  0
 22 62  1  0  0  0  0
 23 25  1  0  0  0  0
 24 26  1  0  0  0  0
 24 63  1  0  0  0  0
 25 64  1  0  0  0  0
 25 65  1  0  0  0  0
 26 66  1  0  0  0  0
 26 67  1  0  0  0  0
 27 29  1  0  0  0  0
 27 69  1  0  0  0  0
 27 70  1  0  0  0  0
 28 71  1  0  0  0  0
 28 72  1  0  0  0  0
 28 73  1  0  0  0  0
 29 30  2  0  0  0  0
 29 31  1  0  0  0  0
 30 32  1  0  0  0  0
 31 33  2  0  0  0  0
 31 74  1  0  0  0  0
 32 34  2  0  0  0  0
 32 75  1  0  0  0  0
 33 34  1  0  0  0  0
 34 76  1  0  0  0  0
 35 37  1  0  0  0  0
 35 77  1  0  0  0  0
 35 78  1  0  0  0  0
 36 79  1  0  0  0  0
 36 80  1  0  0  0  0
 36 81  1  0  0  0  0
 37 38  1  0  0  0  0
 37 82  1  0  0  0  0
 37 83  1  0  0  0  0
 38 39  2  0  0  0  0
 39 40  1  0  0  0  0
 39 84  1  0  0  0  0
 40 42  2  0  0  0  0
 40 85  1  0  0  0  0
 41 42  1  0  0  0  0
 41 86  1  0  0  0  0
 42 87  1  0  0  0  0
M  END
> <PUBCHEM_COMPOUND_CID>
71694373

> <PUBCHEM_CONFORMER_RMSD>
1.2

> <PUBCHEM_CONFORMER_DIVERSEORDER>
1
153
149
114
199
142
12
128
190
103
196
193
179
130
35
211
213
171
148
69
81
170
173
205
37
201
191
25
82
97
90
43
60
64
164
29
220
62
115
150
197
174
74
53
72
185
49
168
216
68
121
83
101
126
204
198
94
165
172
65
17
219
93
13
210
44
180
188
51
163
110
181
139
42
221
138
36
169
123
92
147
91
151
158
108
79
87
136
146
161
166
96
118
187
192
129
77
131
52
76
10
184
86
140
159
175
84
214
113
145
152
160
132
66
178
135
47
102
21
78
203
28
134
217
89
38
207
208
55
73
122
109
19
50
125
26
186
99
202
157
119
124
222
105
95
39
167
85
34
100
182
127
200
67
116
143
54
107
18
120
58
215
70
209
30
133
56
98
27
195
218
45
7
112
75
33
40
183
22
24
88
2
176
104
117
23
106
20
144
206
156
32
8
155
6
31
41
189
59
212
16
111
5
177
61
63
154
46
162
9
14
80
57
48
15
71
194
141
137
3
4
11

> <PUBCHEM_MMFF94_PARTIAL_CHARGES>
48
1 -0.57
11 0.14
13 0.06
14 0.3
15 0.3
16 0.3
18 0.3
19 0.57
2 -0.56
21 -0.29
22 0.28
23 0.57
24 -0.29
25 0.33
26 0.42
27 0.41
28 0.28
29 -0.14
3 -0.57
30 0.08
31 -0.15
32 -0.15
33 0.1
34 -0.15
35 0.37
36 0.37
37 0.14
38 0.17
39 -0.15
4 -0.36
40 -0.15
41 0.16
42 -0.15
5 -0.66
6 -0.66
60 0.15
63 0.15
68 0.36
7 -0.9
74 0.15
75 0.15
76 0.15
8 -0.84
84 0.15
85 0.15
86 0.15
87 0.15
9 -0.62

> <PUBCHEM_EFFECTIVE_ROTOR_COUNT>
11.8

> <PUBCHEM_PHARMACOPHORE_FEATURES>
12
1 1 acceptor
1 2 acceptor
1 3 acceptor
1 4 acceptor
1 7 cation
1 7 donor
1 8 cation
1 9 acceptor
5 5 16 17 18 20 rings
6 29 30 31 32 33 34 rings
6 6 10 11 12 14 15 rings
6 9 38 39 40 41 42 rings

> <PUBCHEM_HEAVY_ATOM_COUNT>
42

> <PUBCHEM_ATOM_DEF_STEREO_COUNT>
3

> <PUBCHEM_ATOM_UDEF_STEREO_COUNT>
0

> <PUBCHEM_BOND_DEF_STEREO_COUNT>
1

> <PUBCHEM_BOND_UDEF_STEREO_COUNT>
0

> <PUBCHEM_ISOTOPIC_ATOM_COUNT>
0

> <PUBCHEM_COMPONENT_COUNT>
1

> <PUBCHEM_CACTVS_TAUTO_COUNT>
4

> <PUBCHEM_CONFORMER_ID>
0445F82500000001

> <PUBCHEM_MMFF94_ENERGY>
133.0927

> <PUBCHEM_FEATURE_SELFOVERLAP>
60.902

> <PUBCHEM_SHAPE_FINGERPRINT>
10190206 1 17846785062252888993
10483366 6 18201434740835836849
10674148 151 18187358844374354256
10864689 126 18131624612446598058
11181472 205 18260830380749165718
11408170 132 18412543241270355272
1200032 147 18186518770135330131
12124843 1 18202009858294503614
12133447 93 18202557380414082698
13383668 362 10954042393307904814
13782708 43 13614529540701800642
13811026 1 17275102860192073674
14068700 675 18060424655480767528
14664723 55 18260543463737349773
14931854 50 18059862765941370350
15183329 4 18336269050652849774
15198563 99 17203336571979292440
15781502 145 18410012135358868048
15975801 100 17896589592969459853
16992727 255 18410858776354636900
3986486 107 17632573821678313837
4339292 15 15913334551234174796
444735 79 11097859571246495137
44575985 266 18272094852328899801
4461854 278 12685102462017575409
50009960 94 9943806677785797621
508180 173 18201996672813372795
5776283 40 18342452630510752929
6698420 124 17168148965990426536
9962374 69 11383826086662843790

> <PUBCHEM_SHAPE_MULTIPOLES>
815.96
30.75
4.62
2.42
1.24
0.24
1
27.59
-19.92
-7.68
-1.89
2.48
1.45
-4.66

> <PUBCHEM_SHAPE_SELFOVERLAP>
1712.622

> <PUBCHEM_SHAPE_VOLUME>
455.2

> <PUBCHEM_COORDINATE_TYPE>
2
5
10

$$$$
