71693437
  -OEChem-12032416233D

 57 60  0     1  0  0  0  0  0999 V2000
    3.0726   -1.7367   -1.8063 O   0  0  0  0  0  0  0  0  0  0  0  0
    4.9623   -1.6976    2.5062 O   0  0  0  0  0  0  0  0  0  0  0  0
    5.4574    0.7152   -1.7121 O   0  0  0  0  0  0  0  0  0  0  0  0
   -7.2190    0.5949   -0.1086 O   0  0  0  0  0  0  0  0  0  0  0  0
   -3.1984    0.8511   -1.2275 O   0  0  0  0  0  0  0  0  0  0  0  0
    4.2137   -0.1471    0.0647 N   0  0  0  0  0  0  0  0  0  0  0  0
   -2.8536   -1.0364    0.1316 N   0  0  0  0  0  0  0  0  0  0  0  0
    2.2279    3.7535   -0.4801 N   0  0  0  0  0  0  0  0  0  0  0  0
    3.5502   -1.3343    0.6146 C   0  0  1  0  0  0  0  0  0  0  0  0
    2.7204   -2.0819   -0.4623 C   0  0  1  0  0  0  0  0  0  0  0  0
    4.5725   -2.2694    1.2745 C   0  0  0  0  0  0  0  0  0  0  0  0
    1.2376   -1.8032   -0.3040 C   0  0  0  0  0  0  0  0  0  0  0  0
    4.3981    1.0010    0.9394 C   0  0  0  0  0  0  0  0  0  0  0  0
    4.7639   -0.1694   -1.2145 C   0  0  0  0  0  0  0  0  0  0  0  0
    4.4418   -1.4330   -1.9758 C   0  0  0  0  0  0  0  0  0  0  0  0
    0.6529   -0.7313   -0.9785 C   0  0  0  0  0  0  0  0  0  0  0  0
    0.4584   -2.6195    0.5160 C   0  0  0  0  0  0  0  0  0  0  0  0
    3.2824    1.9964    0.8027 C   0  0  0  0  0  0  0  0  0  0  0  0
   -0.7106   -0.4758   -0.8332 C   0  0  0  0  0  0  0  0  0  0  0  0
   -0.9050   -2.3641    0.6614 C   0  0  0  0  0  0  0  0  0  0  0  0
   -1.4896   -1.2922   -0.0133 C   0  0  0  0  0  0  0  0  0  0  0  0
    2.2955    2.1048    1.7762 C   0  0  0  0  0  0  0  0  0  0  0  0
    3.2039    2.8362   -0.2966 C   0  0  0  0  0  0  0  0  0  0  0  0
    1.2749    3.0366    1.6229 C   0  0  0  0  0  0  0  0  0  0  0  0
   -3.6074   -0.0153   -0.4620 C   0  0  0  0  0  0  0  0  0  0  0  0
    1.2864    3.8300    0.4870 C   0  0  0  0  0  0  0  0  0  0  0  0
   -5.0572   -0.0203   -0.1334 C   0  0  0  0  0  0  0  0  0  0  0  0
   -5.9848    0.8821   -0.5996 C   0  0  0  0  0  0  0  0  0  0  0  0
   -5.7669   -0.9199    0.6972 C   0  0  0  0  0  0  0  0  0  0  0  0
   -7.0778   -0.5030    0.6797 C   0  0  0  0  0  0  0  0  0  0  0  0
   -5.9018    2.0502   -1.4902 C   0  0  0  0  0  0  0  0  0  0  0  0
   -8.3009   -1.0017    1.3236 C   0  0  0  0  0  0  0  0  0  0  0  0
    2.8750   -0.9859    1.4084 H   0  0  0  0  0  0  0  0  0  0  0  0
    2.8636   -3.1667   -0.3783 H   0  0  0  0  0  0  0  0  0  0  0  0
    5.4629   -2.4185    0.6566 H   0  0  0  0  0  0  0  0  0  0  0  0
    4.1257   -3.2440    1.4956 H   0  0  0  0  0  0  0  0  0  0  0  0
    5.3419    1.4989    0.6839 H   0  0  0  0  0  0  0  0  0  0  0  0
    4.5019    0.6736    1.9784 H   0  0  0  0  0  0  0  0  0  0  0  0
    4.6178   -1.2567   -3.0413 H   0  0  0  0  0  0  0  0  0  0  0  0
    5.0782   -2.2623   -1.6529 H   0  0  0  0  0  0  0  0  0  0  0  0
    1.2411   -0.0713   -1.6105 H   0  0  0  0  0  0  0  0  0  0  0  0
    0.9031   -3.4559    1.0486 H   0  0  0  0  0  0  0  0  0  0  0  0
   -1.0870    0.3745   -1.3840 H   0  0  0  0  0  0  0  0  0  0  0  0
   -1.4997   -3.0082    1.3042 H   0  0  0  0  0  0  0  0  0  0  0  0
    5.6038   -2.3032    2.9151 H   0  0  0  0  0  0  0  0  0  0  0  0
    2.3095    1.4680    2.6564 H   0  0  0  0  0  0  0  0  0  0  0  0
    3.9455    2.8105   -1.0877 H   0  0  0  0  0  0  0  0  0  0  0  0
   -3.3381   -1.6848    0.7459 H   0  0  0  0  0  0  0  0  0  0  0  0
    0.4945    3.1377    2.3683 H   0  0  0  0  0  0  0  0  0  0  0  0
    0.5122    4.5716    0.3199 H   0  0  0  0  0  0  0  0  0  0  0  0
   -5.3917   -1.7708    1.2477 H   0  0  0  0  0  0  0  0  0  0  0  0
   -5.5445    1.7554   -2.4817 H   0  0  0  0  0  0  0  0  0  0  0  0
   -6.8794    2.5268   -1.6164 H   0  0  0  0  0  0  0  0  0  0  0  0
   -5.2165    2.7995   -1.0821 H   0  0  0  0  0  0  0  0  0  0  0  0
   -8.0929   -1.8835    1.9378 H   0  0  0  0  0  0  0  0  0  0  0  0
   -9.0452   -1.2806    0.5714 H   0  0  0  0  0  0  0  0  0  0  0  0
   -8.7358   -0.2334    1.9703 H   0  0  0  0  0  0  0  0  0  0  0  0
  1 10  1  0  0  0  0
  1 15  1  0  0  0  0
  2 11  1  0  0  0  0
  2 45  1  0  0  0  0
  3 14  2  0  0  0  0
  4 28  1  0  0  0  0
  4 30  1  0  0  0  0
  5 25  2  0  0  0  0
  6  9  1  0  0  0  0
  6 13  1  0  0  0  0
  6 14  1  0  0  0  0
  7 21  1  0  0  0  0
  7 25  1  0  0  0  0
  7 48  1  0  0  0  0
  8 23  1  0  0  0  0
  8 26  2  0  0  0  0
  9 10  1  0  0  0  0
  9 11  1  0  0  0  0
  9 33  1  0  0  0  0
 10 12  1  0  0  0  0
 10 34  1  0  0  0  0
 11 35  1  0  0  0  0
 11 36  1  0  0  0  0
 12 16  2  0  0  0  0
 12 17  1  0  0  0  0
 13 18  1  0  0  0  0
 13 37  1  0  0  0  0
 13 38  1  0  0  0  0
 14 15  1  0  0  0  0
 15 39  1  0  0  0  0
 15 40  1  0  0  0  0
 16 19  1  0  0  0  0
 16 41  1  0  0  0  0
 17 20  2  0  0  0  0
 17 42  1  0  0  0  0
 18 22  1  0  0  0  0
 18 23  2  0  0  0  0
 19 21  2  0  0  0  0
 19 43  1  0  0  0  0
 20 21  1  0  0  0  0
 20 44  1  0  0  0  0
 22 24  2  0  0  0  0
 22 46  1  0  0  0  0
 23 47  1  0  0  0  0
 24 26  1  0  0  0  0
 24 49  1  0  0  0  0
 25 27  1  0  0  0  0
 26 50  1  0  0  0  0
 27 28  2  0  0  0  0
 27 29  1  0  0  0  0
 28 31  1  0  0  0  0
 29 30  2  0  0  0  0
 29 51  1  0  0  0  0
 30 32  1  0  0  0  0
 31 52  1  0  0  0  0
 31 53  1  0  0  0  0
 31 54  1  0  0  0  0
 32 55  1  0  0  0  0
 32 56  1  0  0  0  0
 32 57  1  0  0  0  0
M  END
> <PUBCHEM_COMPOUND_CID>
71693437

> <PUBCHEM_CONFORMER_RMSD>
1

> <PUBCHEM_CONFORMER_DIVERSEORDER>
1
23
33
121
57
113
11
132
58
16
17
119
115
92
96
112
75
134
20
54
30
130
126
125
138
66
67
123
86
100
95
72
55
128
84
26
97
44
127
77
88
110
15
13
131
68
120
62
42
4
104
81
69
6
31
129
73
78
111
43
90
99
83
71
49
52
3
24
39
117
89
107
103
109
102
79
22
76
38
27
133
51
41
74
45
116
118
48
98
50
64
14
87
32
29
108
53
124
80
28
91
93
47
61
5
122
63
2
106
34
10
25
65
9
56
12
8
21
105
136
59
114
46
40
19
36
37
137
35
70
18
82
60
135
94
85
101
7

> <PUBCHEM_MMFF94_PARTIAL_CHARGES>
43
1 -0.56
10 0.42
11 0.28
12 -0.14
13 0.44
14 0.57
15 0.34
16 -0.15
17 -0.15
18 -0.14
19 -0.15
2 -0.68
20 -0.15
21 0.12
22 -0.15
23 0.16
24 -0.15
25 0.72
26 0.16
27 -0.09
28 -0.04
29 -0.15
3 -0.57
30 -0.04
31 0.18
32 0.18
4 -0.28
41 0.15
42 0.15
43 0.15
44 0.15
45 0.4
46 0.15
47 0.15
48 0.37
49 0.15
5 -0.57
50 0.15
51 0.15
6 -0.66
7 -0.55
8 -0.62
9 0.3

> <PUBCHEM_EFFECTIVE_ROTOR_COUNT>
8

> <PUBCHEM_PHARMACOPHORE_FEATURES>
12
1 1 acceptor
1 2 acceptor
1 2 donor
1 3 acceptor
1 4 acceptor
1 5 acceptor
1 7 donor
1 8 acceptor
5 4 27 28 29 30 rings
6 1 6 9 10 14 15 rings
6 12 16 17 19 20 21 rings
6 8 18 22 23 24 26 rings

> <PUBCHEM_HEAVY_ATOM_COUNT>
32

> <PUBCHEM_ATOM_DEF_STEREO_COUNT>
2

> <PUBCHEM_ATOM_UDEF_STEREO_COUNT>
0

> <PUBCHEM_BOND_DEF_STEREO_COUNT>
0

> <PUBCHEM_BOND_UDEF_STEREO_COUNT>
0

> <PUBCHEM_ISOTOPIC_ATOM_COUNT>
0

> <PUBCHEM_COMPONENT_COUNT>
1

> <PUBCHEM_CACTVS_TAUTO_COUNT>
4

> <PUBCHEM_CONFORMER_ID>
0445F47D00000001

> <PUBCHEM_MMFF94_ENERGY>
81.7081

> <PUBCHEM_FEATURE_SELFOVERLAP>
60.901

> <PUBCHEM_SHAPE_FINGERPRINT>
10074138 170 15667565895949103019
10165383 225 17968384541493629614
10675989 125 17916302921126407256
11456790 92 18334854970217156523
11828042 279 18047170120349129845
1200032 147 16734125620497826716
12166972 35 18041001683343443950
12539745 222 17242998070402915186
12596602 18 15140960660365945829
13150687 139 10230894765047779106
13402501 40 18409725170791571292
13560911 43 18407760339228565025
13782708 43 18187365437613390411
14537116 161 18271534125944385949
14849402 71 18337400426062732885
14931854 50 18341347612771580004
15183329 4 17988924466387752969
15238133 3 18334007324979345586
15419008 47 18335425651787476093
15420108 30 17414124110208120752
15968369 153 17702083808298752193
16067690 210 16081371817468775885
16760501 71 18411981403638844171
20554085 129 17168136829077343259
21033648 29 18265051508408178642
21860390 5 18202281429155484260
23559900 14 18060140963552085655
24893992 56 18335986457961236339
249057 3 17846222154642752062
397830 11 18266188408417609851
4066623 53 18127988421042124398
4093350 32 17131840875511096732
437795 51 18411707612321722271
484989 97 18263366906344176740
5109719 28 18411427236962440219
513532 50 17346323743240760700
53794403 172 18192155008230825989
57359948 33 11815628471267020683
5776283 40 18045236066195575868
60111433 81 16987419009617527016
6086070 43 18410860996542194602
70251023 43 17700993041488076998
8509985 295 18334847308522994410

> <PUBCHEM_SHAPE_MULTIPOLES>
614.26
17.78
3.84
1.71
37.65
3.41
-0.09
-1.01
-1.21
-4.54
-0.81
-1.71
-0.09
1.64

> <PUBCHEM_SHAPE_SELFOVERLAP>
1327.381

> <PUBCHEM_SHAPE_VOLUME>
334.3

> <PUBCHEM_COORDINATE_TYPE>
2
5
10

$$$$
