51137055
  -OEChem-12032416343D

 42 45  0     1  0  0  0  0  0999 V2000
    3.9330   -1.3210    0.3940 O   0  0  0  0  0  0  0  0  0  0  0  0
   -7.5320    1.0043    0.8793 O   0  0  0  0  0  0  0  0  0  0  0  0
   -7.6909   -1.1886    0.3029 O   0  0  0  0  0  0  0  0  0  0  0  0
   -0.6155   -0.2200   -0.2485 N   0  0  1  0  0  0  0  0  0  0  0  0
    3.4982    0.8635   -0.0253 N   0  0  0  0  0  0  0  0  0  0  0  0
    1.5682   -0.7314    0.4363 C   0  0  1  0  0  0  0  0  0  0  0  0
    0.8308    0.0001    1.5715 C   0  0  0  0  0  0  0  0  0  0  0  0
    0.7121   -0.4755   -0.8113 C   0  0  0  0  0  0  0  0  0  0  0  0
   -0.3757    0.6478    0.9044 C   0  0  0  0  0  0  0  0  0  0  0  0
   -1.5221    0.3812   -1.2155 C   0  0  0  0  0  0  0  0  0  0  0  0
    3.0127   -0.3264    0.2530 C   0  0  0  0  0  0  0  0  0  0  0  0
   -2.9616    0.2410   -0.7968 C   0  0  0  0  0  0  0  0  0  0  0  0
    5.1241   -0.6881    0.1814 C   0  0  0  0  0  0  0  0  0  0  0  0
    4.8541    0.6482   -0.0749 C   0  0  0  0  0  0  0  0  0  0  0  0
   -3.6129   -0.9842   -0.9398 C   0  0  0  0  0  0  0  0  0  0  0  0
   -3.6438    1.3359   -0.2663 C   0  0  0  0  0  0  0  0  0  0  0  0
    6.3956   -1.2478    0.2084 C   0  0  0  0  0  0  0  0  0  0  0  0
    5.9234    1.5192   -0.3282 C   0  0  0  0  0  0  0  0  0  0  0  0
   -4.9464   -1.1143   -0.5522 C   0  0  0  0  0  0  0  0  0  0  0  0
   -4.9773    1.2056    0.1213 C   0  0  0  0  0  0  0  0  0  0  0  0
   -5.6286   -0.0196   -0.0215 C   0  0  0  0  0  0  0  0  0  0  0  0
    7.4510   -0.3655   -0.0465 C   0  0  0  0  0  0  0  0  0  0  0  0
    7.2223    0.9907   -0.3096 C   0  0  0  0  0  0  0  0  0  0  0  0
   -7.0188   -0.1551    0.3837 C   0  0  0  0  0  0  0  0  0  0  0  0
    1.5418   -1.8067    0.6635 H   0  0  0  0  0  0  0  0  0  0  0  0
    0.5001   -0.7305    2.3203 H   0  0  0  0  0  0  0  0  0  0  0  0
    1.4503    0.7438    2.0837 H   0  0  0  0  0  0  0  0  0  0  0  0
    1.0805    0.3903   -1.3778 H   0  0  0  0  0  0  0  0  0  0  0  0
    0.7105   -1.3454   -1.4770 H   0  0  0  0  0  0  0  0  0  0  0  0
   -1.2288    0.6853    1.5890 H   0  0  0  0  0  0  0  0  0  0  0  0
   -0.1226    1.6722    0.6017 H   0  0  0  0  0  0  0  0  0  0  0  0
   -1.2725    1.4313   -1.4194 H   0  0  0  0  0  0  0  0  0  0  0  0
   -1.4242   -0.1290   -2.1843 H   0  0  0  0  0  0  0  0  0  0  0  0
   -3.0920   -1.8445   -1.3519 H   0  0  0  0  0  0  0  0  0  0  0  0
   -3.1469    2.2953   -0.1484 H   0  0  0  0  0  0  0  0  0  0  0  0
    6.5618   -2.2980    0.4129 H   0  0  0  0  0  0  0  0  0  0  0  0
    5.7578    2.5716   -0.5332 H   0  0  0  0  0  0  0  0  0  0  0  0
   -5.4358   -2.0774   -0.6715 H   0  0  0  0  0  0  0  0  0  0  0  0
   -5.4702    2.0833    0.5300 H   0  0  0  0  0  0  0  0  0  0  0  0
    8.4713   -0.7415   -0.0400 H   0  0  0  0  0  0  0  0  0  0  0  0
    8.0671    1.6471   -0.5032 H   0  0  0  0  0  0  0  0  0  0  0  0
   -8.4695    0.9022    1.1496 H   0  0  0  0  0  0  0  0  0  0  0  0
  1 11  1  0  0  0  0
  1 13  1  0  0  0  0
  2 24  1  0  0  0  0
  2 42  1  0  0  0  0
  3 24  2  0  0  0  0
  4  8  1  0  0  0  0
  4  9  1  0  0  0  0
  4 10  1  0  0  0  0
  5 11  2  0  0  0  0
  5 14  1  0  0  0  0
  6  7  1  0  0  0  0
  6  8  1  0  0  0  0
  6 11  1  0  0  0  0
  6 25  1  0  0  0  0
  7  9  1  0  0  0  0
  7 26  1  0  0  0  0
  7 27  1  0  0  0  0
  8 28  1  0  0  0  0
  8 29  1  0  0  0  0
  9 30  1  0  0  0  0
  9 31  1  0  0  0  0
 10 12  1  0  0  0  0
 10 32  1  0  0  0  0
 10 33  1  0  0  0  0
 12 15  2  0  0  0  0
 12 16  1  0  0  0  0
 13 14  1  0  0  0  0
 13 17  2  0  0  0  0
 14 18  2  0  0  0  0
 15 19  1  0  0  0  0
 15 34  1  0  0  0  0
 16 20  2  0  0  0  0
 16 35  1  0  0  0  0
 17 22  1  0  0  0  0
 17 36  1  0  0  0  0
 18 23  1  0  0  0  0
 18 37  1  0  0  0  0
 19 21  2  0  0  0  0
 19 38  1  0  0  0  0
 20 21  1  0  0  0  0
 20 39  1  0  0  0  0
 21 24  1  0  0  0  0
 22 23  2  0  0  0  0
 22 40  1  0  0  0  0
 23 41  1  0  0  0  0
M  END
> <PUBCHEM_COMPOUND_CID>
51137055

> <PUBCHEM_CONFORMER_RMSD>
0.8

> <PUBCHEM_CONFORMER_DIVERSEORDER>
1
32
2
29
11
27
22
41
43
37
25
20
18
15
5
24
30
44
34
16
38
39
6
10
4
14
36
31
28
8
40
45
35
9
12
26
3
42
7
19
47
21
23
33
17
13
46

> <PUBCHEM_MMFF94_PARTIAL_CHARGES>
32
1 -0.28
10 0.41
11 0.3
12 -0.14
13 0.14
14 0.23
15 -0.15
16 -0.15
17 -0.15
18 -0.15
19 -0.15
2 -0.65
20 -0.15
21 0.09
22 -0.15
23 -0.15
24 0.63
3 -0.57
34 0.15
35 0.15
36 0.15
37 0.15
38 0.15
39 0.15
4 -0.81
40 0.15
41 0.15
42 0.5
5 -0.57
6 0.18
8 0.27
9 0.27

> <PUBCHEM_EFFECTIVE_ROTOR_COUNT>
5

> <PUBCHEM_PHARMACOPHORE_FEATURES>
8
1 2 acceptor
1 3 acceptor
1 4 cation
3 2 3 24 anion
5 1 5 11 13 14 rings
5 4 6 7 8 9 rings
6 12 15 16 19 20 21 rings
6 13 14 17 18 22 23 rings

> <PUBCHEM_HEAVY_ATOM_COUNT>
24

> <PUBCHEM_ATOM_DEF_STEREO_COUNT>
1

> <PUBCHEM_ATOM_UDEF_STEREO_COUNT>
0

> <PUBCHEM_BOND_DEF_STEREO_COUNT>
0

> <PUBCHEM_BOND_UDEF_STEREO_COUNT>
0

> <PUBCHEM_ISOTOPIC_ATOM_COUNT>
0

> <PUBCHEM_COMPONENT_COUNT>
1

> <PUBCHEM_CACTVS_TAUTO_COUNT>
1

> <PUBCHEM_CONFORMER_ID>
030C4A1F00000001

> <PUBCHEM_MMFF94_ENERGY>
55.2084

> <PUBCHEM_FEATURE_SELFOVERLAP>
40.772

> <PUBCHEM_SHAPE_FINGERPRINT>
10 15 18343867714976107343
10299344 5 18342175574670001087
10595046 47 18336262362538956496
106641 1 18260553346900117971
10968037 39 18113616794707383703
11315181 36 18407760336019760897
11524674 6 16200148824680564551
11646440 116 16732987518135162956
12166972 35 18187365433192128028
12236239 1 18343580738088229276
12516196 113 16515402962716450085
12730499 353 17749388144737118466
13533116 47 16660633009213813720
14123256 10 16370443349910863361
14170010 4 17894912953869503900
1420 363 17240202122926177895
14251752 14 17775283850741061576
14251764 18 18202562891173497983
14251764 46 16588024610619908355
14849402 71 18261398913569968868
14856354 85 17989208174784127695
14933364 13 18411699880905991708
15131766 46 8572982850917680930
15142383 8 16773795883557036008
15183329 4 11024113143873888957
15461852 350 11746943083659860433
15537594 2 16486969588075459206
15716309 27 18408321081853138647
17093844 174 14548729617312406999
18006028 8 12247680469863113866
18335252 98 18408326587737662994
19489759 90 7925913690485330959
20157964 124 18260548931694836538
20281389 69 18343861113078974288
21095086 128 18335137591945093347
21150785 3 12685096985812419870
21267235 1 18409731755018348252
21315763 28 18334856095878291272
21521721 280 18259987097694453810
21792961 116 17560520599426171060
220451 1 17847054484823411974
22224240 67 16732701661943293290
23035841 295 18342455941587223915
23198884 109 18335138691419382345
23516275 137 18198643063322957891
23536379 177 18411979144338268884
23569943 247 17025986334641095658
2747138 104 16950290606544451269
28498 318 11815905548096881928
29717793 49 17917997162261552164
314173 85 14692851406594663362
34797466 226 18341619222192307948
3545911 37 17894629254009731414
4073 2 18113903805417469634
4325135 7 18334576849615074077
5283156 175 17561367254198742630
5385378 56 15841565041653002863
5758199 1 18113338613179370074
59682541 35 16660368116262261460
59755656 215 14117526427879717404
59755656 520 18259699021111104299

> <PUBCHEM_SHAPE_MULTIPOLES>
466.34
23.42
1.32
0.99
3.41
0.09
-0.07
0.25
-1.26
-0.27
0.03
0.45
0.01
-0.74

> <PUBCHEM_SHAPE_SELFOVERLAP>
1026.562

> <PUBCHEM_SHAPE_VOLUME>
252.9

> <PUBCHEM_COORDINATE_TYPE>
2
5
10

$$$$
