11912069
  -OEChem-12032416113D

 53 54  0     1  0  0  0  0  0999 V2000
    3.2092   -0.2241    1.1021 S   0  0  0  0  0  0  0  0  0  0  0  0
    4.2790   -1.0173    0.5365 O   0  0  0  0  0  0  0  0  0  0  0  0
    3.3284    0.3584    2.4211 O   0  0  0  0  0  0  0  0  0  0  0  0
   -3.5659   -1.3054    0.6197 O   0  0  0  0  0  0  0  0  0  0  0  0
    1.7484   -1.1175    1.0197 N   0  0  2  0  0  0  0  0  0  0  0  0
   -3.2132    0.4316   -0.8763 N   0  0  0  0  0  0  0  0  0  0  0  0
   -2.6880    2.5249    2.1724 N   0  0  0  0  0  0  0  0  0  0  0  0
   -0.8995   -2.2259    0.3993 C   0  0  1  0  0  0  0  0  0  0  0  0
    0.4151   -2.9184   -0.0350 C   0  0  2  0  0  0  0  0  0  0  0  0
   -0.6278   -1.3479    1.6331 C   0  0  0  0  0  0  0  0  0  0  0  0
    1.5553   -1.9092   -0.2311 C   0  0  0  0  0  0  0  0  0  0  0  0
    0.5217   -0.3686    1.4149 C   0  0  0  0  0  0  0  0  0  0  0  0
    0.2481   -3.7865   -1.2822 C   0  0  0  0  0  0  0  0  0  0  0  0
   -1.5766   -1.4162   -0.7125 C   0  0  0  0  0  0  0  0  0  0  0  0
   -0.8947   -4.7655   -1.1169 C   0  0  0  0  0  0  0  0  0  0  0  0
   -2.8743   -0.7739   -0.2529 C   0  0  0  0  0  0  0  0  0  0  0  0
    2.8394    1.0742   -0.0351 C   0  0  0  0  0  0  0  0  0  0  0  0
   -4.4284    1.1711   -0.5428 C   0  0  0  0  0  0  0  0  0  0  0  0
    2.2422    2.2343    0.4306 C   0  0  0  0  0  0  0  0  0  0  0  0
    3.1523    0.9120   -1.3750 C   0  0  0  0  0  0  0  0  0  0  0  0
   -2.3796    1.0408   -1.9054 C   0  0  0  0  0  0  0  0  0  0  0  0
   -4.1330    2.5737   -0.0253 C   0  0  0  0  0  0  0  0  0  0  0  0
    1.9495    3.2601   -0.4681 C   0  0  0  0  0  0  0  0  0  0  0  0
    2.8597    1.9379   -2.2736 C   0  0  0  0  0  0  0  0  0  0  0  0
    2.2583    3.1120   -1.8201 C   0  0  0  0  0  0  0  0  0  0  0  0
   -3.3255    2.5455    1.2030 C   0  0  0  0  0  0  0  0  0  0  0  0
   -1.6051   -2.9988    0.7317 H   0  0  0  0  0  0  0  0  0  0  0  0
    0.7113   -3.5827    0.7910 H   0  0  0  0  0  0  0  0  0  0  0  0
   -1.5147   -0.7977    1.9608 H   0  0  0  0  0  0  0  0  0  0  0  0
   -0.3633   -2.0092    2.4700 H   0  0  0  0  0  0  0  0  0  0  0  0
    1.3413   -1.2457   -1.0745 H   0  0  0  0  0  0  0  0  0  0  0  0
    2.4716   -2.4646   -0.4590 H   0  0  0  0  0  0  0  0  0  0  0  0
    0.6983    0.1658    2.3543 H   0  0  0  0  0  0  0  0  0  0  0  0
    0.2419    0.3594    0.6489 H   0  0  0  0  0  0  0  0  0  0  0  0
    0.0886   -3.1751   -2.1776 H   0  0  0  0  0  0  0  0  0  0  0  0
    1.1739   -4.3494   -1.4540 H   0  0  0  0  0  0  0  0  0  0  0  0
   -0.8683   -0.6639   -1.0620 H   0  0  0  0  0  0  0  0  0  0  0  0
   -1.8343   -2.0445   -1.5705 H   0  0  0  0  0  0  0  0  0  0  0  0
   -0.7970   -5.3410   -0.1905 H   0  0  0  0  0  0  0  0  0  0  0  0
   -1.8754   -4.2834   -1.1250 H   0  0  0  0  0  0  0  0  0  0  0  0
   -0.8890   -5.4791   -1.9482 H   0  0  0  0  0  0  0  0  0  0  0  0
   -5.0433    1.2249   -1.4488 H   0  0  0  0  0  0  0  0  0  0  0  0
   -5.0041    0.6110    0.2029 H   0  0  0  0  0  0  0  0  0  0  0  0
    1.9918    2.3699    1.4783 H   0  0  0  0  0  0  0  0  0  0  0  0
    3.6172    0.0051   -1.7492 H   0  0  0  0  0  0  0  0  0  0  0  0
   -1.5570    1.5772   -1.4235 H   0  0  0  0  0  0  0  0  0  0  0  0
   -2.9661    1.7358   -2.5142 H   0  0  0  0  0  0  0  0  0  0  0  0
   -1.9795    0.2817   -2.5828 H   0  0  0  0  0  0  0  0  0  0  0  0
   -3.6211    3.1763   -0.7834 H   0  0  0  0  0  0  0  0  0  0  0  0
   -5.0832    3.0800    0.1817 H   0  0  0  0  0  0  0  0  0  0  0  0
    1.4799    4.1738   -0.1153 H   0  0  0  0  0  0  0  0  0  0  0  0
    3.0988    1.8222   -3.3267 H   0  0  0  0  0  0  0  0  0  0  0  0
    2.0296    3.9104   -2.5200 H   0  0  0  0  0  0  0  0  0  0  0  0
  1  2  2  0  0  0  0
  1  3  2  0  0  0  0
  1  5  1  0  0  0  0
  1 17  1  0  0  0  0
  4 16  2  0  0  0  0
  5 11  1  0  0  0  0
  5 12  1  0  0  0  0
  6 16  1  0  0  0  0
  6 18  1  0  0  0  0
  6 21  1  0  0  0  0
  7 26  3  0  0  0  0
  8  9  1  0  0  0  0
  8 10  1  0  0  0  0
  8 14  1  0  0  0  0
  8 27  1  0  0  0  0
  9 11  1  0  0  0  0
  9 13  1  0  0  0  0
  9 28  1  0  0  0  0
 10 12  1  0  0  0  0
 10 29  1  0  0  0  0
 10 30  1  0  0  0  0
 11 31  1  0  0  0  0
 11 32  1  0  0  0  0
 12 33  1  0  0  0  0
 12 34  1  0  0  0  0
 13 15  1  0  0  0  0
 13 35  1  0  0  0  0
 13 36  1  0  0  0  0
 14 16  1  0  0  0  0
 14 37  1  0  0  0  0
 14 38  1  0  0  0  0
 15 39  1  0  0  0  0
 15 40  1  0  0  0  0
 15 41  1  0  0  0  0
 17 19  2  0  0  0  0
 17 20  1  0  0  0  0
 18 22  1  0  0  0  0
 18 42  1  0  0  0  0
 18 43  1  0  0  0  0
 19 23  1  0  0  0  0
 19 44  1  0  0  0  0
 20 24  2  0  0  0  0
 20 45  1  0  0  0  0
 21 46  1  0  0  0  0
 21 47  1  0  0  0  0
 21 48  1  0  0  0  0
 22 26  1  0  0  0  0
 22 49  1  0  0  0  0
 22 50  1  0  0  0  0
 23 25  2  0  0  0  0
 23 51  1  0  0  0  0
 24 25  1  0  0  0  0
 24 52  1  0  0  0  0
 25 53  1  0  0  0  0
M  END
> <PUBCHEM_COMPOUND_CID>
11912069

> <PUBCHEM_CONFORMER_RMSD>
1

> <PUBCHEM_CONFORMER_DIVERSEORDER>
1
374
375
5
124
320
393
177
279
168
292
404
185
296
350
318
44
111
423
193
73
368
225
316
408
74
364
305
343
32
383
240
135
246
373
332
406
370
245
182
437
411
358
148
399
78
334
152
290
119
100
27
249
90
322
304
199
83
317
298
387
80
354
61
63
250
233
238
265
278
59
191
321
12
413
390
385
254
301
201
323
303
112
234
128
221
184
359
412
284
378
33
367
166
8
299
276
202
384
68
94
286
421
145
207
272
97
187
157
338
200
188
81
137
314
48
105
143
363
213
181
402
20
222
84
430
311
43
53
35
288
308
89
39
241
327
101
107
394
132
293
235
179
369
377
310
117
432
106
54
433
192
419
330
266
326
197
146
183
381
121
248
426
285
232
277
88
220
47
283
129
38
79
154
342
120
156
49
247
386
313
400
167
189
211
151
77
82
227
436
376
349
380
125
60
347
325
255
405
226
153
52
251
29
397
259
345
42
58
95
76
75
428
50
103
216
315
170
96
162
257
140
366
435
64
127
253
10
164
319
360
69
131
344
264
333
388
417
271
70
134
198
379
434
297
268
228
348
438
229
415
270
210
92
126
410
302
98
14
108
160
371
46
115
273
414
150
13
147
261
139
149
218
180
424
142
144
130
262
176
357
25
141
242
294
416
195
280
309
45
175
355
275
214
340
407
401
136
41
361
429
36
203
169
209
109
431
30
422
258
34
365
57
398
256
163
93
122
67
291
158
205
62
171
173
116
224
239
353
123
190
217
16
114
133
178
331
155
328
307
341
104
420
339
274
215
208
427
37
19
99
172
295
72
391
18
372
7
395
352
260
244
110
223
219
346
85
17
287
196
165
230
138
2
300
23
269
66
282
267
236
159
212
403
356
56
118
40
396
289
312
252
113
102
409
324
329
351
243
174
28
161
31
335
91
65
55
231
206
51
15
389
71
418
306
6
24
87
281
26
22
337
425
204
186
3
11
263
21
382
9
362
237
4
336
194
86
392

> <PUBCHEM_MMFF94_PARTIAL_CHARGES>
26
1 1.45
11 0.36
12 0.36
14 0.06
16 0.57
17 -0.01
18 0.3
19 -0.15
2 -0.65
20 -0.15
21 0.3
22 0.2
23 -0.15
24 -0.15
25 -0.15
26 0.36
3 -0.65
4 -0.57
44 0.15
45 0.15
5 -0.85
51 0.15
52 0.15
53 0.15
6 -0.66
7 -0.56

> <PUBCHEM_EFFECTIVE_ROTOR_COUNT>
9.2

> <PUBCHEM_PHARMACOPHORE_FEATURES>
7
1 15 hydrophobe
1 2 acceptor
1 3 acceptor
1 4 acceptor
1 7 acceptor
6 17 19 20 23 24 25 rings
6 5 8 9 10 11 12 rings

> <PUBCHEM_HEAVY_ATOM_COUNT>
26

> <PUBCHEM_ATOM_DEF_STEREO_COUNT>
2

> <PUBCHEM_ATOM_UDEF_STEREO_COUNT>
0

> <PUBCHEM_BOND_DEF_STEREO_COUNT>
0

> <PUBCHEM_BOND_UDEF_STEREO_COUNT>
0

> <PUBCHEM_ISOTOPIC_ATOM_COUNT>
0

> <PUBCHEM_COMPONENT_COUNT>
1

> <PUBCHEM_CACTVS_TAUTO_COUNT>
1

> <PUBCHEM_CONFORMER_ID>
00B5C38500000001

> <PUBCHEM_MMFF94_ENERGY>
47.3128

> <PUBCHEM_FEATURE_SELFOVERLAP>
35.54

> <PUBCHEM_SHAPE_FINGERPRINT>
10871710 139 17253159029930528214
12156800 1 16313948346584972201
12173636 292 18268705198405975423
12422481 6 17617353118710738314
12539773 59 18045231685022160133
12633257 1 17749943371642846625
12788726 201 17905046207090779871
13583140 156 17314204779015065867
1601671 61 18261669269202383854
17974551 9 15361603884917435025
20739085 24 18120932798380070634
21033648 29 18129358502270991898
21524375 3 18260820518855550199
21860390 5 18123464978085669039
21864079 5 18263361554445699589
22749437 52 18410003356029055025
23419403 2 15970981708637956730
235170 7 15625928868215782425
26353 1 17263310339832925631
3459 83 18194703496554383588
35225 105 18048622578792810205
469060 322 16665164345244745857
474 4 18263643979053261753
5081480 168 17551796919631676319
5895379 119 18341899584593660200
6287921 2 18268155258208823103

> <PUBCHEM_SHAPE_MULTIPOLES>
506.37
7.4
5.2
2.04
2.66
3.15
0.15
-5.82
0.19
1.25
-1.88
-0.8
-0.79
-1.91

> <PUBCHEM_SHAPE_SELFOVERLAP>
1021.277

> <PUBCHEM_SHAPE_VOLUME>
295.6

> <PUBCHEM_COORDINATE_TYPE>
2
5
10

$$$$
