7663767
  -OEChem-12032416363D

 60 64  0     1  0  0  0  0  0999 V2000
   -8.9039   -0.5135   -0.6231 Cl  0  0  0  0  0  0  0  0  0  0  0  0
   -0.5303    2.5929   -1.7196 O   0  0  0  0  0  0  0  0  0  0  0  0
    3.5596   -0.6645   -2.2109 O   0  0  0  0  0  0  0  0  0  0  0  0
    2.6970   -3.5552    1.8085 O   0  0  0  0  0  0  0  0  0  0  0  0
    3.8997    0.6856   -0.3626 N   0  0  0  0  0  0  0  0  0  0  0  0
    1.2406    2.4519   -0.2105 N   0  0  0  0  0  0  0  0  0  0  0  0
    3.1522   -1.5374   -0.1018 N   0  0  0  0  0  0  0  0  0  0  0  0
    3.6309    3.1278   -0.8299 C   0  0  1  0  0  0  0  0  0  0  0  0
    3.1535    2.2604    1.4182 C   0  0  2  0  0  0  0  0  0  0  0  0
    3.7868    3.4211    0.6565 C   0  0  0  0  0  0  0  0  0  0  0  0
    4.3383    1.8114   -1.1926 C   0  0  0  0  0  0  0  0  0  0  0  0
    2.1385    3.0959   -1.1788 C   0  0  0  0  0  0  0  0  0  0  0  0
    3.8966    0.9487    1.0879 C   0  0  0  0  0  0  0  0  0  0  0  0
    1.6832    2.1156    1.0707 C   0  0  0  0  0  0  0  0  0  0  0  0
    0.8166    1.6371    1.9774 C   0  0  0  0  0  0  0  0  0  0  0  0
   -0.1034    2.2896   -0.6040 C   0  0  0  0  0  0  0  0  0  0  0  0
    3.5285   -0.5266   -0.9853 C   0  0  0  0  0  0  0  0  0  0  0  0
   -1.0452    1.7240    0.4250 C   0  0  0  0  0  0  0  0  0  0  0  0
   -0.5651    1.4395    1.6436 C   0  0  0  0  0  0  0  0  0  0  0  0
   -2.4315    1.5122    0.0926 C   0  0  0  0  0  0  0  0  0  0  0  0
    2.2957   -2.6336   -0.3701 C   0  0  0  0  0  0  0  0  0  0  0  0
   -3.1722    0.5441    0.6462 C   0  0  0  0  0  0  0  0  0  0  0  0
    2.0858   -3.6190    0.5916 C   0  0  0  0  0  0  0  0  0  0  0  0
    1.6636   -2.7151   -1.6087 C   0  0  0  0  0  0  0  0  0  0  0  0
   -4.5877    0.2829    0.3323 C   0  0  0  0  0  0  0  0  0  0  0  0
    1.2390   -4.6919    0.3132 C   0  0  0  0  0  0  0  0  0  0  0  0
    0.8169   -3.7881   -1.8871 C   0  0  0  0  0  0  0  0  0  0  0  0
    0.6046   -4.7765   -0.9262 C   0  0  0  0  0  0  0  0  0  0  0  0
   -5.3488    1.2820   -0.2527 C   0  0  0  0  0  0  0  0  0  0  0  0
   -5.1310   -0.9569    0.6286 C   0  0  0  0  0  0  0  0  0  0  0  0
    2.0027   -2.8664    2.8461 C   0  0  0  0  0  0  0  0  0  0  0  0
   -6.6892    1.0348   -0.5492 C   0  0  0  0  0  0  0  0  0  0  0  0
   -6.4713   -1.2041    0.3320 C   0  0  0  0  0  0  0  0  0  0  0  0
   -7.2504   -0.2083   -0.2570 C   0  0  0  0  0  0  0  0  0  0  0  0
    4.1029    3.9281   -1.4133 H   0  0  0  0  0  0  0  0  0  0  0  0
    3.2617    2.4572    2.4929 H   0  0  0  0  0  0  0  0  0  0  0  0
    4.8471    3.5199    0.9192 H   0  0  0  0  0  0  0  0  0  0  0  0
    3.3010    4.3699    0.9167 H   0  0  0  0  0  0  0  0  0  0  0  0
    4.1985    1.5929   -2.2563 H   0  0  0  0  0  0  0  0  0  0  0  0
    5.4182    1.9157   -1.0294 H   0  0  0  0  0  0  0  0  0  0  0  0
    1.7783    4.1296   -1.2723 H   0  0  0  0  0  0  0  0  0  0  0  0
    1.9835    2.6331   -2.1616 H   0  0  0  0  0  0  0  0  0  0  0  0
    3.4494    0.1343    1.6599 H   0  0  0  0  0  0  0  0  0  0  0  0
    4.9463    1.0218    1.3975 H   0  0  0  0  0  0  0  0  0  0  0  0
    1.1357    1.3582    2.9762 H   0  0  0  0  0  0  0  0  0  0  0  0
   -1.1848    1.0552    2.4478 H   0  0  0  0  0  0  0  0  0  0  0  0
    3.5513   -1.5348    0.8303 H   0  0  0  0  0  0  0  0  0  0  0  0
   -2.8357    2.1819   -0.6594 H   0  0  0  0  0  0  0  0  0  0  0  0
   -2.7380   -0.1494    1.3629 H   0  0  0  0  0  0  0  0  0  0  0  0
    1.7533   -1.9637   -2.3828 H   0  0  0  0  0  0  0  0  0  0  0  0
    1.0690   -5.4659    1.0568 H   0  0  0  0  0  0  0  0  0  0  0  0
    0.3152   -3.8502   -2.8485 H   0  0  0  0  0  0  0  0  0  0  0  0
   -0.0563   -5.6109   -1.1422 H   0  0  0  0  0  0  0  0  0  0  0  0
   -4.9620    2.2709   -0.4768 H   0  0  0  0  0  0  0  0  0  0  0  0
   -4.5370   -1.7437    1.0860 H   0  0  0  0  0  0  0  0  0  0  0  0
    1.7727   -1.8382    2.5489 H   0  0  0  0  0  0  0  0  0  0  0  0
    1.0800   -3.3965    3.1023 H   0  0  0  0  0  0  0  0  0  0  0  0
    2.6467   -2.8386    3.7293 H   0  0  0  0  0  0  0  0  0  0  0  0
   -7.2863    1.8215   -1.0035 H   0  0  0  0  0  0  0  0  0  0  0  0
   -6.8952   -2.1775    0.5649 H   0  0  0  0  0  0  0  0  0  0  0  0
  1 34  1  0  0  0  0
  2 16  2  0  0  0  0
  3 17  2  0  0  0  0
  4 23  1  0  0  0  0
  4 31  1  0  0  0  0
  5 11  1  0  0  0  0
  5 13  1  0  0  0  0
  5 17  1  0  0  0  0
  6 12  1  0  0  0  0
  6 14  1  0  0  0  0
  6 16  1  0  0  0  0
  7 17  1  0  0  0  0
  7 21  1  0  0  0  0
  7 47  1  0  0  0  0
  8 10  1  0  0  0  0
  8 11  1  0  0  0  0
  8 12  1  0  0  0  0
  8 35  1  0  0  0  0
  9 10  1  0  0  0  0
  9 13  1  0  0  0  0
  9 14  1  0  0  0  0
  9 36  1  0  0  0  0
 10 37  1  0  0  0  0
 10 38  1  0  0  0  0
 11 39  1  0  0  0  0
 11 40  1  0  0  0  0
 12 41  1  0  0  0  0
 12 42  1  0  0  0  0
 13 43  1  0  0  0  0
 13 44  1  0  0  0  0
 14 15  2  0  0  0  0
 15 19  1  0  0  0  0
 15 45  1  0  0  0  0
 16 18  1  0  0  0  0
 18 19  2  0  0  0  0
 18 20  1  0  0  0  0
 19 46  1  0  0  0  0
 20 22  2  0  0  0  0
 20 48  1  0  0  0  0
 21 23  1  0  0  0  0
 21 24  2  0  0  0  0
 22 25  1  0  0  0  0
 22 49  1  0  0  0  0
 23 26  2  0  0  0  0
 24 27  1  0  0  0  0
 24 50  1  0  0  0  0
 25 29  2  0  0  0  0
 25 30  1  0  0  0  0
 26 28  1  0  0  0  0
 26 51  1  0  0  0  0
 27 28  2  0  0  0  0
 27 52  1  0  0  0  0
 28 53  1  0  0  0  0
 29 32  1  0  0  0  0
 29 54  1  0  0  0  0
 30 33  2  0  0  0  0
 30 55  1  0  0  0  0
 31 56  1  0  0  0  0
 31 57  1  0  0  0  0
 31 58  1  0  0  0  0
 32 34  2  0  0  0  0
 32 59  1  0  0  0  0
 33 34  1  0  0  0  0
 33 60  1  0  0  0  0
M  END
> <PUBCHEM_COMPOUND_CID>
7663767

> <PUBCHEM_CONFORMER_RMSD>
1

> <PUBCHEM_CONFORMER_DIVERSEORDER>
1
33
8
10
29
2
6
13
17
24
7
32
18
9
30
15
11
25
12
21
4
5
20
28
23
26
14
31
3
27
19
22
16

> <PUBCHEM_MMFF94_PARTIAL_CHARGES>
45
1 -0.18
11 0.3
12 0.3
13 0.3
14 -0.03
15 -0.15
16 0.62
17 0.69
18 0.01
19 -0.15
2 -0.57
20 -0.15
21 0.12
22 -0.18
23 0.08
24 -0.15
25 0.03
26 -0.15
27 -0.15
28 -0.15
29 -0.15
3 -0.57
30 -0.15
31 0.28
32 -0.15
33 -0.15
34 0.18
4 -0.36
45 0.15
46 0.15
47 0.37
48 0.15
49 0.15
5 -0.66
50 0.15
51 0.15
52 0.15
53 0.15
54 0.15
55 0.15
59 0.15
6 -0.47
60 0.15
7 -0.55
9 0.14

> <PUBCHEM_EFFECTIVE_ROTOR_COUNT>
7

> <PUBCHEM_PHARMACOPHORE_FEATURES>
9
1 2 acceptor
1 3 acceptor
1 4 acceptor
1 7 donor
6 21 23 24 26 27 28 rings
6 25 29 30 32 33 34 rings
6 5 8 9 10 11 13 rings
6 6 14 15 16 18 19 rings
6 6 8 9 10 12 14 rings

> <PUBCHEM_HEAVY_ATOM_COUNT>
34

> <PUBCHEM_ATOM_DEF_STEREO_COUNT>
2

> <PUBCHEM_ATOM_UDEF_STEREO_COUNT>
0

> <PUBCHEM_BOND_DEF_STEREO_COUNT>
1

> <PUBCHEM_BOND_UDEF_STEREO_COUNT>
0

> <PUBCHEM_ISOTOPIC_ATOM_COUNT>
0

> <PUBCHEM_COMPONENT_COUNT>
1

> <PUBCHEM_CACTVS_TAUTO_COUNT>
2

> <PUBCHEM_CONFORMER_ID>
0074F09700000001

> <PUBCHEM_MMFF94_ENERGY>
112.2929

> <PUBCHEM_FEATURE_SELFOVERLAP>
47.238

> <PUBCHEM_SHAPE_FINGERPRINT>
11014199 57 17477775580594663694
11719270 70 18339922718711021005
11973864 48 18114747145076746311
12156800 1 17626639942138307010
12539745 222 9941602153147462680
1361 2 18410296951461243893
13761468 95 10557975730475749118
14017578 113 18337385045352797059
14675020 138 18272356612055021608
15001296 14 18201995586323913375
15183329 4 18113899390692320205
15419008 42 18044354077560048917
15483637 11 17908987952066168743
15484559 13 18336553801976937732
15664445 248 18040722467208827180
17138139 8 17630598144784152623
17909252 39 18336547110360361769
18365409 1 17979639261872724589
19026451 147 18266460897631822570
19319366 153 18272928353600502743
20775530 9 17833009151586376674
21133410 52 18267583499547711446
21133410 62 18192412286148158295
21285901 2 17967531251234514629
21360442 67 18338517564404908295
21703447 108 18202278074502001465
25269216 80 16734410372766555931
394071 54 18271258136121154723
5309563 4 18195811769456533124
5951187 136 14996581589204193870
68570916 9 10953752101918323849
86090 222 18341906202652680670

> <PUBCHEM_SHAPE_MULTIPOLES>
669.02
14.88
6.19
1.89
45.5
7.51
0.49
-2.89
-2.31
-8.55
-0.47
-2.08
0.79
-0.24

> <PUBCHEM_SHAPE_SELFOVERLAP>
1453.244

> <PUBCHEM_SHAPE_VOLUME>
362

> <PUBCHEM_COORDINATE_TYPE>
2
5
10

$$$$
