26743954
  -OEChem-12032416283D

 49 52  0     1  0  0  0  0  0999 V2000
   -2.1238   -5.0485   -1.1169 O   0  0  0  0  0  0  0  0  0  0  0  0
    1.2902   -1.6594    1.9399 O   0  0  0  0  0  0  0  0  0  0  0  0
   -3.9064    4.0659   -0.9437 O   0  0  0  0  0  0  0  0  0  0  0  0
   -1.6105   -1.6035   -0.3166 N   0  0  1  0  0  0  0  0  0  0  0  0
   -3.1011    2.2978    0.3304 N   0  0  0  0  0  0  0  0  0  0  0  0
    1.2681   -0.8297   -0.1404 N   0  0  0  0  0  0  0  0  0  0  0  0
    2.4812   -0.9364    1.7963 N   0  0  0  0  0  0  0  0  0  0  0  0
    5.5537    1.4446    0.1524 N   0  0  0  0  0  0  0  0  0  0  0  0
   -2.3818   -0.5057    0.2612 C   0  0  0  0  0  0  0  0  0  0  0  0
   -0.7011   -2.2492    0.6518 C   0  0  1  0  0  0  0  0  0  0  0  0
   -2.4699   -2.6609   -0.8459 C   0  0  0  0  0  0  0  0  0  0  0  0
   -0.5725   -3.7036    0.1619 C   0  0  0  0  0  0  0  0  0  0  0  0
   -1.4802   -3.7904   -1.0587 C   0  0  1  0  0  0  0  0  0  0  0  0
   -3.2904    0.1182   -0.8059 C   0  0  0  0  0  0  0  0  0  0  0  0
   -1.4364    0.5520    0.8453 C   0  0  0  0  0  0  0  0  0  0  0  0
   -4.0354    1.3293   -0.2474 C   0  0  0  0  0  0  0  0  0  0  0  0
   -2.2182    1.7559    1.3708 C   0  0  0  0  0  0  0  0  0  0  0  0
    0.6357   -1.5455    0.7547 C   0  0  0  0  0  0  0  0  0  0  0  0
   -3.1294    3.6265   -0.0921 C   0  0  0  0  0  0  0  0  0  0  0  0
    2.3948   -0.4777    0.5442 C   0  0  0  0  0  0  0  0  0  0  0  0
   -2.1342    4.5605    0.5487 C   0  0  0  0  0  0  0  0  0  0  0  0
    3.4165    0.3330   -0.0528 C   0  0  0  0  0  0  0  0  0  0  0  0
    3.2948    0.7924   -1.3596 C   0  0  0  0  0  0  0  0  0  0  0  0
    4.5551    0.6840    0.6545 C   0  0  0  0  0  0  0  0  0  0  0  0
    4.3011    1.5775   -1.9113 C   0  0  0  0  0  0  0  0  0  0  0  0
    5.4001    1.8728   -1.1208 C   0  0  0  0  0  0  0  0  0  0  0  0
   -3.0177   -0.8827    1.0755 H   0  0  0  0  0  0  0  0  0  0  0  0
   -1.1597   -2.2802    1.6505 H   0  0  0  0  0  0  0  0  0  0  0  0
   -2.9395   -2.3990   -1.7996 H   0  0  0  0  0  0  0  0  0  0  0  0
   -3.2592   -2.9615   -0.1442 H   0  0  0  0  0  0  0  0  0  0  0  0
    0.4530   -3.9819   -0.1072 H   0  0  0  0  0  0  0  0  0  0  0  0
   -0.9021   -4.3985    0.9444 H   0  0  0  0  0  0  0  0  0  0  0  0
   -0.9059   -3.6371   -1.9807 H   0  0  0  0  0  0  0  0  0  0  0  0
   -4.0410   -0.5935   -1.1663 H   0  0  0  0  0  0  0  0  0  0  0  0
   -2.6922    0.4325   -1.6716 H   0  0  0  0  0  0  0  0  0  0  0  0
   -0.7345    0.9055    0.0797 H   0  0  0  0  0  0  0  0  0  0  0  0
   -0.8717    0.1731    1.7011 H   0  0  0  0  0  0  0  0  0  0  0  0
   -4.6348    1.7904   -1.0387 H   0  0  0  0  0  0  0  0  0  0  0  0
   -4.7241    1.0235    0.5491 H   0  0  0  0  0  0  0  0  0  0  0  0
   -2.8561    1.4596    2.2122 H   0  0  0  0  0  0  0  0  0  0  0  0
   -1.5195    2.5058    1.7460 H   0  0  0  0  0  0  0  0  0  0  0  0
   -1.4311   -5.7283   -1.1765 H   0  0  0  0  0  0  0  0  0  0  0  0
   -1.1142    4.2241    0.3445 H   0  0  0  0  0  0  0  0  0  0  0  0
   -2.3110    4.6207    1.6259 H   0  0  0  0  0  0  0  0  0  0  0  0
   -2.2528    5.5635    0.1272 H   0  0  0  0  0  0  0  0  0  0  0  0
    2.4276    0.5550   -1.9705 H   0  0  0  0  0  0  0  0  0  0  0  0
    4.7267    0.3667    1.6789 H   0  0  0  0  0  0  0  0  0  0  0  0
    4.2276    1.9470   -2.9277 H   0  0  0  0  0  0  0  0  0  0  0  0
    6.2124    2.4815   -1.5042 H   0  0  0  0  0  0  0  0  0  0  0  0
  1 13  1  0  0  0  0
  1 42  1  0  0  0  0
  2  7  1  0  0  0  0
  2 18  1  0  0  0  0
  3 19  2  0  0  0  0
  4  9  1  0  0  0  0
  4 10  1  0  0  0  0
  4 11  1  0  0  0  0
  5 16  1  0  0  0  0
  5 17  1  0  0  0  0
  5 19  1  0  0  0  0
  6 18  2  0  0  0  0
  6 20  1  0  0  0  0
  7 20  2  0  0  0  0
  8 24  1  0  0  0  0
  8 26  2  0  0  0  0
  9 14  1  0  0  0  0
  9 15  1  0  0  0  0
  9 27  1  0  0  0  0
 10 12  1  0  0  0  0
 10 18  1  0  0  0  0
 10 28  1  0  0  0  0
 11 13  1  0  0  0  0
 11 29  1  0  0  0  0
 11 30  1  0  0  0  0
 12 13  1  0  0  0  0
 12 31  1  0  0  0  0
 12 32  1  0  0  0  0
 13 33  1  0  0  0  0
 14 16  1  0  0  0  0
 14 34  1  0  0  0  0
 14 35  1  0  0  0  0
 15 17  1  0  0  0  0
 15 36  1  0  0  0  0
 15 37  1  0  0  0  0
 16 38  1  0  0  0  0
 16 39  1  0  0  0  0
 17 40  1  0  0  0  0
 17 41  1  0  0  0  0
 19 21  1  0  0  0  0
 20 22  1  0  0  0  0
 21 43  1  0  0  0  0
 21 44  1  0  0  0  0
 21 45  1  0  0  0  0
 22 23  1  0  0  0  0
 22 24  2  0  0  0  0
 23 25  2  0  0  0  0
 23 46  1  0  0  0  0
 24 47  1  0  0  0  0
 25 26  1  0  0  0  0
 25 48  1  0  0  0  0
 26 49  1  0  0  0  0
M  END
> <PUBCHEM_COMPOUND_CID>
26743954

> <PUBCHEM_CONFORMER_RMSD>
0.8

> <PUBCHEM_CONFORMER_DIVERSEORDER>
1
69
44
37
91
118
61
40
62
64
88
82
96
121
73
117
25
39
36
47
125
77
28
100
113
103
109
95
6
63
102
23
92
52
75
57
116
11
53
27
114
74
59
79
78
124
87
13
112
99
115
97
22
21
38
24
98
119
55
71
42
26
76
49
85
35
43
108
123
5
122
51
16
106
94
110
66
70
34
90
101
89
86
105
120
67
8
107
68
20
83
18
56
29
93
80
2
111
54
46
84
72
50
81
32
19
48
12
4
17
65
15
31
58
9
10
33
45
41
60
30
104
3
14
7

> <PUBCHEM_MMFF94_PARTIAL_CHARGES>
28
1 -0.68
10 0.45
11 0.27
13 0.28
16 0.3
17 0.3
18 0.3
19 0.57
2 -0.02
20 0.46
21 0.06
22 0.05
23 -0.15
24 0.16
25 -0.15
26 0.16
3 -0.57
4 -0.81
42 0.4
46 0.15
47 0.15
48 0.15
49 0.15
5 -0.66
6 -0.57
7 -0.41
8 -0.62
9 0.27

> <PUBCHEM_EFFECTIVE_ROTOR_COUNT>
6.2

> <PUBCHEM_PHARMACOPHORE_FEATURES>
10
1 1 acceptor
1 1 donor
1 3 acceptor
1 4 cation
1 8 acceptor
3 6 7 20 cation
5 2 6 7 18 20 rings
5 4 10 11 12 13 rings
6 5 9 14 15 16 17 rings
6 8 22 23 24 25 26 rings

> <PUBCHEM_HEAVY_ATOM_COUNT>
26

> <PUBCHEM_ATOM_DEF_STEREO_COUNT>
2

> <PUBCHEM_ATOM_UDEF_STEREO_COUNT>
0

> <PUBCHEM_BOND_DEF_STEREO_COUNT>
0

> <PUBCHEM_BOND_UDEF_STEREO_COUNT>
0

> <PUBCHEM_ISOTOPIC_ATOM_COUNT>
0

> <PUBCHEM_COMPONENT_COUNT>
1

> <PUBCHEM_CACTVS_TAUTO_COUNT>
1

> <PUBCHEM_CONFORMER_ID>
0198149200000001

> <PUBCHEM_MMFF94_ENERGY>
51.1712

> <PUBCHEM_FEATURE_SELFOVERLAP>
50.747

> <PUBCHEM_SHAPE_FINGERPRINT>
10670039 82 18335995198668050836
10871710 139 18408326609555338813
10937287 8 18266742389592911501
11049842 53 18200021834008720946
11477941 20 17839185452419277396
11640471 11 18187081745700085010
12107183 9 18190449473319136706
12173636 292 18340480089127255175
12788726 201 18264760125016269307
13617811 41 17981883352220905911
13911987 19 18337938053268214239
14114211 80 18200048239372581465
14251764 75 18195819461485634425
14508225 48 17838326742243217743
14739800 52 18267000917366625016
15064981 113 18344143688194613006
15163728 17 18197227953207552533
15463212 79 18408601487256424882
15575132 122 18335707113752456589
16988056 13 16896235015629619709
17818456 19 18339068303829429330
17974551 9 14494670804797725301
20101258 96 17977113683853776259
20739085 24 17473251085808934490
21033650 10 18118145743263293252
21304303 282 18197469931417050534
21860390 5 17186434647477079549
21864079 5 18263366884558480337
22149856 69 17840862981489885193
23366157 5 17689435984679178411
235170 7 17487635223936386076
23557571 272 17987240130274483306
23559900 14 17620185435115299553
245318 6 18042417828155116221
3057174 1 18057040203538971799
312425 83 18195835014357551508
3610482 184 17970371384732503540
38570 142 17459497536165816588
394222 165 18043806489960593571
469060 322 18120680151324188803
474 4 17749389269643646304
5048184 11 18336268942308060752
531348 171 18341063994917580590
550186 7 18200606894405491404
6034566 193 18338811000618067057
6700243 42 17625576697019180502
7808743 9 18411418418840634856
9981440 41 18337389323418681969

> <PUBCHEM_SHAPE_MULTIPOLES>
492.55
9.54
6.02
1.46
13.21
0.54
-0.05
-8.88
2.83
-8.93
1.41
0.92
0.17
-1.88

> <PUBCHEM_SHAPE_SELFOVERLAP>
1055.34

> <PUBCHEM_SHAPE_VOLUME>
272

> <PUBCHEM_COORDINATE_TYPE>
2
5
10

$$$$
