40777990
  -OEChem-12032416173D

 64 67  0     1  0  0  0  0  0999 V2000
   -3.8080    0.8300    0.8896 O   0  0  0  0  0  0  0  0  0  0  0  0
   -5.5605    2.5001   -0.9527 O   0  0  0  0  0  0  0  0  0  0  0  0
   -6.0251   -0.0803   -1.7855 O   0  0  0  0  0  0  0  0  0  0  0  0
   -1.5064    2.6194    1.5646 O   0  0  0  0  0  0  0  0  0  0  0  0
   -2.1420   -1.2890    2.2006 O   0  0  0  0  0  0  0  0  0  0  0  0
    0.3074    1.8513    0.3317 N   0  0  0  0  0  0  0  0  0  0  0  0
    3.1315    1.2784    0.0556 N   0  0  0  0  0  0  0  0  0  0  0  0
   -3.3262   -1.9050    0.3028 N   0  0  0  0  0  0  0  0  0  0  0  0
   -3.4360    1.8271   -0.0894 C   0  0  2  0  0  0  0  0  0  0  0  0
   -4.4242    1.6868   -1.2422 C   0  0  1  0  0  0  0  0  0  0  0  0
   -4.7939    0.2200   -1.1637 C   0  0  1  0  0  0  0  0  0  0  0  0
   -4.8448   -0.0013    0.3388 C   0  0  1  0  0  0  0  0  0  0  0  0
   -1.9954    1.5591   -0.5031 C   0  0  0  0  0  0  0  0  0  0  0  0
   -4.6105   -1.4459    0.7428 C   0  0  0  0  0  0  0  0  0  0  0  0
   -1.0526    2.0598    0.5636 C   0  0  0  0  0  0  0  0  0  0  0  0
    0.8445    1.1864   -0.8578 C   0  0  0  0  0  0  0  0  0  0  0  0
    1.2836    2.3016    1.3205 C   0  0  0  0  0  0  0  0  0  0  0  0
    2.3066    1.5432   -1.1259 C   0  0  0  0  0  0  0  0  0  0  0  0
    2.5044    1.3859    1.3759 C   0  0  0  0  0  0  0  0  0  0  0  0
    4.4837    0.9680   -0.0663 C   0  0  0  0  0  0  0  0  0  0  0  0
   -2.1761   -1.7882    1.0789 C   0  0  0  0  0  0  0  0  0  0  0  0
    5.2236    1.4796   -1.1323 C   0  0  0  0  0  0  0  0  0  0  0  0
    5.0981    0.1452    0.8778 C   0  0  0  0  0  0  0  0  0  0  0  0
   -0.9176   -2.2890    0.4687 C   0  0  0  0  0  0  0  0  0  0  0  0
    6.5780    1.1685   -1.2544 C   0  0  0  0  0  0  0  0  0  0  0  0
    6.4523   -0.1659    0.7559 C   0  0  0  0  0  0  0  0  0  0  0  0
    7.1922    0.3457   -0.3103 C   0  0  0  0  0  0  0  0  0  0  0  0
    0.1211   -2.7399    1.2832 C   0  0  0  0  0  0  0  0  0  0  0  0
   -0.7745   -2.3076   -0.9186 C   0  0  0  0  0  0  0  0  0  0  0  0
    1.3031   -3.2093    0.7103 C   0  0  0  0  0  0  0  0  0  0  0  0
    0.4074   -2.7769   -1.4916 C   0  0  0  0  0  0  0  0  0  0  0  0
    1.4462   -3.2278   -0.6772 C   0  0  0  0  0  0  0  0  0  0  0  0
    2.7099   -3.7298   -1.2902 C   0  0  0  0  0  0  0  0  0  0  0  0
   -3.5467    2.8099    0.3831 H   0  0  0  0  0  0  0  0  0  0  0  0
   -4.0393    1.9865   -2.2211 H   0  0  0  0  0  0  0  0  0  0  0  0
   -4.0080   -0.3755   -1.6411 H   0  0  0  0  0  0  0  0  0  0  0  0
   -5.8047    0.3311    0.7532 H   0  0  0  0  0  0  0  0  0  0  0  0
   -1.7802    2.1160   -1.4216 H   0  0  0  0  0  0  0  0  0  0  0  0
   -1.8175    0.4957   -0.6727 H   0  0  0  0  0  0  0  0  0  0  0  0
   -5.3700   -2.1023    0.3062 H   0  0  0  0  0  0  0  0  0  0  0  0
   -4.6584   -1.5398    1.8333 H   0  0  0  0  0  0  0  0  0  0  0  0
    0.2434    1.4268   -1.7382 H   0  0  0  0  0  0  0  0  0  0  0  0
    0.7560    0.1123   -0.6757 H   0  0  0  0  0  0  0  0  0  0  0  0
    0.8163    2.3645    2.3090 H   0  0  0  0  0  0  0  0  0  0  0  0
    1.5797    3.3182    1.0335 H   0  0  0  0  0  0  0  0  0  0  0  0
    2.6445    0.9480   -1.9832 H   0  0  0  0  0  0  0  0  0  0  0  0
    2.3886    2.6035   -1.3942 H   0  0  0  0  0  0  0  0  0  0  0  0
    3.2066    1.8006    2.1094 H   0  0  0  0  0  0  0  0  0  0  0  0
    2.2034    0.3874    1.7160 H   0  0  0  0  0  0  0  0  0  0  0  0
   -5.2712    3.4278   -0.9902 H   0  0  0  0  0  0  0  0  0  0  0  0
   -5.9600    0.2029   -2.7135 H   0  0  0  0  0  0  0  0  0  0  0  0
   -3.2925   -2.3780   -0.5939 H   0  0  0  0  0  0  0  0  0  0  0  0
    4.7791    2.1352   -1.8760 H   0  0  0  0  0  0  0  0  0  0  0  0
    4.5464   -0.2812    1.7111 H   0  0  0  0  0  0  0  0  0  0  0  0
    7.1553    1.5694   -2.0825 H   0  0  0  0  0  0  0  0  0  0  0  0
    6.9303   -0.8093    1.4889 H   0  0  0  0  0  0  0  0  0  0  0  0
    8.2467    0.1033   -0.4052 H   0  0  0  0  0  0  0  0  0  0  0  0
    0.0267   -2.7364    2.3658 H   0  0  0  0  0  0  0  0  0  0  0  0
   -1.5467   -1.9386   -1.5870 H   0  0  0  0  0  0  0  0  0  0  0  0
    2.1050   -3.5594    1.3549 H   0  0  0  0  0  0  0  0  0  0  0  0
    0.5091   -2.7812   -2.5736 H   0  0  0  0  0  0  0  0  0  0  0  0
    2.6517   -4.8127   -1.4382 H   0  0  0  0  0  0  0  0  0  0  0  0
    2.8974   -3.2531   -2.2583 H   0  0  0  0  0  0  0  0  0  0  0  0
    3.5719   -3.5070   -0.6521 H   0  0  0  0  0  0  0  0  0  0  0  0
  1  9  1  0  0  0  0
  1 12  1  0  0  0  0
  2 10  1  0  0  0  0
  2 50  1  0  0  0  0
  3 11  1  0  0  0  0
  3 51  1  0  0  0  0
  4 15  2  0  0  0  0
  5 21  2  0  0  0  0
  6 15  1  0  0  0  0
  6 16  1  0  0  0  0
  6 17  1  0  0  0  0
  7 18  1  0  0  0  0
  7 19  1  0  0  0  0
  7 20  1  0  0  0  0
  8 14  1  0  0  0  0
  8 21  1  0  0  0  0
  8 52  1  0  0  0  0
  9 10  1  0  0  0  0
  9 13  1  0  0  0  0
  9 34  1  0  0  0  0
 10 11  1  0  0  0  0
 10 35  1  0  0  0  0
 11 12  1  0  0  0  0
 11 36  1  0  0  0  0
 12 14  1  0  0  0  0
 12 37  1  0  0  0  0
 13 15  1  0  0  0  0
 13 38  1  0  0  0  0
 13 39  1  0  0  0  0
 14 40  1  0  0  0  0
 14 41  1  0  0  0  0
 16 18  1  0  0  0  0
 16 42  1  0  0  0  0
 16 43  1  0  0  0  0
 17 19  1  0  0  0  0
 17 44  1  0  0  0  0
 17 45  1  0  0  0  0
 18 46  1  0  0  0  0
 18 47  1  0  0  0  0
 19 48  1  0  0  0  0
 19 49  1  0  0  0  0
 20 22  2  0  0  0  0
 20 23  1  0  0  0  0
 21 24  1  0  0  0  0
 22 25  1  0  0  0  0
 22 53  1  0  0  0  0
 23 26  2  0  0  0  0
 23 54  1  0  0  0  0
 24 28  2  0  0  0  0
 24 29  1  0  0  0  0
 25 27  2  0  0  0  0
 25 55  1  0  0  0  0
 26 27  1  0  0  0  0
 26 56  1  0  0  0  0
 27 57  1  0  0  0  0
 28 30  1  0  0  0  0
 28 58  1  0  0  0  0
 29 31  2  0  0  0  0
 29 59  1  0  0  0  0
 30 32  2  0  0  0  0
 30 60  1  0  0  0  0
 31 32  1  0  0  0  0
 31 61  1  0  0  0  0
 32 33  1  0  0  0  0
 33 62  1  0  0  0  0
 33 63  1  0  0  0  0
 33 64  1  0  0  0  0
M  END
> <PUBCHEM_COMPOUND_CID>
40777990

> <PUBCHEM_CONFORMER_RMSD>
1.4

> <PUBCHEM_CONFORMER_DIVERSEORDER>
1
44
20
27
10
35
38
32
9
33
6
40
7
41
12
29
18
37
31
23
16
43
14
13
42
8
22
4
39
21
25
11
2
28
24
15
30
34
19
26
36
5
17
3

> <PUBCHEM_MMFF94_PARTIAL_CHARGES>
45
1 -0.56
10 0.28
11 0.28
12 0.28
13 0.06
14 0.3
15 0.57
16 0.3
17 0.3
18 0.37
19 0.37
2 -0.68
20 0.1
21 0.54
22 -0.15
23 -0.15
24 0.09
25 -0.15
26 -0.15
27 -0.15
28 -0.15
29 -0.15
3 -0.68
30 -0.15
31 -0.15
32 -0.14
33 0.14
4 -0.57
5 -0.57
50 0.4
51 0.4
52 0.37
53 0.15
54 0.15
55 0.15
56 0.15
57 0.15
58 0.15
59 0.15
6 -0.66
60 0.15
61 0.15
7 -0.84
8 -0.73
9 0.28

> <PUBCHEM_EFFECTIVE_ROTOR_COUNT>
10.2

> <PUBCHEM_PHARMACOPHORE_FEATURES>
13
1 1 acceptor
1 2 acceptor
1 2 donor
1 3 acceptor
1 3 donor
1 4 acceptor
1 5 acceptor
1 7 cation
1 8 donor
5 1 9 10 11 12 rings
6 20 22 23 25 26 27 rings
6 24 28 29 30 31 32 rings
6 6 7 16 17 18 19 rings

> <PUBCHEM_HEAVY_ATOM_COUNT>
33

> <PUBCHEM_ATOM_DEF_STEREO_COUNT>
4

> <PUBCHEM_ATOM_UDEF_STEREO_COUNT>
0

> <PUBCHEM_BOND_DEF_STEREO_COUNT>
0

> <PUBCHEM_BOND_UDEF_STEREO_COUNT>
0

> <PUBCHEM_ISOTOPIC_ATOM_COUNT>
0

> <PUBCHEM_COMPONENT_COUNT>
1

> <PUBCHEM_CACTVS_TAUTO_COUNT>
5

> <PUBCHEM_CONFORMER_ID>
026E390600000001

> <PUBCHEM_MMFF94_ENERGY>
99.6743

> <PUBCHEM_FEATURE_SELFOVERLAP>
65.986

> <PUBCHEM_SHAPE_FINGERPRINT>
10675989 125 17253139831991925533
107951 10 17675925416944475955
11135926 11 18341891836430421357
11513181 2 17844812481719528375
11524674 6 18273212006231062740
11578080 2 17024566942607761591
12156800 1 16554480774162270927
12422481 6 18260261928726314538
13402501 40 18411421721818041898
14251757 5 18192159411199356472
14466204 15 18410295834780205524
15183329 4 17749102296977317504
15968369 153 18059001797319395166
20511986 3 18041274483109013992
20721686 56 18410576149915896695
21344244 246 18341888567854833735
23559900 14 18266174109543456272
3298306 158 18411976966283467114
3383291 50 18201717388280817430
338550 245 18334580157473108670
373842 8 18338797793909973850
4093350 32 17202779085466305295
4112364 45 14562825313441196943
5085150 59 18411410718523422874
508706 21 18337678623520461167
5265222 85 18264497359164773188
57527295 17 18058434440819446173
59755656 215 18342174466315153502
6437827 68 18408042922939125802
7226269 152 18342742939871038032

> <PUBCHEM_SHAPE_MULTIPOLES>
634.83
14.34
4.22
1.62
10.79
3.38
-0.08
-6.65
3.65
-0.26
0.26
-0.4
0.15
0.93

> <PUBCHEM_SHAPE_SELFOVERLAP>
1353.408

> <PUBCHEM_SHAPE_VOLUME>
351

> <PUBCHEM_COORDINATE_TYPE>
2
5
10

$$$$
