71693294
  -OEChem-12032416233D

 58 61  0     1  0  0  0  0  0999 V2000
    3.0749   -1.7375   -1.8102 O   0  0  0  0  0  0  0  0  0  0  0  0
    4.9644   -1.6985    2.5024 O   0  0  0  0  0  0  0  0  0  0  0  0
    5.4610    0.7131   -1.7164 O   0  0  0  0  0  0  0  0  0  0  0  0
   -7.2156    0.5996   -0.1135 O   0  0  0  0  0  0  0  0  0  0  0  0
   -3.1948    0.8535   -1.2323 O   0  0  0  0  0  0  0  0  0  0  0  0
    4.2167   -0.1482    0.0605 N   0  0  0  0  0  0  0  0  0  0  0  0
   -2.8510   -1.0339    0.1272 N   0  0  0  0  0  0  0  0  0  0  0  0
    3.5526   -1.3349    0.6107 C   0  0  1  0  0  0  0  0  0  0  0  0
    2.7225   -2.0823   -0.4661 C   0  0  1  0  0  0  0  0  0  0  0  0
    4.5744   -2.2703    1.2708 C   0  0  0  0  0  0  0  0  0  0  0  0
    1.2398   -1.8028   -0.3079 C   0  0  0  0  0  0  0  0  0  0  0  0
    4.4016    1.0001    0.9350 C   0  0  0  0  0  0  0  0  0  0  0  0
    4.7670   -0.1710   -1.2186 C   0  0  0  0  0  0  0  0  0  0  0  0
    4.4443   -1.4346   -1.9797 C   0  0  0  0  0  0  0  0  0  0  0  0
    3.2864    1.9960    0.7980 C   0  0  0  0  0  0  0  0  0  0  0  0
    0.6557   -0.7307   -0.9827 C   0  0  0  0  0  0  0  0  0  0  0  0
    0.4602   -2.6185    0.5122 C   0  0  0  0  0  0  0  0  0  0  0  0
   -0.7077   -0.4745   -0.8376 C   0  0  0  0  0  0  0  0  0  0  0  0
   -0.9031   -2.3625    0.6575 C   0  0  0  0  0  0  0  0  0  0  0  0
   -1.4871   -1.2904   -0.0175 C   0  0  0  0  0  0  0  0  0  0  0  0
    3.3807    3.0249   -0.1391 C   0  0  0  0  0  0  0  0  0  0  0  0
    2.1555    1.8918    1.6077 C   0  0  0  0  0  0  0  0  0  0  0  0
    2.3441    3.9496   -0.2664 C   0  0  0  0  0  0  0  0  0  0  0  0
    1.1189    2.8163    1.4805 C   0  0  0  0  0  0  0  0  0  0  0  0
    1.2133    3.8454    0.5434 C   0  0  0  0  0  0  0  0  0  0  0  0
   -3.6043   -0.0125   -0.4666 C   0  0  0  0  0  0  0  0  0  0  0  0
   -5.0541   -0.0168   -0.1381 C   0  0  0  0  0  0  0  0  0  0  0  0
   -5.9812    0.8860   -0.6045 C   0  0  0  0  0  0  0  0  0  0  0  0
   -5.7643   -0.9158    0.6927 C   0  0  0  0  0  0  0  0  0  0  0  0
   -7.0750   -0.4982    0.6749 C   0  0  0  0  0  0  0  0  0  0  0  0
   -5.8976    2.0539   -1.4954 C   0  0  0  0  0  0  0  0  0  0  0  0
   -8.2984   -0.9962    1.3190 C   0  0  0  0  0  0  0  0  0  0  0  0
    2.8779   -0.9921    1.4059 H   0  0  0  0  0  0  0  0  0  0  0  0
    2.8652   -3.1671   -0.3819 H   0  0  0  0  0  0  0  0  0  0  0  0
    5.4647   -2.4200    0.6531 H   0  0  0  0  0  0  0  0  0  0  0  0
    4.1272   -3.2447    1.4920 H   0  0  0  0  0  0  0  0  0  0  0  0
    5.3527    1.4875    0.6858 H   0  0  0  0  0  0  0  0  0  0  0  0
    4.4976    0.6766    1.9764 H   0  0  0  0  0  0  0  0  0  0  0  0
    4.6205   -1.2586   -3.0452 H   0  0  0  0  0  0  0  0  0  0  0  0
    5.0803   -2.2642   -1.6565 H   0  0  0  0  0  0  0  0  0  0  0  0
    1.2443   -0.0711   -1.6146 H   0  0  0  0  0  0  0  0  0  0  0  0
    0.9045   -3.4550    1.0451 H   0  0  0  0  0  0  0  0  0  0  0  0
    5.6056   -2.3043    2.9115 H   0  0  0  0  0  0  0  0  0  0  0  0
   -1.0836    0.3760   -1.3884 H   0  0  0  0  0  0  0  0  0  0  0  0
   -1.4982   -3.0061    1.3004 H   0  0  0  0  0  0  0  0  0  0  0  0
    4.2561    3.1202   -0.7756 H   0  0  0  0  0  0  0  0  0  0  0  0
    2.0691    1.0981    2.3446 H   0  0  0  0  0  0  0  0  0  0  0  0
   -3.3359   -1.6819    0.7417 H   0  0  0  0  0  0  0  0  0  0  0  0
    2.4176    4.7508   -0.9959 H   0  0  0  0  0  0  0  0  0  0  0  0
    0.2382    2.7349    2.1107 H   0  0  0  0  0  0  0  0  0  0  0  0
    0.4060    4.5650    0.4442 H   0  0  0  0  0  0  0  0  0  0  0  0
   -5.3896   -1.7668    1.2434 H   0  0  0  0  0  0  0  0  0  0  0  0
   -5.5405    1.7587   -2.4868 H   0  0  0  0  0  0  0  0  0  0  0  0
   -6.8749    2.5309   -1.6217 H   0  0  0  0  0  0  0  0  0  0  0  0
   -5.2119    2.8029   -1.0875 H   0  0  0  0  0  0  0  0  0  0  0  0
   -8.7329   -0.2275    1.9654 H   0  0  0  0  0  0  0  0  0  0  0  0
   -9.0428   -1.2748    0.5668 H   0  0  0  0  0  0  0  0  0  0  0  0
   -8.0908   -1.8779    1.9333 H   0  0  0  0  0  0  0  0  0  0  0  0
  1  9  1  0  0  0  0
  1 14  1  0  0  0  0
  2 10  1  0  0  0  0
  2 43  1  0  0  0  0
  3 13  2  0  0  0  0
  4 28  1  0  0  0  0
  4 30  1  0  0  0  0
  5 26  2  0  0  0  0
  6  8  1  0  0  0  0
  6 12  1  0  0  0  0
  6 13  1  0  0  0  0
  7 20  1  0  0  0  0
  7 26  1  0  0  0  0
  7 48  1  0  0  0  0
  8  9  1  0  0  0  0
  8 10  1  0  0  0  0
  8 33  1  0  0  0  0
  9 11  1  0  0  0  0
  9 34  1  0  0  0  0
 10 35  1  0  0  0  0
 10 36  1  0  0  0  0
 11 16  2  0  0  0  0
 11 17  1  0  0  0  0
 12 15  1  0  0  0  0
 12 37  1  0  0  0  0
 12 38  1  0  0  0  0
 13 14  1  0  0  0  0
 14 39  1  0  0  0  0
 14 40  1  0  0  0  0
 15 21  2  0  0  0  0
 15 22  1  0  0  0  0
 16 18  1  0  0  0  0
 16 41  1  0  0  0  0
 17 19  2  0  0  0  0
 17 42  1  0  0  0  0
 18 20  2  0  0  0  0
 18 44  1  0  0  0  0
 19 20  1  0  0  0  0
 19 45  1  0  0  0  0
 21 23  1  0  0  0  0
 21 46  1  0  0  0  0
 22 24  2  0  0  0  0
 22 47  1  0  0  0  0
 23 25  2  0  0  0  0
 23 49  1  0  0  0  0
 24 25  1  0  0  0  0
 24 50  1  0  0  0  0
 25 51  1  0  0  0  0
 26 27  1  0  0  0  0
 27 28  2  0  0  0  0
 27 29  1  0  0  0  0
 28 31  1  0  0  0  0
 29 30  2  0  0  0  0
 29 52  1  0  0  0  0
 30 32  1  0  0  0  0
 31 53  1  0  0  0  0
 31 54  1  0  0  0  0
 31 55  1  0  0  0  0
 32 56  1  0  0  0  0
 32 57  1  0  0  0  0
 32 58  1  0  0  0  0
M  END
> <PUBCHEM_COMPOUND_CID>
71693294

> <PUBCHEM_CONFORMER_RMSD>
1

> <PUBCHEM_CONFORMER_DIVERSEORDER>
1
53
32
48
81
73
77
67
87
28
75
80
18
82
52
10
42
54
66
70
7
78
58
17
88
27
8
15
57
21
60
89
84
49
86
44
76
85
59
30
13
35
51
83
41
90
39
33
29
65
47
61
5
62
3
69
12
34
68
23
37
40
38
2
31
91
56
55
71
72
63
24
45
43
74
46
22
4
26
79
14
50
9
25
20
36
64
19
11
16
92
6

> <PUBCHEM_MMFF94_PARTIAL_CHARGES>
44
1 -0.56
10 0.28
11 -0.14
12 0.44
13 0.57
14 0.34
15 -0.14
16 -0.15
17 -0.15
18 -0.15
19 -0.15
2 -0.68
20 0.12
21 -0.15
22 -0.15
23 -0.15
24 -0.15
25 -0.15
26 0.72
27 -0.09
28 -0.04
29 -0.15
3 -0.57
30 -0.04
31 0.18
32 0.18
4 -0.28
41 0.15
42 0.15
43 0.4
44 0.15
45 0.15
46 0.15
47 0.15
48 0.37
49 0.15
5 -0.57
50 0.15
51 0.15
52 0.15
6 -0.66
7 -0.55
8 0.3
9 0.42

> <PUBCHEM_EFFECTIVE_ROTOR_COUNT>
8

> <PUBCHEM_PHARMACOPHORE_FEATURES>
11
1 1 acceptor
1 2 acceptor
1 2 donor
1 3 acceptor
1 4 acceptor
1 5 acceptor
1 7 donor
5 4 27 28 29 30 rings
6 1 6 8 9 13 14 rings
6 11 16 17 18 19 20 rings
6 15 21 22 23 24 25 rings

> <PUBCHEM_HEAVY_ATOM_COUNT>
32

> <PUBCHEM_ATOM_DEF_STEREO_COUNT>
2

> <PUBCHEM_ATOM_UDEF_STEREO_COUNT>
0

> <PUBCHEM_BOND_DEF_STEREO_COUNT>
0

> <PUBCHEM_BOND_UDEF_STEREO_COUNT>
0

> <PUBCHEM_ISOTOPIC_ATOM_COUNT>
0

> <PUBCHEM_COMPONENT_COUNT>
1

> <PUBCHEM_CACTVS_TAUTO_COUNT>
4

> <PUBCHEM_CONFORMER_ID>
0445F3EE00000001

> <PUBCHEM_MMFF94_ENERGY>
81.2792

> <PUBCHEM_FEATURE_SELFOVERLAP>
55.825

> <PUBCHEM_SHAPE_FINGERPRINT>
10074138 170 15667847370941631427
10165383 225 17968383441976707606
10675989 125 17987236814354659488
11456790 92 18335135349913929171
11828042 279 18047451595320578741
12166972 35 18041001683343463430
12539745 222 17242998070408183418
12596602 18 15140679181115353925
13150687 139 10302952359090975298
13402501 40 18409725170775734021
13560911 43 18408041814221080497
13782708 43 18187364338096494387
14537116 161 18271534125944385965
14849402 71 18337681901049973493
14931854 50 18341347608492436980
15183329 4 18060419110456428833
15210252 30 18335710459806326036
15238133 3 18334288799945513250
15419008 47 18334862701855147317
15968369 153 17702083803998503649
16067690 210 16081371813189632861
16760501 71 18412262882905227883
1979834 28 17918268736600361870
20554085 129 17168136829077336755
21860390 5 18201998854682996084
23559900 14 18059858393363950231
24893992 56 18336549412204343683
249057 3 17846503629640561734
3411729 13 18338515373739420344
397830 11 18265343983503282667
4066623 53 18128270991230253310
4093350 32 17132122350508932388
484989 97 18263366906333614236
5109719 28 18411145766275305131
513532 50 14405185101483167912
53794403 172 18192436478896751541
57359948 33 11887686065299673859
5776283 40 18045236070495824428
60111433 81 16915361419864010392
6086070 43 18410860996547456330
70251023 43 17628935447418513542

> <PUBCHEM_SHAPE_MULTIPOLES>
619.24
17.7
3.94
1.67
37.89
3.64
-0.02
-0.95
-1.15
-4.85
-0.73
-1.61
-0.23
1.59

> <PUBCHEM_SHAPE_SELFOVERLAP>
1337.881

> <PUBCHEM_SHAPE_VOLUME>
338.2

> <PUBCHEM_COORDINATE_TYPE>
2
5
10

$$$$
