38026427
  -OEChem-12032416273D

 55 56  0     1  0  0  0  0  0999 V2000
    5.6251   -0.0666   -0.7995 F   0  0  0  0  0  0  0  0  0  0  0  0
    0.8705   -3.1802    1.7683 O   0  0  0  0  0  0  0  0  0  0  0  0
   -6.1503    0.7997   -0.0904 O   0  0  0  0  0  0  0  0  0  0  0  0
   -5.5523   -1.3248   -0.6470 O   0  0  0  0  0  0  0  0  0  0  0  0
   -0.3402   -2.1413    0.0569 N   0  0  0  0  0  0  0  0  0  0  0  0
    0.6046    2.8342    0.4010 N   0  0  0  0  0  0  0  0  0  0  0  0
   -1.4227   -0.1118   -0.8839 C   0  0  2  0  0  0  0  0  0  0  0  0
   -2.7966   -0.7052   -0.4798 C   0  0  1  0  0  0  0  0  0  0  0  0
   -2.6680   -1.6697    0.7114 C   0  0  0  0  0  0  0  0  0  0  0  0
   -0.4065   -1.2469   -1.1074 C   0  0  0  0  0  0  0  0  0  0  0  0
   -0.8676    0.9104    0.1160 C   0  0  0  0  0  0  0  0  0  0  0  0
   -1.6155   -2.7419    0.4433 C   0  0  0  0  0  0  0  0  0  0  0  0
   -3.8525    0.3632   -0.1965 C   0  0  0  0  0  0  0  0  0  0  0  0
    0.0777    1.8848   -0.5721 C   0  0  0  0  0  0  0  0  0  0  0  0
    0.8115   -2.4369    0.7902 C   0  0  0  0  0  0  0  0  0  0  0  0
   -5.2464   -0.1811   -0.3451 C   0  0  0  0  0  0  0  0  0  0  0  0
   -0.3704    3.8930    0.6684 C   0  0  0  0  0  0  0  0  0  0  0  0
    1.8641    3.4117   -0.0720 C   0  0  0  0  0  0  0  0  0  0  0  0
    2.0733   -1.8153    0.3731 C   0  0  0  0  0  0  0  0  0  0  0  0
    0.1390    4.8531    1.7300 C   0  0  0  0  0  0  0  0  0  0  0  0
    1.6586    4.2019   -1.3532 C   0  0  0  0  0  0  0  0  0  0  0  0
    2.4508   -0.5810    0.9020 C   0  0  0  0  0  0  0  0  0  0  0  0
    2.8956   -2.4586   -0.5520 C   0  0  0  0  0  0  0  0  0  0  0  0
    3.6504    0.0100    0.5059 C   0  0  0  0  0  0  0  0  0  0  0  0
    4.0952   -1.8675   -0.9483 C   0  0  0  0  0  0  0  0  0  0  0  0
    4.4726   -0.6332   -0.4193 C   0  0  0  0  0  0  0  0  0  0  0  0
   -1.5703    0.3948   -1.8479 H   0  0  0  0  0  0  0  0  0  0  0  0
   -3.1317   -1.3017   -1.3414 H   0  0  0  0  0  0  0  0  0  0  0  0
   -3.6242   -2.1579    0.9278 H   0  0  0  0  0  0  0  0  0  0  0  0
   -2.3867   -1.1090    1.6120 H   0  0  0  0  0  0  0  0  0  0  0  0
   -0.7283   -1.8651   -1.9553 H   0  0  0  0  0  0  0  0  0  0  0  0
    0.5745   -0.8521   -1.3751 H   0  0  0  0  0  0  0  0  0  0  0  0
   -0.3769    0.4146    0.9598 H   0  0  0  0  0  0  0  0  0  0  0  0
   -1.6947    1.4759    0.5498 H   0  0  0  0  0  0  0  0  0  0  0  0
   -1.4956   -3.3714    1.3309 H   0  0  0  0  0  0  0  0  0  0  0  0
   -1.9334   -3.3936   -0.3790 H   0  0  0  0  0  0  0  0  0  0  0  0
   -3.7526    0.7609    0.8194 H   0  0  0  0  0  0  0  0  0  0  0  0
   -3.7513    1.1847   -0.9155 H   0  0  0  0  0  0  0  0  0  0  0  0
   -0.4422    2.3857   -1.3990 H   0  0  0  0  0  0  0  0  0  0  0  0
    0.8972    1.3092   -1.0171 H   0  0  0  0  0  0  0  0  0  0  0  0
   -0.6919    4.4415   -0.2241 H   0  0  0  0  0  0  0  0  0  0  0  0
   -1.2828    3.4517    1.0845 H   0  0  0  0  0  0  0  0  0  0  0  0
    2.3475    4.0292    0.6923 H   0  0  0  0  0  0  0  0  0  0  0  0
    2.5842    2.6098   -0.2679 H   0  0  0  0  0  0  0  0  0  0  0  0
    0.9121    5.5283    1.3511 H   0  0  0  0  0  0  0  0  0  0  0  0
    0.5306    4.3205    2.6036 H   0  0  0  0  0  0  0  0  0  0  0  0
   -0.6857    5.4852    2.0783 H   0  0  0  0  0  0  0  0  0  0  0  0
    1.0666    5.1103   -1.2120 H   0  0  0  0  0  0  0  0  0  0  0  0
    1.2229    3.6145   -2.1662 H   0  0  0  0  0  0  0  0  0  0  0  0
    2.6383    4.5374   -1.7154 H   0  0  0  0  0  0  0  0  0  0  0  0
   -7.0729    0.4784   -0.1782 H   0  0  0  0  0  0  0  0  0  0  0  0
    1.8279   -0.0764    1.6350 H   0  0  0  0  0  0  0  0  0  0  0  0
    2.6108   -3.4203   -0.9706 H   0  0  0  0  0  0  0  0  0  0  0  0
    3.9508    0.9652    0.9257 H   0  0  0  0  0  0  0  0  0  0  0  0
    4.7356   -2.3679   -1.6686 H   0  0  0  0  0  0  0  0  0  0  0  0
  1 26  1  0  0  0  0
  2 15  2  0  0  0  0
  3 16  1  0  0  0  0
  3 51  1  0  0  0  0
  4 16  2  0  0  0  0
  5 10  1  0  0  0  0
  5 12  1  0  0  0  0
  5 15  1  0  0  0  0
  6 14  1  0  0  0  0
  6 17  1  0  0  0  0
  6 18  1  0  0  0  0
  7  8  1  0  0  0  0
  7 10  1  0  0  0  0
  7 11  1  0  0  0  0
  7 27  1  0  0  0  0
  8  9  1  0  0  0  0
  8 13  1  0  0  0  0
  8 28  1  0  0  0  0
  9 12  1  0  0  0  0
  9 29  1  0  0  0  0
  9 30  1  0  0  0  0
 10 31  1  0  0  0  0
 10 32  1  0  0  0  0
 11 14  1  0  0  0  0
 11 33  1  0  0  0  0
 11 34  1  0  0  0  0
 12 35  1  0  0  0  0
 12 36  1  0  0  0  0
 13 16  1  0  0  0  0
 13 37  1  0  0  0  0
 13 38  1  0  0  0  0
 14 39  1  0  0  0  0
 14 40  1  0  0  0  0
 15 19  1  0  0  0  0
 17 20  1  0  0  0  0
 17 41  1  0  0  0  0
 17 42  1  0  0  0  0
 18 21  1  0  0  0  0
 18 43  1  0  0  0  0
 18 44  1  0  0  0  0
 19 22  2  0  0  0  0
 19 23  1  0  0  0  0
 20 45  1  0  0  0  0
 20 46  1  0  0  0  0
 20 47  1  0  0  0  0
 21 48  1  0  0  0  0
 21 49  1  0  0  0  0
 21 50  1  0  0  0  0
 22 24  1  0  0  0  0
 22 52  1  0  0  0  0
 23 25  2  0  0  0  0
 23 53  1  0  0  0  0
 24 26  2  0  0  0  0
 24 54  1  0  0  0  0
 25 26  1  0  0  0  0
 25 55  1  0  0  0  0
M  END
> <PUBCHEM_COMPOUND_CID>
38026427

> <PUBCHEM_CONFORMER_RMSD>
1

> <PUBCHEM_CONFORMER_DIVERSEORDER>
1
167
69
97
44
8
113
125
68
88
172
152
171
83
31
106
15
92
173
140
109
99
169
129
63
35
86
157
40
72
12
80
20
110
39
56
175
93
166
138
28
77
65
25
34
135
148
36
94
118
182
96
154
105
47
74
51
158
5
136
89
160
37
45
147
155
29
64
21
156
127
100
90
41
119
176
123
133
126
168
163
115
162
142
70
87
104
22
178
66
151
3
30
132
153
179
4
57
71
67
33
82
26
177
121
149
58
98
114
50
144
10
116
18
32
139
81
165
19
60
91
76
120
59
122
130
181
150
7
131
102
84
75
55
128
27
174
180
38
107
52
79
124
73
23
108
24
146
42
78
103
101
53
13
43
145
95
9
11
159
143
161
48
46
141
6
111
54
61
49
17
2
112
137
85
16
134
117
170
62
14
164

> <PUBCHEM_MMFF94_PARTIAL_CHARGES>
25
1 -0.19
10 0.3
12 0.3
13 0.06
14 0.27
15 0.54
16 0.66
17 0.27
18 0.27
19 0.09
2 -0.57
22 -0.15
23 -0.15
24 -0.15
25 -0.15
26 0.19
3 -0.65
4 -0.57
5 -0.66
51 0.5
52 0.15
53 0.15
54 0.15
55 0.15
6 -0.81

> <PUBCHEM_EFFECTIVE_ROTOR_COUNT>
10.2

> <PUBCHEM_PHARMACOPHORE_FEATURES>
7
1 2 acceptor
1 3 acceptor
1 4 acceptor
1 6 cation
3 3 4 16 anion
6 19 22 23 24 25 26 rings
6 5 7 8 9 10 12 rings

> <PUBCHEM_HEAVY_ATOM_COUNT>
26

> <PUBCHEM_ATOM_DEF_STEREO_COUNT>
2

> <PUBCHEM_ATOM_UDEF_STEREO_COUNT>
0

> <PUBCHEM_BOND_DEF_STEREO_COUNT>
0

> <PUBCHEM_BOND_UDEF_STEREO_COUNT>
0

> <PUBCHEM_ISOTOPIC_ATOM_COUNT>
0

> <PUBCHEM_COMPONENT_COUNT>
1

> <PUBCHEM_CACTVS_TAUTO_COUNT>
1

> <PUBCHEM_CONFORMER_ID>
02443CBB00000001

> <PUBCHEM_MMFF94_ENERGY>
56.6783

> <PUBCHEM_FEATURE_SELFOVERLAP>
35.578

> <PUBCHEM_SHAPE_FINGERPRINT>
10006869 2 18051120394427629263
10498660 4 18192428576456931446
10871710 139 18194977240031168468
1100329 8 18336827592898569843
11049842 53 17829892388146238620
11112241 14 17199931569436207888
11578080 2 12038032185242868974
11646440 116 18410863156741348082
12011746 2 18409729543368926495
12160290 23 17405959900346719445
12553582 1 18339062831376202150
12788726 201 18266737987293345616
13140716 1 18190731136408913403
13533116 47 18196368350522002687
13899415 154 18409738339556556359
14787075 74 18259984860075014783
14790565 3 18336272245164200909
14849402 71 18337120025228688457
14955137 171 18343306968077431351
15081414 286 18411145697059981747
15210252 30 18334014990984389316
15230672 131 17544192045176948700
15927050 60 17907862051910685358
17492 54 18115041796089572268
18681886 176 18201991158281442863
18785283 64 18188492509708545197
20567600 299 18055067933108237408
20642791 178 18044940314398971412
20642791 35 18411699924177437456
21285901 2 17845378747762092534
221357 26 18200035024032264774
23558518 356 17756981573190124883
23559900 14 18341603884816653275
24771293 8 18200858669256218248
3298306 158 17907023124776465340
3680242 22 18260258629980298826
469060 322 18263928735327393648
532947 4 18267861872823771689
53794403 172 18116716420422052877
6443956 14 18411134757567509604
70251023 43 17977668602329714883

> <PUBCHEM_SHAPE_MULTIPOLES>
500.22
9.2
5.65
1.21
7.45
8.21
-0.19
-3.99
2.48
-2.64
-1.65
-0.42
0.35
-0.22

> <PUBCHEM_SHAPE_SELFOVERLAP>
1025.048

> <PUBCHEM_SHAPE_VOLUME>
289.4

> <PUBCHEM_COORDINATE_TYPE>
2
5
10

$$$$
