11912436
  -OEChem-12032416223D

 56 60  0     1  0  0  0  0  0999 V2000
   -8.1122    0.3694    0.8268 F   0  0  0  0  0  0  0  0  0  0  0  0
   -6.1843   -0.0372    1.7721 F   0  0  0  0  0  0  0  0  0  0  0  0
   -6.7281    2.0225    1.1838 F   0  0  0  0  0  0  0  0  0  0  0  0
   -0.8043   -2.0804    1.2534 O   0  0  0  0  0  0  0  0  0  0  0  0
    3.1634    2.0837    0.6329 O   0  0  0  0  0  0  0  0  0  0  0  0
    1.4159    3.3723   -1.5892 O   0  0  0  0  0  0  0  0  0  0  0  0
   -6.2556    0.4944   -0.4511 O   0  0  0  0  0  0  0  0  0  0  0  0
    3.9636   -0.5662    0.9051 N   0  0  2  0  0  0  0  0  0  0  0  0
    1.2216   -1.9841    0.1026 N   0  0  0  0  0  0  0  0  0  0  0  0
    3.3859   -3.0031    1.0226 C   0  0  1  0  0  0  0  0  0  0  0  0
    3.4027   -1.8728   -1.1493 C   0  0  2  0  0  0  0  0  0  0  0  0
    3.7516   -3.1810   -0.4450 C   0  0  0  0  0  0  0  0  0  0  0  0
    4.1804   -1.8261    1.6271 C   0  0  0  0  0  0  0  0  0  0  0  0
    4.2268   -0.7191   -0.5336 C   0  0  0  0  0  0  0  0  0  0  0  0
    1.8678   -2.8086    1.1339 C   0  0  0  0  0  0  0  0  0  0  0  0
    1.9176   -1.5812   -1.0395 C   0  0  0  0  0  0  0  0  0  0  0  0
    4.7724    0.5095    1.4735 C   0  0  0  0  0  0  0  0  0  0  0  0
    1.2788   -0.9253   -2.0212 C   0  0  0  0  0  0  0  0  0  0  0  0
   -0.1498   -1.7126    0.2761 C   0  0  0  0  0  0  0  0  0  0  0  0
   -0.8308   -0.9456   -0.8255 C   0  0  0  0  0  0  0  0  0  0  0  0
   -0.1145   -0.5997   -1.9057 C   0  0  0  0  0  0  0  0  0  0  0  0
    4.4704    1.8239    0.8070 C   0  0  0  0  0  0  0  0  0  0  0  0
   -2.2519   -0.5688   -0.7280 C   0  0  0  0  0  0  0  0  0  0  0  0
    5.2706    2.8095    0.3424 C   0  0  0  0  0  0  0  0  0  0  0  0
    3.1171    3.2979    0.0250 C   0  0  0  0  0  0  0  0  0  0  0  0
    4.3872    3.7865   -0.1755 C   0  0  0  0  0  0  0  0  0  0  0  0
   -3.2378   -1.4251   -1.2197 C   0  0  0  0  0  0  0  0  0  0  0  0
   -2.6131    0.6456   -0.1430 C   0  0  0  0  0  0  0  0  0  0  0  0
    1.7785    3.8210   -0.2818 C   0  0  0  0  0  0  0  0  0  0  0  0
   -4.5828   -1.0676   -1.1268 C   0  0  0  0  0  0  0  0  0  0  0  0
   -3.9582    1.0031   -0.0500 C   0  0  0  0  0  0  0  0  0  0  0  0
   -4.9432    0.1464   -0.5418 C   0  0  0  0  0  0  0  0  0  0  0  0
   -6.8057    0.7188    0.8422 C   0  0  0  0  0  0  0  0  0  0  0  0
    3.6592   -3.9073    1.5808 H   0  0  0  0  0  0  0  0  0  0  0  0
    3.6826   -1.9710   -2.2065 H   0  0  0  0  0  0  0  0  0  0  0  0
    3.2039   -4.0238   -0.8848 H   0  0  0  0  0  0  0  0  0  0  0  0
    4.8209   -3.4013   -0.5506 H   0  0  0  0  0  0  0  0  0  0  0  0
    3.8821   -1.7032    2.6757 H   0  0  0  0  0  0  0  0  0  0  0  0
    5.2480   -2.0856    1.6267 H   0  0  0  0  0  0  0  0  0  0  0  0
    5.2942   -0.9142   -0.7076 H   0  0  0  0  0  0  0  0  0  0  0  0
    3.9782    0.1936   -1.0877 H   0  0  0  0  0  0  0  0  0  0  0  0
    1.3843   -3.7931    1.0700 H   0  0  0  0  0  0  0  0  0  0  0  0
    1.6016   -2.4063    2.1196 H   0  0  0  0  0  0  0  0  0  0  0  0
    5.8447    0.2907    1.3884 H   0  0  0  0  0  0  0  0  0  0  0  0
    4.5457    0.6244    2.5410 H   0  0  0  0  0  0  0  0  0  0  0  0
    1.7973   -0.5951   -2.9152 H   0  0  0  0  0  0  0  0  0  0  0  0
   -0.5566   -0.0441   -2.7276 H   0  0  0  0  0  0  0  0  0  0  0  0
    6.3503    2.8430    0.3621 H   0  0  0  0  0  0  0  0  0  0  0  0
    4.6466    4.7284   -0.6373 H   0  0  0  0  0  0  0  0  0  0  0  0
   -2.9729   -2.3752   -1.6773 H   0  0  0  0  0  0  0  0  0  0  0  0
   -1.8567    1.3243    0.2440 H   0  0  0  0  0  0  0  0  0  0  0  0
    1.0332    3.4563    0.4318 H   0  0  0  0  0  0  0  0  0  0  0  0
    1.7704    4.9151   -0.2744 H   0  0  0  0  0  0  0  0  0  0  0  0
   -5.3456   -1.7392   -1.5111 H   0  0  0  0  0  0  0  0  0  0  0  0
   -4.2243    1.9546    0.4019 H   0  0  0  0  0  0  0  0  0  0  0  0
    0.5265    3.7210   -1.7713 H   0  0  0  0  0  0  0  0  0  0  0  0
  1 33  1  0  0  0  0
  2 33  1  0  0  0  0
  3 33  1  0  0  0  0
  4 19  2  0  0  0  0
  5 22  1  0  0  0  0
  5 25  1  0  0  0  0
  6 29  1  0  0  0  0
  6 56  1  0  0  0  0
  7 32  1  0  0  0  0
  7 33  1  0  0  0  0
  8 13  1  0  0  0  0
  8 14  1  0  0  0  0
  8 17  1  0  0  0  0
  9 15  1  0  0  0  0
  9 16  1  0  0  0  0
  9 19  1  0  0  0  0
 10 12  1  0  0  0  0
 10 13  1  0  0  0  0
 10 15  1  0  0  0  0
 10 34  1  0  0  0  0
 11 12  1  0  0  0  0
 11 14  1  0  0  0  0
 11 16  1  0  0  0  0
 11 35  1  0  0  0  0
 12 36  1  0  0  0  0
 12 37  1  0  0  0  0
 13 38  1  0  0  0  0
 13 39  1  0  0  0  0
 14 40  1  0  0  0  0
 14 41  1  0  0  0  0
 15 42  1  0  0  0  0
 15 43  1  0  0  0  0
 16 18  2  0  0  0  0
 17 22  1  0  0  0  0
 17 44  1  0  0  0  0
 17 45  1  0  0  0  0
 18 21  1  0  0  0  0
 18 46  1  0  0  0  0
 19 20  1  0  0  0  0
 20 21  2  0  0  0  0
 20 23  1  0  0  0  0
 21 47  1  0  0  0  0
 22 24  2  0  0  0  0
 23 27  2  0  0  0  0
 23 28  1  0  0  0  0
 24 26  1  0  0  0  0
 24 48  1  0  0  0  0
 25 26  2  0  0  0  0
 25 29  1  0  0  0  0
 26 49  1  0  0  0  0
 27 30  1  0  0  0  0
 27 50  1  0  0  0  0
 28 31  2  0  0  0  0
 28 51  1  0  0  0  0
 29 52  1  0  0  0  0
 29 53  1  0  0  0  0
 30 32  2  0  0  0  0
 30 54  1  0  0  0  0
 31 32  1  0  0  0  0
 31 55  1  0  0  0  0
M  END
> <PUBCHEM_COMPOUND_CID>
11912436

> <PUBCHEM_CONFORMER_RMSD>
1

> <PUBCHEM_CONFORMER_DIVERSEORDER>
1
5
8
11
3
17
6
12
16
10
9
15
7
14
18
2
4
13

> <PUBCHEM_MMFF94_PARTIAL_CHARGES>
40
1 -0.34
11 0.14
13 0.27
14 0.27
15 0.3
16 -0.03
17 0.45
18 -0.15
19 0.62
2 -0.34
20 -0.01
21 -0.15
22 -0.04
23 0.03
24 -0.15
25 -0.04
26 -0.15
27 -0.15
28 -0.15
29 0.46
3 -0.34
30 -0.15
31 -0.15
32 0.08
33 1.3
4 -0.57
46 0.15
47 0.15
48 0.15
49 0.15
5 -0.28
50 0.15
51 0.15
54 0.15
55 0.15
56 0.4
6 -0.68
7 -0.36
8 -0.81
9 -0.47

> <PUBCHEM_EFFECTIVE_ROTOR_COUNT>
7

> <PUBCHEM_PHARMACOPHORE_FEATURES>
11
1 4 acceptor
1 5 acceptor
1 6 acceptor
1 6 donor
1 7 acceptor
1 8 cation
5 5 22 24 25 26 rings
6 23 27 28 30 31 32 rings
6 8 10 11 12 13 14 rings
6 9 10 11 12 15 16 rings
6 9 16 18 19 20 21 rings

> <PUBCHEM_HEAVY_ATOM_COUNT>
33

> <PUBCHEM_ATOM_DEF_STEREO_COUNT>
2

> <PUBCHEM_ATOM_UDEF_STEREO_COUNT>
0

> <PUBCHEM_BOND_DEF_STEREO_COUNT>
0

> <PUBCHEM_BOND_UDEF_STEREO_COUNT>
0

> <PUBCHEM_ISOTOPIC_ATOM_COUNT>
0

> <PUBCHEM_COMPONENT_COUNT>
1

> <PUBCHEM_CACTVS_TAUTO_COUNT>
1

> <PUBCHEM_CONFORMER_ID>
00B5C4F400000001

> <PUBCHEM_MMFF94_ENERGY>
81.4727

> <PUBCHEM_FEATURE_SELFOVERLAP>
57.376

> <PUBCHEM_SHAPE_FINGERPRINT>
10165383 225 17967821557370555870
10190108 129 18337377246814852946
10673678 19 17703792547914387787
10675989 125 18271243949496581808
11578080 2 18263655111297828763
12422481 6 18411131416642363293
12633257 1 17824514548721234978
12925494 130 18266454498267246809
14114211 80 18046347706915834580
14251764 75 18192996147933086128
14849402 71 18335697244217939858
15475509 84 17829311502999309986
15840311 113 18340772555579546933
16760501 71 18409730681650953761
21033648 29 17385713674312068951
21298829 104 18200589323663257896
21475661 188 18337670940377226204
21641784 216 15338846339491180259
21716022 299 14475305240021255252
21792934 111 18041000597677132213
21859007 373 17677595481504199245
21860390 5 18413102875571730414
22122407 14 18341062826348677873
23559900 14 17346321457817285646
23569914 152 10733388964488301641
25147074 1 18059283362505893135
3411729 13 18342177799304863588
3493558 16 18413670227122896393
373842 8 18339640023938075441
394071 54 18411135835651345093
397830 11 18261962942176690827
4093350 32 17489877028770446812
474 4 18338785840746418078
5081480 168 17770819876967150902
5104073 3 18335987540962849419
513532 50 17989213663874015404
57816373 69 18193835947152331103
9896288 288 16889501078567767300

> <PUBCHEM_SHAPE_MULTIPOLES>
623.86
15.75
4.52
1.61
32.42
3.23
0.1
7.66
-6.45
-8.23
-0.08
0.1
-0.51
-1.23

> <PUBCHEM_SHAPE_SELFOVERLAP>
1373.406

> <PUBCHEM_SHAPE_VOLUME>
336.6

> <PUBCHEM_COORDINATE_TYPE>
2
5
10

$$$$
