7144180
  -OEChem-12032416393D

 60 64  0     1  0  0  0  0  0999 V2000
   -6.6394   -1.5431    0.8724 F   0  0  0  0  0  0  0  0  0  0  0  0
   -4.9889   -0.3636    1.6851 F   0  0  0  0  0  0  0  0  0  0  0  0
   -6.6328    0.6233    0.5862 F   0  0  0  0  0  0  0  0  0  0  0  0
    4.3254   -1.3475    0.8979 O   0  0  0  0  0  0  0  0  0  0  0  0
    3.6682    3.2126   -1.6553 O   0  0  0  0  0  0  0  0  0  0  0  0
   -5.1455   -0.6681   -0.5762 O   0  0  0  0  0  0  0  0  0  0  0  0
    2.3604   -0.3298    1.6048 N   0  0  0  0  0  0  0  0  0  0  0  0
    2.0926    2.2826   -0.1927 N   0  0  0  0  0  0  0  0  0  0  0  0
    2.5665    2.0483    2.3157 C   0  0  1  0  0  0  0  0  0  0  0  0
    0.4393    1.2387    1.3878 C   0  0  2  0  0  0  0  0  0  0  0  0
    1.0554    2.1333    2.4622 C   0  0  0  0  0  0  0  0  0  0  0  0
    3.0522    0.6008    2.4966 C   0  0  0  0  0  0  0  0  0  0  0  0
    0.8958   -0.2186    1.6097 C   0  0  0  0  0  0  0  0  0  0  0  0
    2.9550    2.6151    0.9497 C   0  0  0  0  0  0  0  0  0  0  0  0
    0.8194    1.7037   -0.0206 C   0  0  0  0  0  0  0  0  0  0  0  0
    2.3094   -2.2397    0.0493 C   0  0  0  0  0  0  0  0  0  0  0  0
    3.0939   -1.2736    0.8863 C   0  0  0  0  0  0  0  0  0  0  0  0
    3.1145   -2.6263   -1.1934 C   0  0  0  0  0  0  0  0  0  0  0  0
    1.9386   -3.4693    0.8814 C   0  0  0  0  0  0  0  0  0  0  0  0
   -0.0051    1.5531   -1.0899 C   0  0  0  0  0  0  0  0  0  0  0  0
    2.3923   -3.6811   -2.0275 C   0  0  0  0  0  0  0  0  0  0  0  0
    1.2196   -4.5223    0.0423 C   0  0  0  0  0  0  0  0  0  0  0  0
    2.5722    2.6900   -1.4503 C   0  0  0  0  0  0  0  0  0  0  0  0
    2.0277   -4.9057   -1.1937 C   0  0  0  0  0  0  0  0  0  0  0  0
    0.4569    1.9586   -2.4036 C   0  0  0  0  0  0  0  0  0  0  0  0
    1.6668    2.4812   -2.6027 C   0  0  0  0  0  0  0  0  0  0  0  0
   -1.3573    0.9681   -0.9551 C   0  0  0  0  0  0  0  0  0  0  0  0
   -1.5303   -0.4076   -1.0709 C   0  0  0  0  0  0  0  0  0  0  0  0
   -2.4473    1.7988   -0.7130 C   0  0  0  0  0  0  0  0  0  0  0  0
   -2.8056   -0.9581   -0.9435 C   0  0  0  0  0  0  0  0  0  0  0  0
   -3.7226    1.2483   -0.5855 C   0  0  0  0  0  0  0  0  0  0  0  0
   -3.9017   -0.1303   -0.7007 C   0  0  0  0  0  0  0  0  0  0  0  0
   -5.8456   -0.4715    0.6474 C   0  0  0  0  0  0  0  0  0  0  0  0
    3.0464    2.6574    3.0918 H   0  0  0  0  0  0  0  0  0  0  0  0
   -0.6464    1.2819    1.5296 H   0  0  0  0  0  0  0  0  0  0  0  0
    0.7114    3.1691    2.3499 H   0  0  0  0  0  0  0  0  0  0  0  0
    0.7487    1.8001    3.4612 H   0  0  0  0  0  0  0  0  0  0  0  0
    4.1363    0.5442    2.3516 H   0  0  0  0  0  0  0  0  0  0  0  0
    2.8492    0.2655    3.5212 H   0  0  0  0  0  0  0  0  0  0  0  0
    0.5747   -0.5453    2.6080 H   0  0  0  0  0  0  0  0  0  0  0  0
    0.3937   -0.8880    0.9194 H   0  0  0  0  0  0  0  0  0  0  0  0
    2.9474    3.7122    1.0130 H   0  0  0  0  0  0  0  0  0  0  0  0
    3.9876    2.3376    0.7018 H   0  0  0  0  0  0  0  0  0  0  0  0
    1.4111   -1.7753   -0.3565 H   0  0  0  0  0  0  0  0  0  0  0  0
    4.0973   -3.0252   -0.9098 H   0  0  0  0  0  0  0  0  0  0  0  0
    3.3063   -1.7391   -1.8098 H   0  0  0  0  0  0  0  0  0  0  0  0
    1.3000   -3.1813    1.7248 H   0  0  0  0  0  0  0  0  0  0  0  0
    2.8434   -3.9113    1.3192 H   0  0  0  0  0  0  0  0  0  0  0  0
    3.0262   -3.9835   -2.8688 H   0  0  0  0  0  0  0  0  0  0  0  0
    1.4805   -3.2462   -2.4554 H   0  0  0  0  0  0  0  0  0  0  0  0
    0.2410   -4.1347   -0.2670 H   0  0  0  0  0  0  0  0  0  0  0  0
    1.0319   -5.4138    0.6513 H   0  0  0  0  0  0  0  0  0  0  0  0
    1.4539   -5.6108   -1.8053 H   0  0  0  0  0  0  0  0  0  0  0  0
    2.9444   -5.4227   -0.8843 H   0  0  0  0  0  0  0  0  0  0  0  0
   -0.2089    1.8155   -3.2496 H   0  0  0  0  0  0  0  0  0  0  0  0
    2.0058    2.7760   -3.5886 H   0  0  0  0  0  0  0  0  0  0  0  0
   -0.6902   -1.0655   -1.2743 H   0  0  0  0  0  0  0  0  0  0  0  0
   -2.3225    2.8749   -0.6217 H   0  0  0  0  0  0  0  0  0  0  0  0
   -2.9392   -2.0325   -1.0368 H   0  0  0  0  0  0  0  0  0  0  0  0
   -4.5683    1.9053   -0.4031 H   0  0  0  0  0  0  0  0  0  0  0  0
  1 33  1  0  0  0  0
  2 33  1  0  0  0  0
  3 33  1  0  0  0  0
  4 17  2  0  0  0  0
  5 23  2  0  0  0  0
  6 32  1  0  0  0  0
  6 33  1  0  0  0  0
  7 12  1  0  0  0  0
  7 13  1  0  0  0  0
  7 17  1  0  0  0  0
  8 14  1  0  0  0  0
  8 15  1  0  0  0  0
  8 23  1  0  0  0  0
  9 11  1  0  0  0  0
  9 12  1  0  0  0  0
  9 14  1  0  0  0  0
  9 34  1  0  0  0  0
 10 11  1  0  0  0  0
 10 13  1  0  0  0  0
 10 15  1  0  0  0  0
 10 35  1  0  0  0  0
 11 36  1  0  0  0  0
 11 37  1  0  0  0  0
 12 38  1  0  0  0  0
 12 39  1  0  0  0  0
 13 40  1  0  0  0  0
 13 41  1  0  0  0  0
 14 42  1  0  0  0  0
 14 43  1  0  0  0  0
 15 20  2  0  0  0  0
 16 17  1  0  0  0  0
 16 18  1  0  0  0  0
 16 19  1  0  0  0  0
 16 44  1  0  0  0  0
 18 21  1  0  0  0  0
 18 45  1  0  0  0  0
 18 46  1  0  0  0  0
 19 22  1  0  0  0  0
 19 47  1  0  0  0  0
 19 48  1  0  0  0  0
 20 25  1  0  0  0  0
 20 27  1  0  0  0  0
 21 24  1  0  0  0  0
 21 49  1  0  0  0  0
 21 50  1  0  0  0  0
 22 24  1  0  0  0  0
 22 51  1  0  0  0  0
 22 52  1  0  0  0  0
 23 26  1  0  0  0  0
 24 53  1  0  0  0  0
 24 54  1  0  0  0  0
 25 26  2  0  0  0  0
 25 55  1  0  0  0  0
 26 56  1  0  0  0  0
 27 28  2  0  0  0  0
 27 29  1  0  0  0  0
 28 30  1  0  0  0  0
 28 57  1  0  0  0  0
 29 31  2  0  0  0  0
 29 58  1  0  0  0  0
 30 32  2  0  0  0  0
 30 59  1  0  0  0  0
 31 32  1  0  0  0  0
 31 60  1  0  0  0  0
M  END
> <PUBCHEM_COMPOUND_CID>
7144180

> <PUBCHEM_CONFORMER_RMSD>
1

> <PUBCHEM_CONFORMER_DIVERSEORDER>
1
4
7
3
6
5
8
2

> <PUBCHEM_MMFF94_PARTIAL_CHARGES>
32
1 -0.34
10 0.14
12 0.3
13 0.3
14 0.3
15 -0.03
16 0.06
17 0.57
2 -0.34
20 -0.03
23 0.62
25 -0.15
26 -0.14
27 0.03
28 -0.15
29 -0.15
3 -0.34
30 -0.15
31 -0.15
32 0.08
33 1.3
4 -0.57
5 -0.57
55 0.15
56 0.15
57 0.15
58 0.15
59 0.15
6 -0.36
60 0.15
7 -0.66
8 -0.47

> <PUBCHEM_EFFECTIVE_ROTOR_COUNT>
7.2

> <PUBCHEM_PHARMACOPHORE_FEATURES>
8
1 4 acceptor
1 5 acceptor
1 6 acceptor
6 16 18 19 21 22 24 rings
6 27 28 29 30 31 32 rings
6 7 9 10 11 12 13 rings
6 8 15 20 23 25 26 rings
6 8 9 10 11 14 15 rings

> <PUBCHEM_HEAVY_ATOM_COUNT>
33

> <PUBCHEM_ATOM_DEF_STEREO_COUNT>
2

> <PUBCHEM_ATOM_UDEF_STEREO_COUNT>
0

> <PUBCHEM_BOND_DEF_STEREO_COUNT>
0

> <PUBCHEM_BOND_UDEF_STEREO_COUNT>
0

> <PUBCHEM_ISOTOPIC_ATOM_COUNT>
0

> <PUBCHEM_COMPONENT_COUNT>
1

> <PUBCHEM_CACTVS_TAUTO_COUNT>
1

> <PUBCHEM_CONFORMER_ID>
006D02F400000001

> <PUBCHEM_MMFF94_ENERGY>
90.8637

> <PUBCHEM_FEATURE_SELFOVERLAP>
42.163

> <PUBCHEM_SHAPE_FINGERPRINT>
10064457 181 17910365593180730064
11399939 17 17203032080467865711
11421498 54 18342751714410531560
12128747 34 18055900010282070121
12156800 1 15120167649849499690
12422481 6 18047435007745762496
12778500 126 18130793317880109513
13533116 47 18343867728130294579
13583140 156 17772722014366146729
14863182 85 18339353167065974088
15324884 4 17613385114822947648
15392192 104 18117008878600765275
15664445 248 18115025178433446270
17492 54 17822025207219797324
17974551 9 17127304118720728241
1813 80 18115875083488685717
19301679 30 18187086187798503835
1979834 28 18336538408798285545
20578428 11 16516268343525242335
20600515 1 17622735214805826548
20764821 26 18190175883206484175
20771845 140 18266179607053485433
20775530 9 18053655876552433494
21716022 299 18057628502673833748
21792965 302 17979086989978718654
23466295 7 17189823346477554910
23559900 14 18261112903750299983
239999 70 17676201403248478385
25222932 49 17273681260593178599
3117164 225 18057328276191993521
3737641 26 17985825934925094970
44317340 157 8142080997222810739
460360 51 18058454214532274681
46194498 28 18260269646249477359
469060 322 17903651687587681650
5081480 168 17679331631427622129
57527585 103 16544118598767465086
6287921 2 18410002247763793455
6823239 73 17749106682165144641
86090 222 18259991461914932003

> <PUBCHEM_SHAPE_MULTIPOLES>
629.73
9.75
5.35
2.53
23
5.82
0.03
3.52
3.07
-7.42
-2.08
-1.87
-1.59
1.04

> <PUBCHEM_SHAPE_SELFOVERLAP>
1372.062

> <PUBCHEM_SHAPE_VOLUME>
342

> <PUBCHEM_COORDINATE_TYPE>
2
5
10

$$$$
