26744250
  -OEChem-12032416293D

 48 51  0     1  0  0  0  0  0999 V2000
   -0.6603   -1.0575    1.8821 O   0  0  0  0  0  0  0  0  0  0  0  0
   -5.8054    0.3001   -0.6878 O   0  0  0  0  0  0  0  0  0  0  0  0
   -2.3386    1.0929   -0.3356 N   0  0  1  0  0  0  0  0  0  0  0  0
   -0.9044   -1.7020   -0.2490 N   0  0  0  0  0  0  0  0  0  0  0  0
    0.3346   -2.0153    1.6484 N   0  0  0  0  0  0  0  0  0  0  0  0
    4.0519    1.0975   -0.1501 N   0  0  0  0  0  0  0  0  0  0  0  0
    0.9894   -3.3870   -0.3489 C   0  0  0  0  0  0  0  0  0  0  0  0
   -2.4907    0.0563    0.7054 C   0  0  1  0  0  0  0  0  0  0  0  0
    2.4771   -3.1924   -0.3781 C   0  0  0  0  0  0  0  0  0  0  0  0
    1.6700   -2.9970   -1.6282 C   0  0  0  0  0  0  0  0  0  0  0  0
   -3.8476   -0.6072    0.4052 C   0  0  0  0  0  0  0  0  0  0  0  0
   -4.4025    0.1539   -0.7923 C   0  0  2  0  0  0  0  0  0  0  0  0
   -3.6903    1.4915   -0.7235 C   0  0  0  0  0  0  0  0  0  0  0  0
    0.1259   -2.3471    0.3708 C   0  0  0  0  0  0  0  0  0  0  0  0
   -1.3444   -0.9331    0.7147 C   0  0  0  0  0  0  0  0  0  0  0  0
   -1.5352    2.2286    0.0977 C   0  0  0  0  0  0  0  0  0  0  0  0
   -0.0609    1.9298    0.0326 C   0  0  0  0  0  0  0  0  0  0  0  0
    0.7205    2.0189    1.1846 C   0  0  0  0  0  0  0  0  0  0  0  0
    0.5238    1.5647   -1.1803 C   0  0  0  0  0  0  0  0  0  0  0  0
    2.0864    1.7423    1.1241 C   0  0  0  0  0  0  0  0  0  0  0  0
    1.8896    1.2884   -1.2408 C   0  0  0  0  0  0  0  0  0  0  0  0
    2.6710    1.3771   -0.0886 C   0  0  0  0  0  0  0  0  0  0  0  0
    4.8726    1.1867    1.0414 C   0  0  0  0  0  0  0  0  0  0  0  0
    4.6674    0.7097   -1.4038 C   0  0  0  0  0  0  0  0  0  0  0  0
    0.6264   -4.4061   -0.2762 H   0  0  0  0  0  0  0  0  0  0  0  0
   -2.5676    0.5152    1.7013 H   0  0  0  0  0  0  0  0  0  0  0  0
    3.1024   -4.0748   -0.3152 H   0  0  0  0  0  0  0  0  0  0  0  0
    2.9054   -2.3102    0.0824 H   0  0  0  0  0  0  0  0  0  0  0  0
    1.5560   -1.9854   -1.9983 H   0  0  0  0  0  0  0  0  0  0  0  0
    1.7537   -3.7481   -2.4043 H   0  0  0  0  0  0  0  0  0  0  0  0
   -3.7708   -1.6758    0.1738 H   0  0  0  0  0  0  0  0  0  0  0  0
   -4.5154   -0.5120    1.2708 H   0  0  0  0  0  0  0  0  0  0  0  0
   -4.1634   -0.3667   -1.7277 H   0  0  0  0  0  0  0  0  0  0  0  0
   -3.7105    2.0025   -1.6918 H   0  0  0  0  0  0  0  0  0  0  0  0
   -4.1644    2.1490    0.0173 H   0  0  0  0  0  0  0  0  0  0  0  0
   -1.8317    2.5795    1.0949 H   0  0  0  0  0  0  0  0  0  0  0  0
   -1.7015    3.0816   -0.5753 H   0  0  0  0  0  0  0  0  0  0  0  0
   -6.1908   -0.5923   -0.6617 H   0  0  0  0  0  0  0  0  0  0  0  0
    0.2775    2.3002    2.1361 H   0  0  0  0  0  0  0  0  0  0  0  0
   -0.0715    1.4956   -2.0870 H   0  0  0  0  0  0  0  0  0  0  0  0
    2.6503    1.8241    2.0479 H   0  0  0  0  0  0  0  0  0  0  0  0
    2.2966    1.0084   -2.2074 H   0  0  0  0  0  0  0  0  0  0  0  0
    5.9201    0.9438    0.8305 H   0  0  0  0  0  0  0  0  0  0  0  0
    4.5367    0.4782    1.8067 H   0  0  0  0  0  0  0  0  0  0  0  0
    4.8656    2.2025    1.4521 H   0  0  0  0  0  0  0  0  0  0  0  0
    5.7411    0.5246   -1.2877 H   0  0  0  0  0  0  0  0  0  0  0  0
    4.5674    1.5007   -2.1555 H   0  0  0  0  0  0  0  0  0  0  0  0
    4.2313   -0.2195   -1.7875 H   0  0  0  0  0  0  0  0  0  0  0  0
  1  5  1  0  0  0  0
  1 15  1  0  0  0  0
  2 12  1  0  0  0  0
  2 38  1  0  0  0  0
  3  8  1  0  0  0  0
  3 13  1  0  0  0  0
  3 16  1  0  0  0  0
  4 14  1  0  0  0  0
  4 15  2  0  0  0  0
  5 14  2  0  0  0  0
  6 22  1  0  0  0  0
  6 23  1  0  0  0  0
  6 24  1  0  0  0  0
  7  9  1  0  0  0  0
  7 10  1  0  0  0  0
  7 14  1  0  0  0  0
  7 25  1  0  0  0  0
  8 11  1  0  0  0  0
  8 15  1  0  0  0  0
  8 26  1  0  0  0  0
  9 10  1  0  0  0  0
  9 27  1  0  0  0  0
  9 28  1  0  0  0  0
 10 29  1  0  0  0  0
 10 30  1  0  0  0  0
 11 12  1  0  0  0  0
 11 31  1  0  0  0  0
 11 32  1  0  0  0  0
 12 13  1  0  0  0  0
 12 33  1  0  0  0  0
 13 34  1  0  0  0  0
 13 35  1  0  0  0  0
 16 17  1  0  0  0  0
 16 36  1  0  0  0  0
 16 37  1  0  0  0  0
 17 18  2  0  0  0  0
 17 19  1  0  0  0  0
 18 20  1  0  0  0  0
 18 39  1  0  0  0  0
 19 21  2  0  0  0  0
 19 40  1  0  0  0  0
 20 22  2  0  0  0  0
 20 41  1  0  0  0  0
 21 22  1  0  0  0  0
 21 42  1  0  0  0  0
 23 43  1  0  0  0  0
 23 44  1  0  0  0  0
 23 45  1  0  0  0  0
 24 46  1  0  0  0  0
 24 47  1  0  0  0  0
 24 48  1  0  0  0  0
M  END
> <PUBCHEM_COMPOUND_CID>
26744250

> <PUBCHEM_CONFORMER_RMSD>
0.8

> <PUBCHEM_CONFORMER_DIVERSEORDER>
1
42
12
36
40
61
53
25
55
46
2
66
6
57
52
3
48
54
27
65
34
56
30
64
4
67
9
16
38
28
69
68
19
39
26
44
41
15
47
59
35
18
58
23
45
7
24
10
33
51
8
49
11
62
17
37
13
14
50
29
32
20
63
22
31
5
43
21
60

> <PUBCHEM_MMFF94_PARTIAL_CHARGES>
33
1 -0.02
10 -0.2
12 0.28
13 0.27
14 0.43
15 0.3
16 0.41
17 -0.14
18 -0.15
19 -0.15
2 -0.68
20 -0.15
21 -0.15
22 0.1
23 0.37
24 0.37
25 0.1
27 0.1
28 0.1
29 0.1
3 -0.81
30 0.1
38 0.4
39 0.15
4 -0.57
40 0.15
41 0.15
42 0.15
5 -0.41
6 -0.84
7 -0.01
8 0.45
9 -0.2

> <PUBCHEM_EFFECTIVE_ROTOR_COUNT>
6.6

> <PUBCHEM_PHARMACOPHORE_FEATURES>
8
1 2 acceptor
1 2 donor
1 3 cation
1 6 cation
3 4 5 14 cation
5 1 4 5 14 15 rings
5 3 8 11 12 13 rings
6 17 18 19 20 21 22 rings

> <PUBCHEM_HEAVY_ATOM_COUNT>
24

> <PUBCHEM_ATOM_DEF_STEREO_COUNT>
2

> <PUBCHEM_ATOM_UDEF_STEREO_COUNT>
0

> <PUBCHEM_BOND_DEF_STEREO_COUNT>
0

> <PUBCHEM_BOND_UDEF_STEREO_COUNT>
0

> <PUBCHEM_ISOTOPIC_ATOM_COUNT>
0

> <PUBCHEM_COMPONENT_COUNT>
1

> <PUBCHEM_CACTVS_TAUTO_COUNT>
1

> <PUBCHEM_CONFORMER_ID>
019815BA00000001

> <PUBCHEM_MMFF94_ENERGY>
61.085

> <PUBCHEM_FEATURE_SELFOVERLAP>
40.597

> <PUBCHEM_SHAPE_FINGERPRINT>
107951 10 17531817964553177738
11370993 70 18410009970494864724
12011746 2 18410860975362243756
12035759 4 17983267582189741711
12156800 1 16268224034858175742
12422481 6 18118660181207776114
12592029 89 18413671326761098627
133893 2 18117292358224526545
13402501 40 18337959991845416030
19930381 70 18198343961678163910
20028762 73 17912648209533035471
20567600 347 18408600357505887350
20600515 1 16967416341854800529
20645476 183 17096083726657659841
20691752 17 17242181145351664101
20905425 154 18339647715616867015
21285901 2 18114179688056344493
21344244 246 18413665811939123575
22182313 1 18114762464132607267
23419403 2 17611794086382859337
23559900 14 18339365292181150376
23566358 2 18263635165901962821
23728640 28 18193273220551929314
266924 87 18338235942850988957
3298306 158 18410291415142774564
4280585 95 17687175392656247922
463206 1 18272366499085612831
465052 167 17243596466441479211
5265222 85 18264779942459415044
59755656 215 18409447007862029719
6138700 20 18335417933503819786
7364860 26 18341326696080257711
81228 2 17185027818170475859

> <PUBCHEM_SHAPE_MULTIPOLES>
462.25
8.21
3.77
1.44
3.33
3.57
0.12
-3.18
-1.97
-2.63
-0.32
-0.61
0.13
0.93

> <PUBCHEM_SHAPE_SELFOVERLAP>
981.129

> <PUBCHEM_SHAPE_VOLUME>
260.1

> <PUBCHEM_COORDINATE_TYPE>
2
5
10

$$$$
