28960195
  -OEChem-12032416353D

 72 75  0     1  0  0  0  0  0999 V2000
   -5.2498   -1.8787    0.0862 O   0  0  0  0  0  0  0  0  0  0  0  0
   -1.6771    5.5455   -0.7524 O   0  0  0  0  0  0  0  0  0  0  0  0
   -2.8157    4.3513   -2.3203 O   0  0  0  0  0  0  0  0  0  0  0  0
    6.5777   -2.0246   -1.8188 O   0  0  0  0  0  0  0  0  0  0  0  0
   -3.4403   -0.7244   -0.8450 N   0  0  0  0  0  0  0  0  0  0  0  0
    1.1500    0.3423    0.8566 N   0  0  3  0  0  0  0  0  0  0  0  0
    4.1477   -1.4557   -0.4502 N   0  0  0  0  0  0  0  0  0  0  0  0
   -1.4081    0.6772   -0.5594 C   0  0  2  0  0  0  0  0  0  0  0  0
   -2.2344    1.9019   -1.0287 C   0  0  1  0  0  0  0  0  0  0  0  0
   -2.0060   -0.6149   -1.1462 C   0  0  0  0  0  0  0  0  0  0  0  0
   -3.7331    1.7193   -0.7346 C   0  0  0  0  0  0  0  0  0  0  0  0
   -1.2791    0.5601    0.9645 C   0  0  0  0  0  0  0  0  0  0  0  0
   -4.2516    0.4016   -1.3037 C   0  0  0  0  0  0  0  0  0  0  0  0
   -1.7293    3.2242   -0.4520 C   0  0  0  0  0  0  0  0  0  0  0  0
   -0.0586   -0.2447    1.3832 C   0  0  0  0  0  0  0  0  0  0  0  0
   -4.0511   -1.7856   -0.1726 C   0  0  0  0  0  0  0  0  0  0  0  0
   -2.1502    4.3949   -1.2967 C   0  0  0  0  0  0  0  0  0  0  0  0
    1.9492   -0.4336   -0.0936 C   0  0  0  0  0  0  0  0  0  0  0  0
    3.3382   -0.6749    0.4830 C   0  0  0  0  0  0  0  0  0  0  0  0
    1.5612    1.6296    1.2303 C   0  0  0  0  0  0  0  0  0  0  0  0
   -3.2047   -2.8980    0.2731 C   0  0  0  0  0  0  0  0  0  0  0  0
    5.2919   -2.0691    0.2383 C   0  0  0  0  0  0  0  0  0  0  0  0
    4.6190   -0.6165   -1.5605 C   0  0  0  0  0  0  0  0  0  0  0  0
    1.2403    2.1249    2.4943 C   0  0  0  0  0  0  0  0  0  0  0  0
    2.2909    2.4150    0.3382 C   0  0  0  0  0  0  0  0  0  0  0  0
    6.1283   -2.8677   -0.7574 C   0  0  0  0  0  0  0  0  0  0  0  0
    5.4704   -1.4500   -2.5140 C   0  0  0  0  0  0  0  0  0  0  0  0
   -2.6186   -2.8655    1.5384 C   0  0  0  0  0  0  0  0  0  0  0  0
   -2.9875   -3.9891   -0.5682 C   0  0  0  0  0  0  0  0  0  0  0  0
    1.6493    3.4057    2.8660 C   0  0  0  0  0  0  0  0  0  0  0  0
    2.6999    3.6958    0.7097 C   0  0  0  0  0  0  0  0  0  0  0  0
   -1.8153   -3.9242    1.9625 C   0  0  0  0  0  0  0  0  0  0  0  0
   -2.1843   -5.0478   -0.1443 C   0  0  0  0  0  0  0  0  0  0  0  0
    2.3790    4.1911    1.9737 C   0  0  0  0  0  0  0  0  0  0  0  0
   -1.5981   -5.0153    1.1210 C   0  0  0  0  0  0  0  0  0  0  0  0
   -0.4168    0.8038   -1.0078 H   0  0  0  0  0  0  0  0  0  0  0  0
   -2.1248    1.9382   -2.1229 H   0  0  0  0  0  0  0  0  0  0  0  0
   -1.9197   -0.5955   -2.2401 H   0  0  0  0  0  0  0  0  0  0  0  0
   -1.4487   -1.4918   -0.8131 H   0  0  0  0  0  0  0  0  0  0  0  0
   -3.9010    1.7320    0.3499 H   0  0  0  0  0  0  0  0  0  0  0  0
   -4.3201    2.5426   -1.1556 H   0  0  0  0  0  0  0  0  0  0  0  0
   -1.2191    1.5500    1.4235 H   0  0  0  0  0  0  0  0  0  0  0  0
   -2.1777    0.1101    1.3987 H   0  0  0  0  0  0  0  0  0  0  0  0
   -4.2066    0.4134   -2.3991 H   0  0  0  0  0  0  0  0  0  0  0  0
   -5.3006    0.2652   -1.0218 H   0  0  0  0  0  0  0  0  0  0  0  0
   -2.1056    3.3851    0.5640 H   0  0  0  0  0  0  0  0  0  0  0  0
   -0.6341    3.2260   -0.4345 H   0  0  0  0  0  0  0  0  0  0  0  0
   -0.0161   -0.3300    2.4752 H   0  0  0  0  0  0  0  0  0  0  0  0
   -0.1686   -1.2781    1.0385 H   0  0  0  0  0  0  0  0  0  0  0  0
    1.9638    0.0705   -1.0646 H   0  0  0  0  0  0  0  0  0  0  0  0
    1.4759   -1.4050   -0.2885 H   0  0  0  0  0  0  0  0  0  0  0  0
    3.2053   -1.2400    1.4163 H   0  0  0  0  0  0  0  0  0  0  0  0
    3.8591    0.2472    0.7647 H   0  0  0  0  0  0  0  0  0  0  0  0
    5.9160   -1.2938    0.7018 H   0  0  0  0  0  0  0  0  0  0  0  0
    4.9456   -2.7450    1.0285 H   0  0  0  0  0  0  0  0  0  0  0  0
    3.7862   -0.1999   -2.1346 H   0  0  0  0  0  0  0  0  0  0  0  0
    5.2187    0.2201   -1.1783 H   0  0  0  0  0  0  0  0  0  0  0  0
   -1.9340    6.3319   -1.2795 H   0  0  0  0  0  0  0  0  0  0  0  0
    0.6895    1.5422    3.2257 H   0  0  0  0  0  0  0  0  0  0  0  0
    2.5466    2.0797   -0.6618 H   0  0  0  0  0  0  0  0  0  0  0  0
    5.5649   -3.7117   -1.1739 H   0  0  0  0  0  0  0  0  0  0  0  0
    7.0136   -3.2748   -0.2585 H   0  0  0  0  0  0  0  0  0  0  0  0
    4.8842   -2.2454   -2.9905 H   0  0  0  0  0  0  0  0  0  0  0  0
    5.8719   -0.8132   -3.3089 H   0  0  0  0  0  0  0  0  0  0  0  0
   -2.7898   -2.0280    2.2088 H   0  0  0  0  0  0  0  0  0  0  0  0
   -3.4392   -4.0244   -1.5563 H   0  0  0  0  0  0  0  0  0  0  0  0
    1.4027    3.7905    3.8512 H   0  0  0  0  0  0  0  0  0  0  0  0
    3.2643    4.3095    0.0137 H   0  0  0  0  0  0  0  0  0  0  0  0
   -1.3605   -3.8995    2.9484 H   0  0  0  0  0  0  0  0  0  0  0  0
   -2.0150   -5.8973   -0.7996 H   0  0  0  0  0  0  0  0  0  0  0  0
    2.6971    5.1884    2.2629 H   0  0  0  0  0  0  0  0  0  0  0  0
   -0.9728   -5.8396    1.4512 H   0  0  0  0  0  0  0  0  0  0  0  0
  1 16  2  0  0  0  0
  2 17  1  0  0  0  0
  2 58  1  0  0  0  0
  3 17  2  0  0  0  0
  4 26  1  0  0  0  0
  4 27  1  0  0  0  0
  5 10  1  0  0  0  0
  5 13  1  0  0  0  0
  5 16  1  0  0  0  0
  6 15  1  0  0  0  0
  6 18  1  0  0  0  0
  6 20  1  0  0  0  0
  7 19  1  0  0  0  0
  7 22  1  0  0  0  0
  7 23  1  0  0  0  0
  8  9  1  0  0  0  0
  8 10  1  0  0  0  0
  8 12  1  0  0  0  0
  8 36  1  0  0  0  0
  9 11  1  0  0  0  0
  9 14  1  0  0  0  0
  9 37  1  0  0  0  0
 10 38  1  0  0  0  0
 10 39  1  0  0  0  0
 11 13  1  0  0  0  0
 11 40  1  0  0  0  0
 11 41  1  0  0  0  0
 12 15  1  0  0  0  0
 12 42  1  0  0  0  0
 12 43  1  0  0  0  0
 13 44  1  0  0  0  0
 13 45  1  0  0  0  0
 14 17  1  0  0  0  0
 14 46  1  0  0  0  0
 14 47  1  0  0  0  0
 15 48  1  0  0  0  0
 15 49  1  0  0  0  0
 16 21  1  0  0  0  0
 18 19  1  0  0  0  0
 18 50  1  0  0  0  0
 18 51  1  0  0  0  0
 19 52  1  0  0  0  0
 19 53  1  0  0  0  0
 20 24  2  0  0  0  0
 20 25  1  0  0  0  0
 21 28  2  0  0  0  0
 21 29  1  0  0  0  0
 22 26  1  0  0  0  0
 22 54  1  0  0  0  0
 22 55  1  0  0  0  0
 23 27  1  0  0  0  0
 23 56  1  0  0  0  0
 23 57  1  0  0  0  0
 24 30  1  0  0  0  0
 24 59  1  0  0  0  0
 25 31  2  0  0  0  0
 25 60  1  0  0  0  0
 26 61  1  0  0  0  0
 26 62  1  0  0  0  0
 27 63  1  0  0  0  0
 27 64  1  0  0  0  0
 28 32  1  0  0  0  0
 28 65  1  0  0  0  0
 29 33  2  0  0  0  0
 29 66  1  0  0  0  0
 30 34  2  0  0  0  0
 30 67  1  0  0  0  0
 31 34  1  0  0  0  0
 31 68  1  0  0  0  0
 32 35  2  0  0  0  0
 32 69  1  0  0  0  0
 33 35  1  0  0  0  0
 33 70  1  0  0  0  0
 34 71  1  0  0  0  0
 35 72  1  0  0  0  0
M  END
> <PUBCHEM_COMPOUND_CID>
28960195

> <PUBCHEM_CONFORMER_RMSD>
1.2

> <PUBCHEM_CONFORMER_DIVERSEORDER>
1
97
72
32
69
110
125
15
188
87
145
38
197
100
141
29
187
90
209
94
102
192
186
46
71
156
208
95
108
130
83
144
116
44
137
200
140
175
54
170
68
67
56
135
14
99
119
171
149
78
168
136
173
151
63
10
199
45
212
158
167
155
105
201
106
138
143
142
207
76
211
206
179
98
43
91
203
30
198
180
80
150
196
117
51
39
147
16
86
121
205
84
131
81
126
25
123
33
50
74
85
157
79
65
48
166
64
181
17
118
148
204
133
109
124
213
88
3
178
202
62
11
66
195
12
113
9
60
22
61
134
153
18
101
112
26
21
115
37
49
154
52
75
41
165
176
159
182
210
5
77
189
127
103
7
93
177
174
59
169
172
193
92
160
57
152
70
128
36
194
58
4
107
40
73
20
82
111
190
161
132
89
184
164
53
42
27
185
35
122
104
19
162
163
183
139
47
13
31
8
28
2
191
114
6
96
120
146
129
23
34
55
24

> <PUBCHEM_MMFF94_PARTIAL_CHARGES>
42
1 -0.57
10 0.3
13 0.3
14 0.06
15 0.37
16 0.54
17 0.66
18 0.37
19 0.27
2 -0.65
20 0.1
21 0.09
22 0.27
23 0.27
24 -0.15
25 -0.15
26 0.28
27 0.28
28 -0.15
29 -0.15
3 -0.57
30 -0.15
31 -0.15
32 -0.15
33 -0.15
34 -0.15
35 -0.15
4 -0.56
5 -0.66
58 0.5
59 0.15
6 -0.84
60 0.15
65 0.15
66 0.15
67 0.15
68 0.15
69 0.15
7 -0.81
70 0.15
71 0.15
72 0.15

> <PUBCHEM_EFFECTIVE_ROTOR_COUNT>
13.4

> <PUBCHEM_PHARMACOPHORE_FEATURES>
11
1 1 acceptor
1 2 acceptor
1 3 acceptor
1 4 acceptor
1 6 cation
1 7 cation
3 2 3 17 anion
6 20 24 25 30 31 34 rings
6 21 28 29 32 33 35 rings
6 4 7 22 23 26 27 rings
6 5 8 9 10 11 13 rings

> <PUBCHEM_HEAVY_ATOM_COUNT>
35

> <PUBCHEM_ATOM_DEF_STEREO_COUNT>
2

> <PUBCHEM_ATOM_UDEF_STEREO_COUNT>
0

> <PUBCHEM_BOND_DEF_STEREO_COUNT>
0

> <PUBCHEM_BOND_UDEF_STEREO_COUNT>
0

> <PUBCHEM_ISOTOPIC_ATOM_COUNT>
0

> <PUBCHEM_COMPONENT_COUNT>
1

> <PUBCHEM_CACTVS_TAUTO_COUNT>
1

> <PUBCHEM_CONFORMER_ID>
01B9E5C300000001

> <PUBCHEM_MMFF94_ENERGY>
99.4291

> <PUBCHEM_FEATURE_SELFOVERLAP>
55.879

> <PUBCHEM_SHAPE_FINGERPRINT>
10032420 55 18194383520784099407
10675989 125 17686007866537789693
11049842 53 17470426453300448210
11285246 1 18187374246269262578
11488393 25 17983301710099868546
12788726 201 18187363203681952107
13636023 51 18056762250240082693
13690498 29 18409177597184904462
14251757 5 18335991886868515542
14415361 349 17696472162927498799
14725015 67 18410001127289506199
15351339 4 18118960287300027106
15775530 1 18269270330292090208
17627616 140 17617089205870864605
19611394 137 18343291584253761378
20775438 99 17909231966437714431
22440779 20 17680748995914444194
23559900 14 18336823212189982335
42626532 9 17970642993383936082
4461854 278 16609705111968282122
5265222 85 18190185589584315677
6371380 46 18341334405789115051

> <PUBCHEM_SHAPE_MULTIPOLES>
681.86
10.98
8.24
2.27
12.19
2.59
0.47
-11.67
-5.65
-2.93
0.26
1.54
1.2
6.29

> <PUBCHEM_SHAPE_SELFOVERLAP>
1431.711

> <PUBCHEM_SHAPE_VOLUME>
380.4

> <PUBCHEM_COORDINATE_TYPE>
2
5
10

$$$$
