26742925
  -OEChem-12032416193D

 60 63  0     1  0  0  0  0  0999 V2000
    7.4346    1.3447    0.3970 F   0  0  0  0  0  0  0  0  0  0  0  0
   -3.8211   -0.5890    1.6115 O   0  0  0  0  0  0  0  0  0  0  0  0
    1.4001   -0.2006   -0.3309 O   0  0  0  0  0  0  0  0  0  0  0  0
    1.9959   -3.8287   -0.2262 O   0  0  0  0  0  0  0  0  0  0  0  0
   -2.3644    4.4325    0.1870 N   0  0  0  0  0  0  0  0  0  0  0  0
   -3.9600   -1.6778   -0.4369 N   0  0  0  0  0  0  0  0  0  0  0  0
    0.0279   -0.1205   -0.5347 N   0  0  0  0  0  0  0  0  0  0  0  0
   -3.8987    1.9398    0.2738 C   0  0  1  0  0  0  0  0  0  0  0  0
   -2.3556    1.9472    0.3936 C   0  0  2  0  0  0  0  0  0  0  0  0
   -4.3988    3.1838   -0.4759 C   0  0  0  0  0  0  0  0  0  0  0  0
   -1.8947    3.2947    0.9796 C   0  0  0  0  0  0  0  0  0  0  0  0
   -3.8254    4.4665    0.1250 C   0  0  0  0  0  0  0  0  0  0  0  0
   -1.6298    1.6511   -0.9256 C   0  0  0  0  0  0  0  0  0  0  0  0
   -4.4527    0.6641   -0.3590 C   0  0  0  0  0  0  0  0  0  0  0  0
   -0.2240    1.1832   -0.6835 C   0  0  0  0  0  0  0  0  0  0  0  0
   -4.0449   -0.5779    0.4042 C   0  0  0  0  0  0  0  0  0  0  0  0
    0.9392    1.9660   -0.5843 C   0  0  0  0  0  0  0  0  0  0  0  0
    1.9315    1.0482   -0.3626 C   0  0  0  0  0  0  0  0  0  0  0  0
   -3.5889   -2.9963    0.0232 C   0  0  0  0  0  0  0  0  0  0  0  0
    3.3500    1.1248   -0.1658 C   0  0  0  0  0  0  0  0  0  0  0  0
   -2.1055   -3.2177   -0.0434 C   0  0  0  0  0  0  0  0  0  0  0  0
    3.9904    2.3640   -0.1810 C   0  0  0  0  0  0  0  0  0  0  0  0
    4.0894   -0.0398    0.0400 C   0  0  0  0  0  0  0  0  0  0  0  0
   -1.4891   -3.4512   -1.2728 C   0  0  0  0  0  0  0  0  0  0  0  0
   -1.3434   -3.1897    1.1246 C   0  0  0  0  0  0  0  0  0  0  0  0
    5.3701    2.4384    0.0092 C   0  0  0  0  0  0  0  0  0  0  0  0
    5.4692    0.0345    0.2302 C   0  0  0  0  0  0  0  0  0  0  0  0
   -0.1109   -3.6568   -1.3343 C   0  0  0  0  0  0  0  0  0  0  0  0
    0.0348   -3.3953    1.0633 C   0  0  0  0  0  0  0  0  0  0  0  0
    0.6511   -3.6290   -0.1661 C   0  0  0  0  0  0  0  0  0  0  0  0
    6.1096    1.2736    0.2148 C   0  0  0  0  0  0  0  0  0  0  0  0
    2.7140   -3.7870    1.0061 C   0  0  0  0  0  0  0  0  0  0  0  0
   -4.2978    2.0033    1.2972 H   0  0  0  0  0  0  0  0  0  0  0  0
   -2.0701    1.1794    1.1248 H   0  0  0  0  0  0  0  0  0  0  0  0
   -4.1214    3.1210   -1.5361 H   0  0  0  0  0  0  0  0  0  0  0  0
   -5.4941    3.2270   -0.4389 H   0  0  0  0  0  0  0  0  0  0  0  0
   -0.8057    3.3458    1.0632 H   0  0  0  0  0  0  0  0  0  0  0  0
   -2.2694    3.3948    2.0068 H   0  0  0  0  0  0  0  0  0  0  0  0
   -4.2355    4.6314    1.1288 H   0  0  0  0  0  0  0  0  0  0  0  0
   -4.1352    5.3240   -0.4824 H   0  0  0  0  0  0  0  0  0  0  0  0
   -2.1255    0.8524   -1.4857 H   0  0  0  0  0  0  0  0  0  0  0  0
   -1.6173    2.5131   -1.6007 H   0  0  0  0  0  0  0  0  0  0  0  0
   -5.5499    0.6950   -0.3298 H   0  0  0  0  0  0  0  0  0  0  0  0
   -4.1847    0.5883   -1.4176 H   0  0  0  0  0  0  0  0  0  0  0  0
   -1.9844    4.3828   -0.7564 H   0  0  0  0  0  0  0  0  0  0  0  0
    1.0328    3.0390   -0.6674 H   0  0  0  0  0  0  0  0  0  0  0  0
   -4.1566   -1.5671   -1.4273 H   0  0  0  0  0  0  0  0  0  0  0  0
   -3.9602   -3.1381    1.0448 H   0  0  0  0  0  0  0  0  0  0  0  0
   -4.1055   -3.7269   -0.6097 H   0  0  0  0  0  0  0  0  0  0  0  0
    3.4414    3.2887   -0.3389 H   0  0  0  0  0  0  0  0  0  0  0  0
    3.6280   -1.0229    0.0525 H   0  0  0  0  0  0  0  0  0  0  0  0
   -2.0725   -3.4743   -2.1894 H   0  0  0  0  0  0  0  0  0  0  0  0
   -1.8110   -3.0065    2.0884 H   0  0  0  0  0  0  0  0  0  0  0  0
    0.3638   -3.8371   -2.2948 H   0  0  0  0  0  0  0  0  0  0  0  0
    0.5659   -3.3606    2.0082 H   0  0  0  0  0  0  0  0  0  0  0  0
    5.8694    3.4028   -0.0026 H   0  0  0  0  0  0  0  0  0  0  0  0
    6.0457   -0.8721    0.3890 H   0  0  0  0  0  0  0  0  0  0  0  0
    2.6397   -2.8053    1.4858 H   0  0  0  0  0  0  0  0  0  0  0  0
    2.4067   -4.5974    1.6757 H   0  0  0  0  0  0  0  0  0  0  0  0
    3.7710   -3.9485    0.7704 H   0  0  0  0  0  0  0  0  0  0  0  0
  1 31  1  0  0  0  0
  2 16  2  0  0  0  0
  3  7  1  0  0  0  0
  3 18  1  0  0  0  0
  4 30  1  0  0  0  0
  4 32  1  0  0  0  0
  5 11  1  0  0  0  0
  5 12  1  0  0  0  0
  5 45  1  0  0  0  0
  6 16  1  0  0  0  0
  6 19  1  0  0  0  0
  6 47  1  0  0  0  0
  7 15  2  0  0  0  0
  8  9  1  0  0  0  0
  8 10  1  0  0  0  0
  8 14  1  0  0  0  0
  8 33  1  0  0  0  0
  9 11  1  0  0  0  0
  9 13  1  0  0  0  0
  9 34  1  0  0  0  0
 10 12  1  0  0  0  0
 10 35  1  0  0  0  0
 10 36  1  0  0  0  0
 11 37  1  0  0  0  0
 11 38  1  0  0  0  0
 12 39  1  0  0  0  0
 12 40  1  0  0  0  0
 13 15  1  0  0  0  0
 13 41  1  0  0  0  0
 13 42  1  0  0  0  0
 14 16  1  0  0  0  0
 14 43  1  0  0  0  0
 14 44  1  0  0  0  0
 15 17  1  0  0  0  0
 17 18  2  0  0  0  0
 17 46  1  0  0  0  0
 18 20  1  0  0  0  0
 19 21  1  0  0  0  0
 19 48  1  0  0  0  0
 19 49  1  0  0  0  0
 20 22  2  0  0  0  0
 20 23  1  0  0  0  0
 21 24  2  0  0  0  0
 21 25  1  0  0  0  0
 22 26  1  0  0  0  0
 22 50  1  0  0  0  0
 23 27  2  0  0  0  0
 23 51  1  0  0  0  0
 24 28  1  0  0  0  0
 24 52  1  0  0  0  0
 25 29  2  0  0  0  0
 25 53  1  0  0  0  0
 26 31  2  0  0  0  0
 26 56  1  0  0  0  0
 27 31  1  0  0  0  0
 27 57  1  0  0  0  0
 28 30  2  0  0  0  0
 28 54  1  0  0  0  0
 29 30  1  0  0  0  0
 29 55  1  0  0  0  0
 32 58  1  0  0  0  0
 32 59  1  0  0  0  0
 32 60  1  0  0  0  0
M  END
> <PUBCHEM_COMPOUND_CID>
26742925

> <PUBCHEM_CONFORMER_RMSD>
1.2

> <PUBCHEM_CONFORMER_DIVERSEORDER>
1
40
84
86
48
95
2
50
24
83
44
37
69
55
4
25
15
103
49
30
16
3
104
85
68
7
99
53
56
71
64
61
65
34
74
9
94
88
82
27
90
57
105
35
79
70
89
66
19
100
45
43
81
6
21
75
73
31
46
97
54
38
62
93
13
28
32
92
72
39
101
20
5
29
102
98
91
11
96
63
76
33
51
23
22
41
77
80
10
12
78
8
36
52
17
14
18
58
59
67
47
60
87
26
42

> <PUBCHEM_MMFF94_PARTIAL_CHARGES>
40
1 -0.19
11 0.27
12 0.27
13 0.18
14 0.06
15 0.11
16 0.57
17 -0.15
18 0.09
19 0.44
2 -0.57
20 0.05
21 -0.14
22 -0.15
23 -0.15
24 -0.15
25 -0.15
26 -0.15
27 -0.15
28 -0.15
29 -0.15
3 -0.02
30 0.08
31 0.19
32 0.28
4 -0.36
45 0.36
46 0.15
47 0.37
5 -0.9
50 0.15
51 0.15
52 0.15
53 0.15
54 0.15
55 0.15
56 0.15
57 0.15
6 -0.73
7 -0.41

> <PUBCHEM_EFFECTIVE_ROTOR_COUNT>
10.2

> <PUBCHEM_PHARMACOPHORE_FEATURES>
10
1 2 acceptor
1 4 acceptor
1 5 cation
1 5 donor
1 6 donor
1 7 acceptor
5 3 7 15 17 18 rings
6 20 22 23 26 27 31 rings
6 21 24 25 28 29 30 rings
6 5 8 9 10 11 12 rings

> <PUBCHEM_HEAVY_ATOM_COUNT>
32

> <PUBCHEM_ATOM_DEF_STEREO_COUNT>
2

> <PUBCHEM_ATOM_UDEF_STEREO_COUNT>
0

> <PUBCHEM_BOND_DEF_STEREO_COUNT>
0

> <PUBCHEM_BOND_UDEF_STEREO_COUNT>
0

> <PUBCHEM_ISOTOPIC_ATOM_COUNT>
0

> <PUBCHEM_COMPONENT_COUNT>
1

> <PUBCHEM_CACTVS_TAUTO_COUNT>
2

> <PUBCHEM_CONFORMER_ID>
0198108D00000001

> <PUBCHEM_MMFF94_ENERGY>
66.4022

> <PUBCHEM_FEATURE_SELFOVERLAP>
50.747

> <PUBCHEM_SHAPE_FINGERPRINT>
10290309 65 18193277382001692949
10483366 6 18197763596729759703
10864689 126 17690569585336035998
11513181 2 18201716206748619727
12422481 6 18263351522004152274
12522641 33 18190169110950238197
12788726 201 18192984031792816994
12930653 34 18339646637817829277
13111901 25 18188479191753945994
13140716 1 18120663692898538331
14394314 77 18411985793427899249
144659 178 17976260454399092348
14725015 67 18050004691127257483
14790565 3 18336548339000193462
14844126 61 18336269041529931673
14866123 147 18338513157631410002
15320467 1 18338797934820260122
15361156 5 18195821884763989710
15664445 248 17262160224921378510
15927050 60 18340204090545557582
16664035 1 18122626326371933569
19311894 1 17979352289850200918
20580484 21 16753813062956587857
21796203 349 16898812313913784771
23559900 14 17835517124824821025
338550 245 18334018302668074950
3388396 114 18269535261234294007
4112364 45 17124272761843883937
4409770 3 18337383942109821149
5047190 48 18265891367656043500
5171179 24 18055373347953497287
5309563 4 17041194637647209870
550186 7 18200608010864918708
6036956 94 18334860558312941317
653340 110 18339915039325151282
79837 15 18410862044466566208
9981440 41 18337395933490102937

> <PUBCHEM_SHAPE_MULTIPOLES>
618.72
11.82
7.1
1.03
16.86
2.96
-0.05
-9.92
-1.45
-4.72
-0.28
-0.44
0.59
-0.45

> <PUBCHEM_SHAPE_SELFOVERLAP>
1325.019

> <PUBCHEM_SHAPE_VOLUME>
343.3

> <PUBCHEM_COORDINATE_TYPE>
2
5
10

$$$$
