40777714
  -OEChem-12032416173D

 70 72  0     1  0  0  0  0  0999 V2000
   -4.4925    1.5393    0.6464 O   0  0  0  0  0  0  0  0  0  0  0  0
   -9.3646    1.7981    0.7052 O   0  0  0  0  0  0  0  0  0  0  0  0
   -7.3131    2.4510    1.4221 O   0  0  0  0  0  0  0  0  0  0  0  0
   -3.6913   -0.4071   -0.3315 N   0  0  0  0  0  0  0  0  0  0  0  0
    2.9974   -1.0018    0.3680 N   0  0  0  0  0  0  0  0  0  0  0  0
    2.8752   -2.1273    1.0922 N   0  0  0  0  0  0  0  0  0  0  0  0
   -0.6053   -1.4602   -0.1127 C   0  0  2  0  0  0  0  0  0  0  0  0
   -1.3224   -0.1743    0.3478 C   0  0  0  0  0  0  0  0  0  0  0  0
   -2.4004    0.1052   -0.7066 C   0  0  1  0  0  0  0  0  0  0  0  0
    0.8698   -1.4725    0.2166 C   0  0  0  0  0  0  0  0  0  0  0  0
   -0.9212   -1.4973   -1.5800 C   0  0  0  0  0  0  0  0  0  0  0  0
   -1.9020   -0.6456   -1.8974 C   0  0  0  0  0  0  0  0  0  0  0  0
   -7.0268   -0.2387   -0.4728 C   0  0  0  0  0  0  0  0  0  0  0  0
   -5.9271   -0.3927    0.6085 C   0  0  0  0  0  0  0  0  0  0  0  0
    1.8251   -0.5677   -0.1777 C   0  0  0  0  0  0  0  0  0  0  0  0
    1.5733   -2.4101    0.9961 C   0  0  0  0  0  0  0  0  0  0  0  0
   -4.6394    0.3630    0.3212 C   0  0  0  0  0  0  0  0  0  0  0  0
   -7.4850    1.2273   -0.6602 C   0  0  0  0  0  0  0  0  0  0  0  0
   -6.5187   -0.7566   -1.8350 C   0  0  0  0  0  0  0  0  0  0  0  0
   -8.2246   -1.1212   -0.0612 C   0  0  0  0  0  0  0  0  0  0  0  0
    1.7192    0.6479   -1.0101 C   0  0  0  0  0  0  0  0  0  0  0  0
    4.2472   -0.3956    0.2365 C   0  0  0  0  0  0  0  0  0  0  0  0
    8.0843    1.4618   -0.1545 C   0  0  0  0  0  0  0  0  0  0  0  0
    1.0388   -3.6029    1.6764 C   0  0  0  0  0  0  0  0  0  0  0  0
    6.7473    0.8153   -0.0185 C   0  0  0  0  0  0  0  0  0  0  0  0
    5.3053   -1.0959   -0.3429 C   0  0  0  0  0  0  0  0  0  0  0  0
    4.4390    0.9099    0.6884 C   0  0  0  0  0  0  0  0  0  0  0  0
   -8.0165    1.8917    0.5908 C   0  0  0  0  0  0  0  0  0  0  0  0
    6.5553   -0.4904   -0.4704 C   0  0  0  0  0  0  0  0  0  0  0  0
    5.6891    1.5153    0.5611 C   0  0  0  0  0  0  0  0  0  0  0  0
    8.5236    1.5437   -1.6493 C   0  0  0  0  0  0  0  0  0  0  0  0
    9.1808    0.6617    0.6149 C   0  0  0  0  0  0  0  0  0  0  0  0
    8.1803    2.9264    0.3884 C   0  0  0  0  0  0  0  0  0  0  0  0
   -1.0874   -2.3292    0.3537 H   0  0  0  0  0  0  0  0  0  0  0  0
   -1.7381   -0.2964    1.3555 H   0  0  0  0  0  0  0  0  0  0  0  0
   -0.6400    0.6822    0.3999 H   0  0  0  0  0  0  0  0  0  0  0  0
   -2.4697    1.1792   -0.9091 H   0  0  0  0  0  0  0  0  0  0  0  0
   -0.4409   -2.1575   -2.2886 H   0  0  0  0  0  0  0  0  0  0  0  0
   -2.3014   -0.5273   -2.8948 H   0  0  0  0  0  0  0  0  0  0  0  0
   -3.8994   -1.3829   -0.5253 H   0  0  0  0  0  0  0  0  0  0  0  0
   -5.6849   -1.4560    0.7403 H   0  0  0  0  0  0  0  0  0  0  0  0
   -6.2914   -0.0566    1.5872 H   0  0  0  0  0  0  0  0  0  0  0  0
   -8.2641    1.2901   -1.4316 H   0  0  0  0  0  0  0  0  0  0  0  0
   -6.6646    1.8526   -1.0340 H   0  0  0  0  0  0  0  0  0  0  0  0
   -6.1348   -1.7796   -1.7534 H   0  0  0  0  0  0  0  0  0  0  0  0
   -5.7191   -0.1253   -2.2367 H   0  0  0  0  0  0  0  0  0  0  0  0
   -7.3253   -0.7654   -2.5775 H   0  0  0  0  0  0  0  0  0  0  0  0
   -8.5979   -0.8551    0.9335 H   0  0  0  0  0  0  0  0  0  0  0  0
   -9.0543   -1.0199   -0.7698 H   0  0  0  0  0  0  0  0  0  0  0  0
   -7.9426   -2.1800   -0.0306 H   0  0  0  0  0  0  0  0  0  0  0  0
    0.8341    0.6353   -1.6500 H   0  0  0  0  0  0  0  0  0  0  0  0
    1.6563    1.5420   -0.3815 H   0  0  0  0  0  0  0  0  0  0  0  0
    2.5774    0.7559   -1.6818 H   0  0  0  0  0  0  0  0  0  0  0  0
    0.5928   -4.2911    0.9511 H   0  0  0  0  0  0  0  0  0  0  0  0
    1.8192   -4.1486    2.2174 H   0  0  0  0  0  0  0  0  0  0  0  0
    0.2679   -3.3192    2.4002 H   0  0  0  0  0  0  0  0  0  0  0  0
    5.1722   -2.1129   -0.7038 H   0  0  0  0  0  0  0  0  0  0  0  0
    3.6319    1.4674    1.1573 H   0  0  0  0  0  0  0  0  0  0  0  0
    7.3614   -1.0582   -0.9260 H   0  0  0  0  0  0  0  0  0  0  0  0
    5.7839    2.5298    0.9320 H   0  0  0  0  0  0  0  0  0  0  0  0
    7.7900    2.1045   -2.2403 H   0  0  0  0  0  0  0  0  0  0  0  0
    9.4932    2.0445   -1.7531 H   0  0  0  0  0  0  0  0  0  0  0  0
    8.6230    0.5509   -2.1016 H   0  0  0  0  0  0  0  0  0  0  0  0
   10.1586    1.1516    0.5396 H   0  0  0  0  0  0  0  0  0  0  0  0
    8.9272    0.5777    1.6783 H   0  0  0  0  0  0  0  0  0  0  0  0
    9.2976   -0.3542    0.2219 H   0  0  0  0  0  0  0  0  0  0  0  0
    7.9577    2.9727    1.4609 H   0  0  0  0  0  0  0  0  0  0  0  0
    9.1903    3.3323    0.2531 H   0  0  0  0  0  0  0  0  0  0  0  0
    7.4925    3.5966   -0.1403 H   0  0  0  0  0  0  0  0  0  0  0  0
   -9.6934    2.2284    1.5231 H   0  0  0  0  0  0  0  0  0  0  0  0
  1 17  2  0  0  0  0
  2 28  1  0  0  0  0
  2 70  1  0  0  0  0
  3 28  2  0  0  0  0
  4  9  1  0  0  0  0
  4 17  1  0  0  0  0
  4 40  1  0  0  0  0
  5  6  1  0  0  0  0
  5 15  1  0  0  0  0
  5 22  1  0  0  0  0
  6 16  2  0  0  0  0
  7  8  1  0  0  0  0
  7 10  1  0  0  0  0
  7 11  1  0  0  0  0
  7 34  1  0  0  0  0
  8  9  1  0  0  0  0
  8 35  1  0  0  0  0
  8 36  1  0  0  0  0
  9 12  1  0  0  0  0
  9 37  1  0  0  0  0
 10 15  2  0  0  0  0
 10 16  1  0  0  0  0
 11 12  2  0  0  0  0
 11 38  1  0  0  0  0
 12 39  1  0  0  0  0
 13 14  1  0  0  0  0
 13 18  1  0  0  0  0
 13 19  1  0  0  0  0
 13 20  1  0  0  0  0
 14 17  1  0  0  0  0
 14 41  1  0  0  0  0
 14 42  1  0  0  0  0
 15 21  1  0  0  0  0
 16 24  1  0  0  0  0
 18 28  1  0  0  0  0
 18 43  1  0  0  0  0
 18 44  1  0  0  0  0
 19 45  1  0  0  0  0
 19 46  1  0  0  0  0
 19 47  1  0  0  0  0
 20 48  1  0  0  0  0
 20 49  1  0  0  0  0
 20 50  1  0  0  0  0
 21 51  1  0  0  0  0
 21 52  1  0  0  0  0
 21 53  1  0  0  0  0
 22 26  2  0  0  0  0
 22 27  1  0  0  0  0
 23 25  1  0  0  0  0
 23 31  1  0  0  0  0
 23 32  1  0  0  0  0
 23 33  1  0  0  0  0
 24 54  1  0  0  0  0
 24 55  1  0  0  0  0
 24 56  1  0  0  0  0
 25 29  2  0  0  0  0
 25 30  1  0  0  0  0
 26 29  1  0  0  0  0
 26 57  1  0  0  0  0
 27 30  2  0  0  0  0
 27 58  1  0  0  0  0
 29 59  1  0  0  0  0
 30 60  1  0  0  0  0
 31 61  1  0  0  0  0
 31 62  1  0  0  0  0
 31 63  1  0  0  0  0
 32 64  1  0  0  0  0
 32 65  1  0  0  0  0
 32 66  1  0  0  0  0
 33 67  1  0  0  0  0
 33 68  1  0  0  0  0
 33 69  1  0  0  0  0
M  END
> <PUBCHEM_COMPOUND_CID>
40777714

> <PUBCHEM_CONFORMER_RMSD>
1

> <PUBCHEM_CONFORMER_DIVERSEORDER>
1
36
174
131
121
127
109
111
168
72
33
176
116
201
148
117
220
217
67
100
180
26
52
204
155
64
102
39
146
124
213
178
74
219
120
114
142
144
89
59
58
118
214
132
194
184
208
105
156
186
62
164
163
153
66
125
191
147
76
188
108
149
38
99
177
136
82
172
49
195
187
206
140
185
137
158
193
22
11
91
41
152
134
151
161
95
86
101
63
15
209
113
145
78
107
123
3
19
50
24
16
135
202
175
70
212
32
29
97
215
30
143
43
189
28
51
139
115
200
40
159
75
128
92
46
69
88
65
5
83
157
162
179
199
84
141
205
183
112
85
133
47
90
13
171
173
192
73
7
80
104
42
68
203
44
27
35
103
197
25
8
130
170
10
169
165
21
122
196
198
17
94
138
129
96
126
211
106
160
119
37
190
60
218
61
181
150
210
87
53
93
79
216
55
110
166
182
48
6
57
4
167
77
98
34
31
20
81
14
207
54
12
45
9
71
56
154
18
23
2

> <PUBCHEM_MMFF94_PARTIAL_CHARGES>
34
1 -0.57
10 -0.18
11 -0.29
12 -0.29
14 0.06
15 -0.33
16 0.11
17 0.57
18 0.06
2 -0.65
21 0.18
22 -0.02
23 0.14
24 0.18
25 -0.14
26 -0.15
27 -0.15
28 0.66
29 -0.15
3 -0.57
30 -0.15
38 0.15
39 0.15
4 -0.73
40 0.37
5 0.59
57 0.15
58 0.15
59 0.15
6 -0.71
60 0.15
7 0.32
70 0.5
9 0.44

> <PUBCHEM_EFFECTIVE_ROTOR_COUNT>
9.6

> <PUBCHEM_PHARMACOPHORE_FEATURES>
11
1 1 acceptor
1 2 acceptor
1 3 acceptor
1 4 donor
1 6 acceptor
3 13 19 20 hydrophobe
3 2 3 28 anion
4 23 31 32 33 hydrophobe
5 5 6 10 15 16 rings
5 7 8 9 11 12 rings
6 22 25 26 27 29 30 rings

> <PUBCHEM_HEAVY_ATOM_COUNT>
33

> <PUBCHEM_ATOM_DEF_STEREO_COUNT>
2

> <PUBCHEM_ATOM_UDEF_STEREO_COUNT>
0

> <PUBCHEM_BOND_DEF_STEREO_COUNT>
0

> <PUBCHEM_BOND_UDEF_STEREO_COUNT>
0

> <PUBCHEM_ISOTOPIC_ATOM_COUNT>
0

> <PUBCHEM_COMPONENT_COUNT>
1

> <PUBCHEM_CACTVS_TAUTO_COUNT>
2

> <PUBCHEM_CONFORMER_ID>
026E37F200000001

> <PUBCHEM_MMFF94_ENERGY>
96.7658

> <PUBCHEM_FEATURE_SELFOVERLAP>
55.88

> <PUBCHEM_SHAPE_FINGERPRINT>
10 15 17240478131000267070
10076449 9 12751242514623557026
10162869 55 17821727265528709031
10165383 225 18186517727017231610
10670039 82 15985110682768779411
10904742 90 18412261744375371782
11135609 99 11747227869697783488
11181472 205 17917158182194754538
11315181 36 18411135832638090503
11386260 185 14764335068437310498
12013929 94 18270116946416068703
12120059 9 14634863159478220771
12539745 222 11747201460128945150
12539765 74 18342182176520409278
12592606 108 9871745793438904369
13540713 4 16735215012507757374
13947947 74 18342738559584950736
14068700 675 8646772204984528038
14394314 77 18411985724572064985
14849402 71 18408603690543499077
14937079 2 18115309007385512724
15064981 194 18194691586193359694
15183329 4 16487260980253013858
15188451 53 10809336737955294574
15461852 350 17346595301243109861
15690457 1 8358259237554407444
15728490 51 18336263548536252607
1577012 14 18201714046521746887
15840311 113 18409735049954603492
16728433 281 16988012566003524569
16989713 51 16414898869466671447
16992610 120 18261123997867317990
1754911 235 18131069337641737901
17686467 74 18335420206116590697
1818759 1 8574435348368182936
18603816 31 11963400678315010265
20105231 36 13039182641987513861
2026 5 9655309124298204364
20505436 4 18343014493247033230
21033648 29 18190451848477898520
21585482 111 18338796702835715453
21792961 116 14333137372905952134
22224240 67 17821727247505009122
23576562 1 17273679031584623785
23729398 52 18119528739829513954
24771293 8 18186239533073528919
249057 3 16702017621565678512
3178227 256 17313105263529581308
3711267 37 18201730577904247136
4073 2 18334017185987575867
4107672 100 17274815904942757783
4169191 19 18335134272747711677
4403749 210 17895759620176868523
4516262 110 18409722941729561382
5219985 9 10519991474082481042
54039377 194 9583518724633251555
5470011 282 14979957012917370264
5758199 1 18333449845901889611
59682541 35 17603305977065448843
5969126 39 10807948054632698946
6698420 124 18335701685182586346
9689198 14 18343305863780082807
9953998 17 17458346364180936411
9961470 85 18049158066783986480

> <PUBCHEM_SHAPE_MULTIPOLES>
646.57
31.58
2.67
1.37
8.81
0.64
-0.38
-24.9
1
-0.92
1.28
0.66
0.24
-2.08

> <PUBCHEM_SHAPE_SELFOVERLAP>
1362.755

> <PUBCHEM_SHAPE_VOLUME>
367.5

> <PUBCHEM_COORDINATE_TYPE>
2
5
10

$$$$
