51137308
  -OEChem-12032416223D

 43 46  0     1  0  0  0  0  0999 V2000
    2.9194   -0.4989    0.1598 O   0  0  0  0  0  0  0  0  0  0  0  0
   -8.1196   -0.3382    0.0178 O   0  5  0  0  0  0  0  0  0  0  0  0
   -7.7171    1.5853    0.9963 O   0  0  0  0  0  0  0  0  0  0  0  0
   -1.1054   -0.7713   -0.2687 N   0  0  1  0  0  0  0  0  0  0  0  0
    3.2953   -2.7041    0.1518 N   0  0  0  0  0  0  0  0  0  0  0  0
    4.5163   -2.0623    0.0599 N   0  0  0  0  0  0  0  0  0  0  0  0
   -7.3323    0.5801    0.3514 N   0  3  0  0  0  0  0  0  0  0  0  0
    6.8293    2.5666   -0.1450 N   0  0  0  0  0  0  0  0  0  0  0  0
    0.8888   -1.8584    0.3151 C   0  0  1  0  0  0  0  0  0  0  0  0
    0.2813   -1.1928    1.5622 C   0  0  0  0  0  0  0  0  0  0  0  0
    0.1576   -1.2085   -0.8673 C   0  0  0  0  0  0  0  0  0  0  0  0
   -0.7306   -0.1912    1.0209 C   0  0  0  0  0  0  0  0  0  0  0  0
   -1.8229    0.1722   -1.1132 C   0  0  0  0  0  0  0  0  0  0  0  0
    2.3925   -1.7530    0.2078 C   0  0  0  0  0  0  0  0  0  0  0  0
   -3.2742    0.2790   -0.7271 C   0  0  0  0  0  0  0  0  0  0  0  0
   -4.1682   -0.7297   -1.0864 C   0  0  0  0  0  0  0  0  0  0  0  0
   -3.7249    1.3874   -0.0101 C   0  0  0  0  0  0  0  0  0  0  0  0
    4.2485   -0.7774    0.0678 C   0  0  0  0  0  0  0  0  0  0  0  0
   -5.5127   -0.6299   -0.7289 C   0  0  0  0  0  0  0  0  0  0  0  0
   -5.0694    1.4873    0.3474 C   0  0  0  0  0  0  0  0  0  0  0  0
   -5.9633    0.4786   -0.0120 C   0  0  0  0  0  0  0  0  0  0  0  0
    5.1236    0.3565   -0.0036 C   0  0  0  0  0  0  0  0  0  0  0  0
    6.4985    0.1721   -0.0989 C   0  0  0  0  0  0  0  0  0  0  0  0
    4.6006    1.6446    0.0211 C   0  0  0  0  0  0  0  0  0  0  0  0
    7.3009    1.2997   -0.1663 C   0  0  0  0  0  0  0  0  0  0  0  0
    5.4879    2.7064   -0.0517 C   0  0  0  0  0  0  0  0  0  0  0  0
    0.6357   -2.9273    0.3462 H   0  0  0  0  0  0  0  0  0  0  0  0
   -0.2293   -1.9531    2.1664 H   0  0  0  0  0  0  0  0  0  0  0  0
    1.0237   -0.7043    2.2022 H   0  0  0  0  0  0  0  0  0  0  0  0
   -0.0060   -1.9292   -1.6760 H   0  0  0  0  0  0  0  0  0  0  0  0
    0.7218   -0.3592   -1.2747 H   0  0  0  0  0  0  0  0  0  0  0  0
   -1.5821   -0.0879    1.7006 H   0  0  0  0  0  0  0  0  0  0  0  0
   -0.2514    0.7897    0.9059 H   0  0  0  0  0  0  0  0  0  0  0  0
   -1.3456    1.1616   -1.1263 H   0  0  0  0  0  0  0  0  0  0  0  0
   -1.7987   -0.1704   -2.1575 H   0  0  0  0  0  0  0  0  0  0  0  0
   -3.8288   -1.5981   -1.6450 H   0  0  0  0  0  0  0  0  0  0  0  0
   -3.0382    2.1793    0.2772 H   0  0  0  0  0  0  0  0  0  0  0  0
   -6.1803   -1.4347   -1.0259 H   0  0  0  0  0  0  0  0  0  0  0  0
   -5.3848    2.3648    0.9061 H   0  0  0  0  0  0  0  0  0  0  0  0
    6.9499   -0.8145   -0.1216 H   0  0  0  0  0  0  0  0  0  0  0  0
    3.5378    1.8507    0.0939 H   0  0  0  0  0  0  0  0  0  0  0  0
    8.3797    1.2101   -0.2417 H   0  0  0  0  0  0  0  0  0  0  0  0
    5.1309    3.7309   -0.0363 H   0  0  0  0  0  0  0  0  0  0  0  0
  1 14  1  0  0  0  0
  1 18  1  0  0  0  0
  2  7  1  0  0  0  0
  3  7  2  0  0  0  0
  4 11  1  0  0  0  0
  4 12  1  0  0  0  0
  4 13  1  0  0  0  0
  5  6  1  0  0  0  0
  5 14  2  0  0  0  0
  6 18  2  0  0  0  0
  7 21  1  0  0  0  0
  8 25  2  0  0  0  0
  8 26  1  0  0  0  0
  9 10  1  0  0  0  0
  9 11  1  0  0  0  0
  9 14  1  0  0  0  0
  9 27  1  0  0  0  0
 10 12  1  0  0  0  0
 10 28  1  0  0  0  0
 10 29  1  0  0  0  0
 11 30  1  0  0  0  0
 11 31  1  0  0  0  0
 12 32  1  0  0  0  0
 12 33  1  0  0  0  0
 13 15  1  0  0  0  0
 13 34  1  0  0  0  0
 13 35  1  0  0  0  0
 15 16  2  0  0  0  0
 15 17  1  0  0  0  0
 16 19  1  0  0  0  0
 16 36  1  0  0  0  0
 17 20  2  0  0  0  0
 17 37  1  0  0  0  0
 18 22  1  0  0  0  0
 19 21  2  0  0  0  0
 19 38  1  0  0  0  0
 20 21  1  0  0  0  0
 20 39  1  0  0  0  0
 22 23  2  0  0  0  0
 22 24  1  0  0  0  0
 23 25  1  0  0  0  0
 23 40  1  0  0  0  0
 24 26  2  0  0  0  0
 24 41  1  0  0  0  0
 25 42  1  0  0  0  0
 26 43  1  0  0  0  0
M  CHG  2   2  -1   7   1
M  END
> <PUBCHEM_COMPOUND_CID>
51137308

> <PUBCHEM_CONFORMER_RMSD>
0.8

> <PUBCHEM_CONFORMER_DIVERSEORDER>
1
51
44
25
29
4
40
30
12
22
38
11
56
17
26
52
14
28
23
37
46
45
54
55
2
24
21
13
8
27
33
34
43
53
47
16
31
42
35
5
41
49
10
3
7
57
58
50
36
32
15
20
19
6
39
9
18
48

> <PUBCHEM_MMFF94_PARTIAL_CHARGES>
33
1 -0.28
11 0.27
12 0.27
13 0.41
14 0.3
15 -0.14
16 -0.15
17 -0.15
18 0.43
19 -0.15
2 -0.52
20 -0.15
21 0.13
22 0.05
23 -0.15
24 -0.15
25 0.16
26 0.16
3 -0.52
36 0.15
37 0.15
38 0.15
39 0.15
4 -0.81
40 0.15
41 0.15
42 0.15
43 0.15
5 -0.34
6 -0.34
7 0.91
8 -0.62
9 0.18

> <PUBCHEM_EFFECTIVE_ROTOR_COUNT>
6

> <PUBCHEM_PHARMACOPHORE_FEATURES>
9
1 2 acceptor
1 2 anion
1 3 acceptor
1 4 cation
1 8 acceptor
5 1 5 6 14 18 rings
5 4 9 10 11 12 rings
6 15 16 17 19 20 21 rings
6 8 22 23 24 25 26 rings

> <PUBCHEM_HEAVY_ATOM_COUNT>
26

> <PUBCHEM_ATOM_DEF_STEREO_COUNT>
1

> <PUBCHEM_ATOM_UDEF_STEREO_COUNT>
0

> <PUBCHEM_BOND_DEF_STEREO_COUNT>
0

> <PUBCHEM_BOND_UDEF_STEREO_COUNT>
0

> <PUBCHEM_ISOTOPIC_ATOM_COUNT>
0

> <PUBCHEM_COMPONENT_COUNT>
1

> <PUBCHEM_CACTVS_TAUTO_COUNT>
1

> <PUBCHEM_CONFORMER_ID>
030C4B1C00000001

> <PUBCHEM_MMFF94_ENERGY>
61.5639

> <PUBCHEM_FEATURE_SELFOVERLAP>
45.754

> <PUBCHEM_SHAPE_FINGERPRINT>
10 15 17676206883309950880
10074138 170 16081656706738109106
10299344 5 18131067130582221127
10319688 67 16153707660566874865
10411042 1 17905325127628267562
10595046 47 18341609304770170007
106641 1 13840269208723931678
10670039 82 15554457266735872867
10673678 19 18272655670864912822
11315181 36 18412825782083874111
11646440 116 17458063768096715308
11719270 70 13045942391481347545
11724838 91 18040152945912764255
12592606 108 8790885181315327881
12730499 353 18187366498159264490
12760667 363 10231764400411973134
12788726 201 17275109392457308698
12821665 9 18267581484732373527
13533116 47 17240755126468896826
13668630 136 11599998852223908317
13685833 64 10087643702177769964
13690498 29 17344334799404339783
13955234 65 17896591800503548714
14216079 64 10447936061613288468
14251757 52 18343022156006116041
14394314 77 18341056233680321577
14461889 52 17531253880390806451
14681490 219 18413387627245159952
14849402 71 18411420652535391153
14856354 85 17203609307466869655
14933364 13 18412826875997632005
15183329 4 16773801402220960728
15188451 53 11963385245948317342
15419008 145 18116700843340892568
15475509 35 15937240094369730082
15475509 8 14045748122991454523
15685185 35 18193278718327086380
15690457 1 11458425756105536201
15728490 51 18335701698157522247
15840311 113 18410579444556155301
17844677 252 18267870479996118807
18335252 98 18409453609332713475
18393751 57 17530963622501191842
20157964 124 18410012118205288034
20554085 129 16225760818162003305
21033648 29 18191017006166147432
21049683 271 18272931652964217433
21298829 104 18340205301948127644
21307412 95 13038908875569997892
21521721 280 18335704927487424747
21585482 111 18263081024378723021
21641784 216 16486981656617037201
22079108 93 17894911815075461595
2215653 11 12247678283492411190
22224240 67 17675924304975187683
23389318 12 18341320181242741399
23522609 53 17846230929756426617
2747138 104 17530977856165365489
2838139 119 18335129904618018748
28498 318 10375876268704826035
3014063 24 8430322333466572992
335352 9 18409733959686992270
3472631 163 18271528684605560452
34797466 226 18202006499324083567
3711267 37 17632584846532569561
397830 11 18041572424430915427
4073 2 18260833725748402851
4325135 7 18412824681475111071
4340502 62 17385441016539609546
444735 82 18259989245305456141
445580 126 18411691102736553144
445580 167 18340760516675277751
5104073 3 16951678087307963105
5265222 85 17560513040268354727
5312510 48 18341891944005180688
5372103 7 15911903133408815592
5385378 56 18261385642943144770
543368 44 18410853270259356445
559249 180 8142089767166097693
5758199 1 18333732424832764931
5911458 16 18131077025818060977
59682541 35 17749394793172107489
59682541 52 17489041388045246806
6328613 192 18272652329707592681
6438161 24 9871751269659344284

> <PUBCHEM_SHAPE_MULTIPOLES>
492.55
22.8
2.42
0.96
13.1
0.24
-0.08
13.62
-0.5
-4.06
-0.19
0.77
-0.14
-1.07

> <PUBCHEM_SHAPE_SELFOVERLAP>
1076.278

> <PUBCHEM_SHAPE_VOLUME>
268.3

> <PUBCHEM_COORDINATE_TYPE>
2
5
10

$$$$
