51137442
  -OEChem-12032416243D

 48 52  0     1  0  0  0  0  0999 V2000
    2.5498   -0.7915    0.1643 O   0  0  0  0  0  0  0  0  0  0  0  0
   -3.9669    1.1902   -0.1451 O   0  0  0  0  0  0  0  0  0  0  0  0
   -1.4719   -1.0102   -0.3205 N   0  0  1  0  0  0  0  0  0  0  0  0
    2.8932   -3.0019    0.1880 N   0  0  0  0  0  0  0  0  0  0  0  0
    4.1247   -2.3792    0.1066 N   0  0  0  0  0  0  0  0  0  0  0  0
    0.4972   -2.1192    0.3056 C   0  0  1  0  0  0  0  0  0  0  0  0
   -0.1185   -1.4298    1.5355 C   0  0  0  0  0  0  0  0  0  0  0  0
   -0.2069   -1.4730   -0.8951 C   0  0  0  0  0  0  0  0  0  0  0  0
   -1.1075   -0.4201    0.9675 C   0  0  0  0  0  0  0  0  0  0  0  0
   -2.1629   -0.0665   -1.1867 C   0  0  0  0  0  0  0  0  0  0  0  0
    2.0038   -2.0371    0.2194 C   0  0  0  0  0  0  0  0  0  0  0  0
   -3.6180    0.0661   -0.8235 C   0  0  0  0  0  0  0  0  0  0  0  0
   -4.7160   -0.7348   -1.0373 C   0  0  0  0  0  0  0  0  0  0  0  0
    3.8758   -1.0905    0.0953 C   0  0  0  0  0  0  0  0  0  0  0  0
   -5.8215   -0.0629   -0.4521 C   0  0  0  0  0  0  0  0  0  0  0  0
   -5.3085    1.1145    0.0825 C   0  0  0  0  0  0  0  0  0  0  0  0
    4.7686    0.0296    0.0235 C   0  0  0  0  0  0  0  0  0  0  0  0
   -7.1969   -0.3194   -0.3151 C   0  0  0  0  0  0  0  0  0  0  0  0
   -6.0741    2.0675    0.7519 C   0  0  0  0  0  0  0  0  0  0  0  0
   -7.9929    0.6206    0.3538 C   0  0  0  0  0  0  0  0  0  0  0  0
   -7.4391    1.7921    0.8765 C   0  0  0  0  0  0  0  0  0  0  0  0
    6.1458   -0.1801   -0.0494 C   0  0  0  0  0  0  0  0  0  0  0  0
    4.2600    1.3285    0.0261 C   0  0  0  0  0  0  0  0  0  0  0  0
    7.0142    0.9091   -0.1195 C   0  0  0  0  0  0  0  0  0  0  0  0
    5.1285    2.4176   -0.0440 C   0  0  0  0  0  0  0  0  0  0  0  0
    6.5056    2.2079   -0.1168 C   0  0  0  0  0  0  0  0  0  0  0  0
    7.4345    3.3725   -0.1914 C   0  0  0  0  0  0  0  0  0  0  0  0
    0.2280   -3.1839    0.3455 H   0  0  0  0  0  0  0  0  0  0  0  0
    0.6215   -0.9446    2.1807 H   0  0  0  0  0  0  0  0  0  0  0  0
   -0.6493   -2.1752    2.1410 H   0  0  0  0  0  0  0  0  0  0  0  0
    0.3757   -0.6369   -1.3041 H   0  0  0  0  0  0  0  0  0  0  0  0
   -0.3690   -2.2009   -1.6976 H   0  0  0  0  0  0  0  0  0  0  0  0
   -1.9692   -0.2941    1.6306 H   0  0  0  0  0  0  0  0  0  0  0  0
   -0.6120    0.5520    0.8475 H   0  0  0  0  0  0  0  0  0  0  0  0
   -1.6784    0.9182   -1.1995 H   0  0  0  0  0  0  0  0  0  0  0  0
   -2.1378   -0.4335   -2.2219 H   0  0  0  0  0  0  0  0  0  0  0  0
   -4.7218   -1.6859   -1.5510 H   0  0  0  0  0  0  0  0  0  0  0  0
   -7.6414   -1.2252   -0.7163 H   0  0  0  0  0  0  0  0  0  0  0  0
   -5.6374    2.9735    1.1548 H   0  0  0  0  0  0  0  0  0  0  0  0
   -9.0579    0.4343    0.4668 H   0  0  0  0  0  0  0  0  0  0  0  0
   -8.0813    2.5033    1.3903 H   0  0  0  0  0  0  0  0  0  0  0  0
    6.5643   -1.1836   -0.0533 H   0  0  0  0  0  0  0  0  0  0  0  0
    3.1935    1.5318    0.0811 H   0  0  0  0  0  0  0  0  0  0  0  0
    8.0851    0.7331   -0.1777 H   0  0  0  0  0  0  0  0  0  0  0  0
    4.7205    3.4250   -0.0430 H   0  0  0  0  0  0  0  0  0  0  0  0
    8.3959    3.1419    0.2802 H   0  0  0  0  0  0  0  0  0  0  0  0
    7.0216    4.2415    0.3320 H   0  0  0  0  0  0  0  0  0  0  0  0
    7.6126    3.6444   -1.2365 H   0  0  0  0  0  0  0  0  0  0  0  0
  1 11  1  0  0  0  0
  1 14  1  0  0  0  0
  2 12  1  0  0  0  0
  2 16  1  0  0  0  0
  3  8  1  0  0  0  0
  3  9  1  0  0  0  0
  3 10  1  0  0  0  0
  4  5  1  0  0  0  0
  4 11  2  0  0  0  0
  5 14  2  0  0  0  0
  6  7  1  0  0  0  0
  6  8  1  0  0  0  0
  6 11  1  0  0  0  0
  6 28  1  0  0  0  0
  7  9  1  0  0  0  0
  7 29  1  0  0  0  0
  7 30  1  0  0  0  0
  8 31  1  0  0  0  0
  8 32  1  0  0  0  0
  9 33  1  0  0  0  0
  9 34  1  0  0  0  0
 10 12  1  0  0  0  0
 10 35  1  0  0  0  0
 10 36  1  0  0  0  0
 12 13  2  0  0  0  0
 13 15  1  0  0  0  0
 13 37  1  0  0  0  0
 14 17  1  0  0  0  0
 15 16  1  0  0  0  0
 15 18  2  0  0  0  0
 16 19  2  0  0  0  0
 17 22  2  0  0  0  0
 17 23  1  0  0  0  0
 18 20  1  0  0  0  0
 18 38  1  0  0  0  0
 19 21  1  0  0  0  0
 19 39  1  0  0  0  0
 20 21  2  0  0  0  0
 20 40  1  0  0  0  0
 21 41  1  0  0  0  0
 22 24  1  0  0  0  0
 22 42  1  0  0  0  0
 23 25  2  0  0  0  0
 23 43  1  0  0  0  0
 24 26  2  0  0  0  0
 24 44  1  0  0  0  0
 25 26  1  0  0  0  0
 25 45  1  0  0  0  0
 26 27  1  0  0  0  0
 27 46  1  0  0  0  0
 27 47  1  0  0  0  0
 27 48  1  0  0  0  0
M  END
> <PUBCHEM_COMPOUND_CID>
51137442

> <PUBCHEM_CONFORMER_RMSD>
0.8

> <PUBCHEM_CONFORMER_DIVERSEORDER>
1
112
55
50
144
24
137
110
103
54
53
135
2
136
141
104
93
94
128
149
73
154
143
100
37
145
9
34
69
78
15
39
148
147
142
62
33
31
85
146
105
18
118
127
17
140
60
131
29
4
117
36
68
42
52
41
22
76
101
132
71
151
72
38
30
150
153
95
32
99
74
40
139
89
67
11
35
56
82
138
122
133
26
121
88
75
57
87
129
115
98
28
58
13
96
61
152
10
46
70
92
5
65
134
126
84
120
77
113
3
109
51
130
91
97
12
81
64
23
155
20
116
114
108
7
27
124
6
125
107
19
123
48
79
47
83
25
90
44
49
119
80
111
63
21
8
43
102
86
14
45
16
106
59
66

> <PUBCHEM_MMFF94_PARTIAL_CHARGES>
34
1 -0.28
10 0.45
11 0.3
12 -0.04
13 -0.15
14 0.43
16 0.14
17 0.05
18 -0.15
19 -0.15
2 -0.28
20 -0.15
21 -0.15
22 -0.15
23 -0.15
24 -0.15
25 -0.15
26 -0.14
27 0.14
3 -0.81
37 0.15
38 0.15
39 0.15
4 -0.34
40 0.15
41 0.15
42 0.15
43 0.15
44 0.15
45 0.15
5 -0.34
6 0.18
8 0.27
9 0.27

> <PUBCHEM_EFFECTIVE_ROTOR_COUNT>
5

> <PUBCHEM_PHARMACOPHORE_FEATURES>
7
1 2 acceptor
1 3 cation
5 1 4 5 11 14 rings
5 2 12 13 15 16 rings
5 3 6 7 8 9 rings
6 15 16 18 19 20 21 rings
6 17 22 23 24 25 26 rings

> <PUBCHEM_HEAVY_ATOM_COUNT>
27

> <PUBCHEM_ATOM_DEF_STEREO_COUNT>
1

> <PUBCHEM_ATOM_UDEF_STEREO_COUNT>
0

> <PUBCHEM_BOND_DEF_STEREO_COUNT>
0

> <PUBCHEM_BOND_UDEF_STEREO_COUNT>
0

> <PUBCHEM_ISOTOPIC_ATOM_COUNT>
0

> <PUBCHEM_COMPONENT_COUNT>
1

> <PUBCHEM_CACTVS_TAUTO_COUNT>
1

> <PUBCHEM_CONFORMER_ID>
030C4BA200000001

> <PUBCHEM_MMFF94_ENERGY>
49.9555

> <PUBCHEM_FEATURE_SELFOVERLAP>
35.626

> <PUBCHEM_SHAPE_FINGERPRINT>
10 15 17603304860094324899
10074138 170 16153997966070160555
10319688 67 16226048920183470601
10411042 1 17905325127586115034
10595046 47 18341608205506592047
10638233 991 18343860009609768329
10670039 82 15626231178416054067
10673678 19 18272374178487040278
10838868 160 18270389603212913112
11273773 42 18341890843939236589
11315181 36 18411980244788789613
11374522 155 18041847340550252716
11408170 253 17630895889699537273
11456790 92 18260823770652007920
11646440 116 17385443215388727020
1200032 147 18187927322509647192
12035758 1 16805044033930194255
12236239 1 18271805675583964831
12522641 24 17532081696751113274
12592606 108 8862942771248166601
12760667 363 10303821994207320975
12788726 201 17274826809231375104
12821665 9 18339920524030426519
13690498 29 17344897745289647079
13911852 28 9511469922187831858
13955234 65 17896312511417343362
14142895 15 18411417345805510759
14394314 77 18341056237943620793
14428016 167 9078852766015343592
14461889 52 17530973500884074275
14565420 104 18113615677599636690
14849402 71 18411702123348957873
14856354 85 17346313813650483431
14931854 50 17917443064004256000
14933364 13 18413108338427109279
15183329 4 17060342924491838849
15188451 53 11891328751168900526
15276724 80 18338796698434707725
15357212 105 16734973361353675228
15419008 145 18116983404807068656
15475509 8 14045747019385442955
15685185 35 18265899244990782276
15728490 51 18336264652543171415
15840311 113 18338240358514641285
16126227 98 18338797917650985983
16989713 51 16629668704666090743
16992752 21 17915170438068401855
16994733 274 18411134719345308345
18393751 57 17748825241363692330
19302320 297 18114742742012711556
19438510 23 18187922941394981800
20157964 124 18410012113815505130
2026 5 9151175342482250609
20691028 202 18120936368226446036
21033648 29 18191297381567822832
21298829 104 18411701028105852132
21304303 64 18334293197127354925
21304304 249 8862947190759159904
21521721 280 18335704923271650155
21585482 111 18263643978780027437
21641784 216 16343709781422852331
2215653 11 12319731475352559911
22224240 67 17676205775778334739
22956985 138 13625191406367043208
23389318 12 18341601656298683783
23522609 53 17846228705047568433
24771293 8 18186521033356170717
25269216 80 16844718880563983653
2747138 104 17458921353217857865
2838139 119 18334565837862220262
34797466 226 18201723916509704047
3711267 37 17775573026652754921
397830 11 18114194050922925779
406291 66 9943265718324031452
4073 2 18334016120466362747
4093350 32 17846501418143178700
4169191 19 18412823556769160325
4366758 26 18340777008607324736
437815 12 11312057655708832059
444735 82 18260552186784915917
445580 126 18411128144092847008
474113 269 10881393262414373809
5080951 261 16515683412214621619
5104073 3 16589420874860903865
5265222 85 17703221940219388439
5372103 7 16055735734032108472
5385378 56 18261105262972123898
54076057 255 17988638580152445953
543368 44 18410853270486079869
559249 180 7853570215393532457
5718773 13 9511469913830226756
5758199 1 18333733520133808403
5776283 40 18199186372744089880
5911458 16 18202289091193082305
59682541 35 17748832929935082841
6328613 192 18272088263120690193
6608658 132 17059790922357269441
9689198 14 18272094902470041461

> <PUBCHEM_SHAPE_MULTIPOLES>
528.97
24.69
3.01
0.97
10.08
0.49
-0.06
20.36
-0.32
-5.23
-0.34
0.9
-0.13
-1.51

> <PUBCHEM_SHAPE_SELFOVERLAP>
1172.805

> <PUBCHEM_SHAPE_VOLUME>
287.3

> <PUBCHEM_COORDINATE_TYPE>
2
5
10

$$$$
