51136861
  -OEChem-12032416223D

 61 65  0     1  0  0  0  0  0999 V2000
    1.0292    2.8107    0.1667 F   0  0  0  0  0  0  0  0  0  0  0  0
   -0.1054    4.2253    1.3664 F   0  0  0  0  0  0  0  0  0  0  0  0
    0.1362    4.5512   -0.7697 F   0  0  0  0  0  0  0  0  0  0  0  0
   -2.7949   -1.6324    2.0646 O   0  0  0  0  0  0  0  0  0  0  0  0
   -4.6789   -0.8423   -0.9902 N   0  0  1  0  0  0  0  0  0  0  0  0
    4.4595   -0.8042   -0.1011 N   0  0  0  0  0  0  0  0  0  0  0  0
    7.2869   -0.6807   -0.4884 N   0  0  0  0  0  0  0  0  0  0  0  0
   -1.9171   -1.3477    0.0237 N   0  0  0  0  0  0  0  0  0  0  0  0
   -1.4096   -1.5350    2.2466 N   0  0  0  0  0  0  0  0  0  0  0  0
    2.7159   -1.1098    1.4706 N   0  0  0  0  0  0  0  0  0  0  0  0
   -4.4482   -1.5846    0.2651 C   0  0  1  0  0  0  0  0  0  0  0  0
   -4.9025   -3.0234   -0.0421 C   0  0  0  0  0  0  0  0  0  0  0  0
   -5.4282   -2.9782   -1.4698 C   0  0  0  0  0  0  0  0  0  0  0  0
   -5.7813   -1.5188   -1.6739 C   0  0  0  0  0  0  0  0  0  0  0  0
   -4.9514    0.5735   -0.7787 C   0  0  0  0  0  0  0  0  0  0  0  0
   -3.0082   -1.5124    0.7279 C   0  0  0  0  0  0  0  0  0  0  0  0
   -3.6891    1.3572   -0.5347 C   0  0  0  0  0  0  0  0  0  0  0  0
    5.3150   -0.1777    0.9146 C   0  0  0  0  0  0  0  0  0  0  0  0
    5.1232   -1.7718   -0.9803 C   0  0  0  0  0  0  0  0  0  0  0  0
    6.5962    0.3645    0.2769 C   0  0  0  0  0  0  0  0  0  0  0  0
    6.4115   -1.1786   -1.5563 C   0  0  0  0  0  0  0  0  0  0  0  0
   -0.9624   -1.3682    0.9985 C   0  0  0  0  0  0  0  0  0  0  0  0
    3.0969   -0.9461    0.1838 C   0  0  0  0  0  0  0  0  0  0  0  0
   -3.5339    2.0776    0.6496 C   0  0  0  0  0  0  0  0  0  0  0  0
   -2.6747    1.3621   -1.4921 C   0  0  0  0  0  0  0  0  0  0  0  0
    8.5365   -0.1661   -1.0474 C   0  0  0  0  0  0  0  0  0  0  0  0
    0.4299   -1.2208    0.6915 C   0  0  0  0  0  0  0  0  0  0  0  0
    2.2179   -0.9098   -0.8868 C   0  0  0  0  0  0  0  0  0  0  0  0
   -2.3644    2.8030    0.8765 C   0  0  0  0  0  0  0  0  0  0  0  0
   -1.5052    2.0877   -1.2654 C   0  0  0  0  0  0  0  0  0  0  0  0
    0.8606   -1.0504   -0.6195 C   0  0  0  0  0  0  0  0  0  0  0  0
   -1.3501    2.8081   -0.0810 C   0  0  0  0  0  0  0  0  0  0  0  0
    1.3888   -1.2433    1.6914 C   0  0  0  0  0  0  0  0  0  0  0  0
   -0.0986    3.5813    0.1630 C   0  0  0  0  0  0  0  0  0  0  0  0
   -5.0904   -1.1984    1.0692 H   0  0  0  0  0  0  0  0  0  0  0  0
   -5.7144   -3.3068    0.6387 H   0  0  0  0  0  0  0  0  0  0  0  0
   -4.1063   -3.7693    0.0558 H   0  0  0  0  0  0  0  0  0  0  0  0
   -6.2853   -3.6420   -1.6163 H   0  0  0  0  0  0  0  0  0  0  0  0
   -4.6381   -3.2820   -2.1677 H   0  0  0  0  0  0  0  0  0  0  0  0
   -6.7491   -1.2928   -1.2085 H   0  0  0  0  0  0  0  0  0  0  0  0
   -5.8279   -1.2613   -2.7365 H   0  0  0  0  0  0  0  0  0  0  0  0
   -5.6852    0.7311    0.0227 H   0  0  0  0  0  0  0  0  0  0  0  0
   -5.4057    1.0048   -1.6819 H   0  0  0  0  0  0  0  0  0  0  0  0
    5.5611   -0.9117    1.6927 H   0  0  0  0  0  0  0  0  0  0  0  0
    4.7922    0.6580    1.3967 H   0  0  0  0  0  0  0  0  0  0  0  0
    5.3492   -2.6812   -0.4086 H   0  0  0  0  0  0  0  0  0  0  0  0
    4.4802   -2.0693   -1.8164 H   0  0  0  0  0  0  0  0  0  0  0  0
    7.2470    0.7359    1.0778 H   0  0  0  0  0  0  0  0  0  0  0  0
    6.3517    1.2195   -0.3681 H   0  0  0  0  0  0  0  0  0  0  0  0
    6.1615   -0.3734   -2.2605 H   0  0  0  0  0  0  0  0  0  0  0  0
    6.9244   -1.9629   -2.1262 H   0  0  0  0  0  0  0  0  0  0  0  0
   -4.3149    2.0806    1.4052 H   0  0  0  0  0  0  0  0  0  0  0  0
   -2.7825    0.8091   -2.4215 H   0  0  0  0  0  0  0  0  0  0  0  0
    9.0696   -0.9561   -1.5880 H   0  0  0  0  0  0  0  0  0  0  0  0
    8.3707    0.6710   -1.7352 H   0  0  0  0  0  0  0  0  0  0  0  0
    9.2046    0.1720   -0.2475 H   0  0  0  0  0  0  0  0  0  0  0  0
    2.5510   -0.7609   -1.9087 H   0  0  0  0  0  0  0  0  0  0  0  0
   -2.2626    3.3562    1.8060 H   0  0  0  0  0  0  0  0  0  0  0  0
   -0.7200    2.0847   -2.0166 H   0  0  0  0  0  0  0  0  0  0  0  0
    0.1616   -1.0195   -1.4513 H   0  0  0  0  0  0  0  0  0  0  0  0
    1.1360   -1.3715    2.7398 H   0  0  0  0  0  0  0  0  0  0  0  0
  1 34  1  0  0  0  0
  2 34  1  0  0  0  0
  3 34  1  0  0  0  0
  4  9  1  0  0  0  0
  4 16  1  0  0  0  0
  5 11  1  0  0  0  0
  5 14  1  0  0  0  0
  5 15  1  0  0  0  0
  6 18  1  0  0  0  0
  6 19  1  0  0  0  0
  6 23  1  0  0  0  0
  7 20  1  0  0  0  0
  7 21  1  0  0  0  0
  7 26  1  0  0  0  0
  8 16  2  0  0  0  0
  8 22  1  0  0  0  0
  9 22  2  0  0  0  0
 10 23  2  0  0  0  0
 10 33  1  0  0  0  0
 11 12  1  0  0  0  0
 11 16  1  0  0  0  0
 11 35  1  0  0  0  0
 12 13  1  0  0  0  0
 12 36  1  0  0  0  0
 12 37  1  0  0  0  0
 13 14  1  0  0  0  0
 13 38  1  0  0  0  0
 13 39  1  0  0  0  0
 14 40  1  0  0  0  0
 14 41  1  0  0  0  0
 15 17  1  0  0  0  0
 15 42  1  0  0  0  0
 15 43  1  0  0  0  0
 17 24  2  0  0  0  0
 17 25  1  0  0  0  0
 18 20  1  0  0  0  0
 18 44  1  0  0  0  0
 18 45  1  0  0  0  0
 19 21  1  0  0  0  0
 19 46  1  0  0  0  0
 19 47  1  0  0  0  0
 20 48  1  0  0  0  0
 20 49  1  0  0  0  0
 21 50  1  0  0  0  0
 21 51  1  0  0  0  0
 22 27  1  0  0  0  0
 23 28  1  0  0  0  0
 24 29  1  0  0  0  0
 24 52  1  0  0  0  0
 25 30  2  0  0  0  0
 25 53  1  0  0  0  0
 26 54  1  0  0  0  0
 26 55  1  0  0  0  0
 26 56  1  0  0  0  0
 27 31  1  0  0  0  0
 27 33  2  0  0  0  0
 28 31  2  0  0  0  0
 28 57  1  0  0  0  0
 29 32  2  0  0  0  0
 29 58  1  0  0  0  0
 30 32  1  0  0  0  0
 30 59  1  0  0  0  0
 31 60  1  0  0  0  0
 32 34  1  0  0  0  0
 33 61  1  0  0  0  0
M  END
> <PUBCHEM_COMPOUND_CID>
51136861

> <PUBCHEM_CONFORMER_RMSD>
1.2

> <PUBCHEM_CONFORMER_DIVERSEORDER>
1
69
72
40
81
10
60
8
58
30
35
65
21
59
6
70
84
51
75
73
71
5
50
26
63
20
62
68
53
45
13
36
41
44
57
27
76
4
66
43
78
67
54
32
64
12
79
23
29
80
15
14
55
52
24
38
25
11
56
83
16
82
18
17
7
49
28
74
39
37
47
31
61
48
33
9
19
77
46
34
42
22
3
85
2

> <PUBCHEM_MMFF94_PARTIAL_CHARGES>
39
1 -0.34
10 -0.62
11 0.45
14 0.27
15 0.41
16 0.3
17 -0.14
18 0.37
19 0.37
2 -0.34
20 0.27
21 0.27
22 0.46
23 0.41
24 -0.15
25 -0.15
26 0.27
27 0.05
28 -0.15
29 -0.15
3 -0.34
30 -0.15
31 -0.15
32 -0.14
33 0.16
34 1.16
4 -0.02
5 -0.81
52 0.15
53 0.15
57 0.15
58 0.15
59 0.15
6 -0.84
60 0.15
61 0.15
7 -0.81
8 -0.57
9 -0.41

> <PUBCHEM_EFFECTIVE_ROTOR_COUNT>
8.2

> <PUBCHEM_PHARMACOPHORE_FEATURES>
9
1 5 cation
1 7 cation
3 6 10 23 cation
3 8 9 22 cation
5 4 8 9 16 22 rings
5 5 11 12 13 14 rings
6 10 23 27 28 31 33 rings
6 17 24 25 29 30 32 rings
6 6 7 18 19 20 21 rings

> <PUBCHEM_HEAVY_ATOM_COUNT>
34

> <PUBCHEM_ATOM_DEF_STEREO_COUNT>
1

> <PUBCHEM_ATOM_UDEF_STEREO_COUNT>
0

> <PUBCHEM_BOND_DEF_STEREO_COUNT>
0

> <PUBCHEM_BOND_UDEF_STEREO_COUNT>
0

> <PUBCHEM_ISOTOPIC_ATOM_COUNT>
0

> <PUBCHEM_COMPONENT_COUNT>
1

> <PUBCHEM_CACTVS_TAUTO_COUNT>
1

> <PUBCHEM_CONFORMER_ID>
030C495D00000001

> <PUBCHEM_MMFF94_ENERGY>
77.1343

> <PUBCHEM_FEATURE_SELFOVERLAP>
45.676

> <PUBCHEM_SHAPE_FINGERPRINT>
10032420 55 17750212786731198397
10454371 7 18409736140786573628
10670039 82 18334295341043567930
1100329 8 18410286987970865833
11297750 10 16955653105310891691
11445158 3 16343417410130201504
11477941 20 18412537721651259516
11524674 6 8214144044956679264
12788726 201 18188767241164471827
13761468 95 17827922819385953911
13782708 43 17775005657452363422
14068700 675 18201438125253955473
14931854 50 18114168719010511543
15264996 44 18127691741807851932
15419008 47 18131627890176298584
15876981 60 18409175398050665085
15968369 153 18201428234330193768
16067689 302 17976260458899846035
17492 54 18042675127498966625
18336668 15 17894919524573484965
20721686 56 18337390569197022336
20775438 99 17476616042905145511
21057603 43 17913490418592176523
21344244 246 17907568487287091895
21927370 108 18336561485794918643
23516275 100 18192981846088382848
23559900 14 17823410681738177271
255183 451 18052812835335143199
354706 132 18190469255965239620
392239 28 18408886209302569656
497634 4 17561090193472875770
5171179 24 18269831068216586785
531348 171 18198908011175342134
5969126 39 18342176669902446950
6608658 132 18334851684530276822

> <PUBCHEM_SHAPE_MULTIPOLES>
642.13
16.66
4.31
1.66
31.79
5.32
0.3
-10.04
-7.51
-5.04
0.12
-0.47
-0.57
-0.03

> <PUBCHEM_SHAPE_SELFOVERLAP>
1391.902

> <PUBCHEM_SHAPE_VOLUME>
354.4

> <PUBCHEM_COORDINATE_TYPE>
2
5
10

$$$$
