45783610
  -OEChem-12032416273D

 46 49  0     1  0  0  0  0  0999 V2000
    5.5607    0.8366    0.6701 S   0  0  0  0  0  0  0  0  0  0  0  0
   -2.2812   -1.4932   -0.9156 O   0  0  0  0  0  0  0  0  0  0  0  0
    6.3421    1.3610    1.7745 O   0  0  0  0  0  0  0  0  0  0  0  0
    6.1749   -0.0171   -0.3273 O   0  0  0  0  0  0  0  0  0  0  0  0
   -4.2690    0.3280    0.3110 N   0  0  1  0  0  0  0  0  0  0  0  0
   -0.9086   -0.8485    0.7328 N   0  0  0  0  0  0  0  0  0  0  0  0
   -1.5701    2.6010    0.3632 N   0  0  0  0  0  0  0  0  0  0  0  0
   -2.5737    2.1022   -1.5540 N   0  0  0  0  0  0  0  0  0  0  0  0
   -0.9801   -1.7287   -1.3776 N   0  0  0  0  0  0  0  0  0  0  0  0
    4.1353    0.1106    1.3085 N   0  0  0  0  0  0  0  0  0  0  0  0
    3.9982   -1.4856   -0.4232 N   0  0  0  0  0  0  0  0  0  0  0  0
   -3.4317   -0.6300    1.0605 C   0  0  1  0  0  0  0  0  0  0  0  0
   -4.3390   -1.8548    1.2788 C   0  0  0  0  0  0  0  0  0  0  0  0
   -5.6810   -1.4689    0.6733 C   0  0  0  0  0  0  0  0  0  0  0  0
   -5.6550    0.0462    0.6848 C   0  0  0  0  0  0  0  0  0  0  0  0
   -3.9077    1.7188    0.5533 C   0  0  0  0  0  0  0  0  0  0  0  0
   -2.1489   -0.9749    0.3335 C   0  0  0  0  0  0  0  0  0  0  0  0
   -2.7006    2.1320   -0.2461 C   0  0  0  0  0  0  0  0  0  0  0  0
   -0.2278   -1.3237   -0.3501 C   0  0  0  0  0  0  0  0  0  0  0  0
    1.2053   -1.3791   -0.3740 C   0  0  0  0  0  0  0  0  0  0  0  0
   -0.6647    2.8886   -0.6190 C   0  0  0  0  0  0  0  0  0  0  0  0
   -1.3067    2.5726   -1.7931 C   0  0  0  0  0  0  0  0  0  0  0  0
    1.9493   -0.5904    0.4966 C   0  0  0  0  0  0  0  0  0  0  0  0
    1.8561   -2.2209   -1.2692 C   0  0  0  0  0  0  0  0  0  0  0  0
    3.3306   -0.6796    0.4327 C   0  0  0  0  0  0  0  0  0  0  0  0
    3.2415   -2.2372   -1.2540 C   0  0  0  0  0  0  0  0  0  0  0  0
    4.8516    2.2350   -0.1701 C   0  0  0  0  0  0  0  0  0  0  0  0
   -3.1669   -0.2323    2.0500 H   0  0  0  0  0  0  0  0  0  0  0  0
   -4.4626   -2.0318    2.3544 H   0  0  0  0  0  0  0  0  0  0  0  0
   -3.9601   -2.7798    0.8310 H   0  0  0  0  0  0  0  0  0  0  0  0
   -6.5233   -1.8786    1.2385 H   0  0  0  0  0  0  0  0  0  0  0  0
   -5.7465   -1.8428   -0.3560 H   0  0  0  0  0  0  0  0  0  0  0  0
   -6.3690    0.4658   -0.0306 H   0  0  0  0  0  0  0  0  0  0  0  0
   -5.8908    0.4231    1.6881 H   0  0  0  0  0  0  0  0  0  0  0  0
   -3.7705    1.9291    1.6217 H   0  0  0  0  0  0  0  0  0  0  0  0
   -4.7239    2.3719    0.2151 H   0  0  0  0  0  0  0  0  0  0  0  0
   -1.4261    2.7129    1.3580 H   0  0  0  0  0  0  0  0  0  0  0  0
    0.3195    3.2757   -0.3988 H   0  0  0  0  0  0  0  0  0  0  0  0
   -0.9206    2.6585   -2.7983 H   0  0  0  0  0  0  0  0  0  0  0  0
    1.4755    0.0830    1.2049 H   0  0  0  0  0  0  0  0  0  0  0  0
    1.3250   -2.8612   -1.9660 H   0  0  0  0  0  0  0  0  0  0  0  0
    3.7973   -2.8772   -1.9313 H   0  0  0  0  0  0  0  0  0  0  0  0
    3.6195    0.6495    2.0162 H   0  0  0  0  0  0  0  0  0  0  0  0
    4.2949    2.8375    0.5501 H   0  0  0  0  0  0  0  0  0  0  0  0
    4.2015    1.8809   -0.9721 H   0  0  0  0  0  0  0  0  0  0  0  0
    5.6691    2.8242   -0.5916 H   0  0  0  0  0  0  0  0  0  0  0  0
  1  3  2  0  0  0  0
  1  4  2  0  0  0  0
  1 10  1  0  0  0  0
  1 27  1  0  0  0  0
  2  9  1  0  0  0  0
  2 17  1  0  0  0  0
  5 12  1  0  0  0  0
  5 15  1  0  0  0  0
  5 16  1  0  0  0  0
  6 17  2  0  0  0  0
  6 19  1  0  0  0  0
  7 18  1  0  0  0  0
  7 21  1  0  0  0  0
  7 37  1  0  0  0  0
  8 18  2  0  0  0  0
  8 22  1  0  0  0  0
  9 19  2  0  0  0  0
 10 25  1  0  0  0  0
 10 43  1  0  0  0  0
 11 25  2  0  0  0  0
 11 26  1  0  0  0  0
 12 13  1  0  0  0  0
 12 17  1  0  0  0  0
 12 28  1  0  0  0  0
 13 14  1  0  0  0  0
 13 29  1  0  0  0  0
 13 30  1  0  0  0  0
 14 15  1  0  0  0  0
 14 31  1  0  0  0  0
 14 32  1  0  0  0  0
 15 33  1  0  0  0  0
 15 34  1  0  0  0  0
 16 18  1  0  0  0  0
 16 35  1  0  0  0  0
 16 36  1  0  0  0  0
 19 20  1  0  0  0  0
 20 23  2  0  0  0  0
 20 24  1  0  0  0  0
 21 22  2  0  0  0  0
 21 38  1  0  0  0  0
 22 39  1  0  0  0  0
 23 25  1  0  0  0  0
 23 40  1  0  0  0  0
 24 26  2  0  0  0  0
 24 41  1  0  0  0  0
 26 42  1  0  0  0  0
 27 44  1  0  0  0  0
 27 45  1  0  0  0  0
 27 46  1  0  0  0  0
M  END
> <PUBCHEM_COMPOUND_CID>
45783610

> <PUBCHEM_CONFORMER_RMSD>
1

> <PUBCHEM_CONFORMER_DIVERSEORDER>
3
108
129
66
125
132
15
75
65
105
22
106
69
49
133
57
109
53
92
95
35
18
59
21
130
42
118
40
83
30
77
119
29
79
6
107
20
121
63
54
96
84
10
99
115
16
127
78
33
134
11
45
82
26
81
43
61
1
13
50
85
116
94
128
117
114
64
113
120
37
25
124
39
87
58
67
86
90
34
4
80
73
7
110
41
89
91
2
111
36
27
88
76
55
131
60
28
112
23
126
17
72
31
52
12
103
62
51
47
14
71
97
32
70
100
24
46
122
102
101
8
19
93
74
48
104
5
56
44
123
38
9
68
98

> <PUBCHEM_MMFF94_PARTIAL_CHARGES>
32
1 1.33
10 -0.76
11 -0.62
12 0.45
15 0.27
16 0.45
17 0.3
18 0.01
19 0.46
2 -0.02
20 0.05
21 -0.3
22 0.08
23 -0.15
24 -0.15
25 0.51
26 0.16
27 0.11
3 -0.65
37 0.27
38 0.15
39 0.15
4 -0.65
40 0.15
41 0.15
42 0.15
43 0.42
5 -0.81
6 -0.57
7 0.03
8 -0.57
9 -0.41

> <PUBCHEM_EFFECTIVE_ROTOR_COUNT>
7

> <PUBCHEM_PHARMACOPHORE_FEATURES>
12
1 10 donor
1 11 acceptor
1 3 acceptor
1 4 acceptor
1 5 cation
1 7 donor
3 6 9 19 cation
3 7 8 18 cation
5 2 6 9 17 19 rings
5 5 12 13 14 15 rings
5 7 8 18 21 22 rings
6 11 20 23 24 25 26 rings

> <PUBCHEM_HEAVY_ATOM_COUNT>
27

> <PUBCHEM_ATOM_DEF_STEREO_COUNT>
1

> <PUBCHEM_ATOM_UDEF_STEREO_COUNT>
0

> <PUBCHEM_BOND_DEF_STEREO_COUNT>
0

> <PUBCHEM_BOND_UDEF_STEREO_COUNT>
0

> <PUBCHEM_ISOTOPIC_ATOM_COUNT>
0

> <PUBCHEM_COMPONENT_COUNT>
1

> <PUBCHEM_CACTVS_TAUTO_COUNT>
2

> <PUBCHEM_CONFORMER_ID>
02BA9A3A00000003

> <PUBCHEM_MMFF94_ENERGY>
43.1672

> <PUBCHEM_FEATURE_SELFOVERLAP>
60.926

> <PUBCHEM_SHAPE_FINGERPRINT>
10 15 18339636837282241208
10165383 225 17846219998769219810
10319926 262 18189324672728801482
10369192 42 17917148416199064604
10670039 82 18261408736818648716
11595378 159 17894905188177885104
12035758 1 18042421149372780001
12422481 6 18335706069569072816
12596602 18 17167576099041869112
13402501 40 18411418418835399192
13583140 156 17971460806844206034
14081887 123 18116435830456147885
14840074 17 18265902538934857740
15183329 4 10807940357613006056
15961568 22 18261401078449263652
17357779 13 18410003313680301333
20600515 1 17530975721419115015
21033648 29 18059846234321754155
21315764 268 18335981974363077454
21623110 236 18411427189391050857
22182313 1 18341333284486113806
23557571 272 18265631887697615791
23559900 14 18121226376342805246
25019877 29 17632020856964882591
392239 28 17968099754237206281
445580 44 16660642916922994469
469060 322 18198319918424542591
5104073 3 18338799992273463786
5265222 85 17253171116428448813
574716 61 14907312257551626960
57527585 21 17843665695745804053
621550 34 18271249335010582750
7399639 24 18413109433227610222
9925002 15 17843118371389353535

> <PUBCHEM_SHAPE_MULTIPOLES>
507.02
13.64
3.25
1.41
9.8
1.83
-0.19
1.01
5.82
-0.7
-1.2
0.4
0.08
2.14

> <PUBCHEM_SHAPE_SELFOVERLAP>
1082.747

> <PUBCHEM_SHAPE_VOLUME>
285.8

> <PUBCHEM_COORDINATE_TYPE>
2
5
10

$$$$
