38027656
  -OEChem-12032416143D

 61 62  0     1  0  0  0  0  0999 V2000
   -3.6448    0.8446   -1.6765 O   0  0  0  0  0  0  0  0  0  0  0  0
    2.8915   -0.7604    2.1703 O   0  0  0  0  0  0  0  0  0  0  0  0
   -4.3600    1.8434    1.0926 O   0  0  0  0  0  0  0  0  0  0  0  0
    2.4297   -1.4729    0.0104 N   0  0  0  0  0  0  0  0  0  0  0  0
   -2.1851    2.3700   -0.7053 N   0  0  0  0  0  0  0  0  0  0  0  0
    4.4196    3.1435   -0.5486 N   0  0  0  0  0  0  0  0  0  0  0  0
   -0.4948   -1.8425    0.6055 C   0  0  1  0  0  0  0  0  0  0  0  0
    0.4224   -2.8511   -0.1303 C   0  0  1  0  0  0  0  0  0  0  0  0
   -1.8120   -1.6561   -0.1629 C   0  0  0  0  0  0  0  0  0  0  0  0
   -1.5819   -1.1489   -1.5991 C   0  0  2  0  0  0  0  0  0  0  0  0
   -0.7904   -2.2855    2.0418 C   0  0  0  0  0  0  0  0  0  0  0  0
   -0.4918   -1.9300   -2.3043 C   0  0  0  0  0  0  0  0  0  0  0  0
    0.3863   -2.6959   -1.6326 C   0  0  0  0  0  0  0  0  0  0  0  0
    1.8707   -2.7411    0.3598 C   0  0  0  0  0  0  0  0  0  0  0  0
   -1.2767    0.3531   -1.6121 C   0  0  0  0  0  0  0  0  0  0  0  0
   -1.1487   -1.0815    2.9070 C   0  0  0  0  0  0  0  0  0  0  0  0
   -1.9132   -3.3178    2.0596 C   0  0  0  0  0  0  0  0  0  0  0  0
   -0.4622   -1.8471   -3.8051 C   0  0  0  0  0  0  0  0  0  0  0  0
   -2.5111    1.1864   -1.3510 C   0  0  0  0  0  0  0  0  0  0  0  0
    2.9045   -0.5662    0.9576 C   0  0  0  0  0  0  0  0  0  0  0  0
   -3.1674    3.3619   -0.3323 C   0  0  0  0  0  0  0  0  0  0  0  0
    3.4315    0.7202    0.4341 C   0  0  0  0  0  0  0  0  0  0  0  0
   -3.7136    3.1092    1.0611 C   0  0  0  0  0  0  0  0  0  0  0  0
    4.3941    1.4233    1.1501 C   0  0  0  0  0  0  0  0  0  0  0  0
    2.9624    1.2274   -0.7727 C   0  0  0  0  0  0  0  0  0  0  0  0
    4.8515    2.6192    0.6204 C   0  0  0  0  0  0  0  0  0  0  0  0
    3.4839    2.4319   -1.2165 C   0  0  0  0  0  0  0  0  0  0  0  0
   -4.8944    1.5627    2.3791 C   0  0  0  0  0  0  0  0  0  0  0  0
    0.0121   -0.8715    0.6471 H   0  0  0  0  0  0  0  0  0  0  0  0
    0.0848   -3.8739    0.0791 H   0  0  0  0  0  0  0  0  0  0  0  0
   -2.4908   -0.9775    0.3652 H   0  0  0  0  0  0  0  0  0  0  0  0
   -2.3396   -2.6129   -0.2671 H   0  0  0  0  0  0  0  0  0  0  0  0
   -2.5167   -1.3314   -2.1469 H   0  0  0  0  0  0  0  0  0  0  0  0
    0.0972   -2.7429    2.4907 H   0  0  0  0  0  0  0  0  0  0  0  0
    1.1186   -3.2720   -2.1950 H   0  0  0  0  0  0  0  0  0  0  0  0
    2.4925   -3.5021   -0.1274 H   0  0  0  0  0  0  0  0  0  0  0  0
    1.9522   -2.9167    1.4358 H   0  0  0  0  0  0  0  0  0  0  0  0
   -0.9141    0.6734   -2.5964 H   0  0  0  0  0  0  0  0  0  0  0  0
   -0.4845    0.6005   -0.8976 H   0  0  0  0  0  0  0  0  0  0  0  0
   -2.0518   -0.5715    2.5572 H   0  0  0  0  0  0  0  0  0  0  0  0
   -0.3316   -0.3521    2.9206 H   0  0  0  0  0  0  0  0  0  0  0  0
   -1.3274   -1.3937    3.9419 H   0  0  0  0  0  0  0  0  0  0  0  0
   -2.8986   -2.8850    1.8573 H   0  0  0  0  0  0  0  0  0  0  0  0
   -1.9817   -3.7570    3.0626 H   0  0  0  0  0  0  0  0  0  0  0  0
   -1.7348   -4.1487    1.3707 H   0  0  0  0  0  0  0  0  0  0  0  0
   -1.4349   -2.1295   -4.2207 H   0  0  0  0  0  0  0  0  0  0  0  0
    0.2862   -2.5190   -4.2391 H   0  0  0  0  0  0  0  0  0  0  0  0
   -0.2223   -0.8331   -4.1373 H   0  0  0  0  0  0  0  0  0  0  0  0
    2.5567   -1.2788   -0.9774 H   0  0  0  0  0  0  0  0  0  0  0  0
   -1.2151    2.5663   -0.4766 H   0  0  0  0  0  0  0  0  0  0  0  0
   -3.9801    3.3370   -1.0663 H   0  0  0  0  0  0  0  0  0  0  0  0
   -2.6812    4.3411   -0.3803 H   0  0  0  0  0  0  0  0  0  0  0  0
   -4.4314    3.8955    1.3214 H   0  0  0  0  0  0  0  0  0  0  0  0
   -2.8970    3.1185    1.7930 H   0  0  0  0  0  0  0  0  0  0  0  0
    4.7886    1.0605    2.0931 H   0  0  0  0  0  0  0  0  0  0  0  0
    2.1946    0.7397   -1.3624 H   0  0  0  0  0  0  0  0  0  0  0  0
    5.6027    3.2054    1.1394 H   0  0  0  0  0  0  0  0  0  0  0  0
    3.1465    2.8738   -2.1482 H   0  0  0  0  0  0  0  0  0  0  0  0
   -5.3768    0.5823    2.3443 H   0  0  0  0  0  0  0  0  0  0  0  0
   -5.6432    2.3112    2.6556 H   0  0  0  0  0  0  0  0  0  0  0  0
   -4.0964    1.5321    3.1273 H   0  0  0  0  0  0  0  0  0  0  0  0
  1 19  2  0  0  0  0
  2 20  2  0  0  0  0
  3 23  1  0  0  0  0
  3 28  1  0  0  0  0
  4 14  1  0  0  0  0
  4 20  1  0  0  0  0
  4 49  1  0  0  0  0
  5 19  1  0  0  0  0
  5 21  1  0  0  0  0
  5 50  1  0  0  0  0
  6 26  2  0  0  0  0
  6 27  1  0  0  0  0
  7  8  1  0  0  0  0
  7  9  1  0  0  0  0
  7 11  1  0  0  0  0
  7 29  1  0  0  0  0
  8 13  1  0  0  0  0
  8 14  1  0  0  0  0
  8 30  1  0  0  0  0
  9 10  1  0  0  0  0
  9 31  1  0  0  0  0
  9 32  1  0  0  0  0
 10 12  1  0  0  0  0
 10 15  1  0  0  0  0
 10 33  1  0  0  0  0
 11 16  1  0  0  0  0
 11 17  1  0  0  0  0
 11 34  1  0  0  0  0
 12 13  2  0  0  0  0
 12 18  1  0  0  0  0
 13 35  1  0  0  0  0
 14 36  1  0  0  0  0
 14 37  1  0  0  0  0
 15 19  1  0  0  0  0
 15 38  1  0  0  0  0
 15 39  1  0  0  0  0
 16 40  1  0  0  0  0
 16 41  1  0  0  0  0
 16 42  1  0  0  0  0
 17 43  1  0  0  0  0
 17 44  1  0  0  0  0
 17 45  1  0  0  0  0
 18 46  1  0  0  0  0
 18 47  1  0  0  0  0
 18 48  1  0  0  0  0
 20 22  1  0  0  0  0
 21 23  1  0  0  0  0
 21 51  1  0  0  0  0
 21 52  1  0  0  0  0
 22 24  2  0  0  0  0
 22 25  1  0  0  0  0
 23 53  1  0  0  0  0
 23 54  1  0  0  0  0
 24 26  1  0  0  0  0
 24 55  1  0  0  0  0
 25 27  2  0  0  0  0
 25 56  1  0  0  0  0
 26 57  1  0  0  0  0
 27 58  1  0  0  0  0
 28 59  1  0  0  0  0
 28 60  1  0  0  0  0
 28 61  1  0  0  0  0
M  END
> <PUBCHEM_COMPOUND_CID>
38027656

> <PUBCHEM_CONFORMER_RMSD>
1

> <PUBCHEM_CONFORMER_DIVERSEORDER>
1
87
56
98
73
30
22
16
99
57
100
27
15
61
55
80
3
95
9
52
74
60
54
70
75
63
37
29
47
64
48
35
76
79
66
26
28
39
44
103
58
4
90
104
31
81
71
40
97
69
65
5
83
92
50
20
38
101
32
67
17
14
36
86
82
78
6
45
68
91
19
51
34
84
46
96
23
49
2
85
77
43
41
18
53
13
72
12
25
89
21
7
59
42
33
93
11
88
62
94
102
24
10
8

> <PUBCHEM_MMFF94_PARTIAL_CHARGES>
30
1 -0.57
10 0.14
12 -0.28
13 -0.29
14 0.3
15 0.06
18 0.14
19 0.57
2 -0.57
20 0.54
21 0.3
22 0.09
23 0.28
24 -0.15
25 -0.15
26 0.16
27 0.16
28 0.28
3 -0.56
35 0.15
4 -0.73
49 0.37
5 -0.73
50 0.37
55 0.15
56 0.15
57 0.15
58 0.15
6 -0.62
8 0.14

> <PUBCHEM_EFFECTIVE_ROTOR_COUNT>
11.8

> <PUBCHEM_PHARMACOPHORE_FEATURES>
9
1 1 acceptor
1 2 acceptor
1 3 acceptor
1 4 donor
1 5 donor
1 6 acceptor
3 11 16 17 hydrophobe
6 6 22 24 25 26 27 rings
6 7 8 9 10 12 13 rings

> <PUBCHEM_HEAVY_ATOM_COUNT>
28

> <PUBCHEM_ATOM_DEF_STEREO_COUNT>
3

> <PUBCHEM_ATOM_UDEF_STEREO_COUNT>
0

> <PUBCHEM_BOND_DEF_STEREO_COUNT>
0

> <PUBCHEM_BOND_UDEF_STEREO_COUNT>
0

> <PUBCHEM_ISOTOPIC_ATOM_COUNT>
0

> <PUBCHEM_COMPONENT_COUNT>
1

> <PUBCHEM_CACTVS_TAUTO_COUNT>
4

> <PUBCHEM_CONFORMER_ID>
0244418800000001

> <PUBCHEM_MMFF94_ENERGY>
58.8875

> <PUBCHEM_FEATURE_SELFOVERLAP>
45.673

> <PUBCHEM_SHAPE_FINGERPRINT>
11221954 11 18408881819866760646
11445158 3 16770744708636296159
11578080 2 17270646505484852403
12104220 4 16043133856918964369
12156800 1 17247289660794044461
12788726 201 18053924410660202063
14251757 17 14764340535815002849
14787075 74 18116412908416662895
15163728 17 17775574121699921095
20764821 26 17544182140211542368
21315764 21 12895349975837352488
21475661 188 18047467825190028197
21860390 5 17766290777232771978
23419403 2 17337086655528996895
25222932 49 13557456126225908857
392239 28 18114461167865975331
469060 322 17693655222648039830
474 4 18192976150121484519
5081480 168 16338650764919538709
7288768 16 17895457202991635340
9981440 41 18119222181989625578

> <PUBCHEM_SHAPE_MULTIPOLES>
543.68
8.46
4.9
3.07
4.05
1.09
-0.69
11.63
3.43
-1.4
0.27
-2.09
-1.99
-0.59

> <PUBCHEM_SHAPE_SELFOVERLAP>
1108.517

> <PUBCHEM_SHAPE_VOLUME>
312.1

> <PUBCHEM_COORDINATE_TYPE>
2
5
10

$$$$
