25389536
  -OEChem-12032416163D

 66 69  0     1  0  0  0  0  0999 V2000
   -3.6010    1.6187   -0.0226 O   0  0  0  0  0  0  0  0  0  0  0  0
   -3.2021    2.8437    1.8787 O   0  0  0  0  0  0  0  0  0  0  0  0
    3.8022    2.5642   -0.0968 O   0  0  0  0  0  0  0  0  0  0  0  0
    6.3220    1.3966   -0.2016 O   0  0  0  0  0  0  0  0  0  0  0  0
   -3.9920   -2.0398    0.5224 N   0  0  2  0  0  0  0  0  0  0  0  0
    0.5497   -3.4554    0.6512 N   0  0  0  0  0  0  0  0  0  0  0  0
    1.8076   -2.9968    0.7673 N   0  0  0  0  0  0  0  0  0  0  0  0
   -3.4081    3.8638   -0.1949 N   0  0  0  0  0  0  0  0  0  0  0  0
   -2.4234   -2.3355   -1.5356 C   0  0  2  0  0  0  0  0  0  0  0  0
   -1.7576   -2.9147   -0.2567 C   0  0  2  0  0  0  0  0  0  0  0  0
   -3.8580   -0.7496   -0.2042 C   0  0  2  0  0  0  0  0  0  0  0  0
   -2.7754   -0.8515   -1.3000 C   0  0  0  0  0  0  0  0  0  0  0  0
   -3.7552   -3.0928   -1.7261 C   0  0  0  0  0  0  0  0  0  0  0  0
   -2.6557   -2.5228    0.9514 C   0  0  0  0  0  0  0  0  0  0  0  0
   -4.5632   -3.0335   -0.4179 C   0  0  0  0  0  0  0  0  0  0  0  0
   -0.2883   -2.6050   -0.0083 C   0  0  0  0  0  0  0  0  0  0  0  0
   -3.6046    0.4274    0.7401 C   0  0  0  0  0  0  0  0  0  0  0  0
    0.4743   -1.5140   -0.3469 C   0  0  0  0  0  0  0  0  0  0  0  0
    1.7554   -1.8106    0.1556 C   0  0  0  0  0  0  0  0  0  0  0  0
    0.2142   -4.7444    1.2105 C   0  0  0  0  0  0  0  0  0  0  0  0
    2.9293   -0.9821    0.0640 C   0  0  0  0  0  0  0  0  0  0  0  0
   -3.3858    2.7877    0.6671 C   0  0  0  0  0  0  0  0  0  0  0  0
    2.8018    0.4064    0.0274 C   0  0  0  0  0  0  0  0  0  0  0  0
    4.1941   -1.5680    0.0111 C   0  0  0  0  0  0  0  0  0  0  0  0
   -3.2133    5.2322    0.2252 C   0  0  0  0  0  0  0  0  0  0  0  0
    3.9391    1.2092   -0.0618 C   0  0  0  0  0  0  0  0  0  0  0  0
    5.3313   -0.7653   -0.0784 C   0  0  0  0  0  0  0  0  0  0  0  0
    5.2039    0.6233   -0.1148 C   0  0  0  0  0  0  0  0  0  0  0  0
   -1.7473    5.6472    0.1896 C   0  0  0  0  0  0  0  0  0  0  0  0
   -1.1448    5.5597   -1.2054 C   0  0  0  0  0  0  0  0  0  0  0  0
    2.4749    3.0829   -0.0382 C   0  0  0  0  0  0  0  0  0  0  0  0
    7.5762    0.7189   -0.2512 C   0  0  0  0  0  0  0  0  0  0  0  0
   -1.7787   -2.4497   -2.4134 H   0  0  0  0  0  0  0  0  0  0  0  0
   -1.8179   -4.0077   -0.3683 H   0  0  0  0  0  0  0  0  0  0  0  0
   -4.8146   -0.5333   -0.7027 H   0  0  0  0  0  0  0  0  0  0  0  0
   -1.8917   -0.2678   -1.0383 H   0  0  0  0  0  0  0  0  0  0  0  0
   -3.1661   -0.4214   -2.2312 H   0  0  0  0  0  0  0  0  0  0  0  0
   -3.5664   -4.1373   -2.0002 H   0  0  0  0  0  0  0  0  0  0  0  0
   -4.3272   -2.6408   -2.5455 H   0  0  0  0  0  0  0  0  0  0  0  0
   -2.7903   -3.4003    1.5975 H   0  0  0  0  0  0  0  0  0  0  0  0
   -2.1681   -1.7793    1.5924 H   0  0  0  0  0  0  0  0  0  0  0  0
   -5.6087   -2.7839   -0.6371 H   0  0  0  0  0  0  0  0  0  0  0  0
   -4.5908   -4.0223    0.0574 H   0  0  0  0  0  0  0  0  0  0  0  0
   -2.6416    0.3298    1.2534 H   0  0  0  0  0  0  0  0  0  0  0  0
   -4.4017    0.4792    1.4920 H   0  0  0  0  0  0  0  0  0  0  0  0
    0.1654   -0.6375   -0.8943 H   0  0  0  0  0  0  0  0  0  0  0  0
   -0.0314   -5.4236    0.3906 H   0  0  0  0  0  0  0  0  0  0  0  0
    1.0715   -5.1337    1.7667 H   0  0  0  0  0  0  0  0  0  0  0  0
   -0.6337   -4.6248    1.8883 H   0  0  0  0  0  0  0  0  0  0  0  0
    1.8022    0.8228    0.0858 H   0  0  0  0  0  0  0  0  0  0  0  0
    4.3240   -2.6476    0.0291 H   0  0  0  0  0  0  0  0  0  0  0  0
   -3.5667    3.6821   -1.1814 H   0  0  0  0  0  0  0  0  0  0  0  0
   -3.6046    5.3501    1.2415 H   0  0  0  0  0  0  0  0  0  0  0  0
   -3.8083    5.8650   -0.4417 H   0  0  0  0  0  0  0  0  0  0  0  0
    6.2802   -1.2890   -0.1174 H   0  0  0  0  0  0  0  0  0  0  0  0
   -1.6599    6.6779    0.5519 H   0  0  0  0  0  0  0  0  0  0  0  0
   -1.1628    5.0154    0.8689 H   0  0  0  0  0  0  0  0  0  0  0  0
   -1.1318    4.5289   -1.5729 H   0  0  0  0  0  0  0  0  0  0  0  0
   -1.7086    6.1730   -1.9155 H   0  0  0  0  0  0  0  0  0  0  0  0
   -0.1114    5.9209   -1.1914 H   0  0  0  0  0  0  0  0  0  0  0  0
    2.5539    4.1744   -0.0814 H   0  0  0  0  0  0  0  0  0  0  0  0
    1.9867    2.8390    0.9116 H   0  0  0  0  0  0  0  0  0  0  0  0
    1.8808    2.7751   -0.9057 H   0  0  0  0  0  0  0  0  0  0  0  0
    8.3545    1.4862   -0.3185 H   0  0  0  0  0  0  0  0  0  0  0  0
    7.6641    0.0977   -1.1490 H   0  0  0  0  0  0  0  0  0  0  0  0
    7.7661    0.1536    0.6675 H   0  0  0  0  0  0  0  0  0  0  0  0
  1 17  1  0  0  0  0
  1 22  1  0  0  0  0
  2 22  2  0  0  0  0
  3 26  1  0  0  0  0
  3 31  1  0  0  0  0
  4 28  1  0  0  0  0
  4 32  1  0  0  0  0
  5 11  1  0  0  0  0
  5 14  1  0  0  0  0
  5 15  1  0  0  0  0
  6  7  1  0  0  0  0
  6 16  1  0  0  0  0
  6 20  1  0  0  0  0
  7 19  2  0  0  0  0
  8 22  1  0  0  0  0
  8 25  1  0  0  0  0
  8 52  1  0  0  0  0
  9 10  1  0  0  0  0
  9 12  1  0  0  0  0
  9 13  1  0  0  0  0
  9 33  1  0  0  0  0
 10 14  1  0  0  0  0
 10 16  1  0  0  0  0
 10 34  1  0  0  0  0
 11 12  1  0  0  0  0
 11 17  1  0  0  0  0
 11 35  1  0  0  0  0
 12 36  1  0  0  0  0
 12 37  1  0  0  0  0
 13 15  1  0  0  0  0
 13 38  1  0  0  0  0
 13 39  1  0  0  0  0
 14 40  1  0  0  0  0
 14 41  1  0  0  0  0
 15 42  1  0  0  0  0
 15 43  1  0  0  0  0
 16 18  2  0  0  0  0
 17 44  1  0  0  0  0
 17 45  1  0  0  0  0
 18 19  1  0  0  0  0
 18 46  1  0  0  0  0
 19 21  1  0  0  0  0
 20 47  1  0  0  0  0
 20 48  1  0  0  0  0
 20 49  1  0  0  0  0
 21 23  2  0  0  0  0
 21 24  1  0  0  0  0
 23 26  1  0  0  0  0
 23 50  1  0  0  0  0
 24 27  2  0  0  0  0
 24 51  1  0  0  0  0
 25 29  1  0  0  0  0
 25 53  1  0  0  0  0
 25 54  1  0  0  0  0
 26 28  2  0  0  0  0
 27 28  1  0  0  0  0
 27 55  1  0  0  0  0
 29 30  1  0  0  0  0
 29 56  1  0  0  0  0
 29 57  1  0  0  0  0
 30 58  1  0  0  0  0
 30 59  1  0  0  0  0
 30 60  1  0  0  0  0
 31 61  1  0  0  0  0
 31 62  1  0  0  0  0
 31 63  1  0  0  0  0
 32 64  1  0  0  0  0
 32 65  1  0  0  0  0
 32 66  1  0  0  0  0
M  END
> <PUBCHEM_COMPOUND_CID>
25389536

> <PUBCHEM_CONFORMER_RMSD>
1

> <PUBCHEM_CONFORMER_DIVERSEORDER>
1
8
44
35
60
15
67
31
41
25
49
26
55
22
7
64
62
66
38
32
18
14
40
24
50
4
46
33
5
54
2
56
16
9
10
48
63
11
51
29
68
6
20
12
43
17
61
57
19
39
45
53
36
28
23
42
47
59
27
34
30
13
21
37
3
65
52
58

> <PUBCHEM_MMFF94_PARTIAL_CHARGES>
32
1 -0.43
10 0.18
11 0.27
14 0.27
15 0.27
16 -0.33
17 0.28
18 -0.15
19 0.23
2 -0.57
20 0.26
21 0.05
22 0.78
23 -0.15
24 -0.15
25 0.3
26 0.08
27 -0.15
28 0.08
3 -0.36
31 0.28
32 0.28
4 -0.36
46 0.15
5 -0.81
50 0.15
51 0.15
52 0.37
55 0.15
6 0.31
7 -0.71
8 -0.73

> <PUBCHEM_EFFECTIVE_ROTOR_COUNT>
11.2

> <PUBCHEM_PHARMACOPHORE_FEATURES>
10
1 2 acceptor
1 3 acceptor
1 30 hydrophobe
1 4 acceptor
1 5 cation
1 7 acceptor
1 8 donor
5 6 7 16 18 19 rings
6 21 23 24 26 27 28 rings
8 5 9 10 11 12 13 14 15 rings

> <PUBCHEM_HEAVY_ATOM_COUNT>
32

> <PUBCHEM_ATOM_DEF_STEREO_COUNT>
3

> <PUBCHEM_ATOM_UDEF_STEREO_COUNT>
0

> <PUBCHEM_BOND_DEF_STEREO_COUNT>
0

> <PUBCHEM_BOND_UDEF_STEREO_COUNT>
0

> <PUBCHEM_ISOTOPIC_ATOM_COUNT>
0

> <PUBCHEM_COMPONENT_COUNT>
1

> <PUBCHEM_CACTVS_TAUTO_COUNT>
2

> <PUBCHEM_CONFORMER_ID>
018369E000000001

> <PUBCHEM_MMFF94_ENERGY>
87.4578

> <PUBCHEM_FEATURE_SELFOVERLAP>
50.751

> <PUBCHEM_SHAPE_FINGERPRINT>
10670039 82 18341609360689095514
10838868 217 17182476418633642096
10951579 204 18338816554722561188
11374522 363 17542220160506840220
11477941 20 18057591260501116695
12107183 9 17975968774759636058
13761468 95 17844830108296517416
14251764 75 17910120114177747497
14394314 77 18196097866219571985
144659 178 18120377819955139788
14790565 3 18336832983715438020
15183329 4 18188201118206560718
15320467 1 18338235942671816025
15322535 138 18339347566212777800
15400415 2 17907016175805178056
15419008 145 18337096931278988392
16067690 210 18115854347413345112
20580484 21 15889689218119262280
21033648 29 17533752035460677614
21033650 10 18198649742360190478
21860390 5 16397459124274407421
22121540 332 17913770789857718292
23559900 14 18122903403160247658
325973 47 17905328777115618444
3388396 114 18339623608203013191
4487111 67 18339359635202839152
50677037 204 18265052621100808812
6371009 1 18265038292941410754
653340 110 18411689994345327392
6608658 132 18342448279371109575
7288768 16 17967822600435867563
9980921 221 18265635289649357492

> <PUBCHEM_SHAPE_MULTIPOLES>
615.14
12.76
8.4
1.13
20.83
12.01
-0.1
2.85
-1.08
-10.15
0.37
-1.23
-0.35
-1.84

> <PUBCHEM_SHAPE_SELFOVERLAP>
1302.33

> <PUBCHEM_SHAPE_VOLUME>
342.9

> <PUBCHEM_COORDINATE_TYPE>
2
5
10

$$$$
