25338995
  -OEChem-12032416193D

 49 51  0     1  0  0  0  0  0999 V2000
   -0.1718    1.4117    1.5099 S   0  0  0  0  0  0  0  0  0  0  0  0
   -5.6806   -0.7630   -0.9010 F   0  0  0  0  0  0  0  0  0  0  0  0
   -4.0345   -2.0885   -0.3898 F   0  0  0  0  0  0  0  0  0  0  0  0
   -5.1256   -1.0639    1.1797 F   0  0  0  0  0  0  0  0  0  0  0  0
   -0.0377    2.7469    2.0508 O   0  0  0  0  0  0  0  0  0  0  0  0
   -0.1915    0.2536    2.3772 O   0  0  0  0  0  0  0  0  0  0  0  0
    2.3974    2.9149   -1.2697 O   0  0  0  0  0  0  0  0  0  0  0  0
    4.1598    1.4479   -0.9896 O   0  0  0  0  0  0  0  0  0  0  0  0
    1.0189    1.1778    0.2962 N   0  0  1  0  0  0  0  0  0  0  0  0
    1.9211   -2.4300   -0.1598 N   0  0  0  0  0  0  0  0  0  0  0  0
    3.5854   -1.9628    1.2559 N   0  0  0  0  0  0  0  0  0  0  0  0
    2.4201    1.6033    0.6649 C   0  0  1  0  0  0  0  0  0  0  0  0
    0.9114   -0.1121   -0.4886 C   0  0  0  0  0  0  0  0  0  0  0  0
    1.8608   -1.0894    0.0758 C   0  0  0  0  0  0  0  0  0  0  0  0
    3.1775    0.5280    1.4698 C   0  0  0  0  0  0  0  0  0  0  0  0
    2.8932   -0.8265    0.9428 C   0  0  0  0  0  0  0  0  0  0  0  0
    1.0579   -3.2062   -1.0164 C   0  0  0  0  0  0  0  0  0  0  0  0
    2.9760   -2.9120    0.5738 C   0  0  0  0  0  0  0  0  0  0  0  0
    3.1125    1.9569   -0.6140 C   0  0  0  0  0  0  0  0  0  0  0  0
   -1.6324    1.3737    0.5193 C   0  0  0  0  0  0  0  0  0  0  0  0
    0.2882   -4.2678   -0.2269 C   0  0  0  0  0  0  0  0  0  0  0  0
    1.8349   -3.8426   -2.1714 C   0  0  0  0  0  0  0  0  0  0  0  0
   -2.5109    0.2944    0.6128 C   0  0  0  0  0  0  0  0  0  0  0  0
   -1.9078    2.4234   -0.3570 C   0  0  0  0  0  0  0  0  0  0  0  0
   -3.6649    0.2648   -0.1703 C   0  0  0  0  0  0  0  0  0  0  0  0
   -3.0617    2.3937   -1.1400 C   0  0  0  0  0  0  0  0  0  0  0  0
   -3.9404    1.3144   -1.0467 C   0  0  0  0  0  0  0  0  0  0  0  0
    2.9495    3.3485   -2.5168 C   0  0  0  0  0  0  0  0  0  0  0  0
   -4.6046   -0.8890   -0.0707 C   0  0  0  0  0  0  0  0  0  0  0  0
    2.3997    2.5271    1.2557 H   0  0  0  0  0  0  0  0  0  0  0  0
    1.1563    0.1047   -1.5345 H   0  0  0  0  0  0  0  0  0  0  0  0
   -0.1053   -0.5063   -0.4757 H   0  0  0  0  0  0  0  0  0  0  0  0
    2.8395    0.5603    2.5130 H   0  0  0  0  0  0  0  0  0  0  0  0
    4.2565    0.7178    1.4748 H   0  0  0  0  0  0  0  0  0  0  0  0
    0.3225   -2.5231   -1.4555 H   0  0  0  0  0  0  0  0  0  0  0  0
    3.2551   -3.9570    0.5744 H   0  0  0  0  0  0  0  0  0  0  0  0
    0.9580   -5.0192    0.2055 H   0  0  0  0  0  0  0  0  0  0  0  0
   -0.4253   -4.7882   -0.8746 H   0  0  0  0  0  0  0  0  0  0  0  0
   -0.2747   -3.8105    0.5946 H   0  0  0  0  0  0  0  0  0  0  0  0
    2.5641   -4.5783   -1.8148 H   0  0  0  0  0  0  0  0  0  0  0  0
    2.3805   -3.0816   -2.7405 H   0  0  0  0  0  0  0  0  0  0  0  0
    1.1532   -4.3534   -2.8598 H   0  0  0  0  0  0  0  0  0  0  0  0
   -2.3113   -0.5330    1.2882 H   0  0  0  0  0  0  0  0  0  0  0  0
   -1.2312    3.2693   -0.4433 H   0  0  0  0  0  0  0  0  0  0  0  0
   -3.2754    3.2106   -1.8230 H   0  0  0  0  0  0  0  0  0  0  0  0
   -4.8334    1.3106   -1.6654 H   0  0  0  0  0  0  0  0  0  0  0  0
    2.2864    4.1103   -2.9354 H   0  0  0  0  0  0  0  0  0  0  0  0
    3.0068    2.5096   -3.2168 H   0  0  0  0  0  0  0  0  0  0  0  0
    3.9381    3.7904   -2.3602 H   0  0  0  0  0  0  0  0  0  0  0  0
  1  5  2  0  0  0  0
  1  6  2  0  0  0  0
  1  9  1  0  0  0  0
  1 20  1  0  0  0  0
  2 29  1  0  0  0  0
  3 29  1  0  0  0  0
  4 29  1  0  0  0  0
  7 19  1  0  0  0  0
  7 28  1  0  0  0  0
  8 19  2  0  0  0  0
  9 12  1  0  0  0  0
  9 13  1  0  0  0  0
 10 14  1  0  0  0  0
 10 17  1  0  0  0  0
 10 18  1  0  0  0  0
 11 16  1  0  0  0  0
 11 18  2  0  0  0  0
 12 15  1  0  0  0  0
 12 19  1  0  0  0  0
 12 30  1  0  0  0  0
 13 14  1  0  0  0  0
 13 31  1  0  0  0  0
 13 32  1  0  0  0  0
 14 16  2  0  0  0  0
 15 16  1  0  0  0  0
 15 33  1  0  0  0  0
 15 34  1  0  0  0  0
 17 21  1  0  0  0  0
 17 22  1  0  0  0  0
 17 35  1  0  0  0  0
 18 36  1  0  0  0  0
 20 23  1  0  0  0  0
 20 24  2  0  0  0  0
 21 37  1  0  0  0  0
 21 38  1  0  0  0  0
 21 39  1  0  0  0  0
 22 40  1  0  0  0  0
 22 41  1  0  0  0  0
 22 42  1  0  0  0  0
 23 25  2  0  0  0  0
 23 43  1  0  0  0  0
 24 26  1  0  0  0  0
 24 44  1  0  0  0  0
 25 27  1  0  0  0  0
 25 29  1  0  0  0  0
 26 27  2  0  0  0  0
 26 45  1  0  0  0  0
 27 46  1  0  0  0  0
 28 47  1  0  0  0  0
 28 48  1  0  0  0  0
 28 49  1  0  0  0  0
M  END
> <PUBCHEM_COMPOUND_CID>
25338995

> <PUBCHEM_CONFORMER_RMSD>
0.8

> <PUBCHEM_CONFORMER_DIVERSEORDER>
3
24
54
20
50
52
36
60
42
48
41
12
1
40
25
18
33
53
46
43
65
63
58
57
15
8
47
31
19
62
56
28
51
34
2
22
23
49
27
30
29
35
44
11
10
21
45
55
61
59
14
37
17
32
5
4
64
39
26
7
38
13
9
16
6

> <PUBCHEM_MMFF94_PARTIAL_CHARGES>
32
1 1.45
10 0.05
11 -0.57
12 0.42
13 0.54
14 -0.33
15 0.18
16 0.05
17 0.26
18 0.04
19 0.66
2 -0.34
20 -0.01
23 -0.15
24 -0.15
25 -0.14
26 -0.15
27 -0.15
28 0.28
29 1.16
3 -0.34
36 0.15
4 -0.34
43 0.15
44 0.15
45 0.15
46 0.15
5 -0.65
6 -0.65
7 -0.43
8 -0.57
9 -0.85

> <PUBCHEM_EFFECTIVE_ROTOR_COUNT>
6.8

> <PUBCHEM_PHARMACOPHORE_FEATURES>
8
1 5 acceptor
1 6 acceptor
1 8 acceptor
3 10 11 18 cation
3 17 21 22 hydrophobe
5 10 11 14 16 18 rings
6 20 23 24 25 26 27 rings
6 9 12 13 14 15 16 rings

> <PUBCHEM_HEAVY_ATOM_COUNT>
29

> <PUBCHEM_ATOM_DEF_STEREO_COUNT>
1

> <PUBCHEM_ATOM_UDEF_STEREO_COUNT>
0

> <PUBCHEM_BOND_DEF_STEREO_COUNT>
0

> <PUBCHEM_BOND_UDEF_STEREO_COUNT>
0

> <PUBCHEM_ISOTOPIC_ATOM_COUNT>
0

> <PUBCHEM_COMPONENT_COUNT>
1

> <PUBCHEM_CACTVS_TAUTO_COUNT>
1

> <PUBCHEM_CONFORMER_ID>
0182A47300000003

> <PUBCHEM_MMFF94_ENERGY>
50.2713

> <PUBCHEM_FEATURE_SELFOVERLAP>
40.716

> <PUBCHEM_SHAPE_FINGERPRINT>
10930396 42 14888460418020344776
11135609 12 18196662799909502443
11477941 20 16751329335461924582
12156800 1 17181415853442811383
12160290 23 17546195316432659776
13150687 139 18192164904669030172
13383661 66 17480900774629103199
133893 2 18120684377867360808
13681431 1 17974310732857567308
14114211 80 17982756330615314763
14251757 17 18048868594735445307
14289585 56 17676761067736457556
14659021 117 16753250112707260890
14863182 85 18273210902841322074
14930077 153 17032218735925060348
15849732 13 18188202200554065616
17492 89 18260827077444535403
17974551 9 15978896027873106058
18681886 176 18336261353665474704
20626108 58 18116977906647030178
20775530 9 17624134901766965287
21304303 282 17179121220622051732
21344244 181 17773059616296631678
21860390 5 16805604815131236708
22393880 68 18338804420643273524
23559900 14 18266446625328435945
238 59 18261690219847099610
25222932 49 16555611025271788149
26353 1 17613176069915845100
3052486 1 17762888166739032498
338550 245 18338507633981512734
340366 18 17901388896541690893
3493558 16 12331293144850240859
392239 28 16985708053860997394
4280585 95 17832988248397668318
44802255 64 16812403207817411556
46194498 28 18187081720257387605
463206 1 18201140136181304583
9709674 26 18186802461367542737

> <PUBCHEM_SHAPE_MULTIPOLES>
540.41
8.63
4.96
1.89
10.68
2.98
-0.17
1.52
-1.17
-3.85
-2.67
-1.1
-0.85
-0.51

> <PUBCHEM_SHAPE_SELFOVERLAP>
1143.205

> <PUBCHEM_SHAPE_VOLUME>
308.4

> <PUBCHEM_COORDINATE_TYPE>
2
5
10

$$$$
