45784123
  -OEChem-12032416363D

 54 56  0     1  0  0  0  0  0999 V2000
    5.5654   -2.5483    1.2273 O   0  0  0  0  0  0  0  0  0  0  0  0
   -0.5870    1.1056    0.5436 O   0  0  0  0  0  0  0  0  0  0  0  0
   -6.3462   -1.4288    0.2272 O   0  0  0  0  0  0  0  0  0  0  0  0
   -0.1393    3.0984   -0.3694 N   0  0  0  0  0  0  0  0  0  0  0  0
   -1.4724    2.8132   -0.5989 N   0  0  0  0  0  0  0  0  0  0  0  0
    2.4113   -1.1206   -0.2518 C   0  0  2  0  0  0  0  0  0  0  0  0
    2.1583    0.1714   -1.0435 C   0  0  0  0  0  0  0  0  0  0  0  0
    3.9266   -1.3047    0.0126 C   0  0  1  0  0  0  0  0  0  0  0  0
    2.6801    1.4187   -0.3054 C   0  0  2  0  0  0  0  0  0  0  0  0
    1.8160   -2.3148   -1.0039 C   0  0  0  0  0  0  0  0  0  0  0  0
    4.0852    1.2133    0.2234 C   0  0  0  0  0  0  0  0  0  0  0  0
    4.6302   -0.0101    0.3459 C   0  0  0  0  0  0  0  0  0  0  0  0
    1.7257    1.8344    0.8196 C   0  0  0  0  0  0  0  0  0  0  0  0
    4.1732   -2.3227    1.1319 C   0  0  0  0  0  0  0  0  0  0  0  0
    2.0905   -2.1923   -2.4993 C   0  0  0  0  0  0  0  0  0  0  0  0
    0.3179   -2.4195   -0.7358 C   0  0  0  0  0  0  0  0  0  0  0  0
    4.8673    2.4507    0.5659 C   0  0  0  0  0  0  0  0  0  0  0  0
    0.3371    2.0748    0.3003 C   0  0  0  0  0  0  0  0  0  0  0  0
   -1.6892    1.6413   -0.0490 C   0  0  0  0  0  0  0  0  0  0  0  0
   -2.8853    0.8534    0.0230 C   0  0  0  0  0  0  0  0  0  0  0  0
   -4.0650    1.3220   -0.5557 C   0  0  0  0  0  0  0  0  0  0  0  0
   -2.8691   -0.3817    0.6710 C   0  0  0  0  0  0  0  0  0  0  0  0
   -5.2282    0.5556   -0.4863 C   0  0  0  0  0  0  0  0  0  0  0  0
   -4.0325   -1.1481    0.7405 C   0  0  0  0  0  0  0  0  0  0  0  0
   -5.2120   -0.6796    0.1619 C   0  0  0  0  0  0  0  0  0  0  0  0
   -6.2586   -2.6814    0.9050 C   0  0  0  0  0  0  0  0  0  0  0  0
    1.9109   -1.0384    0.7227 H   0  0  0  0  0  0  0  0  0  0  0  0
    2.7143    0.1461   -1.9908 H   0  0  0  0  0  0  0  0  0  0  0  0
    1.1068    0.2792   -1.3226 H   0  0  0  0  0  0  0  0  0  0  0  0
    4.4212   -1.6775   -0.8941 H   0  0  0  0  0  0  0  0  0  0  0  0
    2.7115    2.2287   -1.0484 H   0  0  0  0  0  0  0  0  0  0  0  0
    2.2652   -3.2498   -0.6541 H   0  0  0  0  0  0  0  0  0  0  0  0
    5.6621   -0.0823    0.6829 H   0  0  0  0  0  0  0  0  0  0  0  0
    1.6952    1.0824    1.6171 H   0  0  0  0  0  0  0  0  0  0  0  0
    2.0679    2.7659    1.2865 H   0  0  0  0  0  0  0  0  0  0  0  0
    3.6934   -3.2833    0.9293 H   0  0  0  0  0  0  0  0  0  0  0  0
    3.8103   -1.9502    2.0966 H   0  0  0  0  0  0  0  0  0  0  0  0
    1.4860   -1.4204   -2.9870 H   0  0  0  0  0  0  0  0  0  0  0  0
    1.8227   -3.1351   -2.9924 H   0  0  0  0  0  0  0  0  0  0  0  0
    3.1474   -2.0176   -2.7217 H   0  0  0  0  0  0  0  0  0  0  0  0
   -0.2307   -1.5446   -1.0976 H   0  0  0  0  0  0  0  0  0  0  0  0
    0.1175   -2.5272    0.3356 H   0  0  0  0  0  0  0  0  0  0  0  0
   -0.0998   -3.2990   -1.2381 H   0  0  0  0  0  0  0  0  0  0  0  0
    4.4026    2.9847    1.4001 H   0  0  0  0  0  0  0  0  0  0  0  0
    4.9120    3.1228   -0.2972 H   0  0  0  0  0  0  0  0  0  0  0  0
    5.8979    2.2205    0.8566 H   0  0  0  0  0  0  0  0  0  0  0  0
    5.7050   -3.1876    1.9465 H   0  0  0  0  0  0  0  0  0  0  0  0
   -4.1008    2.2814   -1.0661 H   0  0  0  0  0  0  0  0  0  0  0  0
   -1.9693   -0.7793    1.1337 H   0  0  0  0  0  0  0  0  0  0  0  0
   -6.1441    0.9253   -0.9393 H   0  0  0  0  0  0  0  0  0  0  0  0
   -3.9496   -2.0977    1.2581 H   0  0  0  0  0  0  0  0  0  0  0  0
   -7.2510   -3.1421    0.8621 H   0  0  0  0  0  0  0  0  0  0  0  0
   -6.0129   -2.5496    1.9642 H   0  0  0  0  0  0  0  0  0  0  0  0
   -5.5671   -3.3646    0.4002 H   0  0  0  0  0  0  0  0  0  0  0  0
  1 14  1  0  0  0  0
  1 47  1  0  0  0  0
  2 18  1  0  0  0  0
  2 19  1  0  0  0  0
  3 25  1  0  0  0  0
  3 26  1  0  0  0  0
  4  5  1  0  0  0  0
  4 18  2  0  0  0  0
  5 19  2  0  0  0  0
  6  7  1  0  0  0  0
  6  8  1  0  0  0  0
  6 10  1  0  0  0  0
  6 27  1  0  0  0  0
  7  9  1  0  0  0  0
  7 28  1  0  0  0  0
  7 29  1  0  0  0  0
  8 12  1  0  0  0  0
  8 14  1  0  0  0  0
  8 30  1  0  0  0  0
  9 11  1  0  0  0  0
  9 13  1  0  0  0  0
  9 31  1  0  0  0  0
 10 15  1  0  0  0  0
 10 16  1  0  0  0  0
 10 32  1  0  0  0  0
 11 12  2  0  0  0  0
 11 17  1  0  0  0  0
 12 33  1  0  0  0  0
 13 18  1  0  0  0  0
 13 34  1  0  0  0  0
 13 35  1  0  0  0  0
 14 36  1  0  0  0  0
 14 37  1  0  0  0  0
 15 38  1  0  0  0  0
 15 39  1  0  0  0  0
 15 40  1  0  0  0  0
 16 41  1  0  0  0  0
 16 42  1  0  0  0  0
 16 43  1  0  0  0  0
 17 44  1  0  0  0  0
 17 45  1  0  0  0  0
 17 46  1  0  0  0  0
 19 20  1  0  0  0  0
 20 21  2  0  0  0  0
 20 22  1  0  0  0  0
 21 23  1  0  0  0  0
 21 48  1  0  0  0  0
 22 24  2  0  0  0  0
 22 49  1  0  0  0  0
 23 25  2  0  0  0  0
 23 50  1  0  0  0  0
 24 25  1  0  0  0  0
 24 51  1  0  0  0  0
 26 52  1  0  0  0  0
 26 53  1  0  0  0  0
 26 54  1  0  0  0  0
M  END
> <PUBCHEM_COMPOUND_CID>
45784123

> <PUBCHEM_CONFORMER_RMSD>
0.8

> <PUBCHEM_CONFORMER_DIVERSEORDER>
1
11
100
115
45
78
105
59
57
40
72
82
83
75
48
29
66
69
139
58
27
26
39
64
36
67
114
68
56
116
108
99
138
113
42
65
34
28
123
20
97
118
32
111
107
24
55
112
94
51
22
49
89
131
143
124
70
129
7
120
13
110
12
88
25
127
47
145
44
96
86
125
98
50
126
30
63
133
77
140
90
54
6
4
109
93
16
92
146
33
136
76
147
17
21
14
132
61
85
104
3
84
35
38
74
37
121
95
73
43
144
91
60
134
8
9
102
18
87
141
71
5
15
122
41
128
19
103
2
62
31
23
135
119
79
142
80
117
106
52
10
53
81
137
46
101
130

> <PUBCHEM_MMFF94_PARTIAL_CHARGES>
27
1 -0.68
11 -0.28
12 -0.29
13 0.18
14 0.28
17 0.14
18 0.3
19 0.43
2 -0.28
20 0.05
21 -0.15
22 -0.15
23 -0.15
24 -0.15
25 0.08
26 0.28
3 -0.36
33 0.15
4 -0.34
47 0.4
48 0.15
49 0.15
5 -0.34
50 0.15
51 0.15
8 0.14
9 0.14

> <PUBCHEM_EFFECTIVE_ROTOR_COUNT>
6.8

> <PUBCHEM_PHARMACOPHORE_FEATURES>
7
1 1 acceptor
1 1 donor
1 3 acceptor
3 10 15 16 hydrophobe
5 2 4 5 18 19 rings
6 20 21 22 23 24 25 rings
6 6 7 8 9 11 12 rings

> <PUBCHEM_HEAVY_ATOM_COUNT>
26

> <PUBCHEM_ATOM_DEF_STEREO_COUNT>
3

> <PUBCHEM_ATOM_UDEF_STEREO_COUNT>
0

> <PUBCHEM_BOND_DEF_STEREO_COUNT>
0

> <PUBCHEM_BOND_UDEF_STEREO_COUNT>
0

> <PUBCHEM_ISOTOPIC_ATOM_COUNT>
0

> <PUBCHEM_COMPONENT_COUNT>
1

> <PUBCHEM_CACTVS_TAUTO_COUNT>
1

> <PUBCHEM_CONFORMER_ID>
02BA9C3B00000001

> <PUBCHEM_MMFF94_ENERGY>
61.6409

> <PUBCHEM_FEATURE_SELFOVERLAP>
35.522

> <PUBCHEM_SHAPE_FINGERPRINT>
10447042 23 18411130346709631636
10759866 29 18187375363161115492
10835480 77 18336536179769216613
108634 29 18261688041908998643
11135609 99 18333446535126183010
11828532 37 17098630273709949547
11963148 33 18191018104565302722
12166972 35 17530971271558689903
13140716 1 18196933275839217976
13402501 40 18410294743942999267
14178342 30 17698725801255867064
14790565 3 17688591980582501652
14840074 17 18059857311264086381
14863182 85 18342189898443878220
15196674 1 18409729547600369353
15352361 1 18408604751584530801
15927050 60 17407960354701509412
17492 89 18264767671431628698
17909252 39 17843983446184939982
1813 80 17603587447853252805
1979834 28 17846502525580524623
20028762 73 18130498644232008638
20261772 1 18131063836094365998
20403669 9 18410296878520574819
20645477 70 18413110562845901540
21033650 10 16443903843540460061
21197605 99 18198346362628426111
21315764 371 16128358394477138511
21344244 181 17417271926020145972
21623969 137 18343305907040901055
23424784 1240 18341625797655966551
23559900 14 18124029023002269750
23572383 38 18335419054458791391
239999 70 18201728370770675980
25222932 49 18261950872617319587
3004659 81 17967530151585216896
33824 294 18342458162201548868
3680242 22 18409737235639588155
4340502 62 17987795340913303664
439807 62 18114184142691914403
463206 1 18056198205750703839
465052 167 18411980235418464474
5104073 3 18343019960887678705
5283173 99 18042678417222792005
5309563 4 18412547630352054125
6438718 38 17273967124767919230
6823239 73 17914627055415781182
9709674 26 18125723383237249668

> <PUBCHEM_SHAPE_MULTIPOLES>
507.5
13.65
3.7
1.23
13.55
0.1
-0.46
6.67
4.02
-1.73
-0.1
-0.8
0.88
1.12

> <PUBCHEM_SHAPE_SELFOVERLAP>
1070.046

> <PUBCHEM_SHAPE_VOLUME>
286.1

> <PUBCHEM_COORDINATE_TYPE>
2
5
10

$$$$
