11882511
  -OEChem-12032416123D

 50 52  0     1  0  0  0  0  0999 V2000
    3.7095   -2.5153    1.2059 O   0  0  0  0  0  0  0  0  0  0  0  0
    1.4447    2.0937   -0.2041 O   0  0  0  0  0  0  0  0  0  0  0  0
   -3.1567    1.2916    2.3149 O   0  0  0  0  0  0  0  0  0  0  0  0
   -5.9783    1.2763    0.2912 O   0  0  0  0  0  0  0  0  0  0  0  0
    1.9416   -1.3588    0.2244 N   0  0  0  0  0  0  0  0  0  0  0  0
    3.2616    0.9268    0.5783 N   0  0  0  0  0  0  0  0  0  0  0  0
   -2.2222   -0.5911   -0.2095 N   0  0  0  0  0  0  0  0  0  0  0  0
   -2.6754   -1.5442   -1.0323 N   0  0  0  0  0  0  0  0  0  0  0  0
   -3.9794   -1.3385   -1.1819 N   0  0  0  0  0  0  0  0  0  0  0  0
   -2.7643    2.6121    0.4988 N   0  0  0  0  0  0  0  0  0  0  0  0
   -6.6445   -0.4022   -1.0996 N   0  0  0  0  0  0  0  0  0  0  0  0
    1.5864   -0.2774   -0.6984 C   0  0  1  0  0  0  0  0  0  0  0  0
   -0.7986   -0.5528    0.1530 C   0  0  2  0  0  0  0  0  0  0  0  0
    0.0974   -0.2803   -1.0702 C   0  0  0  0  0  0  0  0  0  0  0  0
   -0.3584   -1.7982    0.9554 C   0  0  0  0  0  0  0  0  0  0  0  0
    0.9480   -2.4027    0.4468 C   0  0  0  0  0  0  0  0  0  0  0  0
    4.1074   -0.2544    0.5155 C   0  0  1  0  0  0  0  0  0  0  0  0
    3.2408   -1.4886    0.7144 C   0  0  0  0  0  0  0  0  0  0  0  0
    2.0400    1.0281   -0.0634 C   0  0  0  0  0  0  0  0  0  0  0  0
    4.9442   -0.3258   -0.7519 C   0  0  0  0  0  0  0  0  0  0  0  0
    5.7715    0.9448   -1.0176 C   0  0  0  0  0  0  0  0  0  0  0  0
   -3.2058    0.2504    0.1928 C   0  0  0  0  0  0  0  0  0  0  0  0
    4.9005    2.1990   -1.1033 C   0  0  0  0  0  0  0  0  0  0  0  0
    6.8241    1.1199    0.0796 C   0  0  0  0  0  0  0  0  0  0  0  0
   -4.3200   -0.2431   -0.4381 C   0  0  0  0  0  0  0  0  0  0  0  0
   -3.0582    1.3676    1.0680 C   0  0  0  0  0  0  0  0  0  0  0  0
   -5.6558    0.2633   -0.3688 C   0  0  0  0  0  0  0  0  0  0  0  0
    2.1657   -0.4101   -1.6184 H   0  0  0  0  0  0  0  0  0  0  0  0
   -0.6902    0.3083    0.8252 H   0  0  0  0  0  0  0  0  0  0  0  0
   -0.1923    0.6626   -1.5502 H   0  0  0  0  0  0  0  0  0  0  0  0
   -0.0723   -1.0627   -1.8226 H   0  0  0  0  0  0  0  0  0  0  0  0
   -1.1314   -2.5756    0.9683 H   0  0  0  0  0  0  0  0  0  0  0  0
   -0.2221   -1.4951    2.0022 H   0  0  0  0  0  0  0  0  0  0  0  0
    1.3208   -3.1383    1.1672 H   0  0  0  0  0  0  0  0  0  0  0  0
    0.7951   -2.9271   -0.5036 H   0  0  0  0  0  0  0  0  0  0  0  0
    4.7576   -0.1959    1.3961 H   0  0  0  0  0  0  0  0  0  0  0  0
    3.5930    1.7314    1.1000 H   0  0  0  0  0  0  0  0  0  0  0  0
    5.6138   -1.1942   -0.6948 H   0  0  0  0  0  0  0  0  0  0  0  0
    4.3121   -0.5095   -1.6277 H   0  0  0  0  0  0  0  0  0  0  0  0
    6.2877    0.8095   -1.9763 H   0  0  0  0  0  0  0  0  0  0  0  0
    4.7241    2.6978   -0.1487 H   0  0  0  0  0  0  0  0  0  0  0  0
    3.9750    2.0308   -1.6601 H   0  0  0  0  0  0  0  0  0  0  0  0
    5.4532    2.9473   -1.6883 H   0  0  0  0  0  0  0  0  0  0  0  0
    6.3806    1.3484    1.0537 H   0  0  0  0  0  0  0  0  0  0  0  0
    7.4970    1.9470   -0.1730 H   0  0  0  0  0  0  0  0  0  0  0  0
    7.4358    0.2176    0.1840 H   0  0  0  0  0  0  0  0  0  0  0  0
   -2.6615    2.7344   -0.5036 H   0  0  0  0  0  0  0  0  0  0  0  0
   -2.6420    3.4350    1.0794 H   0  0  0  0  0  0  0  0  0  0  0  0
   -6.4392   -1.2233   -1.6600 H   0  0  0  0  0  0  0  0  0  0  0  0
   -7.6061   -0.0788   -1.0905 H   0  0  0  0  0  0  0  0  0  0  0  0
  1 18  2  0  0  0  0
  2 19  2  0  0  0  0
  3 26  2  0  0  0  0
  4 27  2  0  0  0  0
  5 12  1  0  0  0  0
  5 16  1  0  0  0  0
  5 18  1  0  0  0  0
  6 17  1  0  0  0  0
  6 19  1  0  0  0  0
  6 37  1  0  0  0  0
  7  8  1  0  0  0  0
  7 13  1  0  0  0  0
  7 22  1  0  0  0  0
  8  9  2  0  0  0  0
  9 25  1  0  0  0  0
 10 26  1  0  0  0  0
 10 47  1  0  0  0  0
 10 48  1  0  0  0  0
 11 27  1  0  0  0  0
 11 49  1  0  0  0  0
 11 50  1  0  0  0  0
 12 14  1  0  0  0  0
 12 19  1  0  0  0  0
 12 28  1  0  0  0  0
 13 14  1  0  0  0  0
 13 15  1  0  0  0  0
 13 29  1  0  0  0  0
 14 30  1  0  0  0  0
 14 31  1  0  0  0  0
 15 16  1  0  0  0  0
 15 32  1  0  0  0  0
 15 33  1  0  0  0  0
 16 34  1  0  0  0  0
 16 35  1  0  0  0  0
 17 18  1  0  0  0  0
 17 20  1  0  0  0  0
 17 36  1  0  0  0  0
 20 21  1  0  0  0  0
 20 38  1  0  0  0  0
 20 39  1  0  0  0  0
 21 23  1  0  0  0  0
 21 24  1  0  0  0  0
 21 40  1  0  0  0  0
 22 25  2  0  0  0  0
 22 26  1  0  0  0  0
 23 41  1  0  0  0  0
 23 42  1  0  0  0  0
 23 43  1  0  0  0  0
 24 44  1  0  0  0  0
 24 45  1  0  0  0  0
 24 46  1  0  0  0  0
 25 27  1  0  0  0  0
M  END
> <PUBCHEM_COMPOUND_CID>
11882511

> <PUBCHEM_CONFORMER_RMSD>
0.8

> <PUBCHEM_CONFORMER_DIVERSEORDER>
1
30
28
25
43
40
19
42
36
41
26
20
37
11
46
13
16
14
38
32
33
24
35
15
29
34
39
10
44
9
12
27
21
6
31
45
5
7
22
3
4
17
8
18
2
23

> <PUBCHEM_MMFF94_PARTIAL_CHARGES>
26
1 -0.57
10 -0.8
11 -0.8
12 0.36
13 0.26
16 0.3
17 0.36
18 0.57
19 0.57
2 -0.57
22 -0.24
25 0.14
26 0.71
27 0.72
3 -0.57
37 0.37
4 -0.57
47 0.37
48 0.37
49 0.37
5 -0.66
50 0.37
6 -0.73
7 0.31
8 -0.42
9 -0.23

> <PUBCHEM_EFFECTIVE_ROTOR_COUNT>
6.2

> <PUBCHEM_PHARMACOPHORE_FEATURES>
11
1 1 acceptor
1 10 donor
1 11 donor
1 2 acceptor
1 3 acceptor
1 4 acceptor
1 6 donor
3 21 23 24 hydrophobe
5 7 8 9 22 25 rings
6 5 12 13 14 15 16 rings
6 5 6 12 17 18 19 rings

> <PUBCHEM_HEAVY_ATOM_COUNT>
27

> <PUBCHEM_ATOM_DEF_STEREO_COUNT>
3

> <PUBCHEM_ATOM_UDEF_STEREO_COUNT>
0

> <PUBCHEM_BOND_DEF_STEREO_COUNT>
0

> <PUBCHEM_BOND_UDEF_STEREO_COUNT>
0

> <PUBCHEM_ISOTOPIC_ATOM_COUNT>
0

> <PUBCHEM_COMPONENT_COUNT>
1

> <PUBCHEM_CACTVS_TAUTO_COUNT>
8

> <PUBCHEM_CONFORMER_ID>
00B5500F00000001

> <PUBCHEM_MMFF94_ENERGY>
78.8333

> <PUBCHEM_FEATURE_SELFOVERLAP>
55.871

> <PUBCHEM_SHAPE_FINGERPRINT>
10411042 1 17756134597872872146
10670039 82 17560809792580711600
12107183 9 17762618386984474274
12166972 35 18342455976153223305
12236239 1 18341611499482588551
12596602 18 18186803573822400099
12788726 201 18131073701417895921
13533116 47 18337383855704300331
13782708 43 14548735114675374029
14294032 229 17273995540820585297
14739800 52 18129644397111792096
14790565 3 18335148635097490764
14931854 50 18342177756334215004
15183329 4 18059585663657774030
1577012 14 18343017762401940341
15788980 27 11959735949628334570
18335252 98 18114186376159414891
18608769 82 18189622811946557387
18681886 176 17703219723651616502
20612939 158 18333732386531681994
21033650 10 16343718603291257835
21065198 48 18340204098581084355
21150785 3 16917068888939620804
221357 26 17847061094899386624
2297311 6 16917068871785969323
23402539 116 17917421034937068647
23557571 272 16558756689320488137
23559900 14 17346312743148676105
335352 9 18334016095534802766
34797466 226 16415191317093065018
350125 39 18411697677719890965
3545911 37 18343020008353429183
4340502 62 15864066577296072026
474 4 18334013899761970427
5104073 3 17749107798508768522
59755656 215 17847067674657084430
59755656 520 17967809492211646739

> <PUBCHEM_SHAPE_MULTIPOLES>
497.3
15.02
2.35
1.24
1.97
0.12
0.25
-5.56
-2.88
-1.25
0.51
0.61
-0.08
-2.04

> <PUBCHEM_SHAPE_SELFOVERLAP>
1052.744

> <PUBCHEM_SHAPE_VOLUME>
275.7

> <PUBCHEM_COORDINATE_TYPE>
2
5
10

$$$$
