45783364
  -OEChem-12032416263D

 59 62  0     1  0  0  0  0  0999 V2000
   -3.1568    1.5771   -1.5304 O   0  0  0  0  0  0  0  0  0  0  0  0
    3.2531    1.1474    1.0387 O   0  0  0  0  0  0  0  0  0  0  0  0
    2.8909   -2.1542    0.0483 O   0  0  0  0  0  0  0  0  0  0  0  0
    5.2611   -0.6355    1.7643 O   0  0  0  0  0  0  0  0  0  0  0  0
   -3.9063   -0.6533    1.2925 N   0  0  1  0  0  0  0  0  0  0  0  0
   -1.7854    1.1307    0.1833 N   0  0  0  0  0  0  0  0  0  0  0  0
   -1.9004    2.0763   -1.8967 N   0  0  0  0  0  0  0  0  0  0  0  0
    1.3965   -2.4805   -1.7458 N   0  0  0  0  0  0  0  0  0  0  0  0
    2.9645    2.7476   -0.6168 N   0  0  0  0  0  0  0  0  0  0  0  0
   -4.2339    0.4214    0.3343 C   0  0  1  0  0  0  0  0  0  0  0  0
   -5.0560    1.4359    1.1505 C   0  0  0  0  0  0  0  0  0  0  0  0
   -5.1897    0.8175    2.5349 C   0  0  0  0  0  0  0  0  0  0  0  0
   -4.9800   -0.6625    2.2862 C   0  0  0  0  0  0  0  0  0  0  0  0
   -3.7340   -1.9545    0.6594 C   0  0  0  0  0  0  0  0  0  0  0  0
   -3.0012    1.0378   -0.2930 C   0  0  0  0  0  0  0  0  0  0  0  0
   -2.3765   -2.0931    0.0231 C   0  0  0  0  0  0  0  0  0  0  0  0
   -2.2704   -2.3587   -1.3421 C   0  0  0  0  0  0  0  0  0  0  0  0
   -1.2251   -1.9563    0.7985 C   0  0  0  0  0  0  0  0  0  0  0  0
   -1.1461    1.7750   -0.8356 C   0  0  0  0  0  0  0  0  0  0  0  0
   -1.0130   -2.4878   -1.9319 C   0  0  0  0  0  0  0  0  0  0  0  0
    0.0324   -2.0855    0.2089 C   0  0  0  0  0  0  0  0  0  0  0  0
    0.1384   -2.3512   -1.1564 C   0  0  0  0  0  0  0  0  0  0  0  0
    0.2480    2.1047   -0.7612 C   0  0  0  0  0  0  0  0  0  0  0  0
    1.0769    1.4361    0.1329 C   0  0  0  0  0  0  0  0  0  0  0  0
    0.7757    3.0943   -1.5832 C   0  0  0  0  0  0  0  0  0  0  0  0
    2.4157    1.7917    0.1661 C   0  0  0  0  0  0  0  0  0  0  0  0
    2.1280    3.3757   -1.4733 C   0  0  0  0  0  0  0  0  0  0  0  0
    2.6530   -2.3770   -1.1343 C   0  0  0  0  0  0  0  0  0  0  0  0
    3.7740   -2.5820   -2.1222 C   0  0  0  0  0  0  0  0  0  0  0  0
    4.6174    1.5509    1.0322 C   0  0  0  0  0  0  0  0  0  0  0  0
    5.3757    0.7485    2.0720 C   0  0  0  0  0  0  0  0  0  0  0  0
    5.9736   -1.4366    2.6966 C   0  0  0  0  0  0  0  0  0  0  0  0
   -4.8794    0.0420   -0.4703 H   0  0  0  0  0  0  0  0  0  0  0  0
   -4.5989    2.4296    1.2108 H   0  0  0  0  0  0  0  0  0  0  0  0
   -6.0506    1.5498    0.7024 H   0  0  0  0  0  0  0  0  0  0  0  0
   -6.1597    1.0330    2.9924 H   0  0  0  0  0  0  0  0  0  0  0  0
   -4.4063    1.2094    3.1954 H   0  0  0  0  0  0  0  0  0  0  0  0
   -5.8977   -1.1156    1.8900 H   0  0  0  0  0  0  0  0  0  0  0  0
   -4.6901   -1.1870    3.2020 H   0  0  0  0  0  0  0  0  0  0  0  0
   -4.5386   -2.1681   -0.0565 H   0  0  0  0  0  0  0  0  0  0  0  0
   -3.7961   -2.7487    1.4167 H   0  0  0  0  0  0  0  0  0  0  0  0
   -3.1587   -2.4656   -1.9587 H   0  0  0  0  0  0  0  0  0  0  0  0
   -1.2928   -1.7545    1.8644 H   0  0  0  0  0  0  0  0  0  0  0  0
   -0.9452   -2.6938   -2.9970 H   0  0  0  0  0  0  0  0  0  0  0  0
    0.8769   -1.9704    0.8739 H   0  0  0  0  0  0  0  0  0  0  0  0
    0.7059    0.6682    0.8023 H   0  0  0  0  0  0  0  0  0  0  0  0
    1.3899   -2.6736   -2.7452 H   0  0  0  0  0  0  0  0  0  0  0  0
    0.1735    3.6509   -2.2939 H   0  0  0  0  0  0  0  0  0  0  0  0
    2.5887    4.1397   -2.0907 H   0  0  0  0  0  0  0  0  0  0  0  0
    4.7372   -2.4516   -1.6211 H   0  0  0  0  0  0  0  0  0  0  0  0
    3.7211   -3.5928   -2.5359 H   0  0  0  0  0  0  0  0  0  0  0  0
    3.6945   -1.8504   -2.9313 H   0  0  0  0  0  0  0  0  0  0  0  0
    4.7033    2.6182    1.2685 H   0  0  0  0  0  0  0  0  0  0  0  0
    5.0471    1.3514    0.0427 H   0  0  0  0  0  0  0  0  0  0  0  0
    6.4302    1.0455    2.0775 H   0  0  0  0  0  0  0  0  0  0  0  0
    4.9435    0.9256    3.0637 H   0  0  0  0  0  0  0  0  0  0  0  0
    7.0403   -1.1936    2.6752 H   0  0  0  0  0  0  0  0  0  0  0  0
    5.5748   -1.2975    3.7061 H   0  0  0  0  0  0  0  0  0  0  0  0
    5.8492   -2.4855    2.4141 H   0  0  0  0  0  0  0  0  0  0  0  0
  1  7  1  0  0  0  0
  1 15  1  0  0  0  0
  2 26  1  0  0  0  0
  2 30  1  0  0  0  0
  3 28  2  0  0  0  0
  4 31  1  0  0  0  0
  4 32  1  0  0  0  0
  5 10  1  0  0  0  0
  5 13  1  0  0  0  0
  5 14  1  0  0  0  0
  6 15  2  0  0  0  0
  6 19  1  0  0  0  0
  7 19  2  0  0  0  0
  8 22  1  0  0  0  0
  8 28  1  0  0  0  0
  8 47  1  0  0  0  0
  9 26  2  0  0  0  0
  9 27  1  0  0  0  0
 10 11  1  0  0  0  0
 10 15  1  0  0  0  0
 10 33  1  0  0  0  0
 11 12  1  0  0  0  0
 11 34  1  0  0  0  0
 11 35  1  0  0  0  0
 12 13  1  0  0  0  0
 12 36  1  0  0  0  0
 12 37  1  0  0  0  0
 13 38  1  0  0  0  0
 13 39  1  0  0  0  0
 14 16  1  0  0  0  0
 14 40  1  0  0  0  0
 14 41  1  0  0  0  0
 16 17  2  0  0  0  0
 16 18  1  0  0  0  0
 17 20  1  0  0  0  0
 17 42  1  0  0  0  0
 18 21  2  0  0  0  0
 18 43  1  0  0  0  0
 19 23  1  0  0  0  0
 20 22  2  0  0  0  0
 20 44  1  0  0  0  0
 21 22  1  0  0  0  0
 21 45  1  0  0  0  0
 23 24  2  0  0  0  0
 23 25  1  0  0  0  0
 24 26  1  0  0  0  0
 24 46  1  0  0  0  0
 25 27  2  0  0  0  0
 25 48  1  0  0  0  0
 27 49  1  0  0  0  0
 28 29  1  0  0  0  0
 29 50  1  0  0  0  0
 29 51  1  0  0  0  0
 29 52  1  0  0  0  0
 30 31  1  0  0  0  0
 30 53  1  0  0  0  0
 30 54  1  0  0  0  0
 31 55  1  0  0  0  0
 31 56  1  0  0  0  0
 32 57  1  0  0  0  0
 32 58  1  0  0  0  0
 32 59  1  0  0  0  0
M  END
> <PUBCHEM_COMPOUND_CID>
45783364

> <PUBCHEM_CONFORMER_RMSD>
1

> <PUBCHEM_CONFORMER_DIVERSEORDER>
1
86
108
91
44
144
139
135
98
49
14
116
120
84
35
80
55
56
157
142
134
54
119
136
63
83
138
74
82
92
140
90
141
153
143
31
106
67
72
30
103
148
111
121
109
47
22
124
33
114
130
51
104
117
149
77
26
102
88
61
41
126
50
128
99
93
27
152
69
52
64
29
154
147
118
36
53
78
28
62
122
150
97
129
123
94
48
133
85
3
115
95
25
101
34
71
20
39
137
16
7
110
155
60
96
19
6
57
127
9
87
151
70
15
58
112
4
66
46
45
5
73
75
2
79
146
32
105
131
42
40
125
8
12
113
13
145
37
81
23
10
21
59
132
107
89
68
76
100
11
156
43
18
38
65
17
24

> <PUBCHEM_MMFF94_PARTIAL_CHARGES>
38
1 -0.02
10 0.45
13 0.27
14 0.41
15 0.3
16 -0.14
17 -0.15
18 -0.15
19 0.46
2 -0.36
20 -0.15
21 -0.15
22 0.12
23 0.05
24 -0.15
25 -0.15
26 0.39
27 0.16
28 0.57
29 0.06
3 -0.57
30 0.28
31 0.28
32 0.28
4 -0.56
42 0.15
43 0.15
44 0.15
45 0.15
46 0.15
47 0.37
48 0.15
49 0.15
5 -0.81
6 -0.57
7 -0.41
8 -0.55
9 -0.62

> <PUBCHEM_EFFECTIVE_ROTOR_COUNT>
11

> <PUBCHEM_PHARMACOPHORE_FEATURES>
9
1 3 acceptor
1 4 acceptor
1 5 cation
1 8 donor
3 6 7 19 cation
5 1 6 7 15 19 rings
5 5 10 11 12 13 rings
6 16 17 18 20 21 22 rings
6 9 23 24 25 26 27 rings

> <PUBCHEM_HEAVY_ATOM_COUNT>
32

> <PUBCHEM_ATOM_DEF_STEREO_COUNT>
1

> <PUBCHEM_ATOM_UDEF_STEREO_COUNT>
0

> <PUBCHEM_BOND_DEF_STEREO_COUNT>
0

> <PUBCHEM_BOND_UDEF_STEREO_COUNT>
0

> <PUBCHEM_ISOTOPIC_ATOM_COUNT>
0

> <PUBCHEM_COMPONENT_COUNT>
1

> <PUBCHEM_CACTVS_TAUTO_COUNT>
2

> <PUBCHEM_CONFORMER_ID>
02BA994400000001

> <PUBCHEM_MMFF94_ENERGY>
75.2585

> <PUBCHEM_FEATURE_SELFOVERLAP>
45.672

> <PUBCHEM_SHAPE_FINGERPRINT>
11112241 14 17488725852938953584
11135926 11 17460872050271139540
12035758 1 18339646633385620994
12156800 1 15549146487971412224
12422481 6 18411694379337638130
12633257 1 18187365492577306339
13402501 40 18266477433070945166
15274700 242 17606086655717178136
15419008 47 17912378537416539774
15840311 113 17273145592398622553
16110190 28 18335976571558307856
19319366 153 16025923832230799844
20554085 129 17775011180991004225
20691752 17 17969236671305147751
20764821 26 18410856598669029598
22182313 1 18335980848633383253
4112364 45 16987175825070078065
5081480 168 17987255342979873294
5265222 85 17691436382540154492
57527358 35 15217563467726671766
57527585 103 17897170345583467283
581034 39 17916581097947665126
6287921 2 18058465218095737487
7064713 232 18201721807358754760

> <PUBCHEM_SHAPE_MULTIPOLES>
610.16
11.3
4.32
2.51
3.85
0.04
-0.84
-0.29
-10.95
2.28
2.76
1.17
0.36
-0.04

> <PUBCHEM_SHAPE_SELFOVERLAP>
1302.78

> <PUBCHEM_SHAPE_VOLUME>
339.8

> <PUBCHEM_COORDINATE_TYPE>
2
5
10

$$$$
