11941652
  -OEChem-12032416253D

 56 60  0     1  0  0  0  0  0999 V2000
   -0.9766    3.5067    0.4928 O   0  0  0  0  0  0  0  0  0  0  0  0
   -1.6975    1.5742   -1.8487 O   0  0  0  0  0  0  0  0  0  0  0  0
    3.0923    2.1657   -0.0654 O   0  0  0  0  0  0  0  0  0  0  0  0
   -5.4017   -1.3013   -1.5338 O   0  0  0  0  0  0  0  0  0  0  0  0
    8.8751   -2.7459    0.3435 O   0  0  0  0  0  0  0  0  0  0  0  0
   -3.1641    1.5601    1.4947 N   0  0  0  0  0  0  0  0  0  0  0  0
    1.3134    1.1939   -1.1773 N   0  0  0  0  0  0  0  0  0  0  0  0
    3.2336   -0.0312   -0.8804 N   0  0  0  0  0  0  0  0  0  0  0  0
   -4.4492   -0.1830    0.5907 N   0  0  0  0  0  0  0  0  0  0  0  0
   -4.1223    0.0081    2.9706 N   0  0  0  0  0  0  0  0  0  0  0  0
   -1.6843    1.4259   -0.4188 C   0  0  1  0  0  0  0  0  0  0  0  0
   -0.4959    2.2093    0.1037 C   0  0  1  0  0  0  0  0  0  0  0  0
   -2.8803    2.1184    0.1907 C   0  0  2  0  0  0  0  0  0  0  0  0
    0.4224    2.3255   -1.0914 C   0  0  2  0  0  0  0  0  0  0  0  0
   -2.4014    3.5521    0.3264 C   0  0  0  0  0  0  0  0  0  0  0  0
   -0.5561    2.3451   -2.2523 C   0  0  0  0  0  0  0  0  0  0  0  0
   -3.9349    0.4280    1.6911 C   0  0  0  0  0  0  0  0  0  0  0  0
    2.6092    1.1973   -0.6472 C   0  0  0  0  0  0  0  0  0  0  0  0
   -5.1950   -1.2839    0.8191 C   0  0  0  0  0  0  0  0  0  0  0  0
    4.5386   -0.4268   -0.5049 C   0  0  0  0  0  0  0  0  0  0  0  0
   -4.8782   -1.0986    3.1260 C   0  0  0  0  0  0  0  0  0  0  0  0
   -5.4456   -1.7928    2.0771 C   0  0  0  0  0  0  0  0  0  0  0  0
   -5.7258   -1.9077   -0.3636 C   0  0  0  0  0  0  0  0  0  0  0  0
    5.3474    0.4649    0.1806 C   0  0  0  0  0  0  0  0  0  0  0  0
    4.9814   -1.6984   -0.8308 C   0  0  0  0  0  0  0  0  0  0  0  0
    6.6344    0.0743    0.5504 C   0  0  0  0  0  0  0  0  0  0  0  0
    6.2684   -2.0891   -0.4609 C   0  0  0  0  0  0  0  0  0  0  0  0
    7.0949   -1.2026    0.2297 C   0  0  0  0  0  0  0  0  0  0  0  0
   -6.5115   -3.0115   -0.5880 C   0  0  0  0  0  0  0  0  0  0  0  0
   -6.6832   -3.0905   -1.9906 C   0  0  0  0  0  0  0  0  0  0  0  0
   -5.9887   -2.0280   -2.5207 C   0  0  0  0  0  0  0  0  0  0  0  0
    8.4361   -1.6107    0.6159 C   0  0  0  0  0  0  0  0  0  0  0  0
    9.3450   -0.6474    1.3719 C   0  0  0  0  0  0  0  0  0  0  0  0
   -1.6129    0.3547   -0.2048 H   0  0  0  0  0  0  0  0  0  0  0  0
   -0.0354    1.7520    0.9855 H   0  0  0  0  0  0  0  0  0  0  0  0
   -3.7739    2.0966   -0.4436 H   0  0  0  0  0  0  0  0  0  0  0  0
    1.0204    3.2430   -1.0784 H   0  0  0  0  0  0  0  0  0  0  0  0
   -2.6018    4.1190   -0.5895 H   0  0  0  0  0  0  0  0  0  0  0  0
   -2.8470    4.0925    1.1674 H   0  0  0  0  0  0  0  0  0  0  0  0
   -0.1495    1.9328   -3.1807 H   0  0  0  0  0  0  0  0  0  0  0  0
   -0.9067    3.3637   -2.4517 H   0  0  0  0  0  0  0  0  0  0  0  0
   -2.7428    1.9765    2.3173 H   0  0  0  0  0  0  0  0  0  0  0  0
    0.9621    0.3320   -1.5839 H   0  0  0  0  0  0  0  0  0  0  0  0
    2.6907   -0.7301   -1.3814 H   0  0  0  0  0  0  0  0  0  0  0  0
   -5.0198   -1.4227    4.1515 H   0  0  0  0  0  0  0  0  0  0  0  0
   -6.0445   -2.6763    2.2578 H   0  0  0  0  0  0  0  0  0  0  0  0
    5.0640    1.4675    0.4647 H   0  0  0  0  0  0  0  0  0  0  0  0
    4.3456   -2.3964   -1.3684 H   0  0  0  0  0  0  0  0  0  0  0  0
    7.2453    0.7939    1.0868 H   0  0  0  0  0  0  0  0  0  0  0  0
    6.6043   -3.0892   -0.7220 H   0  0  0  0  0  0  0  0  0  0  0  0
   -6.9177   -3.6843    0.1540 H   0  0  0  0  0  0  0  0  0  0  0  0
   -7.2429   -3.8292   -2.5459 H   0  0  0  0  0  0  0  0  0  0  0  0
   -5.8232   -1.6698   -3.5262 H   0  0  0  0  0  0  0  0  0  0  0  0
   10.3033   -1.1391    1.5680 H   0  0  0  0  0  0  0  0  0  0  0  0
    9.5397    0.2421    0.7672 H   0  0  0  0  0  0  0  0  0  0  0  0
    8.8987   -0.3826    2.3339 H   0  0  0  0  0  0  0  0  0  0  0  0
  1 12  1  0  0  0  0
  1 15  1  0  0  0  0
  2 11  1  0  0  0  0
  2 16  1  0  0  0  0
  3 18  2  0  0  0  0
  4 23  1  0  0  0  0
  4 31  1  0  0  0  0
  5 32  2  0  0  0  0
  6 13  1  0  0  0  0
  6 17  1  0  0  0  0
  6 42  1  0  0  0  0
  7 14  1  0  0  0  0
  7 18  1  0  0  0  0
  7 43  1  0  0  0  0
  8 18  1  0  0  0  0
  8 20  1  0  0  0  0
  8 44  1  0  0  0  0
  9 17  1  0  0  0  0
  9 19  2  0  0  0  0
 10 17  2  0  0  0  0
 10 21  1  0  0  0  0
 11 12  1  0  0  0  0
 11 13  1  0  0  0  0
 11 34  1  0  0  0  0
 12 14  1  0  0  0  0
 12 35  1  0  0  0  0
 13 15  1  0  0  0  0
 13 36  1  0  0  0  0
 14 16  1  0  0  0  0
 14 37  1  0  0  0  0
 15 38  1  0  0  0  0
 15 39  1  0  0  0  0
 16 40  1  0  0  0  0
 16 41  1  0  0  0  0
 19 22  1  0  0  0  0
 19 23  1  0  0  0  0
 20 24  2  0  0  0  0
 20 25  1  0  0  0  0
 21 22  2  0  0  0  0
 21 45  1  0  0  0  0
 22 46  1  0  0  0  0
 23 29  2  0  0  0  0
 24 26  1  0  0  0  0
 24 47  1  0  0  0  0
 25 27  2  0  0  0  0
 25 48  1  0  0  0  0
 26 28  2  0  0  0  0
 26 49  1  0  0  0  0
 27 28  1  0  0  0  0
 27 50  1  0  0  0  0
 28 32  1  0  0  0  0
 29 30  1  0  0  0  0
 29 51  1  0  0  0  0
 30 31  2  0  0  0  0
 30 52  1  0  0  0  0
 31 53  1  0  0  0  0
 32 33  1  0  0  0  0
 33 54  1  0  0  0  0
 33 55  1  0  0  0  0
 33 56  1  0  0  0  0
M  END
> <PUBCHEM_COMPOUND_CID>
11941652

> <PUBCHEM_CONFORMER_RMSD>
1

> <PUBCHEM_CONFORMER_DIVERSEORDER>
1
111
98
31
28
13
86
34
80
104
82
72
100
113
99
116
43
22
47
76
105
35
118
55
102
115
24
51
92
91
45
87
112
54
95
89
109
44
121
74
108
50
56
96
41
88
25
52
120
79
12
29
97
5
46
110
114
14
77
69
70
26
59
84
17
53
78
64
75
39
117
48
81
7
73
101
93
106
42
63
57
107
61
36
103
8
23
21
68
71
49
65
4
9
40
119
122
37
11
123
10
6
58
94
85
66
90
15
38
2
60
83
16
33
27
18
20
67
19
62
3
32
30

> <PUBCHEM_MMFF94_PARTIAL_CHARGES>
45
1 -0.56
10 -0.62
11 0.28
12 0.28
13 0.37
14 0.3
15 0.28
16 0.28
17 0.72
18 0.69
19 0.36
2 -0.56
20 0.12
21 0.16
22 -0.15
23 0.09
24 -0.15
25 -0.15
26 -0.15
27 -0.15
28 0.09
29 -0.15
3 -0.57
30 -0.15
31 -0.01
32 0.42
33 0.06
4 -0.28
42 0.4
43 0.37
44 0.37
45 0.15
46 0.15
47 0.15
48 0.15
49 0.15
5 -0.57
50 0.15
51 0.15
52 0.15
53 0.15
6 -0.87
7 -0.73
8 -0.55
9 -0.62

> <PUBCHEM_EFFECTIVE_ROTOR_COUNT>
9.2

> <PUBCHEM_PHARMACOPHORE_FEATURES>
15
1 1 acceptor
1 2 acceptor
1 3 acceptor
1 4 acceptor
1 5 acceptor
1 6 donor
1 7 donor
1 8 donor
1 9 acceptor
4 6 9 10 17 cation
5 1 11 12 13 15 rings
5 2 11 12 14 16 rings
5 4 23 29 30 31 rings
6 20 24 25 26 27 28 rings
6 9 10 17 19 21 22 rings

> <PUBCHEM_HEAVY_ATOM_COUNT>
33

> <PUBCHEM_ATOM_DEF_STEREO_COUNT>
4

> <PUBCHEM_ATOM_UDEF_STEREO_COUNT>
0

> <PUBCHEM_BOND_DEF_STEREO_COUNT>
0

> <PUBCHEM_BOND_UDEF_STEREO_COUNT>
0

> <PUBCHEM_ISOTOPIC_ATOM_COUNT>
0

> <PUBCHEM_COMPONENT_COUNT>
1

> <PUBCHEM_CACTVS_TAUTO_COUNT>
48

> <PUBCHEM_CONFORMER_ID>
00B6371400000001

> <PUBCHEM_MMFF94_ENERGY>
87.6674

> <PUBCHEM_FEATURE_SELFOVERLAP>
76.896

> <PUBCHEM_SHAPE_FINGERPRINT>
10049733 244 13470399033136632268
10674148 151 17530953680285145629
10930396 42 14979960290267807767
11135609 201 11887956545023008317
11135926 11 17022904514921669979
11200772 48 13262397765210298385
11211813 140 18272087253666687095
11410812 94 14418124120318086286
11828042 74 17531248314535261959
12218070 45 17632576093246788831
12373685 5 15864616264501317936
13512321 179 11887663036260545914
13627167 48 8646229012043886891
13782708 43 18334018272661235016
14150022 121 11671483652386038341
14344974 204 18342461405108203398
14664723 55 9367338241469494194
14765038 42 9367354734143936547
14950920 106 17346601884863751561
15131766 46 9510916821254141027
15350500 16 17131261485504477143
15510800 12 18041279967080215515
15519825 34 17489303135214481502
16120349 67 11819267837543220029
18603816 31 18409727336351588621
190975 80 18411134737226426624
19303781 99 18187652443890708851
19304152 47 14117526406895179755
19315092 285 17774446104469511169
21095123 145 18342177757520715702
21307412 95 17458061608192154795
21987483 16 17841986977459631651
22122407 14 10878064950934596507
23389318 12 17968099755318465566
25025965 108 18337094680094516474
25222932 49 18187644662285707202
2747138 104 18269839732188768704
32027 91 18190185774868984241
397830 11 17704075067100804116
4258327 124 8357718227164606555
42767 23 15864066586039273442
42767 24 18259985955296865686
4339292 15 17894903007115434850
474113 269 18272363209715339503
5080951 261 18340208480318852689
5718773 13 18410852191826952286
5937810 71 10087626123251895306
6289498 60 12535049882000087050
6431902 208 18261401035130059043
6636798 310 17489590099723638883
6712543 237 17560815294454981511
9511036 111 17631155558678620295
96874 4 18200871898288577799

> <PUBCHEM_SHAPE_MULTIPOLES>
624.87
26.07
4.03
2.36
46.76
1.32
0.82
-30.68
4.77
-3.87
-1.2
-5.66
-0.74
-2.37

> <PUBCHEM_SHAPE_SELFOVERLAP>
1370.786

> <PUBCHEM_SHAPE_VOLUME>
336.2

> <PUBCHEM_COORDINATE_TYPE>
2
5
10

$$$$
