11913048
  -OEChem-12032416253D

 55 59  0     1  0  0  0  0  0999 V2000
    0.1028   -0.4755   -1.5778 O   0  0  0  0  0  0  0  0  0  0  0  0
   -1.8399   -2.2935   -0.0502 O   0  0  0  0  0  0  0  0  0  0  0  0
    1.7312   -2.0265    0.0481 O   0  0  0  0  0  0  0  0  0  0  0  0
    2.3762   -0.0424    0.9846 O   0  0  0  0  0  0  0  0  0  0  0  0
   -6.4172   -1.0833    0.4066 O   0  0  0  0  0  0  0  0  0  0  0  0
    9.8567    0.8515   -0.1011 O   0  0  0  0  0  0  0  0  0  0  0  0
   -2.5561    1.0990   -1.2352 N   0  0  0  0  0  0  0  0  0  0  0  0
   -4.6781    0.6809   -0.3245 N   0  0  0  0  0  0  0  0  0  0  0  0
   -3.8902    2.9359   -0.6430 N   0  0  0  0  0  0  0  0  0  0  0  0
    3.9063   -1.4472   -0.0953 N   0  0  0  0  0  0  0  0  0  0  0  0
   -1.6976   -0.8577   -0.0827 C   0  0  1  0  0  0  0  0  0  0  0  0
   -0.2134   -0.5658   -0.1791 C   0  0  1  0  0  0  0  0  0  0  0  0
   -2.2620   -0.3113   -1.3731 C   0  0  2  0  0  0  0  0  0  0  0  0
    0.4026   -1.7896    0.4554 C   0  0  1  0  0  0  0  0  0  0  0  0
   -1.1115   -0.5173   -2.3430 C   0  0  0  0  0  0  0  0  0  0  0  0
   -0.5348   -2.8876    0.0061 C   0  0  0  0  0  0  0  0  0  0  0  0
   -3.7438    1.5864   -0.7188 C   0  0  0  0  0  0  0  0  0  0  0  0
    2.6643   -1.0635    0.3722 C   0  0  0  0  0  0  0  0  0  0  0  0
   -5.8232    1.1910    0.1743 C   0  0  0  0  0  0  0  0  0  0  0  0
   -5.0595    3.3768   -0.1344 C   0  0  0  0  0  0  0  0  0  0  0  0
    5.1326   -0.7541    0.0218 C   0  0  0  0  0  0  0  0  0  0  0  0
   -6.0719    2.5431    0.2946 C   0  0  0  0  0  0  0  0  0  0  0  0
   -6.7926    0.2093    0.5820 C   0  0  0  0  0  0  0  0  0  0  0  0
    5.1631    0.4678    0.6748 C   0  0  0  0  0  0  0  0  0  0  0  0
    6.2808   -1.3102   -0.5193 C   0  0  0  0  0  0  0  0  0  0  0  0
   -8.0518    0.2815    1.1251 C   0  0  0  0  0  0  0  0  0  0  0  0
    6.3735    1.1515    0.7898 C   0  0  0  0  0  0  0  0  0  0  0  0
    7.4912   -0.6267   -0.4042 C   0  0  0  0  0  0  0  0  0  0  0  0
    7.5375    0.6043    0.2503 C   0  0  0  0  0  0  0  0  0  0  0  0
   -8.4814   -1.0561    1.2956 C   0  0  0  0  0  0  0  0  0  0  0  0
   -7.4518   -1.8484    0.8438 C   0  0  0  0  0  0  0  0  0  0  0  0
    8.7998    1.3161    0.3708 C   0  0  0  0  0  0  0  0  0  0  0  0
    8.8584    2.6617    1.0860 C   0  0  0  0  0  0  0  0  0  0  0  0
   -2.1550   -0.4620    0.8296 H   0  0  0  0  0  0  0  0  0  0  0  0
    0.0604    0.3843    0.2870 H   0  0  0  0  0  0  0  0  0  0  0  0
   -3.1398   -0.8575   -1.7372 H   0  0  0  0  0  0  0  0  0  0  0  0
    0.3521   -1.7130    1.5500 H   0  0  0  0  0  0  0  0  0  0  0  0
   -1.1649   -1.5083   -2.8073 H   0  0  0  0  0  0  0  0  0  0  0  0
   -1.0624    0.2312   -3.1400 H   0  0  0  0  0  0  0  0  0  0  0  0
   -0.2783   -3.2739   -0.9867 H   0  0  0  0  0  0  0  0  0  0  0  0
   -0.5464   -3.7339    0.6995 H   0  0  0  0  0  0  0  0  0  0  0  0
   -1.8467    1.7816   -1.4769 H   0  0  0  0  0  0  0  0  0  0  0  0
    3.9457   -2.3380   -0.5847 H   0  0  0  0  0  0  0  0  0  0  0  0
   -5.1634    4.4552   -0.0793 H   0  0  0  0  0  0  0  0  0  0  0  0
   -6.9917    2.9500    0.6951 H   0  0  0  0  0  0  0  0  0  0  0  0
    4.3051    0.9532    1.1167 H   0  0  0  0  0  0  0  0  0  0  0  0
    6.2555   -2.2683   -1.0311 H   0  0  0  0  0  0  0  0  0  0  0  0
   -8.6046    1.1768    1.3726 H   0  0  0  0  0  0  0  0  0  0  0  0
    6.3662    2.1062    1.3067 H   0  0  0  0  0  0  0  0  0  0  0  0
    8.3844   -1.0736   -0.8327 H   0  0  0  0  0  0  0  0  0  0  0  0
   -9.4235   -1.3999    1.6975 H   0  0  0  0  0  0  0  0  0  0  0  0
   -7.3070   -2.9162    0.7700 H   0  0  0  0  0  0  0  0  0  0  0  0
    9.8888    3.0308    1.0697 H   0  0  0  0  0  0  0  0  0  0  0  0
    8.2302    3.3921    0.5696 H   0  0  0  0  0  0  0  0  0  0  0  0
    8.5571    2.5482    2.1305 H   0  0  0  0  0  0  0  0  0  0  0  0
  1 12  1  0  0  0  0
  1 15  1  0  0  0  0
  2 11  1  0  0  0  0
  2 16  1  0  0  0  0
  3 14  1  0  0  0  0
  3 18  1  0  0  0  0
  4 18  2  0  0  0  0
  5 23  1  0  0  0  0
  5 31  1  0  0  0  0
  6 32  2  0  0  0  0
  7 13  1  0  0  0  0
  7 17  1  0  0  0  0
  7 42  1  0  0  0  0
  8 17  1  0  0  0  0
  8 19  2  0  0  0  0
  9 17  2  0  0  0  0
  9 20  1  0  0  0  0
 10 18  1  0  0  0  0
 10 21  1  0  0  0  0
 10 43  1  0  0  0  0
 11 12  1  0  0  0  0
 11 13  1  0  0  0  0
 11 34  1  0  0  0  0
 12 14  1  0  0  0  0
 12 35  1  0  0  0  0
 13 15  1  0  0  0  0
 13 36  1  0  0  0  0
 14 16  1  0  0  0  0
 14 37  1  0  0  0  0
 15 38  1  0  0  0  0
 15 39  1  0  0  0  0
 16 40  1  0  0  0  0
 16 41  1  0  0  0  0
 19 22  1  0  0  0  0
 19 23  1  0  0  0  0
 20 22  2  0  0  0  0
 20 44  1  0  0  0  0
 21 24  2  0  0  0  0
 21 25  1  0  0  0  0
 22 45  1  0  0  0  0
 23 26  2  0  0  0  0
 24 27  1  0  0  0  0
 24 46  1  0  0  0  0
 25 28  2  0  0  0  0
 25 47  1  0  0  0  0
 26 30  1  0  0  0  0
 26 48  1  0  0  0  0
 27 29  2  0  0  0  0
 27 49  1  0  0  0  0
 28 29  1  0  0  0  0
 28 50  1  0  0  0  0
 29 32  1  0  0  0  0
 30 31  2  0  0  0  0
 30 51  1  0  0  0  0
 31 52  1  0  0  0  0
 32 33  1  0  0  0  0
 33 53  1  0  0  0  0
 33 54  1  0  0  0  0
 33 55  1  0  0  0  0
M  END
> <PUBCHEM_COMPOUND_CID>
11913048

> <PUBCHEM_CONFORMER_RMSD>
1

> <PUBCHEM_CONFORMER_DIVERSEORDER>
1
162
121
72
8
97
25
53
173
63
169
110
123
122
78
101
145
82
31
65
7
29
105
49
20
174
158
172
26
136
118
6
93
128
54
48
86
85
135
164
156
106
103
4
84
98
134
176
130
150
140
91
125
129
160
87
138
44
39
71
139
92
127
149
9
94
100
50
67
99
23
124
19
141
36
126
113
38
47
24
40
102
142
165
15
61
62
119
111
148
167
90
32
33
18
132
83
171
117
159
107
27
34
166
76
157
104
3
88
170
74
73
52
41
154
16
163
177
58
64
133
95
161
69
68
80
59
143
108
51
57
131
144
175
116
55
151
37
66
35
10
112
14
120
11
77
21
70
152
89
81
96
155
13
2
115
28
22
146
79
153
46
42
168
114
75
109
147
5
137
60
30
45
12
17
56
43

> <PUBCHEM_MMFF94_PARTIAL_CHARGES>
44
1 -0.56
10 -0.55
11 0.28
12 0.28
13 0.37
14 0.28
15 0.28
16 0.28
17 0.72
18 0.78
19 0.36
2 -0.56
20 0.16
21 0.12
22 -0.15
23 0.09
24 -0.15
25 -0.15
26 -0.15
27 -0.15
28 -0.15
29 0.09
3 -0.43
30 -0.15
31 -0.01
32 0.42
33 0.06
4 -0.57
42 0.4
43 0.37
44 0.15
45 0.15
46 0.15
47 0.15
48 0.15
49 0.15
5 -0.28
50 0.15
51 0.15
52 0.15
6 -0.57
7 -0.87
8 -0.62
9 -0.62

> <PUBCHEM_EFFECTIVE_ROTOR_COUNT>
9.2

> <PUBCHEM_PHARMACOPHORE_FEATURES>
14
1 1 acceptor
1 10 donor
1 2 acceptor
1 4 acceptor
1 5 acceptor
1 6 acceptor
1 7 donor
1 8 acceptor
4 7 8 9 17 cation
5 1 11 12 13 15 rings
5 2 11 12 14 16 rings
5 5 23 26 30 31 rings
6 21 24 25 27 28 29 rings
6 8 9 17 19 20 22 rings

> <PUBCHEM_HEAVY_ATOM_COUNT>
33

> <PUBCHEM_ATOM_DEF_STEREO_COUNT>
4

> <PUBCHEM_ATOM_UDEF_STEREO_COUNT>
0

> <PUBCHEM_BOND_DEF_STEREO_COUNT>
0

> <PUBCHEM_BOND_UDEF_STEREO_COUNT>
0

> <PUBCHEM_ISOTOPIC_ATOM_COUNT>
0

> <PUBCHEM_COMPONENT_COUNT>
1

> <PUBCHEM_CACTVS_TAUTO_COUNT>
27

> <PUBCHEM_CONFORMER_ID>
00B5C75800000001

> <PUBCHEM_MMFF94_ENERGY>
93.6021

> <PUBCHEM_FEATURE_SELFOVERLAP>
71.778

> <PUBCHEM_SHAPE_FINGERPRINT>
10 15 18261109677602288474
10049733 35 10592044679101033210
10055352 69 18272086140642052608
10190206 1 18200293533550163351
10369192 42 18272931609465275255
10483366 6 10735881659937294829
10577160 183 11527959936750642695
106641 1 17967254208579215291
10674148 151 12751235891741918174
10842051 180 15213029228061041780
11200772 48 11671774975733307909
11408170 108 12540967465362587385
11456790 92 18338505358350057274
11828042 206 12247678267289209930
12104220 1 18335978757950076879
12144600 37 18338240345055518494
12202916 173 8502657017251472760
12539745 222 16056314068411398671
12643181 29 9727631705175389297
13726171 33 18195812869686041193
13740195 50 18333731355401771978
13914758 101 11600004344874981142
14394314 77 18339925909361129832
14849402 71 18412545439723833897
15183329 4 16271921584781728732
15188451 53 10737284633012034958
15444296 7 18341896328823859972
15444296 9 13182748021718480657
15538507 19 18050006894541328867
15604295 49 18200025296121328176
16126227 98 18410574002637398882
17686467 74 18260832627021992033
18603816 31 13118288113848584401
18608769 82 18411418427683738003
19302320 297 18334851771659400128
19611394 137 18335428997529296987
2026 5 8214130868261733641
21033648 29 18199453520220577258
21130935 74 18042123159091619723
21133410 52 18127121108442885679
21756936 100 18341323444600039647
21779490 81 18335419007029854360
21792965 270 18267022945800595008
22224240 67 17748547030409243538
24771293 8 18260833674382368589
25019877 29 18342178864715638999
3418910 222 18337966627085319085
3633792 109 13758351194476992146
397830 11 18340491054442915471
4403749 210 18260824861779084645
444769 64 10735877301046539039
474113 269 12324233975694915576
5718773 13 8862939494625859180
57676310 115 11959193895314074091
59682541 35 18113340825076926067
6081469 158 9151176454693209018
6703917 75 18410020926571451443
9663363 56 18187367641617110315
9689198 14 18272371945098576732
9953998 17 18408891712046764601

> <PUBCHEM_SHAPE_MULTIPOLES>
623.98
30.92
2.95
1.23
31.33
1.34
-0.45
13.55
11.11
-2.31
0.17
-0.91
-0.03
2.4

> <PUBCHEM_SHAPE_SELFOVERLAP>
1373.214

> <PUBCHEM_SHAPE_VOLUME>
335.5

> <PUBCHEM_COORDINATE_TYPE>
2
5
10

$$$$
