7113923
  -OEChem-12032416113D

 61 65  0     1  0  0  0  0  0999 V2000
   -2.4500    2.4149   -0.9783 S   0  0  0  0  0  0  0  0  0  0  0  0
   -5.4513   -2.9528    0.7519 F   0  0  0  0  0  0  0  0  0  0  0  0
   -3.8801   -2.9221   -0.7430 F   0  0  0  0  0  0  0  0  0  0  0  0
   -3.4074   -2.4950    1.3362 F   0  0  0  0  0  0  0  0  0  0  0  0
    0.3263    3.8398   -0.9923 O   0  0  0  0  0  0  0  0  0  0  0  0
    3.0693   -0.2711   -2.5487 O   0  0  0  0  0  0  0  0  0  0  0  0
   -3.0355    3.5475   -1.6706 O   0  0  0  0  0  0  0  0  0  0  0  0
   -1.4677    1.5801   -1.6436 O   0  0  0  0  0  0  0  0  0  0  0  0
    1.4522   -5.9963    0.4961 O   0  0  0  0  0  0  0  0  0  0  0  0
    3.5363   -5.5061   -0.2673 O   0  0  0  0  0  0  0  0  0  0  0  0
    3.8215    0.3152   -0.4118 N   0  0  0  0  0  0  0  0  0  0  0  0
    1.8822    2.7085    0.3450 N   0  0  0  0  0  0  0  0  0  0  0  0
   -1.8504    2.9128    0.5242 N   0  0  0  0  0  0  0  0  0  0  0  0
    4.3986    2.7197   -0.1278 C   0  0  1  0  0  0  0  0  0  0  0  0
    3.5179    1.4386    1.7818 C   0  0  2  0  0  0  0  0  0  0  0  0
    4.5384    2.5005    1.3748 C   0  0  0  0  0  0  0  0  0  0  0  0
    4.6669    1.4090   -0.8895 C   0  0  0  0  0  0  0  0  0  0  0  0
    3.0006    3.2799   -0.4172 C   0  0  0  0  0  0  0  0  0  0  0  0
    3.8257    0.1187    1.0469 C   0  0  0  0  0  0  0  0  0  0  0  0
    2.1045    1.8862    1.4582 C   0  0  0  0  0  0  0  0  0  0  0  0
    1.0726    1.4648    2.2120 C   0  0  0  0  0  0  0  0  0  0  0  0
    0.5845    3.1086   -0.0371 C   0  0  0  0  0  0  0  0  0  0  0  0
    3.0771   -0.4303   -1.3293 C   0  0  0  0  0  0  0  0  0  0  0  0
   -0.5135    2.5920    0.8181 C   0  0  0  0  0  0  0  0  0  0  0  0
   -0.2800    1.8258    1.8842 C   0  0  0  0  0  0  0  0  0  0  0  0
    2.2067   -1.4895   -0.8081 C   0  0  0  0  0  0  0  0  0  0  0  0
    2.7025   -2.7818   -0.6554 C   0  0  0  0  0  0  0  0  0  0  0  0
    0.8881   -1.1974   -0.4691 C   0  0  0  0  0  0  0  0  0  0  0  0
    1.8741   -3.7887   -0.1602 C   0  0  0  0  0  0  0  0  0  0  0  0
   -3.7786    1.3637   -0.4702 C   0  0  0  0  0  0  0  0  0  0  0  0
    0.0596   -2.2043    0.0261 C   0  0  0  0  0  0  0  0  0  0  0  0
    0.5527   -3.5000    0.1806 C   0  0  0  0  0  0  0  0  0  0  0  0
   -3.5330    0.0179   -0.2640 C   0  0  0  0  0  0  0  0  0  0  0  0
   -5.0375    1.9079   -0.2892 C   0  0  0  0  0  0  0  0  0  0  0  0
    2.3875   -5.1397    0.0016 C   0  0  0  0  0  0  0  0  0  0  0  0
   -4.5811   -0.8111    0.1362 C   0  0  0  0  0  0  0  0  0  0  0  0
   -6.0856    1.0792    0.1112 C   0  0  0  0  0  0  0  0  0  0  0  0
   -5.8574   -0.2803    0.3238 C   0  0  0  0  0  0  0  0  0  0  0  0
   -4.3369   -2.2647    0.3637 C   0  0  0  0  0  0  0  0  0  0  0  0
    5.1406    3.4551   -0.4626 H   0  0  0  0  0  0  0  0  0  0  0  0
    3.6149    1.2659    2.8614 H   0  0  0  0  0  0  0  0  0  0  0  0
    4.3648    3.4367    1.9200 H   0  0  0  0  0  0  0  0  0  0  0  0
    5.5548    2.1693    1.6202 H   0  0  0  0  0  0  0  0  0  0  0  0
    4.5317    1.5620   -1.9655 H   0  0  0  0  0  0  0  0  0  0  0  0
    5.7070    1.0956   -0.7369 H   0  0  0  0  0  0  0  0  0  0  0  0
    2.7695    3.2040   -1.4872 H   0  0  0  0  0  0  0  0  0  0  0  0
    2.9975    4.3535   -0.1840 H   0  0  0  0  0  0  0  0  0  0  0  0
    4.8287   -0.2354    1.3152 H   0  0  0  0  0  0  0  0  0  0  0  0
    3.1237   -0.6601    1.3546 H   0  0  0  0  0  0  0  0  0  0  0  0
    1.2224    0.8163    3.0689 H   0  0  0  0  0  0  0  0  0  0  0  0
   -1.0719    1.4412    2.5180 H   0  0  0  0  0  0  0  0  0  0  0  0
   -2.4856    2.7426    1.3169 H   0  0  0  0  0  0  0  0  0  0  0  0
    3.7345   -2.9961   -0.9237 H   0  0  0  0  0  0  0  0  0  0  0  0
    0.4937   -0.1936   -0.5918 H   0  0  0  0  0  0  0  0  0  0  0  0
   -0.9667   -1.9821    0.2970 H   0  0  0  0  0  0  0  0  0  0  0  0
   -0.1266   -4.2527    0.5708 H   0  0  0  0  0  0  0  0  0  0  0  0
   -2.5427   -0.4004   -0.4063 H   0  0  0  0  0  0  0  0  0  0  0  0
   -5.2333    2.9646   -0.4423 H   0  0  0  0  0  0  0  0  0  0  0  0
   -7.0790    1.4928    0.2590 H   0  0  0  0  0  0  0  0  0  0  0  0
   -6.6863   -0.9096    0.6358 H   0  0  0  0  0  0  0  0  0  0  0  0
    1.8084   -6.9042    0.6019 H   0  0  0  0  0  0  0  0  0  0  0  0
  1  7  2  0  0  0  0
  1  8  2  0  0  0  0
  1 13  1  0  0  0  0
  1 30  1  0  0  0  0
  2 39  1  0  0  0  0
  3 39  1  0  0  0  0
  4 39  1  0  0  0  0
  5 22  2  0  0  0  0
  6 23  2  0  0  0  0
  9 35  1  0  0  0  0
  9 61  1  0  0  0  0
 10 35  2  0  0  0  0
 11 17  1  0  0  0  0
 11 19  1  0  0  0  0
 11 23  1  0  0  0  0
 12 18  1  0  0  0  0
 12 20  1  0  0  0  0
 12 22  1  0  0  0  0
 13 24  1  0  0  0  0
 13 52  1  0  0  0  0
 14 16  1  0  0  0  0
 14 17  1  0  0  0  0
 14 18  1  0  0  0  0
 14 40  1  0  0  0  0
 15 16  1  0  0  0  0
 15 19  1  0  0  0  0
 15 20  1  0  0  0  0
 15 41  1  0  0  0  0
 16 42  1  0  0  0  0
 16 43  1  0  0  0  0
 17 44  1  0  0  0  0
 17 45  1  0  0  0  0
 18 46  1  0  0  0  0
 18 47  1  0  0  0  0
 19 48  1  0  0  0  0
 19 49  1  0  0  0  0
 20 21  2  0  0  0  0
 21 25  1  0  0  0  0
 21 50  1  0  0  0  0
 22 24  1  0  0  0  0
 23 26  1  0  0  0  0
 24 25  2  0  0  0  0
 25 51  1  0  0  0  0
 26 27  2  0  0  0  0
 26 28  1  0  0  0  0
 27 29  1  0  0  0  0
 27 53  1  0  0  0  0
 28 31  2  0  0  0  0
 28 54  1  0  0  0  0
 29 32  2  0  0  0  0
 29 35  1  0  0  0  0
 30 33  1  0  0  0  0
 30 34  2  0  0  0  0
 31 32  1  0  0  0  0
 31 55  1  0  0  0  0
 32 56  1  0  0  0  0
 33 36  2  0  0  0  0
 33 57  1  0  0  0  0
 34 37  1  0  0  0  0
 34 58  1  0  0  0  0
 36 38  1  0  0  0  0
 36 39  1  0  0  0  0
 37 38  2  0  0  0  0
 37 59  1  0  0  0  0
 38 60  1  0  0  0  0
M  END
> <PUBCHEM_COMPOUND_CID>
7113923

> <PUBCHEM_CONFORMER_RMSD>
1

> <PUBCHEM_CONFORMER_DIVERSEORDER>
1
72
54
62
81
129
97
145
66
21
86
137
70
78
103
102
53
133
43
149
5
121
15
33
31
134
80
142
130
126
52
110
107
104
82
150
125
87
65
141
30
64
101
111
148
147
50
60
6
128
24
42
75
37
117
112
127
89
13
46
35
57
140
55
106
19
131
120
124
113
91
7
51
77
123
18
135
85
151
68
56
99
98
12
114
49
23
118
28
74
109
41
144
94
122
9
83
115
93
119
63
76
32
38
116
16
108
84
138
105
4
22
67
2
79
96
20
132
136
61
25
11
146
45
71
143
100
95
26
36
139
44
58
10
73
29
92
14
88
48
17
8
40
3
69
47
34
59
27
39
90

> <PUBCHEM_MMFF94_PARTIAL_CHARGES>
49
1 1.45
10 -0.57
11 -0.66
12 -0.47
13 -0.75
15 0.14
17 0.3
18 0.3
19 0.3
2 -0.34
20 -0.03
21 -0.15
22 0.62
23 0.54
24 0.21
25 -0.15
26 0.09
27 -0.15
28 -0.15
29 0.09
3 -0.34
30 -0.01
31 -0.15
32 -0.15
33 -0.15
34 -0.15
35 0.63
36 -0.14
37 -0.15
38 -0.15
39 1.16
4 -0.34
5 -0.57
50 0.15
51 0.15
52 0.42
53 0.15
54 0.15
55 0.15
56 0.15
57 0.15
58 0.15
59 0.15
6 -0.57
60 0.15
61 0.5
7 -0.65
8 -0.65
9 -0.65

> <PUBCHEM_EFFECTIVE_ROTOR_COUNT>
8

> <PUBCHEM_PHARMACOPHORE_FEATURES>
13
1 10 acceptor
1 13 donor
1 5 acceptor
1 6 acceptor
1 7 acceptor
1 8 acceptor
1 9 acceptor
3 9 10 35 anion
6 11 14 15 16 17 19 rings
6 12 14 15 16 18 20 rings
6 12 20 21 22 24 25 rings
6 26 27 28 29 31 32 rings
6 30 33 34 36 37 38 rings

> <PUBCHEM_HEAVY_ATOM_COUNT>
39

> <PUBCHEM_ATOM_DEF_STEREO_COUNT>
2

> <PUBCHEM_ATOM_UDEF_STEREO_COUNT>
0

> <PUBCHEM_BOND_DEF_STEREO_COUNT>
0

> <PUBCHEM_BOND_UDEF_STEREO_COUNT>
0

> <PUBCHEM_ISOTOPIC_ATOM_COUNT>
0

> <PUBCHEM_COMPONENT_COUNT>
1

> <PUBCHEM_CACTVS_TAUTO_COUNT>
1

> <PUBCHEM_CONFORMER_ID>
006C8CC300000001

> <PUBCHEM_MMFF94_ENERGY>
96.3146

> <PUBCHEM_FEATURE_SELFOVERLAP>
67.633

> <PUBCHEM_SHAPE_FINGERPRINT>
11136131 41 18335692841855746322
11285246 1 17465396217589139851
11488393 25 18337393733986163258
12104220 1 17186431349159441462
13402501 40 18269275827597118641
13617811 41 18113898239799477621
13636023 20 17988638653140983459
14659021 117 17111841567051899378
15264996 163 17181104223368306541
15320467 1 18410294692392939663
15406563 42 18265625444735046853
15968369 26 18120346827243862449
16112460 7 17841158749526647065
17093844 170 18341332288038363816
19319366 153 18343574157639325476
20764821 26 18267010829375280631
20775438 99 17904727082789345261
20775530 9 17911796877846397004
22121540 332 16619546801798860056
23559900 14 18049431553046796541
238918 7 18127965523785355426
338550 245 18194122039054549365
4280585 95 17544745743004611690
4461854 278 17905060492336843763
45266715 3 18263059125410696815
463206 1 17547296601401634192
484989 97 18340501036146968374
50150288 127 16771578117111743049
508706 21 18267302226164509051
5265222 85 18122630714901024244
6433294 58 18339643322118640959
86090 222 18128261288139540739

> <PUBCHEM_SHAPE_MULTIPOLES>
734.47
11.36
7.27
1.57
14.21
10.25
0.08
-0.38
0.02
-5.27
0.08
-0.93
-0.94
1.95

> <PUBCHEM_SHAPE_SELFOVERLAP>
1607.962

> <PUBCHEM_SHAPE_VOLUME>
400.4

> <PUBCHEM_COORDINATE_TYPE>
2
5
10

$$$$
