40776861
  -OEChem-12032416183D

 68 72  0     1  0  0  0  0  0999 V2000
    9.5966    3.7442   -0.5469 F   0  0  0  0  0  0  0  0  0  0  0  0
   -8.2171    3.4761   -1.2334 F   0  0  0  0  0  0  0  0  0  0  0  0
   -7.8035    4.0550    0.8212 F   0  0  0  0  0  0  0  0  0  0  0  0
   -6.4004    4.5690   -0.7508 F   0  0  0  0  0  0  0  0  0  0  0  0
   -5.0756   -2.4993    0.2594 O   0  0  0  0  0  0  0  0  0  0  0  0
   -0.8602   -4.1969   -0.0119 N   0  0  2  0  0  0  0  0  0  0  0  0
    2.8726   -1.1398    0.5056 N   0  0  0  0  0  0  0  0  0  0  0  0
   -3.1698   -1.3510    0.9087 N   0  0  0  0  0  0  0  0  0  0  0  0
    5.2295    0.4596    0.2915 N   0  0  0  0  0  0  0  0  0  0  0  0
    0.6912   -2.3921   -1.0620 C   0  0  2  0  0  0  0  0  0  0  0  0
    1.3660   -3.0567    0.1596 C   0  0  2  0  0  0  0  0  0  0  0  0
   -1.5957   -2.9111   -0.1504 C   0  0  2  0  0  0  0  0  0  0  0  0
   -0.6560   -1.7832   -0.6316 C   0  0  0  0  0  0  0  0  0  0  0  0
    0.3491   -4.0104    0.8260 C   0  0  0  0  0  0  0  0  0  0  0  0
    0.3827   -3.5164   -2.0693 C   0  0  0  0  0  0  0  0  0  0  0  0
   -0.4241   -4.6213   -1.3645 C   0  0  0  0  0  0  0  0  0  0  0  0
    1.9309   -2.0489    1.1580 C   0  0  0  0  0  0  0  0  0  0  0  0
   -2.3397   -2.5235    1.1297 C   0  0  0  0  0  0  0  0  0  0  0  0
    4.1905   -1.7724    0.3719 C   0  0  0  0  0  0  0  0  0  0  0  0
    2.9933    0.1098    1.2669 C   0  0  0  0  0  0  0  0  0  0  0  0
    5.1708   -0.8524   -0.3600 C   0  0  0  0  0  0  0  0  0  0  0  0
    3.9327    1.0923    0.5640 C   0  0  0  0  0  0  0  0  0  0  0  0
   -4.4818   -1.4488    0.4874 C   0  0  0  0  0  0  0  0  0  0  0  0
    6.3350    1.2909    0.0797 C   0  0  0  0  0  0  0  0  0  0  0  0
   -5.1866   -0.1573    0.2821 C   0  0  0  0  0  0  0  0  0  0  0  0
    7.0316    1.2301   -1.1274 C   0  0  0  0  0  0  0  0  0  0  0  0
    6.7401    2.1807    1.0746 C   0  0  0  0  0  0  0  0  0  0  0  0
   -6.2391   -0.0738   -0.6296 C   0  0  0  0  0  0  0  0  0  0  0  0
   -4.7955    0.9722    1.0011 C   0  0  0  0  0  0  0  0  0  0  0  0
    8.1332    2.0588   -1.3394 C   0  0  0  0  0  0  0  0  0  0  0  0
    7.8419    3.0095    0.8626 C   0  0  0  0  0  0  0  0  0  0  0  0
    8.5384    2.9485   -0.3443 C   0  0  0  0  0  0  0  0  0  0  0  0
   -6.9000    1.1392   -0.8226 C   0  0  0  0  0  0  0  0  0  0  0  0
   -5.4564    2.1853    0.8081 C   0  0  0  0  0  0  0  0  0  0  0  0
   -6.5087    2.2687   -0.1037 C   0  0  0  0  0  0  0  0  0  0  0  0
   -7.2158    3.5656   -0.3105 C   0  0  0  0  0  0  0  0  0  0  0  0
    1.3253   -1.6368   -1.5363 H   0  0  0  0  0  0  0  0  0  0  0  0
    2.1905   -3.6801   -0.2118 H   0  0  0  0  0  0  0  0  0  0  0  0
   -2.3666   -3.0565   -0.9216 H   0  0  0  0  0  0  0  0  0  0  0  0
   -0.4964   -1.0200    0.1371 H   0  0  0  0  0  0  0  0  0  0  0  0
   -1.1148   -1.2721   -1.4877 H   0  0  0  0  0  0  0  0  0  0  0  0
    0.8237   -4.9871    0.9887 H   0  0  0  0  0  0  0  0  0  0  0  0
    0.0670   -3.6698    1.8285 H   0  0  0  0  0  0  0  0  0  0  0  0
    1.3127   -3.9337   -2.4726 H   0  0  0  0  0  0  0  0  0  0  0  0
   -0.1875   -3.1149   -2.9158 H   0  0  0  0  0  0  0  0  0  0  0  0
   -1.2972   -4.8906   -1.9716 H   0  0  0  0  0  0  0  0  0  0  0  0
    0.1746   -5.5381   -1.2906 H   0  0  0  0  0  0  0  0  0  0  0  0
    2.3985   -2.5692    2.0049 H   0  0  0  0  0  0  0  0  0  0  0  0
    1.0966   -1.4819    1.5895 H   0  0  0  0  0  0  0  0  0  0  0  0
   -1.6537   -2.2683    1.9436 H   0  0  0  0  0  0  0  0  0  0  0  0
   -2.9763   -3.3489    1.4686 H   0  0  0  0  0  0  0  0  0  0  0  0
    4.1258   -2.7034   -0.2011 H   0  0  0  0  0  0  0  0  0  0  0  0
    4.6008   -2.0265    1.3588 H   0  0  0  0  0  0  0  0  0  0  0  0
    3.3599   -0.0895    2.2829 H   0  0  0  0  0  0  0  0  0  0  0  0
    2.0120    0.5908    1.3606 H   0  0  0  0  0  0  0  0  0  0  0  0
   -2.7191   -0.4487    1.0139 H   0  0  0  0  0  0  0  0  0  0  0  0
    6.1569   -1.3334   -0.3535 H   0  0  0  0  0  0  0  0  0  0  0  0
    4.8551   -0.7371   -1.4050 H   0  0  0  0  0  0  0  0  0  0  0  0
    3.4893    1.4265   -0.3830 H   0  0  0  0  0  0  0  0  0  0  0  0
    4.0375    1.9779    1.2012 H   0  0  0  0  0  0  0  0  0  0  0  0
    6.7361    0.5601   -1.9297 H   0  0  0  0  0  0  0  0  0  0  0  0
    6.2196    2.2333    2.0272 H   0  0  0  0  0  0  0  0  0  0  0  0
   -6.5555   -0.9415   -1.2025 H   0  0  0  0  0  0  0  0  0  0  0  0
   -4.0044    0.9449    1.7443 H   0  0  0  0  0  0  0  0  0  0  0  0
    8.6743    2.0142   -2.2800 H   0  0  0  0  0  0  0  0  0  0  0  0
    8.1598    3.7000    1.6381 H   0  0  0  0  0  0  0  0  0  0  0  0
   -7.7164    1.1835   -1.5382 H   0  0  0  0  0  0  0  0  0  0  0  0
   -5.1496    3.0586    1.3777 H   0  0  0  0  0  0  0  0  0  0  0  0
  1 32  1  0  0  0  0
  2 36  1  0  0  0  0
  3 36  1  0  0  0  0
  4 36  1  0  0  0  0
  5 23  2  0  0  0  0
  6 12  1  0  0  0  0
  6 14  1  0  0  0  0
  6 16  1  0  0  0  0
  7 17  1  0  0  0  0
  7 19  1  0  0  0  0
  7 20  1  0  0  0  0
  8 18  1  0  0  0  0
  8 23  1  0  0  0  0
  8 56  1  0  0  0  0
  9 21  1  0  0  0  0
  9 22  1  0  0  0  0
  9 24  1  0  0  0  0
 10 11  1  0  0  0  0
 10 13  1  0  0  0  0
 10 15  1  0  0  0  0
 10 37  1  0  0  0  0
 11 14  1  0  0  0  0
 11 17  1  0  0  0  0
 11 38  1  0  0  0  0
 12 13  1  0  0  0  0
 12 18  1  0  0  0  0
 12 39  1  0  0  0  0
 13 40  1  0  0  0  0
 13 41  1  0  0  0  0
 14 42  1  0  0  0  0
 14 43  1  0  0  0  0
 15 16  1  0  0  0  0
 15 44  1  0  0  0  0
 15 45  1  0  0  0  0
 16 46  1  0  0  0  0
 16 47  1  0  0  0  0
 17 48  1  0  0  0  0
 17 49  1  0  0  0  0
 18 50  1  0  0  0  0
 18 51  1  0  0  0  0
 19 21  1  0  0  0  0
 19 52  1  0  0  0  0
 19 53  1  0  0  0  0
 20 22  1  0  0  0  0
 20 54  1  0  0  0  0
 20 55  1  0  0  0  0
 21 57  1  0  0  0  0
 21 58  1  0  0  0  0
 22 59  1  0  0  0  0
 22 60  1  0  0  0  0
 23 25  1  0  0  0  0
 24 26  2  0  0  0  0
 24 27  1  0  0  0  0
 25 28  2  0  0  0  0
 25 29  1  0  0  0  0
 26 30  1  0  0  0  0
 26 61  1  0  0  0  0
 27 31  2  0  0  0  0
 27 62  1  0  0  0  0
 28 33  1  0  0  0  0
 28 63  1  0  0  0  0
 29 34  2  0  0  0  0
 29 64  1  0  0  0  0
 30 32  2  0  0  0  0
 30 65  1  0  0  0  0
 31 32  1  0  0  0  0
 31 66  1  0  0  0  0
 33 35  2  0  0  0  0
 33 67  1  0  0  0  0
 34 35  1  0  0  0  0
 34 68  1  0  0  0  0
 35 36  1  0  0  0  0
M  END
> <PUBCHEM_COMPOUND_CID>
40776861

> <PUBCHEM_CONFORMER_RMSD>
1.2

> <PUBCHEM_CONFORMER_DIVERSEORDER>
1
109
91
88
50
64
51
86
44
76
111
63
83
81
39
87
61
95
80
105
8
69
31
46
41
94
107
66
59
82
25
103
99
26
74
112
93
89
43
100
30
85
57
79
37
53
68
40
28
54
71
56
65
47
67
42
92
72
102
49
104
75
106
20
14
17
35
70
110
21
62
101
58
4
32
38
27
77
23
96
45
24
22
48
78
3
97
15
34
29
7
90
19
36
18
10
52
6
60
108
16
73
98
55
33
11
9
13
84
12
2
5

> <PUBCHEM_MMFF94_PARTIAL_CHARGES>
41
1 -0.19
12 0.27
14 0.27
16 0.27
17 0.27
18 0.3
19 0.27
2 -0.34
20 0.27
21 0.37
22 0.37
23 0.54
24 0.1
25 0.09
26 -0.15
27 -0.15
28 -0.15
29 -0.15
3 -0.34
30 -0.15
31 -0.15
32 0.19
33 -0.15
34 -0.15
35 -0.14
36 1.16
4 -0.34
5 -0.57
56 0.37
6 -0.81
61 0.15
62 0.15
63 0.15
64 0.15
65 0.15
66 0.15
67 0.15
68 0.15
7 -0.81
8 -0.73
9 -0.84

> <PUBCHEM_EFFECTIVE_ROTOR_COUNT>
10.4

> <PUBCHEM_PHARMACOPHORE_FEATURES>
9
1 5 acceptor
1 6 cation
1 7 cation
1 8 donor
1 9 cation
6 24 26 27 30 31 32 rings
6 25 28 29 33 34 35 rings
6 7 9 19 20 21 22 rings
8 6 10 11 12 13 14 15 16 rings

> <PUBCHEM_HEAVY_ATOM_COUNT>
36

> <PUBCHEM_ATOM_DEF_STEREO_COUNT>
3

> <PUBCHEM_ATOM_UDEF_STEREO_COUNT>
0

> <PUBCHEM_BOND_DEF_STEREO_COUNT>
0

> <PUBCHEM_BOND_UDEF_STEREO_COUNT>
0

> <PUBCHEM_ISOTOPIC_ATOM_COUNT>
0

> <PUBCHEM_COMPONENT_COUNT>
1

> <PUBCHEM_CACTVS_TAUTO_COUNT>
2

> <PUBCHEM_CONFORMER_ID>
026E349D00000001

> <PUBCHEM_MMFF94_ENERGY>
98.9452

> <PUBCHEM_FEATURE_SELFOVERLAP>
45.675

> <PUBCHEM_SHAPE_FINGERPRINT>
10280341 67 18270950341542786536
10533779 1 18409157801459740269
10864689 126 18342457058701234240
11181472 205 18114463488087675460
11421887 103 18334845096336594197
11621639 254 18128246995074215343
12013929 112 18337128817353337414
12013929 29 18268991994731010477
12124843 1 17988922241383801037
12133447 93 18336559295694102300
12522641 68 18201998863094511846
12975358 362 18191610587431321521
13248334 5 18122623847122269578
13782708 43 10591751078872982851
13944108 23 18125721175755720529
14294032 229 18261387893210855756
14904525 67 17980481488861658600
14931854 50 17847064371927577512
15064981 113 17203618073284624494
15198563 99 17841980389676931695
15347591 1 18408886222124908571
15350500 55 18334573546832832564
15419008 91 17416118620275322400
15538507 64 18411412913495168560
15803439 3 16988843895114212302
15950262 2 18261112954588846395
16120349 189 18412259541104569919
16728433 281 18271816743234911984
16990366 60 8934992668393171614
16994733 274 18187362160242016752
17899979 129 18056766425607924047
19053607 189 18341036424936789649
19303781 99 9295289396306023440
19304152 47 18335709398696612299
20691028 202 18408603682301055142
20766409 102 18411982465234647213
208703 8 9511463299174331120
21223535 225 18198901599479265220
21585482 111 18408042897022304660
21796203 349 13551196606376011326
21867126 195 8718536203859078088
23191077 185 18340195371272122146
23516275 100 18261951822201329173
23522609 53 17242181369549469638
23569914 152 17843141225316667190
23569943 247 9222934999302906093
3525247 18 18118679925047277309
3918712 181 18412262796362946800
393628 194 18334857242761719229
406291 66 10015865379545706908
437795 171 18043804278311632669
44802255 64 17987807456874043462
5718773 13 9511463316528111178
5776283 40 18341891926551050993
6036956 94 18269559330373958625
6201320 82 18340782463246900057
6327066 14 18412824698412692302
636775 72 18194682799101994864
6673363 416 18196654210470931631
6697151 62 15195012700039553138
6698420 124 17822572828799443106

> <PUBCHEM_SHAPE_MULTIPOLES>
685.97
28.26
6.89
1.32
16.69
0.04
0.25
-51.89
4.2
-6.03
1.42
0.37
0.4
0.62

> <PUBCHEM_SHAPE_SELFOVERLAP>
1475.804

> <PUBCHEM_SHAPE_VOLUME>
378

> <PUBCHEM_COORDINATE_TYPE>
2
5
10

$$$$
