38029777
  -OEChem-12032416173D

 56 57  0     1  0  0  0  0  0999 V2000
   -1.2631   -2.7135    0.0671 O   0  0  0  0  0  0  0  0  0  0  0  0
   -3.1978   -2.7151    1.3242 O   0  0  0  0  0  0  0  0  0  0  0  0
    2.0954    1.3154   -2.1730 O   0  0  0  0  0  0  0  0  0  0  0  0
    1.2698    1.9808   -0.1087 N   0  0  0  0  0  0  0  0  0  0  0  0
    4.8991   -1.3698    0.9744 N   0  0  0  0  0  0  0  0  0  0  0  0
   -1.5221    1.0856   -0.7776 C   0  0  1  0  0  0  0  0  0  0  0  0
   -1.1249    2.4419   -0.1431 C   0  0  1  0  0  0  0  0  0  0  0  0
   -2.6960    0.4580   -0.0106 C   0  0  0  0  0  0  0  0  0  0  0  0
   -2.3622    0.2230    1.4747 C   0  0  2  0  0  0  0  0  0  0  0  0
   -1.8903    1.2357   -2.2570 C   0  0  0  0  0  0  0  0  0  0  0  0
   -1.7145    1.4389    2.1055 C   0  0  0  0  0  0  0  0  0  0  0  0
   -1.1788    2.4267    1.3665 C   0  0  0  0  0  0  0  0  0  0  0  0
    0.2718    2.8784   -0.5999 C   0  0  0  0  0  0  0  0  0  0  0  0
   -1.4849   -1.0210    1.6536 C   0  0  0  0  0  0  0  0  0  0  0  0
   -1.6908   -0.0860   -2.9919 C   0  0  0  0  0  0  0  0  0  0  0  0
   -3.3286    1.7228   -2.4004 C   0  0  0  0  0  0  0  0  0  0  0  0
   -1.7369    1.5157    3.6068 C   0  0  0  0  0  0  0  0  0  0  0  0
   -2.1122   -2.2370    1.0254 C   0  0  0  0  0  0  0  0  0  0  0  0
    2.1179    1.2573   -0.9465 C   0  0  0  0  0  0  0  0  0  0  0  0
    3.0844    0.3466   -0.2806 C   0  0  0  0  0  0  0  0  0  0  0  0
   -1.7143   -3.8783   -0.6317 C   0  0  0  0  0  0  0  0  0  0  0  0
    3.5520   -0.7818   -0.9452 C   0  0  0  0  0  0  0  0  0  0  0  0
    3.5231    0.6177    1.0108 C   0  0  0  0  0  0  0  0  0  0  0  0
   -0.6691   -4.2773   -1.6515 C   0  0  0  0  0  0  0  0  0  0  0  0
    4.4502   -1.6006   -0.2798 C   0  0  0  0  0  0  0  0  0  0  0  0
    4.4227   -0.2637    1.5886 C   0  0  0  0  0  0  0  0  0  0  0  0
   -0.6713    0.3972   -0.7033 H   0  0  0  0  0  0  0  0  0  0  0  0
   -1.8301    3.2182   -0.4658 H   0  0  0  0  0  0  0  0  0  0  0  0
   -3.0437   -0.4633   -0.4871 H   0  0  0  0  0  0  0  0  0  0  0  0
   -3.5565    1.1406   -0.0092 H   0  0  0  0  0  0  0  0  0  0  0  0
   -3.3201    0.0418    1.9826 H   0  0  0  0  0  0  0  0  0  0  0  0
   -1.2350    1.9671   -2.7412 H   0  0  0  0  0  0  0  0  0  0  0  0
   -0.7692    3.2986    1.8729 H   0  0  0  0  0  0  0  0  0  0  0  0
    0.5107    3.8665   -0.1881 H   0  0  0  0  0  0  0  0  0  0  0  0
    0.3358    2.9710   -1.6873 H   0  0  0  0  0  0  0  0  0  0  0  0
   -1.3366   -1.2554    2.7144 H   0  0  0  0  0  0  0  0  0  0  0  0
   -0.4823   -0.8579    1.2390 H   0  0  0  0  0  0  0  0  0  0  0  0
   -1.9199    0.0301   -4.0569 H   0  0  0  0  0  0  0  0  0  0  0  0
   -0.6516   -0.4239   -2.9146 H   0  0  0  0  0  0  0  0  0  0  0  0
   -2.3344   -0.8807   -2.6019 H   0  0  0  0  0  0  0  0  0  0  0  0
   -3.5336    2.6170   -1.8045 H   0  0  0  0  0  0  0  0  0  0  0  0
   -3.5116    1.9997   -3.4462 H   0  0  0  0  0  0  0  0  0  0  0  0
   -4.0700    0.9524   -2.1634 H   0  0  0  0  0  0  0  0  0  0  0  0
   -2.7650    1.4413    3.9757 H   0  0  0  0  0  0  0  0  0  0  0  0
   -1.3214    2.4587    3.9778 H   0  0  0  0  0  0  0  0  0  0  0  0
   -1.1495    0.7030    4.0444 H   0  0  0  0  0  0  0  0  0  0  0  0
    1.3428    1.8779    0.8975 H   0  0  0  0  0  0  0  0  0  0  0  0
   -1.8673   -4.6959    0.0816 H   0  0  0  0  0  0  0  0  0  0  0  0
   -2.6596   -3.6553   -1.1388 H   0  0  0  0  0  0  0  0  0  0  0  0
    3.2310   -1.0321   -1.9507 H   0  0  0  0  0  0  0  0  0  0  0  0
    3.2201    1.4943    1.5713 H   0  0  0  0  0  0  0  0  0  0  0  0
    0.2879   -4.4847   -1.1616 H   0  0  0  0  0  0  0  0  0  0  0  0
   -0.9826   -5.1661   -2.2061 H   0  0  0  0  0  0  0  0  0  0  0  0
   -0.4925   -3.4616   -2.3606 H   0  0  0  0  0  0  0  0  0  0  0  0
    4.8438   -2.4938   -0.7537 H   0  0  0  0  0  0  0  0  0  0  0  0
    4.8013   -0.0937    2.5911 H   0  0  0  0  0  0  0  0  0  0  0  0
  1 18  1  0  0  0  0
  1 21  1  0  0  0  0
  2 18  2  0  0  0  0
  3 19  2  0  0  0  0
  4 13  1  0  0  0  0
  4 19  1  0  0  0  0
  4 47  1  0  0  0  0
  5 25  2  0  0  0  0
  5 26  1  0  0  0  0
  6  7  1  0  0  0  0
  6  8  1  0  0  0  0
  6 10  1  0  0  0  0
  6 27  1  0  0  0  0
  7 12  1  0  0  0  0
  7 13  1  0  0  0  0
  7 28  1  0  0  0  0
  8  9  1  0  0  0  0
  8 29  1  0  0  0  0
  8 30  1  0  0  0  0
  9 11  1  0  0  0  0
  9 14  1  0  0  0  0
  9 31  1  0  0  0  0
 10 15  1  0  0  0  0
 10 16  1  0  0  0  0
 10 32  1  0  0  0  0
 11 12  2  0  0  0  0
 11 17  1  0  0  0  0
 12 33  1  0  0  0  0
 13 34  1  0  0  0  0
 13 35  1  0  0  0  0
 14 18  1  0  0  0  0
 14 36  1  0  0  0  0
 14 37  1  0  0  0  0
 15 38  1  0  0  0  0
 15 39  1  0  0  0  0
 15 40  1  0  0  0  0
 16 41  1  0  0  0  0
 16 42  1  0  0  0  0
 16 43  1  0  0  0  0
 17 44  1  0  0  0  0
 17 45  1  0  0  0  0
 17 46  1  0  0  0  0
 19 20  1  0  0  0  0
 20 22  2  0  0  0  0
 20 23  1  0  0  0  0
 21 24  1  0  0  0  0
 21 48  1  0  0  0  0
 21 49  1  0  0  0  0
 22 25  1  0  0  0  0
 22 50  1  0  0  0  0
 23 26  2  0  0  0  0
 23 51  1  0  0  0  0
 24 52  1  0  0  0  0
 24 53  1  0  0  0  0
 24 54  1  0  0  0  0
 25 55  1  0  0  0  0
 26 56  1  0  0  0  0
M  END
> <PUBCHEM_COMPOUND_CID>
38029777

> <PUBCHEM_CONFORMER_RMSD>
1

> <PUBCHEM_CONFORMER_DIVERSEORDER>
1
14
51
30
44
28
18
19
24
52
22
47
46
58
10
41
8
21
4
20
11
55
33
59
34
27
2
35
54
40
7
37
16
13
26
38
3
6
43
36
12
39
50
49
60
53
9
56
25
5
45
57
29
15
17
32
23
42
48
31

> <PUBCHEM_MMFF94_PARTIAL_CHARGES>
26
1 -0.43
11 -0.28
12 -0.29
13 0.3
14 0.06
17 0.14
18 0.66
19 0.54
2 -0.57
20 0.09
21 0.28
22 -0.15
23 -0.15
25 0.16
26 0.16
3 -0.57
33 0.15
4 -0.73
47 0.37
5 -0.62
50 0.15
51 0.15
55 0.15
56 0.15
7 0.14
9 0.14

> <PUBCHEM_EFFECTIVE_ROTOR_COUNT>
9.8

> <PUBCHEM_PHARMACOPHORE_FEATURES>
7
1 2 acceptor
1 3 acceptor
1 4 donor
1 5 acceptor
3 10 15 16 hydrophobe
6 5 20 22 23 25 26 rings
6 6 7 8 9 11 12 rings

> <PUBCHEM_HEAVY_ATOM_COUNT>
26

> <PUBCHEM_ATOM_DEF_STEREO_COUNT>
3

> <PUBCHEM_ATOM_UDEF_STEREO_COUNT>
0

> <PUBCHEM_BOND_DEF_STEREO_COUNT>
0

> <PUBCHEM_BOND_UDEF_STEREO_COUNT>
0

> <PUBCHEM_ISOTOPIC_ATOM_COUNT>
0

> <PUBCHEM_COMPONENT_COUNT>
1

> <PUBCHEM_CACTVS_TAUTO_COUNT>
2

> <PUBCHEM_CONFORMER_ID>
024449D100000001

> <PUBCHEM_MMFF94_ENERGY>
53.0451

> <PUBCHEM_FEATURE_SELFOVERLAP>
35.522

> <PUBCHEM_SHAPE_FINGERPRINT>
11552529 35 18130509734069025514
11578080 2 18190174783689795825
12156800 1 15217848245870992309
12422481 6 18189359943089770795
12539773 59 18119553125877360243
12633257 1 18194429760354502360
14114207 22 15940326319696562586
19315092 285 15473913942524002927
20775530 9 18119817060387183266
23419403 2 17267473503451503289
3027735 51 18051400773919089541
35225 105 18336560381434656735
469060 322 15338257082614708402

> <PUBCHEM_SHAPE_MULTIPOLES>
507.5
7.13
4.3
3.03
11.39
5.31
-0.19
1.49
-1
-2.89
0.47
-2.62
-1.16
0.15

> <PUBCHEM_SHAPE_SELFOVERLAP>
1040.629

> <PUBCHEM_SHAPE_VOLUME>
290.1

> <PUBCHEM_COORDINATE_TYPE>
2
5
10

$$$$
