28961842
  -OEChem-12032416393D

 55 57  0     1  0  0  0  0  0999 V2000
   -6.9656   -1.1345    0.2764 Cl  0  0  0  0  0  0  0  0  0  0  0  0
    0.2320   -1.7878    0.9536 O   0  0  0  0  0  0  0  0  0  0  0  0
    1.7355   -2.3552   -1.5733 O   0  0  0  0  0  0  0  0  0  0  0  0
    4.4008    2.7891    1.3982 O   0  0  0  0  0  0  0  0  0  0  0  0
   -0.3283   -4.5150    1.3446 O   0  0  0  0  0  0  0  0  0  0  0  0
    2.8337    0.1627   -0.7513 N   0  0  1  0  0  0  0  0  0  0  0  0
   -1.4640    0.3000    0.0062 N   0  0  0  0  0  0  0  0  0  0  0  0
    2.2445   -0.7661    0.1971 C   0  0  1  0  0  0  0  0  0  0  0  0
    0.7834   -0.5043    0.5844 C   0  0  1  0  0  0  0  0  0  0  0  0
    3.2038    1.4744   -0.2082 C   0  0  2  0  0  0  0  0  0  0  0  0
    2.2262   -2.2211   -0.2458 C   0  0  1  0  0  0  0  0  0  0  0  0
    4.0169   -0.3758   -1.4196 C   0  0  0  0  0  0  0  0  0  0  0  0
    1.2311   -2.8055    0.7498 C   0  0  2  0  0  0  0  0  0  0  0  0
    4.0118    2.0500   -1.3694 C   0  0  0  0  0  0  0  0  0  0  0  0
    4.7215    0.8503   -1.9880 C   0  0  0  0  0  0  0  0  0  0  0  0
   -0.1169    0.0796   -0.4988 C   0  0  0  0  0  0  0  0  0  0  0  0
    4.0188    1.4604    1.0891 C   0  0  0  0  0  0  0  0  0  0  0  0
    0.5535   -4.0928    0.3170 C   0  0  0  0  0  0  0  0  0  0  0  0
   -2.3271    0.8485   -1.0317 C   0  0  0  0  0  0  0  0  0  0  0  0
    5.1646    2.8519    2.5970 C   0  0  0  0  0  0  0  0  0  0  0  0
   -3.7299    1.0734   -0.5335 C   0  0  0  0  0  0  0  0  0  0  0  0
   -4.5965   -0.0084   -0.3770 C   0  0  0  0  0  0  0  0  0  0  0  0
   -4.1628    2.3638   -0.2278 C   0  0  0  0  0  0  0  0  0  0  0  0
   -5.8959    0.2000    0.0855 C   0  0  0  0  0  0  0  0  0  0  0  0
   -5.4623    2.5722    0.2344 C   0  0  0  0  0  0  0  0  0  0  0  0
   -6.3289    1.4904    0.3913 C   0  0  0  0  0  0  0  0  0  0  0  0
    2.8297   -0.7850    1.1262 H   0  0  0  0  0  0  0  0  0  0  0  0
    0.7534    0.1444    1.4691 H   0  0  0  0  0  0  0  0  0  0  0  0
    2.3169    2.1010   -0.0555 H   0  0  0  0  0  0  0  0  0  0  0  0
    3.2027   -2.7129   -0.1833 H   0  0  0  0  0  0  0  0  0  0  0  0
    3.7703   -1.0681   -2.2300 H   0  0  0  0  0  0  0  0  0  0  0  0
    4.6935   -0.8847   -0.7215 H   0  0  0  0  0  0  0  0  0  0  0  0
    1.7118   -2.9500    1.7260 H   0  0  0  0  0  0  0  0  0  0  0  0
    4.7183    2.8364   -1.0874 H   0  0  0  0  0  0  0  0  0  0  0  0
    3.3299    2.4809   -2.1146 H   0  0  0  0  0  0  0  0  0  0  0  0
    4.6551    0.8880   -3.0807 H   0  0  0  0  0  0  0  0  0  0  0  0
    5.7822    0.8435   -1.7138 H   0  0  0  0  0  0  0  0  0  0  0  0
   -0.1695   -0.6122   -1.3471 H   0  0  0  0  0  0  0  0  0  0  0  0
    0.2943    1.0286   -0.8592 H   0  0  0  0  0  0  0  0  0  0  0  0
    4.9159    0.8374    0.9937 H   0  0  0  0  0  0  0  0  0  0  0  0
    3.4128    1.0800    1.9184 H   0  0  0  0  0  0  0  0  0  0  0  0
    1.2889   -4.8821    0.1347 H   0  0  0  0  0  0  0  0  0  0  0  0
   -0.0525   -3.9419   -0.5820 H   0  0  0  0  0  0  0  0  0  0  0  0
    1.8478   -3.2845   -1.8361 H   0  0  0  0  0  0  0  0  0  0  0  0
   -1.4279    0.9433    0.7970 H   0  0  0  0  0  0  0  0  0  0  0  0
   -2.3741    0.1673   -1.8916 H   0  0  0  0  0  0  0  0  0  0  0  0
   -1.9166    1.7940   -1.4094 H   0  0  0  0  0  0  0  0  0  0  0  0
   -0.7447   -5.3406    1.0436 H   0  0  0  0  0  0  0  0  0  0  0  0
    5.4278    3.8967    2.7821 H   0  0  0  0  0  0  0  0  0  0  0  0
    6.0869    2.2721    2.4944 H   0  0  0  0  0  0  0  0  0  0  0  0
    4.5789    2.4836    3.4448 H   0  0  0  0  0  0  0  0  0  0  0  0
   -4.2569   -1.0136   -0.6166 H   0  0  0  0  0  0  0  0  0  0  0  0
   -3.4979    3.2156   -0.3428 H   0  0  0  0  0  0  0  0  0  0  0  0
   -5.7992    3.5768    0.4728 H   0  0  0  0  0  0  0  0  0  0  0  0
   -7.3386    1.6679    0.7523 H   0  0  0  0  0  0  0  0  0  0  0  0
  1 24  1  0  0  0  0
  2  9  1  0  0  0  0
  2 13  1  0  0  0  0
  3 11  1  0  0  0  0
  3 44  1  0  0  0  0
  4 17  1  0  0  0  0
  4 20  1  0  0  0  0
  5 18  1  0  0  0  0
  5 48  1  0  0  0  0
  6  8  1  0  0  0  0
  6 10  1  0  0  0  0
  6 12  1  0  0  0  0
  7 16  1  0  0  0  0
  7 19  1  0  0  0  0
  7 45  1  0  0  0  0
  8  9  1  0  0  0  0
  8 11  1  0  0  0  0
  8 27  1  0  0  0  0
  9 16  1  0  0  0  0
  9 28  1  0  0  0  0
 10 14  1  0  0  0  0
 10 17  1  0  0  0  0
 10 29  1  0  0  0  0
 11 13  1  0  0  0  0
 11 30  1  0  0  0  0
 12 15  1  0  0  0  0
 12 31  1  0  0  0  0
 12 32  1  0  0  0  0
 13 18  1  0  0  0  0
 13 33  1  0  0  0  0
 14 15  1  0  0  0  0
 14 34  1  0  0  0  0
 14 35  1  0  0  0  0
 15 36  1  0  0  0  0
 15 37  1  0  0  0  0
 16 38  1  0  0  0  0
 16 39  1  0  0  0  0
 17 40  1  0  0  0  0
 17 41  1  0  0  0  0
 18 42  1  0  0  0  0
 18 43  1  0  0  0  0
 19 21  1  0  0  0  0
 19 46  1  0  0  0  0
 19 47  1  0  0  0  0
 20 49  1  0  0  0  0
 20 50  1  0  0  0  0
 20 51  1  0  0  0  0
 21 22  2  0  0  0  0
 21 23  1  0  0  0  0
 22 24  1  0  0  0  0
 22 52  1  0  0  0  0
 23 25  2  0  0  0  0
 23 53  1  0  0  0  0
 24 26  2  0  0  0  0
 25 26  1  0  0  0  0
 25 54  1  0  0  0  0
 26 55  1  0  0  0  0
M  END
> <PUBCHEM_COMPOUND_CID>
28961842

> <PUBCHEM_CONFORMER_RMSD>
1

> <PUBCHEM_CONFORMER_DIVERSEORDER>
1
13
19
10
31
5
15
33
22
46
24
16
41
40
28
45
29
55
39
30
54
12
26
47
17
43
52
11
51
44
23
32
48
14
37
21
27
20
34
6
25
50
35
3
36
49
7
18
53
9
42
8
2
4
38

> <PUBCHEM_MMFF94_PARTIAL_CHARGES>
31
1 -0.18
10 0.27
11 0.28
12 0.27
13 0.28
16 0.27
17 0.28
18 0.28
19 0.41
2 -0.56
20 0.28
21 -0.14
22 -0.15
23 -0.15
24 0.18
25 -0.15
26 -0.15
3 -0.68
4 -0.56
44 0.4
45 0.36
48 0.4
5 -0.68
52 0.15
53 0.15
54 0.15
55 0.15
6 -0.81
7 -0.9
8 0.27
9 0.28

> <PUBCHEM_EFFECTIVE_ROTOR_COUNT>
10

> <PUBCHEM_PHARMACOPHORE_FEATURES>
12
1 2 acceptor
1 3 acceptor
1 3 donor
1 4 acceptor
1 5 acceptor
1 5 donor
1 6 cation
1 7 cation
1 7 donor
5 2 8 9 11 13 rings
5 6 10 12 14 15 rings
6 21 22 23 24 25 26 rings

> <PUBCHEM_HEAVY_ATOM_COUNT>
26

> <PUBCHEM_ATOM_DEF_STEREO_COUNT>
5

> <PUBCHEM_ATOM_UDEF_STEREO_COUNT>
0

> <PUBCHEM_BOND_DEF_STEREO_COUNT>
0

> <PUBCHEM_BOND_UDEF_STEREO_COUNT>
0

> <PUBCHEM_ISOTOPIC_ATOM_COUNT>
0

> <PUBCHEM_COMPONENT_COUNT>
1

> <PUBCHEM_CACTVS_TAUTO_COUNT>
1

> <PUBCHEM_CONFORMER_ID>
01B9EC3200000001

> <PUBCHEM_MMFF94_ENERGY>
63.6171

> <PUBCHEM_FEATURE_SELFOVERLAP>
60.901

> <PUBCHEM_SHAPE_FINGERPRINT>
10074138 170 17828466291636580634
10692045 39 18268408214977144498
11135609 201 18128237068866529089
11578080 2 18197497544874924772
11720765 8 17630334030551010478
11954058 11 12757427216159234952
12107183 9 17329150166342072401
12596602 18 17775290474002898329
12730499 353 18262250936206699235
13533116 47 18265617568498047241
13540713 4 17984434190191805926
13692114 37 18338792428789153662
13955234 65 18266173933602245387
14461889 52 18186527626842769209
14528608 73 18335426755324564957
146900 427 18342181029568455153
14849402 71 18409444761757937048
14904525 67 16415482628109906753
14955137 171 18049150082634670010
15183329 4 11167945745347020609
15250474 111 18338506436403412719
17844677 252 18192439563453247189
21033648 29 18337397140122568816
21716022 299 17689175421698324990
22149856 69 18262817207124636097
23559900 14 17971751073861317911
239999 70 18269841904461337759
34797466 226 17418378017089659517
4340502 62 18411132562838773179
5104073 3 18336546006980729833
57091435 61 18341611533642451568
6442390 28 18334860532263237415
6695519 79 18270135599015417843
6913067 236 17603575340566882893
7399639 24 18261379019323008637
7808743 9 18044102482575987476
960060 61 13398629467673892812
9658208 31 18339366374243214550
9777508 108 18264494064349837538

> <PUBCHEM_SHAPE_MULTIPOLES>
503.5
15.27
4.36
1.6
22.07
4.38
0.3
-11.95
1.11
-2.51
2.11
-3.3
-0.78
1.79

> <PUBCHEM_SHAPE_SELFOVERLAP>
1033.665

> <PUBCHEM_SHAPE_VOLUME>
292.1

> <PUBCHEM_COORDINATE_TYPE>
2
5
10

$$$$
