45784113
  -OEChem-12032416383D

 73 76  0     1  0  0  0  0  0999 V2000
    5.3214    0.0899    0.4884 O   0  0  0  0  0  0  0  0  0  0  0  0
   -2.4101   -0.8512    0.4395 N   0  0  0  0  0  0  0  0  0  0  0  0
   -5.0801    0.1524    0.2868 N   0  0  0  0  0  0  0  0  0  0  0  0
    4.0812    1.5535    1.6392 N   0  0  0  0  0  0  0  0  0  0  0  0
    5.1617    2.2334    1.1086 N   0  0  0  0  0  0  0  0  0  0  0  0
   -6.7055    1.2344   -1.0664 N   0  0  0  0  0  0  0  0  0  0  0  0
   -8.4190    1.3071    1.1528 N   0  0  0  0  0  0  0  0  0  0  0  0
    0.2406   -0.6322   -0.7932 C   0  0  1  0  0  0  0  0  0  0  0  0
   -0.3649   -1.9814   -0.3408 C   0  0  2  0  0  0  0  0  0  0  0  0
    1.3589   -0.1965    0.1640 C   0  0  0  0  0  0  0  0  0  0  0  0
    2.4850   -1.2430    0.3056 C   0  0  2  0  0  0  0  0  0  0  0  0
    0.7455   -0.7030   -2.2408 C   0  0  0  0  0  0  0  0  0  0  0  0
   -1.3590   -1.7979    0.8105 C   0  0  0  0  0  0  0  0  0  0  0  0
    0.6875   -2.9805    0.0676 C   0  0  0  0  0  0  0  0  0  0  0  0
    1.9672   -2.6728    0.3483 C   0  0  0  0  0  0  0  0  0  0  0  0
    3.3387   -0.8811    1.5274 C   0  0  0  0  0  0  0  0  0  0  0  0
    1.7077    0.4457   -2.5253 C   0  0  0  0  0  0  0  0  0  0  0  0
   -0.4278   -0.6799   -3.2154 C   0  0  0  0  0  0  0  0  0  0  0  0
   -3.0762   -0.3257    1.6373 C   0  0  0  0  0  0  0  0  0  0  0  0
   -3.3956   -1.4942   -0.4385 C   0  0  0  0  0  0  0  0  0  0  0  0
    2.9571   -3.7610    0.6617 C   0  0  0  0  0  0  0  0  0  0  0  0
   -4.1412    0.7092    1.2657 C   0  0  0  0  0  0  0  0  0  0  0  0
   -4.4702   -0.4978   -0.8799 C   0  0  0  0  0  0  0  0  0  0  0  0
    4.2155    0.3066    1.2517 C   0  0  0  0  0  0  0  0  0  0  0  0
   -6.3444    0.7314    0.1307 C   0  0  0  0  0  0  0  0  0  0  0  0
    5.8581    1.3400    0.4454 C   0  0  0  0  0  0  0  0  0  0  0  0
    7.1016    1.5020   -0.3183 C   0  0  0  0  0  0  0  0  0  0  0  0
   -7.1859    0.7671    1.2207 C   0  0  0  0  0  0  0  0  0  0  0  0
    7.6171    2.9834   -0.2965 C   0  0  0  0  0  0  0  0  0  0  0  0
    6.9220    1.1094   -1.8265 C   0  0  0  0  0  0  0  0  0  0  0  0
    8.3318    0.6479    0.1686 C   0  0  0  0  0  0  0  0  0  0  0  0
   -7.9385    1.7745   -1.1344 C   0  0  0  0  0  0  0  0  0  0  0  0
   -8.7800    1.8102   -0.0444 C   0  0  0  0  0  0  0  0  0  0  0  0
   -0.5176    0.1603   -0.7621 H   0  0  0  0  0  0  0  0  0  0  0  0
   -0.8901   -2.4464   -1.1803 H   0  0  0  0  0  0  0  0  0  0  0  0
    1.7631    0.7899   -0.0862 H   0  0  0  0  0  0  0  0  0  0  0  0
    0.8996   -0.0402    1.1506 H   0  0  0  0  0  0  0  0  0  0  0  0
    3.1242   -1.1970   -0.5855 H   0  0  0  0  0  0  0  0  0  0  0  0
    1.2964   -1.6363   -2.4117 H   0  0  0  0  0  0  0  0  0  0  0  0
   -1.7855   -2.7630    1.1182 H   0  0  0  0  0  0  0  0  0  0  0  0
   -0.8131   -1.4243    1.6873 H   0  0  0  0  0  0  0  0  0  0  0  0
    0.3664   -4.0191    0.1123 H   0  0  0  0  0  0  0  0  0  0  0  0
    2.7131   -0.6801    2.4055 H   0  0  0  0  0  0  0  0  0  0  0  0
    4.0117   -1.6969    1.8121 H   0  0  0  0  0  0  0  0  0  0  0  0
    1.2709    1.4153   -2.2609 H   0  0  0  0  0  0  0  0  0  0  0  0
    1.9333    0.4850   -3.5981 H   0  0  0  0  0  0  0  0  0  0  0  0
    2.6761    0.3427   -2.0309 H   0  0  0  0  0  0  0  0  0  0  0  0
   -1.0380    0.2207   -3.0855 H   0  0  0  0  0  0  0  0  0  0  0  0
   -1.0799   -1.5497   -3.1028 H   0  0  0  0  0  0  0  0  0  0  0  0
   -0.0675   -0.6869   -4.2502 H   0  0  0  0  0  0  0  0  0  0  0  0
   -3.5378   -1.1397    2.2126 H   0  0  0  0  0  0  0  0  0  0  0  0
   -2.3447    0.1640    2.2917 H   0  0  0  0  0  0  0  0  0  0  0  0
   -2.9287   -1.8860   -1.3472 H   0  0  0  0  0  0  0  0  0  0  0  0
   -3.8743   -2.3415    0.0713 H   0  0  0  0  0  0  0  0  0  0  0  0
    3.2072   -3.7667    1.7268 H   0  0  0  0  0  0  0  0  0  0  0  0
    2.5651   -4.7536    0.4136 H   0  0  0  0  0  0  0  0  0  0  0  0
    3.8745   -3.6234    0.0799 H   0  0  0  0  0  0  0  0  0  0  0  0
   -4.6519    1.0201    2.1842 H   0  0  0  0  0  0  0  0  0  0  0  0
   -3.6669    1.6035    0.8413 H   0  0  0  0  0  0  0  0  0  0  0  0
   -4.0327    0.2631   -1.5390 H   0  0  0  0  0  0  0  0  0  0  0  0
   -5.2282   -1.0433   -1.4561 H   0  0  0  0  0  0  0  0  0  0  0  0
   -6.9189    0.3555    2.1873 H   0  0  0  0  0  0  0  0  0  0  0  0
    8.5315    3.1022   -0.8886 H   0  0  0  0  0  0  0  0  0  0  0  0
    6.8613    3.6631   -0.7074 H   0  0  0  0  0  0  0  0  0  0  0  0
    7.8317    3.3060    0.7290 H   0  0  0  0  0  0  0  0  0  0  0  0
    6.1230    1.7033   -2.2856 H   0  0  0  0  0  0  0  0  0  0  0  0
    7.8401    1.2771   -2.4005 H   0  0  0  0  0  0  0  0  0  0  0  0
    6.6466    0.0531   -1.9268 H   0  0  0  0  0  0  0  0  0  0  0  0
    8.0984   -0.4221    0.1259 H   0  0  0  0  0  0  0  0  0  0  0  0
    8.5736    0.8883    1.2102 H   0  0  0  0  0  0  0  0  0  0  0  0
    9.2230    0.8287   -0.4424 H   0  0  0  0  0  0  0  0  0  0  0  0
   -8.2293    2.1789   -2.0960 H   0  0  0  0  0  0  0  0  0  0  0  0
   -9.7706    2.2444   -0.0998 H   0  0  0  0  0  0  0  0  0  0  0  0
  1 24  1  0  0  0  0
  1 26  1  0  0  0  0
  2 13  1  0  0  0  0
  2 19  1  0  0  0  0
  2 20  1  0  0  0  0
  3 22  1  0  0  0  0
  3 23  1  0  0  0  0
  3 25  1  0  0  0  0
  4  5  1  0  0  0  0
  4 24  2  0  0  0  0
  5 26  2  0  0  0  0
  6 25  2  0  0  0  0
  6 32  1  0  0  0  0
  7 28  2  0  0  0  0
  7 33  1  0  0  0  0
  8  9  1  0  0  0  0
  8 10  1  0  0  0  0
  8 12  1  0  0  0  0
  8 34  1  0  0  0  0
  9 13  1  0  0  0  0
  9 14  1  0  0  0  0
  9 35  1  0  0  0  0
 10 11  1  0  0  0  0
 10 36  1  0  0  0  0
 10 37  1  0  0  0  0
 11 15  1  0  0  0  0
 11 16  1  0  0  0  0
 11 38  1  0  0  0  0
 12 17  1  0  0  0  0
 12 18  1  0  0  0  0
 12 39  1  0  0  0  0
 13 40  1  0  0  0  0
 13 41  1  0  0  0  0
 14 15  2  0  0  0  0
 14 42  1  0  0  0  0
 15 21  1  0  0  0  0
 16 24  1  0  0  0  0
 16 43  1  0  0  0  0
 16 44  1  0  0  0  0
 17 45  1  0  0  0  0
 17 46  1  0  0  0  0
 17 47  1  0  0  0  0
 18 48  1  0  0  0  0
 18 49  1  0  0  0  0
 18 50  1  0  0  0  0
 19 22  1  0  0  0  0
 19 51  1  0  0  0  0
 19 52  1  0  0  0  0
 20 23  1  0  0  0  0
 20 53  1  0  0  0  0
 20 54  1  0  0  0  0
 21 55  1  0  0  0  0
 21 56  1  0  0  0  0
 21 57  1  0  0  0  0
 22 58  1  0  0  0  0
 22 59  1  0  0  0  0
 23 60  1  0  0  0  0
 23 61  1  0  0  0  0
 25 28  1  0  0  0  0
 26 27  1  0  0  0  0
 27 29  1  0  0  0  0
 27 30  1  0  0  0  0
 27 31  1  0  0  0  0
 28 62  1  0  0  0  0
 29 63  1  0  0  0  0
 29 64  1  0  0  0  0
 29 65  1  0  0  0  0
 30 66  1  0  0  0  0
 30 67  1  0  0  0  0
 30 68  1  0  0  0  0
 31 69  1  0  0  0  0
 31 70  1  0  0  0  0
 31 71  1  0  0  0  0
 32 33  2  0  0  0  0
 32 72  1  0  0  0  0
 33 73  1  0  0  0  0
M  END
> <PUBCHEM_COMPOUND_CID>
45784113

> <PUBCHEM_CONFORMER_RMSD>
1

> <PUBCHEM_CONFORMER_DIVERSEORDER>
26
65
81
89
155
166
101
169
189
78
1
226
111
215
62
61
207
185
154
199
59
219
216
124
13
175
165
221
112
76
146
244
80
18
31
230
171
161
117
204
27
52
55
12
236
162
34
36
127
237
94
45
191
73
188
205
50
93
54
95
71
119
82
145
35
220
109
58
193
147
186
10
83
197
245
164
196
130
69
92
181
86
201
20
158
33
108
139
40
203
133
41
180
149
72
241
39
163
16
47
190
222
214
239
29
218
134
22
66
48
15
136
103
144
153
200
225
74
142
129
11
210
168
44
156
38
8
99
172
98
100
227
177
141
243
9
212
90
37
235
64
202
223
224
32
192
195
7
68
160
106
67
137
77
56
211
217
178
2
21
126
23
75
150
42
97
79
206
213
122
183
247
28
198
209
208
116
228
138
240
88
242
120
102
125
232
152
46
174
184
3
187
85
107
151
104
176
14
238
246
128
140
231
157
43
24
179
135
60
110
229
233
4
30
63
49
167
173
70
6
17
132
113
121
5
234
131
143
51
194
115
148
123
25
57
105
182
96
53
84
114
87
170
19
159
118
91

> <PUBCHEM_MMFF94_PARTIAL_CHARGES>
29
1 -0.28
11 0.14
13 0.27
14 -0.29
15 -0.28
16 0.18
19 0.27
2 -0.81
20 0.27
21 0.14
22 0.37
23 0.37
24 0.3
25 0.41
26 0.3
27 0.18
28 0.16
3 -0.84
32 0.16
33 0.16
4 -0.34
42 0.15
5 -0.34
6 -0.62
62 0.15
7 -0.62
72 0.15
73 0.15
9 0.14

> <PUBCHEM_EFFECTIVE_ROTOR_COUNT>
9

> <PUBCHEM_PHARMACOPHORE_FEATURES>
9
1 2 cation
1 7 acceptor
3 12 17 18 hydrophobe
3 3 6 25 cation
4 27 29 30 31 hydrophobe
5 1 4 5 24 26 rings
6 2 3 19 20 22 23 rings
6 6 7 25 28 32 33 rings
6 8 9 10 11 14 15 rings

> <PUBCHEM_HEAVY_ATOM_COUNT>
33

> <PUBCHEM_ATOM_DEF_STEREO_COUNT>
3

> <PUBCHEM_ATOM_UDEF_STEREO_COUNT>
0

> <PUBCHEM_BOND_DEF_STEREO_COUNT>
0

> <PUBCHEM_BOND_UDEF_STEREO_COUNT>
0

> <PUBCHEM_ISOTOPIC_ATOM_COUNT>
0

> <PUBCHEM_COMPONENT_COUNT>
1

> <PUBCHEM_CACTVS_TAUTO_COUNT>
1

> <PUBCHEM_CONFORMER_ID>
02BA9C310000001A

> <PUBCHEM_MMFF94_ENERGY>
86.4365

> <PUBCHEM_FEATURE_SELFOVERLAP>
45.672

> <PUBCHEM_SHAPE_FINGERPRINT>
10 15 17967250888933323649
10006869 2 18270954657651959472
10165383 225 18335139796275841242
10670039 82 15913336770782753523
10952577 141 18263374749540541860
11297750 10 17317033642440624990
11443803 9 17203600481093233746
11828532 37 11887373859642367309
11991303 11 16773229720662382990
12035758 1 16588021312306980703
12047536 79 17459457862972693089
12098696 120 18411984667740201496
12422481 6 17167857612947767654
12522641 126 16486699048038278214
12539765 74 18342742896658037327
12838863 1 12247414363160720564
13150687 139 17060629896873467708
14040221 8 14189026501878728201
14840074 17 17241042240895734022
14931854 50 17704355463460696289
15183329 4 16128385891406048824
15198563 99 17410762975201651591
15320295 40 13470698023269674240
15684973 49 18044104672297762179
1577012 14 18411129255825056547
15840311 113 18336270058978160382
15961568 22 18060423495386377961
17852330 162 13901043670314454072
17980427 23 18041277772484276879
18335252 114 17346599677609328504
190975 80 12540694842729697808
2026 5 9943537301368664233
20465049 17 11671774971042584389
20554085 129 18411147939206938662
20721686 146 18334576854184666772
21033648 29 17822015285508304891
21344244 181 11599714104160553573
21344244 246 13973700394852329404
21403212 168 18413669115385437686
21521239 73 13039191407429961596
21781051 124 14692562247816154103
21792965 106 17970068838620891117
23576562 1 17058916952278892761
24771293 8 17822009830788900255
25269216 80 17060043888480116607
3383291 50 8502653714543201025
3411729 13 18334574625307961258
3472631 163 18060134336981790351
3918712 181 18340766035471688344
3986486 107 17489321776111063096
4073 2 18261112976665413891
4093350 32 18260268516916223706
4169191 19 18411135810731309201
4461854 278 12540698115643270728
504579 68 17203889660687040953
54039377 194 9151176463035354176
5718773 13 9943814391108918968
57527293 21 17603853529936394890
58260988 393 14707194506057050318
59682541 52 16559039272799661902
6438161 24 9439401320074877961
6691757 9 15647049413254895643

> <PUBCHEM_SHAPE_MULTIPOLES>
643.37
25.25
3
2.03
19.44
1.65
-1.47
-27
3.13
-3.25
0.37
-0.27
-0.19
-0.25

> <PUBCHEM_SHAPE_SELFOVERLAP>
1341.549

> <PUBCHEM_SHAPE_VOLUME>
365.1

> <PUBCHEM_COORDINATE_TYPE>
2
5
10

$$$$
