26742452
  -OEChem-12032416413D

 50 53  0     1  0  0  0  0  0999 V2000
   -3.8511    2.7631    0.2021 S   0  0  0  0  0  0  0  0  0  0  0  0
   -4.9968    3.3852   -0.4323 O   0  0  0  0  0  0  0  0  0  0  0  0
   -2.5057    3.0332   -0.2674 O   0  0  0  0  0  0  0  0  0  0  0  0
    4.8870    1.2635   -0.0095 O   0  0  0  0  0  0  0  0  0  0  0  0
   -2.2552   -2.0553    1.3645 N   0  0  2  0  0  0  0  0  0  0  0  0
   -4.0745    1.0709    0.2668 N   0  0  0  0  0  0  0  0  0  0  0  0
    0.6581   -0.4114   -1.7389 N   0  0  0  0  0  0  0  0  0  0  0  0
    2.7474    0.7291   -1.3620 N   0  0  0  0  0  0  0  0  0  0  0  0
   -1.4512   -2.2471   -1.1053 C   0  0  2  0  0  0  0  0  0  0  0  0
   -0.2402   -2.0433   -0.1534 C   0  0  2  0  0  0  0  0  0  0  0  0
   -3.0419   -1.1356    0.5010 C   0  0  2  0  0  0  0  0  0  0  0  0
   -2.4458   -1.0813   -0.9221 C   0  0  0  0  0  0  0  0  0  0  0  0
   -2.1695   -3.5330   -0.6428 C   0  0  0  0  0  0  0  0  0  0  0  0
   -0.8092   -1.7370    1.2615 C   0  0  0  0  0  0  0  0  0  0  0  0
   -2.4619   -3.4357    0.8647 C   0  0  0  0  0  0  0  0  0  0  0  0
   -3.1843    0.2595    1.1132 C   0  0  0  0  0  0  0  0  0  0  0  0
    0.8408   -1.0550   -0.5674 C   0  0  0  0  0  0  0  0  0  0  0  0
    1.9356   -0.8628    0.2505 C   0  0  0  0  0  0  0  0  0  0  0  0
    2.8661    0.0503   -0.2021 C   0  0  0  0  0  0  0  0  0  0  0  0
    1.6356    0.4536   -2.0705 C   0  0  0  0  0  0  0  0  0  0  0  0
   -3.8998    3.1641    1.9338 C   0  0  0  0  0  0  0  0  0  0  0  0
    4.0558    0.3459    0.5510 C   0  0  0  0  0  0  0  0  0  0  0  0
    1.4685    1.1861   -3.3587 C   0  0  0  0  0  0  0  0  0  0  0  0
    4.5654   -0.1000    1.7483 C   0  0  0  0  0  0  0  0  0  0  0  0
    5.7881    0.5878    1.9356 C   0  0  0  0  0  0  0  0  0  0  0  0
    5.9386    1.4050    0.8393 C   0  0  0  0  0  0  0  0  0  0  0  0
   -1.1411   -2.3377   -2.1516 H   0  0  0  0  0  0  0  0  0  0  0  0
    0.2797   -3.0127   -0.1032 H   0  0  0  0  0  0  0  0  0  0  0  0
   -4.0622   -1.5407    0.4252 H   0  0  0  0  0  0  0  0  0  0  0  0
   -1.9410   -0.1279   -1.1138 H   0  0  0  0  0  0  0  0  0  0  0  0
   -3.2537   -1.1691   -1.6592 H   0  0  0  0  0  0  0  0  0  0  0  0
   -1.5476   -4.4128   -0.8453 H   0  0  0  0  0  0  0  0  0  0  0  0
   -3.1040   -3.6600   -1.2027 H   0  0  0  0  0  0  0  0  0  0  0  0
   -0.2634   -2.3339    2.0047 H   0  0  0  0  0  0  0  0  0  0  0  0
   -0.6335   -0.6962    1.5560 H   0  0  0  0  0  0  0  0  0  0  0  0
   -3.4912   -3.7571    1.0660 H   0  0  0  0  0  0  0  0  0  0  0  0
   -1.8226   -4.1324    1.4219 H   0  0  0  0  0  0  0  0  0  0  0  0
   -2.2089    0.7484    1.1966 H   0  0  0  0  0  0  0  0  0  0  0  0
   -3.6215    0.1888    2.1155 H   0  0  0  0  0  0  0  0  0  0  0  0
   -5.0484    0.7400    0.2597 H   0  0  0  0  0  0  0  0  0  0  0  0
    2.0508   -1.4039    1.1818 H   0  0  0  0  0  0  0  0  0  0  0  0
   -3.8419    4.2515    2.0248 H   0  0  0  0  0  0  0  0  0  0  0  0
   -4.8443    2.8126    2.3532 H   0  0  0  0  0  0  0  0  0  0  0  0
   -3.0473    2.7131    2.4432 H   0  0  0  0  0  0  0  0  0  0  0  0
    1.6157    0.4994   -4.1976 H   0  0  0  0  0  0  0  0  0  0  0  0
    0.4626    1.6122   -3.4239 H   0  0  0  0  0  0  0  0  0  0  0  0
    2.1916    2.0029   -3.4475 H   0  0  0  0  0  0  0  0  0  0  0  0
    4.1226   -0.8284    2.4129 H   0  0  0  0  0  0  0  0  0  0  0  0
    6.4739    0.4992    2.7656 H   0  0  0  0  0  0  0  0  0  0  0  0
    6.6969    2.1096    0.5305 H   0  0  0  0  0  0  0  0  0  0  0  0
  1  2  2  0  0  0  0
  1  3  2  0  0  0  0
  1  6  1  0  0  0  0
  1 21  1  0  0  0  0
  4 22  1  0  0  0  0
  4 26  1  0  0  0  0
  5 11  1  0  0  0  0
  5 14  1  0  0  0  0
  5 15  1  0  0  0  0
  6 16  1  0  0  0  0
  6 40  1  0  0  0  0
  7 17  2  0  0  0  0
  7 20  1  0  0  0  0
  8 19  1  0  0  0  0
  8 20  2  0  0  0  0
  9 10  1  0  0  0  0
  9 12  1  0  0  0  0
  9 13  1  0  0  0  0
  9 27  1  0  0  0  0
 10 14  1  0  0  0  0
 10 17  1  0  0  0  0
 10 28  1  0  0  0  0
 11 12  1  0  0  0  0
 11 16  1  0  0  0  0
 11 29  1  0  0  0  0
 12 30  1  0  0  0  0
 12 31  1  0  0  0  0
 13 15  1  0  0  0  0
 13 32  1  0  0  0  0
 13 33  1  0  0  0  0
 14 34  1  0  0  0  0
 14 35  1  0  0  0  0
 15 36  1  0  0  0  0
 15 37  1  0  0  0  0
 16 38  1  0  0  0  0
 16 39  1  0  0  0  0
 17 18  1  0  0  0  0
 18 19  2  0  0  0  0
 18 41  1  0  0  0  0
 19 22  1  0  0  0  0
 20 23  1  0  0  0  0
 21 42  1  0  0  0  0
 21 43  1  0  0  0  0
 21 44  1  0  0  0  0
 22 24  2  0  0  0  0
 23 45  1  0  0  0  0
 23 46  1  0  0  0  0
 23 47  1  0  0  0  0
 24 25  1  0  0  0  0
 24 48  1  0  0  0  0
 25 26  2  0  0  0  0
 25 49  1  0  0  0  0
 26 50  1  0  0  0  0
M  END
> <PUBCHEM_COMPOUND_CID>
26742452

> <PUBCHEM_CONFORMER_RMSD>
1

> <PUBCHEM_CONFORMER_DIVERSEORDER>
1
59
17
36
33
28
32
40
43
31
38
22
41
29
18
54
11
34
62
27
42
35
2
67
52
30
57
46
6
65
26
45
61
66
56
60
7
5
15
10
20
48
19
51
47
68
9
63
8
50
4
13
21
55
37
64
49
16
24
58
53
25
39
14
23
3
44
12

> <PUBCHEM_MMFF94_PARTIAL_CHARGES>
28
1 1.33
10 0.14
11 0.27
14 0.27
15 0.27
16 0.36
17 0.17
18 -0.15
19 0.36
2 -0.65
20 0.48
21 0.11
22 0.09
23 0.14
24 -0.15
25 -0.15
26 -0.01
3 -0.65
4 -0.28
40 0.42
41 0.15
48 0.15
49 0.15
5 -0.81
50 0.15
6 -0.91
7 -0.62
8 -0.62

> <PUBCHEM_EFFECTIVE_ROTOR_COUNT>
6.2

> <PUBCHEM_PHARMACOPHORE_FEATURES>
10
1 2 acceptor
1 3 acceptor
1 4 acceptor
1 5 cation
1 6 donor
1 7 acceptor
3 7 8 20 cation
5 4 22 24 25 26 rings
6 7 8 17 18 19 20 rings
8 5 9 10 11 12 13 14 15 rings

> <PUBCHEM_HEAVY_ATOM_COUNT>
26

> <PUBCHEM_ATOM_DEF_STEREO_COUNT>
3

> <PUBCHEM_ATOM_UDEF_STEREO_COUNT>
0

> <PUBCHEM_BOND_DEF_STEREO_COUNT>
0

> <PUBCHEM_BOND_UDEF_STEREO_COUNT>
0

> <PUBCHEM_ISOTOPIC_ATOM_COUNT>
0

> <PUBCHEM_COMPONENT_COUNT>
1

> <PUBCHEM_CACTVS_TAUTO_COUNT>
1

> <PUBCHEM_CONFORMER_ID>
01980EB400000001

> <PUBCHEM_MMFF94_ENERGY>
53.2532

> <PUBCHEM_FEATURE_SELFOVERLAP>
50.764

> <PUBCHEM_SHAPE_FINGERPRINT>
10042902 136 10737870685093771625
10291535 26 18272362122645494859
10554248 39 14907907128736460536
10764073 3 18121773929629637966
11049842 53 18191332449453965030
11370993 144 18410283693308774674
11552529 35 17680425847493111210
11578080 2 18129681733104103796
11720765 8 16408744609588594309
11725454 13 17561075895674121870
11763715 3 17762616596115629974
12107183 9 18192417586010681258
12166972 35 17679852988743935647
12422481 6 17823412695919622280
12633257 1 16226063153826401777
12788726 201 17972341752208453059
12969540 114 15626220256303546776
13009979 54 17897732195687176478
13103583 49 16588031194731069920
13257819 101 17632857555728610164
13583140 156 17560511928341348770
13947920 24 16056297519263531717
13965767 371 17898570878134900133
14142880 1 18334288773838196887
14178342 30 18260271879717698802
14251740 79 9799695921620546252
14289585 56 14547924762006235432
14294032 229 18340502127226949659
14932701 244 17846488250042948301
14950920 106 16733848500074537417
15003188 8 17896599488494709477
15163728 17 17917148282543154883
15338160 23 18337664343392719444
15484559 13 14320822636479670746
17818456 19 18333734624045703750
20587220 17 17617922653282561285
20739085 24 17167866396197806556
21033648 29 18340212890395138912
21304303 282 18340750590964210991
2132832 1 17972032801929876127
21401589 2 18271250430717418753
23559900 14 18059310803020480542
238918 7 17100297888787411837
2838139 119 17417519225272279144
3117164 225 18264199232673618178
312425 83 15839874984796600025
3459 39 18342166735432251217
376196 1 18056483837997105551
437815 12 11314319351817698521
4616759 239 17607791010172308992
484985 159 13118548602950830725
4921388 177 10665490925337391818
4938544 92 18340759434238140896
5951187 136 16766486107060797745
6086070 43 16486677139990017850
6371380 46 18195248811241010806
7064713 232 18261961730247080261
9849439 229 18196665007860705297
9981440 41 18410013204779533395

> <PUBCHEM_SHAPE_MULTIPOLES>
501.39
11.16
4.06
2.21
12.44
0.68
-1.36
9.28
6
-8.22
0.68
1.52
0.69
-0.34

> <PUBCHEM_SHAPE_SELFOVERLAP>
1064.014

> <PUBCHEM_SHAPE_VOLUME>
282.9

> <PUBCHEM_COORDINATE_TYPE>
2
5
10

$$$$
