51137611
  -OEChem-12032416243D

 52 55  0     1  0  0  0  0  0999 V2000
   -8.7095    1.2156   -0.0545 S   0  0  0  0  0  0  0  0  0  0  0  0
   10.5788    1.5755    0.4586 F   0  0  0  0  0  0  0  0  0  0  0  0
    2.4769   -0.3325    0.3554 O   0  0  0  0  0  0  0  0  0  0  0  0
    5.3541    0.1189   -0.4279 O   0  0  0  0  0  0  0  0  0  0  0  0
   -9.5650    0.3607   -0.8660 O   0  0  0  0  0  0  0  0  0  0  0  0
   -9.1651    1.6593    1.2554 O   0  0  0  0  0  0  0  0  0  0  0  0
   -2.2486   -0.5999    0.2836 N   0  0  1  0  0  0  0  0  0  0  0  0
    1.6314   -2.0986   -0.7264 N   0  0  0  0  0  0  0  0  0  0  0  0
    2.9963   -2.2832   -0.6087 N   0  0  0  0  0  0  0  0  0  0  0  0
    0.0532   -0.2333    0.0251 C   0  0  1  0  0  0  0  0  0  0  0  0
   -0.6736    0.1128   -1.2861 C   0  0  0  0  0  0  0  0  0  0  0  0
   -0.9667   -1.0491    0.8309 C   0  0  0  0  0  0  0  0  0  0  0  0
   -2.0421   -0.5446   -1.1635 C   0  0  0  0  0  0  0  0  0  0  0  0
   -3.3486   -1.4783    0.6533 C   0  0  0  0  0  0  0  0  0  0  0  0
    1.3731   -0.9481   -0.1500 C   0  0  0  0  0  0  0  0  0  0  0  0
   -4.6851   -0.8077    0.4773 C   0  0  0  0  0  0  0  0  0  0  0  0
   -5.1197    0.1364    1.4077 C   0  0  0  0  0  0  0  0  0  0  0  0
   -5.4887   -1.1302   -0.6163 C   0  0  0  0  0  0  0  0  0  0  0  0
    3.4481   -1.2284    0.0287 C   0  0  0  0  0  0  0  0  0  0  0  0
   -6.3577    0.7577    1.2447 C   0  0  0  0  0  0  0  0  0  0  0  0
   -6.7268   -0.5089   -0.7794 C   0  0  0  0  0  0  0  0  0  0  0  0
   -7.1613    0.4350    0.1511 C   0  0  0  0  0  0  0  0  0  0  0  0
    4.8206   -0.8941    0.4291 C   0  0  0  0  0  0  0  0  0  0  0  0
   -8.3504    2.6610   -1.0268 C   0  0  0  0  0  0  0  0  0  0  0  0
    6.6533    0.4811   -0.2075 C   0  0  0  0  0  0  0  0  0  0  0  0
    7.3848   -0.1306    0.8107 C   0  0  0  0  0  0  0  0  0  0  0  0
    7.2482    1.4622   -1.0008 C   0  0  0  0  0  0  0  0  0  0  0  0
    8.7107    0.2391    1.0357 C   0  0  0  0  0  0  0  0  0  0  0  0
    8.5741    1.8320   -0.7758 C   0  0  0  0  0  0  0  0  0  0  0  0
    9.3054    1.2204    0.2425 C   0  0  0  0  0  0  0  0  0  0  0  0
    0.2456    0.7096    0.5566 H   0  0  0  0  0  0  0  0  0  0  0  0
   -0.7843    1.2016   -1.3641 H   0  0  0  0  0  0  0  0  0  0  0  0
   -0.1441   -0.2325   -2.1804 H   0  0  0  0  0  0  0  0  0  0  0  0
   -0.8864   -0.8380    1.9028 H   0  0  0  0  0  0  0  0  0  0  0  0
   -0.8228   -2.1276    0.6811 H   0  0  0  0  0  0  0  0  0  0  0  0
   -2.8078    0.0456   -1.6767 H   0  0  0  0  0  0  0  0  0  0  0  0
   -2.0108   -1.5459   -1.6123 H   0  0  0  0  0  0  0  0  0  0  0  0
   -3.3143   -2.4342    0.1131 H   0  0  0  0  0  0  0  0  0  0  0  0
   -3.2684   -1.7477    1.7161 H   0  0  0  0  0  0  0  0  0  0  0  0
   -4.5018    0.3974    2.2628 H   0  0  0  0  0  0  0  0  0  0  0  0
   -5.1604   -1.8616   -1.3500 H   0  0  0  0  0  0  0  0  0  0  0  0
   -6.6723    1.4953    1.9775 H   0  0  0  0  0  0  0  0  0  0  0  0
   -7.3333   -0.7696   -1.6421 H   0  0  0  0  0  0  0  0  0  0  0  0
    5.4143   -1.8134    0.3480 H   0  0  0  0  0  0  0  0  0  0  0  0
    4.8031   -0.5434    1.4686 H   0  0  0  0  0  0  0  0  0  0  0  0
   -9.2855    3.2014   -1.1886 H   0  0  0  0  0  0  0  0  0  0  0  0
   -7.6466    3.2910   -0.4796 H   0  0  0  0  0  0  0  0  0  0  0  0
   -7.9297    2.3495   -1.9847 H   0  0  0  0  0  0  0  0  0  0  0  0
    6.9898   -0.8951    1.4704 H   0  0  0  0  0  0  0  0  0  0  0  0
    6.6834    1.9420   -1.7954 H   0  0  0  0  0  0  0  0  0  0  0  0
    9.2812   -0.2352    1.8289 H   0  0  0  0  0  0  0  0  0  0  0  0
    9.0374    2.5959   -1.3931 H   0  0  0  0  0  0  0  0  0  0  0  0
  1  5  2  0  0  0  0
  1  6  2  0  0  0  0
  1 22  1  0  0  0  0
  1 24  1  0  0  0  0
  2 30  1  0  0  0  0
  3 15  1  0  0  0  0
  3 19  1  0  0  0  0
  4 23  1  0  0  0  0
  4 25  1  0  0  0  0
  7 12  1  0  0  0  0
  7 13  1  0  0  0  0
  7 14  1  0  0  0  0
  8  9  1  0  0  0  0
  8 15  2  0  0  0  0
  9 19  2  0  0  0  0
 10 11  1  0  0  0  0
 10 12  1  0  0  0  0
 10 15  1  0  0  0  0
 10 31  1  0  0  0  0
 11 13  1  0  0  0  0
 11 32  1  0  0  0  0
 11 33  1  0  0  0  0
 12 34  1  0  0  0  0
 12 35  1  0  0  0  0
 13 36  1  0  0  0  0
 13 37  1  0  0  0  0
 14 16  1  0  0  0  0
 14 38  1  0  0  0  0
 14 39  1  0  0  0  0
 16 17  2  0  0  0  0
 16 18  1  0  0  0  0
 17 20  1  0  0  0  0
 17 40  1  0  0  0  0
 18 21  2  0  0  0  0
 18 41  1  0  0  0  0
 19 23  1  0  0  0  0
 20 22  2  0  0  0  0
 20 42  1  0  0  0  0
 21 22  1  0  0  0  0
 21 43  1  0  0  0  0
 23 44  1  0  0  0  0
 23 45  1  0  0  0  0
 24 46  1  0  0  0  0
 24 47  1  0  0  0  0
 24 48  1  0  0  0  0
 25 26  2  0  0  0  0
 25 27  1  0  0  0  0
 26 28  1  0  0  0  0
 26 49  1  0  0  0  0
 27 29  2  0  0  0  0
 27 50  1  0  0  0  0
 28 30  2  0  0  0  0
 28 51  1  0  0  0  0
 29 30  1  0  0  0  0
 29 52  1  0  0  0  0
M  END
> <PUBCHEM_COMPOUND_CID>
51137611

> <PUBCHEM_CONFORMER_RMSD>
1.2

> <PUBCHEM_CONFORMER_DIVERSEORDER>
1
64
86
108
95
74
142
55
31
10
116
34
48
135
15
119
43
72
145
139
19
134
102
94
147
54
28
9
129
110
130
18
41
143
66
122
111
38
106
26
87
50
80
99
144
60
77
113
103
47
2
68
44
120
56
17
136
42
13
91
27
121
100
22
46
6
49
61
32
84
14
25
93
138
83
141
29
101
127
137
40
3
126
149
23
39
59
78
11
36
81
96
71
114
24
128
131
140
16
51
73
76
105
63
112
7
97
146
45
88
57
118
124
33
5
148
123
132
85
20
98
79
89
37
30
58
21
104
125
52
109
62
35
90
70
8
69
82
65
133
92
4
75
53
12
107
117
115
67

> <PUBCHEM_MMFF94_PARTIAL_CHARGES>
37
1 1.2
10 0.18
12 0.27
13 0.27
14 0.41
15 0.3
16 -0.14
17 -0.15
18 -0.15
19 0.3
2 -0.19
20 -0.15
21 -0.15
22 -0.01
23 0.46
24 0.11
25 0.08
26 -0.15
27 -0.15
28 -0.15
29 -0.15
3 -0.28
30 0.19
4 -0.36
40 0.15
41 0.15
42 0.15
43 0.15
49 0.15
5 -0.65
50 0.15
51 0.15
52 0.15
6 -0.65
7 -0.81
8 -0.34
9 -0.34

> <PUBCHEM_EFFECTIVE_ROTOR_COUNT>
8

> <PUBCHEM_PHARMACOPHORE_FEATURES>
8
1 4 acceptor
1 5 acceptor
1 6 acceptor
1 7 cation
5 3 8 9 15 19 rings
5 7 10 11 12 13 rings
6 16 17 18 20 21 22 rings
6 25 26 27 28 29 30 rings

> <PUBCHEM_HEAVY_ATOM_COUNT>
30

> <PUBCHEM_ATOM_DEF_STEREO_COUNT>
1

> <PUBCHEM_ATOM_UDEF_STEREO_COUNT>
0

> <PUBCHEM_BOND_DEF_STEREO_COUNT>
0

> <PUBCHEM_BOND_UDEF_STEREO_COUNT>
0

> <PUBCHEM_ISOTOPIC_ATOM_COUNT>
0

> <PUBCHEM_COMPONENT_COUNT>
1

> <PUBCHEM_CACTVS_TAUTO_COUNT>
1

> <PUBCHEM_CONFORMER_ID>
030C4C4B00000001

> <PUBCHEM_MMFF94_ENERGY>
62.4246

> <PUBCHEM_FEATURE_SELFOVERLAP>
40.615

> <PUBCHEM_SHAPE_FINGERPRINT>
10 15 17894348882623337970
10076449 9 11455893563773499426
10429389 143 18340205199011057985
10533779 47 16370719297966304432
10670039 82 13973696009026211611
11135926 11 14273728586182464531
11315181 36 18060422413755764987
11386260 185 14620785025201660058
11456790 92 14418136209838238773
11463208 3 9799684914115732597
11578821 258 18412545380185538081
11638347 137 15574708093998776400
12089408 11 18411978061574500402
12498461 61 11963391868498510776
12522641 33 17989492923027701886
12539745 222 11241962677891129679
13553643 46 17749104500343592204
14251764 46 18408321094933134930
14344974 52 16343695578182223002
14394314 77 17313101968683237843
14617042 71 18115313397174307636
150020 25 15913324714978565938
15152005 1 13970543843604821021
15198563 99 15410630159433586232
15461852 350 17060334137742722487
155225 1 18341895194651501184
15690457 1 8358262536479446952
15849732 13 15913330212752885056
17093844 174 17676210170083688595
1754908 1 15213022673725085808
1754911 235 17060338530603060208
1818759 1 8070029978120599072
19301679 30 11963928383855840554
19315958 150 18334017159558395419
195137 175 18202287992013211745
19841028 212 11026335244902202824
2026 5 9943263519021129284
20771845 65 11025799804393875086
21095086 128 10303810982317167395
21150785 3 15339119035111241891
21267235 1 9079115553103604435
21344244 246 10015599293753667156
21362267 313 18189046513371579554
21792934 111 16370724833361549231
21792961 116 12823026330988803158
22224240 67 18333449863699236138
23576562 1 16271344423193280873
246663 6 9295288343706712883
24771293 8 18260266356679270295
249057 3 14836121092125601906
3711267 37 18342751722847615384
4017518 198 15123792902763134596
4073 2 18411143532893129339
44389302 135 12973596738319306704
4516262 110 18060700594355383518
4625314 4 18409168831346712990
54039377 194 9079114458176639835
5758199 1 18342458153796490482
5937810 71 17560247921128559257
636775 72 18260266309962683165
636775 8 15913320335198270175
9663363 56 16588020217823173095
9953998 17 17313104176349116835

> <PUBCHEM_SHAPE_MULTIPOLES>
575.54
38.18
1.93
1.18
22.42
0.48
0.07
27.42
3.71
-0.38
-0.38
-0.94
0.12
-0.29

> <PUBCHEM_SHAPE_SELFOVERLAP>
1225.126

> <PUBCHEM_SHAPE_VOLUME>
324.1

> <PUBCHEM_COORDINATE_TYPE>
2
5
10

$$$$
