51137827
  -OEChem-12032416143D

 43 46  0     1  0  0  0  0  0999 V2000
    1.4279   -1.2983    0.0921 O   0  0  0  0  0  0  0  0  0  0  0  0
   -2.8055   -0.7946    2.2419 O   0  0  0  0  0  0  0  0  0  0  0  0
   -1.7327   -1.7376    0.4106 N   0  0  0  0  0  0  0  0  0  0  0  0
    2.4006   -2.9218   -1.1007 N   0  0  0  0  0  0  0  0  0  0  0  0
    3.3989   -2.1527   -0.5322 N   0  0  0  0  0  0  0  0  0  0  0  0
   -3.5651    2.6957   -1.1913 N   0  0  0  0  0  0  0  0  0  0  0  0
   -0.1589   -2.8057   -1.0197 C   0  0  1  0  0  0  0  0  0  0  0  0
   -0.6898   -3.8157    0.0095 C   0  0  0  0  0  0  0  0  0  0  0  0
   -1.2258   -1.7032   -0.9623 C   0  0  0  0  0  0  0  0  0  0  0  0
   -1.2970   -2.9426    1.0992 C   0  0  0  0  0  0  0  0  0  0  0  0
    1.2677   -2.3867   -0.7093 C   0  0  0  0  0  0  0  0  0  0  0  0
   -2.4623   -0.7554    1.0620 C   0  0  0  0  0  0  0  0  0  0  0  0
   -2.8440    0.4348    0.2860 C   0  0  0  0  0  0  0  0  0  0  0  0
    2.7851   -1.2175    0.1546 C   0  0  0  0  0  0  0  0  0  0  0  0
    3.3481   -0.1277    0.9614 C   0  0  0  0  0  0  0  0  0  0  0  0
   -3.6349    0.3033   -0.8501 C   0  0  0  0  0  0  0  0  0  0  0  0
   -2.4134    1.6955    0.6843 C   0  0  0  0  0  0  0  0  0  0  0  0
    2.9020    1.2701    0.5456 C   0  0  0  0  0  0  0  0  0  0  0  0
   -3.9648    1.4542   -1.5474 C   0  0  0  0  0  0  0  0  0  0  0  0
   -2.7978    2.7841   -0.0817 C   0  0  0  0  0  0  0  0  0  0  0  0
    3.5056    1.9003   -0.5426 C   0  0  0  0  0  0  0  0  0  0  0  0
    1.8903    1.9185    1.2537 C   0  0  0  0  0  0  0  0  0  0  0  0
    3.0976    3.1788   -0.9227 C   0  0  0  0  0  0  0  0  0  0  0  0
    1.4821    3.1970    0.8737 C   0  0  0  0  0  0  0  0  0  0  0  0
    2.0859    3.8272   -0.2146 C   0  0  0  0  0  0  0  0  0  0  0  0
   -0.1403   -3.2526   -2.0212 H   0  0  0  0  0  0  0  0  0  0  0  0
   -1.4817   -4.4188   -0.4527 H   0  0  0  0  0  0  0  0  0  0  0  0
    0.0698   -4.4991    0.4014 H   0  0  0  0  0  0  0  0  0  0  0  0
   -0.8466   -0.7105   -1.2221 H   0  0  0  0  0  0  0  0  0  0  0  0
   -2.0604   -1.9575   -1.6247 H   0  0  0  0  0  0  0  0  0  0  0  0
   -2.1395   -3.4189    1.6098 H   0  0  0  0  0  0  0  0  0  0  0  0
   -0.5523   -2.6524    1.8486 H   0  0  0  0  0  0  0  0  0  0  0  0
    3.0917   -0.2914    2.0158 H   0  0  0  0  0  0  0  0  0  0  0  0
    4.4443   -0.1649    0.9211 H   0  0  0  0  0  0  0  0  0  0  0  0
   -4.0086   -0.6590   -1.1827 H   0  0  0  0  0  0  0  0  0  0  0  0
   -1.7929    1.8339    1.5633 H   0  0  0  0  0  0  0  0  0  0  0  0
   -4.5836    1.4062   -2.4374 H   0  0  0  0  0  0  0  0  0  0  0  0
   -2.4866    3.7886    0.1857 H   0  0  0  0  0  0  0  0  0  0  0  0
    4.2946    1.4045   -1.1018 H   0  0  0  0  0  0  0  0  0  0  0  0
    1.4091    1.4372    2.1009 H   0  0  0  0  0  0  0  0  0  0  0  0
    3.5674    3.6694   -1.7702 H   0  0  0  0  0  0  0  0  0  0  0  0
    0.6928    3.7010    1.4238 H   0  0  0  0  0  0  0  0  0  0  0  0
    1.7674    4.8224   -0.5108 H   0  0  0  0  0  0  0  0  0  0  0  0
  1 11  1  0  0  0  0
  1 14  1  0  0  0  0
  2 12  2  0  0  0  0
  3  9  1  0  0  0  0
  3 10  1  0  0  0  0
  3 12  1  0  0  0  0
  4  5  1  0  0  0  0
  4 11  2  0  0  0  0
  5 14  2  0  0  0  0
  6 19  2  0  0  0  0
  6 20  1  0  0  0  0
  7  8  1  0  0  0  0
  7  9  1  0  0  0  0
  7 11  1  0  0  0  0
  7 26  1  0  0  0  0
  8 10  1  0  0  0  0
  8 27  1  0  0  0  0
  8 28  1  0  0  0  0
  9 29  1  0  0  0  0
  9 30  1  0  0  0  0
 10 31  1  0  0  0  0
 10 32  1  0  0  0  0
 12 13  1  0  0  0  0
 13 16  2  0  0  0  0
 13 17  1  0  0  0  0
 14 15  1  0  0  0  0
 15 18  1  0  0  0  0
 15 33  1  0  0  0  0
 15 34  1  0  0  0  0
 16 19  1  0  0  0  0
 16 35  1  0  0  0  0
 17 20  2  0  0  0  0
 17 36  1  0  0  0  0
 18 21  2  0  0  0  0
 18 22  1  0  0  0  0
 19 37  1  0  0  0  0
 20 38  1  0  0  0  0
 21 23  1  0  0  0  0
 21 39  1  0  0  0  0
 22 24  2  0  0  0  0
 22 40  1  0  0  0  0
 23 25  2  0  0  0  0
 23 41  1  0  0  0  0
 24 25  1  0  0  0  0
 24 42  1  0  0  0  0
 25 43  1  0  0  0  0
M  END
> <PUBCHEM_COMPOUND_CID>
51137827

> <PUBCHEM_CONFORMER_RMSD>
0.8

> <PUBCHEM_CONFORMER_DIVERSEORDER>
1
250
171
177
178
190
200
268
264
67
72
216
89
122
201
205
153
241
101
262
148
209
248
259
109
263
39
30
71
88
107
86
230
155
113
187
252
238
270
98
51
102
257
80
48
136
197
219
123
202
267
131
147
154
24
234
211
184
121
11
126
167
57
215
13
212
9
157
152
37
220
196
85
75
269
159
168
223
254
10
258
162
22
44
213
66
224
46
104
146
239
81
78
61
214
160
237
21
55
47
133
114
186
124
77
3
19
43
233
145
93
231
150
246
222
95
139
206
208
181
247
125
185
158
225
142
255
210
166
79
218
118
232
266
6
65
140
161
191
170
38
229
260
56
135
128
90
228
110
92
106
182
40
7
253
64
141
188
156
189
221
144
261
74
53
199
164
173
42
119
180
62
83
94
217
245
60
68
165
137
265
31
63
26
183
99
256
127
41
174
120
32
195
15
23
20
130
36
29
16
87
49
151
8
69
193
34
129
149
176
244
2
70
235
59
100
172
50
25
115
138
84
17
236
134
33
97
132
227
243
194
76
242
175
12
117
14
108
82
249
204
198
112
73
203
251
58
179
111
4
163
96
207
105
240
91
18
35
192
5
169
52
143
45
103
54
27
28
116
226

> <PUBCHEM_MMFF94_PARTIAL_CHARGES>
33
1 -0.28
10 0.3
11 0.3
12 0.54
13 0.09
14 0.3
15 0.32
16 -0.15
17 -0.15
18 -0.14
19 0.16
2 -0.57
20 0.16
21 -0.15
22 -0.15
23 -0.15
24 -0.15
25 -0.15
3 -0.66
35 0.15
36 0.15
37 0.15
38 0.15
39 0.15
4 -0.34
40 0.15
41 0.15
42 0.15
43 0.15
5 -0.34
6 -0.62
7 0.18
9 0.3

> <PUBCHEM_EFFECTIVE_ROTOR_COUNT>
6

> <PUBCHEM_PHARMACOPHORE_FEATURES>
6
1 2 acceptor
1 6 acceptor
5 1 4 5 11 14 rings
5 3 7 8 9 10 rings
6 18 21 22 23 24 25 rings
6 6 13 16 17 19 20 rings

> <PUBCHEM_HEAVY_ATOM_COUNT>
25

> <PUBCHEM_ATOM_DEF_STEREO_COUNT>
1

> <PUBCHEM_ATOM_UDEF_STEREO_COUNT>
0

> <PUBCHEM_BOND_DEF_STEREO_COUNT>
0

> <PUBCHEM_BOND_UDEF_STEREO_COUNT>
0

> <PUBCHEM_ISOTOPIC_ATOM_COUNT>
0

> <PUBCHEM_COMPONENT_COUNT>
1

> <PUBCHEM_CACTVS_TAUTO_COUNT>
1

> <PUBCHEM_CONFORMER_ID>
030C4D2300000001

> <PUBCHEM_MMFF94_ENERGY>
57.9728

> <PUBCHEM_FEATURE_SELFOVERLAP>
30.449

> <PUBCHEM_SHAPE_FINGERPRINT>
10498660 4 17618778506491652534
10616163 171 18192432089492753304
10670039 82 17688600772401415636
10871710 139 17472985472034956901
11221954 11 18408602582298907787
11370993 70 18339346531030375689
11725454 13 17532910750452117735
12038231 1 17330839015448085264
12100795 323 18262514917665958853
12539773 59 15972465534038936079
12553582 1 17762629390785813768
128993 33 18053671544708647352
13122387 1 18340207384247331660
13402501 40 18264764355242135452
13583140 156 17967813821227464867
1361 2 18194670683015109717
13773456 30 18194940032661515549
14251751 93 18121789584526871148
14251764 3 17387948925332043045
14251764 38 18335695027571807645
14466204 15 18119799210603347394
14468879 13 18188483700688377737
14840074 17 17540831911238249161
151778 21 18339941384106484009
15210252 30 17829338977688948540
17093844 170 17762608500402775448
17921350 177 18042112198614239088
19930381 70 18412538795841469285
20567600 299 18128805361606493144
20621476 13 18266172833937402684
20764821 26 18266748986604707908
21860390 5 18128531570536843742
22749437 52 18341603824091226488
238 59 18341597218710931277
3052486 1 15812278101505549147
35225 105 18055347200144678316
469060 322 17254841291347851178
474 4 18267579109725987957
5081480 168 17629512733766352006
5252454 2 18126018292898172528
54672768 99 18335979783661218556

> <PUBCHEM_SHAPE_MULTIPOLES>
482.83
7.17
5.6
1.41
0.67
0.5
-0.24
-4.84
0.73
0.82
1.19
-0.74
-0.05
1.2

> <PUBCHEM_SHAPE_SELFOVERLAP>
1052.454

> <PUBCHEM_SHAPE_VOLUME>
261.8

> <PUBCHEM_COORDINATE_TYPE>
2
5
10

$$$$
