11913115
  -OEChem-12032416153D

 64 69  0     1  0  0  0  0  0999 V2000
   -7.4492    1.6445   -3.3712 F   0  0  0  0  0  0  0  0  0  0  0  0
   -0.8159    0.6913    2.2482 O   0  0  0  0  0  0  0  0  0  0  0  0
   -2.6173    2.1427    0.2329 O   0  0  0  0  0  0  0  0  0  0  0  0
    0.9440    2.0847    0.6167 O   0  0  0  0  0  0  0  0  0  0  0  0
    1.9902    0.7074   -0.8794 O   0  0  0  0  0  0  0  0  0  0  0  0
    8.4965    0.6775   -0.4107 O   0  0  0  0  0  0  0  0  0  0  0  0
   -3.3380   -1.0771    1.8263 N   0  0  0  0  0  0  0  0  0  0  0  0
   -5.3157   -0.9154    0.6200 N   0  0  0  0  0  0  0  0  0  0  0  0
   -4.4819   -3.0469    1.3741 N   0  0  0  0  0  0  0  0  0  0  0  0
    3.1964    1.9811    0.6707 N   0  0  0  0  0  0  0  0  0  0  0  0
   -2.4198    0.7387    0.5023 C   0  0  1  0  0  0  0  0  0  0  0  0
   -0.9499    0.5561    0.8240 C   0  0  1  0  0  0  0  0  0  0  0  0
   -3.1245    0.3536    1.7818 C   0  0  2  0  0  0  0  0  0  0  0  0
   -0.3086    1.7093    0.0902 C   0  0  1  0  0  0  0  0  0  0  0  0
   -2.1205    0.7698    2.8427 C   0  0  0  0  0  0  0  0  0  0  0  0
   -1.3424    2.8015    0.2473 C   0  0  0  0  0  0  0  0  0  0  0  0
   -4.4259   -1.7073    1.2482 C   0  0  0  0  0  0  0  0  0  0  0  0
    2.0594    1.5092    0.0440 C   0  0  0  0  0  0  0  0  0  0  0  0
   -6.3634   -1.5622    0.0685 C   0  0  0  0  0  0  0  0  0  0  0  0
   -5.5553   -3.6283    0.7993 C   0  0  0  0  0  0  0  0  0  0  0  0
   -6.5371   -2.9300    0.1268 C   0  0  0  0  0  0  0  0  0  0  0  0
    4.5428    1.6504    0.3955 C   0  0  0  0  0  0  0  0  0  0  0  0
   -7.3190   -0.7170   -0.6066 C   0  0  0  0  0  0  0  0  0  0  0  0
    4.8444    0.7418   -0.6190 C   0  0  0  0  0  0  0  0  0  0  0  0
    5.5697    2.2318    1.1391 C   0  0  0  0  0  0  0  0  0  0  0  0
   -6.9141    0.0710   -1.6840 C   0  0  0  0  0  0  0  0  0  0  0  0
   -8.6472   -0.6883   -0.1817 C   0  0  0  0  0  0  0  0  0  0  0  0
    6.1730    0.4146   -0.8899 C   0  0  0  0  0  0  0  0  0  0  0  0
    6.8983    1.9047    0.8681 C   0  0  0  0  0  0  0  0  0  0  0  0
    7.2000    0.9960   -0.1463 C   0  0  0  0  0  0  0  0  0  0  0  0
   -7.8376    0.8877   -2.3365 C   0  0  0  0  0  0  0  0  0  0  0  0
   -9.5707    0.1284   -0.8341 C   0  0  0  0  0  0  0  0  0  0  0  0
   -9.1659    0.9164   -1.9116 C   0  0  0  0  0  0  0  0  0  0  0  0
    8.8059   -0.6596   -0.5960 C   0  0  0  0  0  0  0  0  0  0  0  0
    8.2936   -1.6212    0.2748 C   0  0  0  0  0  0  0  0  0  0  0  0
    9.6299   -1.0447   -1.6535 C   0  0  0  0  0  0  0  0  0  0  0  0
    8.6051   -2.9679    0.0881 C   0  0  0  0  0  0  0  0  0  0  0  0
    9.9415   -2.3915   -1.8402 C   0  0  0  0  0  0  0  0  0  0  0  0
    9.4290   -3.3531   -0.9694 C   0  0  0  0  0  0  0  0  0  0  0  0
   -2.7361    0.1861   -0.3880 H   0  0  0  0  0  0  0  0  0  0  0  0
   -0.5482   -0.4219    0.5435 H   0  0  0  0  0  0  0  0  0  0  0  0
   -4.0639    0.8933    1.9484 H   0  0  0  0  0  0  0  0  0  0  0  0
   -0.2471    1.4712   -0.9807 H   0  0  0  0  0  0  0  0  0  0  0  0
   -2.2762    1.8130    3.1398 H   0  0  0  0  0  0  0  0  0  0  0  0
   -2.1447    0.1506    3.7449 H   0  0  0  0  0  0  0  0  0  0  0  0
   -1.2992    3.5355   -0.5629 H   0  0  0  0  0  0  0  0  0  0  0  0
   -1.2348    3.3435    1.1935 H   0  0  0  0  0  0  0  0  0  0  0  0
   -2.6381   -1.6720    2.2552 H   0  0  0  0  0  0  0  0  0  0  0  0
    3.0505    2.6492    1.4236 H   0  0  0  0  0  0  0  0  0  0  0  0
   -5.6050   -4.7076    0.8964 H   0  0  0  0  0  0  0  0  0  0  0  0
   -7.3791   -3.4412   -0.3234 H   0  0  0  0  0  0  0  0  0  0  0  0
    4.1034    0.2563   -1.2389 H   0  0  0  0  0  0  0  0  0  0  0  0
    5.3484    2.9410    1.9326 H   0  0  0  0  0  0  0  0  0  0  0  0
   -5.8838    0.0602   -2.0317 H   0  0  0  0  0  0  0  0  0  0  0  0
   -8.9824   -1.2904    0.6595 H   0  0  0  0  0  0  0  0  0  0  0  0
    6.3807   -0.2782   -1.7013 H   0  0  0  0  0  0  0  0  0  0  0  0
    7.6941    2.3604    1.4509 H   0  0  0  0  0  0  0  0  0  0  0  0
  -10.6047    0.1520   -0.5026 H   0  0  0  0  0  0  0  0  0  0  0  0
   -9.8845    1.5527   -2.4195 H   0  0  0  0  0  0  0  0  0  0  0  0
    7.6676   -1.3470    1.1198 H   0  0  0  0  0  0  0  0  0  0  0  0
   10.0314   -0.2999   -2.3349 H   0  0  0  0  0  0  0  0  0  0  0  0
    8.2103   -3.7163    0.7690 H   0  0  0  0  0  0  0  0  0  0  0  0
   10.5832   -2.6913   -2.6635 H   0  0  0  0  0  0  0  0  0  0  0  0
    9.6725   -4.4016   -1.1141 H   0  0  0  0  0  0  0  0  0  0  0  0
  1 31  1  0  0  0  0
  2 12  1  0  0  0  0
  2 15  1  0  0  0  0
  3 11  1  0  0  0  0
  3 16  1  0  0  0  0
  4 14  1  0  0  0  0
  4 18  1  0  0  0  0
  5 18  2  0  0  0  0
  6 30  1  0  0  0  0
  6 34  1  0  0  0  0
  7 13  1  0  0  0  0
  7 17  1  0  0  0  0
  7 48  1  0  0  0  0
  8 17  1  0  0  0  0
  8 19  2  0  0  0  0
  9 17  2  0  0  0  0
  9 20  1  0  0  0  0
 10 18  1  0  0  0  0
 10 22  1  0  0  0  0
 10 49  1  0  0  0  0
 11 12  1  0  0  0  0
 11 13  1  0  0  0  0
 11 40  1  0  0  0  0
 12 14  1  0  0  0  0
 12 41  1  0  0  0  0
 13 15  1  0  0  0  0
 13 42  1  0  0  0  0
 14 16  1  0  0  0  0
 14 43  1  0  0  0  0
 15 44  1  0  0  0  0
 15 45  1  0  0  0  0
 16 46  1  0  0  0  0
 16 47  1  0  0  0  0
 19 21  1  0  0  0  0
 19 23  1  0  0  0  0
 20 21  2  0  0  0  0
 20 50  1  0  0  0  0
 21 51  1  0  0  0  0
 22 24  2  0  0  0  0
 22 25  1  0  0  0  0
 23 26  2  0  0  0  0
 23 27  1  0  0  0  0
 24 28  1  0  0  0  0
 24 52  1  0  0  0  0
 25 29  2  0  0  0  0
 25 53  1  0  0  0  0
 26 31  1  0  0  0  0
 26 54  1  0  0  0  0
 27 32  2  0  0  0  0
 27 55  1  0  0  0  0
 28 30  2  0  0  0  0
 28 56  1  0  0  0  0
 29 30  1  0  0  0  0
 29 57  1  0  0  0  0
 31 33  2  0  0  0  0
 32 33  1  0  0  0  0
 32 58  1  0  0  0  0
 33 59  1  0  0  0  0
 34 35  2  0  0  0  0
 34 36  1  0  0  0  0
 35 37  1  0  0  0  0
 35 60  1  0  0  0  0
 36 38  2  0  0  0  0
 36 61  1  0  0  0  0
 37 39  2  0  0  0  0
 37 62  1  0  0  0  0
 38 39  1  0  0  0  0
 38 63  1  0  0  0  0
 39 64  1  0  0  0  0
M  END
> <PUBCHEM_COMPOUND_CID>
11913115

> <PUBCHEM_CONFORMER_RMSD>
1.2

> <PUBCHEM_CONFORMER_DIVERSEORDER>
1
147
89
49
34
75
83
130
109
20
149
117
48
134
80
21
50
119
68
61
86
98
108
99
154
60
106
101
42
121
22
19
104
156
92
25
2
56
91
36
23
124
62
78
155
138
45
105
81
140
85
90
59
71
97
94
103
54
136
87
17
38
18
24
35
29
70
93
44
145
40
131
63
152
46
111
139
4
58
146
13
142
123
125
53
79
11
150
26
43
157
96
132
67
88
28
135
127
57
100
30
39
8
47
82
129
128
72
84
112
95
74
7
41
76
116
148
6
122
118
151
69
32
110
15
55
126
143
120
102
65
77
113
33
52
37
144
64
115
16
66
10
51
107
137
114
73
5
14
31
153
3
141
133
12
27
9

> <PUBCHEM_MMFF94_PARTIAL_CHARGES>
55
1 -0.19
10 -0.55
11 0.28
12 0.28
13 0.37
14 0.28
15 0.28
16 0.28
17 0.72
18 0.78
19 0.31
2 -0.56
20 0.16
21 -0.15
22 0.12
24 -0.15
25 -0.15
26 -0.15
27 -0.15
28 -0.15
29 -0.15
3 -0.56
30 0.08
31 0.19
32 -0.15
33 -0.15
34 0.08
35 -0.15
36 -0.15
37 -0.15
38 -0.15
39 -0.15
4 -0.43
48 0.4
49 0.37
5 -0.57
50 0.15
51 0.15
52 0.15
53 0.15
54 0.15
55 0.15
56 0.15
57 0.15
58 0.15
59 0.15
6 -0.17
60 0.15
61 0.15
62 0.15
63 0.15
64 0.15
7 -0.87
8 -0.62
9 -0.62

> <PUBCHEM_EFFECTIVE_ROTOR_COUNT>
10.2

> <PUBCHEM_PHARMACOPHORE_FEATURES>
14
1 10 donor
1 2 acceptor
1 3 acceptor
1 5 acceptor
1 6 acceptor
1 7 donor
1 8 acceptor
4 7 8 9 17 cation
5 2 11 12 13 15 rings
5 3 11 12 14 16 rings
6 22 24 25 28 29 30 rings
6 23 26 27 31 32 33 rings
6 34 35 36 37 38 39 rings
6 8 9 17 19 20 21 rings

> <PUBCHEM_HEAVY_ATOM_COUNT>
39

> <PUBCHEM_ATOM_DEF_STEREO_COUNT>
4

> <PUBCHEM_ATOM_UDEF_STEREO_COUNT>
0

> <PUBCHEM_BOND_DEF_STEREO_COUNT>
0

> <PUBCHEM_BOND_UDEF_STEREO_COUNT>
0

> <PUBCHEM_ISOTOPIC_ATOM_COUNT>
0

> <PUBCHEM_COMPONENT_COUNT>
1

> <PUBCHEM_CACTVS_TAUTO_COUNT>
6

> <PUBCHEM_CONFORMER_ID>
00B5C79B00000001

> <PUBCHEM_MMFF94_ENERGY>
134.3076

> <PUBCHEM_FEATURE_SELFOVERLAP>
71.765

> <PUBCHEM_SHAPE_FINGERPRINT>
10677351 14 18186809097820418156
10930396 42 13614518541633278219
11135926 11 18271815644488142627
11181472 205 15647048236444359444
11408170 108 17988934352938465663
11534866 41 15051736366315471478
11672396 167 18340205190563353298
11828042 163 18262232219721269717
11828042 74 17458637751752840747
11966995 16 18259988150922043958
12013929 112 17821721728809260855
12120059 9 18058999704884338635
12728208 25 18202283615494272314
13740195 50 10952047849302627029
13782708 43 18409455748737856760
13811026 1 18411698794643041880
14279260 333 18201720653220632465
14294032 229 16878486948733590885
14919807 6 18040990718091418941
150020 25 18335417980521535230
15183329 4 14996827935949260905
15392192 104 15985108510275391748
15419008 91 18192975231389925753
15455200 90 17459186283896071597
16126227 98 9295290525671516176
16992610 120 17168143417346146061
1768 4 11097854098977923597
17852330 31 13542467532640065652
18603816 31 17489303144711362055
19841028 212 18412544328065445010
2026 5 18269840977001979363
212700 22 18272652338445726782
25025965 108 17632286865801354767
3711267 37 11746928781345548206
4339292 15 18272653420687321124
437795 160 13254791360849104021
44575985 123 17131556030436181353
4516262 110 18054789753221710912
4625314 4 18261111915280502932
474113 269 18131068229861668776
504579 68 16660648470969763752
5718773 13 18412552020314591498
5937810 71 12324249390543797058
6081469 158 18409729560701705180
6201320 221 18337106740958522442
9689198 14 8285936665271646393
9953998 17 10879727511542367983
9962374 69 16056874767026022072

> <PUBCHEM_SHAPE_MULTIPOLES>
746.06
40.22
3.57
2.11
34.4
2.54
0.43
25.26
23.55
3.44
-0.62
-4.12
-0.31
5.3

> <PUBCHEM_SHAPE_SELFOVERLAP>
1652.161

> <PUBCHEM_SHAPE_VOLUME>
399

> <PUBCHEM_COORDINATE_TYPE>
2
5
10

$$$$
