11912309
  -OEChem-12032416113D

 52 53  0     1  0  0  0  0  0999 V2000
   -6.7116    2.2723    0.2010 F   0  0  0  0  0  0  0  0  0  0  0  0
   -3.0144   -2.6977   -0.5306 O   0  0  0  0  0  0  0  0  0  0  0  0
    3.8513   -1.4581    0.7056 O   0  0  0  0  0  0  0  0  0  0  0  0
    7.0828    1.5526   -0.0256 O   0  0  0  0  0  0  0  0  0  0  0  0
   -1.4326   -1.2878    0.4609 N   0  0  0  0  0  0  0  0  0  0  0  0
    4.8827   -0.0895   -0.8643 N   0  0  0  0  0  0  0  0  0  0  0  0
    1.3100   -0.3863    0.2342 C   0  0  1  0  0  0  0  0  0  0  0  0
    0.1405    0.6292    0.2972 C   0  0  2  0  0  0  0  0  0  0  0  0
    0.8540   -1.7393   -0.3379 C   0  0  0  0  0  0  0  0  0  0  0  0
   -1.0543    0.0075    1.0435 C   0  0  0  0  0  0  0  0  0  0  0  0
   -0.3585   -2.2781    0.4164 C   0  0  0  0  0  0  0  0  0  0  0  0
   -0.3029    1.1542   -1.0741 C   0  0  0  0  0  0  0  0  0  0  0  0
    2.5231    0.1412   -0.5316 C   0  0  0  0  0  0  0  0  0  0  0  0
   -1.3749    2.2138   -0.9327 C   0  0  0  0  0  0  0  0  0  0  0  0
   -2.6952   -1.6172   -0.0372 C   0  0  0  0  0  0  0  0  0  0  0  0
    3.8003   -0.5718   -0.1430 C   0  0  0  0  0  0  0  0  0  0  0  0
   -3.7488   -0.5982    0.0252 C   0  0  0  0  0  0  0  0  0  0  0  0
    6.2288   -0.5874   -0.6960 C   0  0  0  0  0  0  0  0  0  0  0  0
   -4.1437   -0.0780    1.2578 C   0  0  0  0  0  0  0  0  0  0  0  0
   -4.3548   -0.1485   -1.1479 C   0  0  0  0  0  0  0  0  0  0  0  0
    6.9820    0.1902    0.3678 C   0  0  0  0  0  0  0  0  0  0  0  0
   -5.1446    0.8916    1.3173 C   0  0  0  0  0  0  0  0  0  0  0  0
   -5.3556    0.8210   -1.0885 C   0  0  0  0  0  0  0  0  0  0  0  0
   -5.7506    1.3411    0.1440 C   0  0  0  0  0  0  0  0  0  0  0  0
    7.7869    2.3231    0.9387 C   0  0  0  0  0  0  0  0  0  0  0  0
    1.6097   -0.5620    1.2779 H   0  0  0  0  0  0  0  0  0  0  0  0
    0.4857    1.4904    0.8866 H   0  0  0  0  0  0  0  0  0  0  0  0
    0.5988   -1.6294   -1.3992 H   0  0  0  0  0  0  0  0  0  0  0  0
    1.6601   -2.4791   -0.2843 H   0  0  0  0  0  0  0  0  0  0  0  0
   -1.8702    0.7191    1.1126 H   0  0  0  0  0  0  0  0  0  0  0  0
   -0.7597   -0.2014    2.0805 H   0  0  0  0  0  0  0  0  0  0  0  0
   -0.0900   -2.5173    1.4522 H   0  0  0  0  0  0  0  0  0  0  0  0
   -0.7033   -3.2048   -0.0532 H   0  0  0  0  0  0  0  0  0  0  0  0
   -0.6721    0.3474   -1.7162 H   0  0  0  0  0  0  0  0  0  0  0  0
    0.5493    1.6068   -1.5930 H   0  0  0  0  0  0  0  0  0  0  0  0
    2.6726    1.2043   -0.3039 H   0  0  0  0  0  0  0  0  0  0  0  0
    2.3811    0.0461   -1.6146 H   0  0  0  0  0  0  0  0  0  0  0  0
   -2.3387    1.8153   -0.6217 H   0  0  0  0  0  0  0  0  0  0  0  0
   -1.5387    2.6987   -1.9017 H   0  0  0  0  0  0  0  0  0  0  0  0
   -1.0763    2.9937   -0.2244 H   0  0  0  0  0  0  0  0  0  0  0  0
    4.7371    0.6568   -1.5381 H   0  0  0  0  0  0  0  0  0  0  0  0
    6.1912   -1.6498   -0.4343 H   0  0  0  0  0  0  0  0  0  0  0  0
    6.7229   -0.4807   -1.6672 H   0  0  0  0  0  0  0  0  0  0  0  0
   -3.6992   -0.4324    2.1845 H   0  0  0  0  0  0  0  0  0  0  0  0
   -4.0530   -0.5431   -2.1147 H   0  0  0  0  0  0  0  0  0  0  0  0
    7.9869   -0.2315    0.4843 H   0  0  0  0  0  0  0  0  0  0  0  0
    6.4584    0.1255    1.3291 H   0  0  0  0  0  0  0  0  0  0  0  0
   -5.4557    1.2934    2.2770 H   0  0  0  0  0  0  0  0  0  0  0  0
   -5.8267    1.1724   -2.0018 H   0  0  0  0  0  0  0  0  0  0  0  0
    7.2632    2.3069    1.8994 H   0  0  0  0  0  0  0  0  0  0  0  0
    8.8077    1.9477    1.0590 H   0  0  0  0  0  0  0  0  0  0  0  0
    7.8348    3.3566    0.5852 H   0  0  0  0  0  0  0  0  0  0  0  0
  1 24  1  0  0  0  0
  2 15  2  0  0  0  0
  3 16  2  0  0  0  0
  4 21  1  0  0  0  0
  4 25  1  0  0  0  0
  5 10  1  0  0  0  0
  5 11  1  0  0  0  0
  5 15  1  0  0  0  0
  6 16  1  0  0  0  0
  6 18  1  0  0  0  0
  6 41  1  0  0  0  0
  7  8  1  0  0  0  0
  7  9  1  0  0  0  0
  7 13  1  0  0  0  0
  7 26  1  0  0  0  0
  8 10  1  0  0  0  0
  8 12  1  0  0  0  0
  8 27  1  0  0  0  0
  9 11  1  0  0  0  0
  9 28  1  0  0  0  0
  9 29  1  0  0  0  0
 10 30  1  0  0  0  0
 10 31  1  0  0  0  0
 11 32  1  0  0  0  0
 11 33  1  0  0  0  0
 12 14  1  0  0  0  0
 12 34  1  0  0  0  0
 12 35  1  0  0  0  0
 13 16  1  0  0  0  0
 13 36  1  0  0  0  0
 13 37  1  0  0  0  0
 14 38  1  0  0  0  0
 14 39  1  0  0  0  0
 14 40  1  0  0  0  0
 15 17  1  0  0  0  0
 17 19  2  0  0  0  0
 17 20  1  0  0  0  0
 18 21  1  0  0  0  0
 18 42  1  0  0  0  0
 18 43  1  0  0  0  0
 19 22  1  0  0  0  0
 19 44  1  0  0  0  0
 20 23  2  0  0  0  0
 20 45  1  0  0  0  0
 21 46  1  0  0  0  0
 21 47  1  0  0  0  0
 22 24  2  0  0  0  0
 22 48  1  0  0  0  0
 23 24  1  0  0  0  0
 23 49  1  0  0  0  0
 25 50  1  0  0  0  0
 25 51  1  0  0  0  0
 25 52  1  0  0  0  0
M  END
> <PUBCHEM_COMPOUND_CID>
11912309

> <PUBCHEM_CONFORMER_RMSD>
1

> <PUBCHEM_CONFORMER_DIVERSEORDER>
1
126
86
64
127
32
84
115
112
124
67
81
68
69
121
105
130
123
39
20
125
58
72
33
40
61
22
90
91
79
110
44
136
94
26
42
128
71
135
96
100
14
70
78
47
10
137
87
46
117
37
23
15
85
75
83
50
18
113
62
114
49
92
51
89
111
73
134
45
66
109
54
16
60
119
36
118
28
63
6
82
74
30
38
53
88
122
140
52
55
103
57
120
80
138
59
35
24
34
11
9
129
41
116
8
102
132
17
4
93
99
25
101
56
97
48
107
12
29
95
7
104
21
108
131
106
139
43
2
133
65
141
27
13
31
98
76
3
19
5
77

> <PUBCHEM_MMFF94_PARTIAL_CHARGES>
25
1 -0.19
10 0.3
11 0.3
13 0.06
15 0.54
16 0.57
17 0.09
18 0.3
19 -0.15
2 -0.57
20 -0.15
21 0.28
22 -0.15
23 -0.15
24 0.19
25 0.28
3 -0.57
4 -0.56
41 0.37
44 0.15
45 0.15
48 0.15
49 0.15
5 -0.66
6 -0.73

> <PUBCHEM_EFFECTIVE_ROTOR_COUNT>
10.2

> <PUBCHEM_PHARMACOPHORE_FEATURES>
7
1 14 hydrophobe
1 2 acceptor
1 3 acceptor
1 4 acceptor
1 6 donor
6 17 19 20 22 23 24 rings
6 5 7 8 9 10 11 rings

> <PUBCHEM_HEAVY_ATOM_COUNT>
25

> <PUBCHEM_ATOM_DEF_STEREO_COUNT>
2

> <PUBCHEM_ATOM_UDEF_STEREO_COUNT>
0

> <PUBCHEM_BOND_DEF_STEREO_COUNT>
0

> <PUBCHEM_BOND_UDEF_STEREO_COUNT>
0

> <PUBCHEM_ISOTOPIC_ATOM_COUNT>
0

> <PUBCHEM_COMPONENT_COUNT>
1

> <PUBCHEM_CACTVS_TAUTO_COUNT>
2

> <PUBCHEM_CONFORMER_ID>
00B5C47500000001

> <PUBCHEM_MMFF94_ENERGY>
55.7116

> <PUBCHEM_FEATURE_SELFOVERLAP>
35.522

> <PUBCHEM_SHAPE_FINGERPRINT>
10066227 112 18343864424641145424
10835480 77 18272650182197427840
10906281 52 18261409835829278222
11315181 36 17203891872890591177
12236239 1 18186803582581230370
12616971 3 17167868603531720638
12788726 201 18188769440230185176
12838862 33 18187915163220193141
13288520 33 9295285032914720523
13668630 136 10952045645657369241
13782708 43 11458419155199536744
14251764 18 18187083974793516219
15048467 5 18413109437601062017
17093844 174 18261109703377249995
17980427 23 16128112103861902697
18335252 98 8358251541558380654
19489759 90 16630527302355061587
20281389 69 18260548913665816714
20511986 3 18410285926549434666
20621476 66 18408890628575516309
21130935 74 18334292089833187242
21150785 3 16630524055122441396
23402539 116 18260547835476330694
23559900 14 18059287759893151160
300161 21 18409166615074925474
3009799 131 17632857516561863800
328310 630 18059022782033809672
34934 24 18335421231986410331
350125 39 18335139791485437156
4340502 62 16081370739742512514
59755656 215 18270127794912244646
6328613 192 18342739624145671456
7226269 152 18343304747357689369

> <PUBCHEM_SHAPE_MULTIPOLES>
479.64
18.7
2.33
1.13
26.81
0.07
-0.04
-11.48
-1.94
-0.42
0
-0.66
-0.23
0.59

> <PUBCHEM_SHAPE_SELFOVERLAP>
981.861

> <PUBCHEM_SHAPE_VOLUME>
277

> <PUBCHEM_COORDINATE_TYPE>
2
5
10

$$$$
