75536892
  -OEChem-12032416333D

 38 40  0     1  0  0  0  0  0999 V2000
   -0.7946   -3.1803   -0.6896 O   0  0  0  0  0  0  0  0  0  0  0  0
   -1.7856    0.2934   -0.9826 O   0  0  0  0  0  0  0  0  0  0  0  0
    3.4641   -1.7293    1.0609 O   0  0  0  0  0  0  0  0  0  0  0  0
    1.2215   -1.1880    0.6479 N   0  0  0  0  0  0  0  0  0  0  0  0
    2.6189    1.4533    0.9179 N   0  0  0  0  0  0  0  0  0  0  0  0
   -5.2365    0.0668    0.2022 N   0  0  0  0  0  0  0  0  0  0  0  0
    4.4053    1.7135   -1.2286 N   0  0  0  0  0  0  0  0  0  0  0  0
   -1.0941   -0.7830   -0.3477 C   0  0  2  0  0  0  0  0  0  0  0  0
    0.2377   -0.2174    0.1535 C   0  0  0  0  0  0  0  0  0  0  0  0
    0.7433   -2.4992    1.0893 C   0  0  0  0  0  0  0  0  0  0  0  0
   -0.9241   -1.9242   -1.3484 C   0  0  0  0  0  0  0  0  0  0  0  0
    0.4795   -3.4146   -0.0994 C   0  0  0  0  0  0  0  0  0  0  0  0
    2.6027   -0.9350    0.6847 C   0  0  0  0  0  0  0  0  0  0  0  0
   -2.9803    0.6632   -0.4290 C   0  0  0  0  0  0  0  0  0  0  0  0
    3.0829    0.3835    0.2419 C   0  0  0  0  0  0  0  0  0  0  0  0
   -3.1783    1.9523    0.0529 C   0  0  0  0  0  0  0  0  0  0  0  0
   -4.0316   -0.2341   -0.3318 C   0  0  0  0  0  0  0  0  0  0  0  0
    3.9603    0.5114   -0.8125 C   0  0  0  0  0  0  0  0  0  0  0  0
   -4.4043    2.2998    0.6095 C   0  0  0  0  0  0  0  0  0  0  0  0
    3.0639    2.6554    0.5016 C   0  0  0  0  0  0  0  0  0  0  0  0
   -5.3919    1.3293    0.6601 C   0  0  0  0  0  0  0  0  0  0  0  0
    3.9412    2.7833   -0.5527 C   0  0  0  0  0  0  0  0  0  0  0  0
   -1.6546   -1.1520    0.5224 H   0  0  0  0  0  0  0  0  0  0  0  0
    0.6909    0.3756   -0.6497 H   0  0  0  0  0  0  0  0  0  0  0  0
    0.0408    0.4859    0.9726 H   0  0  0  0  0  0  0  0  0  0  0  0
   -0.1458   -2.3600    1.7130 H   0  0  0  0  0  0  0  0  0  0  0  0
    1.5122   -2.9602    1.7188 H   0  0  0  0  0  0  0  0  0  0  0  0
   -1.8181   -1.9958   -1.9780 H   0  0  0  0  0  0  0  0  0  0  0  0
   -0.0839   -1.7547   -2.0330 H   0  0  0  0  0  0  0  0  0  0  0  0
    1.2641   -3.3447   -0.8620 H   0  0  0  0  0  0  0  0  0  0  0  0
    0.4614   -4.4507    0.2550 H   0  0  0  0  0  0  0  0  0  0  0  0
   -2.3814    2.6885   -0.0024 H   0  0  0  0  0  0  0  0  0  0  0  0
   -3.9438   -1.2525   -0.6968 H   0  0  0  0  0  0  0  0  0  0  0  0
    4.3363   -0.3430   -1.3630 H   0  0  0  0  0  0  0  0  0  0  0  0
   -4.5810    3.2986    0.9916 H   0  0  0  0  0  0  0  0  0  0  0  0
    2.6911    3.5154    1.0440 H   0  0  0  0  0  0  0  0  0  0  0  0
   -6.3658    1.5498    1.0845 H   0  0  0  0  0  0  0  0  0  0  0  0
    4.2981    3.7497   -0.8866 H   0  0  0  0  0  0  0  0  0  0  0  0
  1 11  1  0  0  0  0
  1 12  1  0  0  0  0
  2  8  1  0  0  0  0
  2 14  1  0  0  0  0
  3 13  2  0  0  0  0
  4  9  1  0  0  0  0
  4 10  1  0  0  0  0
  4 13  1  0  0  0  0
  5 15  2  0  0  0  0
  5 20  1  0  0  0  0
  6 17  1  0  0  0  0
  6 21  2  0  0  0  0
  7 18  2  0  0  0  0
  7 22  1  0  0  0  0
  8  9  1  0  0  0  0
  8 11  1  0  0  0  0
  8 23  1  0  0  0  0
  9 24  1  0  0  0  0
  9 25  1  0  0  0  0
 10 12  1  0  0  0  0
 10 26  1  0  0  0  0
 10 27  1  0  0  0  0
 11 28  1  0  0  0  0
 11 29  1  0  0  0  0
 12 30  1  0  0  0  0
 12 31  1  0  0  0  0
 13 15  1  0  0  0  0
 14 16  1  0  0  0  0
 14 17  2  0  0  0  0
 15 18  1  0  0  0  0
 16 19  2  0  0  0  0
 16 32  1  0  0  0  0
 17 33  1  0  0  0  0
 18 34  1  0  0  0  0
 19 21  1  0  0  0  0
 19 35  1  0  0  0  0
 20 22  2  0  0  0  0
 20 36  1  0  0  0  0
 21 37  1  0  0  0  0
 22 38  1  0  0  0  0
M  END
> <PUBCHEM_COMPOUND_CID>
75536892

> <PUBCHEM_CONFORMER_RMSD>
1

> <PUBCHEM_CONFORMER_DIVERSEORDER>
1
24
136
33
59
108
137
133
103
51
75
101
4
39
91
85
43
71
54
123
117
107
80
94
122
56
50
88
95
120
68
127
11
58
106
41
72
116
18
26
35
60
62
125
32
36
96
53
52
27
31
57
69
105
23
45
129
86
9
22
84
74
130
38
121
64
28
124
46
111
12
40
66
134
73
3
78
131
98
13
70
89
37
92
77
48
47
126
135
55
114
14
102
132
118
83
42
63
30
44
10
34
115
67
113
29
112
81
100
110
19
7
99
2
138
82
21
5
79
76
93
20
49
8
87
65
90
128
6
17
119
16
97
61
109
104
15
25
139

> <PUBCHEM_MMFF94_PARTIAL_CHARGES>
29
1 -0.56
10 0.3
11 0.28
12 0.28
13 0.54
14 0.08
15 0.4
16 -0.15
17 0.16
18 0.16
19 -0.15
2 -0.36
20 0.16
21 0.16
22 0.16
3 -0.57
32 0.15
33 0.15
34 0.15
35 0.15
36 0.15
37 0.15
38 0.15
4 -0.66
5 -0.62
6 -0.62
7 -0.62
8 0.28
9 0.3

> <PUBCHEM_EFFECTIVE_ROTOR_COUNT>
5.4

> <PUBCHEM_PHARMACOPHORE_FEATURES>
9
1 1 acceptor
1 2 acceptor
1 3 acceptor
1 5 acceptor
1 6 acceptor
1 7 acceptor
6 5 7 15 18 20 22 rings
6 6 14 16 17 19 21 rings
7 1 4 8 9 10 11 12 rings

> <PUBCHEM_HEAVY_ATOM_COUNT>
22

> <PUBCHEM_ATOM_DEF_STEREO_COUNT>
1

> <PUBCHEM_ATOM_UDEF_STEREO_COUNT>
0

> <PUBCHEM_BOND_DEF_STEREO_COUNT>
0

> <PUBCHEM_BOND_UDEF_STEREO_COUNT>
0

> <PUBCHEM_ISOTOPIC_ATOM_COUNT>
0

> <PUBCHEM_COMPONENT_COUNT>
1

> <PUBCHEM_CACTVS_TAUTO_COUNT>
1

> <PUBCHEM_CONFORMER_ID>
048099FC00000001

> <PUBCHEM_MMFF94_ENERGY>
78.2881

> <PUBCHEM_FEATURE_SELFOVERLAP>
45.68

> <PUBCHEM_SHAPE_FINGERPRINT>
10493431 412 18336546139301990549
12173636 292 18269826674269513463
12403259 118 18264755576703379473
12633257 1 17896031053683155723
12788726 201 17542503185928788114
128238 76 18341610490766914079
13583140 156 17315333857376821395
14123250 116 18194111043821707228
14251764 75 18339092578294178065
14528608 73 18411978074986695741
1454969 45 18270400607572798303
14790565 3 18412269449647115877
14955137 171 18192423070578604730
151778 21 18410571751773751460
15342168 16 17968379056071436148
15475509 8 18198348360605688422
17980427 23 18055599989979057746
18785283 64 18264208019660052334
20465049 17 18338813225452752718
20567600 9 18198916803009884981
20626108 58 8790594871527553525
20739085 24 18114466660601853572
21285901 2 12895064085733904371
21524375 3 18334570239813678554
21709351 56 18265322911633735287
21756936 100 18269833271608149332
21864079 5 18342731931716689261
22182937 141 18192151709800833128
22620623 9 17058924661908596519
23558518 356 17831858319605318948
23559900 14 17982726369097186979
23845131 108 18186799210135906771
25147074 1 18263062462067489922
2637199 183 18412832373666573068
38570 142 18041858302123670260
394222 165 18335415733995606115
469060 322 16299776758373324847
474 4 18408602539518039953
5048184 11 18337389456336294828
5252454 2 18261386810573155028
5312544 6 18410005538003972295
57527585 21 17192616617160772020
633830 44 18343863294980026135
6438754 60 11167670841264033061
6442390 28 18261680371134084338
7808743 9 18193556894541800384
8988823 20 12973888164597312103
960060 61 12103562017559463088
9999458 23 18261675865950943046

> <PUBCHEM_SHAPE_MULTIPOLES>
415.22
10.33
3.76
1.08
7.42
1.44
-0.08
-9
0.39
-1.9
0.04
-0.44
0.19
-1.49

> <PUBCHEM_SHAPE_SELFOVERLAP>
884.588

> <PUBCHEM_SHAPE_VOLUME>
225.6

> <PUBCHEM_COORDINATE_TYPE>
2
5
10

$$$$
