75537114
  -OEChem-12032416333D

 33 35  0     1  0  0  0  0  0999 V2000
   -4.2293    0.5987    1.2185 S   0  0  0  0  0  0  0  0  0  0  0  0
    3.7880    1.9315   -0.0209 O   0  0  0  0  0  0  0  0  0  0  0  0
    1.8980    0.5568   -0.2597 N   0  0  0  0  0  0  0  0  0  0  0  0
   -0.7142   -0.4068    0.1389 N   0  0  2  0  0  0  0  0  0  0  0  0
    3.9087   -0.4239   -0.0616 N   0  0  0  0  0  0  0  0  0  0  0  0
   -3.5548   -0.6547   -0.9393 N   0  0  0  0  0  0  0  0  0  0  0  0
    1.6339   -0.8544   -0.4476 C   0  0  2  0  0  0  0  0  0  0  0  0
    0.4402   -1.2898    0.4019 C   0  0  0  0  0  0  0  0  0  0  0  0
    2.9584   -1.5226   -0.0840 C   0  0  0  0  0  0  0  0  0  0  0  0
    0.8033    1.5007   -0.3482 C   0  0  0  0  0  0  0  0  0  0  0  0
   -0.3897    0.9961    0.4675 C   0  0  0  0  0  0  0  0  0  0  0  0
    3.2642    0.8288   -0.1077 C   0  0  0  0  0  0  0  0  0  0  0  0
   -1.8800   -0.8520    0.9019 C   0  0  0  0  0  0  0  0  0  0  0  0
    5.3246   -0.6391    0.1393 C   0  0  0  0  0  0  0  0  0  0  0  0
   -3.1686   -0.3759    0.2858 C   0  0  0  0  0  0  0  0  0  0  0  0
   -5.3036    0.6643   -0.1168 C   0  0  0  0  0  0  0  0  0  0  0  0
   -4.7791   -0.0578   -1.1682 C   0  0  0  0  0  0  0  0  0  0  0  0
    1.4193   -1.0009   -1.5144 H   0  0  0  0  0  0  0  0  0  0  0  0
    0.1937   -2.3276    0.1465 H   0  0  0  0  0  0  0  0  0  0  0  0
    0.6974   -1.2639    1.4695 H   0  0  0  0  0  0  0  0  0  0  0  0
    2.9442   -1.9826    0.9095 H   0  0  0  0  0  0  0  0  0  0  0  0
    3.2623   -2.2654   -0.8275 H   0  0  0  0  0  0  0  0  0  0  0  0
    0.5357    1.5902   -1.4073 H   0  0  0  0  0  0  0  0  0  0  0  0
    1.1366    2.4828    0.0017 H   0  0  0  0  0  0  0  0  0  0  0  0
   -0.1589    1.0911    1.5372 H   0  0  0  0  0  0  0  0  0  0  0  0
   -1.2412    1.6528    0.2563 H   0  0  0  0  0  0  0  0  0  0  0  0
   -1.7980   -0.5789    1.9621 H   0  0  0  0  0  0  0  0  0  0  0  0
   -1.9406   -1.9493    0.8797 H   0  0  0  0  0  0  0  0  0  0  0  0
    5.4731   -1.1110    1.1142 H   0  0  0  0  0  0  0  0  0  0  0  0
    5.8602    0.3131    0.1116 H   0  0  0  0  0  0  0  0  0  0  0  0
    5.6981   -1.2956   -0.6507 H   0  0  0  0  0  0  0  0  0  0  0  0
   -6.2359    1.2085   -0.0708 H   0  0  0  0  0  0  0  0  0  0  0  0
   -5.2536   -0.1812   -2.1323 H   0  0  0  0  0  0  0  0  0  0  0  0
  1 15  1  0  0  0  0
  1 16  1  0  0  0  0
  2 12  2  0  0  0  0
  3  7  1  0  0  0  0
  3 10  1  0  0  0  0
  3 12  1  0  0  0  0
  4  8  1  0  0  0  0
  4 11  1  0  0  0  0
  4 13  1  0  0  0  0
  5  9  1  0  0  0  0
  5 12  1  0  0  0  0
  5 14  1  0  0  0  0
  6 15  2  0  0  0  0
  6 17  1  0  0  0  0
  7  8  1  0  0  0  0
  7  9  1  0  0  0  0
  7 18  1  0  0  0  0
  8 19  1  0  0  0  0
  8 20  1  0  0  0  0
  9 21  1  0  0  0  0
  9 22  1  0  0  0  0
 10 11  1  0  0  0  0
 10 23  1  0  0  0  0
 10 24  1  0  0  0  0
 11 25  1  0  0  0  0
 11 26  1  0  0  0  0
 13 15  1  0  0  0  0
 13 27  1  0  0  0  0
 13 28  1  0  0  0  0
 14 29  1  0  0  0  0
 14 30  1  0  0  0  0
 14 31  1  0  0  0  0
 16 17  2  0  0  0  0
 16 32  1  0  0  0  0
 17 33  1  0  0  0  0
M  END
> <PUBCHEM_COMPOUND_CID>
75537114

> <PUBCHEM_CONFORMER_RMSD>
0.6

> <PUBCHEM_CONFORMER_DIVERSEORDER>
2
22
13
23
1
24
9
25
7
21
17
14
8
18
6
3
12
16
5
11
10
20
19
15
4

> <PUBCHEM_MMFF94_PARTIAL_CHARGES>
19
1 -0.08
10 0.3
11 0.27
12 0.69
13 0.45
14 0.3
15 0.2
16 -0.11
17 0.08
2 -0.57
3 -0.66
32 0.15
33 0.15
4 -0.81
5 -0.66
6 -0.57
7 0.3
8 0.27
9 0.3

> <PUBCHEM_EFFECTIVE_ROTOR_COUNT>
3.2

> <PUBCHEM_PHARMACOPHORE_FEATURES>
6
1 2 acceptor
1 4 cation
1 6 acceptor
5 1 6 15 16 17 rings
5 3 5 7 9 12 rings
6 3 4 7 8 10 11 rings

> <PUBCHEM_HEAVY_ATOM_COUNT>
17

> <PUBCHEM_ATOM_DEF_STEREO_COUNT>
1

> <PUBCHEM_ATOM_UDEF_STEREO_COUNT>
0

> <PUBCHEM_BOND_DEF_STEREO_COUNT>
0

> <PUBCHEM_BOND_UDEF_STEREO_COUNT>
0

> <PUBCHEM_ISOTOPIC_ATOM_COUNT>
0

> <PUBCHEM_COMPONENT_COUNT>
1

> <PUBCHEM_CACTVS_TAUTO_COUNT>
1

> <PUBCHEM_CONFORMER_ID>
04809ADA00000002

> <PUBCHEM_MMFF94_ENERGY>
29.4439

> <PUBCHEM_FEATURE_SELFOVERLAP>
30.542

> <PUBCHEM_SHAPE_FINGERPRINT>
11089746 13 18060416928449356280
11401426 45 18342736316799092771
11471102 20 18409730677292676284
11543360 7 16702024218245035673
12011746 2 18408892819837220422
12236239 1 17846777399276689335
124424 183 18040719173100169259
12815109 37 18412824668368708402
13675066 3 17531253884780380875
13760787 5 18411425020041695321
14251717 144 18342457036608809590
14341114 176 8790610342342235781
15196674 1 18337112366309878539
15375358 24 18333733537018194251
15788980 27 17385724707587257467
17834072 33 18131347544580443567
17834072 8 18187083944617741567
18186145 218 18040438789076884731
19489759 90 16415480424379680235
200 152 18131631170919096467
20612939 158 18409168830808532436
20645477 56 17603304856358754151
20645477 70 18411704270310061150
21267235 1 18339934743944307442
21452121 103 18342166822022706368
231179 274 17603578634590338681
23402539 116 18131348587803906653
23402655 69 18342740731988406991
23557571 272 14548744962924633451
23559900 14 18334860554339200800
26918003 58 18261114071100598666
29717793 49 17632861901665639301
300161 21 17632011966635195259
34797466 226 15554449651432146809
34934 24 18408599297060597394
3545911 37 18260270750520471467
4072396 5 18261098648363831138
5104073 3 18336549416393368411
542803 24 17988929968092867193
602551 16 15123215676211547357
633830 44 16732983175500927630
69090 78 18413387644049936903
9971528 1 18410291423912427308
9981440 41 17334479992580115577

> <PUBCHEM_SHAPE_MULTIPOLES>
327.91
11.36
1.49
0.94
2.85
0.3
-0.02
0.57
0.84
-1.24
-0.02
1.11
-0.03
-0.28

> <PUBCHEM_SHAPE_SELFOVERLAP>
675.935

> <PUBCHEM_SHAPE_VOLUME>
192.1

> <PUBCHEM_COORDINATE_TYPE>
2
5
10

$$$$
