86768986
  -OEChem-12032416413D

 58 61  0     1  0  0  0  0  0999 V2000
    0.3728   -3.9889   -1.4703 O   0  0  0  0  0  0  0  0  0  0  0  0
    1.2868   -5.1852    0.8564 O   0  0  0  0  0  0  0  0  0  0  0  0
   -7.0205    2.4010   -0.3117 O   0  0  0  0  0  0  0  0  0  0  0  0
    5.6722    2.5449    1.6444 O   0  0  0  0  0  0  0  0  0  0  0  0
    2.3659   -1.0798   -0.6296 N   0  0  0  0  0  0  0  0  0  0  0  0
   -2.4995    0.8570    1.0096 N   0  0  0  0  0  0  0  0  0  0  0  0
   -4.6674    0.9103    0.0620 N   0  0  0  0  0  0  0  0  0  0  0  0
    0.3266   -1.6465    0.6463 C   0  0  2  0  0  0  0  0  0  0  0  0
    1.1167   -1.8421   -0.6846 C   0  0  2  0  0  0  0  0  0  0  0  0
    1.4244   -3.3465   -0.7512 C   0  0  1  0  0  0  0  0  0  0  0  0
    0.2327   -3.0439    1.2891 C   0  0  0  0  0  0  0  0  0  0  0  0
    1.4276   -3.7869    0.7095 C   0  0  1  0  0  0  0  0  0  0  0  0
   -1.0205   -0.9784    0.4723 C   0  0  0  0  0  0  0  0  0  0  0  0
    2.1275    0.3290   -0.9095 C   0  0  0  0  0  0  0  0  0  0  0  0
   -1.9994   -1.5388   -0.3409 C   0  0  0  0  0  0  0  0  0  0  0  0
   -1.3176    0.2099    1.1198 C   0  0  0  0  0  0  0  0  0  0  0  0
   -3.2281   -0.9025   -0.4795 C   0  0  0  0  0  0  0  0  0  0  0  0
    3.3976    1.1352   -0.8502 C   0  0  0  0  0  0  0  0  0  0  0  0
   -3.4264    0.2824    0.2106 C   0  0  0  0  0  0  0  0  0  0  0  0
   -5.0776    1.3252   -1.2866 C   0  0  0  0  0  0  0  0  0  0  0  0
   -5.2144    1.7182    1.1574 C   0  0  0  0  0  0  0  0  0  0  0  0
    3.9540    1.4701    0.3843 C   0  0  0  0  0  0  0  0  0  0  0  0
    4.0177    1.5479   -2.0297 C   0  0  0  0  0  0  0  0  0  0  0  0
   -6.5911    1.5011   -1.3332 C   0  0  0  0  0  0  0  0  0  0  0  0
   -6.7208    1.8740    0.9802 C   0  0  0  0  0  0  0  0  0  0  0  0
    5.1304    2.2175    0.4396 C   0  0  0  0  0  0  0  0  0  0  0  0
    5.1940    2.2955   -1.9745 C   0  0  0  0  0  0  0  0  0  0  0  0
    5.7505    2.6302   -0.7398 C   0  0  0  0  0  0  0  0  0  0  0  0
    4.9857    2.0902    2.8098 C   0  0  0  0  0  0  0  0  0  0  0  0
    0.9208   -1.0306    1.3376 H   0  0  0  0  0  0  0  0  0  0  0  0
    0.5364   -1.5454   -1.5674 H   0  0  0  0  0  0  0  0  0  0  0  0
    2.3622   -3.6008   -1.2560 H   0  0  0  0  0  0  0  0  0  0  0  0
    0.2812   -2.9931    2.3827 H   0  0  0  0  0  0  0  0  0  0  0  0
   -0.7006   -3.5678    1.0490 H   0  0  0  0  0  0  0  0  0  0  0  0
    2.3538   -3.4696    1.2035 H   0  0  0  0  0  0  0  0  0  0  0  0
    3.0124   -1.4455   -1.3293 H   0  0  0  0  0  0  0  0  0  0  0  0
    0.4054   -3.6646   -2.3865 H   0  0  0  0  0  0  0  0  0  0  0  0
    1.4236    0.7669   -0.1921 H   0  0  0  0  0  0  0  0  0  0  0  0
    1.6685    0.4492   -1.8996 H   0  0  0  0  0  0  0  0  0  0  0  0
    1.2062   -5.3726    1.8071 H   0  0  0  0  0  0  0  0  0  0  0  0
   -1.8268   -2.4703   -0.8709 H   0  0  0  0  0  0  0  0  0  0  0  0
   -0.5970    0.6983    1.7684 H   0  0  0  0  0  0  0  0  0  0  0  0
   -3.9965   -1.3513   -1.1005 H   0  0  0  0  0  0  0  0  0  0  0  0
   -4.7849    0.6034   -2.0565 H   0  0  0  0  0  0  0  0  0  0  0  0
   -4.5869    2.2785   -1.5196 H   0  0  0  0  0  0  0  0  0  0  0  0
   -4.7341    2.7042    1.1457 H   0  0  0  0  0  0  0  0  0  0  0  0
   -5.0155    1.2492    2.1281 H   0  0  0  0  0  0  0  0  0  0  0  0
    3.4289    1.1237    1.2686 H   0  0  0  0  0  0  0  0  0  0  0  0
    3.5967    1.2926   -2.9985 H   0  0  0  0  0  0  0  0  0  0  0  0
   -7.1089    0.5415   -1.2154 H   0  0  0  0  0  0  0  0  0  0  0  0
   -6.8884    1.9224   -2.2987 H   0  0  0  0  0  0  0  0  0  0  0  0
   -7.1144    2.5700    1.7278 H   0  0  0  0  0  0  0  0  0  0  0  0
   -7.2395    0.9167    1.1123 H   0  0  0  0  0  0  0  0  0  0  0  0
    5.6771    2.6166   -2.8927 H   0  0  0  0  0  0  0  0  0  0  0  0
    6.6670    3.2127   -0.7032 H   0  0  0  0  0  0  0  0  0  0  0  0
    5.5557    2.4395    3.6770 H   0  0  0  0  0  0  0  0  0  0  0  0
    4.9628    0.9964    2.8628 H   0  0  0  0  0  0  0  0  0  0  0  0
    3.9862    2.5315    2.8863 H   0  0  0  0  0  0  0  0  0  0  0  0
  1 10  1  0  0  0  0
  1 37  1  0  0  0  0
  2 12  1  0  0  0  0
  2 40  1  0  0  0  0
  3 24  1  0  0  0  0
  3 25  1  0  0  0  0
  4 26  1  0  0  0  0
  4 29  1  0  0  0  0
  5  9  1  0  0  0  0
  5 14  1  0  0  0  0
  5 36  1  0  0  0  0
  6 16  1  0  0  0  0
  6 19  2  0  0  0  0
  7 19  1  0  0  0  0
  7 20  1  0  0  0  0
  7 21  1  0  0  0  0
  8  9  1  0  0  0  0
  8 11  1  0  0  0  0
  8 13  1  0  0  0  0
  8 30  1  0  0  0  0
  9 10  1  0  0  0  0
  9 31  1  0  0  0  0
 10 12  1  0  0  0  0
 10 32  1  0  0  0  0
 11 12  1  0  0  0  0
 11 33  1  0  0  0  0
 11 34  1  0  0  0  0
 12 35  1  0  0  0  0
 13 15  1  0  0  0  0
 13 16  2  0  0  0  0
 14 18  1  0  0  0  0
 14 38  1  0  0  0  0
 14 39  1  0  0  0  0
 15 17  2  0  0  0  0
 15 41  1  0  0  0  0
 16 42  1  0  0  0  0
 17 19  1  0  0  0  0
 17 43  1  0  0  0  0
 18 22  2  0  0  0  0
 18 23  1  0  0  0  0
 20 24  1  0  0  0  0
 20 44  1  0  0  0  0
 20 45  1  0  0  0  0
 21 25  1  0  0  0  0
 21 46  1  0  0  0  0
 21 47  1  0  0  0  0
 22 26  1  0  0  0  0
 22 48  1  0  0  0  0
 23 27  2  0  0  0  0
 23 49  1  0  0  0  0
 24 50  1  0  0  0  0
 24 51  1  0  0  0  0
 25 52  1  0  0  0  0
 25 53  1  0  0  0  0
 26 28  2  0  0  0  0
 27 28  1  0  0  0  0
 27 54  1  0  0  0  0
 28 55  1  0  0  0  0
 29 56  1  0  0  0  0
 29 57  1  0  0  0  0
 29 58  1  0  0  0  0
M  END
> <PUBCHEM_COMPOUND_CID>
86768986

> <PUBCHEM_CONFORMER_RMSD>
1

> <PUBCHEM_CONFORMER_DIVERSEORDER>
4
40
79
30
48
18
63
59
78
75
64
55
85
57
22
37
46
76
51
65
89
34
27
81
50
43
56
67
86
39
25
71
88
70
24
10
93
74
82
26
72
11
42
13
84
68
52
44
47
73
8
41
87
19
3
62
28
60
66
58
12
53
90
49
61
7
9
69
91
38
83
94
29
33
54
31
32
14
21
23
77
6
36
35
80
17
45
16
92
15
1
20
2
5

> <PUBCHEM_MMFF94_PARTIAL_CHARGES>
38
1 -0.68
10 0.28
12 0.28
13 -0.14
14 0.41
15 -0.15
16 0.16
17 -0.15
18 -0.14
19 0.41
2 -0.68
20 0.37
21 0.37
22 -0.15
23 -0.15
24 0.28
25 0.28
26 0.08
27 -0.15
28 -0.15
29 0.28
3 -0.56
36 0.36
37 0.4
4 -0.36
40 0.4
41 0.15
42 0.15
43 0.15
48 0.15
49 0.15
5 -0.9
54 0.15
55 0.15
6 -0.62
7 -0.84
8 0.14
9 0.27

> <PUBCHEM_EFFECTIVE_ROTOR_COUNT>
8.2

> <PUBCHEM_PHARMACOPHORE_FEATURES>
13
1 1 acceptor
1 1 donor
1 2 acceptor
1 2 donor
1 3 acceptor
1 4 acceptor
1 5 cation
1 5 donor
3 6 7 19 cation
5 8 9 10 11 12 rings
6 18 22 23 26 27 28 rings
6 3 7 20 21 24 25 rings
6 6 13 15 16 17 19 rings

> <PUBCHEM_HEAVY_ATOM_COUNT>
29

> <PUBCHEM_ATOM_DEF_STEREO_COUNT>
4

> <PUBCHEM_ATOM_UDEF_STEREO_COUNT>
0

> <PUBCHEM_BOND_DEF_STEREO_COUNT>
0

> <PUBCHEM_BOND_UDEF_STEREO_COUNT>
0

> <PUBCHEM_ISOTOPIC_ATOM_COUNT>
0

> <PUBCHEM_COMPONENT_COUNT>
1

> <PUBCHEM_CACTVS_TAUTO_COUNT>
1

> <PUBCHEM_CONFORMER_ID>
052BFD5A00000004

> <PUBCHEM_MMFF94_ENERGY>
103.3833

> <PUBCHEM_FEATURE_SELFOVERLAP>
65.981

> <PUBCHEM_SHAPE_FINGERPRINT>
10319926 262 14129331846157901021
105312 117 18264496255183630542
10692045 39 17023174999024543392
10721379 63 18126014766777481934
10764073 3 15143454262564696286
11135609 127 18266445513623197789
11331351 85 17047404696158191538
12107183 9 18187353386135111312
12293681 160 17988935486830638944
12422481 6 17603854581707094300
12788726 201 17466793006059277626
13150687 139 18060426807048236990
13540713 4 18117304543342839507
13673619 4 11600006544415331273
13955234 65 18189901898805588875
14294032 229 18193852658742693131
14461889 52 18040731272772070611
15439362 3 18408329869862823582
16120349 189 18261957461133757140
20554085 129 18341884212541594400
21033648 29 18338802337710851900
21049683 118 18270944843836558482
21304303 282 18125704923774364430
23522609 53 17844544210685757873
23559900 14 18198905803804764443
23929065 36 17838601607027934874
2748736 6 18408881866996012613
2838139 119 18060702775281190156
3411729 13 18259987037649300915
3459 39 18338508750783961192
376196 1 18272374213142372934
3862424 121 13829265343672708765
4015057 19 16629697287362104504
42767 28 16773804709425185548
474 4 18335427841540002762
5219985 13 18335706086875101260
5385378 56 18335989670723133785
57091435 61 18410578361945217569
57124632 79 18334295318914688090
6695519 79 18122095132964368075
6697151 62 17392459019256607963
67856867 119 18339356353905509267
77188 2 17613999586661031422
9849439 229 18337391646853868896
9981440 41 18335140950588667402

> <PUBCHEM_SHAPE_MULTIPOLES>
558.39
16.08
5.18
1.87
14.14
7.49
0.42
-24.64
-0.34
-3.72
0.41
-2.24
-1.03
0.18

> <PUBCHEM_SHAPE_SELFOVERLAP>
1188.619

> <PUBCHEM_SHAPE_VOLUME>
310.8

> <PUBCHEM_COORDINATE_TYPE>
2
5
10

$$$$
