40777675
  -OEChem-12032416183D

 65 68  0     1  0  0  0  0  0999 V2000
    9.2637   -0.7202    0.2704 F   0  0  0  0  0  0  0  0  0  0  0  0
    8.4489   -2.3701   -0.8880 F   0  0  0  0  0  0  0  0  0  0  0  0
    8.3786   -2.4208    1.2846 F   0  0  0  0  0  0  0  0  0  0  0  0
   -4.9069    1.2558    1.3117 O   0  0  0  0  0  0  0  0  0  0  0  0
   -3.1450   -2.2350   -0.0332 O   0  0  0  0  0  0  0  0  0  0  0  0
   -4.8562   -3.3575   -1.0295 O   0  0  0  0  0  0  0  0  0  0  0  0
   -3.6658    1.3626   -0.6502 N   0  0  0  0  0  0  0  0  0  0  0  0
    3.1400    0.9431    0.0498 N   0  0  0  0  0  0  0  0  0  0  0  0
    2.9691    2.1331    0.6506 N   0  0  0  0  0  0  0  0  0  0  0  0
   -6.3373   -1.0046    0.2634 C   0  0  0  0  0  0  0  0  0  0  0  0
   -7.3513   -1.8472   -0.5435 C   0  0  0  0  0  0  0  0  0  0  0  0
   -7.1747   -0.3013    1.3584 C   0  0  0  0  0  0  0  0  0  0  0  0
   -8.7177   -1.2898   -0.1715 C   0  0  0  0  0  0  0  0  0  0  0  0
   -8.5549   -0.9435    1.2966 C   0  0  0  0  0  0  0  0  0  0  0  0
   -5.6566    0.0350   -0.6378 C   0  0  0  0  0  0  0  0  0  0  0  0
   -5.2648   -1.9065    0.8865 C   0  0  0  0  0  0  0  0  0  0  0  0
   -4.7270    0.9424    0.1380 C   0  0  0  0  0  0  0  0  0  0  0  0
   -2.5993    2.2602   -0.1570 C   0  0  1  0  0  0  0  0  0  0  0  0
   -1.4126    1.4488    0.3735 C   0  0  0  0  0  0  0  0  0  0  0  0
   -4.4479   -2.5926   -0.1688 C   0  0  0  0  0  0  0  0  0  0  0  0
   -0.4007    1.3690   -0.7887 C   0  0  1  0  0  0  0  0  0  0  0  0
   -2.0118    3.0004   -1.3120 C   0  0  0  0  0  0  0  0  0  0  0  0
   -0.8116    2.5228   -1.6567 C   0  0  0  0  0  0  0  0  0  0  0  0
    1.0396    1.4056   -0.3317 C   0  0  0  0  0  0  0  0  0  0  0  0
    2.0145    0.4639   -0.5536 C   0  0  0  0  0  0  0  0  0  0  0  0
    1.6843    2.4105    0.4142 C   0  0  0  0  0  0  0  0  0  0  0  0
    1.9673   -0.8238   -1.2759 C   0  0  0  0  0  0  0  0  0  0  0  0
    1.1079    3.6660    0.9270 C   0  0  0  0  0  0  0  0  0  0  0  0
    4.3887    0.3217    0.0871 C   0  0  0  0  0  0  0  0  0  0  0  0
    4.7869   -0.5091   -0.9603 C   0  0  0  0  0  0  0  0  0  0  0  0
    5.2373    0.5287    1.1746 C   0  0  0  0  0  0  0  0  0  0  0  0
    6.0337   -1.1329   -0.9201 C   0  0  0  0  0  0  0  0  0  0  0  0
    6.4843   -0.0952    1.2147 C   0  0  0  0  0  0  0  0  0  0  0  0
    6.8825   -0.9259    0.1673 C   0  0  0  0  0  0  0  0  0  0  0  0
    8.2152   -1.5937    0.2100 C   0  0  0  0  0  0  0  0  0  0  0  0
   -7.3233   -2.9023   -0.2438 H   0  0  0  0  0  0  0  0  0  0  0  0
   -7.1871   -1.8074   -1.6254 H   0  0  0  0  0  0  0  0  0  0  0  0
   -7.3074    0.7671    1.1479 H   0  0  0  0  0  0  0  0  0  0  0  0
   -6.7480   -0.3934    2.3627 H   0  0  0  0  0  0  0  0  0  0  0  0
   -9.5212   -2.0119   -0.3427 H   0  0  0  0  0  0  0  0  0  0  0  0
   -8.9341   -0.3881   -0.7564 H   0  0  0  0  0  0  0  0  0  0  0  0
   -9.3413   -0.2742    1.6572 H   0  0  0  0  0  0  0  0  0  0  0  0
   -8.5746   -1.8544    1.9067 H   0  0  0  0  0  0  0  0  0  0  0  0
   -5.1226   -0.4489   -1.4639 H   0  0  0  0  0  0  0  0  0  0  0  0
   -6.4106    0.6830   -1.1045 H   0  0  0  0  0  0  0  0  0  0  0  0
   -5.7174   -2.6896    1.5082 H   0  0  0  0  0  0  0  0  0  0  0  0
   -4.6067   -1.3456    1.5607 H   0  0  0  0  0  0  0  0  0  0  0  0
   -3.0041    2.9260    0.6112 H   0  0  0  0  0  0  0  0  0  0  0  0
   -1.7005    0.4453    0.7102 H   0  0  0  0  0  0  0  0  0  0  0  0
   -0.9967    1.9542    1.2512 H   0  0  0  0  0  0  0  0  0  0  0  0
   -0.5838    0.4507   -1.3601 H   0  0  0  0  0  0  0  0  0  0  0  0
   -3.5927    1.0249   -1.6059 H   0  0  0  0  0  0  0  0  0  0  0  0
   -2.5078    3.8152   -1.8202 H   0  0  0  0  0  0  0  0  0  0  0  0
   -0.2267    2.8985   -2.4846 H   0  0  0  0  0  0  0  0  0  0  0  0
   -2.5761   -2.6609   -0.7094 H   0  0  0  0  0  0  0  0  0  0  0  0
    0.9352   -1.1952   -1.2951 H   0  0  0  0  0  0  0  0  0  0  0  0
    2.5264   -1.6260   -0.7864 H   0  0  0  0  0  0  0  0  0  0  0  0
    2.2547   -0.7127   -2.3254 H   0  0  0  0  0  0  0  0  0  0  0  0
    0.4310    4.1347    0.2092 H   0  0  0  0  0  0  0  0  0  0  0  0
    1.8935    4.3993    1.1430 H   0  0  0  0  0  0  0  0  0  0  0  0
    0.5635    3.4906    1.8598 H   0  0  0  0  0  0  0  0  0  0  0  0
    4.2444   -0.6193   -1.8888 H   0  0  0  0  0  0  0  0  0  0  0  0
    4.9517    1.1609    2.0116 H   0  0  0  0  0  0  0  0  0  0  0  0
    6.3371   -1.7550   -1.7577 H   0  0  0  0  0  0  0  0  0  0  0  0
    7.1379    0.0697    2.0672 H   0  0  0  0  0  0  0  0  0  0  0  0
  1 35  1  0  0  0  0
  2 35  1  0  0  0  0
  3 35  1  0  0  0  0
  4 17  2  0  0  0  0
  5 20  1  0  0  0  0
  5 55  1  0  0  0  0
  6 20  2  0  0  0  0
  7 17  1  0  0  0  0
  7 18  1  0  0  0  0
  7 52  1  0  0  0  0
  8  9  1  0  0  0  0
  8 25  1  0  0  0  0
  8 29  1  0  0  0  0
  9 26  2  0  0  0  0
 10 11  1  0  0  0  0
 10 12  1  0  0  0  0
 10 15  1  0  0  0  0
 10 16  1  0  0  0  0
 11 13  1  0  0  0  0
 11 36  1  0  0  0  0
 11 37  1  0  0  0  0
 12 14  1  0  0  0  0
 12 38  1  0  0  0  0
 12 39  1  0  0  0  0
 13 14  1  0  0  0  0
 13 40  1  0  0  0  0
 13 41  1  0  0  0  0
 14 42  1  0  0  0  0
 14 43  1  0  0  0  0
 15 17  1  0  0  0  0
 15 44  1  0  0  0  0
 15 45  1  0  0  0  0
 16 20  1  0  0  0  0
 16 46  1  0  0  0  0
 16 47  1  0  0  0  0
 18 19  1  0  0  0  0
 18 22  1  0  0  0  0
 18 48  1  0  0  0  0
 19 21  1  0  0  0  0
 19 49  1  0  0  0  0
 19 50  1  0  0  0  0
 21 23  1  0  0  0  0
 21 24  1  0  0  0  0
 21 51  1  0  0  0  0
 22 23  2  0  0  0  0
 22 53  1  0  0  0  0
 23 54  1  0  0  0  0
 24 25  2  0  0  0  0
 24 26  1  0  0  0  0
 25 27  1  0  0  0  0
 26 28  1  0  0  0  0
 27 56  1  0  0  0  0
 27 57  1  0  0  0  0
 27 58  1  0  0  0  0
 28 59  1  0  0  0  0
 28 60  1  0  0  0  0
 28 61  1  0  0  0  0
 29 30  2  0  0  0  0
 29 31  1  0  0  0  0
 30 32  1  0  0  0  0
 30 62  1  0  0  0  0
 31 33  2  0  0  0  0
 31 63  1  0  0  0  0
 32 34  2  0  0  0  0
 32 64  1  0  0  0  0
 33 34  1  0  0  0  0
 33 65  1  0  0  0  0
 34 35  1  0  0  0  0
M  END
> <PUBCHEM_COMPOUND_CID>
40777675

> <PUBCHEM_CONFORMER_RMSD>
1.2

> <PUBCHEM_CONFORMER_DIVERSEORDER>
8
102
23
32
41
103
101
26
92
56
51
95
48
67
17
27
31
22
81
96
29
37
49
45
46
106
28
68
99
44
10
78
36
38
55
72
69
54
107
88
43
93
66
73
40
82
12
104
100
11
65
30
98
1
63
83
2
60
39
89
74
3
53
13
64
87
14
84
91
47
35
25
24
85
33
105
97
52
16
19
50
86
94
59
42
70
80
75
7
90
58
79
21
71
15
4
61
34
20
9
76
5
18
57
6
62
77

> <PUBCHEM_MMFF94_PARTIAL_CHARGES>
37
1 -0.34
15 0.06
16 0.06
17 0.57
18 0.44
2 -0.34
20 0.66
21 0.32
22 -0.29
23 -0.29
24 -0.18
25 -0.33
26 0.11
27 0.18
28 0.18
29 -0.02
3 -0.34
30 -0.15
31 -0.15
32 -0.15
33 -0.15
34 -0.14
35 1.16
4 -0.57
5 -0.65
52 0.37
53 0.15
54 0.15
55 0.5
6 -0.57
62 0.15
63 0.15
64 0.15
65 0.15
7 -0.73
8 0.59
9 -0.71

> <PUBCHEM_EFFECTIVE_ROTOR_COUNT>
10.6

> <PUBCHEM_PHARMACOPHORE_FEATURES>
10
1 4 acceptor
1 5 acceptor
1 6 acceptor
1 7 donor
1 9 acceptor
3 5 6 20 anion
5 10 11 12 13 14 rings
5 18 19 21 22 23 rings
5 8 9 24 25 26 rings
6 29 30 31 32 33 34 rings

> <PUBCHEM_HEAVY_ATOM_COUNT>
35

> <PUBCHEM_ATOM_DEF_STEREO_COUNT>
2

> <PUBCHEM_ATOM_UDEF_STEREO_COUNT>
0

> <PUBCHEM_BOND_DEF_STEREO_COUNT>
0

> <PUBCHEM_BOND_UDEF_STEREO_COUNT>
0

> <PUBCHEM_ISOTOPIC_ATOM_COUNT>
0

> <PUBCHEM_COMPONENT_COUNT>
1

> <PUBCHEM_CACTVS_TAUTO_COUNT>
2

> <PUBCHEM_CONFORMER_ID>
026E37CB00000008

> <PUBCHEM_MMFF94_ENERGY>
87.3957

> <PUBCHEM_FEATURE_SELFOVERLAP>
50.805

> <PUBCHEM_SHAPE_FINGERPRINT>
10 15 13183026220304465437
10190108 129 18335137592282956870
10190206 1 12685085956373503278
11135609 201 11383839242796050061
11135609 99 18412825815114459900
11297750 10 18334568057760146860
11456790 92 17987814003220828267
11963148 33 18262228916390076794
12047536 79 15481286902859865221
12522641 126 18042691770682459908
12522641 68 17246092039735586717
12838863 1 18271239534976732663
13248334 5 17974854174516785773
13673619 4 18335138700268539781
13690498 29 17749383750706324877
13782708 43 18334855017625780912
13811026 1 18342173353934343980
14068700 675 18040156205793507636
14178184 131 18273207625338826630
14347424 109 18130506447981402080
14556957 393 15575002719221102661
14675019 173 18040434425522254325
15183329 4 18113616802559230203
15198563 99 16515395240740091517
15352257 5 18412262805532857270
15510800 12 18260841405582029155
16126227 98 10015866492142164047
16992779 147 16843865672711373872
18603816 31 17845927533651960527
18608769 82 18411979144697160102
19611394 137 18343862225723495464
20105231 36 17988931025462418398
2026 5 18261672580063734411
21304304 249 18335703870967414407
21424621 283 11024109849903446532
21781051 124 18202010906994380998
23522609 53 18047224961775137084
23569914 152 11966992679275106288
23576562 1 12541283102672336547
255183 451 18187366545409498236
2747138 104 18059571353085453384
3178227 256 17704070690639944548
3383291 50 18411420631187096963
393628 179 8502364499881994126
397830 11 18270669961698327016
4339292 15 18040148492711887400
439807 62 18333453153501266366
54039377 194 18334860502562190588
5718773 13 18408603660335770537
57303763 176 18340764846847032325
5937810 71 11819264535040956551
6009941 240 17987236634118890009
6081469 158 18260265261705027517
636775 72 9511450131084501222
636775 8 18340775832919129910
6691757 9 15051718777560088333
9896288 288 18057889034979305913
999808 66 18413103948743744852

> <PUBCHEM_SHAPE_MULTIPOLES>
665.91
28.34
3.56
1.28
13.67
0.9
0.01
-27.44
6.42
-0.78
-0.39
-0.1
0.18
0.4

> <PUBCHEM_SHAPE_SELFOVERLAP>
1436.771

> <PUBCHEM_SHAPE_VOLUME>
370.3

> <PUBCHEM_COORDINATE_TYPE>
2
5
10

$$$$
