51138023
  -OEChem-12032416323D

 66 70  0     1  0  0  0  0  0999 V2000
   -2.4454    2.5708   -0.4494 O   0  0  0  0  0  0  0  0  0  0  0  0
   -1.2547   -0.2553   -0.1649 N   0  0  0  0  0  0  0  0  0  0  0  0
    3.5464    0.8245    0.9699 N   0  0  0  0  0  0  0  0  0  0  0  0
   -3.4291    1.3594    1.2780 N   0  0  0  0  0  0  0  0  0  0  0  0
    7.7094   -0.2314   -1.0096 N   0  0  0  0  0  0  0  0  0  0  0  0
   -0.6962   -1.4847    0.4138 C   0  0  2  0  0  0  0  0  0  0  0  0
    0.8132   -1.4753    0.6762 C   0  0  0  0  0  0  0  0  0  0  0  0
    1.6294   -0.3086    0.7288 C   0  0  0  0  0  0  0  0  0  0  0  0
   -1.1508    0.9200    0.6880 C   0  0  1  0  0  0  0  0  0  0  0  0
   -1.1190   -2.6000   -0.5593 C   0  0  0  0  0  0  0  0  0  0  0  0
    1.3719    1.0991    0.5879 C   0  0  0  0  0  0  0  0  0  0  0  0
    0.0653    1.7702    0.3258 C   0  0  0  0  0  0  0  0  0  0  0  0
    2.9983   -0.4362    0.9917 C   0  0  0  0  0  0  0  0  0  0  0  0
   -2.5903   -2.9990   -0.4091 C   0  0  0  0  0  0  0  0  0  0  0  0
    2.5777    1.7548    0.7341 C   0  0  0  0  0  0  0  0  0  0  0  0
    1.4587   -2.7038    0.9686 C   0  0  0  0  0  0  0  0  0  0  0  0
   -2.3971    1.7085    0.4237 C   0  0  0  0  0  0  0  0  0  0  0  0
    3.6243   -1.6606    1.2311 C   0  0  0  0  0  0  0  0  0  0  0  0
    4.9425    1.1402    1.1844 C   0  0  0  0  0  0  0  0  0  0  0  0
    2.8248   -2.7963    1.2279 C   0  0  0  0  0  0  0  0  0  0  0  0
   -2.9029   -4.1464   -1.3726 C   0  0  0  0  0  0  0  0  0  0  0  0
   -3.5462   -1.8332   -0.6664 C   0  0  0  0  0  0  0  0  0  0  0  0
    5.8053    0.8881   -0.0270 C   0  0  0  0  0  0  0  0  0  0  0  0
   -4.7299    1.9878    1.2445 C   0  0  0  0  0  0  0  0  0  0  0  0
    5.5306    1.5040   -1.2431 C   0  0  0  0  0  0  0  0  0  0  0  0
    6.8965    0.0367    0.0368 C   0  0  0  0  0  0  0  0  0  0  0  0
   -5.6723    1.2794    0.3149 C   0  0  0  0  0  0  0  0  0  0  0  0
    6.3441    1.2532   -2.3425 C   0  0  0  0  0  0  0  0  0  0  0  0
   -5.7454    1.6575   -1.0258 C   0  0  0  0  0  0  0  0  0  0  0  0
   -6.4749    0.2433    0.7919 C   0  0  0  0  0  0  0  0  0  0  0  0
    7.4113    0.3855   -2.1750 C   0  0  0  0  0  0  0  0  0  0  0  0
   -6.6211    0.9994   -1.8894 C   0  0  0  0  0  0  0  0  0  0  0  0
   -7.3506   -0.4149   -0.0715 C   0  0  0  0  0  0  0  0  0  0  0  0
   -7.4238   -0.0368   -1.4122 C   0  0  0  0  0  0  0  0  0  0  0  0
   -1.1740   -1.6710    1.3855 H   0  0  0  0  0  0  0  0  0  0  0  0
   -1.1180    0.6533    1.7529 H   0  0  0  0  0  0  0  0  0  0  0  0
   -0.9058   -2.3054   -1.5976 H   0  0  0  0  0  0  0  0  0  0  0  0
   -0.5362   -3.5139   -0.4131 H   0  0  0  0  0  0  0  0  0  0  0  0
    0.0408    2.0617   -0.7337 H   0  0  0  0  0  0  0  0  0  0  0  0
    0.0280    2.7080    0.8974 H   0  0  0  0  0  0  0  0  0  0  0  0
   -0.8619   -0.0765   -1.0883 H   0  0  0  0  0  0  0  0  0  0  0  0
   -2.7614   -3.3665    0.6108 H   0  0  0  0  0  0  0  0  0  0  0  0
    2.8117    2.8105    0.6905 H   0  0  0  0  0  0  0  0  0  0  0  0
    0.8877   -3.6271    1.0330 H   0  0  0  0  0  0  0  0  0  0  0  0
    4.6856   -1.7373    1.4393 H   0  0  0  0  0  0  0  0  0  0  0  0
    5.2837    0.5614    2.0509 H   0  0  0  0  0  0  0  0  0  0  0  0
    5.0194    2.1973    1.4676 H   0  0  0  0  0  0  0  0  0  0  0  0
    3.2673   -3.7658    1.4411 H   0  0  0  0  0  0  0  0  0  0  0  0
   -2.2511   -5.0059   -1.1832 H   0  0  0  0  0  0  0  0  0  0  0  0
   -3.9377   -4.4847   -1.2528 H   0  0  0  0  0  0  0  0  0  0  0  0
   -2.7664   -3.8391   -2.4152 H   0  0  0  0  0  0  0  0  0  0  0  0
   -4.5723   -2.2032   -0.7774 H   0  0  0  0  0  0  0  0  0  0  0  0
   -3.5717   -1.1484    0.1820 H   0  0  0  0  0  0  0  0  0  0  0  0
   -3.3005   -1.2899   -1.5845 H   0  0  0  0  0  0  0  0  0  0  0  0
   -3.2883    0.6114    1.9508 H   0  0  0  0  0  0  0  0  0  0  0  0
   -5.1236    1.9854    2.2673 H   0  0  0  0  0  0  0  0  0  0  0  0
   -4.6194    3.0376    0.9482 H   0  0  0  0  0  0  0  0  0  0  0  0
    4.6943    2.1885   -1.3503 H   0  0  0  0  0  0  0  0  0  0  0  0
    7.1632   -0.4736    0.9570 H   0  0  0  0  0  0  0  0  0  0  0  0
    6.1504    1.7237   -3.2996 H   0  0  0  0  0  0  0  0  0  0  0  0
   -5.1279    2.4643   -1.4110 H   0  0  0  0  0  0  0  0  0  0  0  0
   -6.4251   -0.0625    1.8336 H   0  0  0  0  0  0  0  0  0  0  0  0
    8.0762    0.1571   -3.0015 H   0  0  0  0  0  0  0  0  0  0  0  0
   -6.6781    1.2938   -2.9333 H   0  0  0  0  0  0  0  0  0  0  0  0
   -7.9747   -1.2226    0.2996 H   0  0  0  0  0  0  0  0  0  0  0  0
   -8.1053   -0.5496   -2.0847 H   0  0  0  0  0  0  0  0  0  0  0  0
  1 17  2  0  0  0  0
  2  6  1  0  0  0  0
  2  9  1  0  0  0  0
  2 41  1  0  0  0  0
  3 13  1  0  0  0  0
  3 15  1  0  0  0  0
  3 19  1  0  0  0  0
  4 17  1  0  0  0  0
  4 24  1  0  0  0  0
  4 55  1  0  0  0  0
  5 26  1  0  0  0  0
  5 31  2  0  0  0  0
  6  7  1  0  0  0  0
  6 10  1  0  0  0  0
  6 35  1  0  0  0  0
  7  8  2  0  0  0  0
  7 16  1  0  0  0  0
  8 11  1  0  0  0  0
  8 13  1  0  0  0  0
  9 12  1  0  0  0  0
  9 17  1  0  0  0  0
  9 36  1  0  0  0  0
 10 14  1  0  0  0  0
 10 37  1  0  0  0  0
 10 38  1  0  0  0  0
 11 12  1  0  0  0  0
 11 15  2  0  0  0  0
 12 39  1  0  0  0  0
 12 40  1  0  0  0  0
 13 18  2  0  0  0  0
 14 21  1  0  0  0  0
 14 22  1  0  0  0  0
 14 42  1  0  0  0  0
 15 43  1  0  0  0  0
 16 20  2  0  0  0  0
 16 44  1  0  0  0  0
 18 20  1  0  0  0  0
 18 45  1  0  0  0  0
 19 23  1  0  0  0  0
 19 46  1  0  0  0  0
 19 47  1  0  0  0  0
 20 48  1  0  0  0  0
 21 49  1  0  0  0  0
 21 50  1  0  0  0  0
 21 51  1  0  0  0  0
 22 52  1  0  0  0  0
 22 53  1  0  0  0  0
 22 54  1  0  0  0  0
 23 25  1  0  0  0  0
 23 26  2  0  0  0  0
 24 27  1  0  0  0  0
 24 56  1  0  0  0  0
 24 57  1  0  0  0  0
 25 28  2  0  0  0  0
 25 58  1  0  0  0  0
 26 59  1  0  0  0  0
 27 29  2  0  0  0  0
 27 30  1  0  0  0  0
 28 31  1  0  0  0  0
 28 60  1  0  0  0  0
 29 32  1  0  0  0  0
 29 61  1  0  0  0  0
 30 33  2  0  0  0  0
 30 62  1  0  0  0  0
 31 63  1  0  0  0  0
 32 34  2  0  0  0  0
 32 64  1  0  0  0  0
 33 34  1  0  0  0  0
 33 65  1  0  0  0  0
 34 66  1  0  0  0  0
M  END
> <PUBCHEM_COMPOUND_CID>
51138023

> <PUBCHEM_CONFORMER_RMSD>
1.2

> <PUBCHEM_CONFORMER_DIVERSEORDER>
1
14
25
33
46
4
91
104
62
23
30
28
29
89
31
73
88
42
32
50
83
101
93
70
79
90
56
94
19
43
38
96
16
11
68
24
37
77
54
81
71
35
80
48
61
65
22
26
44
75
21
45
102
97
36
9
87
53
85
59
103
27
8
92
7
18
3
69
95
49
40
39
63
58
86
64
74
60
2
67
6
34
41
76
17
78
66
99
20
15
82
98
55
10
52
57
72
100
12
5
47
51
84
13

> <PUBCHEM_MMFF94_PARTIAL_CHARGES>
44
1 -0.57
11 -0.18
12 0.18
13 -0.15
15 -0.3
16 -0.15
17 0.57
18 -0.15
19 0.4
2 -0.9
20 -0.15
23 -0.14
24 0.44
25 -0.15
26 0.16
27 -0.14
28 -0.15
29 -0.15
3 0.05
30 -0.15
31 0.16
32 -0.15
33 -0.15
34 -0.15
4 -0.73
41 0.36
43 0.15
44 0.15
45 0.15
48 0.15
5 -0.62
55 0.37
58 0.15
59 0.15
6 0.41
60 0.15
61 0.15
62 0.15
63 0.15
64 0.15
65 0.15
66 0.15
7 -0.14
9 0.33

> <PUBCHEM_EFFECTIVE_ROTOR_COUNT>
8.8

> <PUBCHEM_PHARMACOPHORE_FEATURES>
12
1 1 acceptor
1 2 cation
1 2 donor
1 3 cation
1 4 donor
1 5 acceptor
3 14 21 22 hydrophobe
5 3 8 11 13 15 rings
6 27 29 30 32 33 34 rings
6 5 23 25 26 28 31 rings
6 7 8 13 16 18 20 rings
7 2 6 7 8 9 11 12 rings

> <PUBCHEM_HEAVY_ATOM_COUNT>
34

> <PUBCHEM_ATOM_DEF_STEREO_COUNT>
2

> <PUBCHEM_ATOM_UDEF_STEREO_COUNT>
0

> <PUBCHEM_BOND_DEF_STEREO_COUNT>
0

> <PUBCHEM_BOND_UDEF_STEREO_COUNT>
0

> <PUBCHEM_ISOTOPIC_ATOM_COUNT>
0

> <PUBCHEM_COMPONENT_COUNT>
1

> <PUBCHEM_CACTVS_TAUTO_COUNT>
2

> <PUBCHEM_CONFORMER_ID>
030C4DE700000001

> <PUBCHEM_MMFF94_ENERGY>
82.9092

> <PUBCHEM_FEATURE_SELFOVERLAP>
61.028

> <PUBCHEM_SHAPE_FINGERPRINT>
10119406 146 17989214737251829447
11007060 377 18343867723218155913
11135609 12 10087638191381671706
11136131 41 18117546349806497379
11991303 11 18188209904944757343
12522641 126 18263364686147622182
12788726 201 17774997960886319265
13782708 43 13901900098977213853
14294032 229 18334012752995789780
14400156 162 13758359990632935031
1454969 45 18259706687743512325
14840074 17 18260829285200137213
14931854 50 18202271499534259645
15131766 46 16299810830923670196
15183329 4 18060419109860180350
15328829 1 18040723601179939676
15352257 5 15985104110962888397
15629462 23 16200167464537714795
1577012 14 18270961242000751233
19319366 153 18186801336092035746
20028762 73 17915444027105361191
21026386 80 15936688191061650202
21583282 1 18041571247546683534
21792938 79 15576119995404028303
23559900 14 17988073525444048992
23569943 247 16770725922923739518
23576562 1 18116438222352889341
24771293 8 10737582652171173336
25147074 1 18334283267711573594
27425 322 16661221351161555466
3103668 31 18047197624471614035
4058900 60 18113615690221184170
4173938 77 17823422767328685029
4258327 124 17895203228569227925
45377200 153 17059766845366875775
504579 68 18411135827008773460
563151 40 18409456898702818306
59755656 215 18202286896485275846

> <PUBCHEM_SHAPE_MULTIPOLES>
673.91
20.86
3.42
1.69
1.34
3.34
0.79
-8.5
10.59
-2.4
0.27
1.3
-0.19
-2.08

> <PUBCHEM_SHAPE_SELFOVERLAP>
1465.117

> <PUBCHEM_SHAPE_VOLUME>
366.1

> <PUBCHEM_COORDINATE_TYPE>
2
5
10

$$$$
