11883280
  -OEChem-12032416153D

 48 51  0     1  0  0  0  0  0999 V2000
    3.0934    0.2710   -1.1256 O   0  0  0  0  0  0  0  0  0  0  0  0
    3.0248   -2.6394   -0.1619 O   0  0  0  0  0  0  0  0  0  0  0  0
    5.4662   -0.0550    0.2779 O   0  0  0  0  0  0  0  0  0  0  0  0
   -1.3072   -2.3214   -0.4197 O   0  0  0  0  0  0  0  0  0  0  0  0
    7.4893    1.6365   -0.2334 O   0  0  0  0  0  0  0  0  0  0  0  0
    0.0933   -0.5027   -0.6970 N   0  0  0  0  0  0  0  0  0  0  0  0
   -2.0822   -0.1356   -0.0560 N   0  0  0  0  0  0  0  0  0  0  0  0
    6.6763    3.2359    1.2076 N   0  0  0  0  0  0  0  0  0  0  0  0
    2.1556   -1.5209    0.1125 C   0  0  1  0  0  0  0  0  0  0  0  0
    3.0363   -0.2904    0.1964 C   0  0  1  0  0  0  0  0  0  0  0  0
    1.2667   -1.2498   -1.0788 C   0  0  2  0  0  0  0  0  0  0  0  0
    4.3661   -0.8689    0.6165 C   0  0  1  0  0  0  0  0  0  0  0  0
    2.1754   -0.4301   -1.9787 C   0  0  0  0  0  0  0  0  0  0  0  0
    4.3868   -2.1892   -0.1202 C   0  0  0  0  0  0  0  0  0  0  0  0
   -1.1326   -1.1056   -0.3890 C   0  0  0  0  0  0  0  0  0  0  0  0
    5.4437    1.1887    0.9739 C   0  0  0  0  0  0  0  0  0  0  0  0
    6.6428    2.0144    0.5713 C   0  0  0  0  0  0  0  0  0  0  0  0
   -3.4328   -0.3341    0.3140 C   0  0  0  0  0  0  0  0  0  0  0  0
   -4.4105    0.6233    0.0325 C   0  0  0  0  0  0  0  0  0  0  0  0
   -3.7395   -1.5200    0.9681 C   0  0  0  0  0  0  0  0  0  0  0  0
   -5.7456    0.3698    0.4275 C   0  0  0  0  0  0  0  0  0  0  0  0
   -4.1061    1.8244   -0.6286 C   0  0  0  0  0  0  0  0  0  0  0  0
   -5.0525   -1.7693    1.3562 C   0  0  0  0  0  0  0  0  0  0  0  0
   -6.0501   -0.8315    1.0884 C   0  0  0  0  0  0  0  0  0  0  0  0
   -6.7371    1.3249    0.1497 C   0  0  0  0  0  0  0  0  0  0  0  0
   -5.1037    2.7622   -0.8962 C   0  0  0  0  0  0  0  0  0  0  0  0
   -6.4168    2.5130   -0.5077 C   0  0  0  0  0  0  0  0  0  0  0  0
    1.6212   -1.7363    1.0432 H   0  0  0  0  0  0  0  0  0  0  0  0
    2.6437    0.4758    0.8713 H   0  0  0  0  0  0  0  0  0  0  0  0
    0.9496   -2.1664   -1.5878 H   0  0  0  0  0  0  0  0  0  0  0  0
    4.3611   -1.0707    1.6962 H   0  0  0  0  0  0  0  0  0  0  0  0
    1.6426    0.2898   -2.6077 H   0  0  0  0  0  0  0  0  0  0  0  0
    2.7717   -1.0800   -2.6285 H   0  0  0  0  0  0  0  0  0  0  0  0
    5.0051   -2.9373    0.3850 H   0  0  0  0  0  0  0  0  0  0  0  0
    4.7582   -2.0880   -1.1462 H   0  0  0  0  0  0  0  0  0  0  0  0
    0.1785    0.5024   -0.5777 H   0  0  0  0  0  0  0  0  0  0  0  0
    5.4834    1.0118    2.0547 H   0  0  0  0  0  0  0  0  0  0  0  0
    4.5468    1.7639    0.7227 H   0  0  0  0  0  0  0  0  0  0  0  0
   -1.8046    0.8151   -0.2738 H   0  0  0  0  0  0  0  0  0  0  0  0
   -2.9909   -2.2581    1.2352 H   0  0  0  0  0  0  0  0  0  0  0  0
    5.9623    3.5229    1.8695 H   0  0  0  0  0  0  0  0  0  0  0  0
    7.4270    3.8954    1.0321 H   0  0  0  0  0  0  0  0  0  0  0  0
   -3.1047    2.0728   -0.9663 H   0  0  0  0  0  0  0  0  0  0  0  0
   -5.3003   -2.6898    1.8769 H   0  0  0  0  0  0  0  0  0  0  0  0
   -7.0693   -1.0464    1.4030 H   0  0  0  0  0  0  0  0  0  0  0  0
   -7.7701    1.1509    0.4440 H   0  0  0  0  0  0  0  0  0  0  0  0
   -4.8562    3.6865   -1.4103 H   0  0  0  0  0  0  0  0  0  0  0  0
   -7.1930    3.2432   -0.7169 H   0  0  0  0  0  0  0  0  0  0  0  0
  1 10  1  0  0  0  0
  1 13  1  0  0  0  0
  2  9  1  0  0  0  0
  2 14  1  0  0  0  0
  3 12  1  0  0  0  0
  3 16  1  0  0  0  0
  4 15  2  0  0  0  0
  5 17  2  0  0  0  0
  6 11  1  0  0  0  0
  6 15  1  0  0  0  0
  6 36  1  0  0  0  0
  7 15  1  0  0  0  0
  7 18  1  0  0  0  0
  7 39  1  0  0  0  0
  8 17  1  0  0  0  0
  8 41  1  0  0  0  0
  8 42  1  0  0  0  0
  9 10  1  0  0  0  0
  9 11  1  0  0  0  0
  9 28  1  0  0  0  0
 10 12  1  0  0  0  0
 10 29  1  0  0  0  0
 11 13  1  0  0  0  0
 11 30  1  0  0  0  0
 12 14  1  0  0  0  0
 12 31  1  0  0  0  0
 13 32  1  0  0  0  0
 13 33  1  0  0  0  0
 14 34  1  0  0  0  0
 14 35  1  0  0  0  0
 16 17  1  0  0  0  0
 16 37  1  0  0  0  0
 16 38  1  0  0  0  0
 18 19  1  0  0  0  0
 18 20  2  0  0  0  0
 19 21  1  0  0  0  0
 19 22  2  0  0  0  0
 20 23  1  0  0  0  0
 20 40  1  0  0  0  0
 21 24  1  0  0  0  0
 21 25  2  0  0  0  0
 22 26  1  0  0  0  0
 22 43  1  0  0  0  0
 23 24  2  0  0  0  0
 23 44  1  0  0  0  0
 24 45  1  0  0  0  0
 25 27  1  0  0  0  0
 25 46  1  0  0  0  0
 26 27  2  0  0  0  0
 26 47  1  0  0  0  0
 27 48  1  0  0  0  0
M  END
> <PUBCHEM_COMPOUND_CID>
11883280

> <PUBCHEM_CONFORMER_RMSD>
1

> <PUBCHEM_CONFORMER_DIVERSEORDER>
1
35
48
51
21
50
33
2
41
15
46
16
42
19
31
22
14
18
37
44
30
39
17
24
47
45
53
9
36
32
34
10
28
40
7
11
25
20
23
43
5
38
29
27
52
13
26
3
8
6
49
12
4

> <PUBCHEM_MMFF94_PARTIAL_CHARGES>
36
1 -0.56
10 0.28
11 0.3
12 0.28
13 0.28
14 0.28
15 0.69
16 0.34
17 0.57
18 0.12
2 -0.56
20 -0.15
22 -0.15
23 -0.15
24 -0.15
25 -0.15
26 -0.15
27 -0.15
3 -0.56
36 0.37
39 0.37
4 -0.57
40 0.15
41 0.37
42 0.37
43 0.15
44 0.15
45 0.15
46 0.15
47 0.15
48 0.15
5 -0.57
6 -0.73
7 -0.55
8 -0.8
9 0.28

> <PUBCHEM_EFFECTIVE_ROTOR_COUNT>
8.2

> <PUBCHEM_PHARMACOPHORE_FEATURES>
12
1 1 acceptor
1 2 acceptor
1 3 acceptor
1 4 acceptor
1 5 acceptor
1 6 donor
1 7 donor
1 8 donor
5 1 9 10 11 13 rings
5 2 9 10 12 14 rings
6 18 19 20 21 23 24 rings
6 19 21 22 25 26 27 rings

> <PUBCHEM_HEAVY_ATOM_COUNT>
27

> <PUBCHEM_ATOM_DEF_STEREO_COUNT>
4

> <PUBCHEM_ATOM_UDEF_STEREO_COUNT>
0

> <PUBCHEM_BOND_DEF_STEREO_COUNT>
0

> <PUBCHEM_BOND_UDEF_STEREO_COUNT>
0

> <PUBCHEM_ISOTOPIC_ATOM_COUNT>
0

> <PUBCHEM_COMPONENT_COUNT>
1

> <PUBCHEM_CACTVS_TAUTO_COUNT>
6

> <PUBCHEM_CONFORMER_ID>
00B5531000000001

> <PUBCHEM_MMFF94_ENERGY>
86.5741

> <PUBCHEM_FEATURE_SELFOVERLAP>
61.704

> <PUBCHEM_SHAPE_FINGERPRINT>
10 15 18335420187849901970
10554248 39 16988846047340583398
10670039 82 15123522393069882674
10693767 8 11527686154683436196
10835480 77 18410289181876318721
11991303 11 16917060096751112054
12107183 9 17173483573281196699
12403259 118 18113905978712658127
12403259 415 18341057328389787255
12596602 18 18187080641935571642
12633257 1 15647063659128743587
13403585 85 18333452045568379113
13782708 43 8214133058615082273
13911987 19 17489867125103213447
13955234 65 12036035502856431790
14347424 109 18261384495786132162
14528608 73 13470679330833835523
14840074 17 16845570911697066633
14849402 71 17241338009334111412
14951699 99 18407761447709545484
15183329 4 12103854449208501812
15326921 28 16372953432506168229
15348495 7 18335138674376994635
15461852 350 18201716276031786567
17686467 74 18197494237581406035
18335252 114 17275106137806144528
20511986 3 17967806116467241203
21033648 29 18341600504339820515
21130935 74 18114181908591918483
21136928 126 15095639469923401792
21585482 111 18409163325378624220
21859007 373 17387401347203743853
23081809 10 15410899513691222567
23559900 14 18046365036961603159
2838139 119 18129654326976258140
2916195 48 18409728456689277739
312425 54 17385720283850116490
3383291 50 17168439250488829235
3663271 9 17894625959379471474
397830 11 18409733975622182131
4073 2 18040442091685540547
465052 167 11097860674747024722
504579 68 12463286960897739697
504843 32 17417523730535023214
5104073 3 18113612357441970330
5364581 5 18189056546157128897
54039377 194 11097850766785240640
5718773 13 8790621307842667936
9689198 14 18340209691530921388
9981440 41 17968670303111829307

> <PUBCHEM_SHAPE_MULTIPOLES>
511.36
21.32
3.05
1.2
8.66
1.35
-0.17
15.5
5.67
1.1
0.25
0.3
0
3.31

> <PUBCHEM_SHAPE_SELFOVERLAP>
1112.999

> <PUBCHEM_SHAPE_VOLUME>
278.5

> <PUBCHEM_COORDINATE_TYPE>
2
5
10

$$$$
