71693321
  -OEChem-12032416233D

 56 57  0     1  0  0  0  0  0999 V2000
    2.0692    1.7615    0.9578 O   0  0  0  0  0  0  0  0  0  0  0  0
    2.2403   -0.1179   -2.7311 O   0  0  0  0  0  0  0  0  0  0  0  0
    5.5879    1.4248    0.5125 O   0  0  0  0  0  0  0  0  0  0  0  0
   -4.9871    1.4244   -1.1333 O   0  0  0  0  0  0  0  0  0  0  0  0
    3.8747    0.0677   -0.2975 N   0  0  0  0  0  0  0  0  0  0  0  0
   -3.9847    0.1794    0.5923 N   0  0  0  0  0  0  0  0  0  0  0  0
    2.4208   -0.2217   -0.3510 C   0  0  1  0  0  0  0  0  0  0  0  0
    1.5900    1.0667   -0.1944 C   0  0  1  0  0  0  0  0  0  0  0  0
    4.8006   -0.9865   -0.7025 C   0  0  0  0  0  0  0  0  0  0  0  0
    4.9845   -2.0507    0.3851 C   0  0  0  0  0  0  0  0  0  0  0  0
    2.0173   -0.9725   -1.6282 C   0  0  0  0  0  0  0  0  0  0  0  0
    4.3887    1.2036    0.3311 C   0  0  0  0  0  0  0  0  0  0  0  0
    0.1088    0.8303    0.0145 C   0  0  0  0  0  0  0  0  0  0  0  0
    3.3715    2.2495    0.7423 C   0  0  0  0  0  0  0  0  0  0  0  0
    5.5385   -1.4092    1.6579 C   0  0  0  0  0  0  0  0  0  0  0  0
    5.9116   -3.1768   -0.0778 C   0  0  0  0  0  0  0  0  0  0  0  0
   -0.3282    0.0296    1.0698 C   0  0  0  0  0  0  0  0  0  0  0  0
   -0.8188    1.4138   -0.8485 C   0  0  0  0  0  0  0  0  0  0  0  0
   -1.6925   -0.1872    1.2624 C   0  0  0  0  0  0  0  0  0  0  0  0
   -2.1831    1.1970   -0.6562 C   0  0  0  0  0  0  0  0  0  0  0  0
   -2.6200    0.3965    0.3993 C   0  0  0  0  0  0  0  0  0  0  0  0
   -6.5401   -1.3348    0.4245 C   0  0  0  0  0  0  0  0  0  0  0  0
   -6.3950    0.1946    0.3916 C   0  0  0  0  0  0  0  0  0  0  0  0
   -5.0588    0.6766   -0.1637 C   0  0  0  0  0  0  0  0  0  0  0  0
   -7.8807   -1.7542    1.0331 C   0  0  0  0  0  0  0  0  0  0  0  0
   -6.4154   -1.9046   -0.9899 C   0  0  0  0  0  0  0  0  0  0  0  0
    2.2464   -0.8807    0.5081 H   0  0  0  0  0  0  0  0  0  0  0  0
    1.7285    1.7228   -1.0649 H   0  0  0  0  0  0  0  0  0  0  0  0
    5.7761   -0.5259   -0.9080 H   0  0  0  0  0  0  0  0  0  0  0  0
    4.5013   -1.4257   -1.6560 H   0  0  0  0  0  0  0  0  0  0  0  0
    4.0123   -2.4991    0.6238 H   0  0  0  0  0  0  0  0  0  0  0  0
    0.9523   -1.2269   -1.6055 H   0  0  0  0  0  0  0  0  0  0  0  0
    2.5526   -1.9145   -1.7691 H   0  0  0  0  0  0  0  0  0  0  0  0
    3.7116    2.7000    1.6805 H   0  0  0  0  0  0  0  0  0  0  0  0
    3.3538    3.0376   -0.0193 H   0  0  0  0  0  0  0  0  0  0  0  0
    6.4751   -0.8747    1.4693 H   0  0  0  0  0  0  0  0  0  0  0  0
    5.7517   -2.1807    2.4071 H   0  0  0  0  0  0  0  0  0  0  0  0
    4.8200   -0.7261    2.1198 H   0  0  0  0  0  0  0  0  0  0  0  0
    6.9116   -2.7964   -0.3120 H   0  0  0  0  0  0  0  0  0  0  0  0
    5.5132   -3.6591   -0.9766 H   0  0  0  0  0  0  0  0  0  0  0  0
    6.0121   -3.9437    0.6974 H   0  0  0  0  0  0  0  0  0  0  0  0
    0.3764   -0.4246    1.7608 H   0  0  0  0  0  0  0  0  0  0  0  0
   -0.4924    2.0388   -1.6755 H   0  0  0  0  0  0  0  0  0  0  0  0
    1.9604   -0.5984   -3.5287 H   0  0  0  0  0  0  0  0  0  0  0  0
   -2.0189   -0.8113    2.0904 H   0  0  0  0  0  0  0  0  0  0  0  0
   -2.8386    1.6805   -1.3667 H   0  0  0  0  0  0  0  0  0  0  0  0
   -5.7488   -1.7793    1.0386 H   0  0  0  0  0  0  0  0  0  0  0  0
   -4.2134   -0.3969    1.3985 H   0  0  0  0  0  0  0  0  0  0  0  0
   -7.1928    0.6390   -0.2164 H   0  0  0  0  0  0  0  0  0  0  0  0
   -6.5000    0.6032    1.4043 H   0  0  0  0  0  0  0  0  0  0  0  0
   -7.9746   -1.3762    2.0565 H   0  0  0  0  0  0  0  0  0  0  0  0
   -7.9687   -2.8451    1.0692 H   0  0  0  0  0  0  0  0  0  0  0  0
   -8.7215   -1.3645    0.4492 H   0  0  0  0  0  0  0  0  0  0  0  0
   -7.1693   -1.4771   -1.6599 H   0  0  0  0  0  0  0  0  0  0  0  0
   -5.4277   -1.7055   -1.4178 H   0  0  0  0  0  0  0  0  0  0  0  0
   -6.5519   -2.9915   -0.9817 H   0  0  0  0  0  0  0  0  0  0  0  0
  1  8  1  0  0  0  0
  1 14  1  0  0  0  0
  2 11  1  0  0  0  0
  2 44  1  0  0  0  0
  3 12  2  0  0  0  0
  4 24  2  0  0  0  0
  5  7  1  0  0  0  0
  5  9  1  0  0  0  0
  5 12  1  0  0  0  0
  6 21  1  0  0  0  0
  6 24  1  0  0  0  0
  6 48  1  0  0  0  0
  7  8  1  0  0  0  0
  7 11  1  0  0  0  0
  7 27  1  0  0  0  0
  8 13  1  0  0  0  0
  8 28  1  0  0  0  0
  9 10  1  0  0  0  0
  9 29  1  0  0  0  0
  9 30  1  0  0  0  0
 10 15  1  0  0  0  0
 10 16  1  0  0  0  0
 10 31  1  0  0  0  0
 11 32  1  0  0  0  0
 11 33  1  0  0  0  0
 12 14  1  0  0  0  0
 13 17  2  0  0  0  0
 13 18  1  0  0  0  0
 14 34  1  0  0  0  0
 14 35  1  0  0  0  0
 15 36  1  0  0  0  0
 15 37  1  0  0  0  0
 15 38  1  0  0  0  0
 16 39  1  0  0  0  0
 16 40  1  0  0  0  0
 16 41  1  0  0  0  0
 17 19  1  0  0  0  0
 17 42  1  0  0  0  0
 18 20  2  0  0  0  0
 18 43  1  0  0  0  0
 19 21  2  0  0  0  0
 19 45  1  0  0  0  0
 20 21  1  0  0  0  0
 20 46  1  0  0  0  0
 22 23  1  0  0  0  0
 22 25  1  0  0  0  0
 22 26  1  0  0  0  0
 22 47  1  0  0  0  0
 23 24  1  0  0  0  0
 23 49  1  0  0  0  0
 23 50  1  0  0  0  0
 25 51  1  0  0  0  0
 25 52  1  0  0  0  0
 25 53  1  0  0  0  0
 26 54  1  0  0  0  0
 26 55  1  0  0  0  0
 26 56  1  0  0  0  0
M  END
> <PUBCHEM_COMPOUND_CID>
71693321

> <PUBCHEM_CONFORMER_RMSD>
1

> <PUBCHEM_CONFORMER_DIVERSEORDER>
1
41
62
46
50
15
57
22
32
7
48
25
58
43
55
49
23
54
52
42
44
14
3
47
17
30
37
51
18
11
45
61
34
24
53
38
5
27
60
59
36
33
63
20
19
9
40
56
12
35
6
13
28
64
8
10
29
16
2
4
39
31
21
26

> <PUBCHEM_MMFF94_PARTIAL_CHARGES>
26
1 -0.56
11 0.28
12 0.57
13 -0.14
14 0.34
17 -0.15
18 -0.15
19 -0.15
2 -0.68
20 -0.15
21 0.12
23 0.06
24 0.57
3 -0.57
4 -0.57
42 0.15
43 0.15
44 0.4
45 0.15
46 0.15
48 0.37
5 -0.66
6 -0.55
7 0.3
8 0.42
9 0.3

> <PUBCHEM_EFFECTIVE_ROTOR_COUNT>
9

> <PUBCHEM_PHARMACOPHORE_FEATURES>
10
1 1 acceptor
1 2 acceptor
1 2 donor
1 3 acceptor
1 4 acceptor
1 6 donor
3 10 15 16 hydrophobe
3 22 25 26 hydrophobe
6 1 5 7 8 12 14 rings
6 13 17 18 19 20 21 rings

> <PUBCHEM_HEAVY_ATOM_COUNT>
26

> <PUBCHEM_ATOM_DEF_STEREO_COUNT>
2

> <PUBCHEM_ATOM_UDEF_STEREO_COUNT>
0

> <PUBCHEM_BOND_DEF_STEREO_COUNT>
0

> <PUBCHEM_BOND_UDEF_STEREO_COUNT>
0

> <PUBCHEM_ISOTOPIC_ATOM_COUNT>
0

> <PUBCHEM_COMPONENT_COUNT>
1

> <PUBCHEM_CACTVS_TAUTO_COUNT>
6

> <PUBCHEM_CONFORMER_ID>
0445F40900000001

> <PUBCHEM_MMFF94_ENERGY>
67.5642

> <PUBCHEM_FEATURE_SELFOVERLAP>
50.747

> <PUBCHEM_SHAPE_FINGERPRINT>
10 15 12823299009846260411
10066227 112 9799697000116007411
106641 1 18060412513856141330
10730089 47 18408318878439899083
10763959 59 11241973693996765295
10906281 52 12247388051061683232
11089746 13 12468627362093707821
11135609 99 18410575081065320990
11719270 70 17632859707122233919
11796584 16 17821734897284745546
12166972 35 17676211264398535613
12236239 1 16272209695399009348
125118 31 10663827377430246707
12616971 3 17346874559668906101
13073987 5 18343585127028400161
13533116 47 18413670218886214576
1361 4 18339079405961881299
13685833 64 18410296917343981803
13782708 43 18335699412485431735
14251757 52 10447925057648976999
14347332 77 17895467016860122385
15419008 42 17557146108442405085
15475509 35 18115294589290478930
17844677 252 18343592845828468345
18222031 100 16515406252972738820
18335252 98 18335142032882963081
19377110 9 16630535028980089435
1979834 28 16702025249290375334
19958102 18 17095518496424945755
20028762 73 18201719526979885070
21130935 74 18412826867508255883
21267235 1 17703801292963674916
21623969 137 17775293785295979063
22149856 69 16056335998292585551
2303208 19 18260548914014086733
23081809 10 18335431157650290161
23522609 53 18121815813354759797
23559900 14 17821738225868367236
23569943 247 18042966467778687267
29717793 49 16877946039818186332
4073 2 18191588759710431155
4340502 62 17418097649929239461
465052 167 18272652325185616158
5104073 3 17917712366115034033
5718773 13 18335700482101652338
59682541 52 13407068180851415752
59755656 215 17385439912585289259
6328613 192 8142086472720842983

> <PUBCHEM_SHAPE_MULTIPOLES>
501.63
19.24
2.41
1.45
23.52
1.06
-0.53
12.54
3.1
-2.54
0.16
-0.61
0.22
0.77

> <PUBCHEM_SHAPE_SELFOVERLAP>
1025.963

> <PUBCHEM_SHAPE_VOLUME>
287.1

> <PUBCHEM_COORDINATE_TYPE>
2
5
10

$$$$
