51136901
  -OEChem-12032416213D

 56 60  0     1  0  0  0  0  0999 V2000
    4.2244   -1.7340    1.1017 O   0  0  0  0  0  0  0  0  0  0  0  0
   -4.0381   -2.1413    0.3101 O   0  0  0  0  0  0  0  0  0  0  0  0
   -9.3627    1.0977   -0.6303 O   0  0  0  0  0  0  0  0  0  0  0  0
    6.1023    0.8900   -0.2840 N   0  0  1  0  0  0  0  0  0  0  0  0
    3.1996    0.2147    0.6905 N   0  0  0  0  0  0  0  0  0  0  0  0
    2.8579   -2.0254    1.0052 N   0  0  0  0  0  0  0  0  0  0  0  0
   -0.9323    0.8728    0.1620 N   0  0  0  0  0  0  0  0  0  0  0  0
   -3.1343    0.0149    0.0686 N   0  0  0  0  0  0  0  0  0  0  0  0
    6.7262   -0.0156   -1.2587 C   0  0  0  0  0  0  0  0  0  0  0  0
    5.6304   -0.7910   -2.0194 C   0  0  0  0  0  0  0  0  0  0  0  0
    6.9936    0.7452   -2.5741 C   0  0  0  0  0  0  0  0  0  0  0  0
    6.4154   -0.4808   -3.3111 C   0  0  0  0  0  0  0  0  0  0  0  0
    5.7392    0.1792    0.9598 C   0  0  1  0  0  0  0  0  0  0  0  0
    7.0373    1.9488    0.1011 C   0  0  0  0  0  0  0  0  0  0  0  0
    5.9130    1.2261    2.0759 C   0  0  0  0  0  0  0  0  0  0  0  0
    6.4028    2.4819    1.3697 C   0  0  0  0  0  0  0  0  0  0  0  0
    4.3384   -0.3944    0.9046 C   0  0  0  0  0  0  0  0  0  0  0  0
    2.3204   -0.8265    0.7616 C   0  0  0  0  0  0  0  0  0  0  0  0
    0.9097   -0.6345    0.5860 C   0  0  0  0  0  0  0  0  0  0  0  0
    0.0259   -1.7052    0.6613 C   0  0  0  0  0  0  0  0  0  0  0  0
    0.3850    0.6233    0.3365 C   0  0  0  0  0  0  0  0  0  0  0  0
   -1.3365   -1.4884    0.4870 C   0  0  0  0  0  0  0  0  0  0  0  0
   -1.7609   -0.1925    0.2419 C   0  0  0  0  0  0  0  0  0  0  0  0
   -4.1580   -0.9371    0.1110 C   0  0  0  0  0  0  0  0  0  0  0  0
   -5.5306   -0.4008   -0.0835 C   0  0  0  0  0  0  0  0  0  0  0  0
   -6.5294   -1.2168   -0.6145 C   0  0  0  0  0  0  0  0  0  0  0  0
   -5.8196    0.9189    0.2641 C   0  0  0  0  0  0  0  0  0  0  0  0
   -7.8172   -0.7133   -0.7983 C   0  0  0  0  0  0  0  0  0  0  0  0
   -7.1072    1.4225    0.0803 C   0  0  0  0  0  0  0  0  0  0  0  0
   -8.1060    0.6064   -0.4510 C   0  0  0  0  0  0  0  0  0  0  0  0
   -9.5888    2.4553   -0.2538 C   0  0  0  0  0  0  0  0  0  0  0  0
    7.5700   -0.6227   -0.9088 H   0  0  0  0  0  0  0  0  0  0  0  0
    4.6293   -0.3421   -2.0233 H   0  0  0  0  0  0  0  0  0  0  0  0
    5.5408   -1.8525   -1.7726 H   0  0  0  0  0  0  0  0  0  0  0  0
    8.0426    0.9670   -2.7895 H   0  0  0  0  0  0  0  0  0  0  0  0
    6.3991    1.6520   -2.7427 H   0  0  0  0  0  0  0  0  0  0  0  0
    5.8119   -0.2648   -4.1961 H   0  0  0  0  0  0  0  0  0  0  0  0
    7.1660   -1.2383   -3.5641 H   0  0  0  0  0  0  0  0  0  0  0  0
    6.4448   -0.6388    1.1632 H   0  0  0  0  0  0  0  0  0  0  0  0
    7.1214    2.7350   -0.6553 H   0  0  0  0  0  0  0  0  0  0  0  0
    8.0390    1.5549    0.3167 H   0  0  0  0  0  0  0  0  0  0  0  0
    4.9986    1.4283    2.6439 H   0  0  0  0  0  0  0  0  0  0  0  0
    6.6785    0.8845    2.7835 H   0  0  0  0  0  0  0  0  0  0  0  0
    5.5518    3.1312    1.1293 H   0  0  0  0  0  0  0  0  0  0  0  0
    7.1056    3.0538    1.9827 H   0  0  0  0  0  0  0  0  0  0  0  0
    0.3663   -2.7195    0.8540 H   0  0  0  0  0  0  0  0  0  0  0  0
    1.0109    1.5078    0.2636 H   0  0  0  0  0  0  0  0  0  0  0  0
   -1.9565   -2.3665    0.5595 H   0  0  0  0  0  0  0  0  0  0  0  0
   -3.3647    0.9810   -0.1432 H   0  0  0  0  0  0  0  0  0  0  0  0
   -6.3234   -2.2460   -0.8965 H   0  0  0  0  0  0  0  0  0  0  0  0
   -5.0831    1.5780    0.7140 H   0  0  0  0  0  0  0  0  0  0  0  0
   -8.5909   -1.3532   -1.2135 H   0  0  0  0  0  0  0  0  0  0  0  0
   -7.2654    2.4533    0.3786 H   0  0  0  0  0  0  0  0  0  0  0  0
   -9.4412    2.6045    0.8212 H   0  0  0  0  0  0  0  0  0  0  0  0
   -8.9873    3.1453   -0.8553 H   0  0  0  0  0  0  0  0  0  0  0  0
  -10.6394    2.6789   -0.4661 H   0  0  0  0  0  0  0  0  0  0  0  0
  1  6  1  0  0  0  0
  1 17  1  0  0  0  0
  2 24  2  0  0  0  0
  3 30  1  0  0  0  0
  3 31  1  0  0  0  0
  4  9  1  0  0  0  0
  4 13  1  0  0  0  0
  4 14  1  0  0  0  0
  5 17  2  0  0  0  0
  5 18  1  0  0  0  0
  6 18  2  0  0  0  0
  7 21  1  0  0  0  0
  7 23  2  0  0  0  0
  8 23  1  0  0  0  0
  8 24  1  0  0  0  0
  8 49  1  0  0  0  0
  9 10  1  0  0  0  0
  9 11  1  0  0  0  0
  9 32  1  0  0  0  0
 10 12  1  0  0  0  0
 10 33  1  0  0  0  0
 10 34  1  0  0  0  0
 11 12  1  0  0  0  0
 11 35  1  0  0  0  0
 11 36  1  0  0  0  0
 12 37  1  0  0  0  0
 12 38  1  0  0  0  0
 13 15  1  0  0  0  0
 13 17  1  0  0  0  0
 13 39  1  0  0  0  0
 14 16  1  0  0  0  0
 14 40  1  0  0  0  0
 14 41  1  0  0  0  0
 15 16  1  0  0  0  0
 15 42  1  0  0  0  0
 15 43  1  0  0  0  0
 16 44  1  0  0  0  0
 16 45  1  0  0  0  0
 18 19  1  0  0  0  0
 19 20  1  0  0  0  0
 19 21  2  0  0  0  0
 20 22  2  0  0  0  0
 20 46  1  0  0  0  0
 21 47  1  0  0  0  0
 22 23  1  0  0  0  0
 22 48  1  0  0  0  0
 24 25  1  0  0  0  0
 25 26  2  0  0  0  0
 25 27  1  0  0  0  0
 26 28  1  0  0  0  0
 26 50  1  0  0  0  0
 27 29  2  0  0  0  0
 27 51  1  0  0  0  0
 28 30  2  0  0  0  0
 28 52  1  0  0  0  0
 29 30  1  0  0  0  0
 29 53  1  0  0  0  0
 31 54  1  0  0  0  0
 31 55  1  0  0  0  0
 31 56  1  0  0  0  0
M  END
> <PUBCHEM_COMPOUND_CID>
51136901

> <PUBCHEM_CONFORMER_RMSD>
1

> <PUBCHEM_CONFORMER_DIVERSEORDER>
2
12
8
4
5
10
9
1
11
7
6
3

> <PUBCHEM_MMFF94_PARTIAL_CHARGES>
34
1 -0.02
13 0.45
14 0.27
17 0.3
18 0.46
19 0.05
2 -0.57
20 -0.15
21 0.16
22 -0.15
23 0.43
24 0.54
25 0.09
26 -0.15
27 -0.15
28 -0.15
29 -0.15
3 -0.36
30 0.08
31 0.28
4 -0.75
46 0.15
47 0.15
48 0.15
49 0.37
5 -0.57
50 0.15
51 0.15
52 0.15
53 0.15
6 -0.41
7 -0.62
8 -0.55
9 0.21

> <PUBCHEM_EFFECTIVE_ROTOR_COUNT>
8.8

> <PUBCHEM_PHARMACOPHORE_FEATURES>
10
1 2 acceptor
1 3 acceptor
1 4 cation
1 8 donor
3 5 6 18 cation
4 9 10 11 12 rings
5 1 5 6 17 18 rings
5 4 13 14 15 16 rings
6 25 26 27 28 29 30 rings
6 7 19 20 21 22 23 rings

> <PUBCHEM_HEAVY_ATOM_COUNT>
31

> <PUBCHEM_ATOM_DEF_STEREO_COUNT>
1

> <PUBCHEM_ATOM_UDEF_STEREO_COUNT>
0

> <PUBCHEM_BOND_DEF_STEREO_COUNT>
0

> <PUBCHEM_BOND_UDEF_STEREO_COUNT>
0

> <PUBCHEM_ISOTOPIC_ATOM_COUNT>
0

> <PUBCHEM_COMPONENT_COUNT>
1

> <PUBCHEM_CACTVS_TAUTO_COUNT>
14

> <PUBCHEM_CONFORMER_ID>
030C498500000002

> <PUBCHEM_MMFF94_ENERGY>
92.7611

> <PUBCHEM_FEATURE_SELFOVERLAP>
50.748

> <PUBCHEM_SHAPE_FINGERPRINT>
10 15 14996285820850517563
10066227 49 16128665119408151791
10454371 7 17988365880216576545
10816530 90 18113622313482390420
10906281 52 17821739329063403290
11181472 205 17773885212242956033
11211813 74 18411697677677744865
11315181 36 18131628994652494537
11386260 185 17560804364169739912
11408170 132 18340207384352645037
11456790 92 14346065439215530652
11578821 258 18113613466172151221
12082328 90 16487258768814179665
12089408 11 18410567363509463987
12133447 93 18339365158968580045
125118 31 16515678927197359573
12539765 74 18041001709092863027
13383665 225 18189632556900272277
13553643 46 15357687583787452871
13782708 43 12751240293961863114
14026016 60 16343427189469990126
14251764 18 18113896074792392843
14537116 161 18060701710804761632
14849402 71 15792025514334007431
150020 25 17989494021425687599
15152005 1 14833345761737521836
15183329 4 17967255312211711405
15198563 99 17346325843385330345
15352257 5 16272210807673908854
15461852 350 17418083352990595373
15554971 5 17968084335869544531
1577012 14 16732986470020795310
16994733 274 17822285752599886937
1754908 1 13045946794244987501
1754911 235 18272649052362819613
195137 175 18343584032581704081
20157964 124 15502372336229868914
21057603 40 16558754490244687452
21095123 293 17676491614748059677
21360442 33 17131280056790266158
21360442 67 17704072910774781294
21792934 111 18338783543007422232
22149856 69 17822849779935913429
22956985 138 12317249818244928508
23523766 6 18048879590522740402
23576562 1 17986380295508004877
27425 322 18199183074640923798
3178227 256 14417853631355671001
34797466 226 17988924505132018920
3633792 109 17989491818133851243
3711267 37 18336273379574046369
4073 2 18186801383901263075
4340502 62 15285633283652005802
45377200 153 16988273301010645031
504579 68 18202567267481434987
5470011 282 16845570950288059601
5758199 1 18186798076570079899
59682541 52 17203615887272351350
60111433 81 17825399737324300116
6081469 158 14405182851268399601
68570916 9 14779840415455557483
9831232 110 17417818279808816486
9962374 69 10807928272186692242

> <PUBCHEM_SHAPE_MULTIPOLES>
595.45
31.23
2.08
1.85
42.35
0.78
1.34
13.77
14.4
-0.32
-0.29
-5.58
-0.54
2.78

> <PUBCHEM_SHAPE_SELFOVERLAP>
1297.96

> <PUBCHEM_SHAPE_VOLUME>
324.9

> <PUBCHEM_COORDINATE_TYPE>
2
5
10

$$$$
