75536968
  -OEChem-12032416343D

 34 35  0     1  0  0  0  0  0999 V2000
    4.5337   -0.6970    0.3339 O   0  0  0  0  0  0  0  0  0  0  0  0
   -2.2754   -1.9117   -0.0524 O   0  0  0  0  0  0  0  0  0  0  0  0
    2.2198   -0.2778    0.2310 N   0  0  0  0  0  0  0  0  0  0  0  0
   -0.4347   -0.5898   -0.5375 N   0  0  0  0  0  0  0  0  0  0  0  0
    3.6404    1.4563    0.0680 N   0  0  0  0  0  0  0  0  0  0  0  0
   -2.5717    0.3577   -0.1821 N   0  0  0  0  0  0  0  0  0  0  0  0
    1.3661    0.8981    0.2069 C   0  0  2  0  0  0  0  0  0  0  0  0
    0.2315    0.7040   -0.7942 C   0  0  0  0  0  0  0  0  0  0  0  0
    1.6308   -1.5994    0.3594 C   0  0  0  0  0  0  0  0  0  0  0  0
    2.3296    2.0329   -0.1268 C   0  0  0  0  0  0  0  0  0  0  0  0
    0.4672   -1.7508   -0.6198 C   0  0  0  0  0  0  0  0  0  0  0  0
    3.5780    0.0594    0.2279 C   0  0  0  0  0  0  0  0  0  0  0  0
   -1.7926   -0.7907   -0.2461 C   0  0  0  0  0  0  0  0  0  0  0  0
   -3.9862    0.3079    0.1135 C   0  0  0  0  0  0  0  0  0  0  0  0
   -4.2203    0.3624    1.6181 C   0  0  0  0  0  0  0  0  0  0  0  0
   -4.7162    1.4385   -0.5999 C   0  0  0  0  0  0  0  0  0  0  0  0
    0.9656    1.0195    1.2215 H   0  0  0  0  0  0  0  0  0  0  0  0
   -0.4429    1.5583   -0.7642 H   0  0  0  0  0  0  0  0  0  0  0  0
    0.6227    0.6481   -1.8182 H   0  0  0  0  0  0  0  0  0  0  0  0
    1.2740   -1.6895    1.3917 H   0  0  0  0  0  0  0  0  0  0  0  0
    2.3954   -2.3643    0.1936 H   0  0  0  0  0  0  0  0  0  0  0  0
    2.2605    2.3626   -1.1680 H   0  0  0  0  0  0  0  0  0  0  0  0
    2.2082    2.8951    0.5344 H   0  0  0  0  0  0  0  0  0  0  0  0
    0.8402   -1.7917   -1.6503 H   0  0  0  0  0  0  0  0  0  0  0  0
   -0.0661   -2.6858   -0.4241 H   0  0  0  0  0  0  0  0  0  0  0  0
    4.5088    1.9791    0.0137 H   0  0  0  0  0  0  0  0  0  0  0  0
   -2.1500    1.2755   -0.2019 H   0  0  0  0  0  0  0  0  0  0  0  0
   -4.3848   -0.6426   -0.2609 H   0  0  0  0  0  0  0  0  0  0  0  0
   -3.8247    1.2897    2.0475 H   0  0  0  0  0  0  0  0  0  0  0  0
   -3.7219   -0.4720    2.1235 H   0  0  0  0  0  0  0  0  0  0  0  0
   -5.2889    0.3073    1.8504 H   0  0  0  0  0  0  0  0  0  0  0  0
   -4.3560    2.4183   -0.2668 H   0  0  0  0  0  0  0  0  0  0  0  0
   -4.5579    1.3802   -1.6824 H   0  0  0  0  0  0  0  0  0  0  0  0
   -5.7937    1.3895   -0.4119 H   0  0  0  0  0  0  0  0  0  0  0  0
  1 12  2  0  0  0  0
  2 13  2  0  0  0  0
  3  7  1  0  0  0  0
  3  9  1  0  0  0  0
  3 12  1  0  0  0  0
  4  8  1  0  0  0  0
  4 11  1  0  0  0  0
  4 13  1  0  0  0  0
  5 10  1  0  0  0  0
  5 12  1  0  0  0  0
  5 26  1  0  0  0  0
  6 13  1  0  0  0  0
  6 14  1  0  0  0  0
  6 27  1  0  0  0  0
  7  8  1  0  0  0  0
  7 10  1  0  0  0  0
  7 17  1  0  0  0  0
  8 18  1  0  0  0  0
  8 19  1  0  0  0  0
  9 11  1  0  0  0  0
  9 20  1  0  0  0  0
  9 21  1  0  0  0  0
 10 22  1  0  0  0  0
 10 23  1  0  0  0  0
 11 24  1  0  0  0  0
 11 25  1  0  0  0  0
 14 15  1  0  0  0  0
 14 16  1  0  0  0  0
 14 28  1  0  0  0  0
 15 29  1  0  0  0  0
 15 30  1  0  0  0  0
 15 31  1  0  0  0  0
 16 32  1  0  0  0  0
 16 33  1  0  0  0  0
 16 34  1  0  0  0  0
M  END
> <PUBCHEM_COMPOUND_CID>
75536968

> <PUBCHEM_CONFORMER_RMSD>
0.6

> <PUBCHEM_CONFORMER_DIVERSEORDER>
1
13
7
9
6
12
4
8
3
10
11
5
2

> <PUBCHEM_MMFF94_PARTIAL_CHARGES>
16
1 -0.57
10 0.3
11 0.3
12 0.69
13 0.69
14 0.3
2 -0.57
26 0.37
27 0.37
3 -0.66
4 -0.66
5 -0.73
6 -0.73
7 0.3
8 0.3
9 0.3

> <PUBCHEM_EFFECTIVE_ROTOR_COUNT>
4.2

> <PUBCHEM_PHARMACOPHORE_FEATURES>
7
1 1 acceptor
1 2 acceptor
1 5 donor
1 6 donor
3 14 15 16 hydrophobe
5 3 5 7 10 12 rings
6 3 4 7 8 9 11 rings

> <PUBCHEM_HEAVY_ATOM_COUNT>
16

> <PUBCHEM_ATOM_DEF_STEREO_COUNT>
1

> <PUBCHEM_ATOM_UDEF_STEREO_COUNT>
0

> <PUBCHEM_BOND_DEF_STEREO_COUNT>
0

> <PUBCHEM_BOND_UDEF_STEREO_COUNT>
0

> <PUBCHEM_ISOTOPIC_ATOM_COUNT>
0

> <PUBCHEM_COMPONENT_COUNT>
1

> <PUBCHEM_CACTVS_TAUTO_COUNT>
4

> <PUBCHEM_CONFORMER_ID>
04809A4800000001

> <PUBCHEM_MMFF94_ENERGY>
29.9718

> <PUBCHEM_FEATURE_SELFOVERLAP>
35.618

> <PUBCHEM_SHAPE_FINGERPRINT>
10465860 228 18201167567535679947
10980938 120 18412261718373108583
11132069 177 18410284835226574568
11471102 20 18411413995097926036
11543360 7 14692281889457079897
12251169 10 18408603656188392287
13380535 76 18342457036893815231
13675066 3 17967535679176504005
13705890 14 11239997858246724793
13922767 16 18413666907118353684
14123260 362 17489879219757473673
14897335 6 18343017792234797959
15196674 1 18410571824851512100
15375462 189 17968085400836486434
15775835 57 18341334486713043817
16945 1 18261936493319493886
17834072 8 18202287987633783564
18186145 218 18271814565723149452
18511873 20 18272367598707600670
19422 9 18264486355183935630
20233049 118 17561080298052368144
20645477 70 18265888073685458431
20871999 31 12535341269623166113
21524375 3 18201999945509931695
22485316 2 11458421353932498851
231179 274 18408321055924955941
23402539 116 14548733976092243672
23557571 272 13686291358307594483
2748010 2 17906718221027162758
293599 30 18339646741266276876
474 4 18271808982661024243
5104073 3 18339074999208592954
53655031 270 18343301435900863736
602551 16 15791742939466003473
6430166 295 18412259536508649204

> <PUBCHEM_SHAPE_MULTIPOLES>
297.61
8.84
1.89
0.91
4.43
0.11
0.21
-2.92
1.71
-0.58
-0.2
0.8
-0.05
0.02

> <PUBCHEM_SHAPE_SELFOVERLAP>
604.196

> <PUBCHEM_SHAPE_VOLUME>
173.6

> <PUBCHEM_COORDINATE_TYPE>
2
5
10

$$$$
