11911719
  -OEChem-12032416283D

 57 61  0     1  0  0  0  0  0999 V2000
    2.6642   -3.0721    1.3979 O   0  0  0  0  0  0  0  0  0  0  0  0
    1.2984   -0.2965    1.8067 O   0  0  0  0  0  0  0  0  0  0  0  0
    5.9286    0.7783    1.3785 O   0  0  0  0  0  0  0  0  0  0  0  0
    4.5263    1.9508   -1.6035 O   0  0  0  0  0  0  0  0  0  0  0  0
   -0.0742   -3.1290   -0.0429 N   0  0  0  0  0  0  0  0  0  0  0  0
    3.9745    0.1599    0.2932 N   0  0  0  0  0  0  0  0  0  0  0  0
   -1.8985   -1.6775   -0.3103 N   0  0  0  0  0  0  0  0  0  0  0  0
   -1.5236   -3.4908   -1.8526 N   0  0  0  0  0  0  0  0  0  0  0  0
   -5.8327    3.1472    0.8847 N   0  0  0  0  0  0  0  0  0  0  0  0
    1.2586   -1.2662    0.7463 C   0  0  1  0  0  0  0  0  0  0  0  0
    2.6489   -1.8594    0.6267 C   0  0  1  0  0  0  0  0  0  0  0  0
    0.3897   -2.4374    1.1398 C   0  0  2  0  0  0  0  0  0  0  0  0
    3.5472   -0.8219    1.2604 C   0  0  2  0  0  0  0  0  0  0  0  0
    1.3498   -3.3170    1.9197 C   0  0  0  0  0  0  0  0  0  0  0  0
    2.6398   -0.2031    2.3087 C   0  0  0  0  0  0  0  0  0  0  0  0
   -1.1989   -2.7546   -0.7567 C   0  0  0  0  0  0  0  0  0  0  0  0
    5.1472    0.8875    0.4372 C   0  0  0  0  0  0  0  0  0  0  0  0
    5.4327    1.8787   -0.6321 C   0  0  0  0  0  0  0  0  0  0  0  0
   -2.9891   -1.3405   -1.0296 C   0  0  0  0  0  0  0  0  0  0  0  0
    6.4673    2.7117   -0.7641 C   0  0  0  0  0  0  0  0  0  0  0  0
   -2.6258   -3.0982   -2.5245 C   0  0  0  0  0  0  0  0  0  0  0  0
   -3.4047   -2.0204   -2.1563 C   0  0  0  0  0  0  0  0  0  0  0  0
   -3.7163   -0.1942   -0.5394 C   0  0  0  0  0  0  0  0  0  0  0  0
    6.1989    3.4077   -1.9668 C   0  0  0  0  0  0  0  0  0  0  0  0
    5.0072    2.9088   -2.4389 C   0  0  0  0  0  0  0  0  0  0  0  0
   -5.0951   -0.1000   -0.7404 C   0  0  0  0  0  0  0  0  0  0  0  0
   -3.0432    0.8261    0.1363 C   0  0  0  0  0  0  0  0  0  0  0  0
   -5.1223    2.0263    0.4063 C   0  0  0  0  0  0  0  0  0  0  0  0
   -5.7973    1.0089   -0.2681 C   0  0  0  0  0  0  0  0  0  0  0  0
   -3.7453    1.9349    0.6086 C   0  0  0  0  0  0  0  0  0  0  0  0
   -5.3895    3.8428    2.0765 C   0  0  0  0  0  0  0  0  0  0  0  0
   -7.0228    3.6092    0.1987 C   0  0  0  0  0  0  0  0  0  0  0  0
    0.9417   -0.7415   -0.1607 H   0  0  0  0  0  0  0  0  0  0  0  0
    2.9175   -2.1210   -0.4019 H   0  0  0  0  0  0  0  0  0  0  0  0
   -0.4529   -2.1649    1.7856 H   0  0  0  0  0  0  0  0  0  0  0  0
    4.4332   -1.2584    1.7341 H   0  0  0  0  0  0  0  0  0  0  0  0
    1.1275   -4.3865    1.8534 H   0  0  0  0  0  0  0  0  0  0  0  0
    1.3650   -3.0354    2.9785 H   0  0  0  0  0  0  0  0  0  0  0  0
    2.6765   -0.7729    3.2438 H   0  0  0  0  0  0  0  0  0  0  0  0
    2.8693    0.8428    2.5341 H   0  0  0  0  0  0  0  0  0  0  0  0
    0.4687   -3.9004   -0.4142 H   0  0  0  0  0  0  0  0  0  0  0  0
    3.3677    0.3579   -0.4978 H   0  0  0  0  0  0  0  0  0  0  0  0
    7.3186    2.8349   -0.1104 H   0  0  0  0  0  0  0  0  0  0  0  0
   -2.8699   -3.6905   -3.4000 H   0  0  0  0  0  0  0  0  0  0  0  0
   -4.2635   -1.7461   -2.7553 H   0  0  0  0  0  0  0  0  0  0  0  0
    6.7987    4.1768   -2.4315 H   0  0  0  0  0  0  0  0  0  0  0  0
    4.4007    3.1186   -3.3079 H   0  0  0  0  0  0  0  0  0  0  0  0
   -5.6644   -0.8820   -1.2359 H   0  0  0  0  0  0  0  0  0  0  0  0
   -1.9683    0.7923    0.2989 H   0  0  0  0  0  0  0  0  0  0  0  0
   -6.8715    1.0413   -0.4263 H   0  0  0  0  0  0  0  0  0  0  0  0
   -3.1882    2.7164    1.1174 H   0  0  0  0  0  0  0  0  0  0  0  0
   -6.1960    4.4501    2.5027 H   0  0  0  0  0  0  0  0  0  0  0  0
   -5.0772    3.1409    2.8579 H   0  0  0  0  0  0  0  0  0  0  0  0
   -4.5575    4.5163    1.8458 H   0  0  0  0  0  0  0  0  0  0  0  0
   -7.8891    2.9962    0.4686 H   0  0  0  0  0  0  0  0  0  0  0  0
   -7.2560    4.6457    0.4673 H   0  0  0  0  0  0  0  0  0  0  0  0
   -6.8929    3.5883   -0.8892 H   0  0  0  0  0  0  0  0  0  0  0  0
  1 11  1  0  0  0  0
  1 14  1  0  0  0  0
  2 10  1  0  0  0  0
  2 15  1  0  0  0  0
  3 17  2  0  0  0  0
  4 18  1  0  0  0  0
  4 25  1  0  0  0  0
  5 12  1  0  0  0  0
  5 16  1  0  0  0  0
  5 41  1  0  0  0  0
  6 13  1  0  0  0  0
  6 17  1  0  0  0  0
  6 42  1  0  0  0  0
  7 16  1  0  0  0  0
  7 19  2  0  0  0  0
  8 16  2  0  0  0  0
  8 21  1  0  0  0  0
  9 28  1  0  0  0  0
  9 31  1  0  0  0  0
  9 32  1  0  0  0  0
 10 11  1  0  0  0  0
 10 12  1  0  0  0  0
 10 33  1  0  0  0  0
 11 13  1  0  0  0  0
 11 34  1  0  0  0  0
 12 14  1  0  0  0  0
 12 35  1  0  0  0  0
 13 15  1  0  0  0  0
 13 36  1  0  0  0  0
 14 37  1  0  0  0  0
 14 38  1  0  0  0  0
 15 39  1  0  0  0  0
 15 40  1  0  0  0  0
 17 18  1  0  0  0  0
 18 20  2  0  0  0  0
 19 22  1  0  0  0  0
 19 23  1  0  0  0  0
 20 24  1  0  0  0  0
 20 43  1  0  0  0  0
 21 22  2  0  0  0  0
 21 44  1  0  0  0  0
 22 45  1  0  0  0  0
 23 26  2  0  0  0  0
 23 27  1  0  0  0  0
 24 25  2  0  0  0  0
 24 46  1  0  0  0  0
 25 47  1  0  0  0  0
 26 29  1  0  0  0  0
 26 48  1  0  0  0  0
 27 30  2  0  0  0  0
 27 49  1  0  0  0  0
 28 29  2  0  0  0  0
 28 30  1  0  0  0  0
 29 50  1  0  0  0  0
 30 51  1  0  0  0  0
 31 52  1  0  0  0  0
 31 53  1  0  0  0  0
 31 54  1  0  0  0  0
 32 55  1  0  0  0  0
 32 56  1  0  0  0  0
 32 57  1  0  0  0  0
M  END
> <PUBCHEM_COMPOUND_CID>
11911719

> <PUBCHEM_CONFORMER_RMSD>
1

> <PUBCHEM_CONFORMER_DIVERSEORDER>
1
5
22
58
18
48
26
40
52
55
37
43
19
57
21
13
38
33
7
62
47
42
29
41
23
9
30
63
27
54
6
44
25
12
32
20
24
49
36
15
11
50
53
35
10
59
17
60
28
34
61
31
46
56
45
8
39
16
3
51
14
4
2

> <PUBCHEM_MMFF94_PARTIAL_CHARGES>
42
1 -0.56
10 0.28
11 0.28
12 0.37
13 0.3
14 0.28
15 0.28
16 0.72
17 0.71
18 0.05
19 0.31
2 -0.56
20 -0.15
21 0.16
22 -0.15
24 -0.15
25 -0.01
26 -0.15
27 -0.15
28 0.1
29 -0.15
3 -0.57
30 -0.15
31 0.37
32 0.37
4 -0.28
41 0.4
42 0.37
43 0.15
44 0.15
45 0.15
46 0.15
47 0.15
48 0.15
49 0.15
5 -0.87
50 0.15
51 0.15
6 -0.73
7 -0.62
8 -0.62
9 -0.84

> <PUBCHEM_EFFECTIVE_ROTOR_COUNT>
8.2

> <PUBCHEM_PHARMACOPHORE_FEATURES>
14
1 1 acceptor
1 2 acceptor
1 3 acceptor
1 4 acceptor
1 5 donor
1 6 donor
1 7 acceptor
1 9 cation
4 5 7 8 16 cation
5 1 10 11 12 14 rings
5 2 10 11 13 15 rings
5 4 18 20 24 25 rings
6 23 26 27 28 29 30 rings
6 7 8 16 19 21 22 rings

> <PUBCHEM_HEAVY_ATOM_COUNT>
32

> <PUBCHEM_ATOM_DEF_STEREO_COUNT>
4

> <PUBCHEM_ATOM_UDEF_STEREO_COUNT>
0

> <PUBCHEM_BOND_DEF_STEREO_COUNT>
0

> <PUBCHEM_BOND_UDEF_STEREO_COUNT>
0

> <PUBCHEM_ISOTOPIC_ATOM_COUNT>
0

> <PUBCHEM_COMPONENT_COUNT>
1

> <PUBCHEM_CACTVS_TAUTO_COUNT>
6

> <PUBCHEM_CONFORMER_ID>
00B5C22700000001

> <PUBCHEM_MMFF94_ENERGY>
101.0468

> <PUBCHEM_FEATURE_SELFOVERLAP>
71.755

> <PUBCHEM_SHAPE_FINGERPRINT>
100830 2 18408609153652313428
10794284 68 18198352952084327823
10917259 128 18269260431195216560
11049842 53 17987501646597055790
11374522 72 18188771627197292389
11399939 17 16904982764664273664
11410812 94 18129949009489496852
11505856 67 18337670936183116111
11801155 225 18341058427654658184
12061779 8 18114474456432336876
12104220 4 18261690202725721324
12655364 74 17322706383383639220
12975358 362 17983027644148595945
13885169 86 18259706717750020812
14114211 68 17559964230022134411
14187579 7 17981323709739948316
14251764 75 18408891711108046825
14400156 188 17034743249505067659
14664723 55 18409732858862107340
14840074 17 17895192224815978381
14849402 71 18042683910638996530
15163728 17 18340493360851182294
15198563 99 17629175360465693031
15357212 105 18339936934794535283
15513586 35 17896881160828769533
16120349 67 18338527425338304202
16991971 28 17483938743571148559
16992727 255 18343864416336099816
1768 23 18334299777238655376
19304671 126 16200137786430004129
19309040 13 18334306361096050195
19319366 153 18334289834062246555
21033650 10 18127695035836251754
21458453 9 14563106895291104876
21772528 278 17458920335147013576
21774942 28 18267304412957490924
21792964 463 18262779814896640903
245318 6 18270121189320835449
24771750 20 17631740348878208895
27425 322 18334297522444212931
3388396 114 17115789371503521884
3552219 110 18116427245286931711
3610482 184 18339081613484647718
38570 142 18261402152264719598
4258327 124 18187918496288355727
5252454 2 18269817766760237299
57634706 229 17677627530565459082
57724786 102 18263358109956203291
5911458 16 18335423482185302636
6034566 193 18114462374081885334
6058803 2 18266433499856658139
6700243 42 17057795497689686318
7288768 16 17676770975777862706
7808743 9 18272921722567013019

> <PUBCHEM_SHAPE_MULTIPOLES>
610.16
17.78
5.69
2.36
3.5
0.73
-0.49
26.7
-2.62
-2.36
-0.81
1.29
-0.42
-8.21

> <PUBCHEM_SHAPE_SELFOVERLAP>
1338.745

> <PUBCHEM_SHAPE_VOLUME>
330.3

> <PUBCHEM_COORDINATE_TYPE>
2
5
10

$$$$
