45783788
  -OEChem-12032416273D

 53 56  0     1  0  0  0  0  0999 V2000
   -1.8715   -1.7800    1.8658 O   0  0  0  0  0  0  0  0  0  0  0  0
    2.5875    2.9419   -1.4223 O   0  0  0  0  0  0  0  0  0  0  0  0
   -3.7969   -0.0162   -0.7201 N   0  0  1  0  0  0  0  0  0  0  0  0
   -1.1225   -1.2230   -0.1702 N   0  0  0  0  0  0  0  0  0  0  0  0
   -0.4851   -1.9779    1.8933 N   0  0  0  0  0  0  0  0  0  0  0  0
    1.5733    3.1204    0.6985 N   0  0  0  0  0  0  0  0  0  0  0  0
    3.5650   -2.1510    0.7188 N   0  0  0  0  0  0  0  0  0  0  0  0
    5.2177   -1.8340   -0.9674 N   0  0  0  0  0  0  0  0  0  0  0  0
   -3.6209   -1.0428    0.3265 C   0  0  1  0  0  0  0  0  0  0  0  0
   -4.3814   -2.2735   -0.2008 C   0  0  0  0  0  0  0  0  0  0  0  0
   -5.0010   -1.8244   -1.5166 C   0  0  0  0  0  0  0  0  0  0  0  0
   -5.0655   -0.3162   -1.3842 C   0  0  0  0  0  0  0  0  0  0  0  0
   -3.7579    1.3452   -0.2018 C   0  0  0  0  0  0  0  0  0  0  0  0
   -2.1635   -1.3358    0.6153 C   0  0  0  0  0  0  0  0  0  0  0  0
   -2.3472    1.8143    0.0363 C   0  0  0  0  0  0  0  0  0  0  0  0
   -1.9533    2.2197    1.3115 C   0  0  0  0  0  0  0  0  0  0  0  0
   -1.4343    1.8440   -1.0179 C   0  0  0  0  0  0  0  0  0  0  0  0
   -0.1160   -1.6279    0.6575 C   0  0  0  0  0  0  0  0  0  0  0  0
   -0.6467    2.6550    1.5325 C   0  0  0  0  0  0  0  0  0  0  0  0
   -0.1276    2.2794   -0.7972 C   0  0  0  0  0  0  0  0  0  0  0  0
    0.2661    2.6848    0.4781 C   0  0  0  0  0  0  0  0  0  0  0  0
    1.2487   -1.6729    0.2179 C   0  0  0  0  0  0  0  0  0  0  0  0
    1.5972   -1.3029   -1.0763 C   0  0  0  0  0  0  0  0  0  0  0  0
    2.2608   -2.0859    1.0693 C   0  0  0  0  0  0  0  0  0  0  0  0
    2.9286   -1.3566   -1.4740 C   0  0  0  0  0  0  0  0  0  0  0  0
    3.8657   -1.7837   -0.5469 C   0  0  0  0  0  0  0  0  0  0  0  0
    2.6200    3.2188   -0.2277 C   0  0  0  0  0  0  0  0  0  0  0  0
    3.8844    3.7368    0.4107 C   0  0  0  0  0  0  0  0  0  0  0  0
    6.2763   -2.2557   -0.1088 C   0  0  0  0  0  0  0  0  0  0  0  0
   -4.1038   -0.7304    1.2632 H   0  0  0  0  0  0  0  0  0  0  0  0
   -3.7482   -3.1548   -0.3497 H   0  0  0  0  0  0  0  0  0  0  0  0
   -5.1762   -2.5456    0.5045 H   0  0  0  0  0  0  0  0  0  0  0  0
   -5.9841   -2.2735   -1.6856 H   0  0  0  0  0  0  0  0  0  0  0  0
   -4.3483   -2.1077   -2.3517 H   0  0  0  0  0  0  0  0  0  0  0  0
   -5.1448    0.1701   -2.3613 H   0  0  0  0  0  0  0  0  0  0  0  0
   -5.9262   -0.0248   -0.7688 H   0  0  0  0  0  0  0  0  0  0  0  0
   -4.1869    2.0376   -0.9399 H   0  0  0  0  0  0  0  0  0  0  0  0
   -4.3769    1.4555    0.6983 H   0  0  0  0  0  0  0  0  0  0  0  0
   -2.6532    2.1998    2.1425 H   0  0  0  0  0  0  0  0  0  0  0  0
   -1.7286    1.5351   -2.0176 H   0  0  0  0  0  0  0  0  0  0  0  0
   -0.3532    2.9671    2.5315 H   0  0  0  0  0  0  0  0  0  0  0  0
    0.5214    2.2734   -1.6616 H   0  0  0  0  0  0  0  0  0  0  0  0
    1.7827    3.3985    1.6551 H   0  0  0  0  0  0  0  0  0  0  0  0
    0.8535   -0.9688   -1.7951 H   0  0  0  0  0  0  0  0  0  0  0  0
    2.0730   -2.3906    2.0946 H   0  0  0  0  0  0  0  0  0  0  0  0
    3.2069   -1.0691   -2.4827 H   0  0  0  0  0  0  0  0  0  0  0  0
    5.4538   -1.3447   -1.8240 H   0  0  0  0  0  0  0  0  0  0  0  0
    4.6829    3.7858   -0.3348 H   0  0  0  0  0  0  0  0  0  0  0  0
    3.7118    4.7388    0.8134 H   0  0  0  0  0  0  0  0  0  0  0  0
    4.1937    3.0663    1.2175 H   0  0  0  0  0  0  0  0  0  0  0  0
    7.2291   -2.2201   -0.6462 H   0  0  0  0  0  0  0  0  0  0  0  0
    6.3621   -1.6025    0.7657 H   0  0  0  0  0  0  0  0  0  0  0  0
    6.1254   -3.2857    0.2306 H   0  0  0  0  0  0  0  0  0  0  0  0
  1  5  1  0  0  0  0
  1 14  1  0  0  0  0
  2 27  2  0  0  0  0
  3  9  1  0  0  0  0
  3 12  1  0  0  0  0
  3 13  1  0  0  0  0
  4 14  2  0  0  0  0
  4 18  1  0  0  0  0
  5 18  2  0  0  0  0
  6 21  1  0  0  0  0
  6 27  1  0  0  0  0
  6 43  1  0  0  0  0
  7 24  1  0  0  0  0
  7 26  2  0  0  0  0
  8 26  1  0  0  0  0
  8 29  1  0  0  0  0
  8 47  1  0  0  0  0
  9 10  1  0  0  0  0
  9 14  1  0  0  0  0
  9 30  1  0  0  0  0
 10 11  1  0  0  0  0
 10 31  1  0  0  0  0
 10 32  1  0  0  0  0
 11 12  1  0  0  0  0
 11 33  1  0  0  0  0
 11 34  1  0  0  0  0
 12 35  1  0  0  0  0
 12 36  1  0  0  0  0
 13 15  1  0  0  0  0
 13 37  1  0  0  0  0
 13 38  1  0  0  0  0
 15 16  2  0  0  0  0
 15 17  1  0  0  0  0
 16 19  1  0  0  0  0
 16 39  1  0  0  0  0
 17 20  2  0  0  0  0
 17 40  1  0  0  0  0
 18 22  1  0  0  0  0
 19 21  2  0  0  0  0
 19 41  1  0  0  0  0
 20 21  1  0  0  0  0
 20 42  1  0  0  0  0
 22 23  1  0  0  0  0
 22 24  2  0  0  0  0
 23 25  2  0  0  0  0
 23 44  1  0  0  0  0
 24 45  1  0  0  0  0
 25 26  1  0  0  0  0
 25 46  1  0  0  0  0
 27 28  1  0  0  0  0
 28 48  1  0  0  0  0
 28 49  1  0  0  0  0
 28 50  1  0  0  0  0
 29 51  1  0  0  0  0
 29 52  1  0  0  0  0
 29 53  1  0  0  0  0
M  END
> <PUBCHEM_COMPOUND_CID>
45783788

> <PUBCHEM_CONFORMER_RMSD>
1

> <PUBCHEM_CONFORMER_DIVERSEORDER>
1
51
58
66
17
22
69
36
27
19
10
62
48
7
41
68
45
60
31
29
42
20
40
3
34
5
54
61
49
56
2
59
4
46
47
32
30
37
53
55
50
43
57
11
65
13
38
70
39
28
52
67
8
44
33
16
6
12
9
64
63
23
15
35
14
21
18
25
24
26

> <PUBCHEM_MMFF94_PARTIAL_CHARGES>
36
1 -0.02
12 0.27
13 0.41
14 0.3
15 -0.14
16 -0.15
17 -0.15
18 0.46
19 -0.15
2 -0.57
20 -0.15
21 0.12
22 0.05
23 -0.15
24 0.16
25 -0.15
26 0.41
27 0.57
28 0.06
29 0.37
3 -0.81
39 0.15
4 -0.57
40 0.15
41 0.15
42 0.15
43 0.37
44 0.15
45 0.15
46 0.15
47 0.4
5 -0.41
6 -0.55
7 -0.62
8 -0.87
9 0.45

> <PUBCHEM_EFFECTIVE_ROTOR_COUNT>
8

> <PUBCHEM_PHARMACOPHORE_FEATURES>
10
1 2 acceptor
1 3 cation
1 6 donor
1 8 donor
3 4 5 18 cation
3 7 8 26 cation
5 1 4 5 14 18 rings
5 3 9 10 11 12 rings
6 15 16 17 19 20 21 rings
6 7 22 23 24 25 26 rings

> <PUBCHEM_HEAVY_ATOM_COUNT>
29

> <PUBCHEM_ATOM_DEF_STEREO_COUNT>
1

> <PUBCHEM_ATOM_UDEF_STEREO_COUNT>
0

> <PUBCHEM_BOND_DEF_STEREO_COUNT>
0

> <PUBCHEM_BOND_UDEF_STEREO_COUNT>
0

> <PUBCHEM_ISOTOPIC_ATOM_COUNT>
0

> <PUBCHEM_COMPONENT_COUNT>
1

> <PUBCHEM_CACTVS_TAUTO_COUNT>
16

> <PUBCHEM_CONFORMER_ID>
02BA9AEC00000001

> <PUBCHEM_MMFF94_ENERGY>
72.429

> <PUBCHEM_FEATURE_SELFOVERLAP>
50.747

> <PUBCHEM_SHAPE_FINGERPRINT>
107951 10 17099446123483441977
1100329 8 18268154158602743537
12107698 1 18342454824980253142
12156800 1 15576927947202409084
12166972 35 17967538960494894206
12645989 146 18270403764099915758
13761468 95 17325226034674299366
14784336 7 18115294597364156922
14790565 3 17476920152238108529
16090146 7 17703794662172512123
17492 54 17972587802552998997
18336668 15 18041290850891470588
20028762 73 16538766825395115535
20642791 239 18117828911889513305
20642791 35 18335127654208227197
20691752 17 17821440266743974821
20721686 56 18410012170071644536
20764821 26 18337688442311240584
20775438 99 17620166052003051895
20905425 154 18268715077025603653
21344244 246 18124585642501366839
22182313 1 17969790881042189955
23557571 272 18058165033798659503
23559900 14 18411128130469395017
238918 7 17978792647020960992
3298306 158 18050565441255303573
373842 8 18411134758696228944
392239 28 18265618672294073656
4280585 95 18337381631063773344
532947 4 18265330792634784102
59755656 215 17905034113175121735
7471813 234 18342174479453425374

> <PUBCHEM_SHAPE_MULTIPOLES>
555.18
10.2
4.9
1.51
3.71
4.18
0.16
-7.2
-3.68
4.32
0.56
-0.43
-0.24
-0.23

> <PUBCHEM_SHAPE_SELFOVERLAP>
1196.516

> <PUBCHEM_SHAPE_VOLUME>
306.5

> <PUBCHEM_COORDINATE_TYPE>
2
5
10

$$$$
