51137065
  -OEChem-12032416243D

 42 45  0     1  0  0  0  0  0999 V2000
   -6.9704   -0.0391    1.6757 F   0  0  0  0  0  0  0  0  0  0  0  0
   -7.2449   -1.3723   -0.0200 F   0  0  0  0  0  0  0  0  0  0  0  0
   -7.5985    0.7619   -0.2394 F   0  0  0  0  0  0  0  0  0  0  0  0
    4.2253   -1.3607    0.2371 O   0  0  0  0  0  0  0  0  0  0  0  0
   -0.3146   -0.1668   -0.2908 N   0  0  1  0  0  0  0  0  0  0  0  0
    3.8033    0.8603    0.0749 N   0  0  0  0  0  0  0  0  0  0  0  0
    1.8633   -0.7670    0.3385 C   0  0  1  0  0  0  0  0  0  0  0  0
    1.1241   -0.1695    1.5484 C   0  0  0  0  0  0  0  0  0  0  0  0
    1.0144   -0.3620   -0.8741 C   0  0  0  0  0  0  0  0  0  0  0  0
   -0.0759    0.5586    0.9569 C   0  0  0  0  0  0  0  0  0  0  0  0
   -1.2136    0.5485   -1.1844 C   0  0  0  0  0  0  0  0  0  0  0  0
    3.3106   -0.3513    0.2098 C   0  0  0  0  0  0  0  0  0  0  0  0
   -2.6557    0.3682   -0.7910 C   0  0  0  0  0  0  0  0  0  0  0  0
    5.4205   -0.7138    0.1051 C   0  0  0  0  0  0  0  0  0  0  0  0
    5.1584    0.6448    0.0061 C   0  0  0  0  0  0  0  0  0  0  0  0
   -3.3125   -0.8281   -1.0793 C   0  0  0  0  0  0  0  0  0  0  0  0
   -3.3347    1.3968   -0.1378 C   0  0  0  0  0  0  0  0  0  0  0  0
   -4.6483   -0.9959   -0.7146 C   0  0  0  0  0  0  0  0  0  0  0  0
   -4.6705    1.2291    0.2270 C   0  0  0  0  0  0  0  0  0  0  0  0
    6.6890   -1.2798    0.0717 C   0  0  0  0  0  0  0  0  0  0  0  0
    6.2332    1.5335   -0.1390 C   0  0  0  0  0  0  0  0  0  0  0  0
   -5.3273    0.0329   -0.0614 C   0  0  0  0  0  0  0  0  0  0  0  0
    7.7500   -0.3796   -0.0738 C   0  0  0  0  0  0  0  0  0  0  0  0
    7.5294    0.9994   -0.1770 C   0  0  0  0  0  0  0  0  0  0  0  0
   -6.7546   -0.1478    0.3314 C   0  0  0  0  0  0  0  0  0  0  0  0
    1.8304   -1.8614    0.4379 H   0  0  0  0  0  0  0  0  0  0  0  0
    0.7862   -0.9810    2.2051 H   0  0  0  0  0  0  0  0  0  0  0  0
    1.7448    0.5057    2.1469 H   0  0  0  0  0  0  0  0  0  0  0  0
    1.0116   -1.1479   -1.6372 H   0  0  0  0  0  0  0  0  0  0  0  0
    1.3898    0.5621   -1.3338 H   0  0  0  0  0  0  0  0  0  0  0  0
   -0.9321    0.5203    1.6376 H   0  0  0  0  0  0  0  0  0  0  0  0
    0.1836    1.6099    0.7773 H   0  0  0  0  0  0  0  0  0  0  0  0
   -0.9578    1.6139   -1.2628 H   0  0  0  0  0  0  0  0  0  0  0  0
   -1.1135    0.1548   -2.2059 H   0  0  0  0  0  0  0  0  0  0  0  0
   -2.7941   -1.6370   -1.5875 H   0  0  0  0  0  0  0  0  0  0  0  0
   -2.8341    2.3330    0.0943 H   0  0  0  0  0  0  0  0  0  0  0  0
   -5.1414   -1.9355   -0.9478 H   0  0  0  0  0  0  0  0  0  0  0  0
   -5.1910    2.0357    0.7364 H   0  0  0  0  0  0  0  0  0  0  0  0
    6.8490   -2.3476    0.1524 H   0  0  0  0  0  0  0  0  0  0  0  0
    6.0738    2.6036   -0.2200 H   0  0  0  0  0  0  0  0  0  0  0  0
    8.7684   -0.7594   -0.1071 H   0  0  0  0  0  0  0  0  0  0  0  0
    8.3783    1.6693   -0.2890 H   0  0  0  0  0  0  0  0  0  0  0  0
  1 25  1  0  0  0  0
  2 25  1  0  0  0  0
  3 25  1  0  0  0  0
  4 12  1  0  0  0  0
  4 14  1  0  0  0  0
  5  9  1  0  0  0  0
  5 10  1  0  0  0  0
  5 11  1  0  0  0  0
  6 12  2  0  0  0  0
  6 15  1  0  0  0  0
  7  8  1  0  0  0  0
  7  9  1  0  0  0  0
  7 12  1  0  0  0  0
  7 26  1  0  0  0  0
  8 10  1  0  0  0  0
  8 27  1  0  0  0  0
  8 28  1  0  0  0  0
  9 29  1  0  0  0  0
  9 30  1  0  0  0  0
 10 31  1  0  0  0  0
 10 32  1  0  0  0  0
 11 13  1  0  0  0  0
 11 33  1  0  0  0  0
 11 34  1  0  0  0  0
 13 16  2  0  0  0  0
 13 17  1  0  0  0  0
 14 15  1  0  0  0  0
 14 20  2  0  0  0  0
 15 21  2  0  0  0  0
 16 18  1  0  0  0  0
 16 35  1  0  0  0  0
 17 19  2  0  0  0  0
 17 36  1  0  0  0  0
 18 22  2  0  0  0  0
 18 37  1  0  0  0  0
 19 22  1  0  0  0  0
 19 38  1  0  0  0  0
 20 23  1  0  0  0  0
 20 39  1  0  0  0  0
 21 24  1  0  0  0  0
 21 40  1  0  0  0  0
 22 25  1  0  0  0  0
 23 24  2  0  0  0  0
 23 41  1  0  0  0  0
 24 42  1  0  0  0  0
M  END
> <PUBCHEM_COMPOUND_CID>
51137065

> <PUBCHEM_CONFORMER_RMSD>
0.8

> <PUBCHEM_CONFORMER_DIVERSEORDER>
1
13
47
46
11
33
40
4
26
45
51
32
42
20
34
27
38
48
23
41
30
2
16
43
44
12
50
37
36
17
14
35
18
39
10
49
8
9
7
25
22
3
31
29
24
5
19
6
15
21
28

> <PUBCHEM_MMFF94_PARTIAL_CHARGES>
32
1 -0.34
10 0.27
11 0.41
12 0.3
13 -0.14
14 0.14
15 0.23
16 -0.15
17 -0.15
18 -0.15
19 -0.15
2 -0.34
20 -0.15
21 -0.15
22 -0.14
23 -0.15
24 -0.15
25 1.16
3 -0.34
35 0.15
36 0.15
37 0.15
38 0.15
39 0.15
4 -0.28
40 0.15
41 0.15
42 0.15
5 -0.81
6 -0.57
7 0.18
9 0.27

> <PUBCHEM_EFFECTIVE_ROTOR_COUNT>
5

> <PUBCHEM_PHARMACOPHORE_FEATURES>
5
1 5 cation
5 4 6 12 14 15 rings
5 5 7 8 9 10 rings
6 13 16 17 18 19 22 rings
6 14 15 20 21 23 24 rings

> <PUBCHEM_HEAVY_ATOM_COUNT>
25

> <PUBCHEM_ATOM_DEF_STEREO_COUNT>
1

> <PUBCHEM_ATOM_UDEF_STEREO_COUNT>
0

> <PUBCHEM_BOND_DEF_STEREO_COUNT>
0

> <PUBCHEM_BOND_UDEF_STEREO_COUNT>
0

> <PUBCHEM_ISOTOPIC_ATOM_COUNT>
0

> <PUBCHEM_COMPONENT_COUNT>
1

> <PUBCHEM_CACTVS_TAUTO_COUNT>
1

> <PUBCHEM_CONFORMER_ID>
030C4A2900000001

> <PUBCHEM_MMFF94_ENERGY>
47.1165

> <PUBCHEM_FEATURE_SELFOVERLAP>
25.492

> <PUBCHEM_SHAPE_FINGERPRINT>
10 15 18343585140329539431
10299344 5 18273495680109930023
10595046 47 18410290277292971552
106641 1 18333735741206692619
10670039 82 10231764362480473455
10968037 39 18259701203739733655
11315181 36 18410012131459448601
11524674 6 15913324723779329127
11638347 137 16009022870640584240
11646440 116 17095245813335889476
12166972 35 18333450941899694340
12236239 1 18201717345662979652
12516196 113 16805322188733791437
12730499 353 18040433270719259706
13533116 47 16950833706002530258
14123256 10 16805322188775846016
14170010 4 18186519930325145612
14251764 18 17846778516157992983
14251764 46 17458345238498460930
14849402 71 18337676437714897308
14856354 85 17775567563585585925
14933364 13 18413107260290214644
15131766 46 8140356907019740178
15142383 8 15769775745647691714
15183329 4 16128660751484303266
15419008 47 16009022904072031948
15461852 350 13479140098568482419
15716309 27 18410009931555134103
15849732 13 17894349986103132759
17093844 174 13542457675020064623
18006028 8 10735879473941489138
18335252 98 18408608062682718682
20157964 124 18335139800602275138
20281389 69 18202842149910433512
21095086 128 18411135839904458559
21150785 3 13695872527900846942
21267235 1 18410013230021471636
21315763 28 18409165489882898244
21521721 280 18334296491656888754
21792961 116 17489307430481885940
220451 1 17704347767027065966
22224240 67 16443345386248735768
23035841 295 18130786758879258007
23516275 137 18129119847771263691
23522609 53 17916604144547152849
23536379 177 18342173350261738756
23569943 247 17171229613178512322
2747138 104 17385449825190622052
28498 318 11959738161879597708
3009799 131 11458425738851554311
335352 9 15769770273374332461
34797466 226 18343588447649582004
4073 2 18187086200008848418
4325135 7 18408322189733122588
4339292 15 11311473820616958053
5283156 175 17275107207268630622
5385378 56 15626235584709686519
5758199 1 17676206861951133208
59682541 35 17095527330982678232
5969126 39 15936402343544345935
59755656 520 18334571364900327534

> <PUBCHEM_SHAPE_MULTIPOLES>
476.84
24.17
1.3
1.03
1.21
0.08
-0.17
-0.1
-1.32
-0.55
0.06
0.85
-0.02
-0.42

> <PUBCHEM_SHAPE_SELFOVERLAP>
1049.134

> <PUBCHEM_SHAPE_VOLUME>
261

> <PUBCHEM_COORDINATE_TYPE>
2
5
10

$$$$
