75411642
  -OEChem-12032416393D

 43 46  0     1  0  0  0  0  0999 V2000
   -3.5445    1.2705    0.3470 S   0  0  0  0  0  0  0  0  0  0  0  0
    5.2512    0.9233    0.9308 F   0  0  0  0  0  0  0  0  0  0  0  0
    5.7263   -0.6858   -0.4521 F   0  0  0  0  0  0  0  0  0  0  0  0
    4.7638    1.1163   -1.1794 F   0  0  0  0  0  0  0  0  0  0  0  0
   -2.8139   -3.6151    0.8168 O   0  0  0  0  0  0  0  0  0  0  0  0
   -0.2442   -2.0866    0.7432 O   0  0  0  0  0  0  0  0  0  0  0  0
   -2.5260   -1.0469   -0.5634 N   0  0  0  0  0  0  0  0  0  0  0  0
   -1.2048    0.9517   -0.6904 N   0  0  0  0  0  0  0  0  0  0  0  0
    1.5590   -1.6900   -0.6601 N   0  0  0  0  0  0  0  0  0  0  0  0
   -0.7867   -2.8186   -0.3530 C   0  0  2  0  0  0  0  0  0  0  0  0
   -1.5493   -1.8709   -1.2845 C   0  0  0  0  0  0  0  0  0  0  0  0
   -3.8087   -1.6326   -0.1546 C   0  0  0  0  0  0  0  0  0  0  0  0
   -1.6039   -4.0004    0.1702 C   0  0  0  0  0  0  0  0  0  0  0  0
   -3.8109   -3.1539   -0.0887 C   0  0  0  0  0  0  0  0  0  0  0  0
   -2.3102    0.3237   -0.3640 C   0  0  0  0  0  0  0  0  0  0  0  0
   -2.5352    2.6628    0.2215 C   0  0  0  0  0  0  0  0  0  0  0  0
   -1.3185    2.2944   -0.3608 C   0  0  0  0  0  0  0  0  0  0  0  0
    0.9817   -1.5103    0.5490 C   0  0  0  0  0  0  0  0  0  0  0  0
   -2.8007    3.9856    0.6102 C   0  0  0  0  0  0  0  0  0  0  0  0
   -0.3346    3.2871   -0.5599 C   0  0  0  0  0  0  0  0  0  0  0  0
    1.5551   -0.7871    1.5825 C   0  0  0  0  0  0  0  0  0  0  0  0
   -1.8101    4.9485    0.4020 C   0  0  0  0  0  0  0  0  0  0  0  0
   -0.5924    4.6061   -0.1752 C   0  0  0  0  0  0  0  0  0  0  0  0
    2.8012   -0.2112    1.3607 C   0  0  0  0  0  0  0  0  0  0  0  0
    3.4269   -0.3741    0.1295 C   0  0  0  0  0  0  0  0  0  0  0  0
    2.7699   -1.1157   -0.8388 C   0  0  0  0  0  0  0  0  0  0  0  0
    4.7597    0.2293   -0.1386 C   0  0  0  0  0  0  0  0  0  0  0  0
    0.0096   -3.3042   -0.9333 H   0  0  0  0  0  0  0  0  0  0  0  0
   -0.8328   -1.2249   -1.8056 H   0  0  0  0  0  0  0  0  0  0  0  0
   -2.0478   -2.4346   -2.0823 H   0  0  0  0  0  0  0  0  0  0  0  0
   -4.6004   -1.3084   -0.8406 H   0  0  0  0  0  0  0  0  0  0  0  0
   -4.0631   -1.2999    0.8592 H   0  0  0  0  0  0  0  0  0  0  0  0
   -1.8291   -4.7115   -0.6338 H   0  0  0  0  0  0  0  0  0  0  0  0
   -1.0139   -4.5384    0.9207 H   0  0  0  0  0  0  0  0  0  0  0  0
   -4.7778   -3.4807    0.3106 H   0  0  0  0  0  0  0  0  0  0  0  0
   -3.7136   -3.6173   -1.0773 H   0  0  0  0  0  0  0  0  0  0  0  0
   -3.7492    4.2603    1.0616 H   0  0  0  0  0  0  0  0  0  0  0  0
    0.6205    3.0300   -1.0092 H   0  0  0  0  0  0  0  0  0  0  0  0
    1.0530   -0.6688    2.5365 H   0  0  0  0  0  0  0  0  0  0  0  0
   -1.9954    5.9784    0.6959 H   0  0  0  0  0  0  0  0  0  0  0  0
    0.1664    5.3684   -0.3291 H   0  0  0  0  0  0  0  0  0  0  0  0
    3.2684    0.3605    2.1574 H   0  0  0  0  0  0  0  0  0  0  0  0
    3.2085   -1.2767   -1.8188 H   0  0  0  0  0  0  0  0  0  0  0  0
  1 15  1  0  0  0  0
  1 16  1  0  0  0  0
  2 27  1  0  0  0  0
  3 27  1  0  0  0  0
  4 27  1  0  0  0  0
  5 13  1  0  0  0  0
  5 14  1  0  0  0  0
  6 10  1  0  0  0  0
  6 18  1  0  0  0  0
  7 11  1  0  0  0  0
  7 12  1  0  0  0  0
  7 15  1  0  0  0  0
  8 15  2  0  0  0  0
  8 17  1  0  0  0  0
  9 18  2  0  0  0  0
  9 26  1  0  0  0  0
 10 11  1  0  0  0  0
 10 13  1  0  0  0  0
 10 28  1  0  0  0  0
 11 29  1  0  0  0  0
 11 30  1  0  0  0  0
 12 14  1  0  0  0  0
 12 31  1  0  0  0  0
 12 32  1  0  0  0  0
 13 33  1  0  0  0  0
 13 34  1  0  0  0  0
 14 35  1  0  0  0  0
 14 36  1  0  0  0  0
 16 17  1  0  0  0  0
 16 19  2  0  0  0  0
 17 20  2  0  0  0  0
 18 21  1  0  0  0  0
 19 22  1  0  0  0  0
 19 37  1  0  0  0  0
 20 23  1  0  0  0  0
 20 38  1  0  0  0  0
 21 24  2  0  0  0  0
 21 39  1  0  0  0  0
 22 23  2  0  0  0  0
 22 40  1  0  0  0  0
 23 41  1  0  0  0  0
 24 25  1  0  0  0  0
 24 42  1  0  0  0  0
 25 26  2  0  0  0  0
 25 27  1  0  0  0  0
 26 43  1  0  0  0  0
M  END
> <PUBCHEM_COMPOUND_CID>
75411642

> <PUBCHEM_CONFORMER_RMSD>
0.8

> <PUBCHEM_CONFORMER_DIVERSEORDER>
9
169
231
218
30
175
189
108
215
202
203
252
14
138
8
255
165
92
201
24
115
228
257
125
180
50
156
147
198
264
116
224
210
260
99
248
258
7
131
223
238
70
225
150
32
85
25
152
221
118
1
5
98
208
209
184
263
87
162
230
227
74
29
13
207
44
183
3
267
266
161
89
91
246
261
35
109
100
129
151
219
107
148
187
140
73
27
139
212
182
241
127
103
190
173
239
197
132
122
216
56
81
42
61
43
262
181
55
170
137
78
136
58
214
177
236
164
112
34
21
52
94
233
10
157
222
119
265
54
130
106
22
31
249
38
178
95
110
167
39
49
213
36
234
199
6
245
191
229
153
12
11
196
247
253
243
124
19
146
18
90
251
254
200
114
259
185
220
242
111
46
69
82
195
2
128
204
88
37
250
105
117
206
235
65
134
113
48
133
15
28
76
193
141
4
102
256
47
17
67
192
63
226
20
168
77
57
26
59
64
188
237
41
144
143
240
155
84
79
205
244
268
121
86
160
186
149
166
211
53
159
51
174
72
66
154
135
104
62
217
80
120
71
123
45
171
101
33
126
83
40
142
158
172
176
145
93
60
194
179
163
68
75
232
96
23
16
97

> <PUBCHEM_MMFF94_PARTIAL_CHARGES>
34
1 -0.08
10 0.28
11 0.37
12 0.37
13 0.28
14 0.28
15 0.46
16 0.04
17 0.23
18 0.39
19 -0.15
2 -0.34
20 -0.15
21 -0.15
22 -0.15
23 -0.15
24 -0.15
25 -0.14
26 0.16
27 1.16
3 -0.34
37 0.15
38 0.15
39 0.15
4 -0.34
40 0.15
41 0.15
42 0.15
43 0.15
5 -0.56
6 -0.36
7 -0.82
8 -0.57
9 -0.62

> <PUBCHEM_EFFECTIVE_ROTOR_COUNT>
5.4

> <PUBCHEM_PHARMACOPHORE_FEATURES>
6
1 5 acceptor
3 7 8 15 cation
5 1 8 15 16 17 rings
6 16 17 19 20 22 23 rings
6 9 18 21 24 25 26 rings
7 5 7 10 11 12 13 14 rings

> <PUBCHEM_HEAVY_ATOM_COUNT>
27

> <PUBCHEM_ATOM_DEF_STEREO_COUNT>
1

> <PUBCHEM_ATOM_UDEF_STEREO_COUNT>
0

> <PUBCHEM_BOND_DEF_STEREO_COUNT>
0

> <PUBCHEM_BOND_UDEF_STEREO_COUNT>
0

> <PUBCHEM_ISOTOPIC_ATOM_COUNT>
0

> <PUBCHEM_COMPONENT_COUNT>
1

> <PUBCHEM_CACTVS_TAUTO_COUNT>
1

> <PUBCHEM_CONFORMER_ID>
047EB0BA00000009

> <PUBCHEM_MMFF94_ENERGY>
76.2873

> <PUBCHEM_FEATURE_SELFOVERLAP>
30.519

> <PUBCHEM_SHAPE_FINGERPRINT>
10006869 2 18265888061301859123
10411042 1 18194683889385754671
10498660 4 18337663127330658845
10670039 82 18409449146861342196
10871710 139 18340482271261006285
10937287 8 18050284765221735101
1100329 8 18337677524620437853
11135609 187 18047738318458414965
11211813 163 18194138326440662518
12107183 9 17902501598546763658
12156800 1 16195140583359433817
12173636 292 18267579105119823549
12788726 201 18338500972750824687
1361 2 18050005485453906329
138480 1 16249128386420336189
13911987 19 18190726563076151125
13965767 371 17537442816753441468
14363568 33 17471869467817264283
14466204 15 17040630592018666683
14713325 29 18411706469644663330
14790565 3 18195533597410796129
14955137 171 18193006039269084363
151778 21 17476081224385716769
15961568 22 17979344589205701184
18785283 64 16970552115127269857
19930381 70 16897646286037460182
20101258 96 18266187299403028075
21033650 10 18190204376731195190
21133410 127 17105109300500789132
21796203 349 17757596097632609329
23557571 272 18341620347220908398
350125 39 17690561888632977423
3610482 184 17970375684153067854
469060 322 18339091496157274203
5048184 11 18123749747154907176
5252454 2 17842269264449016121
5312544 6 17546155308675335861
6371009 1 17760905373828139001
6700243 42 17697356067428922998
7808743 9 18339642218396688888

> <PUBCHEM_SHAPE_MULTIPOLES>
510.99
8.44
6.56
1.07
13.21
2.76
0.13
2.28
-0.06
-8.64
0.34
0.55
-0.14
-0.41

> <PUBCHEM_SHAPE_SELFOVERLAP>
1100.823

> <PUBCHEM_SHAPE_VOLUME>
283.9

> <PUBCHEM_COORDINATE_TYPE>
2
5
10

$$$$
