75367059
  -OEChem-12032416393D

 48 49  0     1  0  0  0  0  0999 V2000
    0.0052    0.1660   -0.0939 O   0  0  0  0  0  0  0  0  0  0  0  0
   -1.7652   -2.7987    0.8971 O   0  0  0  0  0  0  0  0  0  0  0  0
    2.4116    0.0943   -1.9463 O   0  0  0  0  0  0  0  0  0  0  0  0
   -3.5806   -0.4442   -0.1212 N   0  0  0  0  0  0  0  0  0  0  0  0
    2.3538   -1.5008   -0.2571 N   0  0  0  0  0  0  0  0  0  0  0  0
   -4.3348    0.6540    0.4650 C   0  0  0  0  0  0  0  0  0  0  0  0
   -2.2307   -0.4504    0.4186 C   0  0  1  0  0  0  0  0  0  0  0  0
   -5.8441    0.4031    0.2571 C   0  0  0  0  0  0  0  0  0  0  0  0
   -4.4574    1.7958   -0.5673 C   0  0  0  0  0  0  0  0  0  0  0  0
   -5.9449    1.8887   -0.1577 C   0  0  0  0  0  0  0  0  0  0  0  0
   -1.4410   -1.6983    0.0697 C   0  0  1  0  0  0  0  0  0  0  0  0
   -0.0148   -1.2165    0.2989 C   0  0  1  0  0  0  0  0  0  0  0  0
   -1.3511    0.6378   -0.1750 C   0  0  0  0  0  0  0  0  0  0  0  0
    1.0168   -1.9923   -0.5007 C   0  0  0  0  0  0  0  0  0  0  0  0
    4.4523    0.9737    0.4881 C   0  0  0  0  0  0  0  0  0  0  0  0
    4.3543   -0.1651   -0.5547 C   0  0  0  0  0  0  0  0  0  0  0  0
    2.9402   -0.4939   -1.0050 C   0  0  0  0  0  0  0  0  0  0  0  0
    3.6455    0.6479    1.7556 C   0  0  0  0  0  0  0  0  0  0  0  0
    5.9158    1.2468    0.8740 C   0  0  0  0  0  0  0  0  0  0  0  0
    3.8690    2.2521   -0.1452 C   0  0  0  0  0  0  0  0  0  0  0  0
   -4.0849    0.9612    1.4875 H   0  0  0  0  0  0  0  0  0  0  0  0
   -2.2580   -0.3640    1.5143 H   0  0  0  0  0  0  0  0  0  0  0  0
   -6.4072    0.1286    1.1534 H   0  0  0  0  0  0  0  0  0  0  0  0
   -6.1128   -0.2861   -0.5534 H   0  0  0  0  0  0  0  0  0  0  0  0
   -4.3183    1.5128   -1.6182 H   0  0  0  0  0  0  0  0  0  0  0  0
   -3.8609    2.6887   -0.3608 H   0  0  0  0  0  0  0  0  0  0  0  0
   -6.6481    2.1118   -0.9639 H   0  0  0  0  0  0  0  0  0  0  0  0
   -6.1311    2.5702    0.6804 H   0  0  0  0  0  0  0  0  0  0  0  0
   -1.5986   -1.9850   -0.9776 H   0  0  0  0  0  0  0  0  0  0  0  0
   -4.0010   -1.3564    0.0603 H   0  0  0  0  0  0  0  0  0  0  0  0
    0.2464   -1.2570    1.3646 H   0  0  0  0  0  0  0  0  0  0  0  0
   -1.5646    0.8159   -1.2353 H   0  0  0  0  0  0  0  0  0  0  0  0
   -1.4360    1.5888    0.3595 H   0  0  0  0  0  0  0  0  0  0  0  0
    1.0037   -3.0522   -0.2275 H   0  0  0  0  0  0  0  0  0  0  0  0
    0.8142   -1.9069   -1.5744 H   0  0  0  0  0  0  0  0  0  0  0  0
   -1.6232   -2.5375    1.8227 H   0  0  0  0  0  0  0  0  0  0  0  0
    2.8732   -1.9176    0.5097 H   0  0  0  0  0  0  0  0  0  0  0  0
    4.8195   -1.0745   -0.1521 H   0  0  0  0  0  0  0  0  0  0  0  0
    4.9303    0.0910   -1.4536 H   0  0  0  0  0  0  0  0  0  0  0  0
    2.5718    0.5756    1.5548 H   0  0  0  0  0  0  0  0  0  0  0  0
    3.7757    1.4284    2.5143 H   0  0  0  0  0  0  0  0  0  0  0  0
    3.9743   -0.2994    2.1970 H   0  0  0  0  0  0  0  0  0  0  0  0
    6.3698    0.3614    1.3327 H   0  0  0  0  0  0  0  0  0  0  0  0
    6.5130    1.5095   -0.0063 H   0  0  0  0  0  0  0  0  0  0  0  0
    5.9944    2.0723    1.5902 H   0  0  0  0  0  0  0  0  0  0  0  0
    2.7953    2.1638   -0.3416 H   0  0  0  0  0  0  0  0  0  0  0  0
    4.3691    2.4922   -1.0903 H   0  0  0  0  0  0  0  0  0  0  0  0
    3.9993    3.1120    0.5227 H   0  0  0  0  0  0  0  0  0  0  0  0
  1 12  1  0  0  0  0
  1 13  1  0  0  0  0
  2 11  1  0  0  0  0
  2 36  1  0  0  0  0
  3 17  2  0  0  0  0
  4  6  1  0  0  0  0
  4  7  1  0  0  0  0
  4 30  1  0  0  0  0
  5 14  1  0  0  0  0
  5 17  1  0  0  0  0
  5 37  1  0  0  0  0
  6  8  1  0  0  0  0
  6  9  1  0  0  0  0
  6 21  1  0  0  0  0
  7 11  1  0  0  0  0
  7 13  1  0  0  0  0
  7 22  1  0  0  0  0
  8 10  1  0  0  0  0
  8 23  1  0  0  0  0
  8 24  1  0  0  0  0
  9 10  1  0  0  0  0
  9 25  1  0  0  0  0
  9 26  1  0  0  0  0
 10 27  1  0  0  0  0
 10 28  1  0  0  0  0
 11 12  1  0  0  0  0
 11 29  1  0  0  0  0
 12 14  1  0  0  0  0
 12 31  1  0  0  0  0
 13 32  1  0  0  0  0
 13 33  1  0  0  0  0
 14 34  1  0  0  0  0
 14 35  1  0  0  0  0
 15 16  1  0  0  0  0
 15 18  1  0  0  0  0
 15 19  1  0  0  0  0
 15 20  1  0  0  0  0
 16 17  1  0  0  0  0
 16 38  1  0  0  0  0
 16 39  1  0  0  0  0
 18 40  1  0  0  0  0
 18 41  1  0  0  0  0
 18 42  1  0  0  0  0
 19 43  1  0  0  0  0
 19 44  1  0  0  0  0
 19 45  1  0  0  0  0
 20 46  1  0  0  0  0
 20 47  1  0  0  0  0
 20 48  1  0  0  0  0
M  END
> <PUBCHEM_COMPOUND_CID>
75367059

> <PUBCHEM_CONFORMER_RMSD>
1

> <PUBCHEM_CONFORMER_DIVERSEORDER>
1
56
13
19
72
59
68
85
2
48
20
75
86
98
35
90
41
81
7
23
43
38
79
31
76
26
99
80
87
100
37
51
61
82
50
27
32
22
36
95
14
71
92
16
84
11
73
34
77
4
74
60
46
10
5
94
88
39
93
12
67
17
42
49
65
62
66
9
83
55
30
63
21
52
45
57
54
97
64
6
58
8
89
40
96
44
29
25
28
70
33
47
69
78
24
15
3
91
18
53

> <PUBCHEM_MMFF94_PARTIAL_CHARGES>
16
1 -0.56
11 0.28
12 0.28
13 0.28
14 0.3
16 0.06
17 0.57
2 -0.68
3 -0.57
30 0.36
36 0.4
37 0.37
4 -0.84
5 -0.73
6 0.21
7 0.27

> <PUBCHEM_EFFECTIVE_ROTOR_COUNT>
8.8

> <PUBCHEM_PHARMACOPHORE_FEATURES>
10
1 1 acceptor
1 2 acceptor
1 2 donor
1 3 acceptor
1 4 cation
1 4 donor
1 5 donor
4 15 18 19 20 hydrophobe
4 6 8 9 10 rings
5 1 7 11 12 13 rings

> <PUBCHEM_HEAVY_ATOM_COUNT>
20

> <PUBCHEM_ATOM_DEF_STEREO_COUNT>
3

> <PUBCHEM_ATOM_UDEF_STEREO_COUNT>
0

> <PUBCHEM_BOND_DEF_STEREO_COUNT>
0

> <PUBCHEM_BOND_UDEF_STEREO_COUNT>
0

> <PUBCHEM_ISOTOPIC_ATOM_COUNT>
0

> <PUBCHEM_COMPONENT_COUNT>
1

> <PUBCHEM_CACTVS_TAUTO_COUNT>
2

> <PUBCHEM_CONFORMER_ID>
047E029300000001

> <PUBCHEM_MMFF94_ENERGY>
48.2775

> <PUBCHEM_FEATURE_SELFOVERLAP>
50.746

> <PUBCHEM_SHAPE_FINGERPRINT>
10014705 185 18342177786704648555
10692045 39 18115860811513380434
11128504 68 16415476034865159209
11543360 7 16343698824919100711
11595378 159 17023177172278241533
12403259 118 17749117707562269909
12596602 18 16226056616659771873
12633257 1 16008752437075121202
12730499 353 18130795542024477710
12778500 126 17604420791946946848
12969540 114 18060410297009191517
13402501 40 18343016696733827072
13533116 47 18337674088309348290
13955234 65 18120378661932214819
14123256 34 11963662284551313824
1420 369 8790879683899269405
14211702 104 11387241170617623105
14251758 9 7925637722052468871
14251764 30 9007052470319050749
14251764 38 18194399128600592868
14252887 29 8214134136609662766
14366163 111 16917347017661878825
14528608 73 17917706894637629237
15238133 3 18113902702106460620
15375358 24 18413673525625975110
173720 79 17822007610264258827
17834072 33 16917061166430056621
17959699 21 18201440246672634641
17980427 23 18115304621917039174
1813 80 11671776061853534051
18222031 100 9799400101842904847
20388580 30 10303808804769248682
20621476 21 8142084290381753617
20645477 56 18334017189891483527
20645477 70 17346609534290189478
20715895 44 18411135822809199832
21150785 3 17418083326899239565
212916 134 18260544528430556123
21452121 103 18336262345227387394
21475661 188 18200584921463847136
21618674 25 18341895181840523638
22289505 5 17775004566340389176
22950370 63 9439405743859485711
23016692 55 10015583921700866673
23227448 37 18340769342331865575
23557571 272 18199195155566463926
23559900 14 18341901762231678662
23590187 173 18343019995389360348
2767999 5 18260263040996166061
2838139 119 18059564811190949744
2916195 48 18411418402087877433
3060560 45 15769776875466923964
3472631 163 18409728499591516836
34797466 226 17560805407777636133
3680242 22 18334575703022654976
474 4 18342741827284416080
495365 180 18060134319501403262
5104073 3 18116158783917774297
53917941 68 18409438199037456807
5969126 39 18126560365770448575
960060 61 13901906700140968005

> <PUBCHEM_SHAPE_MULTIPOLES>
384.02
13.94
2.31
1.12
5.93
0.55
-0.04
-10.1
1.39
0.4
0.14
-1.17
-0.04
1.2

> <PUBCHEM_SHAPE_SELFOVERLAP>
769.762

> <PUBCHEM_SHAPE_VOLUME>
229.4

> <PUBCHEM_COORDINATE_TYPE>
2
5
10

$$$$
