11886264
  -OEChem-12032416373D

 62 68  0     1  0  0  0  0  0999 V2000
   -0.7617   -3.3513   -0.0796 O   0  0  0  0  0  0  0  0  0  0  0  0
   -0.5598   -1.1003   -2.2667 O   0  0  0  0  0  0  0  0  0  0  0  0
    3.8236   -0.7038   -0.4346 O   0  0  0  0  0  0  0  0  0  0  0  0
   -4.8826   -2.1580    0.2965 O   0  0  0  0  0  0  0  0  0  0  0  0
    1.7610   -1.3502    0.5423 N   0  0  0  0  0  0  0  0  0  0  0  0
   -3.3790   -0.9737   -1.0004 N   0  0  0  0  0  0  0  0  0  0  0  0
    1.2000   -1.3394    1.7550 N   0  0  0  0  0  0  0  0  0  0  0  0
    3.2583   -0.4871    1.8396 N   0  0  0  0  0  0  0  0  0  0  0  0
   -5.2383    0.1094   -0.1965 N   0  0  0  0  0  0  0  0  0  0  0  0
    2.1229   -0.8092    2.5482 N   0  0  0  0  0  0  0  0  0  0  0  0
    8.8993    1.4535    0.0189 N   0  0  0  0  0  0  0  0  0  0  0  0
    9.9775    0.6924    0.2802 N   0  0  0  0  0  0  0  0  0  0  0  0
   10.5484    2.8969    0.0638 N   0  0  0  0  0  0  0  0  0  0  0  0
   -0.2778   -1.1498   -0.8562 C   0  0  1  0  0  0  0  0  0  0  0  0
   -1.3284   -2.0391   -0.2203 C   0  0  1  0  0  0  0  0  0  0  0  0
    1.0344   -1.8726   -0.6179 C   0  0  2  0  0  0  0  0  0  0  0  0
   -2.4577   -2.0611   -1.2257 C   0  0  2  0  0  0  0  0  0  0  0  0
    0.6068   -3.3320   -0.5083 C   0  0  0  0  0  0  0  0  0  0  0  0
   -1.7221   -1.8944   -2.5423 C   0  0  0  0  0  0  0  0  0  0  0  0
    3.0103   -0.8324    0.5971 C   0  0  0  0  0  0  0  0  0  0  0  0
   -4.5475   -1.1049   -0.2402 C   0  0  0  0  0  0  0  0  0  0  0  0
   -6.4566    0.3918    0.4643 C   0  0  0  0  0  0  0  0  0  0  0  0
    5.0967   -0.1626   -0.3202 C   0  0  0  0  0  0  0  0  0  0  0  0
   -7.3387    1.3595   -0.0222 C   0  0  0  0  0  0  0  0  0  0  0  0
   -6.7324   -0.3347    1.6152 C   0  0  0  0  0  0  0  0  0  0  0  0
   -8.5427    1.5991    0.6819 C   0  0  0  0  0  0  0  0  0  0  0  0
    5.2632    1.1996   -0.4812 C   0  0  0  0  0  0  0  0  0  0  0  0
    6.1603   -1.0018   -0.0496 C   0  0  0  0  0  0  0  0  0  0  0  0
   -7.0648    2.0973   -1.1854 C   0  0  0  0  0  0  0  0  0  0  0  0
   -7.9166   -0.0993    2.3074 C   0  0  0  0  0  0  0  0  0  0  0  0
   -8.8169    0.8612    1.8449 C   0  0  0  0  0  0  0  0  0  0  0  0
    6.5427    1.7434   -0.3673 C   0  0  0  0  0  0  0  0  0  0  0  0
    7.4397   -0.4580    0.0645 C   0  0  0  0  0  0  0  0  0  0  0  0
   -9.4374    2.5695    0.2021 C   0  0  0  0  0  0  0  0  0  0  0  0
    7.6309    0.9146   -0.0944 C   0  0  0  0  0  0  0  0  0  0  0  0
   -7.9650    3.0577   -1.6476 C   0  0  0  0  0  0  0  0  0  0  0  0
   -9.1490    3.2935   -0.9552 C   0  0  0  0  0  0  0  0  0  0  0  0
    9.2535    2.7651   -0.1075 C   0  0  0  0  0  0  0  0  0  0  0  0
   10.9453    1.6113    0.2970 C   0  0  0  0  0  0  0  0  0  0  0  0
   -0.3050   -0.1201   -0.4853 H   0  0  0  0  0  0  0  0  0  0  0  0
   -1.6254   -1.7028    0.7783 H   0  0  0  0  0  0  0  0  0  0  0  0
    1.7165   -1.7630   -1.4694 H   0  0  0  0  0  0  0  0  0  0  0  0
   -3.0167   -3.0029   -1.2146 H   0  0  0  0  0  0  0  0  0  0  0  0
    0.6443   -3.8207   -1.4881 H   0  0  0  0  0  0  0  0  0  0  0  0
    1.2134   -3.9165    0.1901 H   0  0  0  0  0  0  0  0  0  0  0  0
   -2.3164   -1.4102   -3.3231 H   0  0  0  0  0  0  0  0  0  0  0  0
   -1.3738   -2.8610   -2.9225 H   0  0  0  0  0  0  0  0  0  0  0  0
   -3.1332   -0.0525   -1.3501 H   0  0  0  0  0  0  0  0  0  0  0  0
   -4.9055    0.8052   -0.8550 H   0  0  0  0  0  0  0  0  0  0  0  0
   -6.0439   -1.0600    2.0354 H   0  0  0  0  0  0  0  0  0  0  0  0
    4.4170    1.8455   -0.6948 H   0  0  0  0  0  0  0  0  0  0  0  0
    6.0132   -2.0705    0.0732 H   0  0  0  0  0  0  0  0  0  0  0  0
   -6.1650    1.9531   -1.7755 H   0  0  0  0  0  0  0  0  0  0  0  0
   -8.1366   -0.6558    3.2138 H   0  0  0  0  0  0  0  0  0  0  0  0
   -9.7353    1.0302    2.4033 H   0  0  0  0  0  0  0  0  0  0  0  0
    6.6328    2.8165   -0.5004 H   0  0  0  0  0  0  0  0  0  0  0  0
    8.2609   -1.1374    0.2777 H   0  0  0  0  0  0  0  0  0  0  0  0
  -10.3690    2.7702    0.7272 H   0  0  0  0  0  0  0  0  0  0  0  0
   -7.7430    3.6203   -2.5499 H   0  0  0  0  0  0  0  0  0  0  0  0
   -9.8497    4.0409   -1.3159 H   0  0  0  0  0  0  0  0  0  0  0  0
    8.5792    3.5831   -0.3174 H   0  0  0  0  0  0  0  0  0  0  0  0
   11.9722    1.3353    0.4848 H   0  0  0  0  0  0  0  0  0  0  0  0
  1 15  1  0  0  0  0
  1 18  1  0  0  0  0
  2 14  1  0  0  0  0
  2 19  1  0  0  0  0
  3 20  1  0  0  0  0
  3 23  1  0  0  0  0
  4 21  2  0  0  0  0
  5  7  1  0  0  0  0
  5 16  1  0  0  0  0
  5 20  1  0  0  0  0
  6 17  1  0  0  0  0
  6 21  1  0  0  0  0
  6 48  1  0  0  0  0
  7 10  2  0  0  0  0
  8 10  1  0  0  0  0
  8 20  2  0  0  0  0
  9 21  1  0  0  0  0
  9 22  1  0  0  0  0
  9 49  1  0  0  0  0
 11 12  1  0  0  0  0
 11 35  1  0  0  0  0
 11 38  1  0  0  0  0
 12 39  2  0  0  0  0
 13 38  2  0  0  0  0
 13 39  1  0  0  0  0
 14 15  1  0  0  0  0
 14 16  1  0  0  0  0
 14 40  1  0  0  0  0
 15 17  1  0  0  0  0
 15 41  1  0  0  0  0
 16 18  1  0  0  0  0
 16 42  1  0  0  0  0
 17 19  1  0  0  0  0
 17 43  1  0  0  0  0
 18 44  1  0  0  0  0
 18 45  1  0  0  0  0
 19 46  1  0  0  0  0
 19 47  1  0  0  0  0
 22 24  1  0  0  0  0
 22 25  2  0  0  0  0
 23 27  2  0  0  0  0
 23 28  1  0  0  0  0
 24 26  1  0  0  0  0
 24 29  2  0  0  0  0
 25 30  1  0  0  0  0
 25 50  1  0  0  0  0
 26 31  1  0  0  0  0
 26 34  2  0  0  0  0
 27 32  1  0  0  0  0
 27 51  1  0  0  0  0
 28 33  2  0  0  0  0
 28 52  1  0  0  0  0
 29 36  1  0  0  0  0
 29 53  1  0  0  0  0
 30 31  2  0  0  0  0
 30 54  1  0  0  0  0
 31 55  1  0  0  0  0
 32 35  2  0  0  0  0
 32 56  1  0  0  0  0
 33 35  1  0  0  0  0
 33 57  1  0  0  0  0
 34 37  1  0  0  0  0
 34 58  1  0  0  0  0
 36 37  2  0  0  0  0
 36 59  1  0  0  0  0
 37 60  1  0  0  0  0
 38 61  1  0  0  0  0
 39 62  1  0  0  0  0
M  END
> <PUBCHEM_COMPOUND_CID>
11886264

> <PUBCHEM_CONFORMER_RMSD>
1.2

> <PUBCHEM_CONFORMER_DIVERSEORDER>
1
269
89
67
181
301
174
193
9
384
225
259
73
386
152
364
229
298
217
186
151
27
123
10
246
98
111
288
92
108
166
383
15
172
227
303
178
124
83
256
263
336
204
192
82
347
110
380
346
173
7
136
163
22
58
329
32
71
140
304
375
64
241
358
128
33
139
237
313
349
87
247
244
319
216
54
207
185
148
126
3
77
385
184
109
342
154
79
55
49
41
57
224
161
262
334
382
289
222
149
130
230
69
4
129
221
50
233
235
305
300
245
160
240
16
127
5
101
369
365
359
317
321
26
93
121
39
258
261
280
290
106
366
187
367
120
167
52
201
68
180
138
13
360
177
137
116
326
17
122
105
234
206
283
270
119
155
322
351
38
171
133
196
361
302
332
28
48
200
272
211
76
220
35
282
51
248
66
80
296
30
340
278
169
345
265
63
253
34
107
99
284
142
118
147
371
158
45
327
47
286
239
311
226
312
29
195
374
279
141
219
12
182
190
335
293
102
23
20
309
251
159
243
24
113
215
353
100
281
6
65
343
117
356
194
146
203
188
21
135
145
285
260
104
252
8
11
95
42
103
325
292
218
291
328
37
231
197
352
297
268
306
275
310
18
267
70
164
132
362
131
274
299
143
381
46
97
315
372
333
88
114
212
2
165
191
373
295
43
232
213
205
150
264
96
208
72
170
202
209
175
19
308
223
25
318
153
276
189
250
320
255
210
271
157
62
74
379
176
85
86
368
59
40
330
91
125
242
338
357
81
31
179
228
376
60
183
78
337
115
257
214
156
323
84
56
94
249
61
377
287
144
370
324
341
350
339
238
348
134
44
90
355
254
53
344
378
199
331
168
14
75
266
316
314
112
363
273
162
277
294
198
36
307
354
236

> <PUBCHEM_MMFF94_PARTIAL_CHARGES>
51
1 -0.56
11 0.59
12 -0.71
13 -0.57
14 0.28
15 0.28
16 0.26
17 0.3
18 0.28
19 0.28
2 -0.56
20 0.25
21 0.69
22 0.12
23 0.08
25 -0.15
27 -0.15
28 -0.15
29 -0.15
3 -0.15
30 -0.15
31 -0.15
32 -0.15
33 -0.15
34 -0.15
35 -0.02
36 -0.15
37 -0.15
38 0.04
39 0.37
4 -0.57
48 0.37
49 0.37
5 0.31
50 0.15
51 0.15
52 0.15
53 0.15
54 0.15
55 0.15
56 0.15
57 0.15
58 0.15
59 0.15
6 -0.73
60 0.15
61 0.15
62 0.15
7 -0.42
8 -0.34
9 -0.55

> <PUBCHEM_EFFECTIVE_ROTOR_COUNT>
9.2

> <PUBCHEM_PHARMACOPHORE_FEATURES>
15
1 1 acceptor
1 2 acceptor
1 4 acceptor
1 6 donor
1 9 donor
3 11 13 38 cation
3 12 13 39 cation
3 5 8 20 cation
5 1 14 15 16 18 rings
5 11 12 13 38 39 rings
5 2 14 15 17 19 rings
5 5 7 8 10 20 rings
6 22 24 25 26 30 31 rings
6 23 27 28 32 33 35 rings
6 24 26 29 34 36 37 rings

> <PUBCHEM_HEAVY_ATOM_COUNT>
39

> <PUBCHEM_ATOM_DEF_STEREO_COUNT>
4

> <PUBCHEM_ATOM_UDEF_STEREO_COUNT>
0

> <PUBCHEM_BOND_DEF_STEREO_COUNT>
0

> <PUBCHEM_BOND_UDEF_STEREO_COUNT>
0

> <PUBCHEM_ISOTOPIC_ATOM_COUNT>
0

> <PUBCHEM_COMPONENT_COUNT>
1

> <PUBCHEM_CACTVS_TAUTO_COUNT>
3

> <PUBCHEM_CONFORMER_ID>
00B55EB800000001

> <PUBCHEM_MMFF94_ENERGY>
113.7518

> <PUBCHEM_FEATURE_SELFOVERLAP>
79.633

> <PUBCHEM_SHAPE_FINGERPRINT>
10 15 18187649064568909819
10100884 174 9007055764791458916
10190206 1 16630256835084320731
10533779 47 16950550066789518608
10625338 86 18335423423031401129
10883706 17 10663808702981132469
10952577 141 18272370884125584487
11374522 79 9583229579167314453
11410812 94 14189308027535515298
11411753 3 15553019229997332022
11456790 92 17312826004582331524
11607047 141 18116146681091233514
11607047 74 10374996681321729498
11621639 179 18272928311205113816
11621639 336 18268430131774275776
12047536 79 17605829210818555127
12098696 120 18411987944393988212
12838863 1 11386371465277241417
13530399 1 18337956813855226660
14202775 3 10665490922177094224
15198563 99 14548751585759520922
15247644 1 9439141849535436396
15347590 135 16153701003663074784
15890870 6 18342455924734408825
17852330 162 12102972679232231002
19302320 297 18260268568867431284
19303781 99 10809635831114655171
19315958 150 18342461422414082054
20105231 36 12180108867363438528
2026 5 9223230746007443989
20721686 146 18341894052743998117
21360443 89 11025791029647977460
22149856 69 16153990136408114734
23516275 100 18192708939687180853
23576562 1 15768912697401929481
24771293 8 18335701667306502239
3711267 37 18410303509792591004
3918712 181 18341892961685433417
3986486 107 15985105210400285937
4173938 188 11530478965852267588
42767 23 12391517459980211837
437795 150 13901609876059301717
4516262 110 18272932687196578775
5937810 71 18273210919915586213
6698420 124 17895755223010513418
9689198 14 18333735701972095571
9980921 7 18410006638365024301

> <PUBCHEM_SHAPE_MULTIPOLES>
734.3
40.59
3.61
1.77
32.48
0.55
0.28
49.69
6.55
-1.75
-1.33
-3.39
-0.46
1.27

> <PUBCHEM_SHAPE_SELFOVERLAP>
1643.457

> <PUBCHEM_SHAPE_VOLUME>
389.8

> <PUBCHEM_COORDINATE_TYPE>
2
5
10

$$$$
