25389803
  -OEChem-12032416163D

 63 67  0     1  0  0  0  0  0999 V2000
    2.0776   -2.8302    1.8191 O   0  0  0  0  0  0  0  0  0  0  0  0
    0.4634   -1.2939    2.4281 O   0  0  0  0  0  0  0  0  0  0  0  0
   -6.4557    3.3714    0.6160 O   0  0  0  0  0  0  0  0  0  0  0  0
   -0.0111   -0.5958   -0.1743 N   0  0  2  0  0  0  0  0  0  0  0  0
   -3.0004    2.4646   -0.2622 N   0  0  0  0  0  0  0  0  0  0  0  0
    2.3409    2.3129    0.1659 N   0  0  0  0  0  0  0  0  0  0  0  0
    0.3321    0.7426    0.3979 C   0  0  2  0  0  0  0  0  0  0  0  0
   -1.4009   -1.0009    0.1563 C   0  0  1  0  0  0  0  0  0  0  0  0
   -0.6408    1.8173   -0.1121 C   0  0  0  0  0  0  0  0  0  0  0  0
   -2.0792    1.4540    0.2550 C   0  0  2  0  0  0  0  0  0  0  0  0
   -2.4173    0.0724   -0.3030 C   0  0  0  0  0  0  0  0  0  0  0  0
    1.0236   -1.6284    0.1068 C   0  0  1  0  0  0  0  0  0  0  0  0
    1.7547    1.0819    0.0670 C   0  0  0  0  0  0  0  0  0  0  0  0
    2.4044   -1.2662   -0.4974 C   0  0  0  0  0  0  0  0  0  0  0  0
    2.7184    0.1784   -0.3245 C   0  0  0  0  0  0  0  0  0  0  0  0
   -1.8254   -2.3322   -0.4587 C   0  0  0  0  0  0  0  0  0  0  0  0
    3.9343    0.8915   -0.5068 C   0  0  0  0  0  0  0  0  0  0  0  0
    3.6695    2.2284   -0.1935 C   0  0  0  0  0  0  0  0  0  0  0  0
    1.1330   -1.8753    1.5850 C   0  0  0  0  0  0  0  0  0  0  0  0
   -4.2622    2.4300    0.4609 C   0  0  0  0  0  0  0  0  0  0  0  0
   -2.7012   -3.1709    0.2304 C   0  0  0  0  0  0  0  0  0  0  0  0
   -1.3374   -2.7099   -1.7096 C   0  0  0  0  0  0  0  0  0  0  0  0
    5.2387    0.5341   -0.9033 C   0  0  0  0  0  0  0  0  0  0  0  0
    4.6488    3.2261   -0.2593 C   0  0  0  0  0  0  0  0  0  0  0  0
   -5.2344    3.4519   -0.1070 C   0  0  0  0  0  0  0  0  0  0  0  0
    6.2265    1.5228   -0.9750 C   0  0  0  0  0  0  0  0  0  0  0  0
   -3.0892   -4.3874   -0.3312 C   0  0  0  0  0  0  0  0  0  0  0  0
   -1.7253   -3.9263   -2.2714 C   0  0  0  0  0  0  0  0  0  0  0  0
    5.9339    2.8475   -0.6576 C   0  0  0  0  0  0  0  0  0  0  0  0
   -2.6012   -4.7651   -1.5821 C   0  0  0  0  0  0  0  0  0  0  0  0
    2.2855   -3.1653    3.1949 C   0  0  0  0  0  0  0  0  0  0  0  0
   -7.4036    4.3199    0.1456 C   0  0  0  0  0  0  0  0  0  0  0  0
    0.2485    0.7426    1.4903 H   0  0  0  0  0  0  0  0  0  0  0  0
   -1.5097   -1.0902    1.2432 H   0  0  0  0  0  0  0  0  0  0  0  0
   -0.3904    2.7919    0.3274 H   0  0  0  0  0  0  0  0  0  0  0  0
   -0.5392    1.9316   -1.2010 H   0  0  0  0  0  0  0  0  0  0  0  0
   -2.1362    1.4259    1.3522 H   0  0  0  0  0  0  0  0  0  0  0  0
   -2.4402    0.1150   -1.4020 H   0  0  0  0  0  0  0  0  0  0  0  0
   -3.4223   -0.2345    0.0116 H   0  0  0  0  0  0  0  0  0  0  0  0
    0.7530   -2.5941   -0.3291 H   0  0  0  0  0  0  0  0  0  0  0  0
    2.3770   -1.4732   -1.5756 H   0  0  0  0  0  0  0  0  0  0  0  0
    3.2139   -1.8729   -0.0777 H   0  0  0  0  0  0  0  0  0  0  0  0
   -2.5892    3.3925   -0.1606 H   0  0  0  0  0  0  0  0  0  0  0  0
    1.8771    3.1629    0.4555 H   0  0  0  0  0  0  0  0  0  0  0  0
   -4.1093    2.6399    1.5273 H   0  0  0  0  0  0  0  0  0  0  0  0
   -4.7380    1.4447    0.4042 H   0  0  0  0  0  0  0  0  0  0  0  0
   -3.0897   -2.8878    1.2050 H   0  0  0  0  0  0  0  0  0  0  0  0
   -0.6753   -2.0658   -2.2820 H   0  0  0  0  0  0  0  0  0  0  0  0
    5.4820   -0.4947   -1.1528 H   0  0  0  0  0  0  0  0  0  0  0  0
    4.4230    4.2578   -0.0109 H   0  0  0  0  0  0  0  0  0  0  0  0
   -5.4258    3.2463   -1.1673 H   0  0  0  0  0  0  0  0  0  0  0  0
   -4.8204    4.4633   -0.0131 H   0  0  0  0  0  0  0  0  0  0  0  0
    7.2335    1.2523   -1.2812 H   0  0  0  0  0  0  0  0  0  0  0  0
   -3.7717   -5.0401    0.2051 H   0  0  0  0  0  0  0  0  0  0  0  0
   -1.3502   -4.2178   -3.2480 H   0  0  0  0  0  0  0  0  0  0  0  0
    6.7167    3.5992   -0.7194 H   0  0  0  0  0  0  0  0  0  0  0  0
   -2.9043   -5.7116   -2.0201 H   0  0  0  0  0  0  0  0  0  0  0  0
    3.0598   -3.9354    3.2439 H   0  0  0  0  0  0  0  0  0  0  0  0
    1.3645   -3.5643    3.6306 H   0  0  0  0  0  0  0  0  0  0  0  0
    2.6276   -2.2869    3.7504 H   0  0  0  0  0  0  0  0  0  0  0  0
   -8.3196    4.2110    0.7324 H   0  0  0  0  0  0  0  0  0  0  0  0
   -7.6397    4.1369   -0.9072 H   0  0  0  0  0  0  0  0  0  0  0  0
   -7.0248    5.3383    0.2758 H   0  0  0  0  0  0  0  0  0  0  0  0
  1 19  1  0  0  0  0
  1 31  1  0  0  0  0
  2 19  2  0  0  0  0
  3 25  1  0  0  0  0
  3 32  1  0  0  0  0
  4  7  1  0  0  0  0
  4  8  1  0  0  0  0
  4 12  1  0  0  0  0
  5 10  1  0  0  0  0
  5 20  1  0  0  0  0
  5 43  1  0  0  0  0
  6 13  1  0  0  0  0
  6 18  1  0  0  0  0
  6 44  1  0  0  0  0
  7  9  1  0  0  0  0
  7 13  1  0  0  0  0
  7 33  1  0  0  0  0
  8 11  1  0  0  0  0
  8 16  1  0  0  0  0
  8 34  1  0  0  0  0
  9 10  1  0  0  0  0
  9 35  1  0  0  0  0
  9 36  1  0  0  0  0
 10 11  1  0  0  0  0
 10 37  1  0  0  0  0
 11 38  1  0  0  0  0
 11 39  1  0  0  0  0
 12 14  1  0  0  0  0
 12 19  1  0  0  0  0
 12 40  1  0  0  0  0
 13 15  2  0  0  0  0
 14 15  1  0  0  0  0
 14 41  1  0  0  0  0
 14 42  1  0  0  0  0
 15 17  1  0  0  0  0
 16 21  2  0  0  0  0
 16 22  1  0  0  0  0
 17 18  1  0  0  0  0
 17 23  2  0  0  0  0
 18 24  2  0  0  0  0
 20 25  1  0  0  0  0
 20 45  1  0  0  0  0
 20 46  1  0  0  0  0
 21 27  1  0  0  0  0
 21 47  1  0  0  0  0
 22 28  2  0  0  0  0
 22 48  1  0  0  0  0
 23 26  1  0  0  0  0
 23 49  1  0  0  0  0
 24 29  1  0  0  0  0
 24 50  1  0  0  0  0
 25 51  1  0  0  0  0
 25 52  1  0  0  0  0
 26 29  2  0  0  0  0
 26 53  1  0  0  0  0
 27 30  2  0  0  0  0
 27 54  1  0  0  0  0
 28 30  1  0  0  0  0
 28 55  1  0  0  0  0
 29 56  1  0  0  0  0
 30 57  1  0  0  0  0
 31 58  1  0  0  0  0
 31 59  1  0  0  0  0
 31 60  1  0  0  0  0
 32 61  1  0  0  0  0
 32 62  1  0  0  0  0
 32 63  1  0  0  0  0
M  END
> <PUBCHEM_COMPOUND_CID>
25389803

> <PUBCHEM_CONFORMER_RMSD>
1

> <PUBCHEM_CONFORMER_DIVERSEORDER>
1
8
11
10
2
7
12
13
4
5
9
3
6
14

> <PUBCHEM_MMFF94_PARTIAL_CHARGES>
40
1 -0.43
10 0.27
12 0.33
13 -0.33
14 0.18
15 -0.18
16 -0.14
18 -0.15
19 0.66
2 -0.57
20 0.27
21 -0.15
22 -0.15
23 -0.15
24 -0.15
25 0.28
26 -0.15
27 -0.15
28 -0.15
29 -0.15
3 -0.56
30 -0.15
31 0.28
32 0.28
4 -0.81
43 0.36
44 0.27
47 0.15
48 0.15
49 0.15
5 -0.9
50 0.15
53 0.15
54 0.15
55 0.15
56 0.15
57 0.15
6 0.03
7 0.45
8 0.41

> <PUBCHEM_EFFECTIVE_ROTOR_COUNT>
8.2

> <PUBCHEM_PHARMACOPHORE_FEATURES>
12
1 2 acceptor
1 3 acceptor
1 4 cation
1 5 cation
1 5 donor
1 6 cation
1 6 donor
5 6 13 15 17 18 rings
6 16 21 22 27 28 30 rings
6 17 18 23 24 26 29 rings
6 4 7 12 13 14 15 rings
6 4 7 8 9 10 11 rings

> <PUBCHEM_HEAVY_ATOM_COUNT>
32

> <PUBCHEM_ATOM_DEF_STEREO_COUNT>
4

> <PUBCHEM_ATOM_UDEF_STEREO_COUNT>
0

> <PUBCHEM_BOND_DEF_STEREO_COUNT>
0

> <PUBCHEM_BOND_UDEF_STEREO_COUNT>
0

> <PUBCHEM_ISOTOPIC_ATOM_COUNT>
0

> <PUBCHEM_COMPONENT_COUNT>
1

> <PUBCHEM_CACTVS_TAUTO_COUNT>
1

> <PUBCHEM_CONFORMER_ID>
01836AEB00000001

> <PUBCHEM_MMFF94_ENERGY>
74.0715

> <PUBCHEM_FEATURE_SELFOVERLAP>
61.091

> <PUBCHEM_SHAPE_FINGERPRINT>
10190206 1 18338228383935051029
1100329 8 18262514768075105674
11445158 3 17828185615507631077
12788726 201 17975969083975396178
133893 2 16734919347259378466
13540713 5 18335123289646151171
13590594 115 17907583880412879379
140371 6 17397549079113766868
14294032 229 18340499970694859633
14347332 77 18197779019445206990
14400156 350 17904475212975278365
14790565 3 18340488851267162517
14955137 171 17756705230694130338
15361156 5 17976840983917244500
15439362 3 18270686338139257196
15484559 13 18054236423144518343
15629462 23 18118687861887786186
15927050 60 18410294709461896035
16087824 20 18268712878952401103
16090146 7 17915465999519595042
19319366 153 17968663709397512976
20505436 4 18260552195126332720
21033650 10 18120682337931936660
23558518 356 18262521536426482212
23559900 14 18272657827613988732
249057 3 18269559330479050670
255183 451 16834596416231989543
283562 15 18046057430701613011
3388396 114 17254574101438642684
3411729 13 18189341173497481529
38695281 34 18340493253139155485
469060 322 17095519656055105255
497634 4 16698397011553942076
5252454 2 18334849507045720148
57527295 17 18334583486447731494
6898599 12 18339931527014368605
9658208 31 18201991149227356417

> <PUBCHEM_SHAPE_MULTIPOLES>
625.99
12.6
6.95
1.72
0.66
1.62
1.13
-20.35
-2.61
12.41
-0.78
-0.72
2.79
-3.86

> <PUBCHEM_SHAPE_SELFOVERLAP>
1357.584

> <PUBCHEM_SHAPE_VOLUME>
340.7

> <PUBCHEM_COORDINATE_TYPE>
2
5
10

$$$$
