7051348
  -OEChem-12032416403D

 58 63  0     1  0  0  0  0  0999 V2000
   -3.7484    0.0880   -0.8801 S   0  0  0  0  0  0  0  0  0  0  0  0
   -5.7394   -1.6357    0.3896 S   0  0  0  0  0  0  0  0  0  0  0  0
   -2.3175    2.8602   -0.9455 O   0  0  0  0  0  0  0  0  0  0  0  0
    2.2576    1.1025   -2.6266 O   0  0  0  0  0  0  0  0  0  0  0  0
   -4.9022    0.6670   -1.5419 O   0  0  0  0  0  0  0  0  0  0  0  0
   -2.4832   -0.0233   -1.5813 O   0  0  0  0  0  0  0  0  0  0  0  0
    2.5893    2.0240   -0.5016 N   0  0  0  0  0  0  0  0  0  0  0  0
   -0.3566    2.8485    0.3366 N   0  0  0  0  0  0  0  0  0  0  0  0
   -3.5069    0.8473    0.6134 N   0  0  0  0  0  0  0  0  0  0  0  0
    1.6708    4.3176   -0.1996 C   0  0  1  0  0  0  0  0  0  0  0  0
    1.7527    2.7702    1.7143 C   0  0  2  0  0  0  0  0  0  0  0  0
    1.9547    4.2258    1.2959 C   0  0  0  0  0  0  0  0  0  0  0  0
    2.6284    3.4037   -0.9855 C   0  0  0  0  0  0  0  0  0  0  0  0
    0.1996    3.9605   -0.4457 C   0  0  0  0  0  0  0  0  0  0  0  0
    2.7484    1.8717    0.9538 C   0  0  0  0  0  0  0  0  0  0  0  0
    0.3336    2.3126    1.4327 C   0  0  0  0  0  0  0  0  0  0  0  0
   -0.2399    1.3731    2.2067 C   0  0  0  0  0  0  0  0  0  0  0  0
   -1.6556    2.4189   -0.0070 C   0  0  0  0  0  0  0  0  0  0  0  0
    2.3911    0.9817   -1.4101 C   0  0  0  0  0  0  0  0  0  0  0  0
   -2.2247    1.3638    0.8688 C   0  0  0  0  0  0  0  0  0  0  0  0
   -1.5594    0.8800    1.9183 C   0  0  0  0  0  0  0  0  0  0  0  0
    2.3138   -0.3843   -0.8822 C   0  0  0  0  0  0  0  0  0  0  0  0
    3.4733   -1.1461   -0.7583 C   0  0  0  0  0  0  0  0  0  0  0  0
    1.0839   -0.9108   -0.5070 C   0  0  0  0  0  0  0  0  0  0  0  0
    3.4161   -2.4556   -0.2538 C   0  0  0  0  0  0  0  0  0  0  0  0
    1.0083   -2.2099   -0.0037 C   0  0  0  0  0  0  0  0  0  0  0  0
    2.1650   -2.9953    0.1291 C   0  0  0  0  0  0  0  0  0  0  0  0
   -4.2041   -1.5374   -0.3525 C   0  0  0  0  0  0  0  0  0  0  0  0
    4.5726   -3.2410   -0.1207 C   0  0  0  0  0  0  0  0  0  0  0  0
    2.1075   -4.3047    0.6337 C   0  0  0  0  0  0  0  0  0  0  0  0
   -3.5698   -2.7505   -0.4173 C   0  0  0  0  0  0  0  0  0  0  0  0
    4.4968   -4.5401    0.3824 C   0  0  0  0  0  0  0  0  0  0  0  0
    3.2666   -5.0710    0.7588 C   0  0  0  0  0  0  0  0  0  0  0  0
   -4.3591   -3.7897    0.1546 C   0  0  0  0  0  0  0  0  0  0  0  0
   -5.5637   -3.3217    0.6317 C   0  0  0  0  0  0  0  0  0  0  0  0
    1.8379    5.3460   -0.5431 H   0  0  0  0  0  0  0  0  0  0  0  0
    1.9628    2.6900    2.7887 H   0  0  0  0  0  0  0  0  0  0  0  0
    1.2853    4.8891    1.8580 H   0  0  0  0  0  0  0  0  0  0  0  0
    2.9809    4.5475    1.5110 H   0  0  0  0  0  0  0  0  0  0  0  0
    2.3991    3.4459   -2.0555 H   0  0  0  0  0  0  0  0  0  0  0  0
    3.6610    3.7532   -0.8634 H   0  0  0  0  0  0  0  0  0  0  0  0
   -0.4196    4.8335   -0.1977 H   0  0  0  0  0  0  0  0  0  0  0  0
    0.0251    3.7607   -1.5105 H   0  0  0  0  0  0  0  0  0  0  0  0
    3.7779    2.1668    1.1918 H   0  0  0  0  0  0  0  0  0  0  0  0
    2.6381    0.8312    1.2685 H   0  0  0  0  0  0  0  0  0  0  0  0
    0.2830    0.9355    3.0507 H   0  0  0  0  0  0  0  0  0  0  0  0
   -1.9633    0.1097    2.5665 H   0  0  0  0  0  0  0  0  0  0  0  0
   -3.9376    0.3762    1.4211 H   0  0  0  0  0  0  0  0  0  0  0  0
    4.4298   -0.7192   -1.0557 H   0  0  0  0  0  0  0  0  0  0  0  0
    0.1760   -0.3245   -0.6078 H   0  0  0  0  0  0  0  0  0  0  0  0
    0.0357   -2.6041    0.2835 H   0  0  0  0  0  0  0  0  0  0  0  0
    5.5449   -2.8466   -0.4085 H   0  0  0  0  0  0  0  0  0  0  0  0
    1.1567   -4.7398    0.9342 H   0  0  0  0  0  0  0  0  0  0  0  0
   -2.5886   -2.8954   -0.8503 H   0  0  0  0  0  0  0  0  0  0  0  0
    5.3988   -5.1372    0.4802 H   0  0  0  0  0  0  0  0  0  0  0  0
    3.2083   -6.0824    1.1504 H   0  0  0  0  0  0  0  0  0  0  0  0
   -4.0584   -4.8276    0.2135 H   0  0  0  0  0  0  0  0  0  0  0  0
   -6.3489   -3.8893    1.1109 H   0  0  0  0  0  0  0  0  0  0  0  0
  1  5  2  0  0  0  0
  1  6  2  0  0  0  0
  1  9  1  0  0  0  0
  1 28  1  0  0  0  0
  2 28  1  0  0  0  0
  2 35  1  0  0  0  0
  3 18  2  0  0  0  0
  4 19  2  0  0  0  0
  7 13  1  0  0  0  0
  7 15  1  0  0  0  0
  7 19  1  0  0  0  0
  8 14  1  0  0  0  0
  8 16  1  0  0  0  0
  8 18  1  0  0  0  0
  9 20  1  0  0  0  0
  9 48  1  0  0  0  0
 10 12  1  0  0  0  0
 10 13  1  0  0  0  0
 10 14  1  0  0  0  0
 10 36  1  0  0  0  0
 11 12  1  0  0  0  0
 11 15  1  0  0  0  0
 11 16  1  0  0  0  0
 11 37  1  0  0  0  0
 12 38  1  0  0  0  0
 12 39  1  0  0  0  0
 13 40  1  0  0  0  0
 13 41  1  0  0  0  0
 14 42  1  0  0  0  0
 14 43  1  0  0  0  0
 15 44  1  0  0  0  0
 15 45  1  0  0  0  0
 16 17  2  0  0  0  0
 17 21  1  0  0  0  0
 17 46  1  0  0  0  0
 18 20  1  0  0  0  0
 19 22  1  0  0  0  0
 20 21  2  0  0  0  0
 21 47  1  0  0  0  0
 22 23  2  0  0  0  0
 22 24  1  0  0  0  0
 23 25  1  0  0  0  0
 23 49  1  0  0  0  0
 24 26  2  0  0  0  0
 24 50  1  0  0  0  0
 25 27  1  0  0  0  0
 25 29  2  0  0  0  0
 26 27  1  0  0  0  0
 26 51  1  0  0  0  0
 27 30  2  0  0  0  0
 28 31  2  0  0  0  0
 29 32  1  0  0  0  0
 29 52  1  0  0  0  0
 30 33  1  0  0  0  0
 30 53  1  0  0  0  0
 31 34  1  0  0  0  0
 31 54  1  0  0  0  0
 32 33  2  0  0  0  0
 32 55  1  0  0  0  0
 33 56  1  0  0  0  0
 34 35  2  0  0  0  0
 34 57  1  0  0  0  0
 35 58  1  0  0  0  0
M  END
> <PUBCHEM_COMPOUND_CID>
7051348

> <PUBCHEM_CONFORMER_RMSD>
1

> <PUBCHEM_CONFORMER_DIVERSEORDER>
1
63
51
22
45
48
34
75
65
71
41
39
62
3
21
49
84
15
24
32
64
68
47
73
40
36
7
79
43
42
8
58
57
78
77
29
52
46
44
38
20
9
66
33
74
23
31
82
85
54
14
35
56
80
59
72
17
81
60
70
53
30
37
28
19
18
76
16
69
11
25
61
83
12
2
13
4
27
50
5
55
67
6
26
10

> <PUBCHEM_MMFF94_PARTIAL_CHARGES>
44
1 1.5
11 0.14
13 0.3
14 0.3
15 0.3
16 -0.03
17 -0.15
18 0.62
19 0.54
2 -0.08
20 0.21
21 -0.15
22 0.09
23 -0.15
24 -0.15
26 -0.15
28 -0.02
29 -0.15
3 -0.57
30 -0.15
31 -0.15
32 -0.15
33 -0.15
34 -0.15
35 -0.11
4 -0.57
46 0.15
47 0.15
48 0.42
49 0.15
5 -0.65
50 0.15
51 0.15
52 0.15
53 0.15
54 0.15
55 0.15
56 0.15
57 0.15
58 0.15
6 -0.65
7 -0.66
8 -0.47
9 -0.75

> <PUBCHEM_EFFECTIVE_ROTOR_COUNT>
6

> <PUBCHEM_PHARMACOPHORE_FEATURES>
11
1 3 acceptor
1 4 acceptor
1 5 acceptor
1 6 acceptor
1 9 donor
5 2 28 31 34 35 rings
6 22 23 24 25 26 27 rings
6 25 27 29 30 32 33 rings
6 7 10 11 12 13 15 rings
6 8 10 11 12 14 16 rings
6 8 16 17 18 20 21 rings

> <PUBCHEM_HEAVY_ATOM_COUNT>
35

> <PUBCHEM_ATOM_DEF_STEREO_COUNT>
2

> <PUBCHEM_ATOM_UDEF_STEREO_COUNT>
0

> <PUBCHEM_BOND_DEF_STEREO_COUNT>
0

> <PUBCHEM_BOND_UDEF_STEREO_COUNT>
0

> <PUBCHEM_ISOTOPIC_ATOM_COUNT>
0

> <PUBCHEM_COMPONENT_COUNT>
1

> <PUBCHEM_CACTVS_TAUTO_COUNT>
1

> <PUBCHEM_CONFORMER_ID>
006B985400000001

> <PUBCHEM_MMFF94_ENERGY>
95.4541

> <PUBCHEM_FEATURE_SELFOVERLAP>
57.451

> <PUBCHEM_SHAPE_FINGERPRINT>
10316853 100 17474393955527156575
11014199 57 18266183820580478838
11285246 1 17823141133659190867
11488393 25 18263927803198047923
11552529 35 17331958327576423810
12104220 1 18051402982113210314
13004483 165 17760652460532055792
1361 2 17833835250270851939
14068700 675 17842251715222830215
14114211 68 17900565636988406127
14659021 117 17903906761110020426
14844126 61 17545041507321588096
15264996 163 17899705557182093483
15968369 26 18119508067808091395
17093844 170 17693381444041402385
17686467 74 18271237202836091810
19311894 1 17976824181763290747
19319366 153 17982167026473442911
20764821 26 17474663326985216935
20775438 99 17905000951626953213
20775530 9 18343304738630572239
22956985 138 18411130364227215098
23559900 14 18337098013167452919
4280585 95 18265881467651113570
4394409 98 17250307524413524903
463206 1 18266466403594675547
66674814 147 16756042383016025327
86090 222 17478616062992607867

> <PUBCHEM_SHAPE_MULTIPOLES>
689.56
9.92
7.89
1.63
14.03
3.82
0.03
11.28
-1.05
-8.03
1.71
-0.23
-1.18
-0.03

> <PUBCHEM_SHAPE_SELFOVERLAP>
1510.693

> <PUBCHEM_SHAPE_VOLUME>
372.2

> <PUBCHEM_COORDINATE_TYPE>
2
5
10

$$$$
