45783322
  -OEChem-12032416383D

 63 68  0     1  0  0  0  0  0999 V2000
   -3.5109    0.6565   -2.2396 O   0  0  0  0  0  0  0  0  0  0  0  0
    6.9773    0.7538    0.2471 O   0  0  0  0  0  0  0  0  0  0  0  0
    0.1928   -1.9379    1.8495 O   0  0  0  0  0  0  0  0  0  0  0  0
   -0.5512   -3.8391    0.5691 O   0  0  0  0  0  0  0  0  0  0  0  0
   -3.8900    1.4306    1.3328 N   0  0  1  0  0  0  0  0  0  0  0  0
    3.1552    0.1124   -0.4121 N   0  0  0  0  0  0  0  0  0  0  0  0
   -1.8381    0.9108   -0.7720 N   0  0  0  0  0  0  0  0  0  0  0  0
   -2.3561    0.1907   -2.8808 N   0  0  0  0  0  0  0  0  0  0  0  0
    2.6439   -0.6406   -2.5978 N   0  0  0  0  0  0  0  0  0  0  0  0
    6.5533    2.5398    1.6343 N   0  0  0  0  0  0  0  0  0  0  0  0
   -4.1986    1.6153   -0.0993 C   0  0  1  0  0  0  0  0  0  0  0  0
   -4.3926    3.1339   -0.2648 C   0  0  0  0  0  0  0  0  0  0  0  0
   -4.2348    3.7100    1.1351 C   0  0  0  0  0  0  0  0  0  0  0  0
   -4.5388    2.5340    2.0412 C   0  0  0  0  0  0  0  0  0  0  0  0
   -4.3034    0.1310    1.8465 C   0  0  0  0  0  0  0  0  0  0  0  0
    5.0797    0.6343    1.6981 C   0  0  0  0  0  0  0  0  0  0  0  0
    4.8728   -0.7651    1.1229 C   0  0  0  0  0  0  0  0  0  0  0  0
    3.8404    1.5047    1.4996 C   0  0  0  0  0  0  0  0  0  0  0  0
   -3.1175    1.0620   -1.0039 C   0  0  0  0  0  0  0  0  0  0  0  0
    4.3266   -0.7617   -0.3066 C   0  0  0  0  0  0  0  0  0  0  0  0
    3.3305    1.4918    0.0589 C   0  0  0  0  0  0  0  0  0  0  0  0
   -3.3227   -0.9527    1.4844 C   0  0  0  0  0  0  0  0  0  0  0  0
    2.2197   -0.1076   -1.4300 C   0  0  0  0  0  0  0  0  0  0  0  0
    6.2898    1.2972    1.1081 C   0  0  0  0  0  0  0  0  0  0  0  0
   -1.4129    0.3731   -1.9519 C   0  0  0  0  0  0  0  0  0  0  0  0
    0.9044    0.2415   -1.1692 C   0  0  0  0  0  0  0  0  0  0  0  0
   -1.9917   -0.8489    1.8952 C   0  0  0  0  0  0  0  0  0  0  0  0
   -0.0361    0.0302   -2.1714 C   0  0  0  0  0  0  0  0  0  0  0  0
   -3.7568   -2.0618    0.7371 C   0  0  0  0  0  0  0  0  0  0  0  0
   -1.1310   -1.8676    1.5413 C   0  0  0  0  0  0  0  0  0  0  0  0
   -2.8646   -3.0800    0.3923 C   0  0  0  0  0  0  0  0  0  0  0  0
   -1.5558   -2.9533    0.8101 C   0  0  0  0  0  0  0  0  0  0  0  0
    0.3620   -0.5161   -3.3865 C   0  0  0  0  0  0  0  0  0  0  0  0
    1.7015   -0.8314   -3.5482 C   0  0  0  0  0  0  0  0  0  0  0  0
    0.5534   -3.1897    1.2307 C   0  0  0  0  0  0  0  0  0  0  0  0
   -5.1497    1.1290   -0.3583 H   0  0  0  0  0  0  0  0  0  0  0  0
   -5.4054    3.3380   -0.6331 H   0  0  0  0  0  0  0  0  0  0  0  0
   -3.6830    3.5977   -0.9586 H   0  0  0  0  0  0  0  0  0  0  0  0
   -4.9020    4.5589    1.3109 H   0  0  0  0  0  0  0  0  0  0  0  0
   -3.2026    4.0507    1.2837 H   0  0  0  0  0  0  0  0  0  0  0  0
   -5.6232    2.3854    2.1207 H   0  0  0  0  0  0  0  0  0  0  0  0
   -4.1246    2.6811    3.0434 H   0  0  0  0  0  0  0  0  0  0  0  0
   -4.3342    0.1569    2.9449 H   0  0  0  0  0  0  0  0  0  0  0  0
   -5.3231   -0.1254    1.5305 H   0  0  0  0  0  0  0  0  0  0  0  0
    5.2737    0.5375    2.7749 H   0  0  0  0  0  0  0  0  0  0  0  0
    4.1503   -1.2912    1.7618 H   0  0  0  0  0  0  0  0  0  0  0  0
    5.7992   -1.3509    1.1600 H   0  0  0  0  0  0  0  0  0  0  0  0
    3.9955    2.5414    1.8155 H   0  0  0  0  0  0  0  0  0  0  0  0
    3.0438    1.1102    2.1455 H   0  0  0  0  0  0  0  0  0  0  0  0
    5.0925   -0.4391   -1.0209 H   0  0  0  0  0  0  0  0  0  0  0  0
    4.0571   -1.7935   -0.5661 H   0  0  0  0  0  0  0  0  0  0  0  0
    2.3968    2.0649    0.0271 H   0  0  0  0  0  0  0  0  0  0  0  0
    4.0388    2.0102   -0.5996 H   0  0  0  0  0  0  0  0  0  0  0  0
    0.6169    0.6470   -0.2035 H   0  0  0  0  0  0  0  0  0  0  0  0
   -1.6389   -0.0031    2.4758 H   0  0  0  0  0  0  0  0  0  0  0  0
   -4.7930   -2.1387    0.4174 H   0  0  0  0  0  0  0  0  0  0  0  0
   -3.1949   -3.9363   -0.1846 H   0  0  0  0  0  0  0  0  0  0  0  0
    7.3466    3.0821    1.3083 H   0  0  0  0  0  0  0  0  0  0  0  0
    6.0111    2.9466    2.3891 H   0  0  0  0  0  0  0  0  0  0  0  0
   -0.3264   -0.7038   -4.2040 H   0  0  0  0  0  0  0  0  0  0  0  0
    2.0634   -1.2601   -4.4769 H   0  0  0  0  0  0  0  0  0  0  0  0
    1.3426   -3.0014    0.4934 H   0  0  0  0  0  0  0  0  0  0  0  0
    0.9458   -3.8624    2.0019 H   0  0  0  0  0  0  0  0  0  0  0  0
  1  8  1  0  0  0  0
  1 19  1  0  0  0  0
  2 24  2  0  0  0  0
  3 30  1  0  0  0  0
  3 35  1  0  0  0  0
  4 32  1  0  0  0  0
  4 35  1  0  0  0  0
  5 11  1  0  0  0  0
  5 14  1  0  0  0  0
  5 15  1  0  0  0  0
  6 20  1  0  0  0  0
  6 21  1  0  0  0  0
  6 23  1  0  0  0  0
  7 19  2  0  0  0  0
  7 25  1  0  0  0  0
  8 25  2  0  0  0  0
  9 23  2  0  0  0  0
  9 34  1  0  0  0  0
 10 24  1  0  0  0  0
 10 58  1  0  0  0  0
 10 59  1  0  0  0  0
 11 12  1  0  0  0  0
 11 19  1  0  0  0  0
 11 36  1  0  0  0  0
 12 13  1  0  0  0  0
 12 37  1  0  0  0  0
 12 38  1  0  0  0  0
 13 14  1  0  0  0  0
 13 39  1  0  0  0  0
 13 40  1  0  0  0  0
 14 41  1  0  0  0  0
 14 42  1  0  0  0  0
 15 22  1  0  0  0  0
 15 43  1  0  0  0  0
 15 44  1  0  0  0  0
 16 17  1  0  0  0  0
 16 18  1  0  0  0  0
 16 24  1  0  0  0  0
 16 45  1  0  0  0  0
 17 20  1  0  0  0  0
 17 46  1  0  0  0  0
 17 47  1  0  0  0  0
 18 21  1  0  0  0  0
 18 48  1  0  0  0  0
 18 49  1  0  0  0  0
 20 50  1  0  0  0  0
 20 51  1  0  0  0  0
 21 52  1  0  0  0  0
 21 53  1  0  0  0  0
 22 27  2  0  0  0  0
 22 29  1  0  0  0  0
 23 26  1  0  0  0  0
 25 28  1  0  0  0  0
 26 28  2  0  0  0  0
 26 54  1  0  0  0  0
 27 30  1  0  0  0  0
 27 55  1  0  0  0  0
 28 33  1  0  0  0  0
 29 31  2  0  0  0  0
 29 56  1  0  0  0  0
 30 32  2  0  0  0  0
 31 32  1  0  0  0  0
 31 57  1  0  0  0  0
 33 34  2  0  0  0  0
 33 60  1  0  0  0  0
 34 61  1  0  0  0  0
 35 62  1  0  0  0  0
 35 63  1  0  0  0  0
M  END
> <PUBCHEM_COMPOUND_CID>
45783322

> <PUBCHEM_CONFORMER_RMSD>
1

> <PUBCHEM_CONFORMER_DIVERSEORDER>
1
198
109
262
68
329
326
98
330
161
285
21
185
24
310
296
322
239
202
229
84
292
288
299
82
220
252
157
103
87
143
303
249
94
124
304
282
327
111
325
181
81
154
26
283
254
99
182
291
56
93
179
128
311
233
142
314
104
71
196
302
216
324
175
275
118
47
318
232
150
244
271
137
125
214
315
156
120
105
77
234
192
194
88
19
328
323
62
83
155
6
203
119
284
186
238
106
74
287
246
116
66
319
251
55
139
44
230
134
286
200
187
5
40
101
96
9
305
223
263
136
253
97
174
163
211
178
95
240
91
257
197
169
18
153
112
49
228
261
41
177
59
225
293
173
210
20
151
80
69
280
277
50
306
85
102
121
45
114
222
141
260
61
321
170
259
209
37
269
320
255
115
100
279
213
316
126
38
208
298
242
90
159
79
281
4
312
122
217
51
23
250
65
138
135
140
43
172
149
215
183
224
248
168
270
162
160
129
256
266
264
64
176
317
301
25
265
190
267
145
300
247
212
201
30
127
276
2
236
3
86
131
307
67
52
12
167
268
17
75
308
226
164
243
108
245
205
152
237
231
184
272
73
10
278
158
34
294
48
289
204
206
221
39
309
241
29
180
273
189
132
295
57
148
193
195
31
15
191
258
33
235
207
22
89
107
290
171
42
7
36
313
188
72
110
274
11
166
54
92
117
28
227
133
14
297
13
123
76
78
113
53
146
144
46
60
130
165
219
147
58
27
63
70
199
8
32
35
16
218

> <PUBCHEM_MMFF94_PARTIAL_CHARGES>
39
1 -0.02
10 -0.8
11 0.45
14 0.27
15 0.41
16 0.06
19 0.3
2 -0.57
20 0.37
21 0.37
22 -0.14
23 0.41
24 0.57
25 0.46
26 -0.15
27 -0.15
28 0.05
29 -0.15
3 -0.36
30 0.08
31 -0.15
32 0.08
33 -0.15
34 0.16
35 0.56
4 -0.36
5 -0.81
54 0.15
55 0.15
56 0.15
57 0.15
58 0.37
59 0.37
6 -0.84
60 0.15
61 0.15
7 -0.57
8 -0.41
9 -0.62

> <PUBCHEM_EFFECTIVE_ROTOR_COUNT>
8.8

> <PUBCHEM_PHARMACOPHORE_FEATURES>
13
1 10 donor
1 2 acceptor
1 3 acceptor
1 4 acceptor
1 5 cation
3 6 9 23 cation
3 7 8 25 cation
5 1 7 8 19 25 rings
5 3 4 30 32 35 rings
5 5 11 12 13 14 rings
6 22 27 29 30 31 32 rings
6 6 16 17 18 20 21 rings
6 9 23 26 28 33 34 rings

> <PUBCHEM_HEAVY_ATOM_COUNT>
35

> <PUBCHEM_ATOM_DEF_STEREO_COUNT>
1

> <PUBCHEM_ATOM_UDEF_STEREO_COUNT>
0

> <PUBCHEM_BOND_DEF_STEREO_COUNT>
0

> <PUBCHEM_BOND_UDEF_STEREO_COUNT>
0

> <PUBCHEM_ISOTOPIC_ATOM_COUNT>
0

> <PUBCHEM_COMPONENT_COUNT>
1

> <PUBCHEM_CACTVS_TAUTO_COUNT>
2

> <PUBCHEM_CONFORMER_ID>
02BA991A00000001

> <PUBCHEM_MMFF94_ENERGY>
86.1817

> <PUBCHEM_FEATURE_SELFOVERLAP>
66.13

> <PUBCHEM_SHAPE_FINGERPRINT>
10032420 55 17059201734570792782
11112241 14 18337101259909566541
11582403 64 17987789701325279511
1200032 147 17059221320022005481
12422481 6 17241333451761373195
12633257 1 18186240649528174980
12788726 201 17684411530051567671
131258 38 15797689236389310849
13642711 20 18129949949221418003
14068700 675 18045209699179718719
14395042 24 17605292851277183587
14468879 13 17704077261428327881
14705955 166 18340202015611630208
14932701 244 18201711912397923279
14950920 106 18262230140218229784
15274700 21 15984531343436830551
16112460 7 17677059061178596948
20554085 129 18190185577580621813
21033648 29 18269294386541571601
21796203 349 16154860980067421228
21987440 362 17683803216042239944
244849 19 18058189266062153342
4112364 45 17909269079704468721
469060 322 16259511723382695904
484985 159 14851877093471960177
5951187 136 17339574691482008073
7064713 232 18041288672910202939

> <PUBCHEM_SHAPE_MULTIPOLES>
666.92
12.84
3.73
3.25
17.61
0.7
3
-11.02
-7.55
-4.09
-2.42
0.17
0.42
1.53

> <PUBCHEM_SHAPE_SELFOVERLAP>
1468.529

> <PUBCHEM_SHAPE_VOLUME>
358.3

> <PUBCHEM_COORDINATE_TYPE>
2
5
10

$$$$
