38030222
  -OEChem-12032416363D

 54 55  0     1  0  0  0  0  0999 V2000
    5.6646   -0.6180    1.8068 O   0  0  0  0  0  0  0  0  0  0  0  0
   -0.9345    1.1471   -1.7610 O   0  0  0  0  0  0  0  0  0  0  0  0
   -1.9332    1.7885    0.2316 N   0  0  0  0  0  0  0  0  0  0  0  0
   -5.5060   -0.9338    1.2343 N   0  0  0  0  0  0  0  0  0  0  0  0
    2.3641   -1.0750    0.0541 C   0  0  2  0  0  0  0  0  0  0  0  0
    1.7240   -0.3118   -1.1155 C   0  0  0  0  0  0  0  0  0  0  0  0
    3.8052   -0.5662    0.3077 C   0  0  1  0  0  0  0  0  0  0  0  0
    1.6678    1.2061   -0.8595 C   0  0  2  0  0  0  0  0  0  0  0  0
    2.3339   -2.5800   -0.2302 C   0  0  0  0  0  0  0  0  0  0  0  0
    2.9896    1.7398   -0.3458 C   0  0  0  0  0  0  0  0  0  0  0  0
    3.9380    0.9313    0.1599 C   0  0  0  0  0  0  0  0  0  0  0  0
    0.5234    1.5632    0.0956 C   0  0  0  0  0  0  0  0  0  0  0  0
    4.3051   -0.9890    1.6938 C   0  0  0  0  0  0  0  0  0  0  0  0
    0.9654   -3.1592    0.1138 C   0  0  0  0  0  0  0  0  0  0  0  0
    2.6858   -2.8529   -1.6890 C   0  0  0  0  0  0  0  0  0  0  0  0
    3.2154    3.2211   -0.4686 C   0  0  0  0  0  0  0  0  0  0  0  0
   -0.8346    1.4758   -0.5760 C   0  0  0  0  0  0  0  0  0  0  0  0
   -3.3065    1.7519   -0.2655 C   0  0  0  0  0  0  0  0  0  0  0  0
   -1.7904    2.1745    1.6301 C   0  0  0  0  0  0  0  0  0  0  0  0
   -3.9525    0.4165   -0.0340 C   0  0  0  0  0  0  0  0  0  0  0  0
   -3.6282   -0.6830   -0.8212 C   0  0  0  0  0  0  0  0  0  0  0  0
   -4.8891    0.2402    0.9718 C   0  0  0  0  0  0  0  0  0  0  0  0
   -4.2418   -1.9076   -0.5818 C   0  0  0  0  0  0  0  0  0  0  0  0
   -5.1653   -1.9798    0.4485 C   0  0  0  0  0  0  0  0  0  0  0  0
    1.7820   -0.8851    0.9654 H   0  0  0  0  0  0  0  0  0  0  0  0
    0.7244   -0.6988   -1.3356 H   0  0  0  0  0  0  0  0  0  0  0  0
    2.3178   -0.4354   -2.0303 H   0  0  0  0  0  0  0  0  0  0  0  0
    4.4883   -0.9922   -0.4390 H   0  0  0  0  0  0  0  0  0  0  0  0
    1.4852    1.6828   -1.8330 H   0  0  0  0  0  0  0  0  0  0  0  0
    3.0644   -3.1024    0.3959 H   0  0  0  0  0  0  0  0  0  0  0  0
    4.8841    1.3747    0.4627 H   0  0  0  0  0  0  0  0  0  0  0  0
    0.6388    2.5998    0.4315 H   0  0  0  0  0  0  0  0  0  0  0  0
    0.5358    0.9104    0.9739 H   0  0  0  0  0  0  0  0  0  0  0  0
    4.2413   -2.0694    1.8439 H   0  0  0  0  0  0  0  0  0  0  0  0
    3.7382   -0.4938    2.4903 H   0  0  0  0  0  0  0  0  0  0  0  0
    0.1646   -2.7245   -0.4925 H   0  0  0  0  0  0  0  0  0  0  0  0
    0.7221   -2.9897    1.1683 H   0  0  0  0  0  0  0  0  0  0  0  0
    0.9550   -4.2416   -0.0555 H   0  0  0  0  0  0  0  0  0  0  0  0
    1.8849   -2.5784   -2.3837 H   0  0  0  0  0  0  0  0  0  0  0  0
    2.8414   -3.9303   -1.8258 H   0  0  0  0  0  0  0  0  0  0  0  0
    3.6152   -2.3655   -1.9979 H   0  0  0  0  0  0  0  0  0  0  0  0
    3.0669    3.5436   -1.5044 H   0  0  0  0  0  0  0  0  0  0  0  0
    4.2329    3.5070   -0.1810 H   0  0  0  0  0  0  0  0  0  0  0  0
    2.5267    3.7789    0.1722 H   0  0  0  0  0  0  0  0  0  0  0  0
    5.9629   -0.8841    2.6931 H   0  0  0  0  0  0  0  0  0  0  0  0
   -3.2994    1.9544   -1.3438 H   0  0  0  0  0  0  0  0  0  0  0  0
   -3.8819    2.5636    0.1953 H   0  0  0  0  0  0  0  0  0  0  0  0
   -2.2688    3.1491    1.7714 H   0  0  0  0  0  0  0  0  0  0  0  0
   -0.7655    2.2563    1.9866 H   0  0  0  0  0  0  0  0  0  0  0  0
   -2.3041    1.4339    2.2504 H   0  0  0  0  0  0  0  0  0  0  0  0
   -2.9080   -0.6025   -1.6292 H   0  0  0  0  0  0  0  0  0  0  0  0
   -5.1827    1.0595    1.6208 H   0  0  0  0  0  0  0  0  0  0  0  0
   -4.0058   -2.7776   -1.1838 H   0  0  0  0  0  0  0  0  0  0  0  0
   -5.6721   -2.9120    0.6756 H   0  0  0  0  0  0  0  0  0  0  0  0
  1 13  1  0  0  0  0
  1 45  1  0  0  0  0
  2 17  2  0  0  0  0
  3 17  1  0  0  0  0
  3 18  1  0  0  0  0
  3 19  1  0  0  0  0
  4 22  1  0  0  0  0
  4 24  2  0  0  0  0
  5  6  1  0  0  0  0
  5  7  1  0  0  0  0
  5  9  1  0  0  0  0
  5 25  1  0  0  0  0
  6  8  1  0  0  0  0
  6 26  1  0  0  0  0
  6 27  1  0  0  0  0
  7 11  1  0  0  0  0
  7 13  1  0  0  0  0
  7 28  1  0  0  0  0
  8 10  1  0  0  0  0
  8 12  1  0  0  0  0
  8 29  1  0  0  0  0
  9 14  1  0  0  0  0
  9 15  1  0  0  0  0
  9 30  1  0  0  0  0
 10 11  2  0  0  0  0
 10 16  1  0  0  0  0
 11 31  1  0  0  0  0
 12 17  1  0  0  0  0
 12 32  1  0  0  0  0
 12 33  1  0  0  0  0
 13 34  1  0  0  0  0
 13 35  1  0  0  0  0
 14 36  1  0  0  0  0
 14 37  1  0  0  0  0
 14 38  1  0  0  0  0
 15 39  1  0  0  0  0
 15 40  1  0  0  0  0
 15 41  1  0  0  0  0
 16 42  1  0  0  0  0
 16 43  1  0  0  0  0
 16 44  1  0  0  0  0
 18 20  1  0  0  0  0
 18 46  1  0  0  0  0
 18 47  1  0  0  0  0
 19 48  1  0  0  0  0
 19 49  1  0  0  0  0
 19 50  1  0  0  0  0
 20 21  1  0  0  0  0
 20 22  2  0  0  0  0
 21 23  2  0  0  0  0
 21 51  1  0  0  0  0
 22 52  1  0  0  0  0
 23 24  1  0  0  0  0
 23 53  1  0  0  0  0
 24 54  1  0  0  0  0
M  END
> <PUBCHEM_COMPOUND_CID>
38030222

> <PUBCHEM_CONFORMER_RMSD>
1.2

> <PUBCHEM_CONFORMER_DIVERSEORDER>
1
23
47
88
10
60
100
16
12
46
62
73
66
17
53
86
97
14
64
63
89
42
70
72
13
35
94
77
34
83
44
59
5
96
98
38
57
20
11
84
24
39
75
7
74
2
87
19
85
37
40
26
45
80
95
6
8
82
93
41
92
61
65
49
3
36
33
56
28
71
78
25
43
22
52
91
48
58
54
15
76
18
67
21
81
31
27
51
90
4
79
55
32
30
68
99
9
50
29
69

> <PUBCHEM_MMFF94_PARTIAL_CHARGES>
25
1 -0.68
10 -0.28
11 -0.29
12 0.06
13 0.28
16 0.14
17 0.57
18 0.44
19 0.3
2 -0.57
20 -0.14
21 -0.15
22 0.16
23 -0.15
24 0.16
3 -0.66
31 0.15
4 -0.62
45 0.4
51 0.15
52 0.15
53 0.15
54 0.15
7 0.14
8 0.14

> <PUBCHEM_EFFECTIVE_ROTOR_COUNT>
7.8

> <PUBCHEM_PHARMACOPHORE_FEATURES>
7
1 1 acceptor
1 1 donor
1 2 acceptor
1 4 acceptor
3 9 14 15 hydrophobe
6 4 20 21 22 23 24 rings
6 5 6 7 8 10 11 rings

> <PUBCHEM_HEAVY_ATOM_COUNT>
24

> <PUBCHEM_ATOM_DEF_STEREO_COUNT>
3

> <PUBCHEM_ATOM_UDEF_STEREO_COUNT>
0

> <PUBCHEM_BOND_DEF_STEREO_COUNT>
0

> <PUBCHEM_BOND_UDEF_STEREO_COUNT>
0

> <PUBCHEM_ISOTOPIC_ATOM_COUNT>
0

> <PUBCHEM_COMPONENT_COUNT>
1

> <PUBCHEM_CACTVS_TAUTO_COUNT>
1

> <PUBCHEM_CONFORMER_ID>
02444B8E00000001

> <PUBCHEM_MMFF94_ENERGY>
59.2137

> <PUBCHEM_FEATURE_SELFOVERLAP>
35.522

> <PUBCHEM_SHAPE_FINGERPRINT>
11595378 159 16414926244622818929
12363563 72 16805327673454721909
12422481 6 18270663287166213386
12596599 1 18124038931481350179
12596602 18 16845293877842997915
12839892 36 18339911654548335850
12892183 10 17845652534499351424
12978246 48 18411979169871079155
13583140 156 17917132919398281297
13911882 115 18201157663768792086
14178342 30 18197496234171219920
14341114 328 18202006563880357349
146900 427 18058454381355686401
14787075 74 17985552392758151085
14955137 171 18271801290643901644
17349148 13 18187367635755385600
17492 89 18339931424330369511
17857418 61 18410569617771117289
1813 80 17603878797196673213
20028762 73 18343015627424283038
21033650 10 14780092092249901141
21197605 99 18121509204572064603
21304303 282 16164997699918019596
21315759 227 18259985976961820395
21421861 104 18340782489163656169
21673915 165 18411702097230468239
23559900 14 18270402663748861565
239999 70 18201172013164429108
339767 52 18409719643706432651
3797600 57 17846504759127035604
392239 28 17774420768478173762
463206 1 18267588103609565107
465052 167 18186517692583419554
5104073 3 18410293622935988753
5312544 6 18191871334447117948
6287921 2 18059018271906854679
6823239 73 18127985117674463038
7097593 13 18126858083532315321
9709674 26 18335711524324887523

> <PUBCHEM_SHAPE_MULTIPOLES>
472.21
11.7
3.57
1.44
8.34
0.84
0.23
3.62
4.39
-1.65
-0.54
-0.72
0.17
-0.4

> <PUBCHEM_SHAPE_SELFOVERLAP>
966.2

> <PUBCHEM_SHAPE_VOLUME>
271.7

> <PUBCHEM_COORDINATE_TYPE>
2
5
10

$$$$
