11882972
  -OEChem-12032416363D

 72 76  0     1  0  0  0  0  0999 V2000
    0.4910   -3.1050    0.4670 S   0  0  0  0  0  0  0  0  0  0  0  0
   -3.7233    3.7283    1.4953 S   0  0  0  0  0  0  0  0  0  0  0  0
    7.2718    0.5934   -0.9356 O   0  0  0  0  0  0  0  0  0  0  0  0
    7.3802   -1.1765    0.6768 O   0  0  0  0  0  0  0  0  0  0  0  0
   -0.4333    2.2217   -1.4403 O   0  0  0  0  0  0  0  0  0  0  0  0
   -3.4685   -0.6475    0.2065 O   0  0  0  0  0  0  0  0  0  0  0  0
   -0.4956   -0.7318    0.1716 N   0  0  0  0  0  0  0  0  0  0  0  0
   -2.0690   -2.5385    0.4350 N   0  0  0  0  0  0  0  0  0  0  0  0
   -1.4271    2.7477    0.6275 N   0  0  0  0  0  0  0  0  0  0  0  0
   -3.1412    3.3465   -0.9942 N   0  0  0  0  0  0  0  0  0  0  0  0
    3.1027    0.6439    0.3388 C   0  0  2  0  0  0  0  0  0  0  0  0
    3.7197   -0.6714   -0.3129 C   0  0  1  0  0  0  0  0  0  0  0  0
    5.2923   -0.7550   -0.4046 C   0  0  1  0  0  0  0  0  0  0  0  0
    1.5576    0.7148   -0.0630 C   0  0  1  0  0  0  0  0  0  0  0  0
    3.8168    1.8915   -0.2432 C   0  0  0  0  0  0  0  0  0  0  0  0
    5.8449    0.5878   -0.9612 C   0  0  1  0  0  0  0  0  0  0  0  0
    3.0562   -1.9565    0.2627 C   0  0  0  0  0  0  0  0  0  0  0  0
    5.3360    1.8080   -0.2018 C   0  0  0  0  0  0  0  0  0  0  0  0
    3.2353    0.6697    1.8814 C   0  0  0  0  0  0  0  0  0  0  0  0
    0.8820   -0.6163    0.1448 C   0  0  0  0  0  0  0  0  0  0  0  0
    5.9921   -1.1318    0.9199 C   0  0  0  0  0  0  0  0  0  0  0  0
    5.6826   -1.8701   -1.4156 C   0  0  0  0  0  0  0  0  0  0  0  0
    1.5726   -1.8044    0.2704 C   0  0  0  0  0  0  0  0  0  0  0  0
    0.7758    1.8524    0.6075 C   0  0  0  0  0  0  0  0  0  0  0  0
   -0.4198    2.2890   -0.2159 C   0  0  0  0  0  0  0  0  0  0  0  0
   -0.8147   -1.9962    0.3438 C   0  0  0  0  0  0  0  0  0  0  0  0
   -4.4618   -2.7819    0.5014 C   0  0  0  0  0  0  0  0  0  0  0  0
   -3.2921   -1.8511    0.3631 C   0  0  0  0  0  0  0  0  0  0  0  0
   -5.6348   -2.0906    1.1994 C   0  0  0  0  0  0  0  0  0  0  0  0
   -4.8416   -3.3571   -0.8647 C   0  0  0  0  0  0  0  0  0  0  0  0
   -2.6764    3.2307    0.2299 C   0  0  0  0  0  0  0  0  0  0  0  0
   -6.3935   -1.1194    0.2954 C   0  0  0  0  0  0  0  0  0  0  0  0
   -5.5937   -2.3608   -1.7456 C   0  0  0  0  0  0  0  0  0  0  0  0
   -6.7981   -1.7684   -1.0231 C   0  0  0  0  0  0  0  0  0  0  0  0
   -4.9055    4.1385    0.3225 C   0  0  0  0  0  0  0  0  0  0  0  0
   -4.4194    3.8667   -0.9391 C   0  0  0  0  0  0  0  0  0  0  0  0
    3.3934   -0.6227   -1.3665 H   0  0  0  0  0  0  0  0  0  0  0  0
    1.5400    0.8702   -1.1518 H   0  0  0  0  0  0  0  0  0  0  0  0
    3.5126    2.7987    0.2910 H   0  0  0  0  0  0  0  0  0  0  0  0
    3.5114    2.0352   -1.2882 H   0  0  0  0  0  0  0  0  0  0  0  0
    5.5488    0.6855   -2.0141 H   0  0  0  0  0  0  0  0  0  0  0  0
    3.4004   -2.1510    1.2839 H   0  0  0  0  0  0  0  0  0  0  0  0
    3.3256   -2.8251   -0.3473 H   0  0  0  0  0  0  0  0  0  0  0  0
    5.7070    1.8060    0.8291 H   0  0  0  0  0  0  0  0  0  0  0  0
    5.7577    2.7159   -0.6520 H   0  0  0  0  0  0  0  0  0  0  0  0
    2.7450   -0.1827    2.3597 H   0  0  0  0  0  0  0  0  0  0  0  0
    4.2692    0.6892    2.2195 H   0  0  0  0  0  0  0  0  0  0  0  0
    2.7810    1.5733    2.3027 H   0  0  0  0  0  0  0  0  0  0  0  0
    5.8292   -0.4036    1.7102 H   0  0  0  0  0  0  0  0  0  0  0  0
    5.6759   -2.1146    1.2822 H   0  0  0  0  0  0  0  0  0  0  0  0
    5.1499   -1.7425   -2.3651 H   0  0  0  0  0  0  0  0  0  0  0  0
    5.4442   -2.8682   -1.0335 H   0  0  0  0  0  0  0  0  0  0  0  0
    6.7526   -1.8641   -1.6517 H   0  0  0  0  0  0  0  0  0  0  0  0
    0.4612    1.5532    1.6151 H   0  0  0  0  0  0  0  0  0  0  0  0
    1.3898    2.7525    0.7140 H   0  0  0  0  0  0  0  0  0  0  0  0
    7.5705    1.4286   -1.3339 H   0  0  0  0  0  0  0  0  0  0  0  0
    7.8128   -1.4239    1.5117 H   0  0  0  0  0  0  0  0  0  0  0  0
   -2.0870   -3.5472    0.5614 H   0  0  0  0  0  0  0  0  0  0  0  0
   -1.2754    2.7531    1.6328 H   0  0  0  0  0  0  0  0  0  0  0  0
   -4.1516   -3.6140    1.1482 H   0  0  0  0  0  0  0  0  0  0  0  0
   -6.3376   -2.8610    1.5430 H   0  0  0  0  0  0  0  0  0  0  0  0
   -5.2930   -1.5592    2.0959 H   0  0  0  0  0  0  0  0  0  0  0  0
   -3.9526   -3.7109   -1.4006 H   0  0  0  0  0  0  0  0  0  0  0  0
   -5.4819   -4.2350   -0.7088 H   0  0  0  0  0  0  0  0  0  0  0  0
   -7.2953   -0.7783    0.8181 H   0  0  0  0  0  0  0  0  0  0  0  0
   -5.8048   -0.2184    0.0970 H   0  0  0  0  0  0  0  0  0  0  0  0
   -4.9180   -1.5550   -2.0563 H   0  0  0  0  0  0  0  0  0  0  0  0
   -5.9267   -2.8629   -2.6613 H   0  0  0  0  0  0  0  0  0  0  0  0
   -7.5350   -2.5581   -0.8317 H   0  0  0  0  0  0  0  0  0  0  0  0
   -7.2857   -1.0261   -1.6650 H   0  0  0  0  0  0  0  0  0  0  0  0
   -5.8673    4.5441    0.6019 H   0  0  0  0  0  0  0  0  0  0  0  0
   -4.9617    4.0312   -1.8604 H   0  0  0  0  0  0  0  0  0  0  0  0
  1 23  1  0  0  0  0
  1 26  1  0  0  0  0
  2 31  1  0  0  0  0
  2 35  1  0  0  0  0
  3 16  1  0  0  0  0
  3 56  1  0  0  0  0
  4 21  1  0  0  0  0
  4 57  1  0  0  0  0
  5 25  2  0  0  0  0
  6 28  2  0  0  0  0
  7 20  1  0  0  0  0
  7 26  2  0  0  0  0
  8 26  1  0  0  0  0
  8 28  1  0  0  0  0
  8 58  1  0  0  0  0
  9 25  1  0  0  0  0
  9 31  1  0  0  0  0
  9 59  1  0  0  0  0
 10 31  2  0  0  0  0
 10 36  1  0  0  0  0
 11 12  1  0  0  0  0
 11 14  1  0  0  0  0
 11 15  1  0  0  0  0
 11 19  1  0  0  0  0
 12 13  1  0  0  0  0
 12 17  1  0  0  0  0
 12 37  1  0  0  0  0
 13 16  1  0  0  0  0
 13 21  1  0  0  0  0
 13 22  1  0  0  0  0
 14 20  1  0  0  0  0
 14 24  1  0  0  0  0
 14 38  1  0  0  0  0
 15 18  1  0  0  0  0
 15 39  1  0  0  0  0
 15 40  1  0  0  0  0
 16 18  1  0  0  0  0
 16 41  1  0  0  0  0
 17 23  1  0  0  0  0
 17 42  1  0  0  0  0
 17 43  1  0  0  0  0
 18 44  1  0  0  0  0
 18 45  1  0  0  0  0
 19 46  1  0  0  0  0
 19 47  1  0  0  0  0
 19 48  1  0  0  0  0
 20 23  2  0  0  0  0
 21 49  1  0  0  0  0
 21 50  1  0  0  0  0
 22 51  1  0  0  0  0
 22 52  1  0  0  0  0
 22 53  1  0  0  0  0
 24 25  1  0  0  0  0
 24 54  1  0  0  0  0
 24 55  1  0  0  0  0
 27 28  1  0  0  0  0
 27 29  1  0  0  0  0
 27 30  1  0  0  0  0
 27 60  1  0  0  0  0
 29 32  1  0  0  0  0
 29 61  1  0  0  0  0
 29 62  1  0  0  0  0
 30 33  1  0  0  0  0
 30 63  1  0  0  0  0
 30 64  1  0  0  0  0
 32 34  1  0  0  0  0
 32 65  1  0  0  0  0
 32 66  1  0  0  0  0
 33 34  1  0  0  0  0
 33 67  1  0  0  0  0
 33 68  1  0  0  0  0
 34 69  1  0  0  0  0
 34 70  1  0  0  0  0
 35 36  2  0  0  0  0
 35 71  1  0  0  0  0
 36 72  1  0  0  0  0
M  END
> <PUBCHEM_COMPOUND_CID>
11882972

> <PUBCHEM_CONFORMER_RMSD>
1

> <PUBCHEM_CONFORMER_DIVERSEORDER>
1
58
45
57
43
30
24
26
16
51
42
35
10
13
52
44
28
27
36
56
21
14
55
59
19
37
31
29
40
50
3
34
23
53
48
9
11
47
12
17
38
18
8
20
49
39
5
54
32
15
22
4
33
41
46
2
25
7
6

> <PUBCHEM_MMFF94_PARTIAL_CHARGES>
30
1 -0.08
10 -0.57
14 0.18
16 0.28
17 0.18
2 -0.08
20 0.05
21 0.28
23 -0.14
24 0.06
25 0.57
26 0.44
27 0.06
28 0.57
3 -0.68
31 0.44
35 -0.11
36 0.08
4 -0.68
5 -0.57
56 0.4
57 0.4
58 0.37
59 0.37
6 -0.57
7 -0.57
71 0.15
72 0.15
8 -0.49
9 -0.49

> <PUBCHEM_EFFECTIVE_ROTOR_COUNT>
10.4

> <PUBCHEM_PHARMACOPHORE_FEATURES>
13
1 3 acceptor
1 3 donor
1 4 acceptor
1 4 donor
1 5 acceptor
1 6 acceptor
1 8 donor
1 9 donor
5 1 7 20 23 26 rings
5 2 10 31 35 36 rings
6 11 12 13 15 16 18 rings
6 11 12 14 17 20 23 rings
6 27 29 30 32 33 34 rings

> <PUBCHEM_HEAVY_ATOM_COUNT>
36

> <PUBCHEM_ATOM_DEF_STEREO_COUNT>
5

> <PUBCHEM_ATOM_UDEF_STEREO_COUNT>
0

> <PUBCHEM_BOND_DEF_STEREO_COUNT>
0

> <PUBCHEM_BOND_UDEF_STEREO_COUNT>
0

> <PUBCHEM_ISOTOPIC_ATOM_COUNT>
0

> <PUBCHEM_COMPONENT_COUNT>
1

> <PUBCHEM_CACTVS_TAUTO_COUNT>
9

> <PUBCHEM_CONFORMER_ID>
00B551DC00000001

> <PUBCHEM_MMFF94_ENERGY>
92.9268

> <PUBCHEM_FEATURE_SELFOVERLAP>
66.119

> <PUBCHEM_SHAPE_FINGERPRINT>
10050765 1 18265616481550120226
10190206 1 18260269668120043860
10462674 296 17912633903149947087
10670039 82 18409730672681197992
10675989 125 17830742306640001548
10815517 723 18410581686808664665
12106331 60 18259990400835671161
12107698 1 18410854391040248326
12156800 1 18123219881608296549
12440605 4 18265060137187706043
12522641 33 18046343034493381581
12788726 201 18262512701578313763
12977781 61 17558850406661164582
13383665 225 18189918542447244620
13782708 43 17917996091876127278
140371 6 18115882947537173459
14068700 675 18342739667306438241
14681490 219 18339357569592101239
15183329 4 18271248321424823758
15276724 80 18341334478349858924
15400415 2 17762335813014353761
15927050 60 18195526987676770733
15968369 153 18058430132075515997
16090146 7 17095818693148392450
18681886 176 18126277782481289259
20775438 99 17768516206048117727
21236236 1 18410295787308932737
21360443 126 18262796251156668373
21641784 216 18114757008870196029
21792965 326 16806459191928089580
22311459 1 18410856598849188818
23559900 14 18193835079547175923
23576562 1 18187944854624633492
244849 19 17560499764650809656
25223398 141 18412543206319396448
350125 39 18410578387999377456
469060 322 16805605850128274837
46939830 39 17385720348649263861
5171179 24 18129371756282065401
59520647 119 18336547102667355733
653340 110 18411974755014016313

> <PUBCHEM_SHAPE_MULTIPOLES>
705.16
17.92
5.46
1.27
7.38
4.24
-0.05
-5.81
-3.12
-10.71
-0.07
-0.34
0.07
-0.75

> <PUBCHEM_SHAPE_SELFOVERLAP>
1478.39

> <PUBCHEM_SHAPE_VOLUME>
401

> <PUBCHEM_COORDINATE_TYPE>
2
5
10

$$$$
