75536053
  -OEChem-12032416293D

 48 50  0     1  0  0  0  0  0999 V2000
   -0.8950    3.9183   -1.1682 O   0  0  0  0  0  0  0  0  0  0  0  0
    1.8174    3.5693   -0.9223 O   0  0  0  0  0  0  0  0  0  0  0  0
   -1.3597   -0.6985   -1.1773 O   0  0  0  0  0  0  0  0  0  0  0  0
    3.5440   -3.3062   -0.2052 O   0  0  0  0  0  0  0  0  0  0  0  0
   -1.6607    1.2049    0.1299 N   0  0  0  0  0  0  0  0  0  0  0  0
   -0.3630    1.7966   -0.0763 C   0  0  2  0  0  0  0  0  0  0  0  0
    0.6386    1.3971    1.0306 C   0  0  2  0  0  0  0  0  0  0  0  0
   -0.4095    3.3210    0.0192 C   0  0  1  0  0  0  0  0  0  0  0  0
    1.5215    2.6484    1.2732 C   0  0  0  0  0  0  0  0  0  0  0  0
    1.0465    3.6963    0.2685 C   0  0  1  0  0  0  0  0  0  0  0  0
   -3.4381   -0.3962   -0.0441 C   0  0  0  0  0  0  0  0  0  0  0  0
    1.4153    0.1400    0.7009 C   0  0  0  0  0  0  0  0  0  0  0  0
   -3.4019   -1.2579    1.2230 C   0  0  0  0  0  0  0  0  0  0  0  0
   -4.0833   -1.2586   -1.1299 C   0  0  0  0  0  0  0  0  0  0  0  0
   -2.0493    0.0022   -0.4413 C   0  0  0  0  0  0  0  0  0  0  0  0
   -4.1174   -2.5560    0.8643 C   0  0  0  0  0  0  0  0  0  0  0  0
   -3.9172   -2.6882   -0.6347 C   0  0  0  0  0  0  0  0  0  0  0  0
    1.3314   -0.9722    1.5386 C   0  0  0  0  0  0  0  0  0  0  0  0
    2.2147    0.0940   -0.4413 C   0  0  0  0  0  0  0  0  0  0  0  0
    2.0470   -2.1302    1.2342 C   0  0  0  0  0  0  0  0  0  0  0  0
    2.9303   -1.0638   -0.7457 C   0  0  0  0  0  0  0  0  0  0  0  0
    2.8465   -2.1759    0.0921 C   0  0  0  0  0  0  0  0  0  0  0  0
    4.3418   -3.2844   -1.3881 C   0  0  0  0  0  0  0  0  0  0  0  0
   -0.0242    1.5026   -1.0773 H   0  0  0  0  0  0  0  0  0  0  0  0
    0.0825    1.2190    1.9629 H   0  0  0  0  0  0  0  0  0  0  0  0
   -1.0396    3.6425    0.8581 H   0  0  0  0  0  0  0  0  0  0  0  0
    1.3310    3.0131    2.2905 H   0  0  0  0  0  0  0  0  0  0  0  0
    2.5938    2.4415    1.1912 H   0  0  0  0  0  0  0  0  0  0  0  0
    1.1549    4.7222    0.6328 H   0  0  0  0  0  0  0  0  0  0  0  0
   -4.0448    0.5041    0.1109 H   0  0  0  0  0  0  0  0  0  0  0  0
   -2.2920    1.6648    0.7798 H   0  0  0  0  0  0  0  0  0  0  0  0
   -2.3746   -1.4723    1.5419 H   0  0  0  0  0  0  0  0  0  0  0  0
   -3.9018   -0.7594    2.0605 H   0  0  0  0  0  0  0  0  0  0  0  0
   -3.6647   -1.1198   -2.1317 H   0  0  0  0  0  0  0  0  0  0  0  0
   -5.1535   -1.0228   -1.1895 H   0  0  0  0  0  0  0  0  0  0  0  0
   -5.1860   -2.4689    1.0948 H   0  0  0  0  0  0  0  0  0  0  0  0
   -3.7217   -3.4136    1.4160 H   0  0  0  0  0  0  0  0  0  0  0  0
   -2.9084   -3.0566   -0.8543 H   0  0  0  0  0  0  0  0  0  0  0  0
   -4.6388   -3.3715   -1.0913 H   0  0  0  0  0  0  0  0  0  0  0  0
   -0.8061    4.8814   -1.0678 H   0  0  0  0  0  0  0  0  0  0  0  0
    2.7395    3.7810   -0.6973 H   0  0  0  0  0  0  0  0  0  0  0  0
    0.7118   -0.9531    2.4310 H   0  0  0  0  0  0  0  0  0  0  0  0
    2.2982    0.9479   -1.1064 H   0  0  0  0  0  0  0  0  0  0  0  0
    1.9771   -2.9937    1.8901 H   0  0  0  0  0  0  0  0  0  0  0  0
    3.5321   -1.0311   -1.6475 H   0  0  0  0  0  0  0  0  0  0  0  0
    4.8259   -4.2631   -1.4695 H   0  0  0  0  0  0  0  0  0  0  0  0
    5.1401   -2.5374   -1.3214 H   0  0  0  0  0  0  0  0  0  0  0  0
    3.7271   -3.1562   -2.2856 H   0  0  0  0  0  0  0  0  0  0  0  0
  1  8  1  0  0  0  0
  1 40  1  0  0  0  0
  2 10  1  0  0  0  0
  2 41  1  0  0  0  0
  3 15  2  0  0  0  0
  4 22  1  0  0  0  0
  4 23  1  0  0  0  0
  5  6  1  0  0  0  0
  5 15  1  0  0  0  0
  5 31  1  0  0  0  0
  6  7  1  0  0  0  0
  6  8  1  0  0  0  0
  6 24  1  0  0  0  0
  7  9  1  0  0  0  0
  7 12  1  0  0  0  0
  7 25  1  0  0  0  0
  8 10  1  0  0  0  0
  8 26  1  0  0  0  0
  9 10  1  0  0  0  0
  9 27  1  0  0  0  0
  9 28  1  0  0  0  0
 10 29  1  0  0  0  0
 11 13  1  0  0  0  0
 11 14  1  0  0  0  0
 11 15  1  0  0  0  0
 11 30  1  0  0  0  0
 12 18  2  0  0  0  0
 12 19  1  0  0  0  0
 13 16  1  0  0  0  0
 13 32  1  0  0  0  0
 13 33  1  0  0  0  0
 14 17  1  0  0  0  0
 14 34  1  0  0  0  0
 14 35  1  0  0  0  0
 16 17  1  0  0  0  0
 16 36  1  0  0  0  0
 16 37  1  0  0  0  0
 17 38  1  0  0  0  0
 17 39  1  0  0  0  0
 18 20  1  0  0  0  0
 18 42  1  0  0  0  0
 19 21  2  0  0  0  0
 19 43  1  0  0  0  0
 20 22  2  0  0  0  0
 20 44  1  0  0  0  0
 21 22  1  0  0  0  0
 21 45  1  0  0  0  0
 23 46  1  0  0  0  0
 23 47  1  0  0  0  0
 23 48  1  0  0  0  0
M  END
> <PUBCHEM_COMPOUND_CID>
75536053

> <PUBCHEM_CONFORMER_RMSD>
0.8

> <PUBCHEM_CONFORMER_DIVERSEORDER>
1
22
29
25
9
5
12
31
32
24
33
20
18
8
4
34
11
6
3
16
14
23
35
2
19
21
30
27
15
10
7
17
13
26
28

> <PUBCHEM_MMFF94_PARTIAL_CHARGES>
25
1 -0.68
10 0.28
11 0.06
12 -0.14
15 0.57
18 -0.15
19 -0.15
2 -0.68
20 -0.15
21 -0.15
22 0.08
23 0.28
3 -0.57
31 0.37
4 -0.36
40 0.4
41 0.4
42 0.15
43 0.15
44 0.15
45 0.15
5 -0.73
6 0.3
7 0.14
8 0.28

> <PUBCHEM_EFFECTIVE_ROTOR_COUNT>
7

> <PUBCHEM_PHARMACOPHORE_FEATURES>
10
1 1 acceptor
1 1 donor
1 2 acceptor
1 2 donor
1 3 acceptor
1 4 acceptor
1 5 donor
5 11 13 14 16 17 rings
5 6 7 8 9 10 rings
6 12 18 19 20 21 22 rings

> <PUBCHEM_HEAVY_ATOM_COUNT>
23

> <PUBCHEM_ATOM_DEF_STEREO_COUNT>
4

> <PUBCHEM_ATOM_UDEF_STEREO_COUNT>
0

> <PUBCHEM_BOND_DEF_STEREO_COUNT>
0

> <PUBCHEM_BOND_UDEF_STEREO_COUNT>
0

> <PUBCHEM_ISOTOPIC_ATOM_COUNT>
0

> <PUBCHEM_COMPONENT_COUNT>
1

> <PUBCHEM_CACTVS_TAUTO_COUNT>
2

> <PUBCHEM_CONFORMER_ID>
048096B500000001

> <PUBCHEM_MMFF94_ENERGY>
67.5254

> <PUBCHEM_FEATURE_SELFOVERLAP>
50.758

> <PUBCHEM_SHAPE_FINGERPRINT>
11069576 57 17698135681123508855
114674 6 18115866489465582755
11488393 25 18118416274151962266
12035758 1 17977379770421803016
12107183 9 18271262530067572635
12363563 72 18340198609745352855
12553582 1 18264203621797813715
12788726 201 17974849458736548955
12841375 5 18267026231038274835
13009979 54 17774740700339299755
13257819 37 17398677805034990861
13533116 47 18126568045419666139
138480 1 18411417353551517175
14251757 5 17978516329946577350
14844126 61 17831848058649296986
14863182 85 17978226393784183573
15422964 175 18338785806080601065
15463212 79 17467921761939562522
15635459 17 18117270578862385683
16752209 62 17687166609368739961
1813 80 18201455652557022591
20028762 73 17695622244702234022
20101258 96 18267037063309792178
20600515 1 18057339287849986013
20645476 183 17470449525943857116
20645477 70 18121482816677502767
21197605 99 16747907100814371947
21452121 199 18335688438986246744
2255824 54 18123185968071707497
22849339 104 17693953890336236382
23379529 103 18128266601246915694
23557571 272 18053081957721276624
23559900 14 18339347678419477627
238 59 17903075873742725651
3060560 45 17758388965216780253
314173 41 18409164398734709171
4280585 95 18336252454213149554
4409770 3 17905891370797114341
6287921 2 18125723632572491923
6442390 28 17259350388580852219
6669772 16 17909837875065960884
7097593 13 18270124638316373617
81228 2 17980454799000789065
8272917 22 18048310335081334053

> <PUBCHEM_SHAPE_MULTIPOLES>
444.87
7.28
5.47
1.36
6.07
3.1
-0.13
-9.4
1.29
-4.49
1.14
-0.14
-0.3
1

> <PUBCHEM_SHAPE_SELFOVERLAP>
940.802

> <PUBCHEM_SHAPE_VOLUME>
251.3

> <PUBCHEM_COORDINATE_TYPE>
2
5
10

$$$$
