56774198
  -OEChem-12032416323D

 43 45  0     1  0  0  0  0  0999 V2000
   -0.5682   -1.6883    0.2636 O   0  0  0  0  0  0  0  0  0  0  0  0
   -6.5156    0.2511   -0.4978 O   0  0  0  0  0  0  0  0  0  0  0  0
    6.3819   -0.6615   -1.0203 N   0  0  0  0  0  0  0  0  0  0  0  0
    0.7998   -1.7007    0.5074 N   0  0  0  0  0  0  0  0  0  0  0  0
    4.7011    0.8729   -0.0309 C   0  0  0  0  0  0  0  0  0  0  0  0
    3.2841    0.2883   -0.2069 C   0  0  1  0  0  0  0  0  0  0  0  0
    5.1164    0.0344   -1.2575 C   0  0  2  0  0  0  0  0  0  0  0  0
    3.9505   -0.9138   -0.9081 C   0  0  0  0  0  0  0  0  0  0  0  0
    2.5098   -0.0656    1.0698 C   0  0  0  0  0  0  0  0  0  0  0  0
    4.8333    2.3647   -0.2864 C   0  0  0  0  0  0  0  0  0  0  0  0
    5.3412    0.5365    1.2989 C   0  0  0  0  0  0  0  0  0  0  0  0
    1.1169   -0.4282    0.7631 C   0  0  0  0  0  0  0  0  0  0  0  0
    0.0010    0.4238    0.6957 C   0  0  0  0  0  0  0  0  0  0  0  0
   -1.0324   -0.4177    0.3786 C   0  0  0  0  0  0  0  0  0  0  0  0
   -2.4467   -0.2454    0.1539 C   0  0  0  0  0  0  0  0  0  0  0  0
   -3.0191    1.0230    0.2521 C   0  0  0  0  0  0  0  0  0  0  0  0
   -3.2419   -1.3468   -0.1626 C   0  0  0  0  0  0  0  0  0  0  0  0
   -4.3866    1.1897    0.0341 C   0  0  0  0  0  0  0  0  0  0  0  0
   -4.6094   -1.1801   -0.3805 C   0  0  0  0  0  0  0  0  0  0  0  0
   -5.1818    0.0881   -0.2821 C   0  0  0  0  0  0  0  0  0  0  0  0
   -7.0345    1.5755   -0.3841 C   0  0  0  0  0  0  0  0  0  0  0  0
    2.6781    0.8945   -0.8982 H   0  0  0  0  0  0  0  0  0  0  0  0
    5.0277    0.5213   -2.2346 H   0  0  0  0  0  0  0  0  0  0  0  0
    4.1968   -1.7541   -0.2464 H   0  0  0  0  0  0  0  0  0  0  0  0
    3.4011   -1.3098   -1.7680 H   0  0  0  0  0  0  0  0  0  0  0  0
    2.4957    0.8086    1.7336 H   0  0  0  0  0  0  0  0  0  0  0  0
    2.9962   -0.8725    1.6308 H   0  0  0  0  0  0  0  0  0  0  0  0
    4.3636    2.6576   -1.2322 H   0  0  0  0  0  0  0  0  0  0  0  0
    4.3513    2.9450    0.5082 H   0  0  0  0  0  0  0  0  0  0  0  0
    5.8853    2.6672   -0.3351 H   0  0  0  0  0  0  0  0  0  0  0  0
    4.8558    1.0703    2.1242 H   0  0  0  0  0  0  0  0  0  0  0  0
    5.3075   -0.5322    1.5374 H   0  0  0  0  0  0  0  0  0  0  0  0
    6.3970    0.8333    1.3171 H   0  0  0  0  0  0  0  0  0  0  0  0
    6.5690   -1.4063   -1.6905 H   0  0  0  0  0  0  0  0  0  0  0  0
    7.1947   -0.0473   -1.0495 H   0  0  0  0  0  0  0  0  0  0  0  0
   -0.0355    1.4915    0.8557 H   0  0  0  0  0  0  0  0  0  0  0  0
   -2.4239    1.8990    0.4968 H   0  0  0  0  0  0  0  0  0  0  0  0
   -2.8323   -2.3500   -0.2485 H   0  0  0  0  0  0  0  0  0  0  0  0
   -4.7659    2.2017    0.1260 H   0  0  0  0  0  0  0  0  0  0  0  0
   -5.2241   -2.0415   -0.6273 H   0  0  0  0  0  0  0  0  0  0  0  0
   -8.1089    1.5202   -0.5874 H   0  0  0  0  0  0  0  0  0  0  0  0
   -6.6009    2.2436   -1.1360 H   0  0  0  0  0  0  0  0  0  0  0  0
   -6.9214    1.9661    0.6330 H   0  0  0  0  0  0  0  0  0  0  0  0
  1  4  1  0  0  0  0
  1 14  1  0  0  0  0
  2 20  1  0  0  0  0
  2 21  1  0  0  0  0
  3  7  1  0  0  0  0
  3 34  1  0  0  0  0
  3 35  1  0  0  0  0
  4 12  2  0  0  0  0
  5  6  1  0  0  0  0
  5  7  1  0  0  0  0
  5 10  1  0  0  0  0
  5 11  1  0  0  0  0
  6  8  1  0  0  0  0
  6  9  1  0  0  0  0
  6 22  1  0  0  0  0
  7  8  1  0  0  0  0
  7 23  1  0  0  0  0
  8 24  1  0  0  0  0
  8 25  1  0  0  0  0
  9 12  1  0  0  0  0
  9 26  1  0  0  0  0
  9 27  1  0  0  0  0
 10 28  1  0  0  0  0
 10 29  1  0  0  0  0
 10 30  1  0  0  0  0
 11 31  1  0  0  0  0
 11 32  1  0  0  0  0
 11 33  1  0  0  0  0
 12 13  1  0  0  0  0
 13 14  2  0  0  0  0
 13 36  1  0  0  0  0
 14 15  1  0  0  0  0
 15 16  2  0  0  0  0
 15 17  1  0  0  0  0
 16 18  1  0  0  0  0
 16 37  1  0  0  0  0
 17 19  2  0  0  0  0
 17 38  1  0  0  0  0
 18 20  2  0  0  0  0
 18 39  1  0  0  0  0
 19 20  1  0  0  0  0
 19 40  1  0  0  0  0
 21 41  1  0  0  0  0
 21 42  1  0  0  0  0
 21 43  1  0  0  0  0
M  END
> <PUBCHEM_COMPOUND_CID>
56774198

> <PUBCHEM_CONFORMER_RMSD>
0.8

> <PUBCHEM_CONFORMER_DIVERSEORDER>
2
7
8
24
21
18
10
12
11
23
4
3
22
6
5
17
1
20
9
19
16
13
15
14

> <PUBCHEM_MMFF94_PARTIAL_CHARGES>
23
1 -0.02
12 0.11
13 -0.15
14 0.09
15 0.05
16 -0.15
17 -0.15
18 -0.15
19 -0.15
2 -0.36
20 0.08
21 0.28
3 -0.93
34 0.36
35 0.36
36 0.15
37 0.15
38 0.15
39 0.15
4 -0.41
40 0.15
7 0.21
9 0.18

> <PUBCHEM_EFFECTIVE_ROTOR_COUNT>
4.8

> <PUBCHEM_PHARMACOPHORE_FEATURES>
8
1 2 acceptor
1 3 cation
1 3 donor
1 4 acceptor
3 5 10 11 hydrophobe
4 5 6 7 8 rings
5 1 4 12 13 14 rings
6 15 16 17 18 19 20 rings

> <PUBCHEM_HEAVY_ATOM_COUNT>
21

> <PUBCHEM_ATOM_DEF_STEREO_COUNT>
2

> <PUBCHEM_ATOM_UDEF_STEREO_COUNT>
0

> <PUBCHEM_BOND_DEF_STEREO_COUNT>
0

> <PUBCHEM_BOND_UDEF_STEREO_COUNT>
0

> <PUBCHEM_ISOTOPIC_ATOM_COUNT>
0

> <PUBCHEM_COMPONENT_COUNT>
1

> <PUBCHEM_CACTVS_TAUTO_COUNT>
1

> <PUBCHEM_CONFORMER_ID>
03624E3600000002

> <PUBCHEM_MMFF94_ENERGY>
60.614

> <PUBCHEM_FEATURE_SELFOVERLAP>
40.596

> <PUBCHEM_SHAPE_FINGERPRINT>
10354089 29 16805604771859484732
10554248 39 17972012792363345199
106641 1 8214131946139210534
10670039 82 18336830779954655756
10688039 33 13045936898144628542
10835480 77 17846212310809590584
11045977 3 12252188480384785500
12236239 1 17894627071728605723
12390115 104 18057891252021083881
12596602 18 11025790998786713013
12616971 3 14490473118511064179
12670543 26 18131634461064544183
12916748 109 18409452500481577536
13288520 33 10663820789414092339
13533116 47 16805593734247144032
13551218 46 9511472116932405633
13631057 29 16806455889182653971
13668630 136 14980240651739849597
13685833 64 11239994564402389357
14251764 18 9583509923786507803
14251764 75 14131064809843982846
14528608 73 18408322202565159878
14573314 32 18060421313210071136
15048467 5 18187362117429285277
15183329 4 18201442445505797586
15348495 7 12396591748954849517
15475509 35 9943264593169057836
15575132 122 17967810510250622445
17834072 8 18202284692876941590
17844677 252 15841555175548511065
17857418 61 11887952151128811749
1813 80 13182748056336064506
18222031 100 13038908845620855282
200 152 15913335676051460490
20281389 69 17894343363680325837
20645477 70 17060349509246246862
21130935 74 11097848576099120733
21150785 3 16272199821464004497
21267235 1 18341895243083070879
21637258 2 13830128369509021395
220451 1 16515683355440711770
22061861 79 16988849375528832660
221357 26 17917991659280155840
2215653 11 17346877849534310989
22224240 67 13190345690105431137
23081809 10 17167857595061029291
23198884 109 17275106116077808377
23402539 116 18412822512200122071
23522609 53 11022712499210331474
23536379 177 16343706517010258203
23559900 14 17703216425639181145
2767999 5 17749105599485193941
2838139 119 17967800648646838925
29717793 49 17704078382583538988
300161 21 18113328709412098707
3004659 81 18202285780263511006
312425 54 8070033285155714117
3472631 163 18261396706209161156
34797466 226 18202289138157809901
351380 3 12319739158843317557
3545911 37 18410011027283348019
4073 2 18187651353222411818
4340502 62 15719390620598530593
465052 167 13398630575896475724
4990 188 18131354111448503338
5104073 3 14635439376174499752
542803 24 17530962484266169771
59682541 35 9727339218013152550
59682541 52 17131829816212928757
59755656 215 18342459209909773327
59755656 520 17313101964488776843

> <PUBCHEM_SHAPE_MULTIPOLES>
410.47
17.62
1.65
1.01
7.17
0.31
-0.02
5.96
4.76
0.12
0.11
-1.3
-0.04
0.38

> <PUBCHEM_SHAPE_SELFOVERLAP>
879.5

> <PUBCHEM_SHAPE_VOLUME>
231.6

> <PUBCHEM_COORDINATE_TYPE>
2
5
10

$$$$
