44716627
  -OEChem-12032416373D

 60 62  0     1  0  0  0  0  0999 V2000
    4.5509   -2.0299    0.4925 S   0  0  0  0  0  0  0  0  0  0  0  0
   -0.3766    2.2446   -1.4066 O   0  0  0  0  0  0  0  0  0  0  0  0
   -4.9731    1.3301    1.1727 O   0  0  0  0  0  0  0  0  0  0  0  0
   -4.5798   -2.4520   -1.1481 O   0  0  0  0  0  0  0  0  0  0  0  0
    4.6530    0.3921   -0.4071 N   0  0  0  0  0  0  0  0  0  0  0  0
   -4.4924    0.4005   -0.8955 N   0  0  0  0  0  0  0  0  0  0  0  0
    6.7396   -0.7095   -0.2458 N   0  0  0  0  0  0  0  0  0  0  0  0
    0.7402   -0.5541    0.9577 C   0  0  1  0  0  0  0  0  0  0  0  0
    0.8075    0.4562   -0.2546 C   0  0  1  0  0  0  0  0  0  0  0  0
   -0.3525    1.4900   -0.1956 C   0  0  2  0  0  0  0  0  0  0  0  0
   -1.7381    0.8255   -0.0431 C   0  0  1  0  0  0  0  0  0  0  0  0
   -0.6676   -1.1910    1.0273 C   0  0  0  0  0  0  0  0  0  0  0  0
    2.2382    1.1208   -0.3926 C   0  0  1  0  0  0  0  0  0  0  0  0
   -1.7863   -0.1625    1.1223 C   0  0  0  0  0  0  0  0  0  0  0  0
    1.7654   -1.7103    0.7392 C   0  0  0  0  0  0  0  0  0  0  0  0
    1.0465    0.1394    2.3109 C   0  0  0  0  0  0  0  0  0  0  0  0
   -2.8541    1.8648    0.1191 C   0  0  2  0  0  0  0  0  0  0  0  0
    3.3233    0.0961   -0.1639 C   0  0  0  0  0  0  0  0  0  0  0  0
    3.0931   -1.1625    0.3518 C   0  0  0  0  0  0  0  0  0  0  0  0
    2.4544    1.8194   -1.7431 C   0  0  0  0  0  0  0  0  0  0  0  0
   -2.5982    2.7206    1.3552 C   0  0  0  0  0  0  0  0  0  0  0  0
   -4.2173    1.1883    0.2136 C   0  0  0  0  0  0  0  0  0  0  0  0
    5.3880   -0.6572   -0.1092 C   0  0  0  0  0  0  0  0  0  0  0  0
   -5.7138   -0.3405   -1.0311 C   0  0  0  0  0  0  0  0  0  0  0  0
    7.5646    0.3868   -0.7404 C   0  0  0  0  0  0  0  0  0  0  0  0
   -5.5875   -1.7354   -0.4465 C   0  0  0  0  0  0  0  0  0  0  0  0
   -4.4275   -3.7701   -0.6392 C   0  0  0  0  0  0  0  0  0  0  0  0
    0.6580   -0.1368   -1.1714 H   0  0  0  0  0  0  0  0  0  0  0  0
   -0.1339    2.1871    0.6152 H   0  0  0  0  0  0  0  0  0  0  0  0
   -1.9149    0.2558   -0.9651 H   0  0  0  0  0  0  0  0  0  0  0  0
   -0.8389   -1.8063    0.1337 H   0  0  0  0  0  0  0  0  0  0  0  0
   -0.7328   -1.8736    1.8844 H   0  0  0  0  0  0  0  0  0  0  0  0
    2.3462    1.8795    0.3940 H   0  0  0  0  0  0  0  0  0  0  0  0
   -2.7354   -0.7107    1.1304 H   0  0  0  0  0  0  0  0  0  0  0  0
   -1.7124    0.3310    2.0940 H   0  0  0  0  0  0  0  0  0  0  0  0
    1.4214   -2.3699   -0.0683 H   0  0  0  0  0  0  0  0  0  0  0  0
    1.8436   -2.3237    1.6454 H   0  0  0  0  0  0  0  0  0  0  0  0
    2.0749    0.5081    2.3699 H   0  0  0  0  0  0  0  0  0  0  0  0
    0.9124   -0.5618    3.1430 H   0  0  0  0  0  0  0  0  0  0  0  0
    0.3921    0.9952    2.4984 H   0  0  0  0  0  0  0  0  0  0  0  0
   -2.8871    2.5226   -0.7589 H   0  0  0  0  0  0  0  0  0  0  0  0
    2.1978    1.1587   -2.5782 H   0  0  0  0  0  0  0  0  0  0  0  0
    3.4982    2.1259   -1.8766 H   0  0  0  0  0  0  0  0  0  0  0  0
    1.8643    2.7349   -1.8250 H   0  0  0  0  0  0  0  0  0  0  0  0
   -0.5222    1.6272   -2.1436 H   0  0  0  0  0  0  0  0  0  0  0  0
   -2.5959    2.1614    2.2939 H   0  0  0  0  0  0  0  0  0  0  0  0
   -1.6819    3.3110    1.2890 H   0  0  0  0  0  0  0  0  0  0  0  0
   -3.4077    3.4558    1.4565 H   0  0  0  0  0  0  0  0  0  0  0  0
   -3.8417    0.3757   -1.6739 H   0  0  0  0  0  0  0  0  0  0  0  0
    7.2346   -1.5602    0.0085 H   0  0  0  0  0  0  0  0  0  0  0  0
   -6.5291    0.2029   -0.5424 H   0  0  0  0  0  0  0  0  0  0  0  0
   -5.9268   -0.3980   -2.1037 H   0  0  0  0  0  0  0  0  0  0  0  0
    7.4668    1.2637   -0.0930 H   0  0  0  0  0  0  0  0  0  0  0  0
    8.6151    0.0816   -0.7510 H   0  0  0  0  0  0  0  0  0  0  0  0
    7.2736    0.6569   -1.7602 H   0  0  0  0  0  0  0  0  0  0  0  0
   -5.3241   -1.6812    0.6166 H   0  0  0  0  0  0  0  0  0  0  0  0
   -6.5446   -2.2599   -0.5462 H   0  0  0  0  0  0  0  0  0  0  0  0
   -4.1230   -3.7422    0.4116 H   0  0  0  0  0  0  0  0  0  0  0  0
   -5.3589   -4.3340   -0.7479 H   0  0  0  0  0  0  0  0  0  0  0  0
   -3.6457   -4.2728   -1.2150 H   0  0  0  0  0  0  0  0  0  0  0  0
  1 19  1  0  0  0  0
  1 23  1  0  0  0  0
  2 10  1  0  0  0  0
  2 45  1  0  0  0  0
  3 22  2  0  0  0  0
  4 26  1  0  0  0  0
  4 27  1  0  0  0  0
  5 18  1  0  0  0  0
  5 23  2  0  0  0  0
  6 22  1  0  0  0  0
  6 24  1  0  0  0  0
  6 49  1  0  0  0  0
  7 23  1  0  0  0  0
  7 25  1  0  0  0  0
  7 50  1  0  0  0  0
  8  9  1  0  0  0  0
  8 12  1  0  0  0  0
  8 15  1  0  0  0  0
  8 16  1  0  0  0  0
  9 10  1  0  0  0  0
  9 13  1  0  0  0  0
  9 28  1  0  0  0  0
 10 11  1  0  0  0  0
 10 29  1  0  0  0  0
 11 14  1  0  0  0  0
 11 17  1  0  0  0  0
 11 30  1  0  0  0  0
 12 14  1  0  0  0  0
 12 31  1  0  0  0  0
 12 32  1  0  0  0  0
 13 18  1  0  0  0  0
 13 20  1  0  0  0  0
 13 33  1  0  0  0  0
 14 34  1  0  0  0  0
 14 35  1  0  0  0  0
 15 19  1  0  0  0  0
 15 36  1  0  0  0  0
 15 37  1  0  0  0  0
 16 38  1  0  0  0  0
 16 39  1  0  0  0  0
 16 40  1  0  0  0  0
 17 21  1  0  0  0  0
 17 22  1  0  0  0  0
 17 41  1  0  0  0  0
 18 19  2  0  0  0  0
 20 42  1  0  0  0  0
 20 43  1  0  0  0  0
 20 44  1  0  0  0  0
 21 46  1  0  0  0  0
 21 47  1  0  0  0  0
 21 48  1  0  0  0  0
 24 26  1  0  0  0  0
 24 51  1  0  0  0  0
 24 52  1  0  0  0  0
 25 53  1  0  0  0  0
 25 54  1  0  0  0  0
 25 55  1  0  0  0  0
 26 56  1  0  0  0  0
 26 57  1  0  0  0  0
 27 58  1  0  0  0  0
 27 59  1  0  0  0  0
 27 60  1  0  0  0  0
M  END
> <PUBCHEM_COMPOUND_CID>
44716627

> <PUBCHEM_CONFORMER_RMSD>
1

> <PUBCHEM_CONFORMER_DIVERSEORDER>
1
38
15
41
33
30
6
20
43
13
24
46
48
44
17
39
42
7
22
40
16
32
29
45
18
37
2
3
31
9
47
14
28
35
12
27
11
19
26
25
34
5
36
4
10
8
23
21

> <PUBCHEM_MMFF94_PARTIAL_CHARGES>
22
1 -0.08
10 0.28
13 0.18
15 0.18
17 0.06
18 0.05
19 -0.14
2 -0.68
22 0.57
23 0.46
24 0.3
25 0.37
26 0.28
27 0.28
3 -0.57
4 -0.56
45 0.4
49 0.37
5 -0.57
50 0.4
6 -0.73
7 -0.85

> <PUBCHEM_EFFECTIVE_ROTOR_COUNT>
8.2

> <PUBCHEM_PHARMACOPHORE_FEATURES>
11
1 2 acceptor
1 2 donor
1 21 hydrophobe
1 3 acceptor
1 4 acceptor
1 6 donor
1 7 donor
3 5 7 23 cation
5 1 5 18 19 23 rings
6 8 9 10 11 12 14 rings
6 8 9 13 15 18 19 rings

> <PUBCHEM_HEAVY_ATOM_COUNT>
27

> <PUBCHEM_ATOM_DEF_STEREO_COUNT>
5

> <PUBCHEM_ATOM_UDEF_STEREO_COUNT>
1

> <PUBCHEM_BOND_DEF_STEREO_COUNT>
0

> <PUBCHEM_BOND_UDEF_STEREO_COUNT>
0

> <PUBCHEM_ISOTOPIC_ATOM_COUNT>
0

> <PUBCHEM_COMPONENT_COUNT>
1

> <PUBCHEM_CACTVS_TAUTO_COUNT>
4

> <PUBCHEM_CONFORMER_ID>
02AA525300000001

> <PUBCHEM_MMFF94_ENERGY>
69.6641

> <PUBCHEM_FEATURE_SELFOVERLAP>
55.901

> <PUBCHEM_SHAPE_FINGERPRINT>
10554248 39 16950567662844060422
10595046 47 18411699846883727138
10906281 52 17678203554457546404
11315621 136 18116151245765255799
11578080 2 18129940221447897928
12236239 1 18340206289114898272
12616971 3 18261121751035237309
12633257 1 15554160497523195015
12969540 114 16153422853106751795
13140716 1 17823157738261278128
13583140 156 16700877303074100953
13631057 29 18342453768539727839
13862211 1 18040995099274376696
14251751 18 18059572541968597791
14251757 5 18264484156636109199
14289585 56 17240752952777660271
14466204 15 9079123271286540055
14784336 7 18339931540216021340
14856354 85 17846502513196691525
15183329 4 18334007302608255918
15196674 1 17896885344395778440
15297060 5 18131635556756433035
15461852 350 18342183284932687886
17349148 13 18186520990559354593
17909252 39 17978792638557919539
18681886 176 18337383928528404984
200 152 18410012096176576761
20028762 73 18409725149818187070
20775438 99 16900715002287159935
21033648 29 13262965182462607510
21033650 10 17629229051182063320
21054139 6 18334855030457792278
21421861 104 11743574154141420068
21709351 56 17821445751222144053
22393880 68 17895177914665111477
23402539 116 18335421253217991019
23559900 14 18271231816260826105
24771293 8 18334577954403500740
2838139 119 17530967986245948332
3004659 81 18261662753858516687
4325135 7 18408603647535193391
439807 62 18262799696395835423
484989 97 17678467570128916651
5326457 24 18340765931780465043
54039377 194 18336551620556271743
7495541 125 17489862765105084768

> <PUBCHEM_SHAPE_MULTIPOLES>
526.95
15.03
2.89
1.42
8.84
1.4
-0.32
5.45
4.7
-3.93
0.45
-0.37
-0.33
-2.36

> <PUBCHEM_SHAPE_SELFOVERLAP>
1078.781

> <PUBCHEM_SHAPE_VOLUME>
309.8

> <PUBCHEM_COORDINATE_TYPE>
2
5
10

$$$$
