11887643
  -OEChem-12032416123D

 53 57  0     1  0  0  0  0  0999 V2000
    0.9763    0.4642   -0.7794 O   0  0  0  0  0  0  0  0  0  0  0  0
   -1.0388   -3.6254    0.3802 O   0  0  0  0  0  0  0  0  0  0  0  0
    3.8433    0.3681   -2.0409 O   0  0  0  0  0  0  0  0  0  0  0  0
   -5.1469    0.5986   -1.4208 O   0  0  0  0  0  0  0  0  0  0  0  0
    3.3590   -0.4954    0.0661 N   0  0  0  0  0  0  0  0  0  0  0  0
    1.1546   -3.2665    0.7843 N   0  0  0  0  0  0  0  0  0  0  0  0
   -0.1260   -1.5385   -0.2220 N   0  0  0  0  0  0  0  0  0  0  0  0
    2.3520   -2.4804    0.7508 C   0  0  1  0  0  0  0  0  0  0  0  0
    2.3478   -1.4597   -0.3665 C   0  0  1  0  0  0  0  0  0  0  0  0
    2.5921   -1.6327    1.9988 C   0  0  0  0  0  0  0  0  0  0  0  0
    3.6067   -0.6067    1.5067 C   0  0  0  0  0  0  0  0  0  0  0  0
    1.0117   -0.7309   -0.4764 C   0  0  0  0  0  0  0  0  0  0  0  0
   -0.0807   -2.8474    0.3297 C   0  0  0  0  0  0  0  0  0  0  0  0
    4.0666    0.2881   -0.8350 C   0  0  0  0  0  0  0  0  0  0  0  0
   -1.4282   -0.9841   -0.5336 C   0  0  0  0  0  0  0  0  0  0  0  0
    5.1819    1.0828   -0.3027 C   0  0  0  0  0  0  0  0  0  0  0  0
   -1.5528   -0.0672   -1.5686 C   0  0  0  0  0  0  0  0  0  0  0  0
   -2.5340   -1.3774    0.2082 C   0  0  0  0  0  0  0  0  0  0  0  0
    6.4620    0.5378   -0.2591 C   0  0  0  0  0  0  0  0  0  0  0  0
    4.9514    2.3774    0.1536 C   0  0  0  0  0  0  0  0  0  0  0  0
   -2.8065    0.4664   -1.8674 C   0  0  0  0  0  0  0  0  0  0  0  0
   -3.7877   -0.8438   -0.0906 C   0  0  0  0  0  0  0  0  0  0  0  0
   -3.9239    0.0781   -1.1284 C   0  0  0  0  0  0  0  0  0  0  0  0
    7.5204    1.2937    0.2449 C   0  0  0  0  0  0  0  0  0  0  0  0
    6.0098    3.1334    0.6576 C   0  0  0  0  0  0  0  0  0  0  0  0
    7.2943    2.5915    0.7032 C   0  0  0  0  0  0  0  0  0  0  0  0
   -5.9350    1.0237   -0.3644 C   0  0  0  0  0  0  0  0  0  0  0  0
   -5.3615    1.7788    0.6427 C   0  0  0  0  0  0  0  0  0  0  0  0
   -7.2751    0.6825   -0.3436 C   0  0  0  0  0  0  0  0  0  0  0  0
   -6.1552    2.2071    1.7066 C   0  0  0  0  0  0  0  0  0  0  0  0
   -8.0688    1.1109    0.7204 C   0  0  0  0  0  0  0  0  0  0  0  0
   -7.5090    1.8732    1.7455 C   0  0  0  0  0  0  0  0  0  0  0  0
    3.1931   -3.1741    0.6231 H   0  0  0  0  0  0  0  0  0  0  0  0
    2.5936   -1.8831   -1.3461 H   0  0  0  0  0  0  0  0  0  0  0  0
    2.9638   -2.2167    2.8462 H   0  0  0  0  0  0  0  0  0  0  0  0
    1.6705   -1.1322    2.3210 H   0  0  0  0  0  0  0  0  0  0  0  0
    3.4904    0.3673    1.9902 H   0  0  0  0  0  0  0  0  0  0  0  0
    4.6319   -0.9619    1.6545 H   0  0  0  0  0  0  0  0  0  0  0  0
    1.2117   -4.1960    1.1893 H   0  0  0  0  0  0  0  0  0  0  0  0
   -0.7356    0.2099   -2.2256 H   0  0  0  0  0  0  0  0  0  0  0  0
   -2.4758   -2.0310    1.0717 H   0  0  0  0  0  0  0  0  0  0  0  0
    6.6480   -0.4725   -0.6138 H   0  0  0  0  0  0  0  0  0  0  0  0
    3.9541    2.8082    0.1223 H   0  0  0  0  0  0  0  0  0  0  0  0
   -2.9102    1.1714   -2.6878 H   0  0  0  0  0  0  0  0  0  0  0  0
   -4.6417   -1.1700    0.4973 H   0  0  0  0  0  0  0  0  0  0  0  0
    8.5205    0.8717    0.2806 H   0  0  0  0  0  0  0  0  0  0  0  0
    5.8337    4.1438    1.0147 H   0  0  0  0  0  0  0  0  0  0  0  0
    8.1183    3.1801    1.0958 H   0  0  0  0  0  0  0  0  0  0  0  0
   -4.3160    2.0722    0.6236 H   0  0  0  0  0  0  0  0  0  0  0  0
   -7.7122    0.0889   -1.1407 H   0  0  0  0  0  0  0  0  0  0  0  0
   -5.7207    2.8054    2.5022 H   0  0  0  0  0  0  0  0  0  0  0  0
   -9.1229    0.8510    0.7506 H   0  0  0  0  0  0  0  0  0  0  0  0
   -8.1273    2.2079    2.5732 H   0  0  0  0  0  0  0  0  0  0  0  0
  1 12  2  0  0  0  0
  2 13  2  0  0  0  0
  3 14  2  0  0  0  0
  4 23  1  0  0  0  0
  4 27  1  0  0  0  0
  5  9  1  0  0  0  0
  5 11  1  0  0  0  0
  5 14  1  0  0  0  0
  6  8  1  0  0  0  0
  6 13  1  0  0  0  0
  6 39  1  0  0  0  0
  7 12  1  0  0  0  0
  7 13  1  0  0  0  0
  7 15  1  0  0  0  0
  8  9  1  0  0  0  0
  8 10  1  0  0  0  0
  8 33  1  0  0  0  0
  9 12  1  0  0  0  0
  9 34  1  0  0  0  0
 10 11  1  0  0  0  0
 10 35  1  0  0  0  0
 10 36  1  0  0  0  0
 11 37  1  0  0  0  0
 11 38  1  0  0  0  0
 14 16  1  0  0  0  0
 15 17  2  0  0  0  0
 15 18  1  0  0  0  0
 16 19  2  0  0  0  0
 16 20  1  0  0  0  0
 17 21  1  0  0  0  0
 17 40  1  0  0  0  0
 18 22  2  0  0  0  0
 18 41  1  0  0  0  0
 19 24  1  0  0  0  0
 19 42  1  0  0  0  0
 20 25  2  0  0  0  0
 20 43  1  0  0  0  0
 21 23  2  0  0  0  0
 21 44  1  0  0  0  0
 22 23  1  0  0  0  0
 22 45  1  0  0  0  0
 24 26  2  0  0  0  0
 24 46  1  0  0  0  0
 25 26  1  0  0  0  0
 25 47  1  0  0  0  0
 26 48  1  0  0  0  0
 27 28  2  0  0  0  0
 27 29  1  0  0  0  0
 28 30  1  0  0  0  0
 28 49  1  0  0  0  0
 29 31  2  0  0  0  0
 29 50  1  0  0  0  0
 30 32  2  0  0  0  0
 30 51  1  0  0  0  0
 31 32  1  0  0  0  0
 31 52  1  0  0  0  0
 32 53  1  0  0  0  0
M  END
> <PUBCHEM_COMPOUND_CID>
11887643

> <PUBCHEM_CONFORMER_RMSD>
0.8

> <PUBCHEM_CONFORMER_DIVERSEORDER>
1
78
12
64
65
59
58
36
62
33
69
70
2
51
22
85
80
89
75
49
76
46
72
54
18
81
9
91
30
45
67
82
56
16
19
40
13
41
43
83
55
44
4
17
48
29
23
73
86
88
11
63
27
31
14
6
3
26
38
57
7
61
74
87
5
24
90
77
47
68
25
53
10
28
34
60
21
8
35
84
15
32
42
92
20
71
52
39
37
50
66
79

> <PUBCHEM_MMFF94_PARTIAL_CHARGES>
46
1 -0.57
11 0.3
12 0.57
13 0.69
14 0.54
15 0.12
16 0.09
17 -0.15
18 -0.15
19 -0.15
2 -0.57
20 -0.15
21 -0.15
22 -0.15
23 0.08
24 -0.15
25 -0.15
26 -0.15
27 0.08
28 -0.15
29 -0.15
3 -0.57
30 -0.15
31 -0.15
32 -0.15
39 0.37
4 -0.17
40 0.15
41 0.15
42 0.15
43 0.15
44 0.15
45 0.15
46 0.15
47 0.15
48 0.15
49 0.15
5 -0.66
50 0.15
51 0.15
52 0.15
53 0.15
6 -0.73
7 -0.24
8 0.3
9 0.36

> <PUBCHEM_EFFECTIVE_ROTOR_COUNT>
6

> <PUBCHEM_PHARMACOPHORE_FEATURES>
10
1 1 acceptor
1 2 acceptor
1 3 acceptor
1 4 acceptor
1 6 donor
5 5 8 9 10 11 rings
6 15 17 18 21 22 23 rings
6 16 19 20 24 25 26 rings
6 27 28 29 30 31 32 rings
6 6 7 8 9 12 13 rings

> <PUBCHEM_HEAVY_ATOM_COUNT>
32

> <PUBCHEM_ATOM_DEF_STEREO_COUNT>
2

> <PUBCHEM_ATOM_UDEF_STEREO_COUNT>
0

> <PUBCHEM_BOND_DEF_STEREO_COUNT>
0

> <PUBCHEM_BOND_UDEF_STEREO_COUNT>
0

> <PUBCHEM_ISOTOPIC_ATOM_COUNT>
0

> <PUBCHEM_COMPONENT_COUNT>
1

> <PUBCHEM_CACTVS_TAUTO_COUNT>
2

> <PUBCHEM_CONFORMER_ID>
00B5641B00000001

> <PUBCHEM_MMFF94_ENERGY>
126.0908

> <PUBCHEM_FEATURE_SELFOVERLAP>
50.939

> <PUBCHEM_SHAPE_FINGERPRINT>
10 15 17749107777513569805
10670039 82 15625949699154808747
10674148 151 17917711297622887120
10693767 8 9367337120567503405
10981352 41 10953451930310572832
11135609 201 18410851066545735057
11273773 42 18272928345638412965
11578821 258 18269837516044673361
12120059 9 15791447137660061395
12342043 65 13181017520087650727
12677640 9 18121500426016776247
13540713 4 17097760280232394503
1361 87 12894782701099245629
13782708 43 10737824514780908228
13885169 86 18409168843857159397
13955234 65 18115865196569780018
14068700 675 11386367032633693207
14394314 77 18342746170304494177
14415361 349 8069743044726330696
14849402 71 18341612646629734089
14904525 67 18268709403638510837
15082195 135 16487260971715944256
15183329 4 14620798180512107887
15188451 53 12468639430524509405
15357212 105 17098356465323539708
15475509 35 15575548030097780242
15519825 34 15719965738727142569
15685185 35 18268995447821997984
16126227 98 18411983593940237819
16994733 274 17775564247290818337
17899979 129 18201444657957586150
19315092 285 12035449428429342926
19438510 23 18412824720119247946
1979834 28 17749114361192104558
2026 5 8430325632054944689
20505436 4 18201996621211052527
20691028 202 18340767147467122264
21033648 29 18191294070037436608
21307412 95 11455885888946783117
21424621 283 18343304764300135961
21585482 111 18338237038316023909
21774942 28 17917714574482740600
21781055 127 17988358179577338506
21792965 39 18261114063355612274
21987483 16 17676490554102218867
22224240 67 18259984881844919119
23559900 14 13182722780253515279
25269216 80 17274247466411210727
3014063 24 7997972370860191384
3178227 256 17749111106219297852
3918712 181 18270962337334040881
394071 54 18335422352719498517
4066623 53 15123509212179086378
4093350 32 17988928838537892742
4340502 62 16732702735743334362
437815 12 10807937076231656963
445580 204 18131633383065053224
4516262 110 18412256221405904965
50009960 94 15648766906647305969
508180 173 16916783032505243609
5104073 3 18040994059381238267
5223283 242 18127992840573826542
5385378 56 18259698978867916898
54076057 255 17561361760418698033
563151 74 18259991452875895955
57035037 87 16701726238743021144
5718773 13 8430316835502271873
5758199 1 18409730664265388757
57816373 69 11818992967793823752
5911458 16 18059861657824295953
59682541 52 15770060527844211084
6698420 124 18411983581234820762
9689198 14 18202571678555318261
9980921 177 18339344311718662264

> <PUBCHEM_SHAPE_MULTIPOLES>
620.12
22.25
3.36
1.57
11.69
1.09
0.01
-24.34
5.12
-2.62
1.59
0.98
-0.15
-1.53

> <PUBCHEM_SHAPE_SELFOVERLAP>
1379.339

> <PUBCHEM_SHAPE_VOLUME>
328

> <PUBCHEM_COORDINATE_TYPE>
2
5
10

$$$$
