51138051
  -OEChem-12032416143D

 58 61  0     1  0  0  0  0  0999 V2000
   -3.2318    2.6782   -0.9032 O   0  0  0  0  0  0  0  0  0  0  0  0
   -2.1477   -0.1570   -0.3817 N   0  0  0  0  0  0  0  0  0  0  0  0
    2.6125    0.8573    0.9656 N   0  0  0  0  0  0  0  0  0  0  0  0
   -4.3491    1.6025    0.8328 N   0  0  0  0  0  0  0  0  0  0  0  0
    6.6337    0.1506   -2.0153 N   0  0  0  0  0  0  0  0  0  0  0  0
   -1.6615   -1.3636    0.3008 C   0  0  2  0  0  0  0  0  0  0  0  0
   -0.1698   -1.3799    0.6500 C   0  0  0  0  0  0  0  0  0  0  0  0
    0.6780   -0.2351    0.6807 C   0  0  0  0  0  0  0  0  0  0  0  0
   -2.0558    1.0650    0.4043 C   0  0  1  0  0  0  0  0  0  0  0  0
   -2.0629   -2.5243   -0.6273 C   0  0  0  0  0  0  0  0  0  0  0  0
    0.4729    1.1679    0.4414 C   0  0  0  0  0  0  0  0  0  0  0  0
   -0.7952    1.8575    0.0639 C   0  0  0  0  0  0  0  0  0  0  0  0
    2.0252   -0.3841    1.0303 C   0  0  0  0  0  0  0  0  0  0  0  0
   -3.5520   -2.8725   -0.5400 C   0  0  0  0  0  0  0  0  0  0  0  0
    1.6882    1.7977    0.6187 C   0  0  0  0  0  0  0  0  0  0  0  0
    0.4196   -2.6055    1.0522 C   0  0  0  0  0  0  0  0  0  0  0  0
    2.5982   -1.6084    1.3784 C   0  0  0  0  0  0  0  0  0  0  0  0
   -3.2600    1.8700    0.0211 C   0  0  0  0  0  0  0  0  0  0  0  0
    4.0034    1.1468    1.2422 C   0  0  0  0  0  0  0  0  0  0  0  0
    1.7652   -2.7197    1.3960 C   0  0  0  0  0  0  0  0  0  0  0  0
   -4.4550   -1.6988   -0.9217 C   0  0  0  0  0  0  0  0  0  0  0  0
   -3.8450   -4.0677   -1.4502 C   0  0  0  0  0  0  0  0  0  0  0  0
    4.9252    0.7973    0.1005 C   0  0  0  0  0  0  0  0  0  0  0  0
   -5.6258    2.2633    0.6860 C   0  0  0  0  0  0  0  0  0  0  0  0
    5.9815   -0.0847    0.3007 C   0  0  0  0  0  0  0  0  0  0  0  0
    4.7223    1.3562   -1.1565 C   0  0  0  0  0  0  0  0  0  0  0  0
    6.7995   -0.3727   -0.7798 C   0  0  0  0  0  0  0  0  0  0  0  0
    5.5965    1.0036   -2.1719 C   0  0  0  0  0  0  0  0  0  0  0  0
   -6.4964    1.5296   -0.2322 C   0  0  0  0  0  0  0  0  0  0  0  0
   -7.2140    0.9304   -0.9857 C   0  0  0  0  0  0  0  0  0  0  0  0
   -2.1991   -1.4768    1.2522 H   0  0  0  0  0  0  0  0  0  0  0  0
   -2.0917    0.8631    1.4833 H   0  0  0  0  0  0  0  0  0  0  0  0
   -1.7820   -2.2998   -1.6671 H   0  0  0  0  0  0  0  0  0  0  0  0
   -1.5179   -3.4432   -0.3931 H   0  0  0  0  0  0  0  0  0  0  0  0
   -0.8357    2.8292    0.5755 H   0  0  0  0  0  0  0  0  0  0  0  0
   -0.7505    2.0842   -1.0107 H   0  0  0  0  0  0  0  0  0  0  0  0
   -1.6976   -0.0460   -1.2896 H   0  0  0  0  0  0  0  0  0  0  0  0
   -3.7919   -3.1722    0.4882 H   0  0  0  0  0  0  0  0  0  0  0  0
    1.9570    2.8420    0.5262 H   0  0  0  0  0  0  0  0  0  0  0  0
   -0.1826   -3.5070    1.1380 H   0  0  0  0  0  0  0  0  0  0  0  0
    3.6429   -1.7015    1.6527 H   0  0  0  0  0  0  0  0  0  0  0  0
    4.0967    2.2168    1.4661 H   0  0  0  0  0  0  0  0  0  0  0  0
    4.2753    0.6142    2.1614 H   0  0  0  0  0  0  0  0  0  0  0  0
    2.1645   -3.6861    1.6921 H   0  0  0  0  0  0  0  0  0  0  0  0
   -4.1402   -1.2197   -1.8543 H   0  0  0  0  0  0  0  0  0  0  0  0
   -4.5079   -0.9630   -0.1182 H   0  0  0  0  0  0  0  0  0  0  0  0
   -5.4846   -2.0457   -1.0703 H   0  0  0  0  0  0  0  0  0  0  0  0
   -3.2319   -4.9316   -1.1721 H   0  0  0  0  0  0  0  0  0  0  0  0
   -4.8949   -4.3694   -1.3711 H   0  0  0  0  0  0  0  0  0  0  0  0
   -3.6400   -3.8287   -2.4994 H   0  0  0  0  0  0  0  0  0  0  0  0
   -4.2693    0.8940    1.5567 H   0  0  0  0  0  0  0  0  0  0  0  0
   -5.4619    3.2842    0.3257 H   0  0  0  0  0  0  0  0  0  0  0  0
   -6.0769    2.3216    1.6814 H   0  0  0  0  0  0  0  0  0  0  0  0
    6.1704   -0.5394    1.2670 H   0  0  0  0  0  0  0  0  0  0  0  0
    3.9174    2.0554   -1.3531 H   0  0  0  0  0  0  0  0  0  0  0  0
    7.6371   -1.0545   -0.6761 H   0  0  0  0  0  0  0  0  0  0  0  0
    5.4829    1.4136   -3.1700 H   0  0  0  0  0  0  0  0  0  0  0  0
   -7.8490    0.3975   -1.6541 H   0  0  0  0  0  0  0  0  0  0  0  0
  1 18  2  0  0  0  0
  2  6  1  0  0  0  0
  2  9  1  0  0  0  0
  2 37  1  0  0  0  0
  3 13  1  0  0  0  0
  3 15  1  0  0  0  0
  3 19  1  0  0  0  0
  4 18  1  0  0  0  0
  4 24  1  0  0  0  0
  4 51  1  0  0  0  0
  5 27  2  0  0  0  0
  5 28  1  0  0  0  0
  6  7  1  0  0  0  0
  6 10  1  0  0  0  0
  6 31  1  0  0  0  0
  7  8  2  0  0  0  0
  7 16  1  0  0  0  0
  8 11  1  0  0  0  0
  8 13  1  0  0  0  0
  9 12  1  0  0  0  0
  9 18  1  0  0  0  0
  9 32  1  0  0  0  0
 10 14  1  0  0  0  0
 10 33  1  0  0  0  0
 10 34  1  0  0  0  0
 11 12  1  0  0  0  0
 11 15  2  0  0  0  0
 12 35  1  0  0  0  0
 12 36  1  0  0  0  0
 13 17  2  0  0  0  0
 14 21  1  0  0  0  0
 14 22  1  0  0  0  0
 14 38  1  0  0  0  0
 15 39  1  0  0  0  0
 16 20  2  0  0  0  0
 16 40  1  0  0  0  0
 17 20  1  0  0  0  0
 17 41  1  0  0  0  0
 19 23  1  0  0  0  0
 19 42  1  0  0  0  0
 19 43  1  0  0  0  0
 20 44  1  0  0  0  0
 21 45  1  0  0  0  0
 21 46  1  0  0  0  0
 21 47  1  0  0  0  0
 22 48  1  0  0  0  0
 22 49  1  0  0  0  0
 22 50  1  0  0  0  0
 23 25  2  0  0  0  0
 23 26  1  0  0  0  0
 24 29  1  0  0  0  0
 24 52  1  0  0  0  0
 24 53  1  0  0  0  0
 25 27  1  0  0  0  0
 25 54  1  0  0  0  0
 26 28  2  0  0  0  0
 26 55  1  0  0  0  0
 27 56  1  0  0  0  0
 28 57  1  0  0  0  0
 29 30  3  0  0  0  0
 30 58  1  0  0  0  0
M  END
> <PUBCHEM_COMPOUND_CID>
51138051

> <PUBCHEM_CONFORMER_RMSD>
1

> <PUBCHEM_CONFORMER_DIVERSEORDER>
1
43
20
15
56
68
29
17
37
39
10
30
34
27
18
21
67
59
55
44
50
61
32
38
26
62
9
57
16
46
35
14
7
66
36
11
24
54
49
47
5
64
58
19
4
51
2
13
33
42
31
60
25
45
63
6
23
53
65
48
3
12
28
22
8
41
52
40

> <PUBCHEM_MMFF94_PARTIAL_CHARGES>
36
1 -0.57
11 -0.18
12 0.18
13 -0.15
15 -0.3
16 -0.15
17 -0.15
18 0.57
19 0.4
2 -0.9
20 -0.15
23 -0.14
24 0.5
25 -0.15
26 -0.15
27 0.16
28 0.16
29 -0.2
3 0.05
30 -0.18
37 0.36
39 0.15
4 -0.73
40 0.15
41 0.15
44 0.15
5 -0.62
51 0.37
54 0.15
55 0.15
56 0.15
57 0.15
58 0.18
6 0.41
7 -0.14
9 0.33

> <PUBCHEM_EFFECTIVE_ROTOR_COUNT>
7.8

> <PUBCHEM_PHARMACOPHORE_FEATURES>
12
1 1 acceptor
1 2 cation
1 2 donor
1 3 cation
1 30 hydrophobe
1 4 donor
1 5 acceptor
3 14 21 22 hydrophobe
5 3 8 11 13 15 rings
6 5 23 25 26 27 28 rings
6 7 8 13 16 17 20 rings
7 2 6 7 8 9 11 12 rings

> <PUBCHEM_HEAVY_ATOM_COUNT>
30

> <PUBCHEM_ATOM_DEF_STEREO_COUNT>
2

> <PUBCHEM_ATOM_UDEF_STEREO_COUNT>
0

> <PUBCHEM_BOND_DEF_STEREO_COUNT>
0

> <PUBCHEM_BOND_UDEF_STEREO_COUNT>
0

> <PUBCHEM_ISOTOPIC_ATOM_COUNT>
0

> <PUBCHEM_COMPONENT_COUNT>
1

> <PUBCHEM_CACTVS_TAUTO_COUNT>
2

> <PUBCHEM_CONFORMER_ID>
030C4E0300000001

> <PUBCHEM_MMFF94_ENERGY>
67.6739

> <PUBCHEM_FEATURE_SELFOVERLAP>
61.026

> <PUBCHEM_SHAPE_FINGERPRINT>
10190108 129 18190757495256816451
10670039 82 18187646933948425236
12954195 1 18272092716168306683
13540713 5 18262219063228587618
13782708 43 16988281005174086638
14294032 229 18261106314427339037
14347332 77 18342173427302664038
1454969 45 18186522086224726205
14790565 3 18334298673226150280
14840074 17 17313108561589860796
14931854 50 18267844217131064487
15131766 46 16154570820629603452
15183329 4 17988368083333728096
15629462 23 16486987158950158569
15961568 22 16950570921737853828
16752209 62 18335137652876151506
19319366 153 18113898200115876835
20775438 99 16975593929933849678
21641784 216 17968927712257398829
22393880 68 18342450469867298434
23559900 14 18059565949009390473
23576562 1 18262807392143955965
25147074 1 18261377936759271506
335352 9 18408604734995336480
350125 39 18409720747460182979
3610482 184 18115045085786354620
4058900 60 18040147418506795099
563151 40 18409456877465189739
59755656 215 18201721734365266829
59755656 520 18341611495488373133

> <PUBCHEM_SHAPE_MULTIPOLES>
591.59
16.37
3.67
1.51
2.95
2.9
0.48
-6.82
7.95
-5.74
0.37
1.81
0.3
-2.08

> <PUBCHEM_SHAPE_SELFOVERLAP>
1270.602

> <PUBCHEM_SHAPE_VOLUME>
324.4

> <PUBCHEM_COORDINATE_TYPE>
2
5
10

$$$$
