51136663
  -OEChem-12032416203D

 61 63  0     1  0  0  0  0  0999 V2000
   -2.2695   -3.0292    0.4509 O   0  0  0  0  0  0  0  0  0  0  0  0
   -2.6627    5.0271    1.1732 O   0  0  0  0  0  0  0  0  0  0  0  0
   -1.9928    4.5183   -0.9417 O   0  0  0  0  0  0  0  0  0  0  0  0
    5.9866   -0.2454   -1.8978 O   0  0  0  0  0  0  0  0  0  0  0  0
   -2.6663   -0.7604    0.1381 N   0  0  0  0  0  0  0  0  0  0  0  0
    1.2984   -0.9489    2.4076 N   0  0  0  0  0  0  0  0  0  0  0  0
   -0.6357    0.6370    0.3870 C   0  0  2  0  0  0  0  0  0  0  0  0
   -1.3854    1.8473   -0.2236 C   0  0  1  0  0  0  0  0  0  0  0  0
   -1.6015   -0.3513    1.0578 C   0  0  0  0  0  0  0  0  0  0  0  0
   -2.5072    1.3397   -1.1481 C   0  0  0  0  0  0  0  0  0  0  0  0
   -3.4328    0.3410   -0.4558 C   0  0  0  0  0  0  0  0  0  0  0  0
    0.4734    1.0463    1.3555 C   0  0  0  0  0  0  0  0  0  0  0  0
   -1.9349    2.8307    0.8162 C   0  0  0  0  0  0  0  0  0  0  0  0
   -2.9264   -2.1173   -0.0581 C   0  0  0  0  0  0  0  0  0  0  0  0
    1.4834   -0.0690    1.4794 C   0  0  0  0  0  0  0  0  0  0  0  0
   -4.0884   -2.4608   -0.9558 C   0  0  0  0  0  0  0  0  0  0  0  0
   -2.1829    4.1884    0.2192 C   0  0  0  0  0  0  0  0  0  0  0  0
    2.6351   -0.0983    0.5421 C   0  0  0  0  0  0  0  0  0  0  0  0
   -3.8089   -1.8629   -2.3353 C   0  0  0  0  0  0  0  0  0  0  0  0
   -5.3644   -1.8617   -0.3616 C   0  0  0  0  0  0  0  0  0  0  0  0
   -4.2083   -3.9831   -1.0467 C   0  0  0  0  0  0  0  0  0  0  0  0
    3.7316   -0.8864    0.9142 C   0  0  0  0  0  0  0  0  0  0  0  0
    3.6784   -1.6247    2.2187 C   0  0  0  0  0  0  0  0  0  0  0  0
    2.2458   -2.0656    2.4890 C   0  0  0  0  0  0  0  0  0  0  0  0
    2.6563    0.6263   -0.6511 C   0  0  0  0  0  0  0  0  0  0  0  0
    4.8634   -0.9248    0.0953 C   0  0  0  0  0  0  0  0  0  0  0  0
    3.7848    0.5694   -1.4701 C   0  0  0  0  0  0  0  0  0  0  0  0
    4.8864   -0.2013   -1.0972 C   0  0  0  0  0  0  0  0  0  0  0  0
    5.9444    0.5197   -3.1013 C   0  0  0  0  0  0  0  0  0  0  0  0
   -0.1896    0.0972   -0.4607 H   0  0  0  0  0  0  0  0  0  0  0  0
   -0.6599    2.3812   -0.8532 H   0  0  0  0  0  0  0  0  0  0  0  0
   -2.0865    0.1028    1.9303 H   0  0  0  0  0  0  0  0  0  0  0  0
   -1.0690   -1.2369    1.4132 H   0  0  0  0  0  0  0  0  0  0  0  0
   -2.0448    0.8541   -2.0171 H   0  0  0  0  0  0  0  0  0  0  0  0
   -3.0994    2.1737   -1.5406 H   0  0  0  0  0  0  0  0  0  0  0  0
   -3.9624    0.8255    0.3727 H   0  0  0  0  0  0  0  0  0  0  0  0
   -4.2053    0.0798   -1.1610 H   0  0  0  0  0  0  0  0  0  0  0  0
    0.9795    1.9597    1.0240 H   0  0  0  0  0  0  0  0  0  0  0  0
    0.0720    1.2606    2.3539 H   0  0  0  0  0  0  0  0  0  0  0  0
   -1.2060    2.9909    1.6167 H   0  0  0  0  0  0  0  0  0  0  0  0
   -2.8615    2.4722    1.2727 H   0  0  0  0  0  0  0  0  0  0  0  0
   -4.5958   -1.2003   -2.7111 H   0  0  0  0  0  0  0  0  0  0  0  0
   -2.8420   -1.3574   -2.4245 H   0  0  0  0  0  0  0  0  0  0  0  0
   -3.7606   -2.6636   -3.0865 H   0  0  0  0  0  0  0  0  0  0  0  0
   -5.8865   -1.1637   -1.0243 H   0  0  0  0  0  0  0  0  0  0  0  0
   -5.2154   -1.3721    0.6073 H   0  0  0  0  0  0  0  0  0  0  0  0
   -6.1012   -2.6520   -0.1648 H   0  0  0  0  0  0  0  0  0  0  0  0
   -3.2982   -4.4389   -1.4550 H   0  0  0  0  0  0  0  0  0  0  0  0
   -4.3894   -4.4346   -0.0638 H   0  0  0  0  0  0  0  0  0  0  0  0
   -5.0405   -4.2727   -1.6992 H   0  0  0  0  0  0  0  0  0  0  0  0
    4.3309   -2.5047    2.1966 H   0  0  0  0  0  0  0  0  0  0  0  0
    4.0318   -0.9590    3.0152 H   0  0  0  0  0  0  0  0  0  0  0  0
    1.9360   -2.8470    1.7837 H   0  0  0  0  0  0  0  0  0  0  0  0
    2.1876   -2.5008    3.4927 H   0  0  0  0  0  0  0  0  0  0  0  0
    1.8218    1.2403   -0.9718 H   0  0  0  0  0  0  0  0  0  0  0  0
    5.7270   -1.5187    0.3839 H   0  0  0  0  0  0  0  0  0  0  0  0
   -2.8364    5.9246    0.8171 H   0  0  0  0  0  0  0  0  0  0  0  0
    3.7395    1.1537   -2.3830 H   0  0  0  0  0  0  0  0  0  0  0  0
    5.1599    0.1635   -3.7776 H   0  0  0  0  0  0  0  0  0  0  0  0
    5.8592    1.5919   -2.8940 H   0  0  0  0  0  0  0  0  0  0  0  0
    6.9002    0.3687   -3.6136 H   0  0  0  0  0  0  0  0  0  0  0  0
  1 14  2  0  0  0  0
  2 17  1  0  0  0  0
  2 57  1  0  0  0  0
  3 17  2  0  0  0  0
  4 28  1  0  0  0  0
  4 29  1  0  0  0  0
  5  9  1  0  0  0  0
  5 11  1  0  0  0  0
  5 14  1  0  0  0  0
  6 15  2  0  0  0  0
  6 24  1  0  0  0  0
  7  8  1  0  0  0  0
  7  9  1  0  0  0  0
  7 12  1  0  0  0  0
  7 30  1  0  0  0  0
  8 10  1  0  0  0  0
  8 13  1  0  0  0  0
  8 31  1  0  0  0  0
  9 32  1  0  0  0  0
  9 33  1  0  0  0  0
 10 11  1  0  0  0  0
 10 34  1  0  0  0  0
 10 35  1  0  0  0  0
 11 36  1  0  0  0  0
 11 37  1  0  0  0  0
 12 15  1  0  0  0  0
 12 38  1  0  0  0  0
 12 39  1  0  0  0  0
 13 17  1  0  0  0  0
 13 40  1  0  0  0  0
 13 41  1  0  0  0  0
 14 16  1  0  0  0  0
 15 18  1  0  0  0  0
 16 19  1  0  0  0  0
 16 20  1  0  0  0  0
 16 21  1  0  0  0  0
 18 22  2  0  0  0  0
 18 25  1  0  0  0  0
 19 42  1  0  0  0  0
 19 43  1  0  0  0  0
 19 44  1  0  0  0  0
 20 45  1  0  0  0  0
 20 46  1  0  0  0  0
 20 47  1  0  0  0  0
 21 48  1  0  0  0  0
 21 49  1  0  0  0  0
 21 50  1  0  0  0  0
 22 23  1  0  0  0  0
 22 26  1  0  0  0  0
 23 24  1  0  0  0  0
 23 51  1  0  0  0  0
 23 52  1  0  0  0  0
 24 53  1  0  0  0  0
 24 54  1  0  0  0  0
 25 27  2  0  0  0  0
 25 55  1  0  0  0  0
 26 28  2  0  0  0  0
 26 56  1  0  0  0  0
 27 28  1  0  0  0  0
 27 58  1  0  0  0  0
 29 59  1  0  0  0  0
 29 60  1  0  0  0  0
 29 61  1  0  0  0  0
M  END
> <PUBCHEM_COMPOUND_CID>
51136663

> <PUBCHEM_CONFORMER_RMSD>
1

> <PUBCHEM_CONFORMER_DIVERSEORDER>
1
3
38
47
49
14
9
41
37
4
36
27
8
12
50
23
13
31
35
25
22
43
11
45
26
40
17
28
48
53
5
19
10
29
18
42
16
34
33
32
15
51
39
24
20
44
54
7
46
6
30
21
2
52

> <PUBCHEM_MMFF94_PARTIAL_CHARGES>
27
1 -0.57
11 0.3
12 0.06
13 0.06
14 0.57
15 0.3
16 0.06
17 0.66
18 0.09
2 -0.65
22 -0.14
23 0.14
24 0.25
25 -0.15
26 -0.15
27 -0.15
28 0.08
29 0.28
3 -0.57
4 -0.36
5 -0.66
55 0.15
56 0.15
57 0.5
58 0.15
6 -0.7
9 0.3

> <PUBCHEM_EFFECTIVE_ROTOR_COUNT>
8.6

> <PUBCHEM_PHARMACOPHORE_FEATURES>
10
1 1 acceptor
1 2 acceptor
1 3 acceptor
1 4 acceptor
1 6 acceptor
3 2 3 17 anion
4 16 19 20 21 hydrophobe
6 18 22 25 26 27 28 rings
6 5 7 8 9 10 11 rings
6 6 15 18 22 23 24 rings

> <PUBCHEM_HEAVY_ATOM_COUNT>
29

> <PUBCHEM_ATOM_DEF_STEREO_COUNT>
2

> <PUBCHEM_ATOM_UDEF_STEREO_COUNT>
0

> <PUBCHEM_BOND_DEF_STEREO_COUNT>
0

> <PUBCHEM_BOND_UDEF_STEREO_COUNT>
0

> <PUBCHEM_ISOTOPIC_ATOM_COUNT>
0

> <PUBCHEM_COMPONENT_COUNT>
1

> <PUBCHEM_CACTVS_TAUTO_COUNT>
1

> <PUBCHEM_CONFORMER_ID>
030C489700000001

> <PUBCHEM_MMFF94_ENERGY>
104.1727

> <PUBCHEM_FEATURE_SELFOVERLAP>
50.83

> <PUBCHEM_SHAPE_FINGERPRINT>
10169797 241 16742268762058038043
10622 236 17825077377714972378
10794284 68 18048634549257132505
10928967 22 18268132340063956207
10940486 97 17831288412111268698
11049842 53 17621596116770567802
12160290 23 17986652810972049633
12553582 1 18337380647669620531
12788726 201 18408599241326041603
13103583 49 14116978914345232494
13540713 5 18041556911130049786
13690498 29 18343592845237098692
13757389 114 18271258131879051629
14114206 34 18335968844516295767
15021287 119 17099174205083265082
15475509 8 18272085033500475455
15664445 248 17978499064109774841
15842332 3 18041835083060657912
16991981 162 18198076793538748712
1813 80 18127963316631113895
20505436 4 17900562093930549984
21120745 212 18338247036978341609
22393880 68 18408886218361664700
22849341 161 18267878353515009795
22907989 373 18262787493791652957
23559900 14 17703225256102445491
23598288 3 18262807237608860009
25147074 1 17968372334758542602
2838139 119 14563077208873281182
3388396 114 17901128591701707500
340366 18 17615119989009235370
3610482 184 18044123222867240292
463206 1 18190447458431368195
484985 159 16629424457563969902
6058803 2 17970057860272122802
633830 44 17533237292689197250
6700243 42 18058750038857065324
70251023 43 18340773748662485952

> <PUBCHEM_SHAPE_MULTIPOLES>
563.37
11.84
4.82
2.41
9.59
5.94
-0.44
-7.22
-8.16
-9.17
0.46
3.54
-0.82
-3.03

> <PUBCHEM_SHAPE_SELFOVERLAP>
1186.198

> <PUBCHEM_SHAPE_VOLUME>
315.9

> <PUBCHEM_COORDINATE_TYPE>
2
5
10

$$$$
