45783690
  -OEChem-12032416403D

 48 51  0     1  0  0  0  0  0999 V2000
   -0.4227   -1.7671    1.7919 O   0  0  0  0  0  0  0  0  0  0  0  0
    6.0482    1.0265   -1.0094 O   0  0  0  0  0  0  0  0  0  0  0  0
   -2.9651   -0.5884   -0.5857 N   0  0  1  0  0  0  0  0  0  0  0  0
   -0.0144   -0.7798   -0.1767 N   0  0  0  0  0  0  0  0  0  0  0  0
    0.9407   -1.4458    1.7926 N   0  0  0  0  0  0  0  0  0  0  0  0
    4.7229   -0.0083    0.5896 N   0  0  0  0  0  0  0  0  0  0  0  0
   -3.4027    0.6400    0.0747 C   0  0  0  0  0  0  0  0  0  0  0  0
   -2.3840   -1.5751    0.3464 C   0  0  1  0  0  0  0  0  0  0  0  0
   -2.2136    1.3064    0.7757 C   0  0  0  0  0  0  0  0  0  0  0  0
   -4.0399    1.5842   -0.9506 C   0  0  0  0  0  0  0  0  0  0  0  0
   -4.0650   -1.2659   -1.2723 C   0  0  0  0  0  0  0  0  0  0  0  0
   -2.6672   -2.9417   -0.3043 C   0  0  0  0  0  0  0  0  0  0  0  0
   -3.4628   -2.6258   -1.5628 C   0  0  0  0  0  0  0  0  0  0  0  0
   -2.6168    2.6348    1.4136 C   0  0  0  0  0  0  0  0  0  0  0  0
   -4.4413    2.9119   -0.3102 C   0  0  0  0  0  0  0  0  0  0  0  0
   -3.2628    3.5736    0.3986 C   0  0  0  0  0  0  0  0  0  0  0  0
   -0.9090   -1.3413    0.5967 C   0  0  0  0  0  0  0  0  0  0  0  0
    1.1046   -0.8669    0.5994 C   0  0  0  0  0  0  0  0  0  0  0  0
    2.3723   -0.3666    0.1520 C   0  0  0  0  0  0  0  0  0  0  0  0
    2.5066    0.2290   -1.0973 C   0  0  0  0  0  0  0  0  0  0  0  0
    3.5008   -0.4601    0.9504 C   0  0  0  0  0  0  0  0  0  0  0  0
    3.7477    0.7059   -1.5042 C   0  0  0  0  0  0  0  0  0  0  0  0
    4.8147    0.5644   -0.6317 C   0  0  0  0  0  0  0  0  0  0  0  0
    7.1086    0.8562   -0.0763 C   0  0  0  0  0  0  0  0  0  0  0  0
   -4.1609    0.4046    0.8358 H   0  0  0  0  0  0  0  0  0  0  0  0
   -2.9107   -1.5536    1.3112 H   0  0  0  0  0  0  0  0  0  0  0  0
   -1.3984    1.4945    0.0661 H   0  0  0  0  0  0  0  0  0  0  0  0
   -1.8303    0.6986    1.5991 H   0  0  0  0  0  0  0  0  0  0  0  0
   -3.3412    1.7795   -1.7749 H   0  0  0  0  0  0  0  0  0  0  0  0
   -4.9466    1.1535   -1.3894 H   0  0  0  0  0  0  0  0  0  0  0  0
   -4.3509   -0.7823   -2.2110 H   0  0  0  0  0  0  0  0  0  0  0  0
   -4.9501   -1.3725   -0.6325 H   0  0  0  0  0  0  0  0  0  0  0  0
   -3.2780   -3.5524    0.3719 H   0  0  0  0  0  0  0  0  0  0  0  0
   -1.7640   -3.5116   -0.5478 H   0  0  0  0  0  0  0  0  0  0  0  0
   -2.7875   -2.5699   -2.4258 H   0  0  0  0  0  0  0  0  0  0  0  0
   -4.2218   -3.3849   -1.7734 H   0  0  0  0  0  0  0  0  0  0  0  0
   -1.7353    3.1168    1.8516 H   0  0  0  0  0  0  0  0  0  0  0  0
   -3.3198    2.4478    2.2350 H   0  0  0  0  0  0  0  0  0  0  0  0
   -5.2507    2.7403    0.4101 H   0  0  0  0  0  0  0  0  0  0  0  0
   -4.8350    3.5875   -1.0780 H   0  0  0  0  0  0  0  0  0  0  0  0
   -3.6007    4.4858    0.9029 H   0  0  0  0  0  0  0  0  0  0  0  0
   -2.5148    3.8771   -0.3442 H   0  0  0  0  0  0  0  0  0  0  0  0
    1.6623    0.3352   -1.7736 H   0  0  0  0  0  0  0  0  0  0  0  0
    3.4809   -0.9104    1.9384 H   0  0  0  0  0  0  0  0  0  0  0  0
    3.8693    1.1731   -2.4754 H   0  0  0  0  0  0  0  0  0  0  0  0
    6.9071    1.4021    0.8515 H   0  0  0  0  0  0  0  0  0  0  0  0
    7.2871   -0.2052    0.1262 H   0  0  0  0  0  0  0  0  0  0  0  0
    8.0179    1.2718   -0.5208 H   0  0  0  0  0  0  0  0  0  0  0  0
  1  5  1  0  0  0  0
  1 17  1  0  0  0  0
  2 23  1  0  0  0  0
  2 24  1  0  0  0  0
  3  7  1  0  0  0  0
  3  8  1  0  0  0  0
  3 11  1  0  0  0  0
  4 17  2  0  0  0  0
  4 18  1  0  0  0  0
  5 18  2  0  0  0  0
  6 21  1  0  0  0  0
  6 23  2  0  0  0  0
  7  9  1  0  0  0  0
  7 10  1  0  0  0  0
  7 25  1  0  0  0  0
  8 12  1  0  0  0  0
  8 17  1  0  0  0  0
  8 26  1  0  0  0  0
  9 14  1  0  0  0  0
  9 27  1  0  0  0  0
  9 28  1  0  0  0  0
 10 15  1  0  0  0  0
 10 29  1  0  0  0  0
 10 30  1  0  0  0  0
 11 13  1  0  0  0  0
 11 31  1  0  0  0  0
 11 32  1  0  0  0  0
 12 13  1  0  0  0  0
 12 33  1  0  0  0  0
 12 34  1  0  0  0  0
 13 35  1  0  0  0  0
 13 36  1  0  0  0  0
 14 16  1  0  0  0  0
 14 37  1  0  0  0  0
 14 38  1  0  0  0  0
 15 16  1  0  0  0  0
 15 39  1  0  0  0  0
 15 40  1  0  0  0  0
 16 41  1  0  0  0  0
 16 42  1  0  0  0  0
 18 19  1  0  0  0  0
 19 20  1  0  0  0  0
 19 21  2  0  0  0  0
 20 22  2  0  0  0  0
 20 43  1  0  0  0  0
 21 44  1  0  0  0  0
 22 23  1  0  0  0  0
 22 45  1  0  0  0  0
 24 46  1  0  0  0  0
 24 47  1  0  0  0  0
 24 48  1  0  0  0  0
M  END
> <PUBCHEM_COMPOUND_CID>
45783690

> <PUBCHEM_CONFORMER_RMSD>
0.8

> <PUBCHEM_CONFORMER_DIVERSEORDER>
1
35
42
29
9
17
15
13
38
30
19
8
33
23
31
16
32
6
41
18
27
14
43
39
22
12
11
36
21
4
34
5
24
20
25
26
7
2
40
3
28
37
10

> <PUBCHEM_MMFF94_PARTIAL_CHARGES>
20
1 -0.02
11 0.27
17 0.3
18 0.46
19 0.05
2 -0.36
20 -0.15
21 0.16
22 -0.15
23 0.39
24 0.28
3 -0.81
4 -0.57
43 0.15
44 0.15
45 0.15
5 -0.41
6 -0.62
7 0.27
8 0.45

> <PUBCHEM_EFFECTIVE_ROTOR_COUNT>
6.2

> <PUBCHEM_PHARMACOPHORE_FEATURES>
6
1 3 cation
3 4 5 18 cation
5 1 4 5 17 18 rings
5 3 8 11 12 13 rings
6 6 19 20 21 22 23 rings
6 7 9 10 14 15 16 rings

> <PUBCHEM_HEAVY_ATOM_COUNT>
24

> <PUBCHEM_ATOM_DEF_STEREO_COUNT>
1

> <PUBCHEM_ATOM_UDEF_STEREO_COUNT>
0

> <PUBCHEM_BOND_DEF_STEREO_COUNT>
0

> <PUBCHEM_BOND_UDEF_STEREO_COUNT>
0

> <PUBCHEM_ISOTOPIC_ATOM_COUNT>
0

> <PUBCHEM_COMPONENT_COUNT>
1

> <PUBCHEM_CACTVS_TAUTO_COUNT>
1

> <PUBCHEM_CONFORMER_ID>
02BA9A8A00000001

> <PUBCHEM_MMFF94_ENERGY>
42.5404

> <PUBCHEM_FEATURE_SELFOVERLAP>
30.449

> <PUBCHEM_SHAPE_FINGERPRINT>
10087517 78 18408321116535163284
10291535 26 18337115660549690946
10871710 139 18335137571066271501
10906281 52 17386019381969107510
10937287 8 17767693758813973809
11049842 53 17912629225266104979
11089746 13 18188205511862730300
11315181 36 18041561468385723502
11370993 144 12540961993837469428
11477941 20 18058722658119442660
11640471 11 18188769419139976619
12107183 9 18047463427533985730
12788726 201 18338223951861500115
13583140 156 17561075908933706622
13994607 96 18187941568499430097
14142880 1 18113901538001297645
14187579 7 18268713972950729964
14251764 38 18266742561887995144
14251764 75 17909276775869508425
14713325 29 18272380788600230727
14739800 52 18266999783342122168
14767858 380 18268408185113288109
15003188 33 18200879457262096550
15064981 113 18057872559726676718
15163728 17 18269845228639021415
15183329 4 17821443570048676598
15289351 153 18118690062277689964
15463212 79 18336824200185551611
16994733 274 15792828102689634503
17492 54 18266159675096851509
17818456 19 18053088541653323698
19489759 90 18411982507403371118
20511986 3 18041548153180744244
20775438 99 16323130604423229415
21033650 10 18267047032139772460
21756936 100 18187373129076605651
22393880 68 17988373580976659998
23402539 116 18335983159911214510
235170 7 17418380215901502876
23557571 272 18131070462970369159
25147074 1 18188195521215133162
255183 451 17481408797237702559
312425 83 18270700713510581910
3268164 11 18272651281070869247
341906 21 18341322336741271720
38570 142 17970083157592585338
397830 11 11386658468340676644
4169191 19 17314236747448180644
441001 317 18411702106057727616
46194498 28 17345744343161473992
469060 322 18043273356318941937
474 4 17894912867352667651
5104073 3 16733548364208821248
5283173 99 18343020017212681528
531348 171 18272656718916665334
53917941 68 18334295353100392241
6299153 45 18116145576983048650
6327066 14 18264202513918148293
6328613 192 17749681804852767228
633830 44 17895480228422592346
7288768 16 17530975639809007409
7808743 9 18339642243976673065
9981440 41 18334862709743325650

> <PUBCHEM_SHAPE_MULTIPOLES>
462.25
12.86
3.37
1.46
21.97
1.21
0.11
6.36
-4.14
-6.86
0.1
0.05
-0.32
-1.68

> <PUBCHEM_SHAPE_SELFOVERLAP>
989.388

> <PUBCHEM_SHAPE_VOLUME>
256.3

> <PUBCHEM_COORDINATE_TYPE>
2
5
10

$$$$
