51137976
  -OEChem-12032416223D

 61 65  0     1  0  0  0  0  0999 V2000
    0.1003    1.8531    2.1742 O   0  0  0  0  0  0  0  0  0  0  0  0
    2.0890    1.1776    0.6517 N   0  0  0  0  0  0  0  0  0  0  0  0
   -1.4224    0.5686    0.9777 N   0  0  0  0  0  0  0  0  0  0  0  0
   -4.1186   -0.0113    0.0981 N   0  0  0  0  0  0  0  0  0  0  0  0
    3.7682   -3.5852    0.6549 N   0  0  0  0  0  0  0  0  0  0  0  0
   -5.6726   -1.5364   -0.7311 N   0  0  0  0  0  0  0  0  0  0  0  0
   -6.2618    0.7726   -0.3724 N   0  0  0  0  0  0  0  0  0  0  0  0
    2.9403    1.0548   -0.5393 C   0  0  2  0  0  0  0  0  0  0  0  0
    0.9962    0.2179    0.7196 C   0  0  1  0  0  0  0  0  0  0  0  0
    1.3597   -0.9857    1.5868 C   0  0  0  0  0  0  0  0  0  0  0  0
    3.7241   -0.2551   -0.6695 C   0  0  0  0  0  0  0  0  0  0  0  0
    3.8584    2.2894   -0.4904 C   0  0  0  0  0  0  0  0  0  0  0  0
    3.4468   -1.4523    0.0516 C   0  0  0  0  0  0  0  0  0  0  0  0
    2.4565   -1.8268    1.0247 C   0  0  0  0  0  0  0  0  0  0  0  0
   -0.1381    0.9589    1.3591 C   0  0  0  0  0  0  0  0  0  0  0  0
    3.1518    3.5778   -0.9231 C   0  0  0  0  0  0  0  0  0  0  0  0
    4.2330   -2.5888   -0.1706 C   0  0  0  0  0  0  0  0  0  0  0  0
   -2.5812    1.2472    1.5520 C   0  0  0  0  0  0  0  0  0  0  0  0
   -1.7035   -0.4937    0.0094 C   0  0  0  0  0  0  0  0  0  0  0  0
    2.6978   -3.1405    1.3729 C   0  0  0  0  0  0  0  0  0  0  0  0
   -3.7438    1.3264    0.5651 C   0  0  0  0  0  0  0  0  0  0  0  0
   -3.1106   -1.0727    0.1579 C   0  0  0  0  0  0  0  0  0  0  0  0
    4.7630   -0.3313   -1.6319 C   0  0  0  0  0  0  0  0  0  0  0  0
    5.2825   -2.6299   -1.0899 C   0  0  0  0  0  0  0  0  0  0  0  0
    4.1526    4.7355   -0.8966 C   0  0  0  0  0  0  0  0  0  0  0  0
    1.9486    3.9146   -0.0413 C   0  0  0  0  0  0  0  0  0  0  0  0
    5.5268   -1.4800   -1.8297 C   0  0  0  0  0  0  0  0  0  0  0  0
   -5.4097   -0.2702   -0.3558 C   0  0  0  0  0  0  0  0  0  0  0  0
   -6.9318   -1.7518   -1.1654 C   0  0  0  0  0  0  0  0  0  0  0  0
   -7.5029    0.4864   -0.8175 C   0  0  0  0  0  0  0  0  0  0  0  0
   -7.8985   -0.7692   -1.2311 C   0  0  0  0  0  0  0  0  0  0  0  0
    2.3125    1.1257   -1.4382 H   0  0  0  0  0  0  0  0  0  0  0  0
    0.7233   -0.0840   -0.2962 H   0  0  0  0  0  0  0  0  0  0  0  0
    1.6607   -0.6526    2.5905 H   0  0  0  0  0  0  0  0  0  0  0  0
    0.4761   -1.6161    1.7475 H   0  0  0  0  0  0  0  0  0  0  0  0
    2.6491    1.1596    1.5031 H   0  0  0  0  0  0  0  0  0  0  0  0
    4.2900    2.4079    0.5146 H   0  0  0  0  0  0  0  0  0  0  0  0
    4.7271    2.1801   -1.1459 H   0  0  0  0  0  0  0  0  0  0  0  0
    2.8009    3.4660   -1.9569 H   0  0  0  0  0  0  0  0  0  0  0  0
   -2.3016    2.2527    1.8844 H   0  0  0  0  0  0  0  0  0  0  0  0
   -2.8727    0.6777    2.4432 H   0  0  0  0  0  0  0  0  0  0  0  0
   -0.9821   -1.3083    0.0998 H   0  0  0  0  0  0  0  0  0  0  0  0
   -1.5835   -0.0501   -0.9868 H   0  0  0  0  0  0  0  0  0  0  0  0
   -3.4675    1.9426   -0.2990 H   0  0  0  0  0  0  0  0  0  0  0  0
   -4.5772    1.8195    1.0793 H   0  0  0  0  0  0  0  0  0  0  0  0
   -3.2046   -1.6005    1.1147 H   0  0  0  0  0  0  0  0  0  0  0  0
   -3.2482   -1.8078   -0.6438 H   0  0  0  0  0  0  0  0  0  0  0  0
    2.1930   -3.7963    2.0688 H   0  0  0  0  0  0  0  0  0  0  0  0
    4.9778    0.5136   -2.2821 H   0  0  0  0  0  0  0  0  0  0  0  0
    4.1542   -4.5178    0.7074 H   0  0  0  0  0  0  0  0  0  0  0  0
    5.8708   -3.5286   -1.2407 H   0  0  0  0  0  0  0  0  0  0  0  0
    5.0075    4.5295   -1.5496 H   0  0  0  0  0  0  0  0  0  0  0  0
    3.6858    5.6622   -1.2473 H   0  0  0  0  0  0  0  0  0  0  0  0
    4.5325    4.9105    0.1159 H   0  0  0  0  0  0  0  0  0  0  0  0
    1.6081    4.9377   -0.2414 H   0  0  0  0  0  0  0  0  0  0  0  0
    1.0910    3.2735   -0.2621 H   0  0  0  0  0  0  0  0  0  0  0  0
    2.1923    3.8615    1.0248 H   0  0  0  0  0  0  0  0  0  0  0  0
    6.3148   -1.4798   -2.5781 H   0  0  0  0  0  0  0  0  0  0  0  0
   -7.1495   -2.7701   -1.4692 H   0  0  0  0  0  0  0  0  0  0  0  0
   -8.1939    1.3225   -0.8332 H   0  0  0  0  0  0  0  0  0  0  0  0
   -8.9011   -0.9703   -1.5837 H   0  0  0  0  0  0  0  0  0  0  0  0
  1 15  2  0  0  0  0
  2  8  1  0  0  0  0
  2  9  1  0  0  0  0
  2 36  1  0  0  0  0
  3 15  1  0  0  0  0
  3 18  1  0  0  0  0
  3 19  1  0  0  0  0
  4 21  1  0  0  0  0
  4 22  1  0  0  0  0
  4 28  1  0  0  0  0
  5 17  1  0  0  0  0
  5 20  1  0  0  0  0
  5 50  1  0  0  0  0
  6 28  2  0  0  0  0
  6 29  1  0  0  0  0
  7 28  1  0  0  0  0
  7 30  2  0  0  0  0
  8 11  1  0  0  0  0
  8 12  1  0  0  0  0
  8 32  1  0  0  0  0
  9 10  1  0  0  0  0
  9 15  1  0  0  0  0
  9 33  1  0  0  0  0
 10 14  1  0  0  0  0
 10 34  1  0  0  0  0
 10 35  1  0  0  0  0
 11 13  2  0  0  0  0
 11 23  1  0  0  0  0
 12 16  1  0  0  0  0
 12 37  1  0  0  0  0
 12 38  1  0  0  0  0
 13 14  1  0  0  0  0
 13 17  1  0  0  0  0
 14 20  2  0  0  0  0
 16 25  1  0  0  0  0
 16 26  1  0  0  0  0
 16 39  1  0  0  0  0
 17 24  2  0  0  0  0
 18 21  1  0  0  0  0
 18 40  1  0  0  0  0
 18 41  1  0  0  0  0
 19 22  1  0  0  0  0
 19 42  1  0  0  0  0
 19 43  1  0  0  0  0
 20 48  1  0  0  0  0
 21 44  1  0  0  0  0
 21 45  1  0  0  0  0
 22 46  1  0  0  0  0
 22 47  1  0  0  0  0
 23 27  2  0  0  0  0
 23 49  1  0  0  0  0
 24 27  1  0  0  0  0
 24 51  1  0  0  0  0
 25 52  1  0  0  0  0
 25 53  1  0  0  0  0
 25 54  1  0  0  0  0
 26 55  1  0  0  0  0
 26 56  1  0  0  0  0
 26 57  1  0  0  0  0
 27 58  1  0  0  0  0
 29 31  2  0  0  0  0
 29 59  1  0  0  0  0
 30 31  1  0  0  0  0
 30 60  1  0  0  0  0
 31 61  1  0  0  0  0
M  END
> <PUBCHEM_COMPOUND_CID>
51137976

> <PUBCHEM_CONFORMER_RMSD>
1

> <PUBCHEM_CONFORMER_DIVERSEORDER>
1
20
9
12
13
16
4
21
18
2
5
14
17
3
11
8
7
22
10
6
19
15

> <PUBCHEM_MMFF94_PARTIAL_CHARGES>
35
1 -0.57
10 0.18
11 -0.14
14 -0.18
15 0.57
17 -0.15
18 0.3
19 0.3
2 -0.9
20 -0.3
21 0.37
22 0.37
23 -0.15
24 -0.15
27 -0.15
28 0.72
29 0.16
3 -0.66
30 0.16
31 -0.15
36 0.36
4 -0.84
48 0.15
49 0.15
5 0.03
50 0.27
51 0.15
58 0.15
59 0.15
6 -0.62
60 0.15
61 0.15
7 -0.62
8 0.41
9 0.33

> <PUBCHEM_EFFECTIVE_ROTOR_COUNT>
7

> <PUBCHEM_PHARMACOPHORE_FEATURES>
13
1 1 acceptor
1 2 cation
1 2 donor
1 5 cation
1 5 donor
1 7 acceptor
3 16 25 26 hydrophobe
4 4 6 7 28 cation
5 5 13 14 17 20 rings
6 11 13 17 23 24 27 rings
6 3 4 18 19 21 22 rings
6 6 7 28 29 30 31 rings
7 2 8 9 10 11 13 14 rings

> <PUBCHEM_HEAVY_ATOM_COUNT>
31

> <PUBCHEM_ATOM_DEF_STEREO_COUNT>
2

> <PUBCHEM_ATOM_UDEF_STEREO_COUNT>
0

> <PUBCHEM_BOND_DEF_STEREO_COUNT>
0

> <PUBCHEM_BOND_UDEF_STEREO_COUNT>
0

> <PUBCHEM_ISOTOPIC_ATOM_COUNT>
0

> <PUBCHEM_COMPONENT_COUNT>
1

> <PUBCHEM_CACTVS_TAUTO_COUNT>
1

> <PUBCHEM_CONFORMER_ID>
030C4DB800000001

> <PUBCHEM_MMFF94_ENERGY>
89.5192

> <PUBCHEM_FEATURE_SELFOVERLAP>
66.102

> <PUBCHEM_SHAPE_FINGERPRINT>
10622 236 18271525273858363891
10675989 125 18338241582343801008
10693767 8 18269280075974480478
10721379 63 18261104184391936024
11408170 132 18188196612848983117
11607047 74 17632005472945766136
12166972 35 18342738481736858101
12661589 4 17273968211505797887
13150687 139 17986405588655236124
13533116 47 18341331180047389317
13540713 5 18059029310431839121
13782708 43 16988266695556119223
14068700 675 18199749146497167872
14347332 77 18341608162720195913
14931854 50 18336561442845667814
15001296 14 18336820996187895815
15082195 135 18410857702185623088
15183329 4 18341613681874490655
15324884 4 17388848514933219136
15684393 108 18196920288443665271
15950262 2 14347802741055652254
16988056 13 18113907078298867044
16993427 108 17171493521733811706
17134984 74 18407759256912682347
18681886 176 18272369750718811850
19026451 147 18342176648733396554
20554085 129 17914606401298467352
20775438 99 18265606757327365882
21599406 157 18117256234093766879
221357 26 18188210909724070036
23522609 53 17915485920480117497
23559900 14 18343575266257683523
24771293 8 18341619184065389280
3004659 81 18343580724839635779
397830 11 11599713018171682725
4366758 6 18124592244330915512
44317340 157 18261399966263229977
46194498 28 18334005107964058701
513532 50 17603861226005455628
5951187 136 15647340787883082740
59682541 52 18040996211481379063
6004065 56 18410577306179470984

> <PUBCHEM_SHAPE_MULTIPOLES>
602.21
17.93
4.51
1.6
39.64
3.67
-0.23
-6.45
11.28
-9.73
0.41
-0.55
-0.19
-1.68

> <PUBCHEM_SHAPE_SELFOVERLAP>
1305.067

> <PUBCHEM_SHAPE_VOLUME>
327

> <PUBCHEM_COORDINATE_TYPE>
2
5
10

$$$$
