7134361
  -OEChem-12032416123D

 66 69  0     1  0  0  0  0  0999 V2000
   -4.3583    2.5779    1.7583 S   0  0  0  0  0  0  0  0  0  0  0  0
    2.2146   -1.1662   -0.8907 O   0  0  0  0  0  0  0  0  0  0  0  0
    4.1665    0.4636    1.8179 O   0  0  0  0  0  0  0  0  0  0  0  0
   -2.7320    1.4622   -1.5910 O   0  0  0  0  0  0  0  0  0  0  0  0
    2.5012   -4.3758    1.4493 O   0  0  0  0  0  0  0  0  0  0  0  0
    2.3444    1.0215    0.4920 N   0  0  0  0  0  0  0  0  0  0  0  0
   -1.8778    1.6264    0.5353 N   0  0  0  0  0  0  0  0  0  0  0  0
    0.8859   -2.3006    0.6478 N   0  0  0  0  0  0  0  0  0  0  0  0
    5.2738    1.7975   -0.9255 N   0  0  0  0  0  0  0  0  0  0  0  0
    2.4350   -5.2068   -0.6911 N   0  0  0  0  0  0  0  0  0  0  0  0
   -6.3741    2.9033    0.3064 N   0  0  0  0  0  0  0  0  0  0  0  0
   -5.9640    3.0115    1.5601 N   0  0  0  0  0  0  0  0  0  0  0  0
   -0.5629    1.1445    0.1837 C   0  0  2  0  0  0  0  0  0  0  0  0
    1.5144   -0.0312    1.0911 C   0  0  1  0  0  0  0  0  0  0  0  0
    0.0721    0.3963    1.3583 C   0  0  0  0  0  0  0  0  0  0  0  0
    0.3396    2.2980   -0.2469 C   0  0  0  0  0  0  0  0  0  0  0  0
    1.7384    1.8048   -0.5989 C   0  0  0  0  0  0  0  0  0  0  0  0
    1.5949   -1.2124    0.1687 C   0  0  0  0  0  0  0  0  0  0  0  0
    3.6936    1.1362    0.8997 C   0  0  0  0  0  0  0  0  0  0  0  0
    4.5347    2.0928    0.1882 C   0  0  0  0  0  0  0  0  0  0  0  0
    0.7863   -3.5545   -0.0639 C   0  0  2  0  0  0  0  0  0  0  0  0
   -2.8988    1.7547   -0.4054 C   0  0  0  0  0  0  0  0  0  0  0  0
   -0.5101   -4.3047    0.2624 C   0  0  0  0  0  0  0  0  0  0  0  0
    4.7355    3.4192    0.4930 C   0  0  0  0  0  0  0  0  0  0  0  0
   -4.1905    2.2274    0.1123 C   0  0  0  0  0  0  0  0  0  0  0  0
    1.9955   -4.3902    0.3296 C   0  0  0  0  0  0  0  0  0  0  0  0
    5.9453    2.9185   -1.3389 C   0  0  0  0  0  0  0  0  0  0  0  0
   -1.7466   -3.5101   -0.0808 C   0  0  0  0  0  0  0  0  0  0  0  0
    5.6291    3.9426   -0.4739 C   0  0  0  0  0  0  0  0  0  0  0  0
    5.3466    0.5092   -1.5791 C   0  0  0  0  0  0  0  0  0  0  0  0
   -5.3589    2.4544   -0.5231 C   0  0  0  0  0  0  0  0  0  0  0  0
   -2.3021   -2.6717    0.8731 C   0  0  0  0  0  0  0  0  0  0  0  0
   -2.3046   -3.6326   -1.3437 C   0  0  0  0  0  0  0  0  0  0  0  0
   -5.6576    2.2797   -1.9589 C   0  0  0  0  0  0  0  0  0  0  0  0
   -3.4448   -1.9372    0.5560 C   0  0  0  0  0  0  0  0  0  0  0  0
   -3.4472   -2.8980   -1.6607 C   0  0  0  0  0  0  0  0  0  0  0  0
   -4.0172   -2.0503   -0.7108 C   0  0  0  0  0  0  0  0  0  0  0  0
   -0.6706    0.4474   -0.6572 H   0  0  0  0  0  0  0  0  0  0  0  0
    1.9600   -0.3459    2.0430 H   0  0  0  0  0  0  0  0  0  0  0  0
    0.0835    1.0715    2.2265 H   0  0  0  0  0  0  0  0  0  0  0  0
   -0.5666   -0.4397    1.6569 H   0  0  0  0  0  0  0  0  0  0  0  0
    0.4069    3.0378    0.5619 H   0  0  0  0  0  0  0  0  0  0  0  0
   -0.0917    2.8186   -1.1105 H   0  0  0  0  0  0  0  0  0  0  0  0
    2.3562    2.6682   -0.8541 H   0  0  0  0  0  0  0  0  0  0  0  0
    1.7018    1.1732   -1.4927 H   0  0  0  0  0  0  0  0  0  0  0  0
   -2.0483    1.9148    1.4946 H   0  0  0  0  0  0  0  0  0  0  0  0
    0.5276   -2.2740    1.5978 H   0  0  0  0  0  0  0  0  0  0  0  0
    0.8340   -3.3361   -1.1384 H   0  0  0  0  0  0  0  0  0  0  0  0
   -0.5323   -5.2651   -0.2699 H   0  0  0  0  0  0  0  0  0  0  0  0
   -0.5373   -4.5708    1.3285 H   0  0  0  0  0  0  0  0  0  0  0  0
    4.2894    3.9557    1.3191 H   0  0  0  0  0  0  0  0  0  0  0  0
    6.5887    2.9005   -2.2083 H   0  0  0  0  0  0  0  0  0  0  0  0
    6.0012    4.9557   -0.5344 H   0  0  0  0  0  0  0  0  0  0  0  0
    5.5336   -0.2591   -0.8247 H   0  0  0  0  0  0  0  0  0  0  0  0
    6.1635    0.5143   -2.3053 H   0  0  0  0  0  0  0  0  0  0  0  0
    4.3960    0.3308   -2.0874 H   0  0  0  0  0  0  0  0  0  0  0  0
   -1.8715   -2.5826    1.8661 H   0  0  0  0  0  0  0  0  0  0  0  0
   -1.8661   -4.2881   -2.0906 H   0  0  0  0  0  0  0  0  0  0  0  0
    3.2269   -5.8270   -0.5572 H   0  0  0  0  0  0  0  0  0  0  0  0
    1.9929   -5.2243   -1.6046 H   0  0  0  0  0  0  0  0  0  0  0  0
   -6.6947    2.5507   -2.1816 H   0  0  0  0  0  0  0  0  0  0  0  0
   -5.5127    1.2374   -2.2605 H   0  0  0  0  0  0  0  0  0  0  0  0
   -5.0082    2.9143   -2.5701 H   0  0  0  0  0  0  0  0  0  0  0  0
   -3.8886   -1.2771    1.2955 H   0  0  0  0  0  0  0  0  0  0  0  0
   -3.8923   -2.9846   -2.6476 H   0  0  0  0  0  0  0  0  0  0  0  0
   -4.9056   -1.4763   -0.9580 H   0  0  0  0  0  0  0  0  0  0  0  0
  1 12  1  0  0  0  0
  1 25  1  0  0  0  0
  2 18  2  0  0  0  0
  3 19  2  0  0  0  0
  4 22  2  0  0  0  0
  5 26  2  0  0  0  0
  6 14  1  0  0  0  0
  6 17  1  0  0  0  0
  6 19  1  0  0  0  0
  7 13  1  0  0  0  0
  7 22  1  0  0  0  0
  7 46  1  0  0  0  0
  8 18  1  0  0  0  0
  8 21  1  0  0  0  0
  8 47  1  0  0  0  0
  9 20  1  0  0  0  0
  9 27  1  0  0  0  0
  9 30  1  0  0  0  0
 10 26  1  0  0  0  0
 10 59  1  0  0  0  0
 10 60  1  0  0  0  0
 11 12  2  0  0  0  0
 11 31  1  0  0  0  0
 13 15  1  0  0  0  0
 13 16  1  0  0  0  0
 13 38  1  0  0  0  0
 14 15  1  0  0  0  0
 14 18  1  0  0  0  0
 14 39  1  0  0  0  0
 15 40  1  0  0  0  0
 15 41  1  0  0  0  0
 16 17  1  0  0  0  0
 16 42  1  0  0  0  0
 16 43  1  0  0  0  0
 17 44  1  0  0  0  0
 17 45  1  0  0  0  0
 19 20  1  0  0  0  0
 20 24  2  0  0  0  0
 21 23  1  0  0  0  0
 21 26  1  0  0  0  0
 21 48  1  0  0  0  0
 22 25  1  0  0  0  0
 23 28  1  0  0  0  0
 23 49  1  0  0  0  0
 23 50  1  0  0  0  0
 24 29  1  0  0  0  0
 24 51  1  0  0  0  0
 25 31  2  0  0  0  0
 27 29  2  0  0  0  0
 27 52  1  0  0  0  0
 28 32  2  0  0  0  0
 28 33  1  0  0  0  0
 29 53  1  0  0  0  0
 30 54  1  0  0  0  0
 30 55  1  0  0  0  0
 30 56  1  0  0  0  0
 31 34  1  0  0  0  0
 32 35  1  0  0  0  0
 32 57  1  0  0  0  0
 33 36  2  0  0  0  0
 33 58  1  0  0  0  0
 34 61  1  0  0  0  0
 34 62  1  0  0  0  0
 34 63  1  0  0  0  0
 35 37  2  0  0  0  0
 35 64  1  0  0  0  0
 36 37  1  0  0  0  0
 36 65  1  0  0  0  0
 37 66  1  0  0  0  0
M  END
> <PUBCHEM_COMPOUND_CID>
7134361

> <PUBCHEM_CONFORMER_RMSD>
1.2

> <PUBCHEM_CONFORMER_DIVERSEORDER>
1
49
107
97
119
123
66
129
87
131
142
41
139
115
15
54
114
79
120
69
74
2
116
108
133
65
31
124
144
105
26
93
39
89
141
134
40
88
91
127
73
143
43
50
34
101
57
75
136
99
132
140
59
3
71
135
117
110
125
103
111
9
23
130
29
96
90
11
16
10
100
70
95
83
109
72
51
81
67
106
112
63
128
42
137
82
33
53
21
80
12
8
52
5
98
22
86
38
126
6
85
138
102
118
37
60
77
92
28
121
104
122
78
17
24
56
35
7
19
44
4
45
94
61
113
20
30
36
18
14
62
55
25
58
46
76
68
13
84
47
32
27
64
48

> <PUBCHEM_MMFF94_PARTIAL_CHARGES>
47
1 0.18
10 -0.8
11 -0.23
12 -0.22
13 0.3
14 0.36
17 0.3
18 0.57
19 0.71
2 -0.57
20 -0.24
21 0.36
22 0.71
23 0.14
24 -0.15
25 -0.05
26 0.57
27 -0.3
28 -0.14
29 -0.15
3 -0.57
30 0.26
31 0.05
32 -0.15
33 -0.15
34 0.18
35 -0.15
36 -0.15
37 -0.15
4 -0.57
46 0.37
47 0.37
5 -0.57
51 0.15
52 0.15
53 0.15
57 0.15
58 0.15
59 0.37
6 -0.66
60 0.37
64 0.15
65 0.15
66 0.15
7 -0.73
8 -0.73
9 0.05

> <PUBCHEM_EFFECTIVE_ROTOR_COUNT>
12.2

> <PUBCHEM_PHARMACOPHORE_FEATURES>
12
1 10 donor
1 2 acceptor
1 3 acceptor
1 4 acceptor
1 5 acceptor
1 7 donor
1 8 donor
1 9 cation
5 1 11 12 25 31 rings
5 9 20 24 27 29 rings
6 28 32 33 35 36 37 rings
6 6 13 14 15 16 17 rings

> <PUBCHEM_HEAVY_ATOM_COUNT>
37

> <PUBCHEM_ATOM_DEF_STEREO_COUNT>
3

> <PUBCHEM_ATOM_UDEF_STEREO_COUNT>
0

> <PUBCHEM_BOND_DEF_STEREO_COUNT>
0

> <PUBCHEM_BOND_UDEF_STEREO_COUNT>
0

> <PUBCHEM_ISOTOPIC_ATOM_COUNT>
0

> <PUBCHEM_COMPONENT_COUNT>
1

> <PUBCHEM_CACTVS_TAUTO_COUNT>
8

> <PUBCHEM_CONFORMER_ID>
006CDC9900000001

> <PUBCHEM_MMFF94_ENERGY>
78.9772

> <PUBCHEM_FEATURE_SELFOVERLAP>
60.898

> <PUBCHEM_SHAPE_FINGERPRINT>
10190206 1 18264767851630305884
11445158 3 17978502036342662407
11513181 2 18271246144382859582
12440605 4 18410581712014687963
12788726 201 17976813513379895546
14004853 49 18118433801681563493
14251757 5 17831580143432575398
14394314 77 17331121594304971466
14790565 3 18337111292984753576
15297060 5 18412830209325387776
15328829 1 17172609775360183480
15927050 60 18413673504789507303
16112460 7 18055067653856242291
17980427 23 17386010640698330516
19958102 18 18194405713644891678
20764821 26 18338782421583594503
21796203 349 17546479706869336195
283562 15 18195522825426472403
5265222 85 18266462194833122017
53794403 172 18266457612081749327
563151 40 18339655515224683221
563151 97 18336546122116404713
9982175 49 17768260007322676137

> <PUBCHEM_SHAPE_MULTIPOLES>
706.95
13.56
7.53
1.56
3.45
8.26
0.11
-18.9
2.96
-1.65
0.04
-0.61
-0.37
-1.94

> <PUBCHEM_SHAPE_SELFOVERLAP>
1498.579

> <PUBCHEM_SHAPE_VOLUME>
396.8

> <PUBCHEM_COORDINATE_TYPE>
2
5
10

$$$$
