71693339
  -OEChem-12032416233D

 57 59  0     1  0  0  0  0  0999 V2000
    2.8964    1.3871    1.3863 O   0  0  0  0  0  0  0  0  0  0  0  0
    3.2838    0.6103   -2.6653 O   0  0  0  0  0  0  0  0  0  0  0  0
    6.4404    1.3013    1.0315 O   0  0  0  0  0  0  0  0  0  0  0  0
   -4.0496    1.4011   -1.0660 O   0  0  0  0  0  0  0  0  0  0  0  0
    4.8192    0.1670   -0.2007 N   0  0  0  0  0  0  0  0  0  0  0  0
   -3.0645   -0.2271    0.3150 N   0  0  0  0  0  0  0  0  0  0  0  0
   -6.6450    0.5382   -0.0746 N   0  0  0  0  0  0  0  0  0  0  0  0
   -7.7255   -0.2240    0.1664 N   0  0  0  0  0  0  0  0  0  0  0  0
    3.3824   -0.1432   -0.4001 C   0  0  1  0  0  0  0  0  0  0  0  0
    2.4904    1.0237    0.0661 C   0  0  1  0  0  0  0  0  0  0  0  0
    5.8048   -0.7030   -0.8365 C   0  0  0  0  0  0  0  0  0  0  0  0
    5.9960   -2.0204   -0.0768 C   0  0  0  0  0  0  0  0  0  0  0  0
    3.0590   -0.5232   -1.8523 C   0  0  0  0  0  0  0  0  0  0  0  0
    5.2594    1.1002    0.7400 C   0  0  0  0  0  0  0  0  0  0  0  0
    1.0145    0.6908    0.1320 C   0  0  0  0  0  0  0  0  0  0  0  0
    4.1828    1.9576    1.3751 C   0  0  0  0  0  0  0  0  0  0  0  0
    6.9881   -2.9435   -0.7880 C   0  0  0  0  0  0  0  0  0  0  0  0
    6.4747   -1.7392    1.3480 C   0  0  0  0  0  0  0  0  0  0  0  0
    0.5754   -0.3848    0.9041 C   0  0  0  0  0  0  0  0  0  0  0  0
    0.0939    1.4603   -0.5795 C   0  0  0  0  0  0  0  0  0  0  0  0
   -0.7842   -0.6905    0.9651 C   0  0  0  0  0  0  0  0  0  0  0  0
   -1.2656    1.1545   -0.5187 C   0  0  0  0  0  0  0  0  0  0  0  0
   -1.7046    0.0791    0.2537 C   0  0  0  0  0  0  0  0  0  0  0  0
   -4.1257    0.4268   -0.3251 C   0  0  0  0  0  0  0  0  0  0  0  0
   -5.4715   -0.1570   -0.0851 C   0  0  0  0  0  0  0  0  0  0  0  0
   -5.8076   -1.4647    0.1670 C   0  0  0  0  0  0  0  0  0  0  0  0
   -7.2076   -1.4464    0.3131 C   0  0  0  0  0  0  0  0  0  0  0  0
   -6.8152    1.9563   -0.2906 C   0  0  0  0  0  0  0  0  0  0  0  0
   -8.0946   -2.5874    0.5959 C   0  0  0  0  0  0  0  0  0  0  0  0
    3.2063   -1.0198    0.2350 H   0  0  0  0  0  0  0  0  0  0  0  0
    2.6312    1.8995   -0.5824 H   0  0  0  0  0  0  0  0  0  0  0  0
    6.7658   -0.1722   -0.8610 H   0  0  0  0  0  0  0  0  0  0  0  0
    5.5599   -0.8702   -1.8871 H   0  0  0  0  0  0  0  0  0  0  0  0
    5.0366   -2.5487   -0.0169 H   0  0  0  0  0  0  0  0  0  0  0  0
    2.0061   -0.8084   -1.9506 H   0  0  0  0  0  0  0  0  0  0  0  0
    3.6401   -1.3715   -2.2220 H   0  0  0  0  0  0  0  0  0  0  0  0
    4.4686    2.1413    2.4161 H   0  0  0  0  0  0  0  0  0  0  0  0
    4.1580    2.9250    0.8602 H   0  0  0  0  0  0  0  0  0  0  0  0
    7.9782   -2.4809   -0.8610 H   0  0  0  0  0  0  0  0  0  0  0  0
    7.0942   -3.8915   -0.2502 H   0  0  0  0  0  0  0  0  0  0  0  0
    6.6441   -3.1704   -1.8025 H   0  0  0  0  0  0  0  0  0  0  0  0
    5.7105   -1.2345    1.9459 H   0  0  0  0  0  0  0  0  0  0  0  0
    6.6945   -2.6808    1.8648 H   0  0  0  0  0  0  0  0  0  0  0  0
    7.3931   -1.1433    1.3583 H   0  0  0  0  0  0  0  0  0  0  0  0
    1.2738   -0.9896    1.4755 H   0  0  0  0  0  0  0  0  0  0  0  0
    0.4221    2.3005   -1.1856 H   0  0  0  0  0  0  0  0  0  0  0  0
    3.0544    0.3609   -3.5766 H   0  0  0  0  0  0  0  0  0  0  0  0
   -1.1125   -1.5298    1.5730 H   0  0  0  0  0  0  0  0  0  0  0  0
   -1.9147    1.7965   -1.0971 H   0  0  0  0  0  0  0  0  0  0  0  0
   -3.2980   -1.0225    0.9050 H   0  0  0  0  0  0  0  0  0  0  0  0
   -5.1423   -2.3139    0.2317 H   0  0  0  0  0  0  0  0  0  0  0  0
   -6.6547    2.1646   -1.3510 H   0  0  0  0  0  0  0  0  0  0  0  0
   -7.8303    2.2467   -0.0056 H   0  0  0  0  0  0  0  0  0  0  0  0
   -6.0980    2.4982    0.3306 H   0  0  0  0  0  0  0  0  0  0  0  0
   -8.6403   -2.4306    1.5321 H   0  0  0  0  0  0  0  0  0  0  0  0
   -8.8241   -2.7195   -0.2099 H   0  0  0  0  0  0  0  0  0  0  0  0
   -7.5277   -3.5192    0.6906 H   0  0  0  0  0  0  0  0  0  0  0  0
  1 10  1  0  0  0  0
  1 16  1  0  0  0  0
  2 13  1  0  0  0  0
  2 47  1  0  0  0  0
  3 14  2  0  0  0  0
  4 24  2  0  0  0  0
  5  9  1  0  0  0  0
  5 11  1  0  0  0  0
  5 14  1  0  0  0  0
  6 23  1  0  0  0  0
  6 24  1  0  0  0  0
  6 50  1  0  0  0  0
  7  8  1  0  0  0  0
  7 25  1  0  0  0  0
  7 28  1  0  0  0  0
  8 27  2  0  0  0  0
  9 10  1  0  0  0  0
  9 13  1  0  0  0  0
  9 30  1  0  0  0  0
 10 15  1  0  0  0  0
 10 31  1  0  0  0  0
 11 12  1  0  0  0  0
 11 32  1  0  0  0  0
 11 33  1  0  0  0  0
 12 17  1  0  0  0  0
 12 18  1  0  0  0  0
 12 34  1  0  0  0  0
 13 35  1  0  0  0  0
 13 36  1  0  0  0  0
 14 16  1  0  0  0  0
 15 19  2  0  0  0  0
 15 20  1  0  0  0  0
 16 37  1  0  0  0  0
 16 38  1  0  0  0  0
 17 39  1  0  0  0  0
 17 40  1  0  0  0  0
 17 41  1  0  0  0  0
 18 42  1  0  0  0  0
 18 43  1  0  0  0  0
 18 44  1  0  0  0  0
 19 21  1  0  0  0  0
 19 45  1  0  0  0  0
 20 22  2  0  0  0  0
 20 46  1  0  0  0  0
 21 23  2  0  0  0  0
 21 48  1  0  0  0  0
 22 23  1  0  0  0  0
 22 49  1  0  0  0  0
 24 25  1  0  0  0  0
 25 26  2  0  0  0  0
 26 27  1  0  0  0  0
 26 51  1  0  0  0  0
 27 29  1  0  0  0  0
 28 52  1  0  0  0  0
 28 53  1  0  0  0  0
 28 54  1  0  0  0  0
 29 55  1  0  0  0  0
 29 56  1  0  0  0  0
 29 57  1  0  0  0  0
M  END
> <PUBCHEM_COMPOUND_CID>
71693339

> <PUBCHEM_CONFORMER_RMSD>
1

> <PUBCHEM_CONFORMER_DIVERSEORDER>
1
27
37
24
5
30
22
17
28
34
6
26
18
7
19
9
8
23
35
32
25
4
2
10
16
14
31
3
36
21
29
13
20
11
33
12
15

> <PUBCHEM_MMFF94_PARTIAL_CHARGES>
33
1 -0.56
10 0.42
11 0.3
13 0.28
14 0.57
15 -0.14
16 0.34
19 -0.15
2 -0.68
20 -0.15
21 -0.15
22 -0.15
23 0.12
24 0.71
25 -0.24
26 -0.15
27 0.11
28 0.26
29 0.18
3 -0.57
4 -0.57
45 0.15
46 0.15
47 0.4
48 0.15
49 0.15
5 -0.66
50 0.37
51 0.15
6 -0.55
7 0.31
8 -0.71
9 0.3

> <PUBCHEM_EFFECTIVE_ROTOR_COUNT>
8

> <PUBCHEM_PHARMACOPHORE_FEATURES>
11
1 1 acceptor
1 2 acceptor
1 2 donor
1 3 acceptor
1 4 acceptor
1 6 donor
1 8 acceptor
3 12 17 18 hydrophobe
5 7 8 25 26 27 rings
6 1 5 9 10 14 16 rings
6 15 19 20 21 22 23 rings

> <PUBCHEM_HEAVY_ATOM_COUNT>
29

> <PUBCHEM_ATOM_DEF_STEREO_COUNT>
2

> <PUBCHEM_ATOM_UDEF_STEREO_COUNT>
0

> <PUBCHEM_BOND_DEF_STEREO_COUNT>
0

> <PUBCHEM_BOND_UDEF_STEREO_COUNT>
0

> <PUBCHEM_ISOTOPIC_ATOM_COUNT>
0

> <PUBCHEM_COMPONENT_COUNT>
1

> <PUBCHEM_CACTVS_TAUTO_COUNT>
4

> <PUBCHEM_CONFORMER_ID>
0445F41B00000001

> <PUBCHEM_MMFF94_ENERGY>
73.2665

> <PUBCHEM_FEATURE_SELFOVERLAP>
55.823

> <PUBCHEM_SHAPE_FINGERPRINT>
11524674 6 17489305309243439287
117089 54 17555747508668284862
11719270 70 17346880031404442038
11991303 11 14634881876534344291
12166972 35 17894915122258536132
12616971 3 17060049363234661541
13533116 47 14189308027751766964
13617811 41 16732701632559107894
13668630 136 18411420579193561582
13685833 64 18341896289867895131
13782708 43 18412822473571887390
14251757 52 10087638191445163734
14251764 18 14045741530743941597
14294032 229 16952527979953789829
14344974 204 18123755516135463739
14856354 85 17240488031406591915
14933364 13 18341893009151496521
15183329 4 18339083696200810202
15352257 5 18333450928502926971
15419008 91 18263906830931406357
15475509 35 18262504898519958090
15510794 2 18343018909522426215
1577012 14 15213296387906688309
18335252 98 18410855499363285312
19377110 9 15626233407034744227
19841028 212 18118964694817480010
2026 5 18340770351824500639
21130935 74 18412545401052907883
21267235 1 18113904901403710891
21315759 40 18041001730714483001
21623969 137 17632583764311053911
21781051 124 17241060876226237699
220451 1 14405189473939333661
22224240 67 12175619564484502477
23522609 53 17532114747157919829
23559900 14 18271517697757879609
23569943 247 18118966888638199538
23576562 1 15575292024641299935
3044373 193 18340769342495934824
4073 2 18265893743036871618
4340502 62 16917351454458028452
465052 167 18131632262642597646
504579 68 15791730823996458379
5104073 3 15050905074409334166
59755656 215 17894630331556465058
6441014 3 17118897146016596862
9831232 110 18336828589711154774

> <PUBCHEM_SHAPE_MULTIPOLES>
553.41
24.47
2.33
1.35
25.81
1.08
-0.46
12.63
1.88
-0.93
0.22
-2.18
-0.15
2.14

> <PUBCHEM_SHAPE_SELFOVERLAP>
1166.092

> <PUBCHEM_SHAPE_VOLUME>
308.9

> <PUBCHEM_COORDINATE_TYPE>
2
5
10

$$$$
