25389028
  -OEChem-12032416163D

 62 66  0     1  0  0  0  0  0999 V2000
   -5.1782   -5.6933    0.1183 F   0  0  0  0  0  0  0  0  0  0  0  0
    4.2449    1.9263    1.4195 O   0  0  0  0  0  0  0  0  0  0  0  0
    6.8294   -3.4241   -0.7584 O   0  0  0  0  0  0  0  0  0  0  0  0
    0.1431    3.7732    0.5901 N   0  0  2  0  0  0  0  0  0  0  0  0
   -4.1626    1.8053    0.1043 N   0  0  0  0  0  0  0  0  0  0  0  0
    2.3084    0.7253    0.9807 N   0  0  0  0  0  0  0  0  0  0  0  0
   -4.8303    0.6486    0.2538 N   0  0  0  0  0  0  0  0  0  0  0  0
   -0.7912    2.6518   -1.5669 C   0  0  2  0  0  0  0  0  0  0  0  0
   -1.9164    2.8155   -0.5080 C   0  0  2  0  0  0  0  0  0  0  0  0
    1.0128    2.6353    0.1912 C   0  0  2  0  0  0  0  0  0  0  0  0
    0.3666    1.8327   -0.9584 C   0  0  0  0  0  0  0  0  0  0  0  0
   -0.2433    4.0658   -1.8564 C   0  0  0  0  0  0  0  0  0  0  0  0
   -1.2460    3.2987    0.8098 C   0  0  0  0  0  0  0  0  0  0  0  0
    0.1281    4.7471   -0.5277 C   0  0  0  0  0  0  0  0  0  0  0  0
   -2.8632    1.6460   -0.2789 C   0  0  0  0  0  0  0  0  0  0  0  0
    1.3802    1.7393    1.3760 C   0  0  0  0  0  0  0  0  0  0  0  0
   -2.6673    0.2909   -0.3874 C   0  0  0  0  0  0  0  0  0  0  0  0
   -3.9117   -0.2729   -0.0481 C   0  0  0  0  0  0  0  0  0  0  0  0
   -4.8474    3.0527    0.3534 C   0  0  0  0  0  0  0  0  0  0  0  0
    3.6901    0.9005    1.0340 C   0  0  0  0  0  0  0  0  0  0  0  0
   -4.2392   -1.6742   -0.0051 C   0  0  0  0  0  0  0  0  0  0  0  0
    4.5181   -0.2394    0.5631 C   0  0  0  0  0  0  0  0  0  0  0  0
   -3.2536   -2.6116    0.3042 C   0  0  0  0  0  0  0  0  0  0  0  0
   -5.5420   -2.0946   -0.2726 C   0  0  0  0  0  0  0  0  0  0  0  0
    5.7932   -0.0087    0.0468 C   0  0  0  0  0  0  0  0  0  0  0  0
    4.0198   -1.5402    0.6354 C   0  0  0  0  0  0  0  0  0  0  0  0
   -3.5707   -3.9692    0.3459 C   0  0  0  0  0  0  0  0  0  0  0  0
   -5.8593   -3.4522   -0.2309 C   0  0  0  0  0  0  0  0  0  0  0  0
   -4.8737   -4.3895    0.0783 C   0  0  0  0  0  0  0  0  0  0  0  0
    6.5699   -1.0787   -0.3975 C   0  0  0  0  0  0  0  0  0  0  0  0
    4.7964   -2.6103    0.1910 C   0  0  0  0  0  0  0  0  0  0  0  0
    6.0714   -2.3795   -0.3253 C   0  0  0  0  0  0  0  0  0  0  0  0
    8.1237   -3.1167   -1.2742 C   0  0  0  0  0  0  0  0  0  0  0  0
   -1.1639    2.1809   -2.4826 H   0  0  0  0  0  0  0  0  0  0  0  0
   -2.5442    3.6402   -0.8774 H   0  0  0  0  0  0  0  0  0  0  0  0
    1.9592    3.0558   -0.1806 H   0  0  0  0  0  0  0  0  0  0  0  0
    0.0226    0.8553   -0.6183 H   0  0  0  0  0  0  0  0  0  0  0  0
    1.1214    1.6443   -1.7327 H   0  0  0  0  0  0  0  0  0  0  0  0
   -0.9921    4.6661   -2.3862 H   0  0  0  0  0  0  0  0  0  0  0  0
    0.6373    3.9983   -2.5067 H   0  0  0  0  0  0  0  0  0  0  0  0
   -1.8365    4.1227    1.2317 H   0  0  0  0  0  0  0  0  0  0  0  0
   -1.2651    2.5202    1.5812 H   0  0  0  0  0  0  0  0  0  0  0  0
    1.1092    5.2294   -0.6178 H   0  0  0  0  0  0  0  0  0  0  0  0
   -0.5780    5.5573   -0.3053 H   0  0  0  0  0  0  0  0  0  0  0  0
    0.5063    1.2228    1.7855 H   0  0  0  0  0  0  0  0  0  0  0  0
    1.8227    2.3371    2.1813 H   0  0  0  0  0  0  0  0  0  0  0  0
   -1.7682   -0.2250   -0.6856 H   0  0  0  0  0  0  0  0  0  0  0  0
    1.9156   -0.1260    0.5937 H   0  0  0  0  0  0  0  0  0  0  0  0
   -4.9292    3.5964   -0.5907 H   0  0  0  0  0  0  0  0  0  0  0  0
   -5.8466    2.8465    0.7471 H   0  0  0  0  0  0  0  0  0  0  0  0
   -4.2792    3.6262    1.0887 H   0  0  0  0  0  0  0  0  0  0  0  0
   -2.2320   -2.3148    0.5279 H   0  0  0  0  0  0  0  0  0  0  0  0
   -6.3300   -1.3889   -0.5248 H   0  0  0  0  0  0  0  0  0  0  0  0
    6.1963    0.9984   -0.0218 H   0  0  0  0  0  0  0  0  0  0  0  0
    3.0455   -1.7663    1.0580 H   0  0  0  0  0  0  0  0  0  0  0  0
   -2.8044   -4.6994    0.5889 H   0  0  0  0  0  0  0  0  0  0  0  0
   -6.8731   -3.7804   -0.4409 H   0  0  0  0  0  0  0  0  0  0  0  0
    7.5504   -0.8285   -0.7880 H   0  0  0  0  0  0  0  0  0  0  0  0
    4.4060   -3.6223    0.2557 H   0  0  0  0  0  0  0  0  0  0  0  0
    8.5864   -4.0635   -1.5713 H   0  0  0  0  0  0  0  0  0  0  0  0
    8.7676   -2.6731   -0.5072 H   0  0  0  0  0  0  0  0  0  0  0  0
    8.0612   -2.4954   -2.1740 H   0  0  0  0  0  0  0  0  0  0  0  0
  1 29  1  0  0  0  0
  2 20  2  0  0  0  0
  3 32  1  0  0  0  0
  3 33  1  0  0  0  0
  4 10  1  0  0  0  0
  4 13  1  0  0  0  0
  4 14  1  0  0  0  0
  5  7  1  0  0  0  0
  5 15  1  0  0  0  0
  5 19  1  0  0  0  0
  6 16  1  0  0  0  0
  6 20  1  0  0  0  0
  6 48  1  0  0  0  0
  7 18  2  0  0  0  0
  8  9  1  0  0  0  0
  8 11  1  0  0  0  0
  8 12  1  0  0  0  0
  8 34  1  0  0  0  0
  9 13  1  0  0  0  0
  9 15  1  0  0  0  0
  9 35  1  0  0  0  0
 10 11  1  0  0  0  0
 10 16  1  0  0  0  0
 10 36  1  0  0  0  0
 11 37  1  0  0  0  0
 11 38  1  0  0  0  0
 12 14  1  0  0  0  0
 12 39  1  0  0  0  0
 12 40  1  0  0  0  0
 13 41  1  0  0  0  0
 13 42  1  0  0  0  0
 14 43  1  0  0  0  0
 14 44  1  0  0  0  0
 15 17  2  0  0  0  0
 16 45  1  0  0  0  0
 16 46  1  0  0  0  0
 17 18  1  0  0  0  0
 17 47  1  0  0  0  0
 18 21  1  0  0  0  0
 19 49  1  0  0  0  0
 19 50  1  0  0  0  0
 19 51  1  0  0  0  0
 20 22  1  0  0  0  0
 21 23  2  0  0  0  0
 21 24  1  0  0  0  0
 22 25  2  0  0  0  0
 22 26  1  0  0  0  0
 23 27  1  0  0  0  0
 23 52  1  0  0  0  0
 24 28  2  0  0  0  0
 24 53  1  0  0  0  0
 25 30  1  0  0  0  0
 25 54  1  0  0  0  0
 26 31  2  0  0  0  0
 26 55  1  0  0  0  0
 27 29  2  0  0  0  0
 27 56  1  0  0  0  0
 28 29  1  0  0  0  0
 28 57  1  0  0  0  0
 30 32  2  0  0  0  0
 30 58  1  0  0  0  0
 31 32  1  0  0  0  0
 31 59  1  0  0  0  0
 33 60  1  0  0  0  0
 33 61  1  0  0  0  0
 33 62  1  0  0  0  0
M  END
> <PUBCHEM_COMPOUND_CID>
25389028

> <PUBCHEM_CONFORMER_RMSD>
1

> <PUBCHEM_CONFORMER_DIVERSEORDER>
1
16
17
6
24
19
22
10
20
2
14
21
13
11
12
23
4
9
18
8
7
5
15
3

> <PUBCHEM_MMFF94_PARTIAL_CHARGES>
40
1 -0.19
10 0.27
13 0.27
14 0.27
15 -0.33
16 0.3
17 -0.15
18 0.23
19 0.26
2 -0.57
20 0.54
21 0.05
22 0.09
23 -0.15
24 -0.15
25 -0.15
26 -0.15
27 -0.15
28 -0.15
29 0.19
3 -0.36
30 -0.15
31 -0.15
32 0.08
33 0.28
4 -0.81
47 0.15
48 0.37
5 0.31
52 0.15
53 0.15
54 0.15
55 0.15
56 0.15
57 0.15
58 0.15
59 0.15
6 -0.73
7 -0.71
9 0.18

> <PUBCHEM_EFFECTIVE_ROTOR_COUNT>
8.2

> <PUBCHEM_PHARMACOPHORE_FEATURES>
9
1 2 acceptor
1 3 acceptor
1 4 cation
1 6 donor
1 7 acceptor
5 5 7 15 17 18 rings
6 21 23 24 27 28 29 rings
6 22 25 26 30 31 32 rings
8 4 8 9 10 11 12 13 14 rings

> <PUBCHEM_HEAVY_ATOM_COUNT>
33

> <PUBCHEM_ATOM_DEF_STEREO_COUNT>
3

> <PUBCHEM_ATOM_UDEF_STEREO_COUNT>
0

> <PUBCHEM_BOND_DEF_STEREO_COUNT>
0

> <PUBCHEM_BOND_UDEF_STEREO_COUNT>
0

> <PUBCHEM_ISOTOPIC_ATOM_COUNT>
0

> <PUBCHEM_COMPONENT_COUNT>
1

> <PUBCHEM_CACTVS_TAUTO_COUNT>
2

> <PUBCHEM_CONFORMER_ID>
018367E400000001

> <PUBCHEM_MMFF94_ENERGY>
93.26

> <PUBCHEM_FEATURE_SELFOVERLAP>
45.672

> <PUBCHEM_SHAPE_FINGERPRINT>
10042902 136 18408040727657397868
10290309 65 17687743840188575959
10940486 97 18260271819978644781
11069576 57 17687176913343228941
11135609 201 9223231871325383757
11285246 1 17968656150508507691
11315621 246 18263647264893160460
11387372 6 18342175519062117541
11455722 242 18335131000410055970
117089 54 18411704326324269846
11756154 5 18199458888676580266
11756154 67 18410014312638190311
12107183 9 18339651131223792945
12120059 20 18115592698327536080
12342043 65 18130783448245307344
12677640 9 18342457024747508769
13165053 68 18410865387237993846
1361 4 18411983525727598590
1361 87 18339632335739822382
13690498 29 18044379327519956412
13692115 46 17823975633347241861
13989917 61 17615969245799466963
14040221 126 17688059782409862350
14040221 299 18054504699866712782
14251764 30 18411980282320070440
14400156 147 18196952156436063396
14420673 8 18342177722232640425
14444916 359 17834966265331224281
14856354 85 18127978507936189156
14866123 147 18411983560181841009
15064986 96 17489875925000905004
15264996 154 17831025989213968046
15320295 44 18261969492007150948
15320467 1 17906167356611390347
15361156 5 18114759143991161176
15803439 3 17101966951638482445
17492 89 18194117645692947057
17909252 39 18049725418946322913
18608769 82 18410290282120617394
19301676 85 18337942391001333023
20775530 9 18335971060750854371
21196832 93 18341055121636524622
21307412 95 18338223883015020605
229767 8 18412549842287001058
23379529 103 18410291398195358136
23559900 14 18266729376659253451
23569917 315 18412265069882877815
32027 91 18339071713996512613
3886686 26 18341897364301407033
4017518 198 18194399988516977917
437795 70 18334015012180119410
4435113 14 18059020471478717070
484985 159 18268147548511002993
484989 97 18272092657294636158
54583773 228 18410863136891564046
56633871 153 18410580604476731081
613672 6 18121749933093180981
6201320 221 17407942745926901879
7970288 3 18409727395658184759
8863177 126 18342172233717909056
9980921 52 17414412181917859455

> <PUBCHEM_SHAPE_MULTIPOLES>
640.19
18.1
7.79
1.15
24.81
3
0.16
27.42
2.18
-8.4
1.22
0.94
-0.84
1.97

> <PUBCHEM_SHAPE_SELFOVERLAP>
1395.371

> <PUBCHEM_SHAPE_VOLUME>
350.5

> <PUBCHEM_COORDINATE_TYPE>
2
5
10

$$$$
