75536095
  -OEChem-12032416293D

 47 49  0     1  0  0  0  0  0999 V2000
   -1.8234    2.6527   -0.0690 S   0  0  0  0  0  0  0  0  0  0  0  0
   -3.1708   -1.3349    1.9268 O   0  0  0  0  0  0  0  0  0  0  0  0
   -4.6923   -2.7514    0.1134 O   0  0  0  0  0  0  0  0  0  0  0  0
   -2.1169    2.8563    1.3368 O   0  0  0  0  0  0  0  0  0  0  0  0
   -2.1574    3.6773   -1.0397 O   0  0  0  0  0  0  0  0  0  0  0  0
    3.9070   -2.2612    0.0977 O   0  0  0  0  0  0  0  0  0  0  0  0
   -2.4921    1.1768   -0.5783 N   0  0  0  0  0  0  0  0  0  0  0  0
    3.3147    0.5861    2.7269 N   0  0  0  0  0  0  0  0  0  0  0  0
   -2.1652   -0.0760    0.1522 C   0  0  2  0  0  0  0  0  0  0  0  0
   -1.5573   -1.1045   -0.8410 C   0  0  2  0  0  0  0  0  0  0  0  0
   -3.4591   -0.7128    0.6757 C   0  0  1  0  0  0  0  0  0  0  0  0
   -2.4615   -2.3455   -0.7489 C   0  0  0  0  0  0  0  0  0  0  0  0
   -3.8144   -1.7591   -0.3770 C   0  0  1  0  0  0  0  0  0  0  0  0
   -0.0980   -1.4138   -0.5904 C   0  0  0  0  0  0  0  0  0  0  0  0
    0.8452   -1.1865   -1.5926 C   0  0  0  0  0  0  0  0  0  0  0  0
    0.3046   -1.9264    0.6429 C   0  0  0  0  0  0  0  0  0  0  0  0
   -0.0905    2.3401   -0.2240 C   0  0  0  0  0  0  0  0  0  0  0  0
    2.1910   -1.4711   -1.3614 C   0  0  0  0  0  0  0  0  0  0  0  0
    1.6504   -2.2114    0.8741 C   0  0  0  0  0  0  0  0  0  0  0  0
    2.5936   -1.9837   -0.1281 C   0  0  0  0  0  0  0  0  0  0  0  0
    0.6229    1.8123    0.8522 C   0  0  0  0  0  0  0  0  0  0  0  0
    0.5639    2.6225   -1.4232 C   0  0  0  0  0  0  0  0  0  0  0  0
    1.9905    1.5669    0.7295 C   0  0  0  0  0  0  0  0  0  0  0  0
    1.9315    2.3768   -1.5461 C   0  0  0  0  0  0  0  0  0  0  0  0
    2.6449    1.8492   -0.4697 C   0  0  0  0  0  0  0  0  0  0  0  0
    4.8175   -2.0040   -0.9704 C   0  0  0  0  0  0  0  0  0  0  0  0
    2.7213    1.0255    1.8317 C   0  0  0  0  0  0  0  0  0  0  0  0
   -1.5010    0.1378    0.9919 H   0  0  0  0  0  0  0  0  0  0  0  0
   -1.6525   -0.7145   -1.8646 H   0  0  0  0  0  0  0  0  0  0  0  0
   -4.2787   -0.0051    0.8371 H   0  0  0  0  0  0  0  0  0  0  0  0
   -2.5031   -2.8921   -1.6977 H   0  0  0  0  0  0  0  0  0  0  0  0
   -2.1338   -3.0682    0.0081 H   0  0  0  0  0  0  0  0  0  0  0  0
   -4.2741   -1.2782   -1.2490 H   0  0  0  0  0  0  0  0  0  0  0  0
   -2.9421    1.0922   -1.4974 H   0  0  0  0  0  0  0  0  0  0  0  0
   -2.9484   -0.6299    2.5586 H   0  0  0  0  0  0  0  0  0  0  0  0
   -4.7966   -3.4205   -0.5844 H   0  0  0  0  0  0  0  0  0  0  0  0
    0.5468   -0.7871   -2.5583 H   0  0  0  0  0  0  0  0  0  0  0  0
   -0.4128   -2.1085    1.4381 H   0  0  0  0  0  0  0  0  0  0  0  0
    2.8703   -1.2698   -2.1826 H   0  0  0  0  0  0  0  0  0  0  0  0
    1.9582   -2.6092    1.8371 H   0  0  0  0  0  0  0  0  0  0  0  0
    0.1235    1.5964    1.7937 H   0  0  0  0  0  0  0  0  0  0  0  0
    0.0269    3.0259   -2.2769 H   0  0  0  0  0  0  0  0  0  0  0  0
    2.4404    2.5934   -2.4808 H   0  0  0  0  0  0  0  0  0  0  0  0
    3.7102    1.6618   -0.5814 H   0  0  0  0  0  0  0  0  0  0  0  0
    5.8162   -2.2814   -0.6175 H   0  0  0  0  0  0  0  0  0  0  0  0
    4.8519   -0.9384   -1.2215 H   0  0  0  0  0  0  0  0  0  0  0  0
    4.6014   -2.6295   -1.8431 H   0  0  0  0  0  0  0  0  0  0  0  0
  1  4  2  0  0  0  0
  1  5  2  0  0  0  0
  1  7  1  0  0  0  0
  1 17  1  0  0  0  0
  2 11  1  0  0  0  0
  2 35  1  0  0  0  0
  3 13  1  0  0  0  0
  3 36  1  0  0  0  0
  6 20  1  0  0  0  0
  6 26  1  0  0  0  0
  7  9  1  0  0  0  0
  7 34  1  0  0  0  0
  8 27  3  0  0  0  0
  9 10  1  0  0  0  0
  9 11  1  0  0  0  0
  9 28  1  0  0  0  0
 10 12  1  0  0  0  0
 10 14  1  0  0  0  0
 10 29  1  0  0  0  0
 11 13  1  0  0  0  0
 11 30  1  0  0  0  0
 12 13  1  0  0  0  0
 12 31  1  0  0  0  0
 12 32  1  0  0  0  0
 13 33  1  0  0  0  0
 14 15  2  0  0  0  0
 14 16  1  0  0  0  0
 15 18  1  0  0  0  0
 15 37  1  0  0  0  0
 16 19  2  0  0  0  0
 16 38  1  0  0  0  0
 17 21  1  0  0  0  0
 17 22  2  0  0  0  0
 18 20  2  0  0  0  0
 18 39  1  0  0  0  0
 19 20  1  0  0  0  0
 19 40  1  0  0  0  0
 21 23  2  0  0  0  0
 21 41  1  0  0  0  0
 22 24  1  0  0  0  0
 22 42  1  0  0  0  0
 23 25  1  0  0  0  0
 23 27  1  0  0  0  0
 24 25  2  0  0  0  0
 24 43  1  0  0  0  0
 25 44  1  0  0  0  0
 26 45  1  0  0  0  0
 26 46  1  0  0  0  0
 26 47  1  0  0  0  0
M  END
> <PUBCHEM_COMPOUND_CID>
75536095

> <PUBCHEM_CONFORMER_RMSD>
0.8

> <PUBCHEM_CONFORMER_DIVERSEORDER>
1
18
35
34
43
15
24
44
41
22
30
45
36
31
42
7
32
40
9
19
6
37
26
29
2
16
28
11
21
8
23
39
5
10
38
27
13
33
12
25
4
14
3
20
17

> <PUBCHEM_MMFF94_PARTIAL_CHARGES>
37
1 1.45
10 0.14
11 0.28
13 0.28
14 -0.14
15 -0.15
16 -0.15
17 -0.01
18 -0.15
19 -0.15
2 -0.68
20 0.08
21 -0.15
22 -0.15
23 0.07
24 -0.15
25 -0.15
26 0.28
27 0.48
3 -0.68
34 0.42
35 0.4
36 0.4
37 0.15
38 0.15
39 0.15
4 -0.65
40 0.15
41 0.15
42 0.15
43 0.15
44 0.15
5 -0.65
6 -0.36
7 -0.91
8 -0.56
9 0.36

> <PUBCHEM_EFFECTIVE_ROTOR_COUNT>
6

> <PUBCHEM_PHARMACOPHORE_FEATURES>
12
1 2 acceptor
1 2 donor
1 3 acceptor
1 3 donor
1 4 acceptor
1 5 acceptor
1 6 acceptor
1 7 donor
1 8 acceptor
5 9 10 11 12 13 rings
6 14 15 16 18 19 20 rings
6 17 21 22 23 24 25 rings

> <PUBCHEM_HEAVY_ATOM_COUNT>
27

> <PUBCHEM_ATOM_DEF_STEREO_COUNT>
4

> <PUBCHEM_ATOM_UDEF_STEREO_COUNT>
0

> <PUBCHEM_BOND_DEF_STEREO_COUNT>
0

> <PUBCHEM_BOND_UDEF_STEREO_COUNT>
0

> <PUBCHEM_ISOTOPIC_ATOM_COUNT>
0

> <PUBCHEM_COMPONENT_COUNT>
1

> <PUBCHEM_CACTVS_TAUTO_COUNT>
1

> <PUBCHEM_CONFORMER_ID>
048096DF00000001

> <PUBCHEM_MMFF94_ENERGY>
67.2399

> <PUBCHEM_FEATURE_SELFOVERLAP>
60.928

> <PUBCHEM_SHAPE_FINGERPRINT>
10064457 181 17912089356382192160
1100329 8 18267310819924635045
11578080 2 17749655329566078999
12156800 1 15156649346806209853
12422481 6 18270385161814971338
12553582 1 18122057869442582085
12592029 89 17905893931167809099
13140716 1 18341621399756654715
13692114 37 18125162633510370753
13965767 371 17988378021761515899
14223421 5 18341039766015052840
14790565 3 17404028020184484984
17357779 13 18198888245687555054
17492 54 17829326878497082909
20028762 73 16830666232365816134
20600515 1 17769105544733610156
20691752 17 18113344119290448563
20905425 154 18342464758864945772
21421861 104 18260274070414192377
22182313 1 18200574931316727170
23419403 2 17916854730566696616
23559900 14 18261673774417940423
2748010 2 18340759343305303773
2818148 4 18268170736732861655
3052486 1 18115300069404705106
350125 39 18340496547553079729
474 4 18048882093453984767
484985 159 15656273031257609602
539174 4 17986136147543177985
70251023 43 18410859862955820411

> <PUBCHEM_SHAPE_MULTIPOLES>
520.19
6.85
4.4
1.73
0.96
2.03
-0.68
-4.9
-0.84
0.72
0.82
-1.11
0.42
0.56

> <PUBCHEM_SHAPE_SELFOVERLAP>
1102.757

> <PUBCHEM_SHAPE_VOLUME>
291.7

> <PUBCHEM_COORDINATE_TYPE>
2
5
10

$$$$
