86768995
  -OEChem-12032416413D

 53 55  0     1  0  0  0  0  0999 V2000
    2.1827   -0.3200    0.8066 O   0  0  0  0  0  0  0  0  0  0  0  0
    4.7905    0.9344    1.3671 O   0  0  0  0  0  0  0  0  0  0  0  0
   -1.3549   -3.1182   -1.1160 O   0  0  0  0  0  0  0  0  0  0  0  0
   -3.6547   -1.9485    0.4287 O   0  0  0  0  0  0  0  0  0  0  0  0
    0.0567    1.5526    0.5036 N   0  0  0  0  0  0  0  0  0  0  0  0
   -3.4348    3.8571   -0.2717 N   0  0  0  0  0  0  0  0  0  0  0  0
   -0.0157   -2.9485   -1.4457 N   0  0  0  0  0  0  0  0  0  0  0  0
    2.4482    1.0887    0.8177 C   0  0  1  0  0  0  0  0  0  0  0  0
    3.8816    1.3904    0.3616 C   0  0  2  0  0  0  0  0  0  0  0  0
    2.4173   -0.9733   -0.4433 C   0  0  1  0  0  0  0  0  0  0  0  0
   -0.9520    2.3002   -0.2435 C   0  0  0  0  0  0  0  0  0  0  0  0
    4.2376    0.6830   -0.9431 C   0  0  0  0  0  0  0  0  0  0  0  0
    3.8710   -0.7969   -0.8791 C   0  0  0  0  0  0  0  0  0  0  0  0
    1.3948    1.8535    0.0189 C   0  0  0  0  0  0  0  0  0  0  0  0
   -2.3275    1.6457   -0.0789 C   0  0  0  0  0  0  0  0  0  0  0  0
   -1.0046    3.7618    0.2159 C   0  0  0  0  0  0  0  0  0  0  0  0
    2.0810   -2.4482   -0.2597 C   0  0  0  0  0  0  0  0  0  0  0  0
   -3.4120    2.4777   -0.7650 C   0  0  0  0  0  0  0  0  0  0  0  0
   -2.1407    4.5110   -0.4818 C   0  0  0  0  0  0  0  0  0  0  0  0
    0.5955   -2.6889   -0.2863 C   0  0  0  0  0  0  0  0  0  0  0  0
   -0.2984   -2.6821    0.7984 C   0  0  0  0  0  0  0  0  0  0  0  0
   -1.5107   -2.9571    0.2230 C   0  0  0  0  0  0  0  0  0  0  0  0
   -2.8740   -3.1041    0.7465 C   0  0  0  0  0  0  0  0  0  0  0  0
   -4.9769   -2.0703    0.9261 C   0  0  0  0  0  0  0  0  0  0  0  0
    2.3608    1.3868    1.8708 H   0  0  0  0  0  0  0  0  0  0  0  0
    4.0317    2.4713    0.2634 H   0  0  0  0  0  0  0  0  0  0  0  0
    1.7582   -0.5458   -1.2084 H   0  0  0  0  0  0  0  0  0  0  0  0
   -0.7150    2.2722   -1.3166 H   0  0  0  0  0  0  0  0  0  0  0  0
    5.3101    0.7748   -1.1509 H   0  0  0  0  0  0  0  0  0  0  0  0
    3.7038    1.1526   -1.7775 H   0  0  0  0  0  0  0  0  0  0  0  0
    4.0403   -1.2633   -1.8562 H   0  0  0  0  0  0  0  0  0  0  0  0
    4.5356   -1.2941   -0.1610 H   0  0  0  0  0  0  0  0  0  0  0  0
    1.6147    2.9218    0.1181 H   0  0  0  0  0  0  0  0  0  0  0  0
    1.4639    1.6083   -1.0464 H   0  0  0  0  0  0  0  0  0  0  0  0
   -0.1117    0.5515    0.4045 H   0  0  0  0  0  0  0  0  0  0  0  0
   -2.5727    1.5396    0.9866 H   0  0  0  0  0  0  0  0  0  0  0  0
   -2.3214    0.6354   -0.5064 H   0  0  0  0  0  0  0  0  0  0  0  0
   -0.0663    4.2830   -0.0021 H   0  0  0  0  0  0  0  0  0  0  0  0
   -1.1525    3.8111    1.3032 H   0  0  0  0  0  0  0  0  0  0  0  0
    2.4821   -2.8200    0.6918 H   0  0  0  0  0  0  0  0  0  0  0  0
    2.5381   -3.0464   -1.0586 H   0  0  0  0  0  0  0  0  0  0  0  0
   -4.3882    2.0193   -0.5721 H   0  0  0  0  0  0  0  0  0  0  0  0
   -3.2650    2.4695   -1.8520 H   0  0  0  0  0  0  0  0  0  0  0  0
   -2.1941    5.5301   -0.0832 H   0  0  0  0  0  0  0  0  0  0  0  0
   -1.9337    4.5986   -1.5555 H   0  0  0  0  0  0  0  0  0  0  0  0
   -4.1590    4.3785   -0.7649 H   0  0  0  0  0  0  0  0  0  0  0  0
    5.6885    1.1762    1.0831 H   0  0  0  0  0  0  0  0  0  0  0  0
   -0.0935   -2.5028    1.8435 H   0  0  0  0  0  0  0  0  0  0  0  0
   -3.3456   -3.9926    0.3101 H   0  0  0  0  0  0  0  0  0  0  0  0
   -2.8453   -3.2312    1.8352 H   0  0  0  0  0  0  0  0  0  0  0  0
   -5.5300   -1.1658    0.6588 H   0  0  0  0  0  0  0  0  0  0  0  0
   -4.9714   -2.1645    2.0164 H   0  0  0  0  0  0  0  0  0  0  0  0
   -5.4803   -2.9314    0.4760 H   0  0  0  0  0  0  0  0  0  0  0  0
  1  8  1  0  0  0  0
  1 10  1  0  0  0  0
  2  9  1  0  0  0  0
  2 47  1  0  0  0  0
  3  7  1  0  0  0  0
  3 22  1  0  0  0  0
  4 23  1  0  0  0  0
  4 24  1  0  0  0  0
  5 11  1  0  0  0  0
  5 14  1  0  0  0  0
  5 35  1  0  0  0  0
  6 18  1  0  0  0  0
  6 19  1  0  0  0  0
  6 46  1  0  0  0  0
  7 20  2  0  0  0  0
  8  9  1  0  0  0  0
  8 14  1  0  0  0  0
  8 25  1  0  0  0  0
  9 12  1  0  0  0  0
  9 26  1  0  0  0  0
 10 13  1  0  0  0  0
 10 17  1  0  0  0  0
 10 27  1  0  0  0  0
 11 15  1  0  0  0  0
 11 16  1  0  0  0  0
 11 28  1  0  0  0  0
 12 13  1  0  0  0  0
 12 29  1  0  0  0  0
 12 30  1  0  0  0  0
 13 31  1  0  0  0  0
 13 32  1  0  0  0  0
 14 33  1  0  0  0  0
 14 34  1  0  0  0  0
 15 18  1  0  0  0  0
 15 36  1  0  0  0  0
 15 37  1  0  0  0  0
 16 19  1  0  0  0  0
 16 38  1  0  0  0  0
 16 39  1  0  0  0  0
 17 20  1  0  0  0  0
 17 40  1  0  0  0  0
 17 41  1  0  0  0  0
 18 42  1  0  0  0  0
 18 43  1  0  0  0  0
 19 44  1  0  0  0  0
 19 45  1  0  0  0  0
 20 21  1  0  0  0  0
 21 22  2  0  0  0  0
 21 48  1  0  0  0  0
 22 23  1  0  0  0  0
 23 49  1  0  0  0  0
 23 50  1  0  0  0  0
 24 51  1  0  0  0  0
 24 52  1  0  0  0  0
 24 53  1  0  0  0  0
M  END
> <PUBCHEM_COMPOUND_CID>
86768995

> <PUBCHEM_CONFORMER_RMSD>
1

> <PUBCHEM_CONFORMER_DIVERSEORDER>
1
8
87
62
68
50
39
17
53
28
33
83
51
19
49
86
79
24
63
82
52
66
58
35
76
67
45
29
80
12
56
2
37
46
31
36
38
64
44
47
72
20
25
88
26
41
61
4
84
59
15
21
40
77
43
57
78
70
30
42
32
27
14
73
54
81
69
10
71
89
22
3
34
48
9
65
75
5
60
11
18
16
55
74
7
85
6
13
23

> <PUBCHEM_MMFF94_PARTIAL_CHARGES>
24
1 -0.56
10 0.28
11 0.27
14 0.27
17 0.18
18 0.27
19 0.27
2 -0.68
20 0.11
21 -0.15
22 -0.04
23 0.46
24 0.28
3 -0.02
35 0.36
4 -0.56
46 0.36
47 0.4
48 0.15
5 -0.9
6 -0.9
7 -0.41
8 0.28
9 0.28

> <PUBCHEM_EFFECTIVE_ROTOR_COUNT>
9.4

> <PUBCHEM_PHARMACOPHORE_FEATURES>
12
1 1 acceptor
1 2 acceptor
1 2 donor
1 4 acceptor
1 5 cation
1 5 donor
1 6 cation
1 6 donor
1 7 acceptor
5 3 7 20 21 22 rings
6 1 8 9 10 12 13 rings
6 6 11 15 16 18 19 rings

> <PUBCHEM_HEAVY_ATOM_COUNT>
24

> <PUBCHEM_ATOM_DEF_STEREO_COUNT>
3

> <PUBCHEM_ATOM_UDEF_STEREO_COUNT>
0

> <PUBCHEM_BOND_DEF_STEREO_COUNT>
0

> <PUBCHEM_BOND_UDEF_STEREO_COUNT>
0

> <PUBCHEM_ISOTOPIC_ATOM_COUNT>
0

> <PUBCHEM_COMPONENT_COUNT>
1

> <PUBCHEM_CACTVS_TAUTO_COUNT>
1

> <PUBCHEM_CONFORMER_ID>
052BFD6300000001

> <PUBCHEM_MMFF94_ENERGY>
23.562

> <PUBCHEM_FEATURE_SELFOVERLAP>
60.898

> <PUBCHEM_SHAPE_FINGERPRINT>
10006869 2 18336818715760844819
10688039 33 18188777278730044939
1100329 8 17832703470184944538
114674 6 17402325975746090833
12553582 1 17978225285751004741
12788726 201 18117002276571152352
13402501 40 18411139169179170747
13533116 47 17548973361077679261
138480 1 16608569758521136235
14363568 33 17325796045548419905
14790565 3 16607731479711408245
15110567 62 17545324073447273425
15210252 30 17828779669968001748
19930381 70 16032392276560137019
20621476 13 17617647100837773719
20645477 70 17760646966910447732
21285901 2 18057626406503394798
21796203 349 17684404971093629985
22113638 7 17980764062689990247
2255824 54 17762898767124669836
23559900 14 17404006029513904176
238 59 17760661264882339552
3014063 31 18410576223346643423
3052486 1 18334010614533780742
5047190 48 17548409762109189512
5939293 188 17689999363691238986
653340 110 18411982459837029713

> <PUBCHEM_SHAPE_MULTIPOLES>
455.49
8.05
6.48
1.06
1.31
1.87
-0.04
1.18
0.86
-7.84
-0.59
0.39
-0.33
1.81

> <PUBCHEM_SHAPE_SELFOVERLAP>
929.02

> <PUBCHEM_SHAPE_VOLUME>
263.4

> <PUBCHEM_COORDINATE_TYPE>
2
5
10

$$$$
