75536623
  -OEChem-12032416303D

 53 55  0     1  0  0  0  0  0999 V2000
    4.5085    0.6976    0.7280 O   0  0  0  0  0  0  0  0  0  0  0  0
    5.1131   -2.0474   -0.8107 O   0  0  0  0  0  0  0  0  0  0  0  0
    0.8717    0.8074   -2.1683 O   0  0  0  0  0  0  0  0  0  0  0  0
   -4.9209   -0.6011   -1.8758 O   0  0  0  0  0  0  0  0  0  0  0  0
    1.9799   -1.0485    0.7455 N   0  0  0  0  0  0  0  0  0  0  0  0
    2.4555    1.6173   -0.6788 N   0  0  0  0  0  0  0  0  0  0  0  0
   -4.3875   -0.8867    0.4030 N   0  0  0  0  0  0  0  0  0  0  0  0
    3.3993   -1.3938    0.7084 C   0  0  1  0  0  0  0  0  0  0  0  0
    3.9947   -1.1683   -0.6703 C   0  0  1  0  0  0  0  0  0  0  0  0
    4.4947    0.2757   -0.6485 C   0  0  1  0  0  0  0  0  0  0  0  0
    4.2101   -0.4301    1.5594 C   0  0  0  0  0  0  0  0  0  0  0  0
    3.6141    1.2358   -1.4337 C   0  0  0  0  0  0  0  0  0  0  0  0
    1.1538   -2.1797    0.3406 C   0  0  0  0  0  0  0  0  0  0  0  0
   -0.3123   -1.8375    0.3571 C   0  0  0  0  0  0  0  0  0  0  0  0
    1.1572    1.3685   -1.1136 C   0  0  0  0  0  0  0  0  0  0  0  0
   -0.9978   -1.7646    1.5698 C   0  0  0  0  0  0  0  0  0  0  0  0
   -0.9852   -1.5937   -0.8401 C   0  0  0  0  0  0  0  0  0  0  0  0
    0.0652    1.8499   -0.2289 C   0  0  0  0  0  0  0  0  0  0  0  0
   -2.3561   -1.4476    1.5852 C   0  0  0  0  0  0  0  0  0  0  0  0
   -2.3434   -1.2767   -0.8248 C   0  0  0  0  0  0  0  0  0  0  0  0
   -3.0289   -1.2038    0.3878 C   0  0  0  0  0  0  0  0  0  0  0  0
   -1.1809    2.1684   -0.7685 C   0  0  0  0  0  0  0  0  0  0  0  0
    0.2860    1.9819    1.1419 C   0  0  0  0  0  0  0  0  0  0  0  0
   -2.2065    2.6190    0.0628 C   0  0  0  0  0  0  0  0  0  0  0  0
   -0.7394    2.4324    1.9733 C   0  0  0  0  0  0  0  0  0  0  0  0
   -1.9856    2.7510    1.4337 C   0  0  0  0  0  0  0  0  0  0  0  0
   -5.2241   -0.6121   -0.6871 C   0  0  0  0  0  0  0  0  0  0  0  0
   -6.6354   -0.3133   -0.2473 C   0  0  0  0  0  0  0  0  0  0  0  0
    3.5567   -2.4097    1.0912 H   0  0  0  0  0  0  0  0  0  0  0  0
    3.3168   -1.3888   -1.5006 H   0  0  0  0  0  0  0  0  0  0  0  0
    5.5200    0.3381   -1.0317 H   0  0  0  0  0  0  0  0  0  0  0  0
    3.7019   -0.0930    2.4684 H   0  0  0  0  0  0  0  0  0  0  0  0
    5.1632   -0.8824    1.8580 H   0  0  0  0  0  0  0  0  0  0  0  0
    3.3484    0.8338   -2.4165 H   0  0  0  0  0  0  0  0  0  0  0  0
    4.1668    2.1680   -1.5985 H   0  0  0  0  0  0  0  0  0  0  0  0
    1.7234   -0.7851    1.6972 H   0  0  0  0  0  0  0  0  0  0  0  0
    1.3143   -3.0359    1.0092 H   0  0  0  0  0  0  0  0  0  0  0  0
    1.4317   -2.5196   -0.6646 H   0  0  0  0  0  0  0  0  0  0  0  0
    5.5072   -1.8781   -1.6836 H   0  0  0  0  0  0  0  0  0  0  0  0
    2.6195    2.1588    0.1632 H   0  0  0  0  0  0  0  0  0  0  0  0
   -0.4845   -1.9524    2.5091 H   0  0  0  0  0  0  0  0  0  0  0  0
   -0.4641   -1.6511   -1.7920 H   0  0  0  0  0  0  0  0  0  0  0  0
   -2.8774   -1.3931    2.5375 H   0  0  0  0  0  0  0  0  0  0  0  0
   -2.7951   -1.1003   -1.7909 H   0  0  0  0  0  0  0  0  0  0  0  0
   -1.3720    2.0745   -1.8342 H   0  0  0  0  0  0  0  0  0  0  0  0
    1.2320    1.7236    1.6077 H   0  0  0  0  0  0  0  0  0  0  0  0
   -4.8149   -0.8521    1.3262 H   0  0  0  0  0  0  0  0  0  0  0  0
   -3.1775    2.8649   -0.3569 H   0  0  0  0  0  0  0  0  0  0  0  0
   -0.5700    2.5291    3.0418 H   0  0  0  0  0  0  0  0  0  0  0  0
   -2.7849    3.0990    2.0814 H   0  0  0  0  0  0  0  0  0  0  0  0
   -6.6390    0.5465    0.4286 H   0  0  0  0  0  0  0  0  0  0  0  0
   -7.0548   -1.1835    0.2653 H   0  0  0  0  0  0  0  0  0  0  0  0
   -7.2540   -0.0813   -1.1187 H   0  0  0  0  0  0  0  0  0  0  0  0
  1 10  1  0  0  0  0
  1 11  1  0  0  0  0
  2  9  1  0  0  0  0
  2 39  1  0  0  0  0
  3 15  2  0  0  0  0
  4 27  2  0  0  0  0
  5  8  1  0  0  0  0
  5 13  1  0  0  0  0
  5 36  1  0  0  0  0
  6 12  1  0  0  0  0
  6 15  1  0  0  0  0
  6 40  1  0  0  0  0
  7 21  1  0  0  0  0
  7 27  1  0  0  0  0
  7 47  1  0  0  0  0
  8  9  1  0  0  0  0
  8 11  1  0  0  0  0
  8 29  1  0  0  0  0
  9 10  1  0  0  0  0
  9 30  1  0  0  0  0
 10 12  1  0  0  0  0
 10 31  1  0  0  0  0
 11 32  1  0  0  0  0
 11 33  1  0  0  0  0
 12 34  1  0  0  0  0
 12 35  1  0  0  0  0
 13 14  1  0  0  0  0
 13 37  1  0  0  0  0
 13 38  1  0  0  0  0
 14 16  2  0  0  0  0
 14 17  1  0  0  0  0
 15 18  1  0  0  0  0
 16 19  1  0  0  0  0
 16 41  1  0  0  0  0
 17 20  2  0  0  0  0
 17 42  1  0  0  0  0
 18 22  2  0  0  0  0
 18 23  1  0  0  0  0
 19 21  2  0  0  0  0
 19 43  1  0  0  0  0
 20 21  1  0  0  0  0
 20 44  1  0  0  0  0
 22 24  1  0  0  0  0
 22 45  1  0  0  0  0
 23 25  2  0  0  0  0
 23 46  1  0  0  0  0
 24 26  2  0  0  0  0
 24 48  1  0  0  0  0
 25 26  1  0  0  0  0
 25 49  1  0  0  0  0
 26 50  1  0  0  0  0
 27 28  1  0  0  0  0
 28 51  1  0  0  0  0
 28 52  1  0  0  0  0
 28 53  1  0  0  0  0
M  END
> <PUBCHEM_COMPOUND_CID>
75536623

> <PUBCHEM_CONFORMER_RMSD>
1

> <PUBCHEM_CONFORMER_DIVERSEORDER>
3
142
45
217
148
21
17
107
137
152
207
162
197
143
149
41
83
185
71
6
135
153
116
151
169
218
205
200
174
178
66
132
89
13
20
188
196
110
166
55
1
140
204
39
31
184
25
177
4
158
8
208
161
171
91
133
7
14
186
130
195
15
105
35
33
46
67
51
86
50
165
189
76
82
219
112
167
119
108
193
172
155
170
101
128
126
159
94
29
146
38
131
12
209
187
58
127
19
198
96
124
206
154
120
160
173
141
212
95
179
106
221
111
80
118
59
222
138
60
201
52
194
164
90
125
211
23
175
42
87
168
216
24
103
43
36
176
145
72
40
81
53
136
28
150
181
10
113
37
213
74
100
93
68
88
65
182
210
26
122
34
157
183
129
191
190
121
85
104
9
44
78
11
75
49
144
64
63
22
5
203
117
156
57
147
32
214
97
77
215
54
220
180
56
98
16
202
114
139
62
84
70
163
27
134
69
61
199
192
123
47
92
48
30
79
2
115
18
99
102
109
73

> <PUBCHEM_MMFF94_PARTIAL_CHARGES>
41
1 -0.56
10 0.28
11 0.28
12 0.3
13 0.41
14 -0.14
15 0.54
16 -0.15
17 -0.15
18 0.09
19 -0.15
2 -0.68
20 -0.15
21 0.12
22 -0.15
23 -0.15
24 -0.15
25 -0.15
26 -0.15
27 0.57
28 0.06
3 -0.57
36 0.36
39 0.4
4 -0.57
40 0.37
41 0.15
42 0.15
43 0.15
44 0.15
45 0.15
46 0.15
47 0.37
48 0.15
49 0.15
5 -0.9
50 0.15
6 -0.73
7 -0.55
8 0.27
9 0.28

> <PUBCHEM_EFFECTIVE_ROTOR_COUNT>
10

> <PUBCHEM_PHARMACOPHORE_FEATURES>
12
1 1 acceptor
1 2 acceptor
1 2 donor
1 3 acceptor
1 4 acceptor
1 5 cation
1 5 donor
1 6 donor
1 7 donor
5 1 8 9 10 11 rings
6 14 16 17 19 20 21 rings
6 18 22 23 24 25 26 rings

> <PUBCHEM_HEAVY_ATOM_COUNT>
28

> <PUBCHEM_ATOM_DEF_STEREO_COUNT>
3

> <PUBCHEM_ATOM_UDEF_STEREO_COUNT>
0

> <PUBCHEM_BOND_DEF_STEREO_COUNT>
0

> <PUBCHEM_BOND_UDEF_STEREO_COUNT>
0

> <PUBCHEM_ISOTOPIC_ATOM_COUNT>
0

> <PUBCHEM_COMPONENT_COUNT>
1

> <PUBCHEM_CACTVS_TAUTO_COUNT>
6

> <PUBCHEM_CONFORMER_ID>
048098EF00000003

> <PUBCHEM_MMFF94_ENERGY>
71.2251

> <PUBCHEM_FEATURE_SELFOVERLAP>
60.898

> <PUBCHEM_SHAPE_FINGERPRINT>
104564 63 18410586084343401480
11513181 2 18128263276609698615
11646440 116 18271252707102819923
12107698 1 18341894044233541462
12422481 6 18122938380898835097
12788726 201 18341345460471016840
14251757 17 17604414228994013471
14464042 87 18413110550335240841
16752209 62 18411991251677061524
17349148 13 18336273361723393813
17357779 13 18412258437107784987
21279426 13 18261387811321114517
23557571 272 17988364767118004031
23559900 14 18192434288917214852
24893992 56 18187365451109929507
2818148 4 17900828141743715010
3027735 51 18339365149940307891
469060 322 17604152523530057470

> <PUBCHEM_SHAPE_MULTIPOLES>
537.81
10.49
3.13
1.74
4.41
1.45
-0.11
-4
2.55
0.46
-0.79
0.01
0.39
-0.72

> <PUBCHEM_SHAPE_SELFOVERLAP>
1139.988

> <PUBCHEM_SHAPE_VOLUME>
300.4

> <PUBCHEM_COORDINATE_TYPE>
2
5
10

$$$$
