45360669
  -OEChem-12032416293D

 60 63  0     1  0  0  0  0  0999 V2000
   -0.2002   -2.1545    2.8653 O   0  0  0  0  0  0  0  0  0  0  0  0
   -4.3088    2.6062   -0.4952 O   0  0  0  0  0  0  0  0  0  0  0  0
   -0.5179    0.7533    0.6820 N   0  0  1  0  0  0  0  0  0  0  0  0
   -1.0306   -0.0846    3.3105 N   0  0  0  0  0  0  0  0  0  0  0  0
    3.0324    0.3555    0.0715 N   0  0  0  0  0  0  0  0  0  0  0  0
   -2.8914    1.3644   -1.8508 N   0  0  0  0  0  0  0  0  0  0  0  0
   -0.3807   -0.6776    0.9816 C   0  0  1  0  0  0  0  0  0  0  0  0
    1.5895    0.2616   -0.0826 C   0  0  1  0  0  0  0  0  0  0  0  0
   -1.5525    1.4321    1.4544 C   0  0  1  0  0  0  0  0  0  0  0  0
    1.0131   -1.0498    0.4520 C   0  0  0  0  0  0  0  0  0  0  0  0
    0.8257    1.3269    0.6918 C   0  0  0  0  0  0  0  0  0  0  0  0
   -1.2959    1.2880    2.9462 C   0  0  0  0  0  0  0  0  0  0  0  0
   -0.5055   -1.0285    2.4614 C   0  0  0  0  0  0  0  0  0  0  0  0
   -1.7155    2.9019    1.0649 C   0  0  0  0  0  0  0  0  0  0  0  0
   -1.9301    3.0535   -0.4348 C   0  0  0  0  0  0  0  0  0  0  0  0
    3.7201   -0.3963   -0.9707 C   0  0  0  0  0  0  0  0  0  0  0  0
   -3.1834    2.3396   -0.9084 C   0  0  0  0  0  0  0  0  0  0  0  0
    5.2125   -0.3250   -0.8231 C   0  0  0  0  0  0  0  0  0  0  0  0
    5.9273    0.6945   -1.4518 C   0  0  0  0  0  0  0  0  0  0  0  0
    5.8841   -1.2781   -0.0576 C   0  0  0  0  0  0  0  0  0  0  0  0
   -3.9150    0.5445   -2.4544 C   0  0  0  0  0  0  0  0  0  0  0  0
    7.3139    0.7611   -1.3149 C   0  0  0  0  0  0  0  0  0  0  0  0
    7.2706   -1.2117    0.0793 C   0  0  0  0  0  0  0  0  0  0  0  0
    7.9856   -0.1920   -0.5494 C   0  0  0  0  0  0  0  0  0  0  0  0
   -4.1619   -0.7127   -1.6717 C   0  0  0  0  0  0  0  0  0  0  0  0
   -3.4349   -1.8676   -1.9598 C   0  0  0  0  0  0  0  0  0  0  0  0
   -5.1183   -0.7259   -0.6564 C   0  0  0  0  0  0  0  0  0  0  0  0
   -3.6640   -3.0358   -1.2329 C   0  0  0  0  0  0  0  0  0  0  0  0
   -5.3475   -1.8940    0.0707 C   0  0  0  0  0  0  0  0  0  0  0  0
   -4.6204   -3.0489   -0.2175 C   0  0  0  0  0  0  0  0  0  0  0  0
   -1.1578   -1.2393    0.4505 H   0  0  0  0  0  0  0  0  0  0  0  0
    1.3154    0.3696   -1.1431 H   0  0  0  0  0  0  0  0  0  0  0  0
   -2.5015    0.9209    1.2396 H   0  0  0  0  0  0  0  0  0  0  0  0
    0.9487   -1.7926   -0.3514 H   0  0  0  0  0  0  0  0  0  0  0  0
    1.6522   -1.4672    1.2398 H   0  0  0  0  0  0  0  0  0  0  0  0
    0.8897    2.2956    0.1873 H   0  0  0  0  0  0  0  0  0  0  0  0
    1.2224    1.4355    1.7086 H   0  0  0  0  0  0  0  0  0  0  0  0
   -0.4374    1.8818    3.2786 H   0  0  0  0  0  0  0  0  0  0  0  0
   -2.1668    1.6145    3.5250 H   0  0  0  0  0  0  0  0  0  0  0  0
   -2.5750    3.3219    1.6030 H   0  0  0  0  0  0  0  0  0  0  0  0
   -0.8417    3.4916    1.3676 H   0  0  0  0  0  0  0  0  0  0  0  0
   -1.1286   -0.3375    4.2889 H   0  0  0  0  0  0  0  0  0  0  0  0
    3.3113    1.3351    0.0101 H   0  0  0  0  0  0  0  0  0  0  0  0
   -2.0717    4.1164   -0.6678 H   0  0  0  0  0  0  0  0  0  0  0  0
   -1.0521    2.7416   -1.0083 H   0  0  0  0  0  0  0  0  0  0  0  0
    3.4173   -1.4511   -0.9507 H   0  0  0  0  0  0  0  0  0  0  0  0
    3.4440   -0.0200   -1.9648 H   0  0  0  0  0  0  0  0  0  0  0  0
   -1.9275    1.1877   -2.1174 H   0  0  0  0  0  0  0  0  0  0  0  0
    5.4155    1.4442   -2.0495 H   0  0  0  0  0  0  0  0  0  0  0  0
    5.3385   -2.0763    0.4388 H   0  0  0  0  0  0  0  0  0  0  0  0
   -3.5862    0.3045   -3.4719 H   0  0  0  0  0  0  0  0  0  0  0  0
   -4.8415    1.1231   -2.5493 H   0  0  0  0  0  0  0  0  0  0  0  0
    7.8705    1.5552   -1.8039 H   0  0  0  0  0  0  0  0  0  0  0  0
    7.7937   -1.9535    0.6757 H   0  0  0  0  0  0  0  0  0  0  0  0
    9.0651   -0.1402   -0.4425 H   0  0  0  0  0  0  0  0  0  0  0  0
   -2.6849   -1.8692   -2.7464 H   0  0  0  0  0  0  0  0  0  0  0  0
   -5.6946    0.1649   -0.4225 H   0  0  0  0  0  0  0  0  0  0  0  0
   -3.0969   -3.9347   -1.4563 H   0  0  0  0  0  0  0  0  0  0  0  0
   -6.0923   -1.9044    0.8612 H   0  0  0  0  0  0  0  0  0  0  0  0
   -4.7985   -3.9583    0.3489 H   0  0  0  0  0  0  0  0  0  0  0  0
  1 13  2  0  0  0  0
  2 17  2  0  0  0  0
  3  7  1  0  0  0  0
  3  9  1  0  0  0  0
  3 11  1  0  0  0  0
  4 12  1  0  0  0  0
  4 13  1  0  0  0  0
  4 42  1  0  0  0  0
  5  8  1  0  0  0  0
  5 16  1  0  0  0  0
  5 43  1  0  0  0  0
  6 17  1  0  0  0  0
  6 21  1  0  0  0  0
  6 48  1  0  0  0  0
  7 10  1  0  0  0  0
  7 13  1  0  0  0  0
  7 31  1  0  0  0  0
  8 10  1  0  0  0  0
  8 11  1  0  0  0  0
  8 32  1  0  0  0  0
  9 12  1  0  0  0  0
  9 14  1  0  0  0  0
  9 33  1  0  0  0  0
 10 34  1  0  0  0  0
 10 35  1  0  0  0  0
 11 36  1  0  0  0  0
 11 37  1  0  0  0  0
 12 38  1  0  0  0  0
 12 39  1  0  0  0  0
 14 15  1  0  0  0  0
 14 40  1  0  0  0  0
 14 41  1  0  0  0  0
 15 17  1  0  0  0  0
 15 44  1  0  0  0  0
 15 45  1  0  0  0  0
 16 18  1  0  0  0  0
 16 46  1  0  0  0  0
 16 47  1  0  0  0  0
 18 19  2  0  0  0  0
 18 20  1  0  0  0  0
 19 22  1  0  0  0  0
 19 49  1  0  0  0  0
 20 23  2  0  0  0  0
 20 50  1  0  0  0  0
 21 25  1  0  0  0  0
 21 51  1  0  0  0  0
 21 52  1  0  0  0  0
 22 24  2  0  0  0  0
 22 53  1  0  0  0  0
 23 24  1  0  0  0  0
 23 54  1  0  0  0  0
 24 55  1  0  0  0  0
 25 26  2  0  0  0  0
 25 27  1  0  0  0  0
 26 28  1  0  0  0  0
 26 56  1  0  0  0  0
 27 29  2  0  0  0  0
 27 57  1  0  0  0  0
 28 30  2  0  0  0  0
 28 58  1  0  0  0  0
 29 30  1  0  0  0  0
 29 59  1  0  0  0  0
 30 60  1  0  0  0  0
M  END
> <PUBCHEM_COMPOUND_CID>
45360669

> <PUBCHEM_CONFORMER_RMSD>
1

> <PUBCHEM_CONFORMER_DIVERSEORDER>
1
171
198
87
191
145
218
80
236
195
119
192
147
164
35
219
175
54
232
162
136
45
224
201
92
133
73
213
209
134
108
53
109
84
188
130
230
43
46
194
32
174
143
65
182
103
12
216
117
206
47
106
233
221
140
235
16
185
29
141
57
161
183
229
124
74
184
116
76
205
223
91
144
99
122
204
156
75
214
139
93
177
42
51
181
56
186
220
64
123
21
165
154
48
13
215
159
132
39
178
167
112
60
226
126
26
152
77
153
20
217
82
120
86
187
199
28
135
18
128
111
148
81
200
172
146
211
149
37
72
71
158
68
107
70
114
168
138
131
176
121
89
22
59
197
25
212
203
94
151
170
202
189
98
31
95
78
157
155
127
10
113
8
228
100
180
90
105
44
30
234
102
41
173
142
66
179
88
19
160
196
166
193
38
69
83
208
7
225
101
129
104
163
15
49
62
36
169
4
9
61
14
34
125
210
11
110
222
115
97
23
27
40
55
24
33
85
67
137
118
190
5
150
96
17
6
227
58
79
2
207
52
63
3
231
50

> <PUBCHEM_MMFF94_PARTIAL_CHARGES>
41
1 -0.57
11 0.27
12 0.3
13 0.57
15 0.06
16 0.41
17 0.57
18 -0.14
19 -0.15
2 -0.57
20 -0.15
21 0.44
22 -0.15
23 -0.15
24 -0.15
25 -0.14
26 -0.15
27 -0.15
28 -0.15
29 -0.15
3 -0.81
30 -0.15
4 -0.73
42 0.37
43 0.36
48 0.37
49 0.15
5 -0.9
50 0.15
53 0.15
54 0.15
55 0.15
56 0.15
57 0.15
58 0.15
59 0.15
6 -0.73
60 0.15
7 0.33
8 0.27
9 0.27

> <PUBCHEM_EFFECTIVE_ROTOR_COUNT>
10.2

> <PUBCHEM_PHARMACOPHORE_FEATURES>
11
1 1 acceptor
1 2 acceptor
1 3 cation
1 4 donor
1 5 cation
1 5 donor
1 6 donor
5 3 7 8 10 11 rings
6 18 19 20 22 23 24 rings
6 25 26 27 28 29 30 rings
6 3 4 7 9 12 13 rings

> <PUBCHEM_HEAVY_ATOM_COUNT>
30

> <PUBCHEM_ATOM_DEF_STEREO_COUNT>
3

> <PUBCHEM_ATOM_UDEF_STEREO_COUNT>
0

> <PUBCHEM_BOND_DEF_STEREO_COUNT>
0

> <PUBCHEM_BOND_UDEF_STEREO_COUNT>
0

> <PUBCHEM_ISOTOPIC_ATOM_COUNT>
0

> <PUBCHEM_COMPONENT_COUNT>
1

> <PUBCHEM_CACTVS_TAUTO_COUNT>
6

> <PUBCHEM_CONFORMER_ID>
02B4261D00000001

> <PUBCHEM_MMFF94_ENERGY>
63.8868

> <PUBCHEM_FEATURE_SELFOVERLAP>
56.01

> <PUBCHEM_SHAPE_FINGERPRINT>
105312 117 15791734066200543756
10554248 39 17168433680174591398
10577160 103 18265890444845301520
10577160 183 16081074984273764928
10674148 151 18202276997013036865
11488393 25 17057776758657254896
12128747 34 11169903962180739972
12422481 6 10303817605315220992
12988421 55 12468916430204073973
13941219 33 13829860097114242156
14114207 22 11823559343486216223
14932701 244 18408328782676571255
15183329 4 17022896861738639322
17492 54 14780092195671974695
17686467 74 17703783722927817488
17980427 26 15939210332827329817
20101258 96 14979953640629292714
23198884 109 17240480325459881062
2838139 119 16298103168758379580
3117164 225 9799400136102910398
4015057 19 18040724709762036996
484985 159 15626216897739705933
4938544 92 8574706901632589516
5080951 261 18130790023064939962
57527573 199 8069207582310233359
59755656 520 17168152204089896833
6086070 43 15502374582461283356
70634741 139 18201437013036748068
77296 10 18341329973362195446
9862886 166 18202280299436660510

> <PUBCHEM_SHAPE_MULTIPOLES>
585.72
17.04
3.17
2.63
38.65
0.44
1.87
-8.21
-9.51
-6.01
-0.15
-2.08
0.3
-0.4

> <PUBCHEM_SHAPE_SELFOVERLAP>
1242.862

> <PUBCHEM_SHAPE_VOLUME>
325.7

> <PUBCHEM_COORDINATE_TYPE>
2
5
10

$$$$
