40779423
  -OEChem-12032416163D

 64 68  0     1  0  0  0  0  0999 V2000
   -1.8062   -1.1011   -1.0077 O   0  0  0  0  0  0  0  0  0  0  0  0
   -6.1223   -1.2964    1.4039 O   0  0  0  0  0  0  0  0  0  0  0  0
    0.5363    3.2624   -1.4184 N   0  0  2  0  0  0  0  0  0  0  0  0
    3.6991    0.3917    1.1955 N   0  0  0  0  0  0  0  0  0  0  0  0
   -2.5241    1.0748   -1.1258 N   0  0  0  0  0  0  0  0  0  0  0  0
    3.9952   -0.9179    1.2547 N   0  0  0  0  0  0  0  0  0  0  0  0
   -3.9453   -0.6044   -0.2605 N   0  0  0  0  0  0  0  0  0  0  0  0
    1.0363    2.6362    1.0597 C   0  0  2  0  0  0  0  0  0  0  0  0
    2.1584    2.1023    0.1268 C   0  0  2  0  0  0  0  0  0  0  0  0
   -0.6624    2.6365   -0.8005 C   0  0  2  0  0  0  0  0  0  0  0  0
   -0.3235    2.0725    0.5963 C   0  0  0  0  0  0  0  0  0  0  0  0
    1.6923    2.3348   -1.3388 C   0  0  0  0  0  0  0  0  0  0  0  0
    0.9841    4.1665    0.8627 C   0  0  0  0  0  0  0  0  0  0  0  0
    0.8656    4.4801   -0.6391 C   0  0  0  0  0  0  0  0  0  0  0  0
    2.6676    0.6861    0.3530 C   0  0  0  0  0  0  0  0  0  0  0  0
   -1.2981    1.5778   -1.7040 C   0  0  0  0  0  0  0  0  0  0  0  0
    2.2609   -0.5145   -0.1762 C   0  0  0  0  0  0  0  0  0  0  0  0
    3.1159   -2.9627    0.1950 C   0  0  0  0  0  0  0  0  0  0  0  0
    3.1134   -1.4664    0.4148 C   0  0  0  0  0  0  0  0  0  0  0  0
    1.7841   -3.6203    0.5989 C   0  0  0  0  0  0  0  0  0  0  0  0
    3.3685   -3.3943   -1.2645 C   0  0  0  0  0  0  0  0  0  0  0  0
    1.5855   -4.7420   -0.4089 C   0  0  0  0  0  0  0  0  0  0  0  0
    2.1124   -4.1403   -1.6996 C   0  0  0  0  0  0  0  0  0  0  0  0
    4.4644    1.3244    1.9900 C   0  0  0  0  0  0  0  0  0  0  0  0
   -2.6964   -0.2677   -0.8095 C   0  0  0  0  0  0  0  0  0  0  0  0
   -4.2159   -1.9990    0.0962 C   0  0  0  0  0  0  0  0  0  0  0  0
   -5.1055    0.2892   -0.1330 C   0  0  0  0  0  0  0  0  0  0  0  0
   -4.9347   -2.0901    1.4330 C   0  0  0  0  0  0  0  0  0  0  0  0
   -5.8053    0.0819    1.2060 C   0  0  0  0  0  0  0  0  0  0  0  0
    1.2266    2.3809    2.1073 H   0  0  0  0  0  0  0  0  0  0  0  0
    3.0277    2.7613    0.2719 H   0  0  0  0  0  0  0  0  0  0  0  0
   -1.4218    3.4224   -0.6719 H   0  0  0  0  0  0  0  0  0  0  0  0
   -0.2810    0.9776    0.5981 H   0  0  0  0  0  0  0  0  0  0  0  0
   -1.1057    2.3647    1.3078 H   0  0  0  0  0  0  0  0  0  0  0  0
    2.5270    2.7664   -1.9084 H   0  0  0  0  0  0  0  0  0  0  0  0
    1.4591    1.4078   -1.8700 H   0  0  0  0  0  0  0  0  0  0  0  0
    1.8867    4.6357    1.2711 H   0  0  0  0  0  0  0  0  0  0  0  0
    0.1272    4.5832    1.4057 H   0  0  0  0  0  0  0  0  0  0  0  0
    0.0977    5.2468   -0.8000 H   0  0  0  0  0  0  0  0  0  0  0  0
    1.8004    4.9185   -1.0111 H   0  0  0  0  0  0  0  0  0  0  0  0
   -0.6137    0.7499   -1.9091 H   0  0  0  0  0  0  0  0  0  0  0  0
   -1.5694    2.0231   -2.6682 H   0  0  0  0  0  0  0  0  0  0  0  0
    1.4600   -0.6862   -0.8806 H   0  0  0  0  0  0  0  0  0  0  0  0
    3.9151   -3.3986    0.8113 H   0  0  0  0  0  0  0  0  0  0  0  0
   -3.2751    1.7429   -1.0300 H   0  0  0  0  0  0  0  0  0  0  0  0
    0.9436   -2.9185    0.5343 H   0  0  0  0  0  0  0  0  0  0  0  0
    1.8128   -3.9982    1.6262 H   0  0  0  0  0  0  0  0  0  0  0  0
    4.2248   -4.0797   -1.2937 H   0  0  0  0  0  0  0  0  0  0  0  0
    3.5963   -2.5629   -1.9395 H   0  0  0  0  0  0  0  0  0  0  0  0
    0.5385   -5.0481   -0.4885 H   0  0  0  0  0  0  0  0  0  0  0  0
    2.1805   -5.6181   -0.1253 H   0  0  0  0  0  0  0  0  0  0  0  0
    2.3226   -4.8986   -2.4592 H   0  0  0  0  0  0  0  0  0  0  0  0
    1.3818   -3.4348   -2.1134 H   0  0  0  0  0  0  0  0  0  0  0  0
    5.0903    1.9154    1.3170 H   0  0  0  0  0  0  0  0  0  0  0  0
    3.7755    1.9644    2.5460 H   0  0  0  0  0  0  0  0  0  0  0  0
    5.0938    0.7721    2.6931 H   0  0  0  0  0  0  0  0  0  0  0  0
   -3.2935   -2.5869    0.1222 H   0  0  0  0  0  0  0  0  0  0  0  0
   -4.8512   -2.4021   -0.7014 H   0  0  0  0  0  0  0  0  0  0  0  0
   -5.7829    0.0222   -0.9528 H   0  0  0  0  0  0  0  0  0  0  0  0
   -4.8554    1.3435   -0.2374 H   0  0  0  0  0  0  0  0  0  0  0  0
   -5.2266   -3.1257    1.6335 H   0  0  0  0  0  0  0  0  0  0  0  0
   -4.2934   -1.7563    2.2574 H   0  0  0  0  0  0  0  0  0  0  0  0
   -5.1814    0.4319    2.0372 H   0  0  0  0  0  0  0  0  0  0  0  0
   -6.7411    0.6490    1.2307 H   0  0  0  0  0  0  0  0  0  0  0  0
  1 25  2  0  0  0  0
  2 28  1  0  0  0  0
  2 29  1  0  0  0  0
  3 10  1  0  0  0  0
  3 12  1  0  0  0  0
  3 14  1  0  0  0  0
  4  6  1  0  0  0  0
  4 15  1  0  0  0  0
  4 24  1  0  0  0  0
  5 16  1  0  0  0  0
  5 25  1  0  0  0  0
  5 45  1  0  0  0  0
  6 19  2  0  0  0  0
  7 25  1  0  0  0  0
  7 26  1  0  0  0  0
  7 27  1  0  0  0  0
  8  9  1  0  0  0  0
  8 11  1  0  0  0  0
  8 13  1  0  0  0  0
  8 30  1  0  0  0  0
  9 12  1  0  0  0  0
  9 15  1  0  0  0  0
  9 31  1  0  0  0  0
 10 11  1  0  0  0  0
 10 16  1  0  0  0  0
 10 32  1  0  0  0  0
 11 33  1  0  0  0  0
 11 34  1  0  0  0  0
 12 35  1  0  0  0  0
 12 36  1  0  0  0  0
 13 14  1  0  0  0  0
 13 37  1  0  0  0  0
 13 38  1  0  0  0  0
 14 39  1  0  0  0  0
 14 40  1  0  0  0  0
 15 17  2  0  0  0  0
 16 41  1  0  0  0  0
 16 42  1  0  0  0  0
 17 19  1  0  0  0  0
 17 43  1  0  0  0  0
 18 19  1  0  0  0  0
 18 20  1  0  0  0  0
 18 21  1  0  0  0  0
 18 44  1  0  0  0  0
 20 22  1  0  0  0  0
 20 46  1  0  0  0  0
 20 47  1  0  0  0  0
 21 23  1  0  0  0  0
 21 48  1  0  0  0  0
 21 49  1  0  0  0  0
 22 23  1  0  0  0  0
 22 50  1  0  0  0  0
 22 51  1  0  0  0  0
 23 52  1  0  0  0  0
 23 53  1  0  0  0  0
 24 54  1  0  0  0  0
 24 55  1  0  0  0  0
 24 56  1  0  0  0  0
 26 28  1  0  0  0  0
 26 57  1  0  0  0  0
 26 58  1  0  0  0  0
 27 29  1  0  0  0  0
 27 59  1  0  0  0  0
 27 60  1  0  0  0  0
 28 61  1  0  0  0  0
 28 62  1  0  0  0  0
 29 63  1  0  0  0  0
 29 64  1  0  0  0  0
M  END
> <PUBCHEM_COMPOUND_CID>
40779423

> <PUBCHEM_CONFORMER_RMSD>
1

> <PUBCHEM_CONFORMER_DIVERSEORDER>
2
3
46
4
19
56
38
7
41
9
6
12
35
39
21
13
57
17
34
54
22
65
16
29
5
37
43
60
14
66
63
58
26
45
64
51
40
52
53
33
67
62
48
15
31
36
61
8
32
42
23
25
10
47
28
55
49
30
44
1
20
68
11
24
18
50
27
69
59

> <PUBCHEM_MMFF94_PARTIAL_CHARGES>
24
1 -0.57
10 0.27
12 0.27
14 0.27
15 -0.33
16 0.3
17 -0.15
18 0.18
19 0.11
2 -0.56
24 0.26
25 0.69
26 0.3
27 0.3
28 0.28
29 0.28
3 -0.81
4 0.31
43 0.15
45 0.37
5 -0.73
6 -0.71
7 -0.66
9 0.18

> <PUBCHEM_EFFECTIVE_ROTOR_COUNT>
9.4

> <PUBCHEM_PHARMACOPHORE_FEATURES>
9
1 1 acceptor
1 2 acceptor
1 3 cation
1 5 donor
1 6 acceptor
5 18 20 21 22 23 rings
5 4 6 15 17 19 rings
6 2 7 26 27 28 29 rings
8 3 8 9 10 11 12 13 14 rings

> <PUBCHEM_HEAVY_ATOM_COUNT>
29

> <PUBCHEM_ATOM_DEF_STEREO_COUNT>
3

> <PUBCHEM_ATOM_UDEF_STEREO_COUNT>
0

> <PUBCHEM_BOND_DEF_STEREO_COUNT>
0

> <PUBCHEM_BOND_UDEF_STEREO_COUNT>
0

> <PUBCHEM_ISOTOPIC_ATOM_COUNT>
0

> <PUBCHEM_COMPONENT_COUNT>
1

> <PUBCHEM_CACTVS_TAUTO_COUNT>
2

> <PUBCHEM_CONFORMER_ID>
026E3E9F00000002

> <PUBCHEM_MMFF94_ENERGY>
58.5932

> <PUBCHEM_FEATURE_SELFOVERLAP>
45.672

> <PUBCHEM_SHAPE_FINGERPRINT>
10064457 181 17691404530619224028
11059048 146 17762626491735746911
11828532 37 16806732978939817723
12107183 9 18339372851565964297
12623949 98 18043265715677707531
13402501 40 18260544545584227139
13533116 47 18338241591608182731
13785724 45 18197516034244624711
14251757 5 17189261492020369438
14363568 33 18413392046844933886
14863182 85 18410575115440156124
150020 26 18411697695157924233
151778 21 18193280917059262539
15250474 111 18126000718630689631
15420108 30 17762892569608376216
15422964 175 18338506439906894484
15927050 60 17617661403174477492
17909252 39 18268998575048552706
1979834 28 18412825819388451451
20429552 37 18339082588937946107
20775530 9 18266455404099261766
21344244 181 18125184829652969348
21421861 104 18341341096900470617
21796203 349 18335988670196071528
22889206 1 17986943245013709529
23466295 7 17690849960341825230
255183 313 17982982787514008456
3117164 225 18339092488959194865
3737641 26 18270683056747182918
5309563 4 18411133602337384271
563151 40 17251751647022075444
613672 6 18192413208831889799

> <PUBCHEM_SHAPE_MULTIPOLES>
560.16
10.26
6.7
1.64
17.21
1.33
0
7.62
5.16
-6.12
-1.56
-0.26
-0.18
2.28

> <PUBCHEM_SHAPE_SELFOVERLAP>
1183.619

> <PUBCHEM_SHAPE_VOLUME>
312.5

> <PUBCHEM_COORDINATE_TYPE>
2
5
10

$$$$
