11913309
  -OEChem-12032416313D

 59 63  0     1  0  0  0  0  0999 V2000
    4.2797   -1.6328    1.9206 O   0  0  0  0  0  0  0  0  0  0  0  0
    2.0594    0.5579    1.8343 O   0  0  0  0  0  0  0  0  0  0  0  0
    6.8534    1.3555    0.0615 O   0  0  0  0  0  0  0  0  0  0  0  0
    6.9330    3.1292   -1.9618 O   0  0  0  0  0  0  0  0  0  0  0  0
    4.5714    1.6741    0.3837 N   0  0  0  0  0  0  0  0  0  0  0  0
    1.8504   -2.7889    0.3908 N   0  0  0  0  0  0  0  0  0  0  0  0
   -0.3123   -2.0767   -0.1765 N   0  0  0  0  0  0  0  0  0  0  0  0
    0.7676   -3.8494   -1.4006 N   0  0  0  0  0  0  0  0  0  0  0  0
    2.4321   -0.5014    0.9369 C   0  0  1  0  0  0  0  0  0  0  0  0
    3.9442   -0.6081    0.9703 C   0  0  1  0  0  0  0  0  0  0  0  0
    1.9558   -1.8318    1.4704 C   0  0  2  0  0  0  0  0  0  0  0  0
    4.3974    0.7436    1.4727 C   0  0  2  0  0  0  0  0  0  0  0  0
    3.0728   -2.2298    2.4177 C   0  0  0  0  0  0  0  0  0  0  0  0
    3.2468    1.1583    2.3724 C   0  0  0  0  0  0  0  0  0  0  0  0
    5.7936    1.9016   -0.2328 C   0  0  0  0  0  0  0  0  0  0  0  0
    0.7354   -2.9085   -0.4197 C   0  0  0  0  0  0  0  0  0  0  0  0
    5.6809    2.9254   -1.3423 C   0  0  0  0  0  0  0  0  0  0  0  0
   -1.3826   -2.2206   -0.9852 C   0  0  0  0  0  0  0  0  0  0  0  0
   -0.3359   -3.9390   -2.1718 C   0  0  0  0  0  0  0  0  0  0  0  0
   -1.4514   -3.1433   -2.0091 C   0  0  0  0  0  0  0  0  0  0  0  0
   -2.4826   -1.3275   -0.7106 C   0  0  0  0  0  0  0  0  0  0  0  0
    6.8564    4.0894   -3.0115 C   0  0  0  0  0  0  0  0  0  0  0  0
   -3.7937   -1.7252   -0.9823 C   0  0  0  0  0  0  0  0  0  0  0  0
   -2.2399   -0.0618   -0.1723 C   0  0  0  0  0  0  0  0  0  0  0  0
   -4.6110    0.4019   -0.1799 C   0  0  0  0  0  0  0  0  0  0  0  0
   -4.8565   -0.8615   -0.7173 C   0  0  0  0  0  0  0  0  0  0  0  0
   -3.3028    0.8018    0.0927 C   0  0  0  0  0  0  0  0  0  0  0  0
   -5.7137    1.2977    0.0944 C   0  0  0  0  0  0  0  0  0  0  0  0
   -6.1520    2.1853   -0.8885 C   0  0  0  0  0  0  0  0  0  0  0  0
   -6.3388    1.2737    1.3412 C   0  0  0  0  0  0  0  0  0  0  0  0
   -7.2151    3.0488   -0.6246 C   0  0  0  0  0  0  0  0  0  0  0  0
   -7.4020    2.1372    1.6050 C   0  0  0  0  0  0  0  0  0  0  0  0
   -7.8402    3.0247    0.6221 C   0  0  0  0  0  0  0  0  0  0  0  0
    2.0474   -0.2372   -0.0534 H   0  0  0  0  0  0  0  0  0  0  0  0
    4.3745   -0.9004    0.0069 H   0  0  0  0  0  0  0  0  0  0  0  0
    1.0149   -1.7722    2.0294 H   0  0  0  0  0  0  0  0  0  0  0  0
    5.3320    0.6923    2.0417 H   0  0  0  0  0  0  0  0  0  0  0  0
    3.2149   -3.3111    2.5091 H   0  0  0  0  0  0  0  0  0  0  0  0
    2.8993   -1.8213    3.4195 H   0  0  0  0  0  0  0  0  0  0  0  0
    3.1068    2.2415    2.4412 H   0  0  0  0  0  0  0  0  0  0  0  0
    3.3799    0.7628    3.3854 H   0  0  0  0  0  0  0  0  0  0  0  0
    3.7462    2.1445    0.0220 H   0  0  0  0  0  0  0  0  0  0  0  0
    2.6449   -3.3775    0.1675 H   0  0  0  0  0  0  0  0  0  0  0  0
    5.3202    3.8661   -0.9102 H   0  0  0  0  0  0  0  0  0  0  0  0
    4.9554    2.5606   -2.0788 H   0  0  0  0  0  0  0  0  0  0  0  0
   -0.2945   -4.6894   -2.9541 H   0  0  0  0  0  0  0  0  0  0  0  0
   -2.2942   -3.2526   -2.6795 H   0  0  0  0  0  0  0  0  0  0  0  0
    7.8525    4.2012   -3.4478 H   0  0  0  0  0  0  0  0  0  0  0  0
    6.1681    3.7489   -3.7909 H   0  0  0  0  0  0  0  0  0  0  0  0
    6.5341    5.0589   -2.6195 H   0  0  0  0  0  0  0  0  0  0  0  0
   -4.0324   -2.7091   -1.3773 H   0  0  0  0  0  0  0  0  0  0  0  0
   -1.2317    0.2853    0.0420 H   0  0  0  0  0  0  0  0  0  0  0  0
   -5.8709   -1.1906   -0.9305 H   0  0  0  0  0  0  0  0  0  0  0  0
   -3.0941    1.7844    0.5097 H   0  0  0  0  0  0  0  0  0  0  0  0
   -5.6760    2.2171   -1.8658 H   0  0  0  0  0  0  0  0  0  0  0  0
   -6.0098    0.5881    2.1186 H   0  0  0  0  0  0  0  0  0  0  0  0
   -7.5565    3.7399   -1.3897 H   0  0  0  0  0  0  0  0  0  0  0  0
   -7.8888    2.1186    2.5756 H   0  0  0  0  0  0  0  0  0  0  0  0
   -8.6681    3.6969    0.8276 H   0  0  0  0  0  0  0  0  0  0  0  0
  1 10  1  0  0  0  0
  1 13  1  0  0  0  0
  2  9  1  0  0  0  0
  2 14  1  0  0  0  0
  3 15  2  0  0  0  0
  4 17  1  0  0  0  0
  4 22  1  0  0  0  0
  5 12  1  0  0  0  0
  5 15  1  0  0  0  0
  5 42  1  0  0  0  0
  6 11  1  0  0  0  0
  6 16  1  0  0  0  0
  6 43  1  0  0  0  0
  7 16  1  0  0  0  0
  7 18  2  0  0  0  0
  8 16  2  0  0  0  0
  8 19  1  0  0  0  0
  9 10  1  0  0  0  0
  9 11  1  0  0  0  0
  9 34  1  0  0  0  0
 10 12  1  0  0  0  0
 10 35  1  0  0  0  0
 11 13  1  0  0  0  0
 11 36  1  0  0  0  0
 12 14  1  0  0  0  0
 12 37  1  0  0  0  0
 13 38  1  0  0  0  0
 13 39  1  0  0  0  0
 14 40  1  0  0  0  0
 14 41  1  0  0  0  0
 15 17  1  0  0  0  0
 17 44  1  0  0  0  0
 17 45  1  0  0  0  0
 18 20  1  0  0  0  0
 18 21  1  0  0  0  0
 19 20  2  0  0  0  0
 19 46  1  0  0  0  0
 20 47  1  0  0  0  0
 21 23  2  0  0  0  0
 21 24  1  0  0  0  0
 22 48  1  0  0  0  0
 22 49  1  0  0  0  0
 22 50  1  0  0  0  0
 23 26  1  0  0  0  0
 23 51  1  0  0  0  0
 24 27  2  0  0  0  0
 24 52  1  0  0  0  0
 25 26  2  0  0  0  0
 25 27  1  0  0  0  0
 25 28  1  0  0  0  0
 26 53  1  0  0  0  0
 27 54  1  0  0  0  0
 28 29  2  0  0  0  0
 28 30  1  0  0  0  0
 29 31  1  0  0  0  0
 29 55  1  0  0  0  0
 30 32  2  0  0  0  0
 30 56  1  0  0  0  0
 31 33  2  0  0  0  0
 31 57  1  0  0  0  0
 32 33  1  0  0  0  0
 32 58  1  0  0  0  0
 33 59  1  0  0  0  0
M  END
> <PUBCHEM_COMPOUND_CID>
11913309

> <PUBCHEM_CONFORMER_RMSD>
1

> <PUBCHEM_CONFORMER_DIVERSEORDER>
1
54
44
17
38
56
58
24
69
65
43
32
23
18
42
29
41
71
25
35
34
67
76
66
33
15
22
39
64
61
31
9
10
73
53
30
6
3
74
16
21
26
70
20
37
28
72
77
47
27
14
4
45
59
57
40
2
49
48
52
46
11
13
63
51
12
60
8
19
36
62
75
7
55
50
5
68

> <PUBCHEM_MMFF94_PARTIAL_CHARGES>
43
1 -0.56
10 0.28
11 0.37
12 0.3
13 0.28
14 0.28
15 0.57
16 0.72
17 0.34
18 0.31
19 0.16
2 -0.56
20 -0.15
22 0.28
23 -0.15
24 -0.15
26 -0.15
27 -0.15
29 -0.15
3 -0.57
30 -0.15
31 -0.15
32 -0.15
33 -0.15
4 -0.56
42 0.37
43 0.4
46 0.15
47 0.15
5 -0.73
51 0.15
52 0.15
53 0.15
54 0.15
55 0.15
56 0.15
57 0.15
58 0.15
59 0.15
6 -0.87
7 -0.62
8 -0.62
9 0.28

> <PUBCHEM_EFFECTIVE_ROTOR_COUNT>
9.2

> <PUBCHEM_PHARMACOPHORE_FEATURES>
13
1 1 acceptor
1 2 acceptor
1 3 acceptor
1 4 acceptor
1 5 donor
1 6 donor
1 7 acceptor
4 6 7 8 16 cation
5 1 9 10 11 13 rings
5 2 9 10 12 14 rings
6 21 23 24 25 26 27 rings
6 28 29 30 31 32 33 rings
6 7 8 16 18 19 20 rings

> <PUBCHEM_HEAVY_ATOM_COUNT>
33

> <PUBCHEM_ATOM_DEF_STEREO_COUNT>
4

> <PUBCHEM_ATOM_UDEF_STEREO_COUNT>
0

> <PUBCHEM_BOND_DEF_STEREO_COUNT>
0

> <PUBCHEM_BOND_UDEF_STEREO_COUNT>
0

> <PUBCHEM_ISOTOPIC_ATOM_COUNT>
0

> <PUBCHEM_COMPONENT_COUNT>
1

> <PUBCHEM_CACTVS_TAUTO_COUNT>
6

> <PUBCHEM_CONFORMER_ID>
00B5C85D00000001

> <PUBCHEM_MMFF94_ENERGY>
103.5904

> <PUBCHEM_FEATURE_SELFOVERLAP>
66.687

> <PUBCHEM_SHAPE_FINGERPRINT>
10258705 36 12109437709827590320
10816530 90 18270964531945842486
10864689 126 18131344220170905128
11374522 174 18342748373500708933
11374522 72 18260829255383812621
11410812 94 18054515970710366476
11505856 67 18121216738694922471
1200032 147 18411707568987090314
12013929 29 17825116059182165140
12061779 8 17969226814529868436
12104220 4 18187937230719943140
12342043 65 15214969745746556818
12422481 6 18116141191642305605
12758862 65 11963398440141345596
12975358 362 18267594499048542897
13165054 27 17608961976422343280
13383665 225 18272375304570553143
13944108 23 17984985894908223921
14114211 68 17917159316483209611
14117953 113 17915448420133640195
14251764 75 18411979182592366537
14294032 229 17988639753396598231
14664723 55 18340782471979038564
14747282 540 18270393876631675240
14790565 3 18059562616699700931
14840074 17 17895185671022769972
15145343 54 18268699684174622589
15198563 99 17555435581930054863
15357212 105 18334303093037927246
15406563 185 16702019755943470833
16992727 255 18340769347176037120
1768 23 18114462370530820404
19304671 126 16486966319220608721
19309040 13 18187368770101693706
21344244 78 14346086291323872743
21772528 278 17096652196277032756
23559900 14 17701530707085122839
23569914 152 18128560206191803116
24771750 20 17988650644763787439
345986 75 14274313410989892999
3552219 110 17754727553184875119
38570 142 18114184198626508014
397830 11 18338525136970250539
3986486 107 17060350612483746496
4058900 60 18343585105886041923
4258327 124 18412820279982945789
437795 70 15841281371615844033
4408954 87 13984659312945733304
44880568 143 17910400812520011340
57634706 229 17170122693164243888
57724786 102 18260820489038718442
5874358 3 12319191559910706140
6058803 2 18122875820390461330

> <PUBCHEM_SHAPE_MULTIPOLES>
635.72
21.44
5.41
2.41
10.41
0.73
-0.2
-34
-1.5
-3.38
-4.18
-4
-0.36
-6.65

> <PUBCHEM_SHAPE_SELFOVERLAP>
1389.166

> <PUBCHEM_SHAPE_VOLUME>
344.5

> <PUBCHEM_COORDINATE_TYPE>
2
5
10

$$$$
