45783453
  -OEChem-12032416263D

 53 56  0     1  0  0  0  0  0999 V2000
   -2.5239   -3.3693   -1.9203 O   0  0  0  0  0  0  0  0  0  0  0  0
   -1.8682    2.6334   -0.8959 O   0  0  0  0  0  0  0  0  0  0  0  0
    4.2083   -0.1066    1.0382 O   0  0  0  0  0  0  0  0  0  0  0  0
    5.2646   -2.5588    0.1908 O   0  0  0  0  0  0  0  0  0  0  0  0
   -3.2160   -0.3003    0.8597 N   0  0  1  0  0  0  0  0  0  0  0  0
   -0.6723    1.1516    0.2833 N   0  0  0  0  0  0  0  0  0  0  0  0
   -0.5246    2.8875   -1.1995 N   0  0  0  0  0  0  0  0  0  0  0  0
    2.2108    2.7326   -1.2461 N   0  0  0  0  0  0  0  0  0  0  0  0
   -3.4493   -1.2033   -0.2648 C   0  0  0  0  0  0  0  0  0  0  0  0
   -3.2189    1.1246    0.4723 C   0  0  1  0  0  0  0  0  0  0  0  0
   -4.2311   -0.4469    1.9030 C   0  0  0  0  0  0  0  0  0  0  0  0
   -3.6897    1.8719    1.7337 C   0  0  0  0  0  0  0  0  0  0  0  0
   -3.9854    0.7823    2.7544 C   0  0  0  0  0  0  0  0  0  0  0  0
   -3.4829   -2.6631    0.1983 C   0  0  0  0  0  0  0  0  0  0  0  0
   -2.3660   -1.0168   -1.3311 C   0  0  0  0  0  0  0  0  0  0  0  0
   -3.5928   -3.5973   -1.0018 C   0  0  0  0  0  0  0  0  0  0  0  0
   -2.5377   -2.0422   -2.4464 C   0  0  0  0  0  0  0  0  0  0  0  0
   -1.8660    1.5976   -0.0167 C   0  0  0  0  0  0  0  0  0  0  0  0
    0.1180    1.9736   -0.4662 C   0  0  0  0  0  0  0  0  0  0  0  0
    1.5476    1.8564   -0.4588 C   0  0  0  0  0  0  0  0  0  0  0  0
    2.1659    0.8921    0.3208 C   0  0  0  0  0  0  0  0  0  0  0  0
    3.5543    0.8226    0.2903 C   0  0  0  0  0  0  0  0  0  0  0  0
    3.5593    2.6348   -1.2500 C   0  0  0  0  0  0  0  0  0  0  0  0
    4.2718    1.7070   -0.5076 C   0  0  0  0  0  0  0  0  0  0  0  0
    3.5263   -1.3346    1.2910 C   0  0  0  0  0  0  0  0  0  0  0  0
    4.5456   -2.4508    1.4134 C   0  0  0  0  0  0  0  0  0  0  0  0
    6.2521   -3.5782    0.2560 C   0  0  0  0  0  0  0  0  0  0  0  0
   -4.4217   -0.9761   -0.7262 H   0  0  0  0  0  0  0  0  0  0  0  0
   -3.9608    1.3099   -0.3176 H   0  0  0  0  0  0  0  0  0  0  0  0
   -4.0993   -1.3513    2.5046 H   0  0  0  0  0  0  0  0  0  0  0  0
   -5.2496   -0.4275    1.4950 H   0  0  0  0  0  0  0  0  0  0  0  0
   -4.6100    2.4260    1.5119 H   0  0  0  0  0  0  0  0  0  0  0  0
   -2.9555    2.5838    2.1262 H   0  0  0  0  0  0  0  0  0  0  0  0
   -3.1126    0.6320    3.4020 H   0  0  0  0  0  0  0  0  0  0  0  0
   -4.8410    1.0314    3.3890 H   0  0  0  0  0  0  0  0  0  0  0  0
   -4.3282   -2.8627    0.8652 H   0  0  0  0  0  0  0  0  0  0  0  0
   -2.5599   -2.8957    0.7455 H   0  0  0  0  0  0  0  0  0  0  0  0
   -1.3730   -1.1573   -0.8867 H   0  0  0  0  0  0  0  0  0  0  0  0
   -2.4134   -0.0352   -1.8089 H   0  0  0  0  0  0  0  0  0  0  0  0
   -3.5297   -4.6384   -0.6698 H   0  0  0  0  0  0  0  0  0  0  0  0
   -4.5513   -3.4723   -1.5192 H   0  0  0  0  0  0  0  0  0  0  0  0
   -3.4704   -1.8794   -2.9995 H   0  0  0  0  0  0  0  0  0  0  0  0
   -1.7117   -1.9585   -3.1599 H   0  0  0  0  0  0  0  0  0  0  0  0
    1.5782    0.2367    0.9547 H   0  0  0  0  0  0  0  0  0  0  0  0
    4.0718    3.3469   -1.8883 H   0  0  0  0  0  0  0  0  0  0  0  0
    5.3549    1.6753   -0.5510 H   0  0  0  0  0  0  0  0  0  0  0  0
    2.8558   -1.5939    0.4615 H   0  0  0  0  0  0  0  0  0  0  0  0
    2.9531   -1.2455    2.2201 H   0  0  0  0  0  0  0  0  0  0  0  0
    5.2510   -2.2198    2.2201 H   0  0  0  0  0  0  0  0  0  0  0  0
    4.0405   -3.3977    1.6335 H   0  0  0  0  0  0  0  0  0  0  0  0
    6.9862   -3.3523    1.0355 H   0  0  0  0  0  0  0  0  0  0  0  0
    5.7878   -4.5508    0.4452 H   0  0  0  0  0  0  0  0  0  0  0  0
    6.7681   -3.6196   -0.7070 H   0  0  0  0  0  0  0  0  0  0  0  0
  1 16  1  0  0  0  0
  1 17  1  0  0  0  0
  2  7  1  0  0  0  0
  2 18  1  0  0  0  0
  3 22  1  0  0  0  0
  3 25  1  0  0  0  0
  4 26  1  0  0  0  0
  4 27  1  0  0  0  0
  5  9  1  0  0  0  0
  5 10  1  0  0  0  0
  5 11  1  0  0  0  0
  6 18  2  0  0  0  0
  6 19  1  0  0  0  0
  7 19  2  0  0  0  0
  8 20  2  0  0  0  0
  8 23  1  0  0  0  0
  9 14  1  0  0  0  0
  9 15  1  0  0  0  0
  9 28  1  0  0  0  0
 10 12  1  0  0  0  0
 10 18  1  0  0  0  0
 10 29  1  0  0  0  0
 11 13  1  0  0  0  0
 11 30  1  0  0  0  0
 11 31  1  0  0  0  0
 12 13  1  0  0  0  0
 12 32  1  0  0  0  0
 12 33  1  0  0  0  0
 13 34  1  0  0  0  0
 13 35  1  0  0  0  0
 14 16  1  0  0  0  0
 14 36  1  0  0  0  0
 14 37  1  0  0  0  0
 15 17  1  0  0  0  0
 15 38  1  0  0  0  0
 15 39  1  0  0  0  0
 16 40  1  0  0  0  0
 16 41  1  0  0  0  0
 17 42  1  0  0  0  0
 17 43  1  0  0  0  0
 19 20  1  0  0  0  0
 20 21  1  0  0  0  0
 21 22  2  0  0  0  0
 21 44  1  0  0  0  0
 22 24  1  0  0  0  0
 23 24  2  0  0  0  0
 23 45  1  0  0  0  0
 24 46  1  0  0  0  0
 25 26  1  0  0  0  0
 25 47  1  0  0  0  0
 25 48  1  0  0  0  0
 26 49  1  0  0  0  0
 26 50  1  0  0  0  0
 27 51  1  0  0  0  0
 27 52  1  0  0  0  0
 27 53  1  0  0  0  0
M  END
> <PUBCHEM_COMPOUND_CID>
45783453

> <PUBCHEM_CONFORMER_RMSD>
1

> <PUBCHEM_CONFORMER_DIVERSEORDER>
1
70
25
50
10
44
9
61
68
7
28
75
42
74
17
40
54
73
39
13
29
15
35
37
62
53
63
52
43
18
67
24
33
78
45
38
57
60
6
23
8
27
71
58
22
4
46
72
41
21
3
12
51
69
26
14
65
31
19
20
56
77
55
5
47
30
49
76
32
66
59
11
64
2
36
34
48
16

> <PUBCHEM_MMFF94_PARTIAL_CHARGES>
26
1 -0.56
10 0.45
11 0.27
16 0.28
17 0.28
18 0.3
19 0.46
2 -0.02
20 0.36
21 -0.15
22 0.08
23 0.16
24 -0.15
25 0.28
26 0.28
27 0.28
3 -0.36
4 -0.56
44 0.15
45 0.15
46 0.15
5 -0.81
6 -0.57
7 -0.41
8 -0.62
9 0.27

> <PUBCHEM_EFFECTIVE_ROTOR_COUNT>
9.2

> <PUBCHEM_PHARMACOPHORE_FEATURES>
10
1 1 acceptor
1 3 acceptor
1 4 acceptor
1 5 cation
1 8 acceptor
3 6 7 19 cation
5 2 6 7 18 19 rings
5 5 10 11 12 13 rings
6 1 9 14 15 16 17 rings
6 8 20 21 22 23 24 rings

> <PUBCHEM_HEAVY_ATOM_COUNT>
27

> <PUBCHEM_ATOM_DEF_STEREO_COUNT>
1

> <PUBCHEM_ATOM_UDEF_STEREO_COUNT>
0

> <PUBCHEM_BOND_DEF_STEREO_COUNT>
0

> <PUBCHEM_BOND_UDEF_STEREO_COUNT>
0

> <PUBCHEM_ISOTOPIC_ATOM_COUNT>
0

> <PUBCHEM_COMPONENT_COUNT>
1

> <PUBCHEM_CACTVS_TAUTO_COUNT>
1

> <PUBCHEM_CONFORMER_ID>
02BA999D00000001

> <PUBCHEM_MMFF94_ENERGY>
58.6452

> <PUBCHEM_FEATURE_SELFOVERLAP>
50.752

> <PUBCHEM_SHAPE_FINGERPRINT>
10042902 136 18411978023784808798
10448021 39 17980743150473783847
10622 236 18197765794877555487
10928967 22 18261954038377527482
11135926 11 17751084815738258996
11552529 35 17988362692822847521
12107183 9 18047203950963514809
12174731 88 18192704558371840058
12422481 6 18129665188690171230
12633257 1 18130509634815051594
12717326 68 17703217550567925982
12788726 201 17698460045795883039
13004483 165 17271167845931707533
13690498 29 17896609371546143188
13911987 19 16883581247417639228
14100547 121 18202280295110388575
14114206 34 16951118448874352488
14279260 333 17317325009043647602
14848178 96 11239991248909202688
14950920 106 17704065184085768112
15250474 111 18340205301372569010
15537594 2 18335717069185708428
16110190 28 18341054008743934258
16728300 4 18337966662056409483
20554085 129 17131002954095225753
20681651 13 18271246139781800345
20775530 9 18188766146538427840
21033648 29 14764354799184953289
235170 7 15068342328182397178
23559900 14 18041275457639555992
345986 75 17842555434146760199
3737641 26 18187654608886470204
4017518 198 17769082458799591479
44880168 125 17840857483235582330
56633871 153 18411703153834868075
57816373 69 18130223757781738268
602551 16 17488198164630394900
7970288 3 18122621927318815351

> <PUBCHEM_SHAPE_MULTIPOLES>
512.25
12.03
4.8
2.05
12.88
3.06
-0.28
9.36
-4.29
2.23
1.89
-2.29
0.41
-4.37

> <PUBCHEM_SHAPE_SELFOVERLAP>
1085.174

> <PUBCHEM_SHAPE_VOLUME>
286.8

> <PUBCHEM_COORDINATE_TYPE>
2
5
10

$$$$
