28991037
  -OEChem-12032416163D

 52 55  0     1  0  0  0  0  0999 V2000
   -4.1379   -0.0344   -0.2076 S   0  0  0  0  0  0  0  0  0  0  0  0
   -2.7180   -1.9195    1.5311 S   0  0  0  0  0  0  0  0  0  0  0  0
    4.9044   -2.6859   -0.3387 O   0  0  0  0  0  0  0  0  0  0  0  0
   -4.5657    0.0946   -1.5875 O   0  0  0  0  0  0  0  0  0  0  0  0
   -5.1170   -0.0375    0.8624 O   0  0  0  0  0  0  0  0  0  0  0  0
    0.2932    2.6257   -1.1697 N   0  0  2  0  0  0  0  0  0  0  0  0
    2.8865   -0.7210    0.0717 N   0  0  0  0  0  0  0  0  0  0  0  0
   -2.9371    1.1436    0.1147 N   0  0  0  0  0  0  0  0  0  0  0  0
    1.1481    2.4924    1.2835 C   0  0  2  0  0  0  0  0  0  0  0  0
    1.9442    1.5337    0.3690 C   0  0  2  0  0  0  0  0  0  0  0  0
   -0.8470    2.3826   -0.2453 C   0  0  2  0  0  0  0  0  0  0  0  0
   -0.3508    2.1503    1.1992 C   0  0  0  0  0  0  0  0  0  0  0  0
    1.3023    1.5472   -1.0365 C   0  0  0  0  0  0  0  0  0  0  0  0
    1.3255    3.9104    0.7078 C   0  0  0  0  0  0  0  0  0  0  0  0
    0.9317    3.9065   -0.7800 C   0  0  0  0  0  0  0  0  0  0  0  0
    2.0480    0.1162    0.9271 C   0  0  0  0  0  0  0  0  0  0  0  0
   -1.7545    1.2469   -0.7240 C   0  0  0  0  0  0  0  0  0  0  0  0
    2.6351   -2.1459    0.3284 C   0  0  0  0  0  0  0  0  0  0  0  0
    4.3093   -0.4160    0.2765 C   0  0  0  0  0  0  0  0  0  0  0  0
    3.5299   -2.9993   -0.5660 C   0  0  0  0  0  0  0  0  0  0  0  0
    5.1641   -1.3095   -0.6176 C   0  0  0  0  0  0  0  0  0  0  0  0
   -3.2102   -1.5320   -0.0626 C   0  0  0  0  0  0  0  0  0  0  0  0
   -2.7898   -2.4731   -0.9766 C   0  0  0  0  0  0  0  0  0  0  0  0
   -2.0542   -3.5263   -0.3604 C   0  0  0  0  0  0  0  0  0  0  0  0
   -1.9402   -3.3500    1.0010 C   0  0  0  0  0  0  0  0  0  0  0  0
    1.5028    2.4492    2.3186 H   0  0  0  0  0  0  0  0  0  0  0  0
    2.9515    1.9617    0.2883 H   0  0  0  0  0  0  0  0  0  0  0  0
   -1.4708    3.2889   -0.2445 H   0  0  0  0  0  0  0  0  0  0  0  0
   -0.5184    1.1220    1.5357 H   0  0  0  0  0  0  0  0  0  0  0  0
   -0.9109    2.7999    1.8838 H   0  0  0  0  0  0  0  0  0  0  0  0
    2.0877    1.7013   -1.7887 H   0  0  0  0  0  0  0  0  0  0  0  0
    0.8541    0.5827   -1.2989 H   0  0  0  0  0  0  0  0  0  0  0  0
    2.3651    4.2407    0.8171 H   0  0  0  0  0  0  0  0  0  0  0  0
    0.6995    4.6203    1.2618 H   0  0  0  0  0  0  0  0  0  0  0  0
    0.2517    4.7418   -0.9880 H   0  0  0  0  0  0  0  0  0  0  0  0
    1.8153    4.0860   -1.4056 H   0  0  0  0  0  0  0  0  0  0  0  0
    1.0403   -0.3148    0.9727 H   0  0  0  0  0  0  0  0  0  0  0  0
    2.4209    0.1324    1.9596 H   0  0  0  0  0  0  0  0  0  0  0  0
   -1.2140    0.2964   -0.6963 H   0  0  0  0  0  0  0  0  0  0  0  0
   -2.0651    1.4309   -1.7588 H   0  0  0  0  0  0  0  0  0  0  0  0
   -2.7545    1.2883    1.1161 H   0  0  0  0  0  0  0  0  0  0  0  0
    1.5884   -2.3940    0.1170 H   0  0  0  0  0  0  0  0  0  0  0  0
    2.8360   -2.3830    1.3813 H   0  0  0  0  0  0  0  0  0  0  0  0
    4.5880   -0.5823    1.3253 H   0  0  0  0  0  0  0  0  0  0  0  0
    4.5426    0.6227    0.0253 H   0  0  0  0  0  0  0  0  0  0  0  0
    3.3873   -4.0593   -0.3328 H   0  0  0  0  0  0  0  0  0  0  0  0
    3.2928   -2.8584   -1.6277 H   0  0  0  0  0  0  0  0  0  0  0  0
    4.9828   -1.1106   -1.6810 H   0  0  0  0  0  0  0  0  0  0  0  0
    6.2256   -1.1259   -0.4227 H   0  0  0  0  0  0  0  0  0  0  0  0
   -2.9975   -2.4113   -2.0371 H   0  0  0  0  0  0  0  0  0  0  0  0
   -1.6292   -4.3697   -0.8889 H   0  0  0  0  0  0  0  0  0  0  0  0
   -1.4365   -3.9922    1.7096 H   0  0  0  0  0  0  0  0  0  0  0  0
  1  4  2  0  0  0  0
  1  5  2  0  0  0  0
  1  8  1  0  0  0  0
  1 22  1  0  0  0  0
  2 22  1  0  0  0  0
  2 25  1  0  0  0  0
  3 20  1  0  0  0  0
  3 21  1  0  0  0  0
  6 11  1  0  0  0  0
  6 13  1  0  0  0  0
  6 15  1  0  0  0  0
  7 16  1  0  0  0  0
  7 18  1  0  0  0  0
  7 19  1  0  0  0  0
  8 17  1  0  0  0  0
  8 41  1  0  0  0  0
  9 10  1  0  0  0  0
  9 12  1  0  0  0  0
  9 14  1  0  0  0  0
  9 26  1  0  0  0  0
 10 13  1  0  0  0  0
 10 16  1  0  0  0  0
 10 27  1  0  0  0  0
 11 12  1  0  0  0  0
 11 17  1  0  0  0  0
 11 28  1  0  0  0  0
 12 29  1  0  0  0  0
 12 30  1  0  0  0  0
 13 31  1  0  0  0  0
 13 32  1  0  0  0  0
 14 15  1  0  0  0  0
 14 33  1  0  0  0  0
 14 34  1  0  0  0  0
 15 35  1  0  0  0  0
 15 36  1  0  0  0  0
 16 37  1  0  0  0  0
 16 38  1  0  0  0  0
 17 39  1  0  0  0  0
 17 40  1  0  0  0  0
 18 20  1  0  0  0  0
 18 42  1  0  0  0  0
 18 43  1  0  0  0  0
 19 21  1  0  0  0  0
 19 44  1  0  0  0  0
 19 45  1  0  0  0  0
 20 46  1  0  0  0  0
 20 47  1  0  0  0  0
 21 48  1  0  0  0  0
 21 49  1  0  0  0  0
 22 23  2  0  0  0  0
 23 24  1  0  0  0  0
 23 50  1  0  0  0  0
 24 25  2  0  0  0  0
 24 51  1  0  0  0  0
 25 52  1  0  0  0  0
M  END
> <PUBCHEM_COMPOUND_CID>
28991037

> <PUBCHEM_CONFORMER_RMSD>
1

> <PUBCHEM_CONFORMER_DIVERSEORDER>
1
6
26
92
75
68
51
77
38
96
71
50
91
4
87
86
85
20
83
64
66
72
70
43
88
30
17
10
97
89
80
49
32
95
21
69
60
44
93
47
14
62
5
61
41
73
36
59
37
54
29
79
9
23
33
18
27
52
53
82
48
8
28
98
78
42
2
63
84
3
40
15
45
7
94
67
12
34
57
74
25
35
55
76
19
65
39
58
56
24
31
13
90
46
16
81
22
11

> <PUBCHEM_MMFF94_PARTIAL_CHARGES>
25
1 1.5
11 0.27
13 0.27
15 0.27
16 0.27
17 0.36
18 0.27
19 0.27
2 -0.08
20 0.28
21 0.28
22 -0.02
23 -0.15
24 -0.15
25 -0.11
3 -0.56
4 -0.65
41 0.42
5 -0.65
50 0.15
51 0.15
52 0.15
6 -0.81
7 -0.81
8 -0.91

> <PUBCHEM_EFFECTIVE_ROTOR_COUNT>
8.4

> <PUBCHEM_PHARMACOPHORE_FEATURES>
9
1 3 acceptor
1 4 acceptor
1 5 acceptor
1 6 cation
1 7 cation
1 8 donor
5 2 22 23 24 25 rings
6 3 7 18 19 20 21 rings
8 6 9 10 11 12 13 14 15 rings

> <PUBCHEM_HEAVY_ATOM_COUNT>
25

> <PUBCHEM_ATOM_DEF_STEREO_COUNT>
3

> <PUBCHEM_ATOM_UDEF_STEREO_COUNT>
0

> <PUBCHEM_BOND_DEF_STEREO_COUNT>
0

> <PUBCHEM_BOND_UDEF_STEREO_COUNT>
0

> <PUBCHEM_ISOTOPIC_ATOM_COUNT>
0

> <PUBCHEM_COMPONENT_COUNT>
1

> <PUBCHEM_CACTVS_TAUTO_COUNT>
1

> <PUBCHEM_CONFORMER_ID>
01BA5E3D00000001

> <PUBCHEM_MMFF94_ENERGY>
47.928

> <PUBCHEM_FEATURE_SELFOVERLAP>
45.689

> <PUBCHEM_SHAPE_FINGERPRINT>
10616163 171 17758955214089427049
11069576 57 17694201662620147039
11135609 12 17971474245870462657
12539773 59 14024019165906982536
12553582 1 18336536140654795426
12596602 18 15051435129398165678
12633257 1 18272662259371215991
12788726 201 18119524341344386378
12969540 37 18267296707047124684
13004483 165 18337668590713942138
13122387 1 17689715259846916275
13402501 40 18339642235339337119
13533116 47 18127404782173254207
14251740 79 17977951185529001602
14251757 5 18264214625562191006
14363568 33 18122084240663254818
17492 89 18123185968436581359
20600515 1 18267320762815792525
20775438 99 17622119828225247999
20775530 9 18410009970136318042
22113638 7 18412259528156507359
23559900 14 18339350993780919201
3027735 51 17618495489542736665
4280585 95 18335127696951944672
463206 1 18408892840789732906
6287921 2 17903360651349066899
6433294 58 18338517542475994982
9709674 26 18192140723580458067

> <PUBCHEM_SHAPE_MULTIPOLES>
489.64
9.07
5.51
1.28
0.09
0.63
-0.1
-7.6
1.03
-2.61
0.13
0.6
0.21
0.94

> <PUBCHEM_SHAPE_SELFOVERLAP>
999.913

> <PUBCHEM_SHAPE_VOLUME>
285.4

> <PUBCHEM_COORDINATE_TYPE>
2
5
10

$$$$
