26743976
  -OEChem-12032416283D

 46 49  0     1  0  0  0  0  0999 V2000
    4.3279   -3.4641    0.6775 O   0  0  0  0  0  0  0  0  0  0  0  0
    0.0440   -0.5855   -2.2008 O   0  0  0  0  0  0  0  0  0  0  0  0
    1.3689    1.5235    2.0391 O   0  0  0  0  0  0  0  0  0  0  0  0
    2.6324   -0.3601    0.1656 N   0  0  1  0  0  0  0  0  0  0  0  0
   -0.3979   -1.1576   -0.0809 N   0  0  0  0  0  0  0  0  0  0  0  0
   -1.3442   -0.4768   -2.0493 N   0  0  0  0  0  0  0  0  0  0  0  0
   -5.2114   -0.5464   -0.3618 N   0  0  0  0  0  0  0  0  0  0  0  0
    2.0218   -1.1853   -0.8964 C   0  0  1  0  0  0  0  0  0  0  0  0
    2.4132   -2.6326   -0.5446 C   0  0  0  0  0  0  0  0  0  0  0  0
    3.2799   -2.5146    0.7029 C   0  0  2  0  0  0  0  0  0  0  0  0
    3.8059   -1.0934    0.6364 C   0  0  0  0  0  0  0  0  0  0  0  0
    2.9684    0.9873   -0.2756 C   0  0  0  0  0  0  0  0  0  0  0  0
    0.5234   -0.9916   -0.9960 C   0  0  0  0  0  0  0  0  0  0  0  0
    1.7616    1.8873   -0.2977 C   0  0  0  0  0  0  0  0  0  0  0  0
    1.0191    2.1127    0.8613 C   0  0  0  0  0  0  0  0  0  0  0  0
    1.3885    2.4982   -1.4949 C   0  0  0  0  0  0  0  0  0  0  0  0
   -1.5270   -0.8299   -0.7736 C   0  0  0  0  0  0  0  0  0  0  0  0
   -0.0966    2.9489    0.8232 C   0  0  0  0  0  0  0  0  0  0  0  0
    0.2727    3.3345   -1.5330 C   0  0  0  0  0  0  0  0  0  0  0  0
   -2.8237   -0.8673   -0.1614 C   0  0  0  0  0  0  0  0  0  0  0  0
   -0.4700    3.5598   -0.3740 C   0  0  0  0  0  0  0  0  0  0  0  0
   -2.9781   -1.2413    1.1688 C   0  0  0  0  0  0  0  0  0  0  0  0
   -3.9618   -0.5322   -0.8772 C   0  0  0  0  0  0  0  0  0  0  0  0
    0.5535    1.8097    3.1737 C   0  0  0  0  0  0  0  0  0  0  0  0
   -4.2481   -1.2682    1.7347 C   0  0  0  0  0  0  0  0  0  0  0  0
   -5.3223   -0.9150    0.9341 C   0  0  0  0  0  0  0  0  0  0  0  0
    2.4720   -0.9561   -1.8726 H   0  0  0  0  0  0  0  0  0  0  0  0
    1.5531   -3.2833   -0.3495 H   0  0  0  0  0  0  0  0  0  0  0  0
    2.9780   -3.0835   -1.3702 H   0  0  0  0  0  0  0  0  0  0  0  0
    2.6793   -2.6653    1.6083 H   0  0  0  0  0  0  0  0  0  0  0  0
    4.1435   -0.7485    1.6194 H   0  0  0  0  0  0  0  0  0  0  0  0
    4.6535   -1.0224   -0.0581 H   0  0  0  0  0  0  0  0  0  0  0  0
    3.6782    1.4457    0.4276 H   0  0  0  0  0  0  0  0  0  0  0  0
    3.4844    0.9787   -1.2447 H   0  0  0  0  0  0  0  0  0  0  0  0
    3.9214   -4.3469    0.6453 H   0  0  0  0  0  0  0  0  0  0  0  0
    1.9553    2.3307   -2.4068 H   0  0  0  0  0  0  0  0  0  0  0  0
   -0.7216    3.1696    1.6816 H   0  0  0  0  0  0  0  0  0  0  0  0
   -0.0188    3.8090   -2.4654 H   0  0  0  0  0  0  0  0  0  0  0  0
   -1.3393    4.2103   -0.4052 H   0  0  0  0  0  0  0  0  0  0  0  0
   -2.1278   -1.5156    1.7879 H   0  0  0  0  0  0  0  0  0  0  0  0
   -3.9274   -0.2295   -1.9196 H   0  0  0  0  0  0  0  0  0  0  0  0
    0.5859    2.8724    3.4373 H   0  0  0  0  0  0  0  0  0  0  0  0
   -0.4699    1.4432    3.0375 H   0  0  0  0  0  0  0  0  0  0  0  0
    0.9767    1.2597    4.0207 H   0  0  0  0  0  0  0  0  0  0  0  0
   -4.3925   -1.5561    2.7696 H   0  0  0  0  0  0  0  0  0  0  0  0
   -6.3334   -0.9196    1.3278 H   0  0  0  0  0  0  0  0  0  0  0  0
  1 10  1  0  0  0  0
  1 35  1  0  0  0  0
  2  6  1  0  0  0  0
  2 13  1  0  0  0  0
  3 15  1  0  0  0  0
  3 24  1  0  0  0  0
  4  8  1  0  0  0  0
  4 11  1  0  0  0  0
  4 12  1  0  0  0  0
  5 13  2  0  0  0  0
  5 17  1  0  0  0  0
  6 17  2  0  0  0  0
  7 23  1  0  0  0  0
  7 26  2  0  0  0  0
  8  9  1  0  0  0  0
  8 13  1  0  0  0  0
  8 27  1  0  0  0  0
  9 10  1  0  0  0  0
  9 28  1  0  0  0  0
  9 29  1  0  0  0  0
 10 11  1  0  0  0  0
 10 30  1  0  0  0  0
 11 31  1  0  0  0  0
 11 32  1  0  0  0  0
 12 14  1  0  0  0  0
 12 33  1  0  0  0  0
 12 34  1  0  0  0  0
 14 15  1  0  0  0  0
 14 16  2  0  0  0  0
 15 18  2  0  0  0  0
 16 19  1  0  0  0  0
 16 36  1  0  0  0  0
 17 20  1  0  0  0  0
 18 21  1  0  0  0  0
 18 37  1  0  0  0  0
 19 21  2  0  0  0  0
 19 38  1  0  0  0  0
 20 22  1  0  0  0  0
 20 23  2  0  0  0  0
 21 39  1  0  0  0  0
 22 25  2  0  0  0  0
 22 40  1  0  0  0  0
 23 41  1  0  0  0  0
 24 42  1  0  0  0  0
 24 43  1  0  0  0  0
 24 44  1  0  0  0  0
 25 26  1  0  0  0  0
 25 45  1  0  0  0  0
 26 46  1  0  0  0  0
M  END
> <PUBCHEM_COMPOUND_CID>
26743976

> <PUBCHEM_CONFORMER_RMSD>
0.8

> <PUBCHEM_CONFORMER_DIVERSEORDER>
1
222
95
53
26
135
123
186
224
39
188
196
203
180
47
80
175
143
148
169
88
223
11
94
76
193
201
200
37
183
98
205
109
133
93
191
178
85
217
136
124
197
92
28
187
170
152
207
199
4
114
15
211
51
96
226
155
202
18
232
150
163
153
181
212
120
13
74
103
166
130
194
156
195
48
68
100
21
214
128
12
209
72
108
154
41
3
104
127
40
8
219
86
122
206
23
179
230
90
113
99
111
116
215
31
87
19
54
131
5
190
81
129
46
213
70
110
63
64
192
151
185
97
55
141
173
139
27
58
144
145
66
220
35
160
229
83
30
106
159
189
126
49
184
20
62
71
167
161
140
142
107
25
231
101
43
24
89
228
6
146
59
208
105
112
34
17
60
216
138
2
168
67
132
14
225
38
45
22
125
182
65
218
102
157
29
164
52
117
16
210
198
61
56
134
118
174
36
57
33
162
119
50
78
69
149
204
176
121
42
9
147
137
32
10
221
158
227
165
77
177
7
73
75
171
79
44
172
115
82
91
84

> <PUBCHEM_MMFF94_PARTIAL_CHARGES>
34
1 -0.68
10 0.28
11 0.27
12 0.41
13 0.3
14 -0.14
15 0.08
16 -0.15
17 0.46
18 -0.15
19 -0.15
2 -0.02
20 0.05
21 -0.15
22 -0.15
23 0.16
24 0.28
25 -0.15
26 0.16
3 -0.36
35 0.4
36 0.15
37 0.15
38 0.15
39 0.15
4 -0.81
40 0.15
41 0.15
45 0.15
46 0.15
5 -0.57
6 -0.41
7 -0.62
8 0.45

> <PUBCHEM_EFFECTIVE_ROTOR_COUNT>
6

> <PUBCHEM_PHARMACOPHORE_FEATURES>
10
1 1 acceptor
1 1 donor
1 3 acceptor
1 4 cation
1 7 acceptor
3 5 6 17 cation
5 2 5 6 13 17 rings
5 4 8 9 10 11 rings
6 14 15 16 18 19 21 rings
6 7 20 22 23 25 26 rings

> <PUBCHEM_HEAVY_ATOM_COUNT>
26

> <PUBCHEM_ATOM_DEF_STEREO_COUNT>
2

> <PUBCHEM_ATOM_UDEF_STEREO_COUNT>
0

> <PUBCHEM_BOND_DEF_STEREO_COUNT>
0

> <PUBCHEM_BOND_UDEF_STEREO_COUNT>
0

> <PUBCHEM_ISOTOPIC_ATOM_COUNT>
0

> <PUBCHEM_COMPONENT_COUNT>
1

> <PUBCHEM_CACTVS_TAUTO_COUNT>
1

> <PUBCHEM_CONFORMER_ID>
019814A800000001

> <PUBCHEM_MMFF94_ENERGY>
67.2661

> <PUBCHEM_FEATURE_SELFOVERLAP>
50.747

> <PUBCHEM_SHAPE_FINGERPRINT>
10119406 146 15466364055785818118
10382601 240 18199741621693723312
104564 63 18272097050049057260
10688039 33 18261954046407708076
11244481 83 17460024304523607585
12156800 1 17613120037371601089
12422481 6 17986403178671680593
12633257 1 17825094063725207051
128993 33 17188987142193610909
13134695 92 18343295989924718669
13135754 10 17555468232175914294
13583140 156 18193282012619444639
13965767 371 17704066313546166858
14178342 30 17622986302941645186
14790565 3 17976823417264270028
14840074 17 18194102226977074744
14866123 147 16963783533894038771
151778 21 17901962055795398093
15420108 30 17487597848925254222
17980427 23 15050864508326796099
21041028 32 18339357466037775388
23419403 2 17771310164178918896
23559900 14 18040432226862793599
3380486 145 17770743941507545990
345986 75 18129944481548929706
35225 105 17254861679578723323
469060 322 18044948874447685826
474 4 18125160687198361295
484985 159 17248076619373771898
513532 50 14331469293792589561
539174 4 17844232141759620301
57527573 199 17055276567984629200
5895379 119 15266245646606148497
6442390 28 17181955760806589163
6786 2 17178868302280966420
7097593 13 18339643468116224999
81228 2 17836668330525770167
8509985 295 18130796654969049115

> <PUBCHEM_SHAPE_MULTIPOLES>
497.54
7.8
4.12
2.08
9.86
2.12
-0.94
-7.09
-2.01
-4.1
-0.06
0.21
0.93
-0.02

> <PUBCHEM_SHAPE_SELFOVERLAP>
1083.346

> <PUBCHEM_SHAPE_VOLUME>
271.9

> <PUBCHEM_COORDINATE_TYPE>
2
5
10

$$$$
