75537101
  -OEChem-12032416333D

 41 43  0     1  0  0  0  0  0999 V2000
    5.2915    0.4802    0.0090 O   0  0  0  0  0  0  0  0  0  0  0  0
   -4.4799   -1.8458    0.6682 O   0  0  0  0  0  0  0  0  0  0  0  0
    2.9537    0.5072   -0.2206 N   0  0  0  0  0  0  0  0  0  0  0  0
    0.2783    1.2369    0.2492 N   0  0  2  0  0  0  0  0  0  0  0  0
    3.9969   -1.4814   -0.1912 N   0  0  0  0  0  0  0  0  0  0  0  0
    1.9061   -0.4564   -0.4860 C   0  0  2  0  0  0  0  0  0  0  0  0
    0.6887   -0.1745    0.3939 C   0  0  0  0  0  0  0  0  0  0  0  0
    2.5809   -1.8036   -0.2358 C   0  0  0  0  0  0  0  0  0  0  0  0
    2.6281    1.9179   -0.1906 C   0  0  0  0  0  0  0  0  0  0  0  0
    1.3702    2.1467    0.6512 C   0  0  0  0  0  0  0  0  0  0  0  0
    4.2171   -0.0910   -0.1221 C   0  0  0  0  0  0  0  0  0  0  0  0
   -0.9228    1.5017    1.0409 C   0  0  0  0  0  0  0  0  0  0  0  0
    5.0126   -2.5047   -0.0783 C   0  0  0  0  0  0  0  0  0  0  0  0
   -2.1630    0.9700    0.3730 C   0  0  0  0  0  0  0  0  0  0  0  0
   -2.7549   -0.2053    0.8358 C   0  0  0  0  0  0  0  0  0  0  0  0
   -2.7197    1.6522   -0.7089 C   0  0  0  0  0  0  0  0  0  0  0  0
   -3.9035   -0.6985    0.2168 C   0  0  0  0  0  0  0  0  0  0  0  0
   -3.8683    1.1589   -1.3280 C   0  0  0  0  0  0  0  0  0  0  0  0
   -4.4604   -0.0163   -0.8651 C   0  0  0  0  0  0  0  0  0  0  0  0
   -5.6517   -2.2944   -0.0114 C   0  0  0  0  0  0  0  0  0  0  0  0
    1.6428   -0.3594   -1.5476 H   0  0  0  0  0  0  0  0  0  0  0  0
   -0.1100   -0.8558    0.0817 H   0  0  0  0  0  0  0  0  0  0  0  0
    0.9195   -0.3953    1.4450 H   0  0  0  0  0  0  0  0  0  0  0  0
    2.3010   -2.2479    0.7249 H   0  0  0  0  0  0  0  0  0  0  0  0
    2.3847   -2.5180   -1.0409 H   0  0  0  0  0  0  0  0  0  0  0  0
    2.4615    2.2353   -1.2264 H   0  0  0  0  0  0  0  0  0  0  0  0
    3.4783    2.4826    0.2047 H   0  0  0  0  0  0  0  0  0  0  0  0
    1.6106    2.0001    1.7127 H   0  0  0  0  0  0  0  0  0  0  0  0
    1.0602    3.1909    0.5248 H   0  0  0  0  0  0  0  0  0  0  0  0
   -1.0720    2.5846    1.1564 H   0  0  0  0  0  0  0  0  0  0  0  0
   -0.8294    1.1150    2.0649 H   0  0  0  0  0  0  0  0  0  0  0  0
    4.8568   -3.0527    0.8548 H   0  0  0  0  0  0  0  0  0  0  0  0
    6.0073   -2.0520   -0.0715 H   0  0  0  0  0  0  0  0  0  0  0  0
    4.9235   -3.1867   -0.9277 H   0  0  0  0  0  0  0  0  0  0  0  0
   -2.3266   -0.7428    1.6784 H   0  0  0  0  0  0  0  0  0  0  0  0
   -2.2678    2.5687   -1.0789 H   0  0  0  0  0  0  0  0  0  0  0  0
   -4.3008    1.6908   -2.1706 H   0  0  0  0  0  0  0  0  0  0  0  0
   -5.3504   -0.3430   -1.3919 H   0  0  0  0  0  0  0  0  0  0  0  0
   -5.9757   -3.2184    0.4786 H   0  0  0  0  0  0  0  0  0  0  0  0
   -5.4399   -2.5441   -1.0566 H   0  0  0  0  0  0  0  0  0  0  0  0
   -6.4729   -1.5761    0.0857 H   0  0  0  0  0  0  0  0  0  0  0  0
  1 11  2  0  0  0  0
  2 17  1  0  0  0  0
  2 20  1  0  0  0  0
  3  6  1  0  0  0  0
  3  9  1  0  0  0  0
  3 11  1  0  0  0  0
  4  7  1  0  0  0  0
  4 10  1  0  0  0  0
  4 12  1  0  0  0  0
  5  8  1  0  0  0  0
  5 11  1  0  0  0  0
  5 13  1  0  0  0  0
  6  7  1  0  0  0  0
  6  8  1  0  0  0  0
  6 21  1  0  0  0  0
  7 22  1  0  0  0  0
  7 23  1  0  0  0  0
  8 24  1  0  0  0  0
  8 25  1  0  0  0  0
  9 10  1  0  0  0  0
  9 26  1  0  0  0  0
  9 27  1  0  0  0  0
 10 28  1  0  0  0  0
 10 29  1  0  0  0  0
 12 14  1  0  0  0  0
 12 30  1  0  0  0  0
 12 31  1  0  0  0  0
 13 32  1  0  0  0  0
 13 33  1  0  0  0  0
 13 34  1  0  0  0  0
 14 15  2  0  0  0  0
 14 16  1  0  0  0  0
 15 17  1  0  0  0  0
 15 35  1  0  0  0  0
 16 18  2  0  0  0  0
 16 36  1  0  0  0  0
 17 19  2  0  0  0  0
 18 19  1  0  0  0  0
 18 37  1  0  0  0  0
 19 38  1  0  0  0  0
 20 39  1  0  0  0  0
 20 40  1  0  0  0  0
 20 41  1  0  0  0  0
M  END
> <PUBCHEM_COMPOUND_CID>
75537101

> <PUBCHEM_CONFORMER_RMSD>
0.6

> <PUBCHEM_CONFORMER_DIVERSEORDER>
1
59
51
46
60
52
63
5
61
40
48
50
30
53
31
34
14
23
19
55
57
47
21
49
43
18
38
35
29
16
56
45
3
17
41
10
44
32
54
13
37
25
58
36
26
24
4
7
39
9
6
15
22
12
42
62
28
27
8
33
11
2
20

> <PUBCHEM_MMFF94_PARTIAL_CHARGES>
24
1 -0.57
10 0.27
11 0.69
12 0.41
13 0.3
14 -0.14
15 -0.15
16 -0.15
17 0.08
18 -0.15
19 -0.15
2 -0.36
20 0.28
3 -0.66
35 0.15
36 0.15
37 0.15
38 0.15
4 -0.81
5 -0.66
6 0.3
7 0.27
8 0.3
9 0.3

> <PUBCHEM_EFFECTIVE_ROTOR_COUNT>
4.2

> <PUBCHEM_PHARMACOPHORE_FEATURES>
6
1 1 acceptor
1 2 acceptor
1 4 cation
5 3 5 6 8 11 rings
6 14 15 16 17 18 19 rings
6 3 4 6 7 9 10 rings

> <PUBCHEM_HEAVY_ATOM_COUNT>
20

> <PUBCHEM_ATOM_DEF_STEREO_COUNT>
1

> <PUBCHEM_ATOM_UDEF_STEREO_COUNT>
0

> <PUBCHEM_BOND_DEF_STEREO_COUNT>
0

> <PUBCHEM_BOND_UDEF_STEREO_COUNT>
0

> <PUBCHEM_ISOTOPIC_ATOM_COUNT>
0

> <PUBCHEM_COMPONENT_COUNT>
1

> <PUBCHEM_CACTVS_TAUTO_COUNT>
1

> <PUBCHEM_CONFORMER_ID>
04809ACD00000001

> <PUBCHEM_MMFF94_ENERGY>
57.1339

> <PUBCHEM_FEATURE_SELFOVERLAP>
30.542

> <PUBCHEM_SHAPE_FINGERPRINT>
10447042 23 18342450427017949718
10835480 77 18410564080978823253
11089746 13 14056999459953911782
11796584 16 18261665965855737690
11806522 49 18411984654691853376
12403259 226 18409163311733625180
12553582 1 16988567926485728661
12596602 18 16128377146605195323
12633257 1 17060061514319296407
12892183 10 11743832577907534957
12916754 54 18410015446588580217
13103583 49 17345492525551283323
13402501 40 18337676416419097091
13544653 18 18060415781350391592
13955234 65 17985263225189247161
14123255 352 8862942775474425619
14576447 43 18412831300220122180
15196674 1 18411702054264795570
15352361 1 18411983550584558355
15375462 189 17703509995022302681
15537594 2 18060140997990711903
15961568 22 16951407805011492884
17492 89 18341898429073501142
193927 3 17916875620913227630
19433438 38 18260265252598264157
19784866 170 10447931680503722291
200 152 18130784547198077313
20261772 1 17775565364029931246
20281475 54 18341337751331463097
20645477 56 11023838279590285779
20645477 70 18408323319452017664
21033650 10 16806165432580033076
21267235 1 18343592836921639238
21713013 43 18187077352354599893
221357 26 18408320008390908907
221490 88 18409731789330600784
22393880 68 18041271076318642315
22646028 28 18131070415767998269
23402539 116 18198622129909383826
23403322 49 18410856547219137371
23557571 272 17895186749318205429
23559900 14 18335692858571358693
27216 239 9871457726067085645
2838139 119 8934733158449321179
2871803 45 18187640358200754611
314194 84 17989199343819897886
3268164 11 16732695052547768077
329604 57 18409732880241634079
4214541 1 18336265652557894669
4259306 186 18340201998938260055
44062 13 18335416808195884703
46194498 28 17749954487028908181
4921388 177 17095815373301592281
5104073 3 18130224857203676504
5281201 14 18113902679908963781
5283173 99 18115862993214373932
57724786 102 11098119021414562615
76465 3 18411420596309776666
9709674 26 18260833751812923475

> <PUBCHEM_SHAPE_MULTIPOLES>
384.91
12.25
2.56
0.93
0.59
0.72
-0.05
7.88
-1.55
-0.3
0.12
0.78
-0.23
0.86

> <PUBCHEM_SHAPE_SELFOVERLAP>
810.816

> <PUBCHEM_SHAPE_VOLUME>
218.8

> <PUBCHEM_COORDINATE_TYPE>
2
5
10

$$$$
