38029110
  -OEChem-12032416243D

 72 74  0     1  0  0  0  0  0999 V2000
    3.5982   -1.6990    1.5274 S   0  0  0  0  0  0  0  0  0  0  0  0
   -1.8671    3.1817   -0.5889 O   0  0  0  0  0  0  0  0  0  0  0  0
    3.4577   -1.7323    2.9707 O   0  0  0  0  0  0  0  0  0  0  0  0
    4.7335   -2.3380    0.8901 O   0  0  0  0  0  0  0  0  0  0  0  0
   -1.2767   -4.0840   -0.8337 O   0  0  0  0  0  0  0  0  0  0  0  0
    3.4911   -0.0859    0.9895 N   0  0  0  0  0  0  0  0  0  0  0  0
   -2.4562    2.0622    1.3551 N   0  0  0  0  0  0  0  0  0  0  0  0
   -5.5714   -1.2132    0.4899 N   0  0  0  0  0  0  0  0  0  0  0  0
    1.8644    1.0099   -1.2760 C   0  0  1  0  0  0  0  0  0  0  0  0
    3.2945    1.4656   -0.8928 C   0  0  1  0  0  0  0  0  0  0  0  0
    0.9478    2.2273   -1.4709 C   0  0  0  0  0  0  0  0  0  0  0  0
    0.8592    3.0987   -0.2038 C   0  0  2  0  0  0  0  0  0  0  0  0
    1.8619    0.1505   -2.5442 C   0  0  0  0  0  0  0  0  0  0  0  0
    2.2267    3.3694    0.3901 C   0  0  0  0  0  0  0  0  0  0  0  0
    3.3059    2.6378    0.0602 C   0  0  0  0  0  0  0  0  0  0  0  0
    4.1006    0.3095   -0.2899 C   0  0  0  0  0  0  0  0  0  0  0  0
   -0.0754    2.4693    0.8352 C   0  0  0  0  0  0  0  0  0  0  0  0
    0.4569   -0.3688   -2.8324 C   0  0  0  0  0  0  0  0  0  0  0  0
    2.3973    0.9486   -3.7286 C   0  0  0  0  0  0  0  0  0  0  0  0
    2.3351    4.5308    1.3386 C   0  0  0  0  0  0  0  0  0  0  0  0
   -1.5375    2.6120    0.4547 C   0  0  0  0  0  0  0  0  0  0  0  0
    2.1421   -2.4108    0.8218 C   0  0  0  0  0  0  0  0  0  0  0  0
   -3.8992    2.1169    1.1332 C   0  0  0  0  0  0  0  0  0  0  0  0
   -2.0428    1.3933    2.5827 C   0  0  0  0  0  0  0  0  0  0  0  0
   -4.4029    0.9018    0.4094 C   0  0  0  0  0  0  0  0  0  0  0  0
    0.9445   -2.4017    1.5370 C   0  0  0  0  0  0  0  0  0  0  0  0
    2.1908   -2.9820   -0.4497 C   0  0  0  0  0  0  0  0  0  0  0  0
   -0.2044   -2.9636    0.9803 C   0  0  0  0  0  0  0  0  0  0  0  0
    1.0419   -3.5440   -1.0064 C   0  0  0  0  0  0  0  0  0  0  0  0
   -4.1897    0.7404   -0.9552 C   0  0  0  0  0  0  0  0  0  0  0  0
   -5.0932   -0.0949    1.0802 C   0  0  0  0  0  0  0  0  0  0  0  0
   -0.1557   -3.5348   -0.2913 C   0  0  0  0  0  0  0  0  0  0  0  0
   -4.6666   -0.3966   -1.5980 C   0  0  0  0  0  0  0  0  0  0  0  0
   -5.3450   -1.3352   -0.8373 C   0  0  0  0  0  0  0  0  0  0  0  0
   -2.4664   -4.0411   -0.0470 C   0  0  0  0  0  0  0  0  0  0  0  0
    1.4468    0.4010   -0.4658 H   0  0  0  0  0  0  0  0  0  0  0  0
    3.8451    1.8223   -1.7668 H   0  0  0  0  0  0  0  0  0  0  0  0
   -0.0571    1.9307   -1.7798 H   0  0  0  0  0  0  0  0  0  0  0  0
    1.3363    2.8763   -2.2648 H   0  0  0  0  0  0  0  0  0  0  0  0
    0.4475    4.0683   -0.5173 H   0  0  0  0  0  0  0  0  0  0  0  0
    2.5071   -0.7219   -2.4006 H   0  0  0  0  0  0  0  0  0  0  0  0
    4.2722    2.9069    0.4828 H   0  0  0  0  0  0  0  0  0  0  0  0
    4.1488   -0.5342   -0.9827 H   0  0  0  0  0  0  0  0  0  0  0  0
    5.1315    0.6268   -0.0920 H   0  0  0  0  0  0  0  0  0  0  0  0
    0.1610    1.4100    0.9762 H   0  0  0  0  0  0  0  0  0  0  0  0
    0.0483    2.9831    1.7951 H   0  0  0  0  0  0  0  0  0  0  0  0
   -0.1970    0.3957   -3.2635 H   0  0  0  0  0  0  0  0  0  0  0  0
   -0.0218   -0.7658   -1.9319 H   0  0  0  0  0  0  0  0  0  0  0  0
    0.5053   -1.1834   -3.5643 H   0  0  0  0  0  0  0  0  0  0  0  0
    1.7923    1.8227   -3.9818 H   0  0  0  0  0  0  0  0  0  0  0  0
    2.3773    0.3094   -4.6210 H   0  0  0  0  0  0  0  0  0  0  0  0
    3.4393    1.2543   -3.6199 H   0  0  0  0  0  0  0  0  0  0  0  0
    1.9521    5.4425    0.8688 H   0  0  0  0  0  0  0  0  0  0  0  0
    3.3724    4.7259    1.6316 H   0  0  0  0  0  0  0  0  0  0  0  0
    1.7670    4.3454    2.2545 H   0  0  0  0  0  0  0  0  0  0  0  0
    3.3874    0.6484    1.7001 H   0  0  0  0  0  0  0  0  0  0  0  0
   -4.4100    2.2549    2.0936 H   0  0  0  0  0  0  0  0  0  0  0  0
   -4.1325    3.0040    0.5313 H   0  0  0  0  0  0  0  0  0  0  0  0
   -2.5394    1.8807    3.4279 H   0  0  0  0  0  0  0  0  0  0  0  0
   -0.9724    1.4037    2.7789 H   0  0  0  0  0  0  0  0  0  0  0  0
   -2.3653    0.3486    2.5357 H   0  0  0  0  0  0  0  0  0  0  0  0
    0.8843   -1.9546    2.5253 H   0  0  0  0  0  0  0  0  0  0  0  0
    3.1107   -2.9956   -1.0271 H   0  0  0  0  0  0  0  0  0  0  0  0
   -1.1009   -2.9204    1.5893 H   0  0  0  0  0  0  0  0  0  0  0  0
    1.0853   -3.9851   -1.9984 H   0  0  0  0  0  0  0  0  0  0  0  0
   -3.6626    1.4921   -1.5343 H   0  0  0  0  0  0  0  0  0  0  0  0
   -5.2892   -0.0278    2.1458 H   0  0  0  0  0  0  0  0  0  0  0  0
   -4.5128   -0.5431   -2.6609 H   0  0  0  0  0  0  0  0  0  0  0  0
   -5.7358   -2.2400   -1.2910 H   0  0  0  0  0  0  0  0  0  0  0  0
   -2.3599   -4.6236    0.8744 H   0  0  0  0  0  0  0  0  0  0  0  0
   -2.7820   -3.0109    0.1486 H   0  0  0  0  0  0  0  0  0  0  0  0
   -3.2607   -4.5128   -0.6348 H   0  0  0  0  0  0  0  0  0  0  0  0
  1  3  2  0  0  0  0
  1  4  2  0  0  0  0
  1  6  1  0  0  0  0
  1 22  1  0  0  0  0
  2 21  2  0  0  0  0
  5 32  1  0  0  0  0
  5 35  1  0  0  0  0
  6 16  1  0  0  0  0
  6 56  1  0  0  0  0
  7 21  1  0  0  0  0
  7 23  1  0  0  0  0
  7 24  1  0  0  0  0
  8 31  1  0  0  0  0
  8 34  2  0  0  0  0
  9 10  1  0  0  0  0
  9 11  1  0  0  0  0
  9 13  1  0  0  0  0
  9 36  1  0  0  0  0
 10 15  1  0  0  0  0
 10 16  1  0  0  0  0
 10 37  1  0  0  0  0
 11 12  1  0  0  0  0
 11 38  1  0  0  0  0
 11 39  1  0  0  0  0
 12 14  1  0  0  0  0
 12 17  1  0  0  0  0
 12 40  1  0  0  0  0
 13 18  1  0  0  0  0
 13 19  1  0  0  0  0
 13 41  1  0  0  0  0
 14 15  2  0  0  0  0
 14 20  1  0  0  0  0
 15 42  1  0  0  0  0
 16 43  1  0  0  0  0
 16 44  1  0  0  0  0
 17 21  1  0  0  0  0
 17 45  1  0  0  0  0
 17 46  1  0  0  0  0
 18 47  1  0  0  0  0
 18 48  1  0  0  0  0
 18 49  1  0  0  0  0
 19 50  1  0  0  0  0
 19 51  1  0  0  0  0
 19 52  1  0  0  0  0
 20 53  1  0  0  0  0
 20 54  1  0  0  0  0
 20 55  1  0  0  0  0
 22 26  2  0  0  0  0
 22 27  1  0  0  0  0
 23 25  1  0  0  0  0
 23 57  1  0  0  0  0
 23 58  1  0  0  0  0
 24 59  1  0  0  0  0
 24 60  1  0  0  0  0
 24 61  1  0  0  0  0
 25 30  1  0  0  0  0
 25 31  2  0  0  0  0
 26 28  1  0  0  0  0
 26 62  1  0  0  0  0
 27 29  2  0  0  0  0
 27 63  1  0  0  0  0
 28 32  2  0  0  0  0
 28 64  1  0  0  0  0
 29 32  1  0  0  0  0
 29 65  1  0  0  0  0
 30 33  2  0  0  0  0
 30 66  1  0  0  0  0
 31 67  1  0  0  0  0
 33 34  1  0  0  0  0
 33 68  1  0  0  0  0
 34 69  1  0  0  0  0
 35 70  1  0  0  0  0
 35 71  1  0  0  0  0
 35 72  1  0  0  0  0
M  END
> <PUBCHEM_COMPOUND_CID>
38029110

> <PUBCHEM_CONFORMER_RMSD>
1.6

> <PUBCHEM_CONFORMER_DIVERSEORDER>
2
10
75
4
15
17
51
64
70
37
22
55
89
68
52
34
94
9
41
96
57
76
73
45
62
78
88
92
54
82
19
12
50
56
80
83
95
43
25
6
65
87
8
59
85
27
31
48
97
77
49
29
40
20
91
44
81
7
26
35
58
16
63
79
46
61
74
93
47
60
21
90
3
39
23
13
53
36
71
11
24
38
14
66
69
86
42
30
18
67
28
1
5
84
32
72
33

> <PUBCHEM_MMFF94_PARTIAL_CHARGES>
40
1 1.45
10 0.14
12 0.14
14 -0.28
15 -0.29
16 0.36
17 0.06
2 -0.57
20 0.14
21 0.57
22 -0.01
23 0.44
24 0.3
25 -0.14
26 -0.15
27 -0.15
28 -0.15
29 -0.15
3 -0.65
30 -0.15
31 0.16
32 0.08
33 -0.15
34 0.16
35 0.28
4 -0.65
42 0.15
5 -0.36
56 0.42
6 -0.91
62 0.15
63 0.15
64 0.15
65 0.15
66 0.15
67 0.15
68 0.15
69 0.15
7 -0.66
8 -0.62

> <PUBCHEM_EFFECTIVE_ROTOR_COUNT>
11.8

> <PUBCHEM_PHARMACOPHORE_FEATURES>
10
1 2 acceptor
1 3 acceptor
1 4 acceptor
1 5 acceptor
1 6 donor
1 8 acceptor
3 13 18 19 hydrophobe
6 22 26 27 28 29 32 rings
6 8 25 30 31 33 34 rings
6 9 10 11 12 14 15 rings

> <PUBCHEM_HEAVY_ATOM_COUNT>
35

> <PUBCHEM_ATOM_DEF_STEREO_COUNT>
3

> <PUBCHEM_ATOM_UDEF_STEREO_COUNT>
0

> <PUBCHEM_BOND_DEF_STEREO_COUNT>
0

> <PUBCHEM_BOND_UDEF_STEREO_COUNT>
0

> <PUBCHEM_ISOTOPIC_ATOM_COUNT>
0

> <PUBCHEM_COMPONENT_COUNT>
1

> <PUBCHEM_CACTVS_TAUTO_COUNT>
1

> <PUBCHEM_CONFORMER_ID>
0244473600000002

> <PUBCHEM_MMFF94_ENERGY>
82.6694

> <PUBCHEM_FEATURE_SELFOVERLAP>
50.766

> <PUBCHEM_SHAPE_FINGERPRINT>
10675989 125 17256524648329882947
11285246 1 17125126020535253894
11513181 2 18125167022080567750
11828532 37 16388163414613529967
12156800 1 18270419277420905814
14117953 113 18123181304127698783
144659 178 18269838627232147586
15001296 14 18265608956693064619
15297060 5 17988084387611415619
15406563 42 15123223402863279603
20764821 26 17978515561553411823
21315764 371 17988637459007732680
3493558 16 18337663217367535075
35225 105 17611501856729086455
46194498 28 15070063080817694552
463206 1 18265061245141288825
469060 322 17478273792347081578
6287921 2 18055637205237843403
6669772 16 18123179371039455745
9896288 288 17695902230026906752

> <PUBCHEM_SHAPE_MULTIPOLES>
685.71
9.52
6.12
2.62
11.52
1.66
-1.26
0.31
1.09
-2.11
1.51
-1.65
-0.14
-1.9

> <PUBCHEM_SHAPE_SELFOVERLAP>
1415.074

> <PUBCHEM_SHAPE_VOLUME>
396.3

> <PUBCHEM_COORDINATE_TYPE>
2
5
10

$$$$
