44716361
  -OEChem-12032416163D

 74 79  0     1  0  0  0  0  0999 V2000
    1.5916    2.7061    0.2065 O   0  0  0  0  0  0  0  0  0  0  0  0
    2.5246    1.1749    1.6258 O   0  0  0  0  0  0  0  0  0  0  0  0
   -1.5153    4.3109    1.4740 N   0  0  2  0  0  0  0  0  0  0  0  0
   -4.8128    1.2924   -0.7819 N   0  0  0  0  0  0  0  0  0  0  0  0
   -4.9492   -0.0327   -0.9602 N   0  0  0  0  0  0  0  0  0  0  0  0
    3.5127    1.7173   -0.4259 N   0  0  0  0  0  0  0  0  0  0  0  0
   -2.4923    3.8901   -0.9033 C   0  0  2  0  0  0  0  0  0  0  0  0
   -3.2924    3.0915    0.1626 C   0  0  2  0  0  0  0  0  0  0  0  0
   -0.4233    3.9478    0.5326 C   0  0  2  0  0  0  0  0  0  0  0  0
   -1.0026    3.4947   -0.8248 C   0  0  0  0  0  0  0  0  0  0  0  0
   -2.5877    5.3794   -0.5081 C   0  0  0  0  0  0  0  0  0  0  0  0
   -2.5330    3.2311    1.5129 C   0  0  0  0  0  0  0  0  0  0  0  0
   -2.1655    5.5413    0.9627 C   0  0  0  0  0  0  0  0  0  0  0  0
   -3.6588    1.6471   -0.1471 C   0  0  0  0  0  0  0  0  0  0  0  0
    0.5314    2.9069    1.1211 C   0  0  0  0  0  0  0  0  0  0  0  0
   -2.9944    0.4724    0.1081 C   0  0  0  0  0  0  0  0  0  0  0  0
   -3.8354   -0.5283   -0.4146 C   0  0  0  0  0  0  0  0  0  0  0  0
   -5.8515    2.1786   -1.2540 C   0  0  0  0  0  0  0  0  0  0  0  0
   -3.5960   -1.9479   -0.4010 C   0  0  0  0  0  0  0  0  0  0  0  0
    2.5580    1.7942    0.5695 C   0  0  0  0  0  0  0  0  0  0  0  0
   -2.8517   -2.5196    0.6314 C   0  0  0  0  0  0  0  0  0  0  0  0
   -4.1078   -2.7491   -1.4174 C   0  0  0  0  0  0  0  0  0  0  0  0
   -2.6099   -3.9028    0.6594 C   0  0  0  0  0  0  0  0  0  0  0  0
   -3.8773   -4.1250   -1.4054 C   0  0  0  0  0  0  0  0  0  0  0  0
   -3.1303   -4.7174   -0.3742 C   0  0  0  0  0  0  0  0  0  0  0  0
    4.6718    0.9092   -0.4596 C   0  0  0  0  0  0  0  0  0  0  0  0
   -1.8629   -4.4951    1.6906 C   0  0  0  0  0  0  0  0  0  0  0  0
   -2.8882   -6.1005   -0.3462 C   0  0  0  0  0  0  0  0  0  0  0  0
    5.5292    0.9648   -1.5585 C   0  0  0  0  0  0  0  0  0  0  0  0
    4.9581    0.0558    0.6060 C   0  0  0  0  0  0  0  0  0  0  0  0
   -1.6322   -5.8710    1.7025 C   0  0  0  0  0  0  0  0  0  0  0  0
   -2.1438   -6.6723    0.6861 C   0  0  0  0  0  0  0  0  0  0  0  0
    6.9593   -0.6862   -0.5259 C   0  0  0  0  0  0  0  0  0  0  0  0
    6.6730    0.1672   -1.5916 C   0  0  0  0  0  0  0  0  0  0  0  0
    6.1017   -0.7418    0.5728 C   0  0  0  0  0  0  0  0  0  0  0  0
    8.1830   -1.5378   -0.5606 C   0  0  0  0  0  0  0  0  0  0  0  0
    9.1658   -1.2039    0.5777 C   0  0  0  0  0  0  0  0  0  0  0  0
    7.8538   -3.0426   -0.5419 C   0  0  0  0  0  0  0  0  0  0  0  0
   -2.8861    3.7247   -1.9115 H   0  0  0  0  0  0  0  0  0  0  0  0
   -4.2471    3.6212    0.3009 H   0  0  0  0  0  0  0  0  0  0  0  0
    0.1866    4.8449    0.3491 H   0  0  0  0  0  0  0  0  0  0  0  0
   -0.9002    2.4133   -0.9711 H   0  0  0  0  0  0  0  0  0  0  0  0
   -0.4493    3.9810   -1.6378 H   0  0  0  0  0  0  0  0  0  0  0  0
   -3.6117    5.7464   -0.6441 H   0  0  0  0  0  0  0  0  0  0  0  0
   -1.9386    5.9797   -1.1572 H   0  0  0  0  0  0  0  0  0  0  0  0
   -2.0678    2.2989    1.8457 H   0  0  0  0  0  0  0  0  0  0  0  0
   -3.2605    3.4639    2.3027 H   0  0  0  0  0  0  0  0  0  0  0  0
   -3.0361    5.7878    1.5837 H   0  0  0  0  0  0  0  0  0  0  0  0
   -1.4830    6.3944    1.0623 H   0  0  0  0  0  0  0  0  0  0  0  0
    0.0253    1.9513    1.2959 H   0  0  0  0  0  0  0  0  0  0  0  0
    0.9366    3.2709    2.0733 H   0  0  0  0  0  0  0  0  0  0  0  0
   -2.0328    0.3621    0.5889 H   0  0  0  0  0  0  0  0  0  0  0  0
   -6.3727    2.5893   -0.3861 H   0  0  0  0  0  0  0  0  0  0  0  0
   -6.5529    1.6169   -1.8770 H   0  0  0  0  0  0  0  0  0  0  0  0
   -5.3954    2.9736   -1.8486 H   0  0  0  0  0  0  0  0  0  0  0  0
   -2.4569   -1.9016    1.4365 H   0  0  0  0  0  0  0  0  0  0  0  0
   -4.6843   -2.3316   -2.2395 H   0  0  0  0  0  0  0  0  0  0  0  0
    3.3667    2.3147   -1.2360 H   0  0  0  0  0  0  0  0  0  0  0  0
   -4.2852   -4.7320   -2.2110 H   0  0  0  0  0  0  0  0  0  0  0  0
   -1.4529   -3.8886    2.4956 H   0  0  0  0  0  0  0  0  0  0  0  0
   -3.2785   -6.7460   -1.1303 H   0  0  0  0  0  0  0  0  0  0  0  0
    5.3176    1.6254   -2.3953 H   0  0  0  0  0  0  0  0  0  0  0  0
    4.3416   -0.0407    1.4889 H   0  0  0  0  0  0  0  0  0  0  0  0
   -1.0527   -6.3166    2.5058 H   0  0  0  0  0  0  0  0  0  0  0  0
   -1.9638   -7.7433    0.6960 H   0  0  0  0  0  0  0  0  0  0  0  0
    7.3304    0.2231   -2.4551 H   0  0  0  0  0  0  0  0  0  0  0  0
    6.3064   -1.3995    1.4132 H   0  0  0  0  0  0  0  0  0  0  0  0
    8.7200   -1.3488   -1.5002 H   0  0  0  0  0  0  0  0  0  0  0  0
   10.0913   -1.7792    0.4666 H   0  0  0  0  0  0  0  0  0  0  0  0
    9.4276   -0.1400    0.5659 H   0  0  0  0  0  0  0  0  0  0  0  0
    8.7459   -1.4352    1.5625 H   0  0  0  0  0  0  0  0  0  0  0  0
    7.1718   -3.3018   -1.3594 H   0  0  0  0  0  0  0  0  0  0  0  0
    8.7661   -3.6365   -0.6641 H   0  0  0  0  0  0  0  0  0  0  0  0
    7.3814   -3.3470    0.3983 H   0  0  0  0  0  0  0  0  0  0  0  0
  1 15  1  0  0  0  0
  1 20  1  0  0  0  0
  2 20  2  0  0  0  0
  3  9  1  0  0  0  0
  3 12  1  0  0  0  0
  3 13  1  0  0  0  0
  4  5  1  0  0  0  0
  4 14  1  0  0  0  0
  4 18  1  0  0  0  0
  5 17  2  0  0  0  0
  6 20  1  0  0  0  0
  6 26  1  0  0  0  0
  6 58  1  0  0  0  0
  7  8  1  0  0  0  0
  7 10  1  0  0  0  0
  7 11  1  0  0  0  0
  7 39  1  0  0  0  0
  8 12  1  0  0  0  0
  8 14  1  0  0  0  0
  8 40  1  0  0  0  0
  9 10  1  0  0  0  0
  9 15  1  0  0  0  0
  9 41  1  0  0  0  0
 10 42  1  0  0  0  0
 10 43  1  0  0  0  0
 11 13  1  0  0  0  0
 11 44  1  0  0  0  0
 11 45  1  0  0  0  0
 12 46  1  0  0  0  0
 12 47  1  0  0  0  0
 13 48  1  0  0  0  0
 13 49  1  0  0  0  0
 14 16  2  0  0  0  0
 15 50  1  0  0  0  0
 15 51  1  0  0  0  0
 16 17  1  0  0  0  0
 16 52  1  0  0  0  0
 17 19  1  0  0  0  0
 18 53  1  0  0  0  0
 18 54  1  0  0  0  0
 18 55  1  0  0  0  0
 19 21  2  0  0  0  0
 19 22  1  0  0  0  0
 21 23  1  0  0  0  0
 21 56  1  0  0  0  0
 22 24  2  0  0  0  0
 22 57  1  0  0  0  0
 23 25  1  0  0  0  0
 23 27  2  0  0  0  0
 24 25  1  0  0  0  0
 24 59  1  0  0  0  0
 25 28  2  0  0  0  0
 26 29  2  0  0  0  0
 26 30  1  0  0  0  0
 27 31  1  0  0  0  0
 27 60  1  0  0  0  0
 28 32  1  0  0  0  0
 28 61  1  0  0  0  0
 29 34  1  0  0  0  0
 29 62  1  0  0  0  0
 30 35  2  0  0  0  0
 30 63  1  0  0  0  0
 31 32  2  0  0  0  0
 31 64  1  0  0  0  0
 32 65  1  0  0  0  0
 33 34  2  0  0  0  0
 33 35  1  0  0  0  0
 33 36  1  0  0  0  0
 34 66  1  0  0  0  0
 35 67  1  0  0  0  0
 36 37  1  0  0  0  0
 36 38  1  0  0  0  0
 36 68  1  0  0  0  0
 37 69  1  0  0  0  0
 37 70  1  0  0  0  0
 37 71  1  0  0  0  0
 38 72  1  0  0  0  0
 38 73  1  0  0  0  0
 38 74  1  0  0  0  0
M  END
> <PUBCHEM_COMPOUND_CID>
44716361

> <PUBCHEM_CONFORMER_RMSD>
1.4

> <PUBCHEM_CONFORMER_DIVERSEORDER>
2
59
54
28
51
12
19
20
45
4
1
55
25
50
16
37
15
58
43
48
36
44
42
47
7
46
68
8
6
21
67
30
18
17
62
10
39
27
38
66
14
13
24
23
22
63
53
11
61
71
35
33
5
64
69
65
57
9
52
41
3
26
60
31
29
70
40
49
56
34
32

> <PUBCHEM_MMFF94_PARTIAL_CHARGES>
44
1 -0.43
12 0.27
13 0.27
14 -0.33
15 0.28
16 -0.15
17 0.23
18 0.26
19 0.05
2 -0.57
20 0.78
21 -0.15
22 -0.15
24 -0.15
26 0.12
27 -0.15
28 -0.15
29 -0.15
3 -0.81
30 -0.15
31 -0.15
32 -0.15
33 -0.14
34 -0.15
35 -0.15
36 0.14
4 0.31
5 -0.71
52 0.15
56 0.15
57 0.15
58 0.37
59 0.15
6 -0.55
60 0.15
61 0.15
62 0.15
63 0.15
64 0.15
65 0.15
66 0.15
67 0.15
8 0.18
9 0.27

> <PUBCHEM_EFFECTIVE_ROTOR_COUNT>
9.2

> <PUBCHEM_PHARMACOPHORE_FEATURES>
10
1 2 acceptor
1 3 cation
1 5 acceptor
1 6 donor
3 36 37 38 hydrophobe
5 4 5 14 16 17 rings
6 19 21 22 23 24 25 rings
6 23 25 27 28 31 32 rings
6 26 29 30 33 34 35 rings
8 3 7 8 9 10 11 12 13 rings

> <PUBCHEM_HEAVY_ATOM_COUNT>
38

> <PUBCHEM_ATOM_DEF_STEREO_COUNT>
3

> <PUBCHEM_ATOM_UDEF_STEREO_COUNT>
0

> <PUBCHEM_BOND_DEF_STEREO_COUNT>
0

> <PUBCHEM_BOND_UDEF_STEREO_COUNT>
0

> <PUBCHEM_ISOTOPIC_ATOM_COUNT>
0

> <PUBCHEM_COMPONENT_COUNT>
1

> <PUBCHEM_CACTVS_TAUTO_COUNT>
2

> <PUBCHEM_CONFORMER_ID>
02AA514900000002

> <PUBCHEM_MMFF94_ENERGY>
106.9013

> <PUBCHEM_FEATURE_SELFOVERLAP>
50.774

> <PUBCHEM_SHAPE_FINGERPRINT>
10049733 162 18265892458989745922
10838868 229 17471862875845474819
11285246 1 17825944007904696515
117089 54 18123471845728085078
12202916 173 18059850649996755069
1361 4 18412828015129537684
14400156 147 17907033007491341556
14444916 359 18196662796058153193
15530120 55 17678189402139257284
15538507 19 18411416199250020772
15803439 3 17682088034027778813
15890870 6 18336260133846692541
17627616 140 17977101258560530163
17909252 39 17328586631967163137
19301676 85 18339071709585676599
19311894 1 18337676428697097643
19611394 137 18202276993061494056
20501277 246 17481140528614812504
20609170 114 18338781417732152296
23516275 137 17472158183993227769
23569914 152 17840276108336517335
3044373 233 17471302120002370683
3383291 50 18411417307013850065
395649 100 18410576185366872238
4017518 198 18120652422899690197
404807 14 17978514457953409395
42626532 9 18192715768003880858
4435113 14 18059863887212314212
49967989 163 18339944653388414766
54324442 115 18337673147542984930
57676310 51 17832144923063800498
6441014 3 18268147746063836478

> <PUBCHEM_SHAPE_MULTIPOLES>
750.36
19.15
11.31
1.48
60.02
10.02
-0.12
10.13
6.2
-19.57
-3.15
-0.29
0.25
0.15

> <PUBCHEM_SHAPE_SELFOVERLAP>
1642.935

> <PUBCHEM_SHAPE_VOLUME>
404.9

> <PUBCHEM_COORDINATE_TYPE>
2
5
10

$$$$
