11882599
  -OEChem-12032416123D

 78 80  0     1  0  0  0  0  0999 V2000
    4.4591   -2.2211   -0.7112 S   0  0  0  0  0  0  0  0  0  0  0  0
    2.9315    3.9763   -0.1313 F   0  0  0  0  0  0  0  0  0  0  0  0
    3.4502    3.0719   -2.0331 F   0  0  0  0  0  0  0  0  0  0  0  0
    1.6061    2.5049   -1.0297 F   0  0  0  0  0  0  0  0  0  0  0  0
   -0.0795    0.0914   -0.9635 O   0  0  0  0  0  0  0  0  0  0  0  0
   -3.1906   -3.4455   -0.7545 O   0  0  0  0  0  0  0  0  0  0  0  0
   -0.3372    2.6532    2.8585 O   0  0  0  0  0  0  0  0  0  0  0  0
    4.3347   -2.0752   -2.1489 O   0  0  0  0  0  0  0  0  0  0  0  0
    5.6223   -2.8739   -0.1419 O   0  0  0  0  0  0  0  0  0  0  0  0
   -1.1747   -2.4520   -0.1466 N   0  0  0  0  0  0  0  0  0  0  0  0
   -1.1257    0.7142    1.0206 N   0  0  0  0  0  0  0  0  0  0  0  0
    3.0608   -2.9608   -0.0948 N   0  0  0  0  0  0  0  0  0  0  0  0
   -4.5537   -2.1404    1.0834 N   0  0  0  0  0  0  0  0  0  0  0  0
   -0.0194    4.1058    1.1083 N   0  0  0  0  0  0  0  0  0  0  0  0
   -3.6668    1.6432   -0.2484 C   0  0  0  0  0  0  0  0  0  0  0  0
   -0.4097   -1.5548    0.7357 C   0  0  1  0  0  0  0  0  0  0  0  0
    1.7279   -2.3804   -0.3901 C   0  0  2  0  0  0  0  0  0  0  0  0
   -3.1495    1.7447   -1.6896 C   0  0  0  0  0  0  0  0  0  0  0  0
   -5.1411    2.0615   -0.1663 C   0  0  0  0  0  0  0  0  0  0  0  0
    1.0456   -1.9908    0.9218 C   0  0  0  0  0  0  0  0  0  0  0  0
   -2.8124    2.4908    0.6923 C   0  0  0  0  0  0  0  0  0  0  0  0
    0.8863   -3.4012   -1.1491 C   0  0  0  0  0  0  0  0  0  0  0  0
   -4.0202    0.9477   -2.6585 C   0  0  0  0  0  0  0  0  0  0  0  0
   -6.0084    1.2640   -1.1376 C   0  0  0  0  0  0  0  0  0  0  0  0
   -0.5184   -2.8649   -1.3934 C   0  0  0  0  0  0  0  0  0  0  0  0
   -5.4861    1.3601   -2.5676 C   0  0  0  0  0  0  0  0  0  0  0  0
   -1.3286    2.1103    0.7072 C   0  0  1  0  0  0  0  0  0  0  0  0
   -0.5160   -0.1757    0.1530 C   0  0  0  0  0  0  0  0  0  0  0  0
   -2.5145   -2.8040    0.0542 C   0  0  0  0  0  0  0  0  0  0  0  0
   -0.5133    2.9524    1.6798 C   0  0  0  0  0  0  0  0  0  0  0  0
   -3.1447   -2.3681    1.3540 C   0  0  2  0  0  0  0  0  0  0  0  0
    4.3680   -0.6098    0.0101 C   0  0  0  0  0  0  0  0  0  0  0  0
   -2.9578   -3.4430    2.4055 C   0  0  0  0  0  0  0  0  0  0  0  0
    3.7038    0.4180   -0.6595 C   0  0  0  0  0  0  0  0  0  0  0  0
    4.9602   -0.3662    1.2493 C   0  0  0  0  0  0  0  0  0  0  0  0
   -5.1558   -1.2976    2.1094 C   0  0  0  0  0  0  0  0  0  0  0  0
    3.6322    1.6893   -0.0899 C   0  0  0  0  0  0  0  0  0  0  0  0
    4.8885    0.9050    1.8189 C   0  0  0  0  0  0  0  0  0  0  0  0
    4.2244    1.9327    1.1492 C   0  0  0  0  0  0  0  0  0  0  0  0
    2.9224    2.7883   -0.8056 C   0  0  0  0  0  0  0  0  0  0  0  0
   -3.6031    0.5935    0.0619 H   0  0  0  0  0  0  0  0  0  0  0  0
   -0.8246   -1.5675    1.7442 H   0  0  0  0  0  0  0  0  0  0  0  0
    1.8363   -1.5050   -1.0327 H   0  0  0  0  0  0  0  0  0  0  0  0
   -3.1291    2.7958   -2.0051 H   0  0  0  0  0  0  0  0  0  0  0  0
   -2.1301    1.3663   -1.7829 H   0  0  0  0  0  0  0  0  0  0  0  0
   -5.5156    1.9163    0.8540 H   0  0  0  0  0  0  0  0  0  0  0  0
   -5.2393    3.1312   -0.3915 H   0  0  0  0  0  0  0  0  0  0  0  0
    1.0612   -2.8568    1.5985 H   0  0  0  0  0  0  0  0  0  0  0  0
    1.6180   -1.2003    1.4227 H   0  0  0  0  0  0  0  0  0  0  0  0
   -2.9078    3.5533    0.4319 H   0  0  0  0  0  0  0  0  0  0  0  0
   -3.2109    2.3969    1.7120 H   0  0  0  0  0  0  0  0  0  0  0  0
    1.3610   -3.6493   -2.1060 H   0  0  0  0  0  0  0  0  0  0  0  0
    0.8266   -4.3360   -0.5761 H   0  0  0  0  0  0  0  0  0  0  0  0
   -3.9271   -0.1226   -2.4353 H   0  0  0  0  0  0  0  0  0  0  0  0
   -3.6599    1.0929   -3.6832 H   0  0  0  0  0  0  0  0  0  0  0  0
   -7.0400    1.6314   -1.0967 H   0  0  0  0  0  0  0  0  0  0  0  0
   -6.0319    0.2122   -0.8275 H   0  0  0  0  0  0  0  0  0  0  0  0
   -1.1099   -3.6430   -1.8881 H   0  0  0  0  0  0  0  0  0  0  0  0
   -0.5018   -2.0123   -2.0792 H   0  0  0  0  0  0  0  0  0  0  0  0
   -5.5983    2.3899   -2.9285 H   0  0  0  0  0  0  0  0  0  0  0  0
   -6.0897    0.7237   -3.2244 H   0  0  0  0  0  0  0  0  0  0  0  0
   -0.9068    2.2981   -0.2864 H   0  0  0  0  0  0  0  0  0  0  0  0
   -1.4080    0.4039    1.9452 H   0  0  0  0  0  0  0  0  0  0  0  0
    3.1227   -3.6454    0.6681 H   0  0  0  0  0  0  0  0  0  0  0  0
   -2.7273   -1.4217    1.6901 H   0  0  0  0  0  0  0  0  0  0  0  0
   -3.4603   -4.3756    2.1222 H   0  0  0  0  0  0  0  0  0  0  0  0
   -1.8965   -3.6822    2.5368 H   0  0  0  0  0  0  0  0  0  0  0  0
   -3.3444   -3.1340    3.3817 H   0  0  0  0  0  0  0  0  0  0  0  0
   -4.6555   -1.6562    0.1906 H   0  0  0  0  0  0  0  0  0  0  0  0
    0.5354    4.7589    1.6516 H   0  0  0  0  0  0  0  0  0  0  0  0
   -0.1868    4.3505    0.1376 H   0  0  0  0  0  0  0  0  0  0  0  0
    3.2443    0.2462   -1.6292 H   0  0  0  0  0  0  0  0  0  0  0  0
    5.4756   -1.1534    1.7921 H   0  0  0  0  0  0  0  0  0  0  0  0
   -5.1582   -1.7838    3.0892 H   0  0  0  0  0  0  0  0  0  0  0  0
   -6.2013   -1.1068    1.8459 H   0  0  0  0  0  0  0  0  0  0  0  0
   -4.6560   -0.3270    2.1913 H   0  0  0  0  0  0  0  0  0  0  0  0
    5.3477    1.0941    2.7848 H   0  0  0  0  0  0  0  0  0  0  0  0
    4.1779    2.9158    1.6095 H   0  0  0  0  0  0  0  0  0  0  0  0
  1  8  2  0  0  0  0
  1  9  2  0  0  0  0
  1 12  1  0  0  0  0
  1 32  1  0  0  0  0
  2 40  1  0  0  0  0
  3 40  1  0  0  0  0
  4 40  1  0  0  0  0
  5 28  2  0  0  0  0
  6 29  2  0  0  0  0
  7 30  2  0  0  0  0
 10 16  1  0  0  0  0
 10 25  1  0  0  0  0
 10 29  1  0  0  0  0
 11 27  1  0  0  0  0
 11 28  1  0  0  0  0
 11 63  1  0  0  0  0
 12 17  1  0  0  0  0
 12 64  1  0  0  0  0
 13 31  1  0  0  0  0
 13 36  1  0  0  0  0
 13 69  1  0  0  0  0
 14 30  1  0  0  0  0
 14 70  1  0  0  0  0
 14 71  1  0  0  0  0
 15 18  1  0  0  0  0
 15 19  1  0  0  0  0
 15 21  1  0  0  0  0
 15 41  1  0  0  0  0
 16 20  1  0  0  0  0
 16 28  1  0  0  0  0
 16 42  1  0  0  0  0
 17 20  1  0  0  0  0
 17 22  1  0  0  0  0
 17 43  1  0  0  0  0
 18 23  1  0  0  0  0
 18 44  1  0  0  0  0
 18 45  1  0  0  0  0
 19 24  1  0  0  0  0
 19 46  1  0  0  0  0
 19 47  1  0  0  0  0
 20 48  1  0  0  0  0
 20 49  1  0  0  0  0
 21 27  1  0  0  0  0
 21 50  1  0  0  0  0
 21 51  1  0  0  0  0
 22 25  1  0  0  0  0
 22 52  1  0  0  0  0
 22 53  1  0  0  0  0
 23 26  1  0  0  0  0
 23 54  1  0  0  0  0
 23 55  1  0  0  0  0
 24 26  1  0  0  0  0
 24 56  1  0  0  0  0
 24 57  1  0  0  0  0
 25 58  1  0  0  0  0
 25 59  1  0  0  0  0
 26 60  1  0  0  0  0
 26 61  1  0  0  0  0
 27 30  1  0  0  0  0
 27 62  1  0  0  0  0
 29 31  1  0  0  0  0
 31 33  1  0  0  0  0
 31 65  1  0  0  0  0
 32 34  1  0  0  0  0
 32 35  2  0  0  0  0
 33 66  1  0  0  0  0
 33 67  1  0  0  0  0
 33 68  1  0  0  0  0
 34 37  2  0  0  0  0
 34 72  1  0  0  0  0
 35 38  1  0  0  0  0
 35 73  1  0  0  0  0
 36 74  1  0  0  0  0
 36 75  1  0  0  0  0
 36 76  1  0  0  0  0
 37 39  1  0  0  0  0
 37 40  1  0  0  0  0
 38 39  2  0  0  0  0
 38 77  1  0  0  0  0
 39 78  1  0  0  0  0
M  END
> <PUBCHEM_COMPOUND_CID>
11882599

> <PUBCHEM_CONFORMER_RMSD>
1.4

> <PUBCHEM_CONFORMER_DIVERSEORDER>
1
68
59
52
18
16
13
39
34
54
50
25
60
56
66
51
47
41
9
28
17
48
44
37
57
33
45
69
55
64
10
49
46
62
67
7
30
53
42
65
6
8
15
23
27
36
19
26
63
38
61
4
32
58
20
43
5
35
21
31
11
14
12
24
40
2
29
22
3

> <PUBCHEM_MMFF94_PARTIAL_CHARGES>
39
1 1.45
10 -0.66
11 -0.73
12 -0.91
13 -0.9
14 -0.8
16 0.36
17 0.36
2 -0.34
25 0.3
27 0.36
28 0.57
29 0.57
3 -0.34
30 0.57
31 0.33
32 -0.01
34 -0.15
35 -0.15
36 0.27
37 -0.14
38 -0.15
39 -0.15
4 -0.34
40 1.16
5 -0.57
6 -0.57
63 0.37
64 0.42
69 0.36
7 -0.57
70 0.37
71 0.37
72 0.15
73 0.15
77 0.15
78 0.15
8 -0.65
9 -0.65

> <PUBCHEM_EFFECTIVE_ROTOR_COUNT>
15.4

> <PUBCHEM_PHARMACOPHORE_FEATURES>
13
1 11 donor
1 12 donor
1 13 cation
1 13 donor
1 14 donor
1 5 acceptor
1 6 acceptor
1 7 acceptor
1 8 acceptor
1 9 acceptor
6 10 16 17 20 22 25 rings
6 15 18 19 23 24 26 rings
6 32 34 35 37 38 39 rings

> <PUBCHEM_HEAVY_ATOM_COUNT>
40

> <PUBCHEM_ATOM_DEF_STEREO_COUNT>
4

> <PUBCHEM_ATOM_UDEF_STEREO_COUNT>
0

> <PUBCHEM_BOND_DEF_STEREO_COUNT>
0

> <PUBCHEM_BOND_UDEF_STEREO_COUNT>
0

> <PUBCHEM_ISOTOPIC_ATOM_COUNT>
0

> <PUBCHEM_COMPONENT_COUNT>
1

> <PUBCHEM_CACTVS_TAUTO_COUNT>
4

> <PUBCHEM_CONFORMER_ID>
00B5506700000001

> <PUBCHEM_MMFF94_ENERGY>
65.3566

> <PUBCHEM_FEATURE_SELFOVERLAP>
65.992

> <PUBCHEM_SHAPE_FINGERPRINT>
10290309 65 18053669350434474816
12422481 6 18263102018784455531
12633046 712 16917350359026044559
12788726 201 18050015681552656072
13165054 342 17616265014089521053
13583140 156 17531253794601963803
13947947 63 13769314283014886911
14040221 97 18117281560619397684
14068700 675 17843671184834658340
15790856 291 16516234121126335085
20715895 44 18337657651057621309
20764821 26 18341907289300226181
23559900 14 18410857638003680608
3493558 16 18339923718805203391
373842 8 18410855451548854810
460360 51 18333731351001237806
463206 1 18271518719643759869
508706 21 18043247938038235348
6086070 43 18336546015217775098
66674814 147 18194117417748691008

> <PUBCHEM_SHAPE_MULTIPOLES>
750.96
12.29
5.65
2.3
0.49
0.1
0.04
-0.85
-2.21
-0.39
0.63
1.9
-0.33
2.82

> <PUBCHEM_SHAPE_SELFOVERLAP>
1543.598

> <PUBCHEM_SHAPE_VOLUME>
433.4

> <PUBCHEM_COORDINATE_TYPE>
2
5
10

$$$$
