26744288
  -OEChem-12032416283D

 46 49  0     1  0  0  0  0  0999 V2000
    4.2146    0.7334   -0.1014 S   0  0  0  0  0  0  0  0  0  0  0  0
   -0.9535   -1.0928    1.8686 O   0  0  0  0  0  0  0  0  0  0  0  0
   -5.9904    0.5987   -0.7176 O   0  0  0  0  0  0  0  0  0  0  0  0
    4.6385    0.2903    1.2199 O   0  0  0  0  0  0  0  0  0  0  0  0
    4.4021   -0.1399   -1.2512 O   0  0  0  0  0  0  0  0  0  0  0  0
   -2.4873    1.1862   -0.3253 N   0  0  1  0  0  0  0  0  0  0  0  0
   -1.2155   -1.6871   -0.2750 N   0  0  0  0  0  0  0  0  0  0  0  0
   -0.0129   -2.1019    1.6264 N   0  0  0  0  0  0  0  0  0  0  0  0
    0.5800   -3.4757   -0.3887 C   0  0  0  0  0  0  0  0  0  0  0  0
   -2.7072    0.1430    0.6968 C   0  0  1  0  0  0  0  0  0  0  0  0
    2.0765   -3.3660   -0.4032 C   0  0  0  0  0  0  0  0  0  0  0  0
    1.2928   -3.1042   -1.6559 C   0  0  0  0  0  0  0  0  0  0  0  0
   -4.0971   -0.4369    0.3750 C   0  0  0  0  0  0  0  0  0  0  0  0
   -4.5973    0.3744   -0.8137 C   0  0  2  0  0  0  0  0  0  0  0  0
   -3.8106    1.6677   -0.7168 C   0  0  0  0  0  0  0  0  0  0  0  0
   -0.2291   -2.4002    0.3418 C   0  0  0  0  0  0  0  0  0  0  0  0
   -1.6193   -0.9103    0.6982 C   0  0  0  0  0  0  0  0  0  0  0  0
   -1.6242    2.2669    0.1334 C   0  0  0  0  0  0  0  0  0  0  0  0
   -0.1688    1.8854    0.0745 C   0  0  0  0  0  0  0  0  0  0  0  0
    0.6063    1.9109    1.2340 C   0  0  0  0  0  0  0  0  0  0  0  0
    0.4045    1.5065   -1.1394 C   0  0  0  0  0  0  0  0  0  0  0  0
    1.9544    1.5577    1.1796 C   0  0  0  0  0  0  0  0  0  0  0  0
    1.7527    1.1534   -1.1939 C   0  0  0  0  0  0  0  0  0  0  0  0
    2.5277    1.1789   -0.0343 C   0  0  0  0  0  0  0  0  0  0  0  0
    5.0628    2.2615   -0.4315 C   0  0  0  0  0  0  0  0  0  0  0  0
    0.1590   -4.4735   -0.3361 H   0  0  0  0  0  0  0  0  0  0  0  0
   -2.7664    0.5891    1.6997 H   0  0  0  0  0  0  0  0  0  0  0  0
    2.6500   -4.2836   -0.3505 H   0  0  0  0  0  0  0  0  0  0  0  0
    2.5500   -2.5176    0.0763 H   0  0  0  0  0  0  0  0  0  0  0  0
    1.2398   -2.0818   -2.0098 H   0  0  0  0  0  0  0  0  0  0  0  0
    1.3402   -3.8460   -2.4440 H   0  0  0  0  0  0  0  0  0  0  0  0
   -4.0792   -1.5042    0.1261 H   0  0  0  0  0  0  0  0  0  0  0  0
   -4.7659   -0.3180    1.2368 H   0  0  0  0  0  0  0  0  0  0  0  0
   -4.3801   -0.1436   -1.7559 H   0  0  0  0  0  0  0  0  0  0  0  0
   -3.7933    2.1949   -1.6765 H   0  0  0  0  0  0  0  0  0  0  0  0
   -4.2529    2.3390    0.0314 H   0  0  0  0  0  0  0  0  0  0  0  0
   -1.9088    2.6177    1.1340 H   0  0  0  0  0  0  0  0  0  0  0  0
   -1.7357    3.1389   -0.5265 H   0  0  0  0  0  0  0  0  0  0  0  0
   -6.4263   -0.2705   -0.7096 H   0  0  0  0  0  0  0  0  0  0  0  0
    0.1726    2.2030    2.1865 H   0  0  0  0  0  0  0  0  0  0  0  0
   -0.1851    1.4872   -2.0522 H   0  0  0  0  0  0  0  0  0  0  0  0
    2.5406    1.5892    2.0936 H   0  0  0  0  0  0  0  0  0  0  0  0
    2.1796    0.8676   -2.1511 H   0  0  0  0  0  0  0  0  0  0  0  0
    6.1325    2.0493   -0.4906 H   0  0  0  0  0  0  0  0  0  0  0  0
    4.7105    2.6647   -1.3827 H   0  0  0  0  0  0  0  0  0  0  0  0
    4.8663    2.9605    0.3837 H   0  0  0  0  0  0  0  0  0  0  0  0
  1  4  2  0  0  0  0
  1  5  2  0  0  0  0
  1 24  1  0  0  0  0
  1 25  1  0  0  0  0
  2  8  1  0  0  0  0
  2 17  1  0  0  0  0
  3 14  1  0  0  0  0
  3 39  1  0  0  0  0
  6 10  1  0  0  0  0
  6 15  1  0  0  0  0
  6 18  1  0  0  0  0
  7 16  1  0  0  0  0
  7 17  2  0  0  0  0
  8 16  2  0  0  0  0
  9 11  1  0  0  0  0
  9 12  1  0  0  0  0
  9 16  1  0  0  0  0
  9 26  1  0  0  0  0
 10 13  1  0  0  0  0
 10 17  1  0  0  0  0
 10 27  1  0  0  0  0
 11 12  1  0  0  0  0
 11 28  1  0  0  0  0
 11 29  1  0  0  0  0
 12 30  1  0  0  0  0
 12 31  1  0  0  0  0
 13 14  1  0  0  0  0
 13 32  1  0  0  0  0
 13 33  1  0  0  0  0
 14 15  1  0  0  0  0
 14 34  1  0  0  0  0
 15 35  1  0  0  0  0
 15 36  1  0  0  0  0
 18 19  1  0  0  0  0
 18 37  1  0  0  0  0
 18 38  1  0  0  0  0
 19 20  2  0  0  0  0
 19 21  1  0  0  0  0
 20 22  1  0  0  0  0
 20 40  1  0  0  0  0
 21 23  2  0  0  0  0
 21 41  1  0  0  0  0
 22 24  2  0  0  0  0
 22 42  1  0  0  0  0
 23 24  1  0  0  0  0
 23 43  1  0  0  0  0
 25 44  1  0  0  0  0
 25 45  1  0  0  0  0
 25 46  1  0  0  0  0
M  END
> <PUBCHEM_COMPOUND_CID>
26744288

> <PUBCHEM_CONFORMER_RMSD>
0.8

> <PUBCHEM_CONFORMER_DIVERSEORDER>
1
35
101
77
118
23
32
83
78
43
85
75
120
9
73
106
64
84
57
97
109
74
105
3
2
41
79
94
113
107
25
60
108
91
86
111
4
53
62
92
39
68
52
93
6
16
96
24
100
46
30
55
70
42
87
82
69
21
10
81
27
56
114
65
5
17
95
61
29
18
44
66
88
11
59
28
72
76
33
26
116
45
40
8
121
112
90
47
36
80
31
115
48
20
38
103
89
67
7
50
102
110
19
54
58
99
34
15
13
14
51
22
12
71
37
63
104
49
117
119
98

> <PUBCHEM_MMFF94_PARTIAL_CHARGES>
34
1 1.2
10 0.45
11 -0.2
12 -0.2
14 0.28
15 0.27
16 0.43
17 0.3
18 0.41
19 -0.14
2 -0.02
20 -0.15
21 -0.15
22 -0.15
23 -0.15
24 -0.01
25 0.11
26 0.1
28 0.1
29 0.1
3 -0.68
30 0.1
31 0.1
39 0.4
4 -0.65
40 0.15
41 0.15
42 0.15
43 0.15
5 -0.65
6 -0.81
7 -0.57
8 -0.41
9 -0.01

> <PUBCHEM_EFFECTIVE_ROTOR_COUNT>
6.6

> <PUBCHEM_PHARMACOPHORE_FEATURES>
9
1 3 acceptor
1 3 donor
1 4 acceptor
1 5 acceptor
1 6 cation
3 7 8 16 cation
5 2 7 8 16 17 rings
5 6 10 13 14 15 rings
6 19 20 21 22 23 24 rings

> <PUBCHEM_HEAVY_ATOM_COUNT>
25

> <PUBCHEM_ATOM_DEF_STEREO_COUNT>
2

> <PUBCHEM_ATOM_UDEF_STEREO_COUNT>
0

> <PUBCHEM_BOND_DEF_STEREO_COUNT>
0

> <PUBCHEM_BOND_UDEF_STEREO_COUNT>
0

> <PUBCHEM_ISOTOPIC_ATOM_COUNT>
0

> <PUBCHEM_COMPONENT_COUNT>
1

> <PUBCHEM_CACTVS_TAUTO_COUNT>
1

> <PUBCHEM_CONFORMER_ID>
019815E000000001

> <PUBCHEM_MMFF94_ENERGY>
40.7694

> <PUBCHEM_FEATURE_SELFOVERLAP>
45.689

> <PUBCHEM_SHAPE_FINGERPRINT>
10366900 7 17560812073572544000
107951 10 17749112239731649746
11370993 70 18408887347605832100
12011746 2 18411704287837778220
12156800 1 16268221818549620974
12422481 6 18118380888000728682
13257819 101 16733803351678586621
13402501 40 18410296904264005014
15403338 16 17097190767495254378
19930381 70 18198625427985818654
20028762 73 17913211142390951175
20511986 3 17823401877324869344
20645476 183 17168421683412879905
20691752 17 17243028851678943305
20905425 154 18268151950672490175
21285901 2 18114742620893148133
21344244 246 18341609304659790351
22182313 1 18042989626405298619
23419403 2 17612918874019772867
23559900 14 18335709359672056628
23566358 2 18192141599891151253
23728640 28 18265615579379719170
266924 87 18338796685370581093
3298306 158 18411133615237629684
34934 24 17822851013214084136
4280585 95 17544467557936426298
463206 1 18272646861824042871
465052 167 17316219200945290219
5265222 85 18265062508268089660
59755656 215 18409444791753811543
6138700 20 18335700490691054162
6287921 2 17841713997875517371
6669772 16 17773010159104698112

> <PUBCHEM_SHAPE_MULTIPOLES>
479.92
8.88
3.86
1.39
1.99
3.97
0.19
-4.89
-1.99
-2.09
-0.58
-0.3
0.26
0.82

> <PUBCHEM_SHAPE_SELFOVERLAP>
1010.013

> <PUBCHEM_SHAPE_VOLUME>
273.9

> <PUBCHEM_COORDINATE_TYPE>
2
5
10

$$$$
