11941488
  -OEChem-12032416363D

 48 51  0     1  0  0  0  0  0999 V2000
    4.7241    3.0458    0.7253 S   0  0  0  0  0  0  0  0  0  0  0  0
   -0.8033   -3.6712    1.2733 O   0  0  0  0  0  0  0  0  0  0  0  0
    1.4923   -0.8950   -2.5714 O   0  0  0  0  0  0  0  0  0  0  0  0
   -5.0568   -1.0849    0.5550 O   0  0  0  0  0  0  0  0  0  0  0  0
   -7.8853    3.1109    0.4869 O   0  0  0  0  0  0  0  0  0  0  0  0
   -5.8217    3.8346   -0.1263 O   0  0  0  0  0  0  0  0  0  0  0  0
   -0.1874   -1.4882   -1.1169 N   0  0  0  0  0  0  0  0  0  0  0  0
   -2.9423   -0.3844   -0.1076 N   0  0  0  0  0  0  0  0  0  0  0  0
    1.1824   -2.5558    1.2580 N   0  0  0  0  0  0  0  0  0  0  0  0
   -2.2876   -1.6711   -0.0450 C   0  0  2  0  0  0  0  0  0  0  0  0
   -0.7821   -1.5090    0.2066 C   0  0  1  0  0  0  0  0  0  0  0  0
   -2.3481   -2.3889   -1.3949 C   0  0  0  0  0  0  0  0  0  0  0  0
   -1.1584   -1.8177   -2.1502 C   0  0  0  0  0  0  0  0  0  0  0  0
   -0.1483   -2.6887    0.9203 C   0  0  0  0  0  0  0  0  0  0  0  0
    1.0838   -1.0503   -1.4207 C   0  0  0  0  0  0  0  0  0  0  0  0
    2.0165   -0.7748   -0.2969 C   0  0  0  0  0  0  0  0  0  0  0  0
    2.0895   -1.5429    0.8776 C   0  0  0  0  0  0  0  0  0  0  0  0
   -4.2823   -0.2002    0.2005 C   0  0  0  0  0  0  0  0  0  0  0  0
    2.9822    0.2206   -0.5333 C   0  0  0  0  0  0  0  0  0  0  0  0
   -4.6959    1.2523    0.0445 C   0  0  0  0  0  0  0  0  0  0  0  0
    3.1688   -1.3382    1.7551 C   0  0  0  0  0  0  0  0  0  0  0  0
    4.0187    0.4410    0.3724 C   0  0  0  0  0  0  0  0  0  0  0  0
    4.1195   -0.3474    1.5113 C   0  0  0  0  0  0  0  0  0  0  0  0
   -6.1668    1.4788    0.3783 C   0  0  0  0  0  0  0  0  0  0  0  0
    4.9980    1.4685    0.1158 C   0  0  0  0  0  0  0  0  0  0  0  0
   -6.5673    2.9261    0.2123 C   0  0  0  0  0  0  0  0  0  0  0  0
    6.1854    1.3836   -0.5792 C   0  0  0  0  0  0  0  0  0  0  0  0
    6.8779    2.6284   -0.6112 C   0  0  0  0  0  0  0  0  0  0  0  0
    6.1945    3.6181    0.0603 C   0  0  0  0  0  0  0  0  0  0  0  0
   -2.7875   -2.2615    0.7303 H   0  0  0  0  0  0  0  0  0  0  0  0
   -0.5496   -0.5886    0.7553 H   0  0  0  0  0  0  0  0  0  0  0  0
   -3.2889   -2.2470   -1.9352 H   0  0  0  0  0  0  0  0  0  0  0  0
   -2.2007   -3.4656   -1.2458 H   0  0  0  0  0  0  0  0  0  0  0  0
   -0.7286   -2.5192   -2.8714 H   0  0  0  0  0  0  0  0  0  0  0  0
   -1.4194   -0.8915   -2.6744 H   0  0  0  0  0  0  0  0  0  0  0  0
   -2.4043    0.4086   -0.4462 H   0  0  0  0  0  0  0  0  0  0  0  0
    1.5304   -3.2322    1.9336 H   0  0  0  0  0  0  0  0  0  0  0  0
    2.9344    0.8208   -1.4411 H   0  0  0  0  0  0  0  0  0  0  0  0
   -4.0628    1.8633    0.6997 H   0  0  0  0  0  0  0  0  0  0  0  0
   -4.4933    1.5593   -0.9889 H   0  0  0  0  0  0  0  0  0  0  0  0
    3.2649   -1.9365    2.6594 H   0  0  0  0  0  0  0  0  0  0  0  0
    4.9293   -0.2055    2.2230 H   0  0  0  0  0  0  0  0  0  0  0  0
   -6.3639    1.1857    1.4157 H   0  0  0  0  0  0  0  0  0  0  0  0
   -6.7960    0.8717   -0.2825 H   0  0  0  0  0  0  0  0  0  0  0  0
    6.5462    0.4749   -1.0451 H   0  0  0  0  0  0  0  0  0  0  0  0
    7.8290    2.7897   -1.1017 H   0  0  0  0  0  0  0  0  0  0  0  0
    6.4883    4.6498    0.1920 H   0  0  0  0  0  0  0  0  0  0  0  0
   -8.1528    4.0486    0.3803 H   0  0  0  0  0  0  0  0  0  0  0  0
  1 25  1  0  0  0  0
  1 29  1  0  0  0  0
  2 14  2  0  0  0  0
  3 15  2  0  0  0  0
  4 18  2  0  0  0  0
  5 26  1  0  0  0  0
  5 48  1  0  0  0  0
  6 26  2  0  0  0  0
  7 11  1  0  0  0  0
  7 13  1  0  0  0  0
  7 15  1  0  0  0  0
  8 10  1  0  0  0  0
  8 18  1  0  0  0  0
  8 36  1  0  0  0  0
  9 14  1  0  0  0  0
  9 17  1  0  0  0  0
  9 37  1  0  0  0  0
 10 11  1  0  0  0  0
 10 12  1  0  0  0  0
 10 30  1  0  0  0  0
 11 14  1  0  0  0  0
 11 31  1  0  0  0  0
 12 13  1  0  0  0  0
 12 32  1  0  0  0  0
 12 33  1  0  0  0  0
 13 34  1  0  0  0  0
 13 35  1  0  0  0  0
 15 16  1  0  0  0  0
 16 17  2  0  0  0  0
 16 19  1  0  0  0  0
 17 21  1  0  0  0  0
 18 20  1  0  0  0  0
 19 22  2  0  0  0  0
 19 38  1  0  0  0  0
 20 24  1  0  0  0  0
 20 39  1  0  0  0  0
 20 40  1  0  0  0  0
 21 23  2  0  0  0  0
 21 41  1  0  0  0  0
 22 23  1  0  0  0  0
 22 25  1  0  0  0  0
 23 42  1  0  0  0  0
 24 26  1  0  0  0  0
 24 43  1  0  0  0  0
 24 44  1  0  0  0  0
 25 27  2  0  0  0  0
 27 28  1  0  0  0  0
 27 45  1  0  0  0  0
 28 29  2  0  0  0  0
 28 46  1  0  0  0  0
 29 47  1  0  0  0  0
M  END
> <PUBCHEM_COMPOUND_CID>
11941488

> <PUBCHEM_CONFORMER_RMSD>
0.8

> <PUBCHEM_CONFORMER_DIVERSEORDER>
1
41
53
39
18
50
35
60
24
19
52
65
42
16
8
11
17
32
44
21
26
56
58
47
27
3
40
23
10
30
4
36
37
25
6
15
45
22
49
13
43
29
2
61
12
34
28
48
7
46
64
59
9
33
31
62
55
14
54
5
63
57
20
51
38

> <PUBCHEM_MMFF94_PARTIAL_CHARGES>
37
1 -0.08
10 0.3
11 0.36
13 0.3
14 0.57
15 0.54
16 0.09
17 0.12
18 0.57
19 -0.15
2 -0.57
20 0.06
21 -0.15
22 0.05
23 -0.15
24 0.06
25 -0.01
26 0.66
27 -0.15
28 -0.15
29 -0.11
3 -0.57
36 0.37
37 0.37
38 0.15
4 -0.57
41 0.15
42 0.15
45 0.15
46 0.15
47 0.15
48 0.5
5 -0.65
6 -0.57
7 -0.66
8 -0.73
9 -0.55

> <PUBCHEM_EFFECTIVE_ROTOR_COUNT>
6.8

> <PUBCHEM_PHARMACOPHORE_FEATURES>
12
1 2 acceptor
1 3 acceptor
1 4 acceptor
1 5 acceptor
1 6 acceptor
1 8 donor
1 9 donor
3 5 6 26 anion
5 1 25 27 28 29 rings
5 7 10 11 12 13 rings
6 16 17 19 21 22 23 rings
7 7 9 11 14 15 16 17 rings

> <PUBCHEM_HEAVY_ATOM_COUNT>
29

> <PUBCHEM_ATOM_DEF_STEREO_COUNT>
2

> <PUBCHEM_ATOM_UDEF_STEREO_COUNT>
0

> <PUBCHEM_BOND_DEF_STEREO_COUNT>
0

> <PUBCHEM_BOND_UDEF_STEREO_COUNT>
0

> <PUBCHEM_ISOTOPIC_ATOM_COUNT>
0

> <PUBCHEM_COMPONENT_COUNT>
1

> <PUBCHEM_CACTVS_TAUTO_COUNT>
6

> <PUBCHEM_CONFORMER_ID>
00B6367000000001

> <PUBCHEM_MMFF94_ENERGY>
81.2299

> <PUBCHEM_FEATURE_SELFOVERLAP>
61.014

> <PUBCHEM_SHAPE_FINGERPRINT>
10006869 2 18337947883699781084
10190108 129 17531247206823913580
10693767 8 10952044550504044764
10939801 23 18334580143924575221
12013929 29 18118973722865226884
12390115 104 17823976956339462738
12633257 1 15575007182019488035
12975358 362 18196390143161111985
13782708 43 8358271327987377876
13944108 23 18269838614505923888
14251751 18 8142093052230575016
14251764 30 9655571903344903833
14251764 75 18411134706518493009
14294032 229 17917711349236452231
14617042 71 18200602376944960457
14765038 42 17968377952728986644
14848178 5 8358270241044114704
14951699 99 18333453140194715837
15198563 99 17624689446633231391
15238133 3 18187657932985423180
15475509 35 11458433443954493388
15510800 12 11674868975066985009
15840311 113 18261674766707853405
19438510 23 18409730676934201353
20567600 247 9655575222953800749
20642791 268 17749393701607284630
20691028 202 18335419114335541620
21344244 78 16081666474179561701
21585482 111 18260828146807736789
21756936 100 18265893743095049314
21781055 127 18114462375691509592
21796203 349 15430038803343913572
22122407 14 18190185761493913480
23522609 53 17170124883645428220
23569914 2 16842154797847515096
249057 25 18196624428513703286
25025965 108 12317530206737507524
270888 7 18411136948053363785
2748736 6 18342168922193382153
2838139 119 18201434839361595524
3388396 114 16831488662889517493
3472631 163 18342736304251677631
44802255 64 17344638260803344164
484985 159 11277989816092185739
5104073 3 16010403856923219492
56638632 10 18114735066061752173
5718773 13 9223230737058598905
57724786 102 18339635642458666110
5874358 3 14260528846861365228
5951187 136 18270124495917963989
636775 72 18123466348650474888
7288768 16 17895191151089900786
7808743 9 18343298201706184579
7970288 3 9511455624315965945
9849439 229 18335425647222729455

> <PUBCHEM_SHAPE_MULTIPOLES>
556.37
17.87
4.65
1.56
11.2
3.12
0.54
28.74
-1.68
3.41
-0.74
-0.76
-1.27
-1.47

> <PUBCHEM_SHAPE_SELFOVERLAP>
1199.02

> <PUBCHEM_SHAPE_VOLUME>
305.3

> <PUBCHEM_COORDINATE_TYPE>
2
5
10

$$$$
