26745175
  -OEChem-12032416353D

 46 49  0     1  0  0  0  0  0999 V2000
   -7.1700    0.4273    1.2678 F   0  0  0  0  0  0  0  0  0  0  0  0
   -0.1495    1.5751   -1.4825 O   0  0  0  0  0  0  0  0  0  0  0  0
    3.3316    1.6088   -1.4482 O   0  0  0  0  0  0  0  0  0  0  0  0
    2.2831   -0.1108   -0.2756 N   0  0  0  0  0  0  0  0  0  0  0  0
    1.5650   -3.3349    1.4826 N   0  0  0  0  0  0  0  0  0  0  0  0
    0.9709   -4.0620   -0.5443 N   0  0  0  0  0  0  0  0  0  0  0  0
    3.9550    1.2293    0.7299 N   0  0  0  0  0  0  0  0  0  0  0  0
   -1.1039   -0.2538   -0.6103 N   0  0  0  0  0  0  0  0  0  0  0  0
   -1.4575    1.9430   -1.1423 N   0  0  0  0  0  0  0  0  0  0  0  0
    1.3317   -0.3826   -1.4089 C   0  0  1  0  0  0  0  0  0  0  0  0
    1.3104   -1.8904   -1.8013 C   0  0  0  0  0  0  0  0  0  0  0  0
    2.1271   -0.9019    0.9794 C   0  0  0  0  0  0  0  0  0  0  0  0
    1.3209   -2.7423   -0.5937 C   0  0  0  0  0  0  0  0  0  0  0  0
    1.6931   -2.2707    0.6403 C   0  0  0  0  0  0  0  0  0  0  0  0
   -0.0245    0.2670   -1.1367 C   0  0  0  0  0  0  0  0  0  0  0  0
    3.2033    0.9545   -0.4088 C   0  0  0  0  0  0  0  0  0  0  0  0
    1.1280   -4.3906    0.7224 C   0  0  0  0  0  0  0  0  0  0  0  0
    4.9316    2.2943    0.7710 C   0  0  0  0  0  0  0  0  0  0  0  0
   -1.9558    0.8119   -0.6343 C   0  0  0  0  0  0  0  0  0  0  0  0
    4.2766    3.6045    1.1901 C   0  0  0  0  0  0  0  0  0  0  0  0
    6.0771    1.9264    1.7049 C   0  0  0  0  0  0  0  0  0  0  0  0
   -3.3002    0.7127   -0.1439 C   0  0  0  0  0  0  0  0  0  0  0  0
   -3.7662   -0.4956    0.3743 C   0  0  0  0  0  0  0  0  0  0  0  0
   -4.1414    1.8246   -0.1849 C   0  0  0  0  0  0  0  0  0  0  0  0
   -5.0734   -0.5920    0.8512 C   0  0  0  0  0  0  0  0  0  0  0  0
   -5.4486    1.7283    0.2918 C   0  0  0  0  0  0  0  0  0  0  0  0
   -5.9145    0.5199    0.8099 C   0  0  0  0  0  0  0  0  0  0  0  0
    1.7122    0.1374   -2.2986 H   0  0  0  0  0  0  0  0  0  0  0  0
    2.2136   -2.1194   -2.3806 H   0  0  0  0  0  0  0  0  0  0  0  0
    0.4433   -2.1159   -2.4315 H   0  0  0  0  0  0  0  0  0  0  0  0
    3.0736   -0.9620    1.5217 H   0  0  0  0  0  0  0  0  0  0  0  0
    1.3856   -0.3905    1.6015 H   0  0  0  0  0  0  0  0  0  0  0  0
    1.7537   -3.3486    2.4762 H   0  0  0  0  0  0  0  0  0  0  0  0
    3.7028    0.8182    1.6195 H   0  0  0  0  0  0  0  0  0  0  0  0
    0.9453   -5.3649    1.1528 H   0  0  0  0  0  0  0  0  0  0  0  0
    5.3426    2.4242   -0.2374 H   0  0  0  0  0  0  0  0  0  0  0  0
    5.0069    4.4201    1.2053 H   0  0  0  0  0  0  0  0  0  0  0  0
    3.4753    3.8822    0.4967 H   0  0  0  0  0  0  0  0  0  0  0  0
    3.8332    3.5243    2.1890 H   0  0  0  0  0  0  0  0  0  0  0  0
    6.8408    2.7109    1.7167 H   0  0  0  0  0  0  0  0  0  0  0  0
    6.5542    0.9936    1.3847 H   0  0  0  0  0  0  0  0  0  0  0  0
    5.7229    1.7793    2.7314 H   0  0  0  0  0  0  0  0  0  0  0  0
   -3.1352   -1.3797    0.4202 H   0  0  0  0  0  0  0  0  0  0  0  0
   -3.8136    2.7824   -0.5812 H   0  0  0  0  0  0  0  0  0  0  0  0
   -5.4369   -1.5324    1.2547 H   0  0  0  0  0  0  0  0  0  0  0  0
   -6.1042    2.5935    0.2601 H   0  0  0  0  0  0  0  0  0  0  0  0
  1 27  1  0  0  0  0
  2  9  1  0  0  0  0
  2 15  1  0  0  0  0
  3 16  2  0  0  0  0
  4 10  1  0  0  0  0
  4 12  1  0  0  0  0
  4 16  1  0  0  0  0
  5 14  1  0  0  0  0
  5 17  1  0  0  0  0
  5 33  1  0  0  0  0
  6 13  1  0  0  0  0
  6 17  2  0  0  0  0
  7 16  1  0  0  0  0
  7 18  1  0  0  0  0
  7 34  1  0  0  0  0
  8 15  2  0  0  0  0
  8 19  1  0  0  0  0
  9 19  2  0  0  0  0
 10 11  1  0  0  0  0
 10 15  1  0  0  0  0
 10 28  1  0  0  0  0
 11 13  1  0  0  0  0
 11 29  1  0  0  0  0
 11 30  1  0  0  0  0
 12 14  1  0  0  0  0
 12 31  1  0  0  0  0
 12 32  1  0  0  0  0
 13 14  2  0  0  0  0
 17 35  1  0  0  0  0
 18 20  1  0  0  0  0
 18 21  1  0  0  0  0
 18 36  1  0  0  0  0
 19 22  1  0  0  0  0
 20 37  1  0  0  0  0
 20 38  1  0  0  0  0
 20 39  1  0  0  0  0
 21 40  1  0  0  0  0
 21 41  1  0  0  0  0
 21 42  1  0  0  0  0
 22 23  2  0  0  0  0
 22 24  1  0  0  0  0
 23 25  1  0  0  0  0
 23 43  1  0  0  0  0
 24 26  2  0  0  0  0
 24 44  1  0  0  0  0
 25 27  2  0  0  0  0
 25 45  1  0  0  0  0
 26 27  1  0  0  0  0
 26 46  1  0  0  0  0
M  END
> <PUBCHEM_COMPOUND_CID>
26745175

> <PUBCHEM_CONFORMER_RMSD>
0.8

> <PUBCHEM_CONFORMER_DIVERSEORDER>
1
30
14
11
19
28
2
24
17
32
34
25
12
29
6
21
3
27
10
23
33
26
13
31
9
15
20
16
7
18
5
4
22
8

> <PUBCHEM_MMFF94_PARTIAL_CHARGES>
32
1 -0.19
10 0.48
11 0.18
12 0.48
13 0.05
14 -0.33
15 0.3
16 0.69
17 0.04
18 0.3
19 0.46
2 -0.02
22 0.05
23 -0.15
24 -0.15
25 -0.15
26 -0.15
27 0.19
3 -0.57
33 0.27
34 0.37
35 0.15
4 -0.66
43 0.15
44 0.15
45 0.15
46 0.15
5 0.03
6 -0.57
7 -0.73
8 -0.57
9 -0.41

> <PUBCHEM_EFFECTIVE_ROTOR_COUNT>
5.8

> <PUBCHEM_PHARMACOPHORE_FEATURES>
10
1 3 acceptor
1 5 donor
1 7 donor
3 18 20 21 hydrophobe
3 5 6 17 cation
3 8 9 19 cation
5 2 8 9 15 19 rings
5 5 6 13 14 17 rings
6 22 23 24 25 26 27 rings
6 4 10 11 12 13 14 rings

> <PUBCHEM_HEAVY_ATOM_COUNT>
27

> <PUBCHEM_ATOM_DEF_STEREO_COUNT>
1

> <PUBCHEM_ATOM_UDEF_STEREO_COUNT>
0

> <PUBCHEM_BOND_DEF_STEREO_COUNT>
0

> <PUBCHEM_BOND_UDEF_STEREO_COUNT>
0

> <PUBCHEM_ISOTOPIC_ATOM_COUNT>
0

> <PUBCHEM_COMPONENT_COUNT>
1

> <PUBCHEM_CACTVS_TAUTO_COUNT>
4

> <PUBCHEM_CONFORMER_ID>
0198195700000001

> <PUBCHEM_MMFF94_ENERGY>
46.1958

> <PUBCHEM_FEATURE_SELFOVERLAP>
50.849

> <PUBCHEM_SHAPE_FINGERPRINT>
10074138 170 17975960283582379034
10692045 39 18271794715201855442
11070050 100 18342728633397922144
12107183 9 17544485150628652489
12596602 18 17917439726698024851
12892183 10 18337677408677582501
13533116 47 18265342712113217795
13540713 4 17825098221533416949
13692114 37 18335704987153275715
13955234 65 18340772520296980146
14178342 30 18261961859438814983
14347424 109 18195253209619376905
14556957 393 10590649514667221218
14565420 104 18342736342574373096
146900 427 18272654549762703001
14863182 85 18041012729651299742
15142526 21 18200306761679812112
15183329 4 11527961057421167033
15338160 23 17618498122943849344
15347590 135 18270975647584546865
16126227 98 18194400228819563576
16992610 120 18044113435264975260
16992727 255 11743025544804530874
16993089 31 14492124495963632104
17913733 40 18411412912660750472
1813 80 16371590102590732495
18681886 176 17678486210059842596
1979834 28 18260835890485298393
20511986 3 18342733019160781245
21130935 74 18265626399467701731
21756936 100 18128521860053623536
21859007 373 16953083212188232717
22224240 67 18340483469124260969
22956985 138 17460587018861002674
23559900 14 18042695987833065223
23845131 108 18337381738153470003
239999 70 18269288888640385895
3117164 225 17689726264302241185
31174 14 18193554458841312519
3178227 256 18337106770811582522
3411729 13 18272090478516647705
3421961 26 18117283549478938087
427121 178 18412265064632550278
4340502 62 18411421721548919161
5104073 3 18264780853124207849
58807428 26 18335696178580565550
59755656 520 18339635759118933436
621550 34 18335136458258298405
6442390 28 18338518642030015598
7399639 24 18261667095421840621
9658208 31 18267595778789326692

> <PUBCHEM_SHAPE_MULTIPOLES>
506.75
12.86
4.51
1.54
13.69
4.58
-0.18
-12.66
7.53
-5.86
1.23
-0.9
0.02
1.27

> <PUBCHEM_SHAPE_SELFOVERLAP>
1100.007

> <PUBCHEM_SHAPE_VOLUME>
279.2

> <PUBCHEM_COORDINATE_TYPE>
2
5
10

$$$$
