7144114
  -OEChem-12032416113D

 60 64  0     1  0  0  0  0  0999 V2000
   -2.3474    2.6832    2.6256 O   0  0  0  0  0  0  0  0  0  0  0  0
   -3.4745    0.5451   -1.6417 O   0  0  0  0  0  0  0  0  0  0  0  0
    5.6753   -1.7388   -0.5351 O   0  0  0  0  0  0  0  0  0  0  0  0
   -0.4542   -3.3611   -0.6964 O   0  0  0  0  0  0  0  0  0  0  0  0
   -0.8051    2.4160    0.8830 N   0  0  0  0  0  0  0  0  0  0  0  0
   -1.3160    1.2933   -2.0102 N   0  0  0  0  0  0  0  0  0  0  0  0
   -1.7080   -0.8948   -1.2213 N   0  0  0  0  0  0  0  0  0  0  0  0
   -1.0629    3.6723   -1.3348 C   0  0  2  0  0  0  0  0  0  0  0  0
    0.8074    2.1032   -1.0249 C   0  0  2  0  0  0  0  0  0  0  0  0
    0.4504    3.5362   -1.4207 C   0  0  0  0  0  0  0  0  0  0  0  0
   -1.4774    3.4803    0.1242 C   0  0  0  0  0  0  0  0  0  0  0  0
   -1.7561    2.6655   -2.2714 C   0  0  0  0  0  0  0  0  0  0  0  0
    0.1460    1.1242   -2.0210 C   0  0  0  0  0  0  0  0  0  0  0  0
    0.3612    1.7824    0.4065 C   0  0  0  0  0  0  0  0  0  0  0  0
    1.0186    0.8944    1.1974 C   0  0  0  0  0  0  0  0  0  0  0  0
   -1.3423    2.1498    2.1551 C   0  0  0  0  0  0  0  0  0  0  0  0
   -2.2616    0.3202   -1.6208 C   0  0  0  0  0  0  0  0  0  0  0  0
    0.4920    0.5935    2.5150 C   0  0  0  0  0  0  0  0  0  0  0  0
   -0.6205    1.1581    2.9835 C   0  0  0  0  0  0  0  0  0  0  0  0
    2.2433    0.2011    0.7416 C   0  0  0  0  0  0  0  0  0  0  0  0
    2.1405   -1.0059    0.0570 C   0  0  0  0  0  0  0  0  0  0  0  0
    3.4904    0.7616    1.0008 C   0  0  0  0  0  0  0  0  0  0  0  0
   -2.2768   -1.8424   -0.3363 C   0  0  0  0  0  0  0  0  0  0  0  0
    3.2958   -1.6588   -0.3725 C   0  0  0  0  0  0  0  0  0  0  0  0
    4.6458    0.1088    0.5712 C   0  0  0  0  0  0  0  0  0  0  0  0
    4.5485   -1.1015   -0.1156 C   0  0  0  0  0  0  0  0  0  0  0  0
   -1.6375   -3.0557   -0.0928 C   0  0  0  0  0  0  0  0  0  0  0  0
   -3.4857   -1.5472    0.2897 C   0  0  0  0  0  0  0  0  0  0  0  0
   -2.2105   -3.9790    0.7819 C   0  0  0  0  0  0  0  0  0  0  0  0
   -4.0585   -2.4708    1.1641 C   0  0  0  0  0  0  0  0  0  0  0  0
   -3.4210   -3.6866    1.4102 C   0  0  0  0  0  0  0  0  0  0  0  0
    6.9235   -1.1139   -0.2393 C   0  0  0  0  0  0  0  0  0  0  0  0
   -0.5225   -4.0328   -1.9523 C   0  0  0  0  0  0  0  0  0  0  0  0
   -1.3608    4.6796   -1.6508 H   0  0  0  0  0  0  0  0  0  0  0  0
    1.8951    2.0107   -1.1212 H   0  0  0  0  0  0  0  0  0  0  0  0
    0.9445    4.2573   -0.7574 H   0  0  0  0  0  0  0  0  0  0  0  0
    0.7955    3.7495   -2.4397 H   0  0  0  0  0  0  0  0  0  0  0  0
   -1.2686    4.4092    0.6730 H   0  0  0  0  0  0  0  0  0  0  0  0
   -2.5623    3.3293    0.1932 H   0  0  0  0  0  0  0  0  0  0  0  0
   -2.8433    2.7542   -2.1798 H   0  0  0  0  0  0  0  0  0  0  0  0
   -1.5009    2.8897   -3.3143 H   0  0  0  0  0  0  0  0  0  0  0  0
    0.4809    1.3517   -3.0412 H   0  0  0  0  0  0  0  0  0  0  0  0
    0.4602    0.1038   -1.8233 H   0  0  0  0  0  0  0  0  0  0  0  0
    1.0234   -0.1284    3.1283 H   0  0  0  0  0  0  0  0  0  0  0  0
   -1.0097    0.9223    3.9668 H   0  0  0  0  0  0  0  0  0  0  0  0
   -0.8143   -1.1744   -1.6072 H   0  0  0  0  0  0  0  0  0  0  0  0
    1.1738   -1.4539   -0.1401 H   0  0  0  0  0  0  0  0  0  0  0  0
    3.5800    1.7047    1.5343 H   0  0  0  0  0  0  0  0  0  0  0  0
    3.2131   -2.6022   -0.9052 H   0  0  0  0  0  0  0  0  0  0  0  0
    5.5859    0.5972    0.8038 H   0  0  0  0  0  0  0  0  0  0  0  0
   -4.0129   -0.6088    0.1763 H   0  0  0  0  0  0  0  0  0  0  0  0
   -1.7189   -4.9277    0.9798 H   0  0  0  0  0  0  0  0  0  0  0  0
   -4.9963   -2.2402    1.6613 H   0  0  0  0  0  0  0  0  0  0  0  0
   -3.8658   -4.4045    2.0930 H   0  0  0  0  0  0  0  0  0  0  0  0
    7.7111   -1.7570   -0.6455 H   0  0  0  0  0  0  0  0  0  0  0  0
    7.0925   -1.0443    0.8406 H   0  0  0  0  0  0  0  0  0  0  0  0
    7.0151   -0.1427   -0.7373 H   0  0  0  0  0  0  0  0  0  0  0  0
   -0.9833   -5.0185   -1.8331 H   0  0  0  0  0  0  0  0  0  0  0  0
    0.4971   -4.1661   -2.3243 H   0  0  0  0  0  0  0  0  0  0  0  0
   -1.0855   -3.4413   -2.6811 H   0  0  0  0  0  0  0  0  0  0  0  0
  1 16  2  0  0  0  0
  2 17  2  0  0  0  0
  3 26  1  0  0  0  0
  3 32  1  0  0  0  0
  4 27  1  0  0  0  0
  4 33  1  0  0  0  0
  5 11  1  0  0  0  0
  5 14  1  0  0  0  0
  5 16  1  0  0  0  0
  6 12  1  0  0  0  0
  6 13  1  0  0  0  0
  6 17  1  0  0  0  0
  7 17  1  0  0  0  0
  7 23  1  0  0  0  0
  7 46  1  0  0  0  0
  8 10  1  0  0  0  0
  8 11  1  0  0  0  0
  8 12  1  0  0  0  0
  8 34  1  0  0  0  0
  9 10  1  0  0  0  0
  9 13  1  0  0  0  0
  9 14  1  0  0  0  0
  9 35  1  0  0  0  0
 10 36  1  0  0  0  0
 10 37  1  0  0  0  0
 11 38  1  0  0  0  0
 11 39  1  0  0  0  0
 12 40  1  0  0  0  0
 12 41  1  0  0  0  0
 13 42  1  0  0  0  0
 13 43  1  0  0  0  0
 14 15  2  0  0  0  0
 15 18  1  0  0  0  0
 15 20  1  0  0  0  0
 16 19  1  0  0  0  0
 18 19  2  0  0  0  0
 18 44  1  0  0  0  0
 19 45  1  0  0  0  0
 20 21  2  0  0  0  0
 20 22  1  0  0  0  0
 21 24  1  0  0  0  0
 21 47  1  0  0  0  0
 22 25  2  0  0  0  0
 22 48  1  0  0  0  0
 23 27  1  0  0  0  0
 23 28  2  0  0  0  0
 24 26  2  0  0  0  0
 24 49  1  0  0  0  0
 25 26  1  0  0  0  0
 25 50  1  0  0  0  0
 27 29  2  0  0  0  0
 28 30  1  0  0  0  0
 28 51  1  0  0  0  0
 29 31  1  0  0  0  0
 29 52  1  0  0  0  0
 30 31  2  0  0  0  0
 30 53  1  0  0  0  0
 31 54  1  0  0  0  0
 32 55  1  0  0  0  0
 32 56  1  0  0  0  0
 32 57  1  0  0  0  0
 33 58  1  0  0  0  0
 33 59  1  0  0  0  0
 33 60  1  0  0  0  0
M  END
> <PUBCHEM_COMPOUND_CID>
7144114

> <PUBCHEM_CONFORMER_RMSD>
1

> <PUBCHEM_CONFORMER_DIVERSEORDER>
1
4
9
19
14
16
2
5
15
8
13
7
3
18
12
17
6
11
10

> <PUBCHEM_MMFF94_PARTIAL_CHARGES>
42
1 -0.57
11 0.3
12 0.3
13 0.3
14 -0.03
15 -0.03
16 0.62
17 0.69
18 -0.15
19 -0.14
2 -0.57
20 0.03
21 -0.15
22 -0.15
23 0.12
24 -0.15
25 -0.15
26 0.08
27 0.08
28 -0.15
29 -0.15
3 -0.36
30 -0.15
31 -0.15
32 0.28
33 0.28
4 -0.36
44 0.15
45 0.15
46 0.37
47 0.15
48 0.15
49 0.15
5 -0.47
50 0.15
51 0.15
52 0.15
53 0.15
54 0.15
6 -0.66
7 -0.55
9 0.14

> <PUBCHEM_EFFECTIVE_ROTOR_COUNT>
7

> <PUBCHEM_PHARMACOPHORE_FEATURES>
10
1 1 acceptor
1 2 acceptor
1 3 acceptor
1 4 acceptor
1 7 donor
6 20 21 22 24 25 26 rings
6 23 27 28 29 30 31 rings
6 5 14 15 16 18 19 rings
6 5 8 9 10 11 14 rings
6 6 8 9 10 12 13 rings

> <PUBCHEM_HEAVY_ATOM_COUNT>
33

> <PUBCHEM_ATOM_DEF_STEREO_COUNT>
2

> <PUBCHEM_ATOM_UDEF_STEREO_COUNT>
0

> <PUBCHEM_BOND_DEF_STEREO_COUNT>
0

> <PUBCHEM_BOND_UDEF_STEREO_COUNT>
0

> <PUBCHEM_ISOTOPIC_ATOM_COUNT>
0

> <PUBCHEM_COMPONENT_COUNT>
1

> <PUBCHEM_CACTVS_TAUTO_COUNT>
2

> <PUBCHEM_CONFORMER_ID>
006D02B200000001

> <PUBCHEM_MMFF94_ENERGY>
122.2702

> <PUBCHEM_FEATURE_SELFOVERLAP>
52.335

> <PUBCHEM_SHAPE_FINGERPRINT>
107951 10 18051119303073751564
11421498 54 17328611899407244313
12156800 1 17767732387511813943
13135754 10 17916048809548881238
14713325 29 18262238807272108110
150020 26 17981898749820924339
19315092 285 15978043296587409399
20771845 171 16671863231791445565
20775530 9 18263638635798084138
23466295 7 18408326566552820890
3027735 51 18126555730835467503
3380486 145 17843100752963908878
35225 105 17773049552755557645
4058900 60 17548141026316565336
437815 12 18340762745457667159
469060 322 18041293101206471954
484985 159 18339928112705077090
5080951 261 18336816508331823610
57527573 199 17200823028626947665
6287921 2 17398389118697504571
7097593 13 17625261196947903635

> <PUBCHEM_SHAPE_MULTIPOLES>
640.7
8.06
5.63
2.54
14.04
0.74
-0.85
8.88
-0.41
-4.65
1.31
-1.63
-1.63
1.02

> <PUBCHEM_SHAPE_SELFOVERLAP>
1403.752

> <PUBCHEM_SHAPE_VOLUME>
340.8

> <PUBCHEM_COORDINATE_TYPE>
2
5
10

$$$$
