40533566
  -OEChem-12032416113D

 47 51  0     1  0  0  0  0  0999 V2000
   -3.6382   -0.7565    0.9132 S   0  0  0  0  0  0  0  0  0  0  0  0
   -1.1784   -2.3367    0.7257 S   0  0  0  0  0  0  0  0  0  0  0  0
   -4.9756   -0.7250    0.3601 O   0  0  0  0  0  0  0  0  0  0  0  0
   -3.4255   -0.8733    2.3404 O   0  0  0  0  0  0  0  0  0  0  0  0
    1.9534    1.5727    1.6214 O   0  0  0  0  0  0  0  0  0  0  0  0
   -2.7577    0.5885    0.3269 N   0  0  2  0  0  0  0  0  0  0  0  0
    0.1933    1.6927    0.0960 N   0  0  0  0  0  0  0  0  0  0  0  0
    5.9505   -0.2549   -0.5062 N   0  0  0  0  0  0  0  0  0  0  0  0
   -1.9832    2.9466    0.5970 C   0  0  1  0  0  0  0  0  0  0  0  0
   -1.6994    1.8110   -1.5619 C   0  0  2  0  0  0  0  0  0  0  0  0
   -2.0502    3.1462   -0.9112 C   0  0  0  0  0  0  0  0  0  0  0  0
   -2.9893    1.8740    1.0454 C   0  0  0  0  0  0  0  0  0  0  0  0
   -2.7409    0.7517   -1.1576 C   0  0  0  0  0  0  0  0  0  0  0  0
   -0.5421    2.5983    0.9894 C   0  0  0  0  0  0  0  0  0  0  0  0
   -0.3061    1.3595   -1.1651 C   0  0  0  0  0  0  0  0  0  0  0  0
    0.4353    0.6262   -2.0106 C   0  0  0  0  0  0  0  0  0  0  0  0
    1.4651    1.2703    0.5312 C   0  0  0  0  0  0  0  0  0  0  0  0
    2.2576    0.4194   -0.4245 C   0  0  0  0  0  0  0  0  0  0  0  0
    1.7330    0.1463   -1.6285 C   0  0  0  0  0  0  0  0  0  0  0  0
   -2.7595   -2.0696    0.1250 C   0  0  0  0  0  0  0  0  0  0  0  0
    3.5795   -0.1154   -0.0544 C   0  0  0  0  0  0  0  0  0  0  0  0
   -3.0810   -2.9428   -0.8908 C   0  0  0  0  0  0  0  0  0  0  0  0
   -2.0151   -3.8431   -1.1796 C   0  0  0  0  0  0  0  0  0  0  0  0
    3.7321   -0.9536    1.0446 C   0  0  0  0  0  0  0  0  0  0  0  0
   -0.9198   -3.6237   -0.3737 C   0  0  0  0  0  0  0  0  0  0  0  0
    4.7100    0.2010   -0.7905 C   0  0  0  0  0  0  0  0  0  0  0  0
    4.9926   -1.4427    1.3691 C   0  0  0  0  0  0  0  0  0  0  0  0
    6.0598   -1.0671    0.5691 C   0  0  0  0  0  0  0  0  0  0  0  0
   -2.2568    3.8824    1.1005 H   0  0  0  0  0  0  0  0  0  0  0  0
   -1.7473    1.9423   -2.6510 H   0  0  0  0  0  0  0  0  0  0  0  0
   -1.3520    3.9306   -1.2293 H   0  0  0  0  0  0  0  0  0  0  0  0
   -3.0545    3.4688   -1.2118 H   0  0  0  0  0  0  0  0  0  0  0  0
   -2.8889    1.7165    2.1248 H   0  0  0  0  0  0  0  0  0  0  0  0
   -4.0123    2.2155    0.8463 H   0  0  0  0  0  0  0  0  0  0  0  0
   -3.7374    1.0592   -1.4980 H   0  0  0  0  0  0  0  0  0  0  0  0
   -2.4959   -0.1894   -1.6567 H   0  0  0  0  0  0  0  0  0  0  0  0
    0.0464    3.5258    1.0182 H   0  0  0  0  0  0  0  0  0  0  0  0
   -0.5078    2.1890    2.0070 H   0  0  0  0  0  0  0  0  0  0  0  0
    0.0679    0.3465   -2.9924 H   0  0  0  0  0  0  0  0  0  0  0  0
    2.2558   -0.4684   -2.3555 H   0  0  0  0  0  0  0  0  0  0  0  0
   -4.0335   -2.9378   -1.4047 H   0  0  0  0  0  0  0  0  0  0  0  0
   -2.0498   -4.6121   -1.9402 H   0  0  0  0  0  0  0  0  0  0  0  0
    2.8791   -1.2391    1.6550 H   0  0  0  0  0  0  0  0  0  0  0  0
    0.0204   -4.1569   -0.3783 H   0  0  0  0  0  0  0  0  0  0  0  0
    4.6630    0.8542   -1.6572 H   0  0  0  0  0  0  0  0  0  0  0  0
    5.1351   -2.0984    2.2204 H   0  0  0  0  0  0  0  0  0  0  0  0
    7.0634   -1.4218    0.7796 H   0  0  0  0  0  0  0  0  0  0  0  0
  1  3  2  0  0  0  0
  1  4  2  0  0  0  0
  1  6  1  0  0  0  0
  1 20  1  0  0  0  0
  2 20  1  0  0  0  0
  2 25  1  0  0  0  0
  5 17  2  0  0  0  0
  6 12  1  0  0  0  0
  6 13  1  0  0  0  0
  7 14  1  0  0  0  0
  7 15  1  0  0  0  0
  7 17  1  0  0  0  0
  8 26  1  0  0  0  0
  8 28  2  0  0  0  0
  9 11  1  0  0  0  0
  9 12  1  0  0  0  0
  9 14  1  0  0  0  0
  9 29  1  0  0  0  0
 10 11  1  0  0  0  0
 10 13  1  0  0  0  0
 10 15  1  0  0  0  0
 10 30  1  0  0  0  0
 11 31  1  0  0  0  0
 11 32  1  0  0  0  0
 12 33  1  0  0  0  0
 12 34  1  0  0  0  0
 13 35  1  0  0  0  0
 13 36  1  0  0  0  0
 14 37  1  0  0  0  0
 14 38  1  0  0  0  0
 15 16  2  0  0  0  0
 16 19  1  0  0  0  0
 16 39  1  0  0  0  0
 17 18  1  0  0  0  0
 18 19  2  0  0  0  0
 18 21  1  0  0  0  0
 19 40  1  0  0  0  0
 20 22  2  0  0  0  0
 21 24  1  0  0  0  0
 21 26  2  0  0  0  0
 22 23  1  0  0  0  0
 22 41  1  0  0  0  0
 23 25  2  0  0  0  0
 23 42  1  0  0  0  0
 24 27  2  0  0  0  0
 24 43  1  0  0  0  0
 25 44  1  0  0  0  0
 26 45  1  0  0  0  0
 27 28  1  0  0  0  0
 27 46  1  0  0  0  0
 28 47  1  0  0  0  0
M  END
> <PUBCHEM_COMPOUND_CID>
40533566

> <PUBCHEM_CONFORMER_RMSD>
0.8

> <PUBCHEM_CONFORMER_DIVERSEORDER>
1
20
15
10
3
5
12
13
19
2
4
11
16
6
17
9
7
14
18
8

> <PUBCHEM_MMFF94_PARTIAL_CHARGES>
35
1 1.5
10 0.14
12 0.36
13 0.36
14 0.3
15 -0.03
16 -0.15
17 0.62
18 -0.01
19 -0.15
2 -0.08
20 -0.02
21 0.03
22 -0.15
23 -0.15
24 -0.15
25 -0.11
26 0.16
27 -0.15
28 0.16
3 -0.65
39 0.15
4 -0.65
40 0.15
41 0.15
42 0.15
43 0.15
44 0.15
45 0.15
46 0.15
47 0.15
5 -0.57
6 -0.85
7 -0.47
8 -0.62

> <PUBCHEM_EFFECTIVE_ROTOR_COUNT>
4

> <PUBCHEM_PHARMACOPHORE_FEATURES>
9
1 3 acceptor
1 4 acceptor
1 5 acceptor
1 8 acceptor
5 2 20 22 23 25 rings
6 6 9 10 11 12 13 rings
6 7 15 16 17 18 19 rings
6 7 9 10 11 14 15 rings
6 8 21 24 26 27 28 rings

> <PUBCHEM_HEAVY_ATOM_COUNT>
28

> <PUBCHEM_ATOM_DEF_STEREO_COUNT>
2

> <PUBCHEM_ATOM_UDEF_STEREO_COUNT>
0

> <PUBCHEM_BOND_DEF_STEREO_COUNT>
0

> <PUBCHEM_BOND_UDEF_STEREO_COUNT>
0

> <PUBCHEM_ISOTOPIC_ATOM_COUNT>
0

> <PUBCHEM_COMPONENT_COUNT>
1

> <PUBCHEM_CACTVS_TAUTO_COUNT>
3

> <PUBCHEM_CONFORMER_ID>
026A7E3E00000001

> <PUBCHEM_MMFF94_ENERGY>
67.1884

> <PUBCHEM_FEATURE_SELFOVERLAP>
47.276

> <PUBCHEM_SHAPE_FINGERPRINT>
10483366 6 18266717183442539631
11014199 57 17905890632237793578
11552529 35 18412820300750913318
12156800 1 16304637501779500539
12166972 35 18043524135048843535
12422481 6 17974316256016361321
12523318 42 18339348696152543304
12633257 1 17988095477137313011
12788726 201 18336847354238258212
13004483 165 18334857255435318621
13583140 156 18270664382493442296
13631057 29 18336825403203675374
14020679 6 17774728532702459337
14114206 34 17604413206670600811
14251751 93 17968090863881814938
14251757 5 18335986462662443834
14844126 61 18409444773946221011
15420108 30 18129672877246010355
15927050 60 17838337381278006461
16728300 4 18042395829665013507
19319366 153 16671949461790953533
19377110 9 18113893906187485536
20511986 3 17822282458248934512
20775530 9 17979634859658287767
23559900 14 18337099155228495976
3459 110 17986374793427785744
35225 105 18265876013179563415
463206 1 18191023606539637307
484985 159 18336529560786562439
5265222 85 18336559278339847614
56638632 33 18199187471975681433
602551 16 18342179951621353934
7970288 3 17750808829081205611

> <PUBCHEM_SHAPE_MULTIPOLES>
551.37
9.92
4.11
1.71
15.49
2.01
0.02
4.15
-2.42
-4.77
0.5
-0.36
-0.17
-0.66

> <PUBCHEM_SHAPE_SELFOVERLAP>
1189.401

> <PUBCHEM_SHAPE_VOLUME>
303.1

> <PUBCHEM_COORDINATE_TYPE>
2
5
10

$$$$
