30734266
  -OEChem-12032416163D

 52 55  0     1  0  0  0  0  0999 V2000
   -3.7670    0.1881    0.6816 N   0  0  2  0  0  0  0  0  0  0  0  0
    0.3178   -2.2507    0.5401 N   0  0  0  0  0  0  0  0  0  0  0  0
    1.6486   -2.1121    0.6676 N   0  0  0  0  0  0  0  0  0  0  0  0
   -2.5390    3.7588    0.5485 N   0  0  0  0  0  0  0  0  0  0  0  0
   -2.3159   -0.2437   -1.4376 C   0  0  2  0  0  0  0  0  0  0  0  0
   -1.8014   -1.0945   -0.2436 C   0  0  2  0  0  0  0  0  0  0  0  0
   -3.3363    1.4816    0.0882 C   0  0  2  0  0  0  0  0  0  0  0  0
   -2.3099    1.2478   -1.0411 C   0  0  0  0  0  0  0  0  0  0  0  0
   -2.5800   -0.6353    1.0223 C   0  0  0  0  0  0  0  0  0  0  0  0
   -3.7882   -0.6458   -1.6689 C   0  0  0  0  0  0  0  0  0  0  0  0
   -4.5572   -0.5397   -0.3404 C   0  0  0  0  0  0  0  0  0  0  0  0
   -0.2998   -1.1634   -0.0044 C   0  0  0  0  0  0  0  0  0  0  0  0
   -2.8122    2.4600    1.1414 C   0  0  0  0  0  0  0  0  0  0  0  0
    0.6959   -0.2497   -0.2497 C   0  0  0  0  0  0  0  0  0  0  0  0
    3.2885   -0.3392    0.1490 C   0  0  0  0  0  0  0  0  0  0  0  0
    1.8736   -0.8878    0.1834 C   0  0  0  0  0  0  0  0  0  0  0  0
    3.4375    0.9142    1.0290 C   0  0  0  0  0  0  0  0  0  0  0  0
    3.7612   -0.0619   -1.2888 C   0  0  0  0  0  0  0  0  0  0  0  0
    4.8667    1.4531    0.9958 C   0  0  0  0  0  0  0  0  0  0  0  0
    5.1891    0.4808   -1.3124 C   0  0  0  0  0  0  0  0  0  0  0  0
    5.3358    1.7183   -0.4318 C   0  0  0  0  0  0  0  0  0  0  0  0
   -0.3078   -3.4790    0.9720 C   0  0  0  0  0  0  0  0  0  0  0  0
   -1.7177   -0.4107   -2.3396 H   0  0  0  0  0  0  0  0  0  0  0  0
   -2.1161   -2.1254   -0.4654 H   0  0  0  0  0  0  0  0  0  0  0  0
   -4.2285    1.9537   -0.3507 H   0  0  0  0  0  0  0  0  0  0  0  0
   -1.3097    1.5675   -0.7470 H   0  0  0  0  0  0  0  0  0  0  0  0
   -2.5891    1.8536   -1.9127 H   0  0  0  0  0  0  0  0  0  0  0  0
   -2.9147   -1.5210    1.5783 H   0  0  0  0  0  0  0  0  0  0  0  0
   -1.9306   -0.0976    1.7226 H   0  0  0  0  0  0  0  0  0  0  0  0
   -3.8499   -1.6702   -2.0541 H   0  0  0  0  0  0  0  0  0  0  0  0
   -4.2402    0.0114   -2.4218 H   0  0  0  0  0  0  0  0  0  0  0  0
   -5.5160   -0.0326   -0.5042 H   0  0  0  0  0  0  0  0  0  0  0  0
   -4.8139   -1.5400    0.0313 H   0  0  0  0  0  0  0  0  0  0  0  0
   -1.8964    2.0934    1.6168 H   0  0  0  0  0  0  0  0  0  0  0  0
   -3.5605    2.5875    1.9322 H   0  0  0  0  0  0  0  0  0  0  0  0
    0.6120    0.7324   -0.6869 H   0  0  0  0  0  0  0  0  0  0  0  0
    3.9517   -1.1114    0.5667 H   0  0  0  0  0  0  0  0  0  0  0  0
    3.1604    0.6820    2.0647 H   0  0  0  0  0  0  0  0  0  0  0  0
    2.7496    1.7000    0.6903 H   0  0  0  0  0  0  0  0  0  0  0  0
    3.0940    0.6618   -1.7749 H   0  0  0  0  0  0  0  0  0  0  0  0
    3.7117   -0.9814   -1.8851 H   0  0  0  0  0  0  0  0  0  0  0  0
    5.5401    0.7308    1.4735 H   0  0  0  0  0  0  0  0  0  0  0  0
    4.9246    2.3782    1.5802 H   0  0  0  0  0  0  0  0  0  0  0  0
    5.4724    0.7259   -2.3422 H   0  0  0  0  0  0  0  0  0  0  0  0
    5.8810   -0.2975   -0.9674 H   0  0  0  0  0  0  0  0  0  0  0  0
   -1.7840    3.6867   -0.1313 H   0  0  0  0  0  0  0  0  0  0  0  0
   -2.2067    4.3971    1.2704 H   0  0  0  0  0  0  0  0  0  0  0  0
    4.7516    2.5419   -0.8603 H   0  0  0  0  0  0  0  0  0  0  0  0
    6.3830    2.0410   -0.4215 H   0  0  0  0  0  0  0  0  0  0  0  0
   -0.7058   -3.9916    0.0930 H   0  0  0  0  0  0  0  0  0  0  0  0
    0.4358   -4.1131    1.4626 H   0  0  0  0  0  0  0  0  0  0  0  0
   -1.1038   -3.2393    1.6803 H   0  0  0  0  0  0  0  0  0  0  0  0
  1  7  1  0  0  0  0
  1  9  1  0  0  0  0
  1 11  1  0  0  0  0
  2  3  1  0  0  0  0
  2 12  1  0  0  0  0
  2 22  1  0  0  0  0
  3 16  2  0  0  0  0
  4 13  1  0  0  0  0
  4 46  1  0  0  0  0
  4 47  1  0  0  0  0
  5  6  1  0  0  0  0
  5  8  1  0  0  0  0
  5 10  1  0  0  0  0
  5 23  1  0  0  0  0
  6  9  1  0  0  0  0
  6 12  1  0  0  0  0
  6 24  1  0  0  0  0
  7  8  1  0  0  0  0
  7 13  1  0  0  0  0
  7 25  1  0  0  0  0
  8 26  1  0  0  0  0
  8 27  1  0  0  0  0
  9 28  1  0  0  0  0
  9 29  1  0  0  0  0
 10 11  1  0  0  0  0
 10 30  1  0  0  0  0
 10 31  1  0  0  0  0
 11 32  1  0  0  0  0
 11 33  1  0  0  0  0
 12 14  2  0  0  0  0
 13 34  1  0  0  0  0
 13 35  1  0  0  0  0
 14 16  1  0  0  0  0
 14 36  1  0  0  0  0
 15 16  1  0  0  0  0
 15 17  1  0  0  0  0
 15 18  1  0  0  0  0
 15 37  1  0  0  0  0
 17 19  1  0  0  0  0
 17 38  1  0  0  0  0
 17 39  1  0  0  0  0
 18 20  1  0  0  0  0
 18 40  1  0  0  0  0
 18 41  1  0  0  0  0
 19 21  1  0  0  0  0
 19 42  1  0  0  0  0
 19 43  1  0  0  0  0
 20 21  1  0  0  0  0
 20 44  1  0  0  0  0
 20 45  1  0  0  0  0
 21 48  1  0  0  0  0
 21 49  1  0  0  0  0
 22 50  1  0  0  0  0
 22 51  1  0  0  0  0
 22 52  1  0  0  0  0
M  END
> <PUBCHEM_COMPOUND_CID>
30734266

> <PUBCHEM_CONFORMER_RMSD>
0.8

> <PUBCHEM_CONFORMER_DIVERSEORDER>
1
7
11
6
4
12
3
9
13
8
2
10
5

> <PUBCHEM_MMFF94_PARTIAL_CHARGES>
17
1 -0.81
11 0.27
12 -0.33
13 0.27
14 -0.15
15 0.18
16 0.11
2 0.31
22 0.26
3 -0.71
36 0.15
4 -0.99
46 0.36
47 0.36
6 0.18
7 0.27
9 0.27

> <PUBCHEM_EFFECTIVE_ROTOR_COUNT>
5.4

> <PUBCHEM_PHARMACOPHORE_FEATURES>
7
1 1 cation
1 3 acceptor
1 4 cation
1 4 donor
5 2 3 12 14 16 rings
6 15 17 18 19 20 21 rings
8 1 5 6 7 8 9 10 11 rings

> <PUBCHEM_HEAVY_ATOM_COUNT>
22

> <PUBCHEM_ATOM_DEF_STEREO_COUNT>
3

> <PUBCHEM_ATOM_UDEF_STEREO_COUNT>
0

> <PUBCHEM_BOND_DEF_STEREO_COUNT>
0

> <PUBCHEM_BOND_UDEF_STEREO_COUNT>
0

> <PUBCHEM_ISOTOPIC_ATOM_COUNT>
0

> <PUBCHEM_COMPONENT_COUNT>
1

> <PUBCHEM_CACTVS_TAUTO_COUNT>
1

> <PUBCHEM_CONFORMER_ID>
01D4F7BA00000001

> <PUBCHEM_MMFF94_ENERGY>
35.8722

> <PUBCHEM_FEATURE_SELFOVERLAP>
35.522

> <PUBCHEM_SHAPE_FINGERPRINT>
10291535 26 18268429221229698016
10366900 7 18409727391547684675
10498660 4 18340480088832336493
10670039 82 18335709325840020876
10871710 139 18413390912989813853
11045977 3 13406788939532148204
11370993 144 13407058294047813228
11543360 7 16916784132365270414
12173636 292 18410858750242312007
12390115 104 18339094708549970656
12403259 118 16515957151189795342
12507557 5 16877940581025685684
12596602 18 17023464265272447264
12633257 1 16226349056666766833
12670546 177 17346317132842493118
12916748 109 18412829113907708218
13140716 1 17974573798950163738
13224815 77 18113898234601637172
13583140 156 15213303057911699540
14142880 1 18335417920782929189
14251751 93 17917993841060069485
14251757 17 17703794691425166552
14251764 75 17840318722242677753
14739800 52 18269253795158780392
15183329 4 18113904841290259726
15463212 79 17988066894283614862
15575132 122 18343018866129940709
15788980 27 12103850055435741916
1741750 31 18334857259925607682
17780758 139 11602814714086812372
1813 80 10952054489411919330
18186145 218 18202563999338467738
204376 136 18114176462567806314
20626108 58 9222646857602547516
20645477 70 16916801686471427718
20739085 24 17823705166144382302
21033650 10 18057912211144775692
21864079 5 18340204085696364480
221357 26 17917991693792764224
235170 7 16989127565035163540
23557571 272 18194412301523908550
23559900 14 17629478588687002198
3004659 81 13110970846653814156
351380 3 11527955568874553460
392239 28 18264781015947544483
44062 13 10735871764464779633
46194498 28 17346038973897591828
469060 322 18261690228580076545
474 4 18187929438962971238
497634 4 16702026417484659881
5104073 3 18041842801190807075
5252454 2 18126287437087541073
5281201 14 17561369482870142004
5486654 2 18335982069016336575
633830 44 18339925900907416638
7097593 13 17543623133180218491
7808743 9 18116155657181945924
84936 182 18340763724530759090
8863177 126 12966265289426680957
9981440 41 18261106357582123627

> <PUBCHEM_SHAPE_MULTIPOLES>
432.83
10.71
3.01
1.38
10.19
0.42
-0.3
5.72
-1.93
-1.62
1.43
-0.08
0.06
-0.53

> <PUBCHEM_SHAPE_SELFOVERLAP>
911.945

> <PUBCHEM_SHAPE_VOLUME>
236.3

> <PUBCHEM_COORDINATE_TYPE>
2
5
10

$$$$
