11912476
  -OEChem-12032416283D

 61 64  0     1  0  0  0  0  0999 V2000
    0.9567    0.2874   -1.1378 O   0  0  0  0  0  0  0  0  0  0  0  0
   -0.7410   -2.1923   -0.5197 O   0  0  0  0  0  0  0  0  0  0  0  0
    2.7025   -1.4535    0.1360 O   0  0  0  0  0  0  0  0  0  0  0  0
    2.9087    0.1965    1.7203 O   0  0  0  0  0  0  0  0  0  0  0  0
   -1.9626    1.2581   -0.6889 N   0  0  0  0  0  0  0  0  0  0  0  0
    4.7381   -0.5281    0.4914 N   0  0  0  0  0  0  0  0  0  0  0  0
   -4.0398    0.2608   -0.2459 N   0  0  0  0  0  0  0  0  0  0  0  0
   -3.6517    2.5860    0.2543 N   0  0  0  0  0  0  0  0  0  0  0  0
   -0.8595   -0.8198   -0.0896 C   0  0  1  0  0  0  0  0  0  0  0  0
    0.5500   -0.2991    0.1093 C   0  0  1  0  0  0  0  0  0  0  0  0
   -1.4073    0.0287   -1.2130 C   0  0  2  0  0  0  0  0  0  0  0  0
    1.3244   -1.5590    0.4136 C   0  0  1  0  0  0  0  0  0  0  0  0
   -0.1639    0.3204   -2.0350 C   0  0  0  0  0  0  0  0  0  0  0  0
    0.6413   -2.5750   -0.4737 C   0  0  0  0  0  0  0  0  0  0  0  0
    5.7382    0.3379    1.0754 C   0  0  0  0  0  0  0  0  0  0  0  0
    5.8053    1.6787    0.3366 C   0  0  0  0  0  0  0  0  0  0  0  0
    7.1085   -0.3472    1.1086 C   0  0  0  0  0  0  0  0  0  0  0  0
    6.4328    1.5509   -1.0516 C   0  0  0  0  0  0  0  0  0  0  0  0
    7.7340   -0.4717   -0.2806 C   0  0  0  0  0  0  0  0  0  0  0  0
    7.8001    0.8766   -0.9914 C   0  0  0  0  0  0  0  0  0  0  0  0
    3.4104   -0.5243    0.8639 C   0  0  0  0  0  0  0  0  0  0  0  0
   -3.2568    1.3717   -0.2125 C   0  0  0  0  0  0  0  0  0  0  0  0
   -6.1683   -0.8021    0.1972 C   0  0  0  0  0  0  0  0  0  0  0  0
   -5.2952    0.4072    0.2263 C   0  0  0  0  0  0  0  0  0  0  0  0
   -5.7943    1.5943    0.7221 C   0  0  0  0  0  0  0  0  0  0  0  0
   -4.9190    2.6610    0.7112 C   0  0  0  0  0  0  0  0  0  0  0  0
   -5.5048   -2.0950   -0.3827 C   0  0  0  0  0  0  0  0  0  0  0  0
   -6.6473   -1.1884    1.6307 C   0  0  0  0  0  0  0  0  0  0  0  0
   -7.4394   -0.5606   -0.6746 C   0  0  0  0  0  0  0  0  0  0  0  0
   -1.4534   -0.8144    0.8298 H   0  0  0  0  0  0  0  0  0  0  0  0
    0.6092    0.4763    0.8778 H   0  0  0  0  0  0  0  0  0  0  0  0
   -2.1392   -0.4910   -1.8421 H   0  0  0  0  0  0  0  0  0  0  0  0
    1.1724   -1.8514    1.4614 H   0  0  0  0  0  0  0  0  0  0  0  0
    0.0011   -0.4617   -2.7843 H   0  0  0  0  0  0  0  0  0  0  0  0
   -0.1871    1.2864   -2.5488 H   0  0  0  0  0  0  0  0  0  0  0  0
    0.7274   -3.5932   -0.0824 H   0  0  0  0  0  0  0  0  0  0  0  0
    1.0431   -2.5749   -1.4931 H   0  0  0  0  0  0  0  0  0  0  0  0
   -1.3717    2.0781   -0.6109 H   0  0  0  0  0  0  0  0  0  0  0  0
    5.4290    0.5352    2.1096 H   0  0  0  0  0  0  0  0  0  0  0  0
    6.4043    2.3817    0.9295 H   0  0  0  0  0  0  0  0  0  0  0  0
    4.8046    2.1173    0.2428 H   0  0  0  0  0  0  0  0  0  0  0  0
    7.7833    0.2365    1.7477 H   0  0  0  0  0  0  0  0  0  0  0  0
    7.0255   -1.3432    1.5601 H   0  0  0  0  0  0  0  0  0  0  0  0
    5.7684    0.9738   -1.7062 H   0  0  0  0  0  0  0  0  0  0  0  0
    6.5337    2.5455   -1.5008 H   0  0  0  0  0  0  0  0  0  0  0  0
    8.7448   -0.8854   -0.1887 H   0  0  0  0  0  0  0  0  0  0  0  0
    7.1606   -1.1801   -0.8899 H   0  0  0  0  0  0  0  0  0  0  0  0
    8.1891    0.7399   -2.0066 H   0  0  0  0  0  0  0  0  0  0  0  0
    8.5056    1.5313   -0.4650 H   0  0  0  0  0  0  0  0  0  0  0  0
    5.0087   -1.1472   -0.2664 H   0  0  0  0  0  0  0  0  0  0  0  0
   -6.8011    1.7114    1.1006 H   0  0  0  0  0  0  0  0  0  0  0  0
   -5.2214    3.6349    1.0808 H   0  0  0  0  0  0  0  0  0  0  0  0
   -4.6221   -2.3783    0.2026 H   0  0  0  0  0  0  0  0  0  0  0  0
   -5.1801   -1.9379   -1.4180 H   0  0  0  0  0  0  0  0  0  0  0  0
   -6.1979   -2.9440   -0.3748 H   0  0  0  0  0  0  0  0  0  0  0  0
   -5.7911   -1.3751    2.2896 H   0  0  0  0  0  0  0  0  0  0  0  0
   -7.2635   -2.0948    1.6142 H   0  0  0  0  0  0  0  0  0  0  0  0
   -7.2502   -0.3964    2.0886 H   0  0  0  0  0  0  0  0  0  0  0  0
   -7.1617   -0.2890   -1.7000 H   0  0  0  0  0  0  0  0  0  0  0  0
   -8.0622    0.2476   -0.2756 H   0  0  0  0  0  0  0  0  0  0  0  0
   -8.0664   -1.4585   -0.7222 H   0  0  0  0  0  0  0  0  0  0  0  0
  1 10  1  0  0  0  0
  1 13  1  0  0  0  0
  2  9  1  0  0  0  0
  2 14  1  0  0  0  0
  3 12  1  0  0  0  0
  3 21  1  0  0  0  0
  4 21  2  0  0  0  0
  5 11  1  0  0  0  0
  5 22  1  0  0  0  0
  5 38  1  0  0  0  0
  6 15  1  0  0  0  0
  6 21  1  0  0  0  0
  6 50  1  0  0  0  0
  7 22  1  0  0  0  0
  7 24  2  0  0  0  0
  8 22  2  0  0  0  0
  8 26  1  0  0  0  0
  9 10  1  0  0  0  0
  9 11  1  0  0  0  0
  9 30  1  0  0  0  0
 10 12  1  0  0  0  0
 10 31  1  0  0  0  0
 11 13  1  0  0  0  0
 11 32  1  0  0  0  0
 12 14  1  0  0  0  0
 12 33  1  0  0  0  0
 13 34  1  0  0  0  0
 13 35  1  0  0  0  0
 14 36  1  0  0  0  0
 14 37  1  0  0  0  0
 15 16  1  0  0  0  0
 15 17  1  0  0  0  0
 15 39  1  0  0  0  0
 16 18  1  0  0  0  0
 16 40  1  0  0  0  0
 16 41  1  0  0  0  0
 17 19  1  0  0  0  0
 17 42  1  0  0  0  0
 17 43  1  0  0  0  0
 18 20  1  0  0  0  0
 18 44  1  0  0  0  0
 18 45  1  0  0  0  0
 19 20  1  0  0  0  0
 19 46  1  0  0  0  0
 19 47  1  0  0  0  0
 20 48  1  0  0  0  0
 20 49  1  0  0  0  0
 23 24  1  0  0  0  0
 23 27  1  0  0  0  0
 23 28  1  0  0  0  0
 23 29  1  0  0  0  0
 24 25  1  0  0  0  0
 25 26  2  0  0  0  0
 25 51  1  0  0  0  0
 26 52  1  0  0  0  0
 27 53  1  0  0  0  0
 27 54  1  0  0  0  0
 27 55  1  0  0  0  0
 28 56  1  0  0  0  0
 28 57  1  0  0  0  0
 28 58  1  0  0  0  0
 29 59  1  0  0  0  0
 29 60  1  0  0  0  0
 29 61  1  0  0  0  0
M  END
> <PUBCHEM_COMPOUND_CID>
11912476

> <PUBCHEM_CONFORMER_RMSD>
1.2

> <PUBCHEM_CONFORMER_DIVERSEORDER>
1
123
25
2
77
125
109
67
18
41
64
79
7
76
47
100
58
115
8
48
111
86
45
105
52
63
49
129
29
57
82
118
104
17
103
14
51
37
23
126
15
19
92
99
43
6
83
33
96
60
131
132
84
73
89
62
28
114
113
74
59
98
94
39
120
122
69
106
93
44
16
38
46
68
102
70
80
32
10
3
24
97
50
91
9
31
90
87
110
65
72
136
95
11
117
107
124
54
101
88
78
35
71
134
55
127
133
53
42
26
66
108
112
12
130
30
121
36
85
116
81
21
135
34
40
56
27
61
75
4
22
119
13
20
128
5

> <PUBCHEM_MMFF94_PARTIAL_CHARGES>
25
1 -0.56
10 0.28
11 0.37
12 0.28
13 0.28
14 0.28
15 0.3
2 -0.56
21 0.78
22 0.72
23 0.14
24 0.17
25 -0.15
26 0.16
3 -0.43
38 0.4
4 -0.57
5 -0.87
50 0.37
51 0.15
52 0.15
6 -0.73
7 -0.62
8 -0.62
9 0.28

> <PUBCHEM_EFFECTIVE_ROTOR_COUNT>
9.4

> <PUBCHEM_PHARMACOPHORE_FEATURES>
12
1 1 acceptor
1 2 acceptor
1 4 acceptor
1 5 donor
1 6 donor
1 7 acceptor
4 23 27 28 29 hydrophobe
4 5 7 8 22 cation
5 1 9 10 11 13 rings
5 2 9 10 12 14 rings
6 15 16 17 18 19 20 rings
6 7 8 22 24 25 26 rings

> <PUBCHEM_HEAVY_ATOM_COUNT>
29

> <PUBCHEM_ATOM_DEF_STEREO_COUNT>
4

> <PUBCHEM_ATOM_UDEF_STEREO_COUNT>
0

> <PUBCHEM_BOND_DEF_STEREO_COUNT>
0

> <PUBCHEM_BOND_UDEF_STEREO_COUNT>
0

> <PUBCHEM_ISOTOPIC_ATOM_COUNT>
0

> <PUBCHEM_COMPONENT_COUNT>
1

> <PUBCHEM_CACTVS_TAUTO_COUNT>
6

> <PUBCHEM_CONFORMER_ID>
00B5C51C00000001

> <PUBCHEM_MMFF94_ENERGY>
74.2393

> <PUBCHEM_FEATURE_SELFOVERLAP>
61.611

> <PUBCHEM_SHAPE_FINGERPRINT>
10 15 18408886222408679755
10369192 42 18060135444698205540
10591671 39 18343305868370488280
10613725 11 12103844570483079488
106641 1 17822013128859189466
10670039 82 12823298966822735179
11135609 99 17532101664703184691
11273773 118 14692580879864039547
11315181 36 18113618989541206097
11719270 70 12107785194925620568
11991303 11 16988556965523299718
12120059 9 13334730267199408576
12144600 37 18342463604015284214
12390115 104 18201722838124414955
12596602 18 17968091993294872233
13761468 95 11311513355373920219
13914758 101 11455895762896604842
14251752 14 10447932771536178675
14251764 18 18186803591012623508
1454969 45 18334009510394993431
14849402 71 18335426823891788268
14856354 85 18271524295007007367
14933364 13 18272651234068750544
15064981 194 17534923067606344958
15119646 104 11599733857131917900
15183329 4 15051730859492261092
15188451 53 10231763271774493116
15328829 1 17895195549210154286
15461852 350 18130780188539398159
16126227 98 18339642364763213008
17980427 23 18186527596572483989
18608769 82 18201434817580829827
19315958 150 18267308621940369225
19611394 137 18116163327603004307
21365058 27 17704357679870062567
21458453 9 17967537916781035104
21756936 100 17988347217870829958
22224240 67 17676205771351368866
3004659 81 10519979375122106754
3009799 131 10087921882788158922
350125 39 18410007779739602005
4073 2 18336270033820390267
4098825 35 14045740434699040892
4325135 7 18412260645163904613
444769 64 10447932793338069647
4625314 4 18113615659933931142
5104073 3 18265336101895195451
550186 72 18335699412612974709
559249 180 8646764500335035545
563151 40 16916779716933578751
59682541 35 17968098654746729225
5969126 39 15647043855171465135
6126387 218 9367347020751626414
6523845 18 15339112451548726557
6703917 75 18341904008378092518
9689198 14 17632295674852787104
9953998 17 18410576163607426913

> <PUBCHEM_SHAPE_MULTIPOLES>
553.41
23.47
2.32
1.33
16.22
0.28
-0.07
3.99
3.14
-2.47
0.07
0.4
0.07
-0.98

> <PUBCHEM_SHAPE_SELFOVERLAP>
1166.846

> <PUBCHEM_SHAPE_VOLUME>
309.6

> <PUBCHEM_COORDINATE_TYPE>
2
5
10

$$$$
