11867169
  -OEChem-12032416403D

 58 62  0     1  0  0  0  0  0999 V2000
   -3.5627    0.6786   -0.8977 S   0  0  0  0  0  0  0  0  0  0  0  0
   -1.6192    3.1152   -1.0456 O   0  0  0  0  0  0  0  0  0  0  0  0
    2.5464    0.4338   -2.5640 O   0  0  0  0  0  0  0  0  0  0  0  0
   -4.5742    1.4412   -1.6048 O   0  0  0  0  0  0  0  0  0  0  0  0
   -2.3353    0.2943   -1.5688 O   0  0  0  0  0  0  0  0  0  0  0  0
    3.4851   -5.3197    0.7050 O   0  0  0  0  0  0  0  0  0  0  0  0
    5.1688   -4.0473   -0.1393 O   0  0  0  0  0  0  0  0  0  0  0  0
    3.0257    1.3642   -0.4712 N   0  0  0  0  0  0  0  0  0  0  0  0
    0.2867    2.7791    0.2748 N   0  0  0  0  0  0  0  0  0  0  0  0
   -3.1956    1.4401    0.5687 N   0  0  0  0  0  0  0  0  0  0  0  0
    2.5671    3.8031   -0.2792 C   0  0  1  0  0  0  0  0  0  0  0  0
    2.3240    2.3529    1.6960 C   0  0  2  0  0  0  0  0  0  0  0  0
    2.8101    3.7224    1.2242 C   0  0  0  0  0  0  0  0  0  0  0  0
    3.3380    2.6881   -1.0089 C   0  0  0  0  0  0  0  0  0  0  0  0
    1.0576    3.7277   -0.5401 C   0  0  0  0  0  0  0  0  0  0  0  0
    3.1350    1.2466    0.9920 C   0  0  0  0  0  0  0  0  0  0  0  0
    0.8465    2.1672    1.4048 C   0  0  0  0  0  0  0  0  0  0  0  0
    0.0924    1.3906    2.2041 C   0  0  0  0  0  0  0  0  0  0  0  0
   -1.0669    2.5949   -0.0771 C   0  0  0  0  0  0  0  0  0  0  0  0
    2.6396    0.3418   -1.3412 C   0  0  0  0  0  0  0  0  0  0  0  0
   -1.8405    1.7088    0.8287 C   0  0  0  0  0  0  0  0  0  0  0  0
   -1.2943    1.1507    1.9095 C   0  0  0  0  0  0  0  0  0  0  0  0
    2.2920   -0.9594   -0.7609 C   0  0  0  0  0  0  0  0  0  0  0  0
    3.2794   -1.9256   -0.5840 C   0  0  0  0  0  0  0  0  0  0  0  0
    0.9761   -1.2225   -0.3888 C   0  0  0  0  0  0  0  0  0  0  0  0
    2.9485   -3.1629   -0.0313 C   0  0  0  0  0  0  0  0  0  0  0  0
    0.6452   -2.4596    0.1639 C   0  0  0  0  0  0  0  0  0  0  0  0
   -4.3319   -0.8035   -0.3149 C   0  0  0  0  0  0  0  0  0  0  0  0
    1.6313   -3.4297    0.3428 C   0  0  0  0  0  0  0  0  0  0  0  0
   -5.7003   -0.8179   -0.1096 C   0  0  0  0  0  0  0  0  0  0  0  0
   -3.5505   -1.9201   -0.0752 C   0  0  0  0  0  0  0  0  0  0  0  0
    3.9759   -4.1754    0.1550 C   0  0  0  0  0  0  0  0  0  0  0  0
   -6.3069   -1.9867    0.3505 C   0  0  0  0  0  0  0  0  0  0  0  0
   -4.1572   -3.0888    0.3849 C   0  0  0  0  0  0  0  0  0  0  0  0
   -5.5354   -3.1220    0.5977 C   0  0  0  0  0  0  0  0  0  0  0  0
    2.9350    4.7639   -0.6600 H   0  0  0  0  0  0  0  0  0  0  0  0
    2.5019    2.2797    2.7767 H   0  0  0  0  0  0  0  0  0  0  0  0
    2.2760    4.5264    1.7459 H   0  0  0  0  0  0  0  0  0  0  0  0
    3.8768    3.8481    1.4466 H   0  0  0  0  0  0  0  0  0  0  0  0
    3.1337    2.7279   -2.0841 H   0  0  0  0  0  0  0  0  0  0  0  0
    4.4173    2.8358   -0.8803 H   0  0  0  0  0  0  0  0  0  0  0  0
    0.6171    4.7139   -0.3395 H   0  0  0  0  0  0  0  0  0  0  0  0
    0.8600    3.5198   -1.5993 H   0  0  0  0  0  0  0  0  0  0  0  0
    4.1993    1.3465    1.2385 H   0  0  0  0  0  0  0  0  0  0  0  0
    2.8206    0.2617    1.3457 H   0  0  0  0  0  0  0  0  0  0  0  0
    0.5103    0.8966    3.0750 H   0  0  0  0  0  0  0  0  0  0  0  0
   -1.8470    0.5014    2.5803 H   0  0  0  0  0  0  0  0  0  0  0  0
   -3.6910    1.0571    1.3864 H   0  0  0  0  0  0  0  0  0  0  0  0
    4.3033   -1.7072   -0.8784 H   0  0  0  0  0  0  0  0  0  0  0  0
    0.2007   -0.4761   -0.5295 H   0  0  0  0  0  0  0  0  0  0  0  0
   -0.3769   -2.6692    0.4612 H   0  0  0  0  0  0  0  0  0  0  0  0
    1.3299   -4.3784    0.7779 H   0  0  0  0  0  0  0  0  0  0  0  0
   -6.3165    0.0576   -0.2888 H   0  0  0  0  0  0  0  0  0  0  0  0
   -2.4785   -1.9097   -0.2339 H   0  0  0  0  0  0  0  0  0  0  0  0
   -7.3797   -2.0122    0.5181 H   0  0  0  0  0  0  0  0  0  0  0  0
   -3.5562   -3.9726    0.5781 H   0  0  0  0  0  0  0  0  0  0  0  0
   -6.0076   -4.0318    0.9567 H   0  0  0  0  0  0  0  0  0  0  0  0
    4.1856   -5.9956    0.8268 H   0  0  0  0  0  0  0  0  0  0  0  0
  1  4  2  0  0  0  0
  1  5  2  0  0  0  0
  1 10  1  0  0  0  0
  1 28  1  0  0  0  0
  2 19  2  0  0  0  0
  3 20  2  0  0  0  0
  6 32  1  0  0  0  0
  6 58  1  0  0  0  0
  7 32  2  0  0  0  0
  8 14  1  0  0  0  0
  8 16  1  0  0  0  0
  8 20  1  0  0  0  0
  9 15  1  0  0  0  0
  9 17  1  0  0  0  0
  9 19  1  0  0  0  0
 10 21  1  0  0  0  0
 10 48  1  0  0  0  0
 11 13  1  0  0  0  0
 11 14  1  0  0  0  0
 11 15  1  0  0  0  0
 11 36  1  0  0  0  0
 12 13  1  0  0  0  0
 12 16  1  0  0  0  0
 12 17  1  0  0  0  0
 12 37  1  0  0  0  0
 13 38  1  0  0  0  0
 13 39  1  0  0  0  0
 14 40  1  0  0  0  0
 14 41  1  0  0  0  0
 15 42  1  0  0  0  0
 15 43  1  0  0  0  0
 16 44  1  0  0  0  0
 16 45  1  0  0  0  0
 17 18  2  0  0  0  0
 18 22  1  0  0  0  0
 18 46  1  0  0  0  0
 19 21  1  0  0  0  0
 20 23  1  0  0  0  0
 21 22  2  0  0  0  0
 22 47  1  0  0  0  0
 23 24  2  0  0  0  0
 23 25  1  0  0  0  0
 24 26  1  0  0  0  0
 24 49  1  0  0  0  0
 25 27  2  0  0  0  0
 25 50  1  0  0  0  0
 26 29  2  0  0  0  0
 26 32  1  0  0  0  0
 27 29  1  0  0  0  0
 27 51  1  0  0  0  0
 28 30  2  0  0  0  0
 28 31  1  0  0  0  0
 29 52  1  0  0  0  0
 30 33  1  0  0  0  0
 30 53  1  0  0  0  0
 31 34  2  0  0  0  0
 31 54  1  0  0  0  0
 33 35  2  0  0  0  0
 33 55  1  0  0  0  0
 34 35  1  0  0  0  0
 34 56  1  0  0  0  0
 35 57  1  0  0  0  0
M  END
> <PUBCHEM_COMPOUND_CID>
11867169

> <PUBCHEM_CONFORMER_RMSD>
1

> <PUBCHEM_CONFORMER_DIVERSEORDER>
1
31
10
21
58
62
49
11
40
64
25
29
46
52
3
6
55
33
4
19
30
32
63
26
60
14
37
66
17
12
51
8
43
56
18
65
68
15
54
27
41
20
39
5
50
48
44
34
9
61
38
36
28
42
35
67
53
16
13
22
47
2
7
23
57
59
45
24

> <PUBCHEM_MMFF94_PARTIAL_CHARGES>
46
1 1.45
10 -0.75
12 0.14
14 0.3
15 0.3
16 0.3
17 -0.03
18 -0.15
19 0.62
2 -0.57
20 0.54
21 0.21
22 -0.15
23 0.09
24 -0.15
25 -0.15
26 0.09
27 -0.15
28 -0.01
29 -0.15
3 -0.57
30 -0.15
31 -0.15
32 0.63
33 -0.15
34 -0.15
35 -0.15
4 -0.65
46 0.15
47 0.15
48 0.42
49 0.15
5 -0.65
50 0.15
51 0.15
52 0.15
53 0.15
54 0.15
55 0.15
56 0.15
57 0.15
58 0.5
6 -0.65
7 -0.57
8 -0.66
9 -0.47

> <PUBCHEM_EFFECTIVE_ROTOR_COUNT>
7

> <PUBCHEM_PHARMACOPHORE_FEATURES>
13
1 10 donor
1 2 acceptor
1 3 acceptor
1 4 acceptor
1 5 acceptor
1 6 acceptor
1 7 acceptor
3 6 7 32 anion
6 23 24 25 26 27 29 rings
6 28 30 31 33 34 35 rings
6 8 11 12 13 14 16 rings
6 9 11 12 13 15 17 rings
6 9 17 18 19 21 22 rings

> <PUBCHEM_HEAVY_ATOM_COUNT>
35

> <PUBCHEM_ATOM_DEF_STEREO_COUNT>
2

> <PUBCHEM_ATOM_UDEF_STEREO_COUNT>
0

> <PUBCHEM_BOND_DEF_STEREO_COUNT>
0

> <PUBCHEM_BOND_UDEF_STEREO_COUNT>
0

> <PUBCHEM_ISOTOPIC_ATOM_COUNT>
0

> <PUBCHEM_COMPONENT_COUNT>
1

> <PUBCHEM_CACTVS_TAUTO_COUNT>
1

> <PUBCHEM_CONFORMER_ID>
00B5142100000001

> <PUBCHEM_MMFF94_ENERGY>
93.8384

> <PUBCHEM_FEATURE_SELFOVERLAP>
67.633

> <PUBCHEM_SHAPE_FINGERPRINT>
11014199 57 18195534679525997678
11285246 1 17823706256765876195
11488393 25 18336269041070924707
12104220 1 17979066082088704678
12156800 1 16522689220664222308
131258 43 18128549176310169958
13402501 40 18051978314108082145
1361 2 17977387462554852401
13617811 41 18042964467024663309
14114211 68 18045805603984490950
14659021 117 17831852452817025946
15264996 163 17755591442768732371
15968369 26 18191847098104473867
17093844 170 18052823842439108065
17686467 74 18126837211173464434
17909252 39 18410015450567095219
19319366 153 18055349390709620959
20764821 26 17762330723113370711
20775438 99 17903876108197792781
20775530 9 18271807882521870159
22956985 138 18410848842258902794
23559900 14 18337097978733731543
345986 75 17561372785747309963
3737641 26 18341902952000546275
4280585 95 18120924019414196434
4340502 62 17628075907965814088
4394409 98 17033007734243636039
463206 1 18122351181069300074
484989 97 18049740790818715574
5265222 85 17760934343293652981
86090 222 17908151223891225411

> <PUBCHEM_SHAPE_MULTIPOLES>
673.97
10.87
6.78
1.59
17.74
6.35
0.03
7.47
-0.76
-8.85
0.97
-0.53
-1.08
0.93

> <PUBCHEM_SHAPE_SELFOVERLAP>
1473.606

> <PUBCHEM_SHAPE_VOLUME>
363.5

> <PUBCHEM_COORDINATE_TYPE>
2
5
10

$$$$
