51137305
  -OEChem-12032416243D

 45 48  0     1  0  0  0  0  0999 V2000
    2.3202   -0.4444    0.2446 O   0  0  0  0  0  0  0  0  0  0  0  0
   -4.5837   -1.2435   -1.1670 O   0  0  0  0  0  0  0  0  0  0  0  0
   -1.7324   -0.3518    0.0859 N   0  0  1  0  0  0  0  0  0  0  0  0
    2.4875   -2.6698    0.4001 N   0  0  0  0  0  0  0  0  0  0  0  0
    3.7537   -2.1605    0.1803 N   0  0  0  0  0  0  0  0  0  0  0  0
    6.4687    2.1878   -0.5547 N   0  0  0  0  0  0  0  0  0  0  0  0
    0.1871   -1.5810    0.6372 C   0  0  1  0  0  0  0  0  0  0  0  0
   -0.2687   -0.7633    1.8582 C   0  0  0  0  0  0  0  0  0  0  0  0
   -0.5596   -0.9567   -0.5492 C   0  0  0  0  0  0  0  0  0  0  0  0
   -1.2176    0.2877    1.2967 C   0  0  0  0  0  0  0  0  0  0  0  0
   -2.4150    0.5889   -0.7902 C   0  0  0  0  0  0  0  0  0  0  0  0
    1.6833   -1.6329    0.4303 C   0  0  0  0  0  0  0  0  0  0  0  0
   -3.8202    0.8680   -0.3271 C   0  0  0  0  0  0  0  0  0  0  0  0
   -4.8381   -0.0621   -0.5375 C   0  0  0  0  0  0  0  0  0  0  0  0
   -4.0986    2.0727    0.3185 C   0  0  0  0  0  0  0  0  0  0  0  0
    3.6080   -0.8588    0.0960 C   0  0  0  0  0  0  0  0  0  0  0  0
   -6.1345    0.2125   -0.1024 C   0  0  0  0  0  0  0  0  0  0  0  0
   -5.3953    2.3473    0.7537 C   0  0  0  0  0  0  0  0  0  0  0  0
    4.5781    0.1743   -0.1239 C   0  0  0  0  0  0  0  0  0  0  0  0
   -6.4133    1.4172    0.5432 C   0  0  0  0  0  0  0  0  0  0  0  0
    5.9201   -0.1514   -0.2866 C   0  0  0  0  0  0  0  0  0  0  0  0
    4.1804    1.5057   -0.1764 C   0  0  0  0  0  0  0  0  0  0  0  0
   -5.6834   -2.1350   -1.3398 C   0  0  0  0  0  0  0  0  0  0  0  0
    6.8176    0.8829   -0.4976 C   0  0  0  0  0  0  0  0  0  0  0  0
    5.1557    2.4660   -0.3923 C   0  0  0  0  0  0  0  0  0  0  0  0
   -0.1618   -2.6141    0.7737 H   0  0  0  0  0  0  0  0  0  0  0  0
   -0.8054   -1.4200    2.5543 H   0  0  0  0  0  0  0  0  0  0  0  0
    0.5581   -0.3018    2.4084 H   0  0  0  0  0  0  0  0  0  0  0  0
    0.0520   -0.2016   -1.0605 H   0  0  0  0  0  0  0  0  0  0  0  0
   -0.8451   -1.7188   -1.2827 H   0  0  0  0  0  0  0  0  0  0  0  0
   -2.0072    0.5269    2.0159 H   0  0  0  0  0  0  0  0  0  0  0  0
   -0.6580    1.2046    1.0707 H   0  0  0  0  0  0  0  0  0  0  0  0
   -2.4855    0.1740   -1.8056 H   0  0  0  0  0  0  0  0  0  0  0  0
   -1.8488    1.5230   -0.9095 H   0  0  0  0  0  0  0  0  0  0  0  0
   -3.3154    2.8061    0.4909 H   0  0  0  0  0  0  0  0  0  0  0  0
   -6.9751   -0.4606   -0.2305 H   0  0  0  0  0  0  0  0  0  0  0  0
   -5.6121    3.2851    1.2568 H   0  0  0  0  0  0  0  0  0  0  0  0
   -7.4224    1.6321    0.8826 H   0  0  0  0  0  0  0  0  0  0  0  0
    6.2749   -1.1764   -0.2533 H   0  0  0  0  0  0  0  0  0  0  0  0
    3.1489    1.8205   -0.0568 H   0  0  0  0  0  0  0  0  0  0  0  0
   -6.0818   -2.4763   -0.3782 H   0  0  0  0  0  0  0  0  0  0  0  0
   -6.4571   -1.7025   -1.9832 H   0  0  0  0  0  0  0  0  0  0  0  0
   -5.3005   -3.0214   -1.8566 H   0  0  0  0  0  0  0  0  0  0  0  0
    7.8755    0.6819   -0.6305 H   0  0  0  0  0  0  0  0  0  0  0  0
    4.8976    3.5187   -0.4418 H   0  0  0  0  0  0  0  0  0  0  0  0
  1 12  1  0  0  0  0
  1 16  1  0  0  0  0
  2 14  1  0  0  0  0
  2 23  1  0  0  0  0
  3  9  1  0  0  0  0
  3 10  1  0  0  0  0
  3 11  1  0  0  0  0
  4  5  1  0  0  0  0
  4 12  2  0  0  0  0
  5 16  2  0  0  0  0
  6 24  2  0  0  0  0
  6 25  1  0  0  0  0
  7  8  1  0  0  0  0
  7  9  1  0  0  0  0
  7 12  1  0  0  0  0
  7 26  1  0  0  0  0
  8 10  1  0  0  0  0
  8 27  1  0  0  0  0
  8 28  1  0  0  0  0
  9 29  1  0  0  0  0
  9 30  1  0  0  0  0
 10 31  1  0  0  0  0
 10 32  1  0  0  0  0
 11 13  1  0  0  0  0
 11 33  1  0  0  0  0
 11 34  1  0  0  0  0
 13 14  1  0  0  0  0
 13 15  2  0  0  0  0
 14 17  2  0  0  0  0
 15 18  1  0  0  0  0
 15 35  1  0  0  0  0
 16 19  1  0  0  0  0
 17 20  1  0  0  0  0
 17 36  1  0  0  0  0
 18 20  2  0  0  0  0
 18 37  1  0  0  0  0
 19 21  2  0  0  0  0
 19 22  1  0  0  0  0
 20 38  1  0  0  0  0
 21 24  1  0  0  0  0
 21 39  1  0  0  0  0
 22 25  2  0  0  0  0
 22 40  1  0  0  0  0
 23 41  1  0  0  0  0
 23 42  1  0  0  0  0
 23 43  1  0  0  0  0
 24 44  1  0  0  0  0
 25 45  1  0  0  0  0
M  END
> <PUBCHEM_COMPOUND_CID>
51137305

> <PUBCHEM_CONFORMER_RMSD>
0.8

> <PUBCHEM_CONFORMER_DIVERSEORDER>
1
50
134
15
131
116
59
43
96
5
91
95
140
35
27
104
117
97
69
4
80
135
70
105
130
103
123
121
109
7
128
25
92
106
102
133
114
107
45
110
58
124
19
64
136
122
10
111
26
138
75
57
94
139
86
68
79
132
125
17
72
87
90
22
73
33
21
13
38
62
54
63
81
18
53
20
101
29
12
85
76
137
48
100
31
37
11
77
24
39
9
8
41
67
129
108
23
55
118
84
99
83
46
126
98
28
56
36
34
6
115
51
82
47
52
44
88
65
3
60
112
2
78
42
74
127
40
49
119
66
113
93
32
71
30
120
61
16
89
14

> <PUBCHEM_MMFF94_PARTIAL_CHARGES>
32
1 -0.28
10 0.27
11 0.41
12 0.3
13 -0.14
14 0.08
15 -0.15
16 0.43
17 -0.15
18 -0.15
19 0.05
2 -0.36
20 -0.15
21 -0.15
22 -0.15
23 0.28
24 0.16
25 0.16
3 -0.81
35 0.15
36 0.15
37 0.15
38 0.15
39 0.15
4 -0.34
40 0.15
44 0.15
45 0.15
5 -0.34
6 -0.62
7 0.18
9 0.27

> <PUBCHEM_EFFECTIVE_ROTOR_COUNT>
6

> <PUBCHEM_PHARMACOPHORE_FEATURES>
7
1 2 acceptor
1 3 cation
1 6 acceptor
5 1 4 5 12 16 rings
5 3 7 8 9 10 rings
6 13 14 15 17 18 20 rings
6 6 19 21 22 24 25 rings

> <PUBCHEM_HEAVY_ATOM_COUNT>
25

> <PUBCHEM_ATOM_DEF_STEREO_COUNT>
1

> <PUBCHEM_ATOM_UDEF_STEREO_COUNT>
0

> <PUBCHEM_BOND_DEF_STEREO_COUNT>
0

> <PUBCHEM_BOND_UDEF_STEREO_COUNT>
0

> <PUBCHEM_ISOTOPIC_ATOM_COUNT>
0

> <PUBCHEM_COMPONENT_COUNT>
1

> <PUBCHEM_CACTVS_TAUTO_COUNT>
1

> <PUBCHEM_CONFORMER_ID>
030C4B1900000001

> <PUBCHEM_MMFF94_ENERGY>
64.8249

> <PUBCHEM_FEATURE_SELFOVERLAP>
35.523

> <PUBCHEM_SHAPE_FINGERPRINT>
10 15 14634877461339293150
10074138 170 15719969053793074817
10411042 1 17759239593113993834
10595046 47 18411978053343015079
11273773 42 18337675329523041060
11646440 116 17022906748257561132
12236239 1 18272650138751973806
12633257 1 15792016735674035198
12730499 353 18187371999885614418
12788726 201 17417535700624272241
12821665 9 18338797931095031167
12895836 83 17918269878818829372
13402501 40 18040714779728914548
13533116 47 16951118474897572490
13631057 29 18338230592028613159
13690498 29 17702936076271203159
13955234 65 17750511767815864410
14528608 73 18411418423288316446
14681490 219 18411419488430539792
14856354 85 17561084718328024341
14931854 50 18059309746617261600
14933364 13 18413393115927838893
15003188 100 18336265751716741028
15183329 4 18272369771634518145
15301273 46 13118272656461609170
15475509 8 14476968861206724715
15537594 2 15339115727917762053
15840311 113 18191876630706231341
16992752 21 18200311169339579383
17844677 252 18267308616832804169
20567600 254 17167855374726292002
21033648 144 18040148509575674431
21033648 29 18189897690359812536
21298829 104 18409732902492664652
21641784 216 16701745938634693841
2303208 19 15338831001972847095
23522609 53 17916601855804058673
2838139 119 18187643600727048068
2916195 48 17822010878586716897
3004659 81 17916302741127864630
335352 9 18335143095106201974
34797466 226 18201445740114972607
4073 2 18187370938633248395
4098825 35 18202287970259080030
4325135 7 18411980265367009367
437815 12 11455891355833216322
497634 4 18412820271108233333
504579 68 18201144512858091597
5080951 261 15792020034541222203
5104073 3 16009866101016198841
513532 50 18341907260100612942
5265222 85 17703223039678021719
53794403 172 18117001198572122732
543368 44 18408322186055392045
59682541 35 17531257171053134153
59682541 52 17702681969020865894
6328613 192 18342458089641032585
7970288 3 9727367801079269732

> <PUBCHEM_SHAPE_MULTIPOLES>
482.83
19.06
2.64
1.1
4.01
0.13
0.2
9.42
-4.26
0.54
-0.04
-0.87
-0.25
-2.39

> <PUBCHEM_SHAPE_SELFOVERLAP>
1050.615

> <PUBCHEM_SHAPE_VOLUME>
264.1

> <PUBCHEM_COORDINATE_TYPE>
2
5
10

$$$$
