26743534
  -OEChem-12032416283D

 47 50  0     1  0  0  0  0  0999 V2000
   -3.1303   -2.7837   -0.3284 S   0  0  0  0  0  0  0  0  0  0  0  0
    6.3689    0.9983   -0.2973 O   0  0  0  0  0  0  0  0  0  0  0  0
    1.4004    1.1804   -1.2867 O   0  0  0  0  0  0  0  0  0  0  0  0
   -3.2222   -3.6458   -1.4988 O   0  0  0  0  0  0  0  0  0  0  0  0
   -3.7893   -3.1736    0.9100 O   0  0  0  0  0  0  0  0  0  0  0  0
    3.2430   -0.6908    0.0854 N   0  0  1  0  0  0  0  0  0  0  0  0
    0.4893    1.5130    0.7322 N   0  0  0  0  0  0  0  0  0  0  0  0
    0.0991    1.6441   -1.5181 N   0  0  0  0  0  0  0  0  0  0  0  0
   -2.4688    2.5622   -1.0957 N   0  0  0  0  0  0  0  0  0  0  0  0
   -3.4103    2.9047    1.5240 N   0  0  0  0  0  0  0  0  0  0  0  0
    2.8899    0.6560    0.5786 C   0  0  1  0  0  0  0  0  0  0  0  0
    4.0546    1.5577    0.1293 C   0  0  0  0  0  0  0  0  0  0  0  0
    5.0331    0.6204   -0.5675 C   0  0  2  0  0  0  0  0  0  0  0  0
    4.7024   -0.7384    0.0202 C   0  0  0  0  0  0  0  0  0  0  0  0
    2.6953   -1.7643    0.9045 C   0  0  0  0  0  0  0  0  0  0  0  0
    1.5481    1.1322    0.0632 C   0  0  0  0  0  0  0  0  0  0  0  0
    1.2436   -2.0191    0.5972 C   0  0  0  0  0  0  0  0  0  0  0  0
    0.2868   -1.9056    1.6059 C   0  0  0  0  0  0  0  0  0  0  0  0
    0.8552   -2.3687   -0.6962 C   0  0  0  0  0  0  0  0  0  0  0  0
   -0.3733    1.8174   -0.2802 C   0  0  0  0  0  0  0  0  0  0  0  0
   -1.0580   -2.1418    1.3214 C   0  0  0  0  0  0  0  0  0  0  0  0
   -0.4896   -2.6050   -0.9807 C   0  0  0  0  0  0  0  0  0  0  0  0
   -1.4463   -2.4915    0.0281 C   0  0  0  0  0  0  0  0  0  0  0  0
   -1.7021    2.2914   -0.0207 C   0  0  0  0  0  0  0  0  0  0  0  0
   -3.7638   -1.1920   -0.8070 C   0  0  0  0  0  0  0  0  0  0  0  0
   -2.1645    2.4597    1.2660 C   0  0  0  0  0  0  0  0  0  0  0  0
   -3.7145    3.0073   -0.8377 C   0  0  0  0  0  0  0  0  0  0  0  0
   -4.1769    3.1756    0.4490 C   0  0  0  0  0  0  0  0  0  0  0  0
    2.8609    0.6776    1.6768 H   0  0  0  0  0  0  0  0  0  0  0  0
    3.7521    2.3647   -0.5477 H   0  0  0  0  0  0  0  0  0  0  0  0
    4.5241    2.0298    1.0017 H   0  0  0  0  0  0  0  0  0  0  0  0
    4.8696    0.6255   -1.6521 H   0  0  0  0  0  0  0  0  0  0  0  0
    5.0629   -1.5478   -0.6231 H   0  0  0  0  0  0  0  0  0  0  0  0
    5.1642   -0.8593    1.0091 H   0  0  0  0  0  0  0  0  0  0  0  0
    2.8546   -1.5801    1.9751 H   0  0  0  0  0  0  0  0  0  0  0  0
    3.2209   -2.7048    0.6867 H   0  0  0  0  0  0  0  0  0  0  0  0
    6.4898    1.9032   -0.6321 H   0  0  0  0  0  0  0  0  0  0  0  0
    0.5746   -1.6299    2.6168 H   0  0  0  0  0  0  0  0  0  0  0  0
    1.5895   -2.4640   -1.4918 H   0  0  0  0  0  0  0  0  0  0  0  0
   -1.7867   -2.0385    2.1204 H   0  0  0  0  0  0  0  0  0  0  0  0
   -0.7708   -2.8697   -1.9960 H   0  0  0  0  0  0  0  0  0  0  0  0
   -4.8216   -1.3074   -1.0521 H   0  0  0  0  0  0  0  0  0  0  0  0
   -3.6495   -0.4999    0.0292 H   0  0  0  0  0  0  0  0  0  0  0  0
   -3.2149   -0.8384   -1.6819 H   0  0  0  0  0  0  0  0  0  0  0  0
   -1.5668    2.2478    2.1452 H   0  0  0  0  0  0  0  0  0  0  0  0
   -4.3312    3.2245   -1.7010 H   0  0  0  0  0  0  0  0  0  0  0  0
   -5.1781    3.5329    0.6554 H   0  0  0  0  0  0  0  0  0  0  0  0
  1  4  2  0  0  0  0
  1  5  2  0  0  0  0
  1 23  1  0  0  0  0
  1 25  1  0  0  0  0
  2 13  1  0  0  0  0
  2 37  1  0  0  0  0
  3  8  1  0  0  0  0
  3 16  1  0  0  0  0
  6 11  1  0  0  0  0
  6 14  1  0  0  0  0
  6 15  1  0  0  0  0
  7 16  2  0  0  0  0
  7 20  1  0  0  0  0
  8 20  2  0  0  0  0
  9 24  2  0  0  0  0
  9 27  1  0  0  0  0
 10 26  2  0  0  0  0
 10 28  1  0  0  0  0
 11 12  1  0  0  0  0
 11 16  1  0  0  0  0
 11 29  1  0  0  0  0
 12 13  1  0  0  0  0
 12 30  1  0  0  0  0
 12 31  1  0  0  0  0
 13 14  1  0  0  0  0
 13 32  1  0  0  0  0
 14 33  1  0  0  0  0
 14 34  1  0  0  0  0
 15 17  1  0  0  0  0
 15 35  1  0  0  0  0
 15 36  1  0  0  0  0
 17 18  2  0  0  0  0
 17 19  1  0  0  0  0
 18 21  1  0  0  0  0
 18 38  1  0  0  0  0
 19 22  2  0  0  0  0
 19 39  1  0  0  0  0
 20 24  1  0  0  0  0
 21 23  2  0  0  0  0
 21 40  1  0  0  0  0
 22 23  1  0  0  0  0
 22 41  1  0  0  0  0
 24 26  1  0  0  0  0
 25 42  1  0  0  0  0
 25 43  1  0  0  0  0
 25 44  1  0  0  0  0
 26 45  1  0  0  0  0
 27 28  2  0  0  0  0
 27 46  1  0  0  0  0
 28 47  1  0  0  0  0
M  END
> <PUBCHEM_COMPOUND_CID>
26743534

> <PUBCHEM_CONFORMER_RMSD>
0.8

> <PUBCHEM_CONFORMER_DIVERSEORDER>
1
204
49
224
260
145
174
3
8
198
84
78
227
232
220
2
73
194
285
270
199
205
117
124
137
48
239
219
206
201
5
259
4
39
122
213
274
212
12
276
172
243
143
197
229
112
267
75
237
13
10
101
93
70
251
32
223
90
234
214
148
21
165
278
190
271
286
104
193
142
160
25
256
252
153
51
245
135
106
35
254
233
262
162
156
183
279
168
230
179
99
147
109
178
171
263
129
44
120
116
202
80
235
18
34
173
161
281
215
98
280
249
283
157
225
189
181
222
226
131
180
46
217
62
19
192
139
228
191
24
231
118
87
67
132
126
43
240
103
61
38
33
247
47
185
128
125
268
186
58
203
50
95
72
167
89
277
248
282
60
97
127
107
138
136
31
114
42
184
169
115
208
9
130
40
196
36
7
182
52
113
96
41
133
141
164
155
221
236
253
110
241
238
188
159
88
27
94
54
63
92
83
244
170
218
134
28
140
26
71
152
37
74
69
158
65
30
64
257
275
23
111
29
163
195
15
272
258
284
79
144
86
187
6
119
216
56
59
14
150
266
211
246
20
100
151
287
76
22
123
264
17
210
154
102
250
105
166
176
57
261
200
146
209
82
16
149
207
269
108
45
273
91
288
177
175
255
55
11
242
68
81
53
85
77
66
121
265

> <PUBCHEM_MMFF94_PARTIAL_CHARGES>
35
1 1.2
10 -0.62
11 0.45
13 0.28
14 0.27
15 0.41
16 0.3
17 -0.14
18 -0.15
19 -0.15
2 -0.68
20 0.46
21 -0.15
22 -0.15
23 -0.01
24 0.36
25 0.11
26 0.16
27 0.16
28 0.16
3 -0.02
37 0.4
38 0.15
39 0.15
4 -0.65
40 0.15
41 0.15
45 0.15
46 0.15
47 0.15
5 -0.65
6 -0.81
7 -0.57
8 -0.41
9 -0.62

> <PUBCHEM_EFFECTIVE_ROTOR_COUNT>
6

> <PUBCHEM_PHARMACOPHORE_FEATURES>
12
1 10 acceptor
1 2 acceptor
1 2 donor
1 4 acceptor
1 5 acceptor
1 6 cation
1 9 acceptor
3 7 8 20 cation
5 3 7 8 16 20 rings
5 6 11 12 13 14 rings
6 17 18 19 21 22 23 rings
6 9 10 24 26 27 28 rings

> <PUBCHEM_HEAVY_ATOM_COUNT>
28

> <PUBCHEM_ATOM_DEF_STEREO_COUNT>
2

> <PUBCHEM_ATOM_UDEF_STEREO_COUNT>
0

> <PUBCHEM_BOND_DEF_STEREO_COUNT>
0

> <PUBCHEM_BOND_UDEF_STEREO_COUNT>
0

> <PUBCHEM_ISOTOPIC_ATOM_COUNT>
0

> <PUBCHEM_COMPONENT_COUNT>
1

> <PUBCHEM_CACTVS_TAUTO_COUNT>
1

> <PUBCHEM_CONFORMER_ID>
019812EE00000001

> <PUBCHEM_MMFF94_ENERGY>
53.3643

> <PUBCHEM_FEATURE_SELFOVERLAP>
60.92

> <PUBCHEM_SHAPE_FINGERPRINT>
10064457 181 18268993081247057736
104564 63 18410291453813492618
10871710 139 18335708277197762434
1100329 8 18048590426762603754
11513181 2 18130784508501733407
11578080 2 17129337240427199470
11646440 116 18048037664039072634
12156800 1 18121534364431793935
12293681 4 18116156760355999914
12422481 6 18196680486869683851
12788726 201 18191860335151332944
13631057 29 18340481278564404652
13692114 37 18128514021474603231
138480 1 16681754360731148887
14028597 1 17532910887811573754
140371 6 17971201567324416106
14117953 113 17400625039958470221
14363568 33 17325501393606783337
14464042 87 18409165549754172495
14466204 15 16610533035212036825
14681490 219 18194673998307966407
14931854 50 18265592378403990071
14955137 171 17906462378115302315
17138139 8 17840263884526633517
17357779 13 18265608969493680750
19930381 70 16608563814725047559
20905425 154 18410851105437915055
21197605 99 18336278855756575787
21236236 1 18410012148301428288
21641784 216 18042979846611843828
23558518 356 18336548330109890268
238 59 17250300944011970493
25147074 1 18114456795984861450
283562 15 18264764540178761442
3052486 1 18261125057785197502
338550 245 18260557713895830309
38695281 34 18049158874110711361
4340502 62 18267592307707334092
469060 322 17095519608388549695
5171179 24 17986105443075862032
6004065 56 17260732466049113638
6287921 2 17264966196355145179
6438718 38 18130216074032868687
653340 110 18341321292605347768
6669772 16 18120098282599276166
8272917 22 17836084472587662336

> <PUBCHEM_SHAPE_MULTIPOLES>
531.69
9.19
5.13
1.34
8.57
1.13
-0.1
-4.01
0.76
-7.35
0.12
-0.72
0.14
-1.09

> <PUBCHEM_SHAPE_SELFOVERLAP>
1140.562

> <PUBCHEM_SHAPE_VOLUME>
297

> <PUBCHEM_COORDINATE_TYPE>
2
5
10

$$$$
