56775456
  -OEChem-12032416273D

 46 48  0     0  0  0  0  0  0999 V2000
    1.1932   -2.4814   -0.3664 Cl  0  0  0  0  0  0  0  0  0  0  0  0
    0.8799    3.9395   -1.0127 O   0  0  0  0  0  0  0  0  0  0  0  0
   -3.7247    0.7708   -0.1285 O   0  0  0  0  0  0  0  0  0  0  0  0
    1.1037    0.9099   -0.3770 N   0  0  0  0  0  0  0  0  0  0  0  0
   -2.8261    1.7761    0.2073 N   0  0  0  0  0  0  0  0  0  0  0  0
    0.4096    2.1288    0.0151 C   0  0  0  0  0  0  0  0  0  0  0  0
   -0.0515    2.8575   -1.2420 C   0  0  0  0  0  0  0  0  0  0  0  0
    1.4286    3.2562    0.1372 C   0  0  0  0  0  0  0  0  0  0  0  0
   -0.5918    1.9059    1.1562 C   0  0  0  0  0  0  0  0  0  0  0  0
   -1.7593    1.1370    0.6958 C   0  0  0  0  0  0  0  0  0  0  0  0
    1.7708    0.3259    0.7841 C   0  0  0  0  0  0  0  0  0  0  0  0
   -4.0369   -1.6733   -0.1427 C   0  0  0  0  0  0  0  0  0  0  0  0
   -1.9257   -0.2586    0.6929 C   0  0  0  0  0  0  0  0  0  0  0  0
   -3.1772   -0.4363    0.1653 C   0  0  0  0  0  0  0  0  0  0  0  0
    2.9425   -0.5313    0.3851 C   0  0  0  0  0  0  0  0  0  0  0  0
   -5.4176   -1.3392   -0.7520 C   0  0  0  0  0  0  0  0  0  0  0  0
   -3.3005   -2.5797   -1.1527 C   0  0  0  0  0  0  0  0  0  0  0  0
   -4.2923   -2.4652    1.1580 C   0  0  0  0  0  0  0  0  0  0  0  0
    2.7678   -1.8106   -0.1423 C   0  0  0  0  0  0  0  0  0  0  0  0
    4.2276   -0.0162    0.5544 C   0  0  0  0  0  0  0  0  0  0  0  0
    3.8781   -2.5750   -0.5003 C   0  0  0  0  0  0  0  0  0  0  0  0
    5.3382   -0.7807    0.1963 C   0  0  0  0  0  0  0  0  0  0  0  0
    5.1635   -2.0601   -0.3310 C   0  0  0  0  0  0  0  0  0  0  0  0
    0.1377    2.3734   -2.2065 H   0  0  0  0  0  0  0  0  0  0  0  0
   -1.0756    3.2413   -1.2412 H   0  0  0  0  0  0  0  0  0  0  0  0
    1.3405    3.8751    1.0362 H   0  0  0  0  0  0  0  0  0  0  0  0
    2.4862    3.0200   -0.0231 H   0  0  0  0  0  0  0  0  0  0  0  0
   -0.9402    2.8866    1.5112 H   0  0  0  0  0  0  0  0  0  0  0  0
   -0.1410    1.4444    2.0411 H   0  0  0  0  0  0  0  0  0  0  0  0
    0.5201    0.2069   -0.8287 H   0  0  0  0  0  0  0  0  0  0  0  0
    1.0802   -0.2783    1.3841 H   0  0  0  0  0  0  0  0  0  0  0  0
    2.1422    1.0968    1.4731 H   0  0  0  0  0  0  0  0  0  0  0  0
   -1.2462   -1.0255    1.0314 H   0  0  0  0  0  0  0  0  0  0  0  0
   -5.3106   -0.7916   -1.6956 H   0  0  0  0  0  0  0  0  0  0  0  0
   -6.0070   -0.7112   -0.0736 H   0  0  0  0  0  0  0  0  0  0  0  0
   -5.9977   -2.2463   -0.9561 H   0  0  0  0  0  0  0  0  0  0  0  0
   -2.3340   -2.9136   -0.7575 H   0  0  0  0  0  0  0  0  0  0  0  0
   -3.1041   -2.0470   -2.0906 H   0  0  0  0  0  0  0  0  0  0  0  0
   -3.8873   -3.4745   -1.3892 H   0  0  0  0  0  0  0  0  0  0  0  0
   -4.8182   -1.8500    1.8976 H   0  0  0  0  0  0  0  0  0  0  0  0
   -3.3519   -2.7945    1.6153 H   0  0  0  0  0  0  0  0  0  0  0  0
   -4.8986   -3.3585    0.9698 H   0  0  0  0  0  0  0  0  0  0  0  0
    4.3833    0.9798    0.9605 H   0  0  0  0  0  0  0  0  0  0  0  0
    3.7591   -3.5737   -0.9128 H   0  0  0  0  0  0  0  0  0  0  0  0
    6.3389   -0.3795    0.3273 H   0  0  0  0  0  0  0  0  0  0  0  0
    6.0282   -2.6551   -0.6100 H   0  0  0  0  0  0  0  0  0  0  0  0
  1 19  1  0  0  0  0
  2  7  1  0  0  0  0
  2  8  1  0  0  0  0
  3  5  1  0  0  0  0
  3 14  1  0  0  0  0
  4  6  1  0  0  0  0
  4 11  1  0  0  0  0
  4 30  1  0  0  0  0
  5 10  2  0  0  0  0
  6  7  1  0  0  0  0
  6  8  1  0  0  0  0
  6  9  1  0  0  0  0
  7 24  1  0  0  0  0
  7 25  1  0  0  0  0
  8 26  1  0  0  0  0
  8 27  1  0  0  0  0
  9 10  1  0  0  0  0
  9 28  1  0  0  0  0
  9 29  1  0  0  0  0
 10 13  1  0  0  0  0
 11 15  1  0  0  0  0
 11 31  1  0  0  0  0
 11 32  1  0  0  0  0
 12 14  1  0  0  0  0
 12 16  1  0  0  0  0
 12 17  1  0  0  0  0
 12 18  1  0  0  0  0
 13 14  2  0  0  0  0
 13 33  1  0  0  0  0
 15 19  1  0  0  0  0
 15 20  2  0  0  0  0
 16 34  1  0  0  0  0
 16 35  1  0  0  0  0
 16 36  1  0  0  0  0
 17 37  1  0  0  0  0
 17 38  1  0  0  0  0
 17 39  1  0  0  0  0
 18 40  1  0  0  0  0
 18 41  1  0  0  0  0
 18 42  1  0  0  0  0
 19 21  2  0  0  0  0
 20 22  1  0  0  0  0
 20 43  1  0  0  0  0
 21 23  1  0  0  0  0
 21 44  1  0  0  0  0
 22 23  2  0  0  0  0
 22 45  1  0  0  0  0
 23 46  1  0  0  0  0
M  END
> <PUBCHEM_COMPOUND_CID>
56775456

> <PUBCHEM_CONFORMER_RMSD>
0.8

> <PUBCHEM_CONFORMER_DIVERSEORDER>
1
59
94
36
112
145
151
93
66
96
85
99
126
52
107
110
69
57
44
77
55
92
27
138
75
97
82
90
88
133
132
178
169
161
146
140
164
67
80
109
173
95
84
86
163
64
139
31
14
142
123
102
104
166
168
130
158
61
119
28
105
54
118
137
156
134
113
4
37
13
143
43
170
40
81
9
180
78
165
11
179
115
23
157
114
60
74
175
176
144
128
79
91
101
5
135
25
68
15
72
103
76
121
41
45
8
147
98
20
53
167
117
120
70
32
159
155
136
33
89
181
111
106
51
141
150
56
162
153
50
154
131
26
35
124
160
116
12
30
71
47
172
177
21
129
46
16
65
22
148
171
174
149
108
83
38
18
73
39
17
49
24
152
29
62
19
87
58
2
10
42
3
7
122
6
48
63
100
127
34
125

> <PUBCHEM_MMFF94_PARTIAL_CHARGES>
26
1 -0.18
10 0.11
11 0.41
12 0.18
13 -0.15
14 -0.04
15 -0.14
19 0.18
2 -0.52
20 -0.15
21 -0.15
22 -0.15
23 -0.15
3 -0.02
30 0.36
33 0.15
4 -0.84
43 0.15
44 0.15
45 0.15
46 0.15
5 -0.41
6 0.21
7 0.26
8 0.26
9 0.18

> <PUBCHEM_EFFECTIVE_ROTOR_COUNT>
6.8

> <PUBCHEM_PHARMACOPHORE_FEATURES>
8
1 2 acceptor
1 4 cation
1 4 donor
1 5 acceptor
4 12 16 17 18 hydrophobe
4 2 6 7 8 rings
5 3 5 10 13 14 rings
6 15 19 20 21 22 23 rings

> <PUBCHEM_HEAVY_ATOM_COUNT>
23

> <PUBCHEM_ATOM_DEF_STEREO_COUNT>
0

> <PUBCHEM_ATOM_UDEF_STEREO_COUNT>
0

> <PUBCHEM_BOND_DEF_STEREO_COUNT>
0

> <PUBCHEM_BOND_UDEF_STEREO_COUNT>
0

> <PUBCHEM_ISOTOPIC_ATOM_COUNT>
0

> <PUBCHEM_COMPONENT_COUNT>
1

> <PUBCHEM_CACTVS_TAUTO_COUNT>
1

> <PUBCHEM_CONFORMER_ID>
0362532000000001

> <PUBCHEM_MMFF94_ENERGY>
54.6302

> <PUBCHEM_FEATURE_SELFOVERLAP>
40.596

> <PUBCHEM_SHAPE_FINGERPRINT>
10616163 171 18270402659617632226
11045515 52 18260831466531931044
11069576 57 17839162353789539711
11315621 246 18124893274245635502
11552529 35 17987795203178366426
12107183 9 18342192042391973945
12403259 226 18268707213378178674
12553582 1 18265074499088272731
12623949 98 17560531620618799790
12969540 37 18341322409618630416
13004483 165 18192423065697425051
13149001 5 17386300911714770336
13544653 18 18343585144017812938
138480 1 14663579756636109408
1454969 45 18338514257527951740
14863182 85 17979073009358860752
15196674 1 18342738477394775338
15352361 1 18412262826495990867
15415430 10 18411418401692154170
17357779 13 18339346505260227886
17492 54 18042700566569214100
17492 89 18265615566743003291
1813 80 18334010601237584504
19141452 34 18197222451254382081
20291156 8 18413388735045411699
20645477 70 18118675754870005995
20775530 9 18411978057258278323
21421861 104 18126030332234510249
21673915 165 18272367560079756010
221490 88 18263648527191669243
23402539 116 18336263457887843242
23559900 14 18337944705777247537
26353 1 17676489423544598924
3421961 26 18339360880484268368
4280585 95 18261663810114295672
46194498 28 17969208114019871021
463206 1 18199746028325212359
5104073 3 18201717289570410570
5207 123 18411131438137571069
6669772 16 17835255810873342156
9709674 26 18190180277163113315

> <PUBCHEM_SHAPE_MULTIPOLES>
453.5
10.63
4.32
1.04
0.06
2.61
-0.03
-10.39
-0.25
0.52
-1.18
-0.49
0.13
0.03

> <PUBCHEM_SHAPE_SELFOVERLAP>
948.719

> <PUBCHEM_SHAPE_VOLUME>
260.3

> <PUBCHEM_COORDINATE_TYPE>
2
5
10

$$$$
