40781602
  -OEChem-12032416173D

 41 42  0     1  0  0  0  0  0999 V2000
    1.7822    0.7780   -0.9776 O   0  0  0  0  0  0  0  0  0  0  0  0
    4.5293   -0.3187    1.0598 O   0  0  0  0  0  0  0  0  0  0  0  0
    3.9638    2.3118    0.4861 O   0  0  0  0  0  0  0  0  0  0  0  0
   -0.7524    1.8554   -1.2762 O   0  0  0  0  0  0  0  0  0  0  0  0
   -0.2062   -1.2347   -1.9675 O   0  0  0  0  0  0  0  0  0  0  0  0
   -2.3032   -2.1487   -0.4877 O   0  0  0  0  0  0  0  0  0  0  0  0
    1.3657   -1.9758   -0.4302 N   0  0  0  0  0  0  0  0  0  0  0  0
   -2.0190    1.2881    0.5878 N   0  0  0  0  0  0  0  0  0  0  0  0
    3.1974    0.0380    0.7572 C   0  0  1  0  0  0  0  0  0  0  0  0
    2.9010    1.5047    0.9917 C   0  0  2  0  0  0  0  0  0  0  0  0
    2.8923   -0.1012   -0.7249 C   0  0  1  0  0  0  0  0  0  0  0  0
    1.6776    1.7264    0.1090 C   0  0  2  0  0  0  0  0  0  0  0  0
    2.5267   -1.5169   -1.1339 C   0  0  0  0  0  0  0  0  0  0  0  0
    0.3644    1.4625    0.8330 C   0  0  0  0  0  0  0  0  0  0  0  0
   -0.8385    1.5632   -0.0865 C   0  0  0  0  0  0  0  0  0  0  0  0
    0.0713   -1.7955   -0.9105 C   0  0  0  0  0  0  0  0  0  0  0  0
   -1.0264   -2.3059   -0.0496 C   0  0  0  0  0  0  0  0  0  0  0  0
   -3.3159    1.3144   -0.0487 C   0  0  0  0  0  0  0  0  0  0  0  0
   -1.0087   -2.9427    1.1696 C   0  0  0  0  0  0  0  0  0  0  0  0
   -2.3616   -3.1929    1.5018 C   0  0  0  0  0  0  0  0  0  0  0  0
   -3.9168    2.6453    0.0344 C   0  0  0  0  0  0  0  0  0  0  0  0
   -3.1095   -2.6911    0.4620 C   0  0  0  0  0  0  0  0  0  0  0  0
   -4.4136    3.7363    0.1008 C   0  0  0  0  0  0  0  0  0  0  0  0
    2.5279   -0.5699    1.3750 H   0  0  0  0  0  0  0  0  0  0  0  0
    2.7586    1.7580    2.0462 H   0  0  0  0  0  0  0  0  0  0  0  0
    3.7400    0.2358   -1.3345 H   0  0  0  0  0  0  0  0  0  0  0  0
    1.6679    2.7280   -0.3361 H   0  0  0  0  0  0  0  0  0  0  0  0
    3.3459   -2.2103   -0.9185 H   0  0  0  0  0  0  0  0  0  0  0  0
    2.3180   -1.5513   -2.2089 H   0  0  0  0  0  0  0  0  0  0  0  0
    0.2374    2.1808    1.6513 H   0  0  0  0  0  0  0  0  0  0  0  0
    0.3559    0.4544    1.2643 H   0  0  0  0  0  0  0  0  0  0  0  0
    4.6898   -0.0852    1.9899 H   0  0  0  0  0  0  0  0  0  0  0  0
    3.7135    3.2414    0.6239 H   0  0  0  0  0  0  0  0  0  0  0  0
    1.5117   -2.4522    0.4541 H   0  0  0  0  0  0  0  0  0  0  0  0
   -1.9836    1.0701    1.5797 H   0  0  0  0  0  0  0  0  0  0  0  0
   -3.2096    1.0047   -1.0936 H   0  0  0  0  0  0  0  0  0  0  0  0
   -3.9424    0.5770    0.4625 H   0  0  0  0  0  0  0  0  0  0  0  0
   -0.1399   -3.2006    1.7579 H   0  0  0  0  0  0  0  0  0  0  0  0
   -2.7439   -3.6777    2.3883 H   0  0  0  0  0  0  0  0  0  0  0  0
   -4.1692   -2.6430    0.2582 H   0  0  0  0  0  0  0  0  0  0  0  0
   -4.8540    4.7040    0.1596 H   0  0  0  0  0  0  0  0  0  0  0  0
  1 11  1  0  0  0  0
  1 12  1  0  0  0  0
  2  9  1  0  0  0  0
  2 32  1  0  0  0  0
  3 10  1  0  0  0  0
  3 33  1  0  0  0  0
  4 15  2  0  0  0  0
  5 16  2  0  0  0  0
  6 17  1  0  0  0  0
  6 22  1  0  0  0  0
  7 13  1  0  0  0  0
  7 16  1  0  0  0  0
  7 34  1  0  0  0  0
  8 15  1  0  0  0  0
  8 18  1  0  0  0  0
  8 35  1  0  0  0  0
  9 10  1  0  0  0  0
  9 11  1  0  0  0  0
  9 24  1  0  0  0  0
 10 12  1  0  0  0  0
 10 25  1  0  0  0  0
 11 13  1  0  0  0  0
 11 26  1  0  0  0  0
 12 14  1  0  0  0  0
 12 27  1  0  0  0  0
 13 28  1  0  0  0  0
 13 29  1  0  0  0  0
 14 15  1  0  0  0  0
 14 30  1  0  0  0  0
 14 31  1  0  0  0  0
 16 17  1  0  0  0  0
 17 19  2  0  0  0  0
 18 21  1  0  0  0  0
 18 36  1  0  0  0  0
 18 37  1  0  0  0  0
 19 20  1  0  0  0  0
 19 38  1  0  0  0  0
 20 22  2  0  0  0  0
 20 39  1  0  0  0  0
 21 23  3  0  0  0  0
 22 40  1  0  0  0  0
 23 41  1  0  0  0  0
M  END
> <PUBCHEM_COMPOUND_CID>
40781602

> <PUBCHEM_CONFORMER_RMSD>
1

> <PUBCHEM_CONFORMER_DIVERSEORDER>
4
82
164
115
63
108
9
161
58
117
123
37
84
126
18
168
98
149
171
35
71
3
72
51
148
118
66
110
163
104
121
176
103
17
6
172
113
101
147
133
95
91
87
105
36
150
166
96
77
135
62
127
106
177
122
27
83
79
46
180
175
152
136
139
170
151
158
64
169
156
120
57
21
49
138
144
32
100
142
154
155
40
61
116
47
54
159
165
70
162
143
174
94
178
179
19
119
124
28
145
45
85
78
173
69
20
30
80
67
65
141
160
167
43
76
90
130
97
56
75
1
140
153
109
52
89
134
41
48
42
60
74
146
107
53
25
137
99
132
7
86
92
125
68
59
44
50
15
39
88
93
29
26
31
128
24
2
129
112
34
10
23
33
157
114
102
14
38
111
22
73
131
12
16
81
55
8
11
13
5

> <PUBCHEM_MMFF94_PARTIAL_CHARGES>
31
1 -0.56
10 0.28
11 0.28
12 0.28
13 0.3
14 0.06
15 0.57
16 0.71
17 0.05
18 0.5
19 -0.15
2 -0.68
20 -0.15
21 -0.2
22 -0.01
23 -0.18
3 -0.68
32 0.4
33 0.4
34 0.37
35 0.37
38 0.15
39 0.15
4 -0.57
40 0.15
41 0.18
5 -0.57
6 -0.28
7 -0.73
8 -0.73
9 0.28

> <PUBCHEM_EFFECTIVE_ROTOR_COUNT>
9

> <PUBCHEM_PHARMACOPHORE_FEATURES>
13
1 1 acceptor
1 2 acceptor
1 2 donor
1 23 hydrophobe
1 3 acceptor
1 3 donor
1 4 acceptor
1 5 acceptor
1 6 acceptor
1 7 donor
1 8 donor
5 1 9 10 11 12 rings
5 6 17 19 20 22 rings

> <PUBCHEM_HEAVY_ATOM_COUNT>
23

> <PUBCHEM_ATOM_DEF_STEREO_COUNT>
4

> <PUBCHEM_ATOM_UDEF_STEREO_COUNT>
0

> <PUBCHEM_BOND_DEF_STEREO_COUNT>
0

> <PUBCHEM_BOND_UDEF_STEREO_COUNT>
0

> <PUBCHEM_ISOTOPIC_ATOM_COUNT>
0

> <PUBCHEM_COMPONENT_COUNT>
1

> <PUBCHEM_CACTVS_TAUTO_COUNT>
4

> <PUBCHEM_CONFORMER_ID>
026E472200000004

> <PUBCHEM_MMFF94_ENERGY>
33.3424

> <PUBCHEM_FEATURE_SELFOVERLAP>
65.996

> <PUBCHEM_SHAPE_FINGERPRINT>
104564 63 18195531612834250644
10688039 33 18044657748811511523
108634 29 18413112749274438335
1100329 8 18048875195662862219
11086676 242 17980479284962206178
11370993 70 18341327782549014033
11680986 33 18201444632193004990
12422481 6 18053135988663549155
12553582 1 17762065740847577511
12633257 1 18263065648837791056
12788726 201 18117848925993643985
13140716 1 18340474630704103792
14363568 33 16677273374307013137
20567600 347 17972042440279586985
20691752 17 18190734241902526741
21197605 99 18343585162136821759
21304304 249 17978219470813880450
22182313 1 18059027180306699788
23419403 2 17271208372394014644
23558518 356 18336261348837159709
23559900 14 18272374114663534374
2748010 2 18201453492393954222
3052486 1 18186811283336025855
4058900 60 18049456845977872976
4340502 62 18269556044792353401
5283268 108 18047772656425813163
81228 2 18261960764037213179

> <PUBCHEM_SHAPE_MULTIPOLES>
428.15
7.17
4.66
1.3
0.31
1.18
-0.16
-5.52
1.42
5.49
0.99
-0.41
0.57
1.32

> <PUBCHEM_SHAPE_SELFOVERLAP>
890.753

> <PUBCHEM_SHAPE_VOLUME>
243.1

> <PUBCHEM_COORDINATE_TYPE>
2
5
10

$$$$
