45783870
  -OEChem-12032416253D

 70 72  0     1  0  0  0  0  0999 V2000
    1.3678   -1.4235   -0.8977 S   0  0  0  0  0  0  0  0  0  0  0  0
   -5.6789    1.2051    0.3362 O   0  0  0  0  0  0  0  0  0  0  0  0
    1.2219   -0.9615   -2.2649 O   0  0  0  0  0  0  0  0  0  0  0  0
    0.9975   -2.7800   -0.5427 O   0  0  0  0  0  0  0  0  0  0  0  0
    7.8178    1.0294   -0.7229 O   0  0  0  0  0  0  0  0  0  0  0  0
   -5.7253   -1.0836    0.0241 N   0  0  0  0  0  0  0  0  0  0  0  0
    0.5775   -0.3368    0.1498 N   0  0  0  0  0  0  0  0  0  0  0  0
    7.0618   -0.7053    0.6832 N   0  0  0  0  0  0  0  0  0  0  0  0
   -1.4738    1.7381   -0.5330 C   0  0  1  0  0  0  0  0  0  0  0  0
   -0.3402    1.9031    0.5100 C   0  0  1  0  0  0  0  0  0  0  0  0
   -2.8194    2.1785    0.0635 C   0  0  0  0  0  0  0  0  0  0  0  0
   -3.1916    1.3704    1.3209 C   0  0  2  0  0  0  0  0  0  0  0  0
   -1.1891    2.5311   -1.8125 C   0  0  0  0  0  0  0  0  0  0  0  0
   -2.0277    1.2608    2.2848 C   0  0  0  0  0  0  0  0  0  0  0  0
   -0.7621    1.5157    1.9080 C   0  0  0  0  0  0  0  0  0  0  0  0
   -3.7276   -0.0162    0.9477 C   0  0  0  0  0  0  0  0  0  0  0  0
    0.9013    1.0978    0.1096 C   0  0  0  0  0  0  0  0  0  0  0  0
   -1.5739    3.9954   -1.6274 C   0  0  0  0  0  0  0  0  0  0  0  0
   -1.9362    1.9205   -2.9940 C   0  0  0  0  0  0  0  0  0  0  0  0
   -2.3571    0.8953    3.7053 C   0  0  0  0  0  0  0  0  0  0  0  0
   -5.1303    0.1042    0.4085 C   0  0  0  0  0  0  0  0  0  0  0  0
   -5.1309   -2.4154    0.0804 C   0  0  0  0  0  0  0  0  0  0  0  0
   -7.0783   -1.1378   -0.5100 C   0  0  0  0  0  0  0  0  0  0  0  0
   -6.2930   -3.3611   -0.1883 C   0  0  0  0  0  0  0  0  0  0  0  0
   -7.2019   -2.5375   -1.0919 C   0  0  0  0  0  0  0  0  0  0  0  0
    3.0586   -1.2104   -0.4282 C   0  0  0  0  0  0  0  0  0  0  0  0
    3.8432   -0.2486   -1.0647 C   0  0  0  0  0  0  0  0  0  0  0  0
    3.6083   -2.0041    0.5785 C   0  0  0  0  0  0  0  0  0  0  0  0
    5.1774   -0.0806   -0.6945 C   0  0  0  0  0  0  0  0  0  0  0  0
    4.9426   -1.8361    0.9486 C   0  0  0  0  0  0  0  0  0  0  0  0
    5.7272   -0.8743    0.3123 C   0  0  0  0  0  0  0  0  0  0  0  0
    7.9959    0.2005    0.1637 C   0  0  0  0  0  0  0  0  0  0  0  0
    9.3386    0.0667    0.8374 C   0  0  0  0  0  0  0  0  0  0  0  0
   -1.5508    0.6777   -0.8018 H   0  0  0  0  0  0  0  0  0  0  0  0
   -0.0411    2.9575    0.5623 H   0  0  0  0  0  0  0  0  0  0  0  0
   -3.6154    2.1183   -0.6845 H   0  0  0  0  0  0  0  0  0  0  0  0
   -2.7737    3.2260    0.3887 H   0  0  0  0  0  0  0  0  0  0  0  0
   -3.9735    1.9403    1.8429 H   0  0  0  0  0  0  0  0  0  0  0  0
   -0.1234    2.4906   -2.0595 H   0  0  0  0  0  0  0  0  0  0  0  0
    0.0286    1.4669    2.6542 H   0  0  0  0  0  0  0  0  0  0  0  0
   -3.7803   -0.6573    1.8342 H   0  0  0  0  0  0  0  0  0  0  0  0
   -3.0919   -0.5179    0.2118 H   0  0  0  0  0  0  0  0  0  0  0  0
    1.7167    1.2881    0.8178 H   0  0  0  0  0  0  0  0  0  0  0  0
    1.2548    1.3895   -0.8818 H   0  0  0  0  0  0  0  0  0  0  0  0
   -1.1339    4.4380   -0.7289 H   0  0  0  0  0  0  0  0  0  0  0  0
   -2.6567    4.1582   -1.6179 H   0  0  0  0  0  0  0  0  0  0  0  0
   -1.1935    4.5770   -2.4765 H   0  0  0  0  0  0  0  0  0  0  0  0
   -3.0219    1.9480   -2.8599 H   0  0  0  0  0  0  0  0  0  0  0  0
   -1.6394    0.8774   -3.1477 H   0  0  0  0  0  0  0  0  0  0  0  0
   -1.7051    2.4664   -3.9155 H   0  0  0  0  0  0  0  0  0  0  0  0
   -3.0999    1.5882    4.1138 H   0  0  0  0  0  0  0  0  0  0  0  0
   -1.4767    0.9400    4.3555 H   0  0  0  0  0  0  0  0  0  0  0  0
   -2.7571   -0.1207    3.7672 H   0  0  0  0  0  0  0  0  0  0  0  0
    0.2573   -0.7044    1.0542 H   0  0  0  0  0  0  0  0  0  0  0  0
   -4.6578   -2.6007    1.0481 H   0  0  0  0  0  0  0  0  0  0  0  0
   -4.3729   -2.4772   -0.7080 H   0  0  0  0  0  0  0  0  0  0  0  0
   -7.2378   -0.3481   -1.2502 H   0  0  0  0  0  0  0  0  0  0  0  0
   -7.7717   -0.9859    0.3246 H   0  0  0  0  0  0  0  0  0  0  0  0
   -5.9738   -4.3021   -0.6443 H   0  0  0  0  0  0  0  0  0  0  0  0
   -6.8139   -3.5917    0.7489 H   0  0  0  0  0  0  0  0  0  0  0  0
   -8.2336   -2.8989   -1.1063 H   0  0  0  0  0  0  0  0  0  0  0  0
   -6.8163   -2.5536   -2.1184 H   0  0  0  0  0  0  0  0  0  0  0  0
    3.4340    0.3814   -1.8494 H   0  0  0  0  0  0  0  0  0  0  0  0
    3.0136   -2.7539    1.0925 H   0  0  0  0  0  0  0  0  0  0  0  0
    5.7211    0.6838   -1.2318 H   0  0  0  0  0  0  0  0  0  0  0  0
    5.3574   -2.4604    1.7360 H   0  0  0  0  0  0  0  0  0  0  0  0
    7.3877   -1.3221    1.4246 H   0  0  0  0  0  0  0  0  0  0  0  0
    9.7163   -0.9521    0.7137 H   0  0  0  0  0  0  0  0  0  0  0  0
    9.2414    0.2940    1.9027 H   0  0  0  0  0  0  0  0  0  0  0  0
   10.0500    0.7651    0.3881 H   0  0  0  0  0  0  0  0  0  0  0  0
  1  3  2  0  0  0  0
  1  4  2  0  0  0  0
  1  7  1  0  0  0  0
  1 26  1  0  0  0  0
  2 21  2  0  0  0  0
  5 32  2  0  0  0  0
  6 21  1  0  0  0  0
  6 22  1  0  0  0  0
  6 23  1  0  0  0  0
  7 17  1  0  0  0  0
  7 54  1  0  0  0  0
  8 31  1  0  0  0  0
  8 32  1  0  0  0  0
  8 67  1  0  0  0  0
  9 10  1  0  0  0  0
  9 11  1  0  0  0  0
  9 13  1  0  0  0  0
  9 34  1  0  0  0  0
 10 15  1  0  0  0  0
 10 17  1  0  0  0  0
 10 35  1  0  0  0  0
 11 12  1  0  0  0  0
 11 36  1  0  0  0  0
 11 37  1  0  0  0  0
 12 14  1  0  0  0  0
 12 16  1  0  0  0  0
 12 38  1  0  0  0  0
 13 18  1  0  0  0  0
 13 19  1  0  0  0  0
 13 39  1  0  0  0  0
 14 15  2  0  0  0  0
 14 20  1  0  0  0  0
 15 40  1  0  0  0  0
 16 21  1  0  0  0  0
 16 41  1  0  0  0  0
 16 42  1  0  0  0  0
 17 43  1  0  0  0  0
 17 44  1  0  0  0  0
 18 45  1  0  0  0  0
 18 46  1  0  0  0  0
 18 47  1  0  0  0  0
 19 48  1  0  0  0  0
 19 49  1  0  0  0  0
 19 50  1  0  0  0  0
 20 51  1  0  0  0  0
 20 52  1  0  0  0  0
 20 53  1  0  0  0  0
 22 24  1  0  0  0  0
 22 55  1  0  0  0  0
 22 56  1  0  0  0  0
 23 25  1  0  0  0  0
 23 57  1  0  0  0  0
 23 58  1  0  0  0  0
 24 25  1  0  0  0  0
 24 59  1  0  0  0  0
 24 60  1  0  0  0  0
 25 61  1  0  0  0  0
 25 62  1  0  0  0  0
 26 27  2  0  0  0  0
 26 28  1  0  0  0  0
 27 29  1  0  0  0  0
 27 63  1  0  0  0  0
 28 30  2  0  0  0  0
 28 64  1  0  0  0  0
 29 31  2  0  0  0  0
 29 65  1  0  0  0  0
 30 31  1  0  0  0  0
 30 66  1  0  0  0  0
 32 33  1  0  0  0  0
 33 68  1  0  0  0  0
 33 69  1  0  0  0  0
 33 70  1  0  0  0  0
M  END
> <PUBCHEM_COMPOUND_CID>
45783870

> <PUBCHEM_CONFORMER_RMSD>
1.4

> <PUBCHEM_CONFORMER_DIVERSEORDER>
1
82
92
69
15
124
9
77
93
43
81
104
36
67
123
129
35
74
140
128
56
34
20
89
51
139
68
91
39
54
25
19
102
17
62
49
44
101
4
70
46
50
75
103
38
42
127
120
41
63
118
52
95
98
60
126
7
130
47
112
125
32
99
72
79
58
138
28
84
136
114
16
116
94
137
3
13
53
37
132
113
2
105
24
88
8
73
76
85
86
108
45
6
64
66
65
110
27
90
29
83
61
18
23
59
119
57
117
131
10
21
134
133
78
121
5
31
30
11
22
96
111
26
80
100
115
122
97
48
107
55
141
87
135
33
109
71
40
12
14
106

> <PUBCHEM_MMFF94_PARTIAL_CHARGES>
33
1 1.45
10 0.14
12 0.14
14 -0.28
15 -0.29
16 0.06
17 0.36
2 -0.57
20 0.14
21 0.57
22 0.3
23 0.3
26 -0.01
27 -0.15
28 -0.15
29 -0.15
3 -0.65
30 -0.15
31 0.12
32 0.57
33 0.06
4 -0.65
40 0.15
5 -0.57
54 0.42
6 -0.66
63 0.15
64 0.15
65 0.15
66 0.15
67 0.37
7 -0.91
8 -0.55

> <PUBCHEM_EFFECTIVE_ROTOR_COUNT>
11.8

> <PUBCHEM_PHARMACOPHORE_FEATURES>
10
1 2 acceptor
1 3 acceptor
1 4 acceptor
1 5 acceptor
1 7 donor
1 8 donor
3 13 18 19 hydrophobe
5 6 22 23 24 25 rings
6 26 27 28 29 30 31 rings
6 9 10 11 12 14 15 rings

> <PUBCHEM_HEAVY_ATOM_COUNT>
33

> <PUBCHEM_ATOM_DEF_STEREO_COUNT>
3

> <PUBCHEM_ATOM_UDEF_STEREO_COUNT>
0

> <PUBCHEM_BOND_DEF_STEREO_COUNT>
0

> <PUBCHEM_BOND_UDEF_STEREO_COUNT>
0

> <PUBCHEM_ISOTOPIC_ATOM_COUNT>
0

> <PUBCHEM_COMPONENT_COUNT>
1

> <PUBCHEM_CACTVS_TAUTO_COUNT>
2

> <PUBCHEM_CONFORMER_ID>
02BA9B3E00000001

> <PUBCHEM_MMFF94_ENERGY>
66.4644

> <PUBCHEM_FEATURE_SELFOVERLAP>
50.765

> <PUBCHEM_SHAPE_FINGERPRINT>
10165383 225 12391513070671406025
10483366 6 13984651560681912583
10577160 103 17386001806061418300
11211813 128 17918276467657994390
11497681 19 18341615902046009534
12373685 5 17168692038861432594
12522641 126 18192150614890940028
13631057 29 18273496771548640083
14068700 675 18272934964314702953
14444916 359 13182748047947356476
1454969 45 18409452505356923334
14659021 117 18040155102571902921
14856354 85 16630519652627917701
15183329 4 14056717941726873345
15461852 350 18260551100616469574
15728490 51 18272931643577528462
17686467 74 18336826506683106136
17980427 26 9871206990309190537
18336668 15 18343302609012608519
18608769 82 17561080328581615606
19303781 99 18194394731488414695
19315092 285 18271533090783784593
20105231 36 15841556280204457908
21365058 27 15195566805795053284
2747138 104 17060336331780239450
2838139 119 11314313871297231451
3552219 110 18200602504558725336
3633792 109 15068890932945244968
4015057 19 17386020510860198029
4173938 306 15357692024715038064
4280585 95 18333450967505175005
437795 51 17131544033869155064
4394409 98 14345796049807091025
439807 62 18263368144092076803
469060 322 18334585607348809439
563151 40 14045733837977837788
57527293 21 18192159191881717896
5969126 39 18040995129128664749
59755656 520 11239995642260105365
9896288 288 16845026593348251065

> <PUBCHEM_SHAPE_MULTIPOLES>
644.55
21.45
3.52
2.26
30.13
0.36
0.82
-13.26
0.84
-5.57
-1.52
-1.92
1.59
-1.14

> <PUBCHEM_SHAPE_SELFOVERLAP>
1322.036

> <PUBCHEM_SHAPE_VOLUME>
373.1

> <PUBCHEM_COORDINATE_TYPE>
2
5
10

$$$$
