26742406
  -OEChem-12032416183D

 50 53  0     1  0  0  0  0  0999 V2000
   -3.8920    2.7472    0.1651 S   0  0  0  0  0  0  0  0  0  0  0  0
    5.4437    0.8671   -0.3866 S   0  0  0  0  0  0  0  0  0  0  0  0
   -5.0498    3.3461   -0.4695 O   0  0  0  0  0  0  0  0  0  0  0  0
   -2.5541    3.0193   -0.3243 O   0  0  0  0  0  0  0  0  0  0  0  0
   -2.2409   -2.0320    1.4093 N   0  0  2  0  0  0  0  0  0  0  0  0
   -4.0995    1.0548    0.2672 N   0  0  0  0  0  0  0  0  0  0  0  0
    0.6246   -0.4273   -1.7586 N   0  0  0  0  0  0  0  0  0  0  0  0
    2.7074    0.7388   -1.4278 N   0  0  0  0  0  0  0  0  0  0  0  0
   -1.4615   -2.2678   -1.0646 C   0  0  2  0  0  0  0  0  0  0  0  0
   -0.2423   -2.0338   -0.1302 C   0  0  2  0  0  0  0  0  0  0  0  0
   -3.0449   -1.1372    0.5356 C   0  0  2  0  0  0  0  0  0  0  0  0
   -2.4644   -1.1072   -0.8947 C   0  0  0  0  0  0  0  0  0  0  0  0
   -2.1632   -3.5501   -0.5680 C   0  0  0  0  0  0  0  0  0  0  0  0
   -0.7989   -1.7033    1.2841 C   0  0  0  0  0  0  0  0  0  0  0  0
   -2.4405   -3.4242    0.9403 C   0  0  0  0  0  0  0  0  0  0  0  0
   -3.1932    0.2689    1.1204 C   0  0  0  0  0  0  0  0  0  0  0  0
    0.8254   -1.0450   -0.5761 C   0  0  0  0  0  0  0  0  0  0  0  0
    1.9271   -0.8264    0.2259 C   0  0  0  0  0  0  0  0  0  0  0  0
    2.8445    0.0852   -0.2555 C   0  0  0  0  0  0  0  0  0  0  0  0
    1.5907    0.4391   -2.1184 C   0  0  0  0  0  0  0  0  0  0  0  0
   -3.9259    3.1836    1.8886 C   0  0  0  0  0  0  0  0  0  0  0  0
    4.0394    0.4068    0.4785 C   0  0  0  0  0  0  0  0  0  0  0  0
    1.4034    1.1433   -3.4195 C   0  0  0  0  0  0  0  0  0  0  0  0
    4.2487    0.4043    1.8401 C   0  0  0  0  0  0  0  0  0  0  0  0
    5.5795    0.7854    2.1775 C   0  0  0  0  0  0  0  0  0  0  0  0
    6.3366    1.0645    1.0611 C   0  0  0  0  0  0  0  0  0  0  0  0
   -1.1617   -2.3774   -2.1121 H   0  0  0  0  0  0  0  0  0  0  0  0
    0.2868   -2.9975   -0.0657 H   0  0  0  0  0  0  0  0  0  0  0  0
   -4.0622   -1.5527    0.4791 H   0  0  0  0  0  0  0  0  0  0  0  0
   -1.9702   -0.1536   -1.1114 H   0  0  0  0  0  0  0  0  0  0  0  0
   -3.2793   -1.2173   -1.6211 H   0  0  0  0  0  0  0  0  0  0  0  0
   -1.5357   -4.4285   -0.7590 H   0  0  0  0  0  0  0  0  0  0  0  0
   -3.1025   -3.6968   -1.1151 H   0  0  0  0  0  0  0  0  0  0  0  0
   -0.2399   -2.2799    2.0336 H   0  0  0  0  0  0  0  0  0  0  0  0
   -0.6294   -0.6551    1.5553 H   0  0  0  0  0  0  0  0  0  0  0  0
   -3.4647   -3.7503    1.1593 H   0  0  0  0  0  0  0  0  0  0  0  0
   -1.7892   -4.1036    1.5047 H   0  0  0  0  0  0  0  0  0  0  0  0
   -2.2214    0.7679    1.1832 H   0  0  0  0  0  0  0  0  0  0  0  0
   -3.6191    0.2152    2.1286 H   0  0  0  0  0  0  0  0  0  0  0  0
   -5.0705    0.7154    0.2773 H   0  0  0  0  0  0  0  0  0  0  0  0
    2.0608   -1.3517    1.1638 H   0  0  0  0  0  0  0  0  0  0  0  0
   -3.8768    4.2730    1.9566 H   0  0  0  0  0  0  0  0  0  0  0  0
   -4.8627    2.8325    2.3254 H   0  0  0  0  0  0  0  0  0  0  0  0
   -3.0640    2.7506    2.3980 H   0  0  0  0  0  0  0  0  0  0  0  0
    1.0566    0.4429   -4.1856 H   0  0  0  0  0  0  0  0  0  0  0  0
    0.6601    1.9379   -3.3062 H   0  0  0  0  0  0  0  0  0  0  0  0
    2.3408    1.5896   -3.7658 H   0  0  0  0  0  0  0  0  0  0  0  0
    3.4930    0.1495    2.5728 H   0  0  0  0  0  0  0  0  0  0  0  0
    5.9617    0.8528    3.1877 H   0  0  0  0  0  0  0  0  0  0  0  0
    7.3712    1.3754    1.0263 H   0  0  0  0  0  0  0  0  0  0  0  0
  1  3  2  0  0  0  0
  1  4  2  0  0  0  0
  1  6  1  0  0  0  0
  1 21  1  0  0  0  0
  2 22  1  0  0  0  0
  2 26  1  0  0  0  0
  5 11  1  0  0  0  0
  5 14  1  0  0  0  0
  5 15  1  0  0  0  0
  6 16  1  0  0  0  0
  6 40  1  0  0  0  0
  7 17  2  0  0  0  0
  7 20  1  0  0  0  0
  8 19  1  0  0  0  0
  8 20  2  0  0  0  0
  9 10  1  0  0  0  0
  9 12  1  0  0  0  0
  9 13  1  0  0  0  0
  9 27  1  0  0  0  0
 10 14  1  0  0  0  0
 10 17  1  0  0  0  0
 10 28  1  0  0  0  0
 11 12  1  0  0  0  0
 11 16  1  0  0  0  0
 11 29  1  0  0  0  0
 12 30  1  0  0  0  0
 12 31  1  0  0  0  0
 13 15  1  0  0  0  0
 13 32  1  0  0  0  0
 13 33  1  0  0  0  0
 14 34  1  0  0  0  0
 14 35  1  0  0  0  0
 15 36  1  0  0  0  0
 15 37  1  0  0  0  0
 16 38  1  0  0  0  0
 16 39  1  0  0  0  0
 17 18  1  0  0  0  0
 18 19  2  0  0  0  0
 18 41  1  0  0  0  0
 19 22  1  0  0  0  0
 20 23  1  0  0  0  0
 21 42  1  0  0  0  0
 21 43  1  0  0  0  0
 21 44  1  0  0  0  0
 22 24  2  0  0  0  0
 23 45  1  0  0  0  0
 23 46  1  0  0  0  0
 23 47  1  0  0  0  0
 24 25  1  0  0  0  0
 24 48  1  0  0  0  0
 25 26  2  0  0  0  0
 25 49  1  0  0  0  0
 26 50  1  0  0  0  0
M  END
> <PUBCHEM_COMPOUND_CID>
26742406

> <PUBCHEM_CONFORMER_RMSD>
1

> <PUBCHEM_CONFORMER_DIVERSEORDER>
1
72
49
63
15
61
44
38
36
80
79
14
2
45
47
67
69
3
40
53
50
5
6
81
24
48
56
7
25
57
51
32
34
19
26
70
31
75
64
39
76
71
9
60
17
54
20
65
8
82
84
37
41
23
29
58
59
18
74
55
12
73
13
22
66
10
68
11
78
43
33
21
42
27
35
62
4
83
16
30
46
52
77
28

> <PUBCHEM_MMFF94_PARTIAL_CHARGES>
28
1 1.33
10 0.14
11 0.27
14 0.27
15 0.27
16 0.36
17 0.17
18 -0.15
19 0.36
2 -0.08
20 0.48
21 0.11
22 -0.01
23 0.14
24 -0.15
25 -0.15
26 -0.11
3 -0.65
4 -0.65
40 0.42
41 0.15
48 0.15
49 0.15
5 -0.81
50 0.15
6 -0.91
7 -0.62
8 -0.62

> <PUBCHEM_EFFECTIVE_ROTOR_COUNT>
6.2

> <PUBCHEM_PHARMACOPHORE_FEATURES>
9
1 3 acceptor
1 4 acceptor
1 5 cation
1 6 donor
1 7 acceptor
3 7 8 20 cation
5 2 22 24 25 26 rings
6 7 8 17 18 19 20 rings
8 5 9 10 11 12 13 14 15 rings

> <PUBCHEM_HEAVY_ATOM_COUNT>
26

> <PUBCHEM_ATOM_DEF_STEREO_COUNT>
3

> <PUBCHEM_ATOM_UDEF_STEREO_COUNT>
0

> <PUBCHEM_BOND_DEF_STEREO_COUNT>
0

> <PUBCHEM_BOND_UDEF_STEREO_COUNT>
0

> <PUBCHEM_ISOTOPIC_ATOM_COUNT>
0

> <PUBCHEM_COMPONENT_COUNT>
1

> <PUBCHEM_CACTVS_TAUTO_COUNT>
1

> <PUBCHEM_CONFORMER_ID>
01980E8600000001

> <PUBCHEM_MMFF94_ENERGY>
58.5618

> <PUBCHEM_FEATURE_SELFOVERLAP>
45.689

> <PUBCHEM_SHAPE_FINGERPRINT>
10042902 136 7997386331384269713
10074138 170 18263662795653756803
10291535 26 18272643593321957011
10554248 39 15051741937046997840
10675989 125 17551800218035769201
10764073 3 18122619458382189238
11049842 53 18190770599012171494
11370993 144 18411128118254730882
11552529 35 16591425550514347698
11578080 2 18200894897932769726
11582403 64 17632002062055788022
11725454 13 17632290164272420662
11763715 3 17762337324467691654
12128747 34 18201163135973585990
12166972 35 17606669494783340815
12422481 6 17823130121489241136
12633257 1 16298402227151812417
12788726 201 17900003782721247011
12969540 114 15841548613476662104
13009979 54 17897449629772961342
13103583 49 16732708241901918440
13257819 101 17632576076425257740
13583140 156 17632293544960666046
13911987 19 15266782255656946938
13947920 24 16056014949043773805
13965767 371 17970905561855950195
14142880 1 18334007298861505711
14178342 30 18260271884023222138
14294032 229 18339657698001811451
14932701 244 17774711035759763325
14950920 106 16734129979340914633
14951699 99 18339363071809646136
15003188 8 17896599488484153477
15163728 17 17987798497423635331
15338160 23 18337101389149605580
15484559 13 14392878027136111362
20587220 17 17617078232678999733
20739085 24 17167866400487492604
20775438 99 9361643806388938917
21033648 144 16702019842121708648
21033648 29 18340211799515682752
21304303 282 18340187645311031703
2132832 1 17971752426459524991
21401589 2 18343026549768093025
22393880 68 11383834827142395602
23536364 44 12822713003564461220
2838139 119 17489017163580903424
3117164 225 18263916662496032338
312425 83 15911651103857856209
3459 39 18411981329997166136
376196 1 18056202363015100655
437815 12 11386375846333436161
4616759 239 17534891190232824824
469060 322 18192738785176264387
484985 159 13046208430124315829
4921388 177 10665490925369033842
4938544 92 18340197588075522848
508706 21 18129649915459263536
5951187 136 16766767586321913257
6086070 43 16773501236469535986
6371380 46 18195249915052887110
7064713 232 18261959539776816517
7970288 3 8357670994365254217
9849439 229 18196943171438710345
9981440 41 18410294684003771043

> <PUBCHEM_SHAPE_MULTIPOLES>
511.1
11.69
3.96
2.29
13.49
0.69
-1.28
9.27
5.78
-8.72
0.7
1.76
0.74
-0.01

> <PUBCHEM_SHAPE_SELFOVERLAP>
1068.354

> <PUBCHEM_SHAPE_VOLUME>
292

> <PUBCHEM_COORDINATE_TYPE>
2
5
10

$$$$
