75368610
  -OEChem-12032416383D

 53 56  0     1  0  0  0  0  0999 V2000
   -6.8524   -1.4326   -0.5954 S   0  0  0  0  0  0  0  0  0  0  0  0
    6.7546   -3.0088    1.8603 F   0  0  0  0  0  0  0  0  0  0  0  0
    3.6704    2.8618   -0.5810 O   0  0  0  0  0  0  0  0  0  0  0  0
   -7.0376   -2.7446    0.0094 O   0  0  0  0  0  0  0  0  0  0  0  0
   -7.9406   -0.4656   -0.5718 O   0  0  0  0  0  0  0  0  0  0  0  0
    1.4426    2.1465   -0.3704 N   0  0  0  0  0  0  0  0  0  0  0  0
   -1.0575    1.6638    0.8243 N   0  0  2  0  0  0  0  0  0  0  0  0
    2.9033    0.7876   -1.4018 N   0  0  0  0  0  0  0  0  0  0  0  0
    0.6363    1.0436   -0.8502 C   0  0  2  0  0  0  0  0  0  0  0  0
   -0.2869    0.5382    0.2579 C   0  0  0  0  0  0  0  0  0  0  0  0
    1.6664    0.0280   -1.3406 C   0  0  0  0  0  0  0  0  0  0  0  0
    0.8032    3.2377    0.3349 C   0  0  0  0  0  0  0  0  0  0  0  0
   -0.1557    2.6860    1.3929 C   0  0  0  0  0  0  0  0  0  0  0  0
    2.7831    2.0390   -0.7646 C   0  0  0  0  0  0  0  0  0  0  0  0
   -1.9882    1.1815    1.8444 C   0  0  0  0  0  0  0  0  0  0  0  0
    4.1253    0.2212   -1.9286 C   0  0  0  0  0  0  0  0  0  0  0  0
   -3.1983    0.5313    1.2385 C   0  0  0  0  0  0  0  0  0  0  0  0
    4.8265   -0.6403   -0.9184 C   0  0  0  0  0  0  0  0  0  0  0  0
   -4.1994    1.3166    0.6669 C   0  0  0  0  0  0  0  0  0  0  0  0
   -3.3212   -0.8582    1.2469 C   0  0  0  0  0  0  0  0  0  0  0  0
    5.7675   -0.0779   -0.0558 C   0  0  0  0  0  0  0  0  0  0  0  0
    4.5369   -2.0027   -0.8422 C   0  0  0  0  0  0  0  0  0  0  0  0
   -5.3236    0.7126    0.1040 C   0  0  0  0  0  0  0  0  0  0  0  0
   -4.4455   -1.4623    0.6840 C   0  0  0  0  0  0  0  0  0  0  0  0
   -5.4466   -0.6768    0.1125 C   0  0  0  0  0  0  0  0  0  0  0  0
    6.4191   -0.8780    0.8827 C   0  0  0  0  0  0  0  0  0  0  0  0
    5.1886   -2.8027    0.0963 C   0  0  0  0  0  0  0  0  0  0  0  0
    6.1297   -2.2404    0.9587 C   0  0  0  0  0  0  0  0  0  0  0  0
   -6.3999   -1.7050   -2.2938 C   0  0  0  0  0  0  0  0  0  0  0  0
    0.0482    1.4212   -1.6971 H   0  0  0  0  0  0  0  0  0  0  0  0
   -0.9486   -0.2167   -0.1803 H   0  0  0  0  0  0  0  0  0  0  0  0
    0.2989    0.0465    1.0466 H   0  0  0  0  0  0  0  0  0  0  0  0
    1.7980   -0.8025   -0.6404 H   0  0  0  0  0  0  0  0  0  0  0  0
    1.4167   -0.3639   -2.3312 H   0  0  0  0  0  0  0  0  0  0  0  0
    0.2574    3.8299   -0.4085 H   0  0  0  0  0  0  0  0  0  0  0  0
    1.5660    3.8797    0.7867 H   0  0  0  0  0  0  0  0  0  0  0  0
    0.4237    2.2576    2.2217 H   0  0  0  0  0  0  0  0  0  0  0  0
   -0.7374    3.5236    1.7960 H   0  0  0  0  0  0  0  0  0  0  0  0
   -2.3571    2.0214    2.4502 H   0  0  0  0  0  0  0  0  0  0  0  0
   -1.4942    0.5098    2.5598 H   0  0  0  0  0  0  0  0  0  0  0  0
    4.7870    1.0426   -2.2294 H   0  0  0  0  0  0  0  0  0  0  0  0
    3.8899   -0.3440   -2.8378 H   0  0  0  0  0  0  0  0  0  0  0  0
   -4.1143    2.4001    0.6527 H   0  0  0  0  0  0  0  0  0  0  0  0
   -2.5478   -1.4820    1.6870 H   0  0  0  0  0  0  0  0  0  0  0  0
    6.0021    0.9820   -0.1039 H   0  0  0  0  0  0  0  0  0  0  0  0
    3.8062   -2.4530   -1.5088 H   0  0  0  0  0  0  0  0  0  0  0  0
   -6.0870    1.3436   -0.3422 H   0  0  0  0  0  0  0  0  0  0  0  0
   -4.5177   -2.5461    0.6951 H   0  0  0  0  0  0  0  0  0  0  0  0
    7.1516   -0.4405    1.5546 H   0  0  0  0  0  0  0  0  0  0  0  0
    4.9634   -3.8634    0.1559 H   0  0  0  0  0  0  0  0  0  0  0  0
   -7.2462   -2.1758   -2.7986 H   0  0  0  0  0  0  0  0  0  0  0  0
   -6.1766   -0.7436   -2.7603 H   0  0  0  0  0  0  0  0  0  0  0  0
   -5.5311   -2.3650   -2.3288 H   0  0  0  0  0  0  0  0  0  0  0  0
  1  4  2  0  0  0  0
  1  5  2  0  0  0  0
  1 25  1  0  0  0  0
  1 29  1  0  0  0  0
  2 28  1  0  0  0  0
  3 14  2  0  0  0  0
  6  9  1  0  0  0  0
  6 12  1  0  0  0  0
  6 14  1  0  0  0  0
  7 10  1  0  0  0  0
  7 13  1  0  0  0  0
  7 15  1  0  0  0  0
  8 11  1  0  0  0  0
  8 14  1  0  0  0  0
  8 16  1  0  0  0  0
  9 10  1  0  0  0  0
  9 11  1  0  0  0  0
  9 30  1  0  0  0  0
 10 31  1  0  0  0  0
 10 32  1  0  0  0  0
 11 33  1  0  0  0  0
 11 34  1  0  0  0  0
 12 13  1  0  0  0  0
 12 35  1  0  0  0  0
 12 36  1  0  0  0  0
 13 37  1  0  0  0  0
 13 38  1  0  0  0  0
 15 17  1  0  0  0  0
 15 39  1  0  0  0  0
 15 40  1  0  0  0  0
 16 18  1  0  0  0  0
 16 41  1  0  0  0  0
 16 42  1  0  0  0  0
 17 19  2  0  0  0  0
 17 20  1  0  0  0  0
 18 21  2  0  0  0  0
 18 22  1  0  0  0  0
 19 23  1  0  0  0  0
 19 43  1  0  0  0  0
 20 24  2  0  0  0  0
 20 44  1  0  0  0  0
 21 26  1  0  0  0  0
 21 45  1  0  0  0  0
 22 27  2  0  0  0  0
 22 46  1  0  0  0  0
 23 25  2  0  0  0  0
 23 47  1  0  0  0  0
 24 25  1  0  0  0  0
 24 48  1  0  0  0  0
 26 28  2  0  0  0  0
 26 49  1  0  0  0  0
 27 28  1  0  0  0  0
 27 50  1  0  0  0  0
 29 51  1  0  0  0  0
 29 52  1  0  0  0  0
 29 53  1  0  0  0  0
M  END
> <PUBCHEM_COMPOUND_CID>
75368610

> <PUBCHEM_CONFORMER_RMSD>
0.8

> <PUBCHEM_CONFORMER_DIVERSEORDER>
1
75
58
101
125
85
119
133
131
139
115
132
51
116
50
100
80
29
77
122
121
13
49
86
14
124
79
69
65
55
91
127
60
73
104
57
137
114
126
40
70
113
118
67
90
53
39
30
54
33
123
37
8
36
109
87
35
112
129
44
117
82
136
21
48
24
135
128
138
34
11
68
74
42
18
83
76
23
43
31
64
107
62
99
5
92
15
38
130
94
108
95
27
78
120
45
52
103
9
71
16
12
63
2
102
32
96
134
111
84
72
26
19
81
20
105
22
106
47
66
6
3
10
110
93
28
41
98
61
4
88
46
89
17
59
25
97
7
56

> <PUBCHEM_MMFF94_PARTIAL_CHARGES>
37
1 1.2
10 0.27
11 0.3
12 0.3
13 0.27
14 0.69
15 0.41
16 0.44
17 -0.14
18 -0.14
19 -0.15
2 -0.19
20 -0.15
21 -0.15
22 -0.15
23 -0.15
24 -0.15
25 -0.01
26 -0.15
27 -0.15
28 0.19
29 0.11
3 -0.57
4 -0.65
43 0.15
44 0.15
45 0.15
46 0.15
47 0.15
48 0.15
49 0.15
5 -0.65
50 0.15
6 -0.66
7 -0.81
8 -0.66
9 0.3

> <PUBCHEM_EFFECTIVE_ROTOR_COUNT>
6.2

> <PUBCHEM_PHARMACOPHORE_FEATURES>
8
1 3 acceptor
1 4 acceptor
1 5 acceptor
1 7 cation
5 6 8 9 11 14 rings
6 17 19 20 23 24 25 rings
6 18 21 22 26 27 28 rings
6 6 7 9 10 12 13 rings

> <PUBCHEM_HEAVY_ATOM_COUNT>
29

> <PUBCHEM_ATOM_DEF_STEREO_COUNT>
1

> <PUBCHEM_ATOM_UDEF_STEREO_COUNT>
0

> <PUBCHEM_BOND_DEF_STEREO_COUNT>
0

> <PUBCHEM_BOND_UDEF_STEREO_COUNT>
0

> <PUBCHEM_ISOTOPIC_ATOM_COUNT>
0

> <PUBCHEM_COMPONENT_COUNT>
1

> <PUBCHEM_CACTVS_TAUTO_COUNT>
1

> <PUBCHEM_CONFORMER_ID>
047E08A200000001

> <PUBCHEM_MMFF94_ENERGY>
62.3836

> <PUBCHEM_FEATURE_SELFOVERLAP>
40.71

> <PUBCHEM_SHAPE_FINGERPRINT>
10 15 11240005547055836303
10670039 82 16081360831353285061
10674148 151 10809349928206341258
11443803 9 17630336453493411796
11475781 23 13623820461986859422
11796584 16 17241049919680055024
11809386 21 18342464729707457809
12390115 104 11458429050762242041
13533116 47 18334301959593666744
13782708 43 18187086178507287183
13914758 101 18187646873819025853
14068700 675 18336828589689860800
14150023 79 17983013650675419184
14347332 77 18413394233147057905
14848178 5 18114754746086639954
14951699 99 8502386542170965703
15119646 104 18409455764915308795
15183329 4 16732701640510621985
15188451 53 18337107870138541762
15338160 23 10447628211548738509
15350500 16 18335410245533803538
16993427 108 18340194198861244266
17134984 74 18266750258004445078
17857418 61 18335430040916361408
19304671 126 14779555624801037654
19315092 285 17846782914294429024
19958102 18 18113899399007454607
20028762 73 18342743970937976822
20567600 234 16774074094569695816
20691028 202 8142090836296553663
21315763 87 16845580798437345839
21315764 119 17095244739330236367
21458453 9 14979373158445691175
21585480 29 14979662321756422925
23559900 14 18265334100735918657
3004659 81 18270134486096570076
397830 11 12175625101077025365
3986486 107 7925340897200623666
437795 70 15140680241824927654
439807 62 18341618170347566511
4408954 87 16056588868096016446
474113 269 18337946788293216614
5085150 59 18060701663639015495
5104073 3 18059029348970311873
5718773 13 18410854352221947171
5874358 3 18338780252435537194
5951187 136 8285903710694985930
59682541 52 17894915156512259549
6438161 24 18342173389074849427
96874 4 18410852144493238770
9689198 14 9871463248788353858

> <PUBCHEM_SHAPE_MULTIPOLES>
560.83
21.05
3.44
1.7
12.43
0.49
0.19
-20.36
0.78
-2.51
-0.61
-0.33
-0.35
-3.35

> <PUBCHEM_SHAPE_SELFOVERLAP>
1189.932

> <PUBCHEM_SHAPE_VOLUME>
317.4

> <PUBCHEM_COORDINATE_TYPE>
2
5
10

$$$$
