7673881
  -OEChem-12032416363D

 53 57  0     1  0  0  0  0  0999 V2000
    4.6817   -1.1923   -1.2023 S   0  0  0  0  0  0  0  0  0  0  0  0
    1.9820   -2.2749   -0.9061 S   0  0  0  0  0  0  0  0  0  0  0  0
    6.0319   -1.4495   -0.7477 O   0  0  0  0  0  0  0  0  0  0  0  0
    4.3600   -1.1839   -2.6138 O   0  0  0  0  0  0  0  0  0  0  0  0
   -0.3848    2.1883   -1.3983 O   0  0  0  0  0  0  0  0  0  0  0  0
   -2.4405   -1.1009    1.5099 O   0  0  0  0  0  0  0  0  0  0  0  0
    4.1196    0.2608   -0.4942 N   0  0  2  0  0  0  0  0  0  0  0  0
    1.4629    1.9003    0.0029 N   0  0  0  0  0  0  0  0  0  0  0  0
   -2.0775    0.8587    0.3104 N   0  0  0  0  0  0  0  0  0  0  0  0
   -9.3800   -0.2405   -1.2197 N   0  0  0  0  0  0  0  0  0  0  0  0
    3.8068    2.7355   -0.6027 C   0  0  1  0  0  0  0  0  0  0  0  0
    3.4446    1.5537    1.5199 C   0  0  2  0  0  0  0  0  0  0  0  0
    4.0077    2.8316    0.9040 C   0  0  0  0  0  0  0  0  0  0  0  0
    4.5528    1.5169   -1.1705 C   0  0  0  0  0  0  0  0  0  0  0  0
    4.2298    0.3387    0.9932 C   0  0  0  0  0  0  0  0  0  0  0  0
    2.3034    2.6940   -0.9035 C   0  0  0  0  0  0  0  0  0  0  0  0
    1.9669    1.4034    1.2091 C   0  0  0  0  0  0  0  0  0  0  0  0
    1.1521    0.7783    2.0755 C   0  0  0  0  0  0  0  0  0  0  0  0
    0.1074    1.7545   -0.3556 C   0  0  0  0  0  0  0  0  0  0  0  0
   -0.7620    1.0315    0.6261 C   0  0  0  0  0  0  0  0  0  0  0  0
   -0.2391    0.5888    1.7744 C   0  0  0  0  0  0  0  0  0  0  0  0
    3.6157   -2.3554   -0.4097 C   0  0  0  0  0  0  0  0  0  0  0  0
    3.8295   -3.3256    0.5373 C   0  0  0  0  0  0  0  0  0  0  0  0
    2.6292   -4.0198    0.8648 C   0  0  0  0  0  0  0  0  0  0  0  0
    1.5482   -3.5489    0.1524 C   0  0  0  0  0  0  0  0  0  0  0  0
   -2.8423   -0.2032    0.7737 C   0  0  0  0  0  0  0  0  0  0  0  0
   -4.2640   -0.2103    0.3409 C   0  0  0  0  0  0  0  0  0  0  0  0
   -5.1998   -0.8336    1.1396 C   0  0  0  0  0  0  0  0  0  0  0  0
   -4.6015    0.4055   -0.8462 C   0  0  0  0  0  0  0  0  0  0  0  0
   -6.5341   -0.8410    0.7329 C   0  0  0  0  0  0  0  0  0  0  0  0
   -5.9357    0.3980   -1.2529 C   0  0  0  0  0  0  0  0  0  0  0  0
   -6.9020   -0.2253   -0.4634 C   0  0  0  0  0  0  0  0  0  0  0  0
   -8.2689   -0.2337   -0.8806 C   0  0  0  0  0  0  0  0  0  0  0  0
    4.2259    3.6284   -1.0833 H   0  0  0  0  0  0  0  0  0  0  0  0
    3.5876    1.6105    2.6071 H   0  0  0  0  0  0  0  0  0  0  0  0
    3.4985    3.7161    1.3067 H   0  0  0  0  0  0  0  0  0  0  0  0
    5.0727    2.9374    1.1435 H   0  0  0  0  0  0  0  0  0  0  0  0
    4.3553    1.4440   -2.2455 H   0  0  0  0  0  0  0  0  0  0  0  0
    5.6334    1.6431   -1.0320 H   0  0  0  0  0  0  0  0  0  0  0  0
    5.2869    0.4283    1.2723 H   0  0  0  0  0  0  0  0  0  0  0  0
    3.8371   -0.5646    1.4672 H   0  0  0  0  0  0  0  0  0  0  0  0
    1.9079    3.7178   -0.8509 H   0  0  0  0  0  0  0  0  0  0  0  0
    2.1249    2.3554   -1.9318 H   0  0  0  0  0  0  0  0  0  0  0  0
    1.5207    0.3795    3.0149 H   0  0  0  0  0  0  0  0  0  0  0  0
   -0.8111    0.1111    2.5604 H   0  0  0  0  0  0  0  0  0  0  0  0
   -2.4324    1.4777   -0.4103 H   0  0  0  0  0  0  0  0  0  0  0  0
    4.7956   -3.5324    0.9789 H   0  0  0  0  0  0  0  0  0  0  0  0
    2.5617   -4.8233    1.5867 H   0  0  0  0  0  0  0  0  0  0  0  0
    0.5242   -3.8911    0.2037 H   0  0  0  0  0  0  0  0  0  0  0  0
   -4.9307   -1.3129    2.0760 H   0  0  0  0  0  0  0  0  0  0  0  0
   -3.8831    0.8640   -1.5164 H   0  0  0  0  0  0  0  0  0  0  0  0
   -7.2761   -1.3300    1.3596 H   0  0  0  0  0  0  0  0  0  0  0  0
   -6.2063    0.8736   -2.1928 H   0  0  0  0  0  0  0  0  0  0  0  0
  1  3  2  0  0  0  0
  1  4  2  0  0  0  0
  1  7  1  0  0  0  0
  1 22  1  0  0  0  0
  2 22  1  0  0  0  0
  2 25  1  0  0  0  0
  5 19  2  0  0  0  0
  6 26  2  0  0  0  0
  7 14  1  0  0  0  0
  7 15  1  0  0  0  0
  8 16  1  0  0  0  0
  8 17  1  0  0  0  0
  8 19  1  0  0  0  0
  9 20  1  0  0  0  0
  9 26  1  0  0  0  0
  9 46  1  0  0  0  0
 10 33  3  0  0  0  0
 11 13  1  0  0  0  0
 11 14  1  0  0  0  0
 11 16  1  0  0  0  0
 11 34  1  0  0  0  0
 12 13  1  0  0  0  0
 12 15  1  0  0  0  0
 12 17  1  0  0  0  0
 12 35  1  0  0  0  0
 13 36  1  0  0  0  0
 13 37  1  0  0  0  0
 14 38  1  0  0  0  0
 14 39  1  0  0  0  0
 15 40  1  0  0  0  0
 15 41  1  0  0  0  0
 16 42  1  0  0  0  0
 16 43  1  0  0  0  0
 17 18  2  0  0  0  0
 18 21  1  0  0  0  0
 18 44  1  0  0  0  0
 19 20  1  0  0  0  0
 20 21  2  0  0  0  0
 21 45  1  0  0  0  0
 22 23  2  0  0  0  0
 23 24  1  0  0  0  0
 23 47  1  0  0  0  0
 24 25  2  0  0  0  0
 24 48  1  0  0  0  0
 25 49  1  0  0  0  0
 26 27  1  0  0  0  0
 27 28  2  0  0  0  0
 27 29  1  0  0  0  0
 28 30  1  0  0  0  0
 28 50  1  0  0  0  0
 29 31  2  0  0  0  0
 29 51  1  0  0  0  0
 30 32  2  0  0  0  0
 30 52  1  0  0  0  0
 31 32  1  0  0  0  0
 31 53  1  0  0  0  0
 32 33  1  0  0  0  0
M  END
> <PUBCHEM_COMPOUND_CID>
7673881

> <PUBCHEM_CONFORMER_RMSD>
0.8

> <PUBCHEM_CONFORMER_DIVERSEORDER>
1
33
32
4
26
29
9
28
3
30
11
31
16
23
5
21
24
27
2
22
13
19
25
12
8
17
7
14
20
10
18
15
6

> <PUBCHEM_MMFF94_PARTIAL_CHARGES>
41
1 1.5
10 -0.56
12 0.14
14 0.36
15 0.36
16 0.3
17 -0.03
18 -0.15
19 0.62
2 -0.08
20 0.12
21 -0.15
22 -0.02
23 -0.15
24 -0.15
25 -0.11
26 0.54
27 0.09
28 -0.15
29 -0.15
3 -0.65
30 -0.15
31 -0.15
32 0.07
33 0.48
4 -0.65
44 0.15
45 0.15
46 0.37
47 0.15
48 0.15
49 0.15
5 -0.57
50 0.15
51 0.15
52 0.15
53 0.15
6 -0.57
7 -0.85
8 -0.47
9 -0.54

> <PUBCHEM_EFFECTIVE_ROTOR_COUNT>
6

> <PUBCHEM_PHARMACOPHORE_FEATURES>
11
1 10 acceptor
1 3 acceptor
1 4 acceptor
1 5 acceptor
1 6 acceptor
1 9 donor
5 2 22 23 24 25 rings
6 27 28 29 30 31 32 rings
6 7 11 12 13 14 15 rings
6 8 11 12 13 16 17 rings
6 8 17 18 19 20 21 rings

> <PUBCHEM_HEAVY_ATOM_COUNT>
33

> <PUBCHEM_ATOM_DEF_STEREO_COUNT>
2

> <PUBCHEM_ATOM_UDEF_STEREO_COUNT>
0

> <PUBCHEM_BOND_DEF_STEREO_COUNT>
0

> <PUBCHEM_BOND_UDEF_STEREO_COUNT>
0

> <PUBCHEM_ISOTOPIC_ATOM_COUNT>
0

> <PUBCHEM_COMPONENT_COUNT>
1

> <PUBCHEM_CACTVS_TAUTO_COUNT>
2

> <PUBCHEM_CONFORMER_ID>
0075181900000001

> <PUBCHEM_MMFF94_ENERGY>
82.2972

> <PUBCHEM_FEATURE_SELFOVERLAP>
57.426

> <PUBCHEM_SHAPE_FINGERPRINT>
10675989 125 18059012920710115024
10951579 204 17969501507821732501
11408170 132 18335976460316478237
11505856 67 16252205515793485928
11828532 37 16878235228946590195
11973864 48 18041566958125120259
12522641 33 18338796836121580880
13533116 47 18131354124154219873
1361 2 18335706086980602336
13617811 41 18186238433651961661
14117953 113 18408325488927499318
14347332 77 18200592497912855217
14675020 138 18270665572061759832
14931854 50 18266479645643955414
15001296 14 17917704747090879391
15119646 104 17846785100859750803
15183329 4 18260550009420748785
15419008 42 17970323968040283005
15664445 248 17313111873363307748
15876981 60 8033131991326803900
17134984 74 18411417332435838059
17492 54 18190206584412729766
17909252 39 18335139739523563576
20587220 46 16056885723529909934
20721686 124 18114459042089532386
20737093 15 18059557085362488975
20775530 9 17831318103220146970
21033650 10 16371572458316941157
21285901 2 17822286868721502829
21360442 67 18335418011051329139
21703447 108 18201433662683475408
23559900 14 18333456447234669793
25269216 80 16588603019021017491
27425 322 17024313131161501872
34797466 226 18187363276928537141
4066623 53 17459179695057399748
4098825 35 18411417268760155165
46194498 28 18040435511827220140
463206 1 18201999975253092186
484989 97 18265353844368697634
5104073 3 11383575368642434007
513532 50 17095526210217331486
5309563 4 18339647716234214188
57359948 33 17603301544406135469
57527306 92 16298676079342158908
5951187 136 15285937878554072366
59682541 52 18334011679606730643
59755656 215 18408321095017433481
6086070 43 17131551657573840297
68570916 9 11025806405773711969

> <PUBCHEM_SHAPE_MULTIPOLES>
643.42
18.41
3.8
1.74
48.4
2.6
-0.02
3.61
-7.03
-7.88
0.14
-0.71
-0.15
0.92

> <PUBCHEM_SHAPE_SELFOVERLAP>
1389.155

> <PUBCHEM_SHAPE_VOLUME>
351.5

> <PUBCHEM_COORDINATE_TYPE>
2
5
10

$$$$
