75368548
  -OEChem-12032416393D

 39 41  0     1  0  0  0  0  0999 V2000
    4.7863   -1.1677   -0.4098 O   0  0  0  0  0  0  0  0  0  0  0  0
   -0.1531   -0.2066    0.2981 N   0  0  2  0  0  0  0  0  0  0  0  0
    2.6508   -0.3995    0.2125 N   0  0  0  0  0  0  0  0  0  0  0  0
   -4.3905    0.1122    0.2156 N   0  0  0  0  0  0  0  0  0  0  0  0
    4.2445    1.1110   -0.2614 N   0  0  0  0  0  0  0  0  0  0  0  0
   -1.5078   -0.1025   -0.2394 C   0  0  0  0  0  0  0  0  0  0  0  0
    2.0445    0.8792    0.5182 C   0  0  2  0  0  0  0  0  0  0  0  0
    0.6500    0.9671   -0.1010 C   0  0  0  0  0  0  0  0  0  0  0  0
    0.4845   -1.4600   -0.1537 C   0  0  0  0  0  0  0  0  0  0  0  0
   -2.3597   -1.3024    0.1849 C   0  0  0  0  0  0  0  0  0  0  0  0
   -2.1659    1.1973    0.2304 C   0  0  0  0  0  0  0  0  0  0  0  0
    1.8924   -1.6140    0.4271 C   0  0  0  0  0  0  0  0  0  0  0  0
    3.0520    1.8918   -0.0199 C   0  0  0  0  0  0  0  0  0  0  0  0
   -3.8077   -1.1406   -0.2848 C   0  0  0  0  0  0  0  0  0  0  0  0
   -3.6202    1.2774   -0.2410 C   0  0  0  0  0  0  0  0  0  0  0  0
    3.9880   -0.2705   -0.1765 C   0  0  0  0  0  0  0  0  0  0  0  0
   -5.7882    0.2279   -0.1994 C   0  0  0  0  0  0  0  0  0  0  0  0
   -1.4702   -0.0854   -1.3389 H   0  0  0  0  0  0  0  0  0  0  0  0
    1.9852    0.9524    1.6123 H   0  0  0  0  0  0  0  0  0  0  0  0
    0.2353    1.9076    0.2704 H   0  0  0  0  0  0  0  0  0  0  0  0
    0.7157    1.0314   -1.1954 H   0  0  0  0  0  0  0  0  0  0  0  0
    0.5362   -1.4894   -1.2502 H   0  0  0  0  0  0  0  0  0  0  0  0
   -0.0587   -2.3468    0.1829 H   0  0  0  0  0  0  0  0  0  0  0  0
   -2.3399   -1.4227    1.2763 H   0  0  0  0  0  0  0  0  0  0  0  0
   -2.0033   -2.2383   -0.2567 H   0  0  0  0  0  0  0  0  0  0  0  0
   -1.6759    2.0846   -0.1820 H   0  0  0  0  0  0  0  0  0  0  0  0
   -2.1308    1.2759    1.3252 H   0  0  0  0  0  0  0  0  0  0  0  0
    1.8478   -1.7820    1.5095 H   0  0  0  0  0  0  0  0  0  0  0  0
    2.4195   -2.4596   -0.0261 H   0  0  0  0  0  0  0  0  0  0  0  0
    2.7467    2.3385   -0.9711 H   0  0  0  0  0  0  0  0  0  0  0  0
    3.2746    2.6858    0.6980 H   0  0  0  0  0  0  0  0  0  0  0  0
   -3.8467   -1.1790   -1.3816 H   0  0  0  0  0  0  0  0  0  0  0  0
   -4.3859   -1.9936    0.0913 H   0  0  0  0  0  0  0  0  0  0  0  0
   -4.0614    2.1952    0.1670 H   0  0  0  0  0  0  0  0  0  0  0  0
   -3.6499    1.3607   -1.3357 H   0  0  0  0  0  0  0  0  0  0  0  0
    5.1380    1.5027   -0.5417 H   0  0  0  0  0  0  0  0  0  0  0  0
   -6.2388    1.1366    0.2152 H   0  0  0  0  0  0  0  0  0  0  0  0
   -5.8958    0.2560   -1.2898 H   0  0  0  0  0  0  0  0  0  0  0  0
   -6.3745   -0.6148    0.1836 H   0  0  0  0  0  0  0  0  0  0  0  0
  1 16  2  0  0  0  0
  2  6  1  0  0  0  0
  2  8  1  0  0  0  0
  2  9  1  0  0  0  0
  3  7  1  0  0  0  0
  3 12  1  0  0  0  0
  3 16  1  0  0  0  0
  4 14  1  0  0  0  0
  4 15  1  0  0  0  0
  4 17  1  0  0  0  0
  5 13  1  0  0  0  0
  5 16  1  0  0  0  0
  5 36  1  0  0  0  0
  6 10  1  0  0  0  0
  6 11  1  0  0  0  0
  6 18  1  0  0  0  0
  7  8  1  0  0  0  0
  7 13  1  0  0  0  0
  7 19  1  0  0  0  0
  8 20  1  0  0  0  0
  8 21  1  0  0  0  0
  9 12  1  0  0  0  0
  9 22  1  0  0  0  0
  9 23  1  0  0  0  0
 10 14  1  0  0  0  0
 10 24  1  0  0  0  0
 10 25  1  0  0  0  0
 11 15  1  0  0  0  0
 11 26  1  0  0  0  0
 11 27  1  0  0  0  0
 12 28  1  0  0  0  0
 12 29  1  0  0  0  0
 13 30  1  0  0  0  0
 13 31  1  0  0  0  0
 14 32  1  0  0  0  0
 14 33  1  0  0  0  0
 15 34  1  0  0  0  0
 15 35  1  0  0  0  0
 17 37  1  0  0  0  0
 17 38  1  0  0  0  0
 17 39  1  0  0  0  0
M  END
> <PUBCHEM_COMPOUND_CID>
75368548

> <PUBCHEM_CONFORMER_RMSD>
0.6

> <PUBCHEM_CONFORMER_DIVERSEORDER>
1
8
5
14
11
3
4
12
6
13
7
10
2
15
9

> <PUBCHEM_MMFF94_PARTIAL_CHARGES>
16
1 -0.57
12 0.3
13 0.3
14 0.27
15 0.27
16 0.69
17 0.27
2 -0.81
3 -0.66
36 0.37
4 -0.81
5 -0.73
6 0.27
7 0.3
8 0.27
9 0.27

> <PUBCHEM_EFFECTIVE_ROTOR_COUNT>
3.4

> <PUBCHEM_PHARMACOPHORE_FEATURES>
7
1 1 acceptor
1 2 cation
1 4 cation
1 5 donor
5 3 5 7 13 16 rings
6 2 3 7 8 9 12 rings
6 4 6 10 11 14 15 rings

> <PUBCHEM_HEAVY_ATOM_COUNT>
17

> <PUBCHEM_ATOM_DEF_STEREO_COUNT>
1

> <PUBCHEM_ATOM_UDEF_STEREO_COUNT>
0

> <PUBCHEM_BOND_DEF_STEREO_COUNT>
0

> <PUBCHEM_BOND_UDEF_STEREO_COUNT>
0

> <PUBCHEM_ISOTOPIC_ATOM_COUNT>
0

> <PUBCHEM_COMPONENT_COUNT>
1

> <PUBCHEM_CACTVS_TAUTO_COUNT>
2

> <PUBCHEM_CONFORMER_ID>
047E086400000001

> <PUBCHEM_MMFF94_ENERGY>
30.9638

> <PUBCHEM_FEATURE_SELFOVERLAP>
35.617

> <PUBCHEM_SHAPE_FINGERPRINT>
10608611 8 18408880724639673885
10616163 171 18340486763559817151
11471102 20 18410855469103224752
11615757 297 18131917061338485057
12107183 9 17690843359187887113
12236239 1 17989487416230163921
13081056 2 18409448089666488253
13167823 11 18341610438604554471
14123238 8 8070026670789779763
14341114 176 18408329895141730873
14415576 193 18409450293068873364
15196674 1 18411136978265678411
15442244 35 18194681458301733930
15536298 74 18341893017456314944
17802600 8 18411133627985628160
17834072 33 18343016722809007775
17834072 8 18342745100497661422
18186145 218 18114173151115846422
200 152 17988922280143605283
20645477 70 18343585118570145846
21267235 1 18411427197980498019
21452121 103 18271514408166371784
21652331 79 18408321090501264421
221357 26 18342175548641883917
221490 88 18337678627931135002
23402539 116 17989200430995314853
23402655 69 18342458170622405668
23557571 272 17168142287279176117
23558518 356 17538841790881092330
23559900 14 18341609360567834728
2871803 45 18334853905012375688
29717793 49 17918274229773830541
3004659 81 18261681372969266262
3060560 45 18343865498546571430
335352 9 18411138008899587310
3545911 37 18335421266440489999
4214541 1 18411136909762602937
474 4 17822015357984483620
4990 188 18202290186467193454
5104073 3 18410855494762331163
522135 26 18410292510612577380
542803 24 14417851432284825757
58051976 378 18272369741743580167
633830 44 18187078502978768382
69090 78 18412541020629240847
77779 3 18411138056212753441
8272917 22 18342179921029432607
9709674 26 18411142454296727031
9999458 23 18186240645496587974

> <PUBCHEM_SHAPE_MULTIPOLES>
324.06
10.56
1.75
0.66
4.67
0.02
-0.01
0.75
1.09
-0.73
-0.01
-0.03
-0.01
0.02

> <PUBCHEM_SHAPE_SELFOVERLAP>
670.208

> <PUBCHEM_SHAPE_VOLUME>
187

> <PUBCHEM_COORDINATE_TYPE>
2
5
10

$$$$
