23899975
  -OEChem-12032416173D

 75 78  0     1  0  0  0  0  0999 V2000
    9.7324    0.4279    1.1595 Cl  0  0  0  0  0  0  0  0  0  0  0  0
    9.5535    3.1815   -0.5316 Cl  0  0  0  0  0  0  0  0  0  0  0  0
    2.6368   -0.9608    0.2279 O   0  0  0  0  0  0  0  0  0  0  0  0
   -4.3414   -2.8512    0.6631 O   0  0  0  0  0  0  0  0  0  0  0  0
    2.3105   -3.6607    0.6008 O   0  0  0  0  0  0  0  0  0  0  0  0
   -5.1046    0.4081   -1.4211 O   0  0  0  0  0  0  0  0  0  0  0  0
    3.0683    1.0131   -0.8433 O   0  0  0  0  0  0  0  0  0  0  0  0
   -6.2001    2.7637   -2.4130 O   0  0  0  0  0  0  0  0  0  0  0  0
   -5.9346    1.5434    0.4165 N   0  0  0  0  0  0  0  0  0  0  0  0
    4.7368   -0.1821    0.2826 N   0  0  0  0  0  0  0  0  0  0  0  0
   -1.6933   -1.1753    0.4390 C   0  0  2  0  0  0  0  0  0  0  0  0
   -0.9271   -2.0938   -0.5899 C   0  0  1  0  0  0  0  0  0  0  0  0
    0.6229   -2.2715   -0.3620 C   0  0  1  0  0  0  0  0  0  0  0  0
   -3.1291   -0.8951   -0.1711 C   0  0  1  0  0  0  0  0  0  0  0  0
   -0.9232    0.1663    0.5682 C   0  0  0  0  0  0  0  0  0  0  0  0
   -1.6977   -3.4101   -0.8339 C   0  0  0  0  0  0  0  0  0  0  0  0
    1.2683   -0.8662   -0.1667 C   0  0  1  0  0  0  0  0  0  0  0  0
   -3.9120   -2.1825   -0.5186 C   0  0  1  0  0  0  0  0  0  0  0  0
    0.5609   -0.0031    0.8726 C   0  0  0  0  0  0  0  0  0  0  0  0
   -3.0980   -3.1390   -1.3854 C   0  0  0  0  0  0  0  0  0  0  0  0
   -1.8149   -1.7953    1.8523 C   0  0  0  0  0  0  0  0  0  0  0  0
   -4.0146    0.0444    0.6637 C   0  0  0  0  0  0  0  0  0  0  0  0
    0.9843   -3.2227    0.7972 C   0  0  0  0  0  0  0  0  0  0  0  0
    1.2557   -2.9010   -1.6370 C   0  0  0  0  0  0  0  0  0  0  0  0
   -5.0631    0.6736   -0.2186 C   0  0  0  0  0  0  0  0  0  0  0  0
   -7.0694    2.1647   -0.2699 C   0  0  1  0  0  0  0  0  0  0  0  0
    3.4576    0.0606   -0.1789 C   0  0  0  0  0  0  0  0  0  0  0  0
   -5.9225    1.8869    1.8363 C   0  0  0  0  0  0  0  0  0  0  0  0
   -7.9638    2.6516    0.8730 C   0  0  0  0  0  0  0  0  0  0  0  0
   -6.9715    2.9787    1.9828 C   0  0  0  0  0  0  0  0  0  0  0  0
   -6.6161    3.3087   -1.1748 C   0  0  0  0  0  0  0  0  0  0  0  0
    5.8937    0.6086    0.0968 C   0  0  0  0  0  0  0  0  0  0  0  0
    7.1119    0.2021    0.6414 C   0  0  0  0  0  0  0  0  0  0  0  0
    5.8166    1.7960   -0.6312 C   0  0  0  0  0  0  0  0  0  0  0  0
    8.2530    0.9831    0.4580 C   0  0  0  0  0  0  0  0  0  0  0  0
    6.9576    2.5768   -0.8145 C   0  0  0  0  0  0  0  0  0  0  0  0
    8.1759    2.1704   -0.2702 C   0  0  0  0  0  0  0  0  0  0  0  0
   -0.9878   -1.5490   -1.5473 H   0  0  0  0  0  0  0  0  0  0  0  0
   -2.9250   -0.3970   -1.1315 H   0  0  0  0  0  0  0  0  0  0  0  0
   -1.3518    0.7879    1.3623 H   0  0  0  0  0  0  0  0  0  0  0  0
   -1.0214    0.7397   -0.3630 H   0  0  0  0  0  0  0  0  0  0  0  0
   -1.7725   -4.0055    0.0808 H   0  0  0  0  0  0  0  0  0  0  0  0
   -1.1754   -4.0354   -1.5646 H   0  0  0  0  0  0  0  0  0  0  0  0
    1.1961   -0.3525   -1.1365 H   0  0  0  0  0  0  0  0  0  0  0  0
   -4.8252   -1.9409   -1.0708 H   0  0  0  0  0  0  0  0  0  0  0  0
    1.0235    0.9915    0.9067 H   0  0  0  0  0  0  0  0  0  0  0  0
    0.7149   -0.4091    1.8784 H   0  0  0  0  0  0  0  0  0  0  0  0
   -3.0023   -2.7138   -2.3925 H   0  0  0  0  0  0  0  0  0  0  0  0
   -3.6234   -4.0958   -1.4890 H   0  0  0  0  0  0  0  0  0  0  0  0
   -2.2124   -2.8116    1.8416 H   0  0  0  0  0  0  0  0  0  0  0  0
   -2.4709   -1.1949    2.4917 H   0  0  0  0  0  0  0  0  0  0  0  0
   -0.8601   -1.8427    2.3760 H   0  0  0  0  0  0  0  0  0  0  0  0
   -3.4272    0.8645    1.0824 H   0  0  0  0  0  0  0  0  0  0  0  0
   -4.4994   -0.4828    1.4911 H   0  0  0  0  0  0  0  0  0  0  0  0
    0.3455   -4.1094    0.8117 H   0  0  0  0  0  0  0  0  0  0  0  0
    0.9307   -2.7393    1.7735 H   0  0  0  0  0  0  0  0  0  0  0  0
    2.3480   -2.8097   -1.6535 H   0  0  0  0  0  0  0  0  0  0  0  0
    0.8954   -2.3944   -2.5403 H   0  0  0  0  0  0  0  0  0  0  0  0
    1.0116   -3.9640   -1.7380 H   0  0  0  0  0  0  0  0  0  0  0  0
   -4.8471   -3.6363    0.3927 H   0  0  0  0  0  0  0  0  0  0  0  0
    2.5280   -4.2628    1.3327 H   0  0  0  0  0  0  0  0  0  0  0  0
   -7.5802    1.3988   -0.8660 H   0  0  0  0  0  0  0  0  0  0  0  0
   -4.9294    2.2170    2.1520 H   0  0  0  0  0  0  0  0  0  0  0  0
   -6.1996    0.9910    2.4024 H   0  0  0  0  0  0  0  0  0  0  0  0
   -8.6157    1.8331    1.2039 H   0  0  0  0  0  0  0  0  0  0  0  0
   -8.6005    3.5006    0.6080 H   0  0  0  0  0  0  0  0  0  0  0  0
   -6.5206    3.9616    1.8017 H   0  0  0  0  0  0  0  0  0  0  0  0
   -7.4293    2.9910    2.9757 H   0  0  0  0  0  0  0  0  0  0  0  0
   -5.7884    3.8786   -0.7398 H   0  0  0  0  0  0  0  0  0  0  0  0
   -7.4464    3.9908   -1.3841 H   0  0  0  0  0  0  0  0  0  0  0  0
    4.8655   -1.0341    0.8230 H   0  0  0  0  0  0  0  0  0  0  0  0
   -5.9214    3.5067   -2.9750 H   0  0  0  0  0  0  0  0  0  0  0  0
    7.1675   -0.7246    1.2089 H   0  0  0  0  0  0  0  0  0  0  0  0
    4.9095    2.1741   -1.0816 H   0  0  0  0  0  0  0  0  0  0  0  0
    6.8806    3.4996   -1.3844 H   0  0  0  0  0  0  0  0  0  0  0  0
  1 35  1  0  0  0  0
  2 37  1  0  0  0  0
  3 17  1  0  0  0  0
  3 27  1  0  0  0  0
  4 18  1  0  0  0  0
  4 60  1  0  0  0  0
  5 23  1  0  0  0  0
  5 61  1  0  0  0  0
  6 25  2  0  0  0  0
  7 27  2  0  0  0  0
  8 31  1  0  0  0  0
  8 72  1  0  0  0  0
  9 25  1  0  0  0  0
  9 26  1  0  0  0  0
  9 28  1  0  0  0  0
 10 27  1  0  0  0  0
 10 32  1  0  0  0  0
 10 71  1  0  0  0  0
 11 12  1  0  0  0  0
 11 14  1  0  0  0  0
 11 15  1  0  0  0  0
 11 21  1  0  0  0  0
 12 13  1  0  0  0  0
 12 16  1  0  0  0  0
 12 38  1  0  0  0  0
 13 17  1  0  0  0  0
 13 23  1  0  0  0  0
 13 24  1  0  0  0  0
 14 18  1  0  0  0  0
 14 22  1  0  0  0  0
 14 39  1  0  0  0  0
 15 19  1  0  0  0  0
 15 40  1  0  0  0  0
 15 41  1  0  0  0  0
 16 20  1  0  0  0  0
 16 42  1  0  0  0  0
 16 43  1  0  0  0  0
 17 19  1  0  0  0  0
 17 44  1  0  0  0  0
 18 20  1  0  0  0  0
 18 45  1  0  0  0  0
 19 46  1  0  0  0  0
 19 47  1  0  0  0  0
 20 48  1  0  0  0  0
 20 49  1  0  0  0  0
 21 50  1  0  0  0  0
 21 51  1  0  0  0  0
 21 52  1  0  0  0  0
 22 25  1  0  0  0  0
 22 53  1  0  0  0  0
 22 54  1  0  0  0  0
 23 55  1  0  0  0  0
 23 56  1  0  0  0  0
 24 57  1  0  0  0  0
 24 58  1  0  0  0  0
 24 59  1  0  0  0  0
 26 29  1  0  0  0  0
 26 31  1  0  0  0  0
 26 62  1  0  0  0  0
 28 30  1  0  0  0  0
 28 63  1  0  0  0  0
 28 64  1  0  0  0  0
 29 30  1  0  0  0  0
 29 65  1  0  0  0  0
 29 66  1  0  0  0  0
 30 67  1  0  0  0  0
 30 68  1  0  0  0  0
 31 69  1  0  0  0  0
 31 70  1  0  0  0  0
 32 33  2  0  0  0  0
 32 34  1  0  0  0  0
 33 35  1  0  0  0  0
 33 73  1  0  0  0  0
 34 36  2  0  0  0  0
 34 74  1  0  0  0  0
 35 37  2  0  0  0  0
 36 37  1  0  0  0  0
 36 75  1  0  0  0  0
M  END
> <PUBCHEM_COMPOUND_CID>
23899975

> <PUBCHEM_CONFORMER_RMSD>
1.2

> <PUBCHEM_CONFORMER_DIVERSEORDER>
1
28
75
77
88
20
86
58
71
53
84
10
9
38
2
37
92
61
69
85
40
27
36
81
5
30
66
62
60
89
14
64
34
6
24
49
48
54
3
65
79
74
80
7
59
90
87
39
50
42
56
72
41
76
31
44
67
57
94
55
11
51
73
35
15
23
8
47
22
70
83
78
4
32
26
68
63
19
12
93
16
13
82
18
17
33
46
91
45
21
52
29
43
25

> <PUBCHEM_MMFF94_PARTIAL_CHARGES>
32
1 -0.18
10 -0.55
17 0.28
18 0.28
2 -0.18
22 0.06
23 0.28
25 0.57
26 0.3
27 0.78
28 0.3
3 -0.43
31 0.28
32 0.12
33 -0.15
34 -0.15
35 0.18
36 -0.15
37 0.18
4 -0.68
5 -0.68
6 -0.57
60 0.4
61 0.4
7 -0.57
71 0.37
72 0.4
73 0.15
74 0.15
75 0.15
8 -0.68
9 -0.66

> <PUBCHEM_EFFECTIVE_ROTOR_COUNT>
11.6

> <PUBCHEM_PHARMACOPHORE_FEATURES>
13
1 10 donor
1 4 acceptor
1 4 donor
1 5 acceptor
1 5 donor
1 6 acceptor
1 7 acceptor
1 8 acceptor
1 8 donor
5 9 26 28 29 30 rings
6 11 12 13 15 17 19 rings
6 11 12 14 16 18 20 rings
6 32 33 34 35 36 37 rings

> <PUBCHEM_HEAVY_ATOM_COUNT>
37

> <PUBCHEM_ATOM_DEF_STEREO_COUNT>
6

> <PUBCHEM_ATOM_UDEF_STEREO_COUNT>
1

> <PUBCHEM_BOND_DEF_STEREO_COUNT>
0

> <PUBCHEM_BOND_UDEF_STEREO_COUNT>
0

> <PUBCHEM_ISOTOPIC_ATOM_COUNT>
0

> <PUBCHEM_COMPONENT_COUNT>
1

> <PUBCHEM_CACTVS_TAUTO_COUNT>
2

> <PUBCHEM_CONFORMER_ID>
016CAF4700000001

> <PUBCHEM_MMFF94_ENERGY>
123.2126

> <PUBCHEM_FEATURE_SELFOVERLAP>
65.993

> <PUBCHEM_SHAPE_FINGERPRINT>
10190206 1 18271795853505715991
10533779 1 18340197514650329989
10625338 131 18412258467869258864
10906281 52 18059577924047851475
10930396 42 16950286201005303277
11135926 11 18335133176771188046
11181472 205 18409735072009941668
11297750 10 17536312527817744998
11475781 23 18130798862782933532
117089 54 9871459946053780509
12133447 93 18340781429156353084
12539765 74 18343310280098603718
12895837 130 18411422851489243479
13248334 5 18053670165772009775
13540713 5 18339625777315419767
13726171 33 18342747286995172795
13782708 43 10015578406857545291
14040222 383 18343018930306069297
14394314 77 18335138726476024396
15183329 4 18115856577413915846
15347591 1 18413111645210172767
15439362 3 18412829054111502134
15510800 12 10735862968403244181
15685185 35 18273220785883389041
1577012 14 18335137635870212232
15803439 3 16128373766175420495
16067689 68 13840268053162237169
16126227 98 18342181046927867169
16992727 255 18412546530998721080
19302320 297 18040444303889473764
20105231 36 12468351333521112456
21033648 144 18337106762464110959
21033648 29 18260278429358098582
21298829 104 18412547604455617332
21756936 100 18040152933745138003
23516275 100 18116708505262642109
23522609 53 17824273807457076644
249057 25 17532379853212028663
25025965 108 10665227107336050601
255183 451 10015573995799941554
2747138 104 11314307274216798678
3633792 109 18272656715138311594
3918712 181 18413670223577645648
393628 194 18343025471769120921
4169191 19 18410290277319696025
44389302 135 9366256288866354700
44802255 64 16845292761203814055
4516262 110 18335696101624556111
4756326 101 16517071941113684693
504843 32 18342738554694228767
5470011 282 12391503196573144216
5776283 40 17988923358397357497
5937810 71 18343024414589604208
6201320 82 18200330852167608808
9896288 288 18264774427141859723
99344 41 18411698803628862142
9980921 7 18260544537922694677

> <PUBCHEM_SHAPE_MULTIPOLES>
720
28.29
4.82
1.51
43.61
1.2
0.05
-38.95
-1.89
-5.18
0.89
-2.19
-0.44
-1.73

> <PUBCHEM_SHAPE_SELFOVERLAP>
1498.13

> <PUBCHEM_SHAPE_VOLUME>
408.1

> <PUBCHEM_COORDINATE_TYPE>
2
5
10

$$$$
