45783953
  -OEChem-12032416403D

 38 41  0     1  0  0  0  0  0999 V2000
    4.1790    0.4133   -1.5960 O   0  0  0  0  0  0  0  0  0  0  0  0
   -1.6956   -1.7239    0.6450 O   0  0  0  0  0  0  0  0  0  0  0  0
    2.6465   -0.7050   -0.2692 N   0  0  0  0  0  0  0  0  0  0  0  0
   -0.6924    0.2056    0.0068 N   0  0  0  0  0  0  0  0  0  0  0  0
    4.1275    1.0026    0.6749 C   0  0  0  0  0  0  0  0  0  0  0  0
    4.7443    2.3510    0.4450 C   0  0  0  0  0  0  0  0  0  0  0  0
    3.3795    2.2453    1.0597 C   0  0  0  0  0  0  0  0  0  0  0  0
    0.7469   -1.8026    0.6517 C   0  0  2  0  0  0  0  0  0  0  0  0
    3.6624    0.2074   -0.5015 C   0  0  0  0  0  0  0  0  0  0  0  0
    1.9848   -0.9671    1.0071 C   0  0  0  0  0  0  0  0  0  0  0  0
    2.0858   -1.5237   -1.3323 C   0  0  0  0  0  0  0  0  0  0  0  0
    1.2095   -2.5410   -0.6140 C   0  0  0  0  0  0  0  0  0  0  0  0
   -0.5427   -1.0365    0.4115 C   0  0  0  0  0  0  0  0  0  0  0  0
   -2.0567    0.3627   -0.0342 C   0  0  0  0  0  0  0  0  0  0  0  0
   -2.6742   -0.8166    0.3558 C   0  0  0  0  0  0  0  0  0  0  0  0
   -2.8543    1.4608   -0.3869 C   0  0  0  0  0  0  0  0  0  0  0  0
   -4.0491   -1.0041    0.4277 C   0  0  0  0  0  0  0  0  0  0  0  0
   -4.2472    1.3098   -0.3270 C   0  0  0  0  0  0  0  0  0  0  0  0
   -4.8303    0.1009    0.0726 C   0  0  0  0  0  0  0  0  0  0  0  0
   -5.1239    2.4612   -0.6965 C   0  0  0  0  0  0  0  0  0  0  0  0
    4.5544    0.4140    1.4815 H   0  0  0  0  0  0  0  0  0  0  0  0
    5.5645    2.6460    1.0886 H   0  0  0  0  0  0  0  0  0  0  0  0
    4.8071    2.7469   -0.5611 H   0  0  0  0  0  0  0  0  0  0  0  0
    3.2820    2.4682    2.1151 H   0  0  0  0  0  0  0  0  0  0  0  0
    2.5312    2.5478    0.4579 H   0  0  0  0  0  0  0  0  0  0  0  0
    0.5468   -2.5178    1.4594 H   0  0  0  0  0  0  0  0  0  0  0  0
    1.7467   -0.0345    1.5258 H   0  0  0  0  0  0  0  0  0  0  0  0
    2.6874   -1.5442    1.6190 H   0  0  0  0  0  0  0  0  0  0  0  0
    0.3936   -2.9050   -1.2462 H   0  0  0  0  0  0  0  0  0  0  0  0
    1.8229   -3.4035   -0.3236 H   0  0  0  0  0  0  0  0  0  0  0  0
    2.8808   -1.9851   -1.9257 H   0  0  0  0  0  0  0  0  0  0  0  0
    1.4961   -0.8692   -1.9836 H   0  0  0  0  0  0  0  0  0  0  0  0
   -2.4002    2.3974   -0.6945 H   0  0  0  0  0  0  0  0  0  0  0  0
   -4.4899   -1.9430    0.7384 H   0  0  0  0  0  0  0  0  0  0  0  0
   -5.9135    0.0066    0.1139 H   0  0  0  0  0  0  0  0  0  0  0  0
   -6.0475    2.1151   -1.1730 H   0  0  0  0  0  0  0  0  0  0  0  0
   -4.6261    3.1267   -1.4100 H   0  0  0  0  0  0  0  0  0  0  0  0
   -5.3827    3.0374    0.1973 H   0  0  0  0  0  0  0  0  0  0  0  0
  1  9  2  0  0  0  0
  2 13  1  0  0  0  0
  2 15  1  0  0  0  0
  3  9  1  0  0  0  0
  3 10  1  0  0  0  0
  3 11  1  0  0  0  0
  4 13  2  0  0  0  0
  4 14  1  0  0  0  0
  5  6  1  0  0  0  0
  5  7  1  0  0  0  0
  5  9  1  0  0  0  0
  5 21  1  0  0  0  0
  6  7  1  0  0  0  0
  6 22  1  0  0  0  0
  6 23  1  0  0  0  0
  7 24  1  0  0  0  0
  7 25  1  0  0  0  0
  8 10  1  0  0  0  0
  8 12  1  0  0  0  0
  8 13  1  0  0  0  0
  8 26  1  0  0  0  0
 10 27  1  0  0  0  0
 10 28  1  0  0  0  0
 11 12  1  0  0  0  0
 11 31  1  0  0  0  0
 11 32  1  0  0  0  0
 12 29  1  0  0  0  0
 12 30  1  0  0  0  0
 14 15  2  0  0  0  0
 14 16  1  0  0  0  0
 15 17  1  0  0  0  0
 16 18  2  0  0  0  0
 16 33  1  0  0  0  0
 17 19  2  0  0  0  0
 17 34  1  0  0  0  0
 18 19  1  0  0  0  0
 18 20  1  0  0  0  0
 19 35  1  0  0  0  0
 20 36  1  0  0  0  0
 20 37  1  0  0  0  0
 20 38  1  0  0  0  0
M  END
> <PUBCHEM_COMPOUND_CID>
45783953

> <PUBCHEM_CONFORMER_RMSD>
0.6

> <PUBCHEM_CONFORMER_DIVERSEORDER>
1
43
25
22
34
8
40
19
38
14
32
41
3
42
23
24
44
7
12
39
36
4
31
20
35
21
45
30
33
9
28
37
17
27
16
18
29
5
13
6
26
10
2
11
15

> <PUBCHEM_MMFF94_PARTIAL_CHARGES>
27
1 -0.57
10 0.3
11 0.3
13 0.3
14 0.23
15 0.14
16 -0.15
17 -0.15
18 -0.14
19 -0.15
2 -0.28
20 0.14
21 0.1
22 0.1
23 0.1
24 0.1
25 0.1
3 -0.66
33 0.15
34 0.15
35 0.15
4 -0.57
5 -0.1
6 -0.2
7 -0.2
8 0.18
9 0.63

> <PUBCHEM_EFFECTIVE_ROTOR_COUNT>
4.6

> <PUBCHEM_PHARMACOPHORE_FEATURES>
4
1 1 acceptor
5 2 4 13 14 15 rings
5 3 8 10 11 12 rings
6 14 15 16 17 18 19 rings

> <PUBCHEM_HEAVY_ATOM_COUNT>
20

> <PUBCHEM_ATOM_DEF_STEREO_COUNT>
1

> <PUBCHEM_ATOM_UDEF_STEREO_COUNT>
0

> <PUBCHEM_BOND_DEF_STEREO_COUNT>
0

> <PUBCHEM_BOND_UDEF_STEREO_COUNT>
0

> <PUBCHEM_ISOTOPIC_ATOM_COUNT>
0

> <PUBCHEM_COMPONENT_COUNT>
1

> <PUBCHEM_CACTVS_TAUTO_COUNT>
1

> <PUBCHEM_CONFORMER_ID>
02BA9B9100000001

> <PUBCHEM_MMFF94_ENERGY>
39.3702

> <PUBCHEM_FEATURE_SELFOVERLAP>
20.416

> <PUBCHEM_SHAPE_FINGERPRINT>
10319926 262 18186794786461659650
10498660 4 18411139117069929073
10646746 165 18334577949327109782
10871710 139 16538770123665670276
11595378 159 16805593729720613093
12173636 292 18261671476857941287
12403259 415 18411146861180514428
12596602 18 15575003917686210732
12670546 177 17846776355715765679
12730499 353 18342186565370219723
12769317 202 18272926120439282192
13402501 40 18411979191483449024
13675066 3 7997969046634541111
13955234 65 18266744588606066187
14123255 52 18413103991656572030
14251764 38 18192147307401975780
14528608 73 18342733018649253557
14790565 3 17908989808156912809
14848178 96 18411418380070176841
15196674 1 18408321081562916913
15375358 24 18409729564737923579
17959699 21 18412262796684446993
1798214 55 18408040723504634336
1813 80 13039184814291256595
18186145 218 18059869388965258466
193927 3 11671770607503381349
20645477 56 18334581196770726437
21452121 103 18409442562407510370
21475661 188 18409162246924568748
23227448 37 18199464540072703295
23503958 8 8286206071443152279
23557571 272 18188510058686693959
23559900 14 18195523684367586835
2838139 119 18269547411908062412
3060560 45 17917713479160221478
341906 21 17967814963482471492
3472631 163 18340200774973087037
34797466 226 17989208140472004989
43658 37 18343579659650582742
474 4 18413387652824429496
495365 180 18131056117895664600
5104073 3 18187366472467972057
5281201 14 18130516218957887558
633830 44 18197210352911316223
67856867 119 18263072241201692299
7064713 232 18113057133881617469
7808743 9 18120373426630480320
960060 61 15769773528996362189
9981440 41 18259702328251584971

> <PUBCHEM_SHAPE_MULTIPOLES>
389.89
11.09
2.71
1.07
3.27
0.53
0.19
8.32
0.85
-0.84
-0.02
-0.85
-0.08
1.65

> <PUBCHEM_SHAPE_SELFOVERLAP>
848.162

> <PUBCHEM_SHAPE_VOLUME>
215.6

> <PUBCHEM_COORDINATE_TYPE>
2
5
10

$$$$
