7155536
  -OEChem-12032416413D

 50 53  0     1  0  0  0  0  0999 V2000
   -1.0675    1.8946    1.5337 O   0  0  0  0  0  0  0  0  0  0  0  0
   -3.9911   -1.9595    2.3683 O   0  0  0  0  0  0  0  0  0  0  0  0
    1.7943   -0.8605   -1.2105 O   0  0  0  0  0  0  0  0  0  0  0  0
   -4.9948   -1.0553    0.4778 N   0  0  0  0  0  0  0  0  0  0  0  0
   -2.7403    1.1748    0.0694 N   0  0  0  0  0  0  0  0  0  0  0  0
    0.9546    0.9888   -0.0915 N   0  0  0  0  0  0  0  0  0  0  0  0
    3.1993    0.5326    0.0521 N   0  0  0  0  0  0  0  0  0  0  0  0
    8.9026    0.9361    1.5048 N   0  0  0  0  0  0  0  0  0  0  0  0
   -5.2351    1.4290    0.5840 C   0  0  1  0  0  0  0  0  0  0  0  0
   -4.5238    0.3608   -1.5135 C   0  0  2  0  0  0  0  0  0  0  0  0
   -5.4009    1.4666   -0.9303 C   0  0  0  0  0  0  0  0  0  0  0  0
   -5.6703    0.0621    1.1404 C   0  0  0  0  0  0  0  0  0  0  0  0
   -3.7779    1.7554    0.9320 C   0  0  0  0  0  0  0  0  0  0  0  0
   -5.0030   -1.0081   -0.9920 C   0  0  0  0  0  0  0  0  0  0  0  0
   -3.0661    0.5693   -1.1484 C   0  0  0  0  0  0  0  0  0  0  0  0
   -2.0942    0.1492   -1.9757 C   0  0  0  0  0  0  0  0  0  0  0  0
   -1.4036    1.3522    0.4800 C   0  0  0  0  0  0  0  0  0  0  0  0
   -4.4796   -2.1008    1.2442 C   0  0  0  0  0  0  0  0  0  0  0  0
   -0.3513    0.8482   -0.4586 C   0  0  0  0  0  0  0  0  0  0  0  0
   -0.7105    0.2917   -1.6203 C   0  0  0  0  0  0  0  0  0  0  0  0
   -4.5305   -3.4771    0.6307 C   0  0  0  0  0  0  0  0  0  0  0  0
    1.9775    0.1177   -0.4892 C   0  0  0  0  0  0  0  0  0  0  0  0
    4.4692   -0.0695   -0.1069 C   0  0  0  0  0  0  0  0  0  0  0  0
    5.5710    0.4958    0.5139 C   0  0  0  0  0  0  0  0  0  0  0  0
    4.5851   -1.2125   -0.8812 C   0  0  0  0  0  0  0  0  0  0  0  0
    6.8232   -0.0981    0.3562 C   0  0  0  0  0  0  0  0  0  0  0  0
    5.8373   -1.8065   -1.0389 C   0  0  0  0  0  0  0  0  0  0  0  0
    6.9563   -1.2493   -0.4203 C   0  0  0  0  0  0  0  0  0  0  0  0
    7.9701    0.4723    0.9896 C   0  0  0  0  0  0  0  0  0  0  0  0
   -5.8763    2.1916    1.0430 H   0  0  0  0  0  0  0  0  0  0  0  0
   -4.6368    0.3736   -2.6054 H   0  0  0  0  0  0  0  0  0  0  0  0
   -5.1083    2.4467   -1.3274 H   0  0  0  0  0  0  0  0  0  0  0  0
   -6.4510    1.3087   -1.2050 H   0  0  0  0  0  0  0  0  0  0  0  0
   -5.5084    0.0153    2.2230 H   0  0  0  0  0  0  0  0  0  0  0  0
   -6.7453   -0.0796    0.9733 H   0  0  0  0  0  0  0  0  0  0  0  0
   -3.5606    1.4831    1.9725 H   0  0  0  0  0  0  0  0  0  0  0  0
   -3.6380    2.8433    0.8699 H   0  0  0  0  0  0  0  0  0  0  0  0
   -6.0329   -1.2016   -1.3152 H   0  0  0  0  0  0  0  0  0  0  0  0
   -4.3761   -1.8124   -1.3914 H   0  0  0  0  0  0  0  0  0  0  0  0
   -2.3219   -0.3296   -2.9224 H   0  0  0  0  0  0  0  0  0  0  0  0
   -0.0094   -0.0418   -2.3758 H   0  0  0  0  0  0  0  0  0  0  0  0
   -4.5774   -4.2277    1.4249 H   0  0  0  0  0  0  0  0  0  0  0  0
   -3.6305   -3.6416    0.0327 H   0  0  0  0  0  0  0  0  0  0  0  0
   -5.4178   -3.5911    0.0021 H   0  0  0  0  0  0  0  0  0  0  0  0
    1.1480    1.6024    0.6954 H   0  0  0  0  0  0  0  0  0  0  0  0
    3.1799    1.3702    0.6286 H   0  0  0  0  0  0  0  0  0  0  0  0
    5.4624    1.3937    1.1184 H   0  0  0  0  0  0  0  0  0  0  0  0
    3.7696   -1.7033   -1.3911 H   0  0  0  0  0  0  0  0  0  0  0  0
    5.9422   -2.7030   -1.6433 H   0  0  0  0  0  0  0  0  0  0  0  0
    7.9257   -1.7239   -0.5527 H   0  0  0  0  0  0  0  0  0  0  0  0
  1 17  2  0  0  0  0
  2 18  2  0  0  0  0
  3 22  2  0  0  0  0
  4 12  1  0  0  0  0
  4 14  1  0  0  0  0
  4 18  1  0  0  0  0
  5 13  1  0  0  0  0
  5 15  1  0  0  0  0
  5 17  1  0  0  0  0
  6 19  1  0  0  0  0
  6 22  1  0  0  0  0
  6 45  1  0  0  0  0
  7 22  1  0  0  0  0
  7 23  1  0  0  0  0
  7 46  1  0  0  0  0
  8 29  3  0  0  0  0
  9 11  1  0  0  0  0
  9 12  1  0  0  0  0
  9 13  1  0  0  0  0
  9 30  1  0  0  0  0
 10 11  1  0  0  0  0
 10 14  1  0  0  0  0
 10 15  1  0  0  0  0
 10 31  1  0  0  0  0
 11 32  1  0  0  0  0
 11 33  1  0  0  0  0
 12 34  1  0  0  0  0
 12 35  1  0  0  0  0
 13 36  1  0  0  0  0
 13 37  1  0  0  0  0
 14 38  1  0  0  0  0
 14 39  1  0  0  0  0
 15 16  2  0  0  0  0
 16 20  1  0  0  0  0
 16 40  1  0  0  0  0
 17 19  1  0  0  0  0
 18 21  1  0  0  0  0
 19 20  2  0  0  0  0
 20 41  1  0  0  0  0
 21 42  1  0  0  0  0
 21 43  1  0  0  0  0
 21 44  1  0  0  0  0
 23 24  1  0  0  0  0
 23 25  2  0  0  0  0
 24 26  2  0  0  0  0
 24 47  1  0  0  0  0
 25 27  1  0  0  0  0
 25 48  1  0  0  0  0
 26 28  1  0  0  0  0
 26 29  1  0  0  0  0
 27 28  2  0  0  0  0
 27 49  1  0  0  0  0
 28 50  1  0  0  0  0
M  END
> <PUBCHEM_COMPOUND_CID>
7155536

> <PUBCHEM_CONFORMER_RMSD>
0.8

> <PUBCHEM_CONFORMER_DIVERSEORDER>
1
18
26
16
15
22
23
17
6
14
25
19
21
3
24
9
20
2
7
5
8
12
10
13
11
4

> <PUBCHEM_MMFF94_PARTIAL_CHARGES>
35
1 -0.57
10 0.14
12 0.3
13 0.3
14 0.3
15 -0.03
16 -0.15
17 0.62
18 0.57
19 0.12
2 -0.57
20 -0.15
21 0.06
22 0.69
23 0.12
24 -0.15
25 -0.15
26 0.07
27 -0.15
28 -0.15
29 0.48
3 -0.57
4 -0.66
40 0.15
41 0.15
45 0.37
46 0.37
47 0.15
48 0.15
49 0.15
5 -0.47
50 0.15
6 -0.54
7 -0.55
8 -0.56

> <PUBCHEM_EFFECTIVE_ROTOR_COUNT>
6

> <PUBCHEM_PHARMACOPHORE_FEATURES>
10
1 1 acceptor
1 2 acceptor
1 3 acceptor
1 6 donor
1 7 donor
1 8 acceptor
6 23 24 25 26 27 28 rings
6 4 9 10 11 12 14 rings
6 5 15 16 17 19 20 rings
6 5 9 10 11 13 15 rings

> <PUBCHEM_HEAVY_ATOM_COUNT>
29

> <PUBCHEM_ATOM_DEF_STEREO_COUNT>
2

> <PUBCHEM_ATOM_UDEF_STEREO_COUNT>
0

> <PUBCHEM_BOND_DEF_STEREO_COUNT>
0

> <PUBCHEM_BOND_UDEF_STEREO_COUNT>
0

> <PUBCHEM_ISOTOPIC_ATOM_COUNT>
0

> <PUBCHEM_COMPONENT_COUNT>
1

> <PUBCHEM_CACTVS_TAUTO_COUNT>
3

> <PUBCHEM_CONFORMER_ID>
006D2F5000000001

> <PUBCHEM_MMFF94_ENERGY>
85.1726

> <PUBCHEM_FEATURE_SELFOVERLAP>
52.362

> <PUBCHEM_SHAPE_FINGERPRINT>
10 15 17775284958958713908
10087517 78 12607408767191229091
10165383 225 11314299543897924047
10391435 84 18410287038713667682
106641 1 16917069980188179663
10670039 82 12247682664338337323
10674148 151 18040148536009882449
10763959 59 9727629510705791050
11135926 11 17530956956543540099
11273773 118 9943538430844076303
11315181 36 17775280561091875717
11524674 6 18411699881354885071
11991303 11 11819574643952797720
12082328 90 13839983304897473247
12236239 1 17846493700039766956
13782708 43 17313105267761348760
14251752 14 9223236226305884332
14251764 18 16271919415739037028
14461889 52 18412542124884378690
14849402 71 17631723989532446400
14856354 85 18041002834457918223
14933364 13 17274818048410927924
15183329 4 11602818004200585276
15348495 7 18412265072805902880
15352257 5 18187649064110526250
15461852 350 17167864167410596094
17093844 174 18409443670593618165
17780758 139 18410577292983137857
18927931 339 18131077008970027037
21623969 137 18202850950483188998
23522609 53 16414927468963259752
23559900 14 18409444804116980617
249057 3 17821728326185294789
2747138 104 18412547613894813136
3383291 50 18335144241203977227
3711267 37 16558749079461847632
397830 11 18263922301592925768
4073 2 18413110537498071414
4169191 19 15841549691476861304
4403749 210 18342167890857529230
484985 159 18336542811694424927
5104073 3 18059295336727086026
6009941 240 18410292476432531461
68570916 9 17677055749996052556
7226269 152 15410895145635213667
9953998 17 18409449180719939953
999808 66 18343025492931915334

> <PUBCHEM_SHAPE_MULTIPOLES>
554.29
22.19
2.23
1.67
43.83
1.75
-0.06
2.88
-6.21
-3.4
-0.85
-1.31
0.21
2.48

> <PUBCHEM_SHAPE_SELFOVERLAP>
1204.517

> <PUBCHEM_SHAPE_VOLUME>
292.5

> <PUBCHEM_COORDINATE_TYPE>
2
5
10

$$$$
