28991375
  -OEChem-12032416163D

 65 70  0     1  0  0  0  0  0999 V2000
    0.3671   -6.6930    1.7195 F   0  0  0  0  0  0  0  0  0  0  0  0
   -3.6325   -1.9942   -1.8297 O   0  0  0  0  0  0  0  0  0  0  0  0
   -1.6471   -1.0458   -2.5334 O   0  0  0  0  0  0  0  0  0  0  0  0
   -0.8100   -0.6236    0.0368 N   0  0  2  0  0  0  0  0  0  0  0  0
   -2.1023    2.9001   -0.1097 N   0  0  0  0  0  0  0  0  0  0  0  0
    3.0126    1.2971   -0.0516 N   0  0  0  0  0  0  0  0  0  0  0  0
    7.5321    1.3253    0.7733 N   0  0  0  0  0  0  0  0  0  0  0  0
   -0.7333    0.7715   -0.4965 C   0  0  2  0  0  0  0  0  0  0  0  0
    0.3485   -1.4468   -0.3934 C   0  0  1  0  0  0  0  0  0  0  0  0
    0.5664    1.4554   -0.0443 C   0  0  0  0  0  0  0  0  0  0  0  0
    1.7822    0.6572   -0.5139 C   0  0  2  0  0  0  0  0  0  0  0  0
    1.6856   -0.7766    0.0052 C   0  0  0  0  0  0  0  0  0  0  0  0
   -2.1401   -1.2551   -0.1823 C   0  0  1  0  0  0  0  0  0  0  0  0
   -1.9442    1.5430   -0.0642 C   0  0  0  0  0  0  0  0  0  0  0  0
   -3.2870   -0.4843    0.5198 C   0  0  0  0  0  0  0  0  0  0  0  0
   -3.1234    0.9888    0.3839 C   0  0  0  0  0  0  0  0  0  0  0  0
    0.3535   -2.8629    0.1770 C   0  0  0  0  0  0  0  0  0  0  0  0
   -4.0267    2.0515    0.6574 C   0  0  0  0  0  0  0  0  0  0  0  0
   -3.3608    3.2397    0.3401 C   0  0  0  0  0  0  0  0  0  0  0  0
   -2.4157   -1.4054   -1.6519 C   0  0  0  0  0  0  0  0  0  0  0  0
    4.1468    0.8784   -0.8607 C   0  0  0  0  0  0  0  0  0  0  0  0
    0.8637   -3.9177   -0.5798 C   0  0  0  0  0  0  0  0  0  0  0  0
   -0.1521   -3.1022    1.4549 C   0  0  0  0  0  0  0  0  0  0  0  0
   -5.3490    2.1240    1.1397 C   0  0  0  0  0  0  0  0  0  0  0  0
   -3.9555    4.4984    0.4838 C   0  0  0  0  0  0  0  0  0  0  0  0
   -5.9543    3.3768    1.2897 C   0  0  0  0  0  0  0  0  0  0  0  0
    5.4293    1.5211   -0.4035 C   0  0  0  0  0  0  0  0  0  0  0  0
    0.8681   -5.2116   -0.0590 C   0  0  0  0  0  0  0  0  0  0  0  0
   -0.1478   -4.3960    1.9758 C   0  0  0  0  0  0  0  0  0  0  0  0
   -5.2665    4.5445    0.9664 C   0  0  0  0  0  0  0  0  0  0  0  0
    0.3624   -5.4507    1.2188 C   0  0  0  0  0  0  0  0  0  0  0  0
   -4.0235   -2.1992   -3.1910 C   0  0  0  0  0  0  0  0  0  0  0  0
    5.7126    2.8488   -0.7039 C   0  0  0  0  0  0  0  0  0  0  0  0
    6.3635    0.8088    0.3313 C   0  0  0  0  0  0  0  0  0  0  0  0
    6.9046    3.4157   -0.2666 C   0  0  0  0  0  0  0  0  0  0  0  0
    7.7728    2.6187    0.4620 C   0  0  0  0  0  0  0  0  0  0  0  0
   -0.7224    0.7795   -1.5920 H   0  0  0  0  0  0  0  0  0  0  0  0
    0.3544   -1.5314   -1.4862 H   0  0  0  0  0  0  0  0  0  0  0  0
    0.6201    2.4722   -0.4554 H   0  0  0  0  0  0  0  0  0  0  0  0
    0.5756    1.5613    1.0502 H   0  0  0  0  0  0  0  0  0  0  0  0
    1.7579    0.6474   -1.6127 H   0  0  0  0  0  0  0  0  0  0  0  0
    2.5140   -1.3827   -0.3817 H   0  0  0  0  0  0  0  0  0  0  0  0
    1.7899   -0.7792    1.1003 H   0  0  0  0  0  0  0  0  0  0  0  0
   -2.1723   -2.2699    0.2239 H   0  0  0  0  0  0  0  0  0  0  0  0
   -3.2615   -0.7236    1.5914 H   0  0  0  0  0  0  0  0  0  0  0  0
   -4.2746   -0.7817    0.1511 H   0  0  0  0  0  0  0  0  0  0  0  0
   -1.4059    3.5626   -0.4221 H   0  0  0  0  0  0  0  0  0  0  0  0
    2.9129    2.3099   -0.1253 H   0  0  0  0  0  0  0  0  0  0  0  0
    3.9915    1.1419   -1.9155 H   0  0  0  0  0  0  0  0  0  0  0  0
    4.2783   -0.2091   -0.8321 H   0  0  0  0  0  0  0  0  0  0  0  0
    1.2619   -3.7447   -1.5760 H   0  0  0  0  0  0  0  0  0  0  0  0
   -0.5312   -2.2970    2.0783 H   0  0  0  0  0  0  0  0  0  0  0  0
   -5.8983    1.2223    1.3949 H   0  0  0  0  0  0  0  0  0  0  0  0
   -3.4218    5.4084    0.2309 H   0  0  0  0  0  0  0  0  0  0  0  0
   -6.9734    3.4379    1.6623 H   0  0  0  0  0  0  0  0  0  0  0  0
    1.2656   -6.0330   -0.6478 H   0  0  0  0  0  0  0  0  0  0  0  0
   -0.5360   -4.5819    2.9728 H   0  0  0  0  0  0  0  0  0  0  0  0
   -5.7562    5.5071    1.0900 H   0  0  0  0  0  0  0  0  0  0  0  0
   -4.0946   -1.2399   -3.7125 H   0  0  0  0  0  0  0  0  0  0  0  0
   -3.3118   -2.8612   -3.6936 H   0  0  0  0  0  0  0  0  0  0  0  0
   -5.0079   -2.6745   -3.1941 H   0  0  0  0  0  0  0  0  0  0  0  0
    5.0130    3.4502   -1.2780 H   0  0  0  0  0  0  0  0  0  0  0  0
    6.1998   -0.2302    0.5999 H   0  0  0  0  0  0  0  0  0  0  0  0
    7.1465    4.4486   -0.4891 H   0  0  0  0  0  0  0  0  0  0  0  0
    8.7157    3.0133    0.8262 H   0  0  0  0  0  0  0  0  0  0  0  0
  1 31  1  0  0  0  0
  2 20  1  0  0  0  0
  2 32  1  0  0  0  0
  3 20  2  0  0  0  0
  4  8  1  0  0  0  0
  4  9  1  0  0  0  0
  4 13  1  0  0  0  0
  5 14  1  0  0  0  0
  5 19  1  0  0  0  0
  5 47  1  0  0  0  0
  6 11  1  0  0  0  0
  6 21  1  0  0  0  0
  6 48  1  0  0  0  0
  7 34  1  0  0  0  0
  7 36  2  0  0  0  0
  8 10  1  0  0  0  0
  8 14  1  0  0  0  0
  8 37  1  0  0  0  0
  9 12  1  0  0  0  0
  9 17  1  0  0  0  0
  9 38  1  0  0  0  0
 10 11  1  0  0  0  0
 10 39  1  0  0  0  0
 10 40  1  0  0  0  0
 11 12  1  0  0  0  0
 11 41  1  0  0  0  0
 12 42  1  0  0  0  0
 12 43  1  0  0  0  0
 13 15  1  0  0  0  0
 13 20  1  0  0  0  0
 13 44  1  0  0  0  0
 14 16  2  0  0  0  0
 15 16  1  0  0  0  0
 15 45  1  0  0  0  0
 15 46  1  0  0  0  0
 16 18  1  0  0  0  0
 17 22  2  0  0  0  0
 17 23  1  0  0  0  0
 18 19  1  0  0  0  0
 18 24  2  0  0  0  0
 19 25  2  0  0  0  0
 21 27  1  0  0  0  0
 21 49  1  0  0  0  0
 21 50  1  0  0  0  0
 22 28  1  0  0  0  0
 22 51  1  0  0  0  0
 23 29  2  0  0  0  0
 23 52  1  0  0  0  0
 24 26  1  0  0  0  0
 24 53  1  0  0  0  0
 25 30  1  0  0  0  0
 25 54  1  0  0  0  0
 26 30  2  0  0  0  0
 26 55  1  0  0  0  0
 27 33  1  0  0  0  0
 27 34  2  0  0  0  0
 28 31  2  0  0  0  0
 28 56  1  0  0  0  0
 29 31  1  0  0  0  0
 29 57  1  0  0  0  0
 30 58  1  0  0  0  0
 32 59  1  0  0  0  0
 32 60  1  0  0  0  0
 32 61  1  0  0  0  0
 33 35  2  0  0  0  0
 33 62  1  0  0  0  0
 34 63  1  0  0  0  0
 35 36  1  0  0  0  0
 35 64  1  0  0  0  0
 36 65  1  0  0  0  0
M  END
> <PUBCHEM_COMPOUND_CID>
28991375

> <PUBCHEM_CONFORMER_RMSD>
1

> <PUBCHEM_CONFORMER_DIVERSEORDER>
1
35
25
23
7
32
4
9
37
27
17
6
10
21
16
19
14
11
30
22
28
15
5
24
33
26
12
31
29
2
13
34
18
8
3
20
36

> <PUBCHEM_MMFF94_PARTIAL_CHARGES>
47
1 -0.19
11 0.27
13 0.33
14 -0.33
15 0.18
16 -0.18
17 -0.14
19 -0.15
2 -0.43
20 0.66
21 0.41
22 -0.15
23 -0.15
24 -0.15
25 -0.15
26 -0.15
27 -0.14
28 -0.15
29 -0.15
3 -0.57
30 -0.15
31 0.19
32 0.28
33 -0.15
34 0.16
35 -0.15
36 0.16
4 -0.81
47 0.27
48 0.36
5 0.03
51 0.15
52 0.15
53 0.15
54 0.15
55 0.15
56 0.15
57 0.15
58 0.15
6 -0.9
62 0.15
63 0.15
64 0.15
65 0.15
7 -0.62
8 0.45
9 0.41

> <PUBCHEM_EFFECTIVE_ROTOR_COUNT>
7.2

> <PUBCHEM_PHARMACOPHORE_FEATURES>
13
1 3 acceptor
1 4 cation
1 5 cation
1 5 donor
1 6 cation
1 6 donor
1 7 acceptor
5 5 14 16 18 19 rings
6 17 22 23 28 29 31 rings
6 18 19 24 25 26 30 rings
6 4 8 13 14 15 16 rings
6 4 8 9 10 11 12 rings
6 7 27 33 34 35 36 rings

> <PUBCHEM_HEAVY_ATOM_COUNT>
36

> <PUBCHEM_ATOM_DEF_STEREO_COUNT>
4

> <PUBCHEM_ATOM_UDEF_STEREO_COUNT>
0

> <PUBCHEM_BOND_DEF_STEREO_COUNT>
0

> <PUBCHEM_BOND_UDEF_STEREO_COUNT>
0

> <PUBCHEM_ISOTOPIC_ATOM_COUNT>
0

> <PUBCHEM_COMPONENT_COUNT>
1

> <PUBCHEM_CACTVS_TAUTO_COUNT>
1

> <PUBCHEM_CONFORMER_ID>
01BA5F8F00000001

> <PUBCHEM_MMFF94_ENERGY>
87.3514

> <PUBCHEM_FEATURE_SELFOVERLAP>
66.167

> <PUBCHEM_SHAPE_FINGERPRINT>
10190206 1 18201988959347962733
10290309 65 18263926523372289148
10675989 125 18125732188585130392
11136131 41 18189617151031851435
11227688 84 17044857681846394580
11445158 3 17314811778532545829
12608794 3 18052564310619151065
12788726 201 18269824484057679838
12988421 55 18261664913868565652
13140716 1 18263928748190851490
13540713 5 18269538469321909343
13560911 23 18196076958740996088
13911987 19 18118100675539168343
14659021 117 18054780943393187228
14790565 3 18410014308517094864
15064981 194 17899989514961177060
15064986 266 18267313200217439676
15219463 3 17826201233174651100
15347590 135 18268731488407327281
15400415 2 18408888434686719176
15444296 121 18264777735009878564
15448158 71 18196362624413485361
15684973 49 18199449082918525482
15927050 60 18339930303502297159
16090146 7 18041555970147427838
16114785 44 18340497767107118209
17980427 26 18265329517056456263
18393751 57 18334586736762502793
19319366 153 18339645525183818737
20505436 4 18202284654802660261
21639891 77 17686054302822860238
23522609 53 17532950505419035324
23559900 14 17613441039449489425
244849 19 17464856426584630329
249999 5 18121786019260676768
283562 15 18338792420594156671
3411729 13 18196659484221149225
4073 2 18264773337305888136
4144715 1 18194971958176533792
4408954 64 15869748999470399562
4409770 3 17972594669373021778
4516262 110 18336824183164646165
5171179 24 17487325195295308185
5219985 13 18411706469707869556
5265222 85 18412546543778472752
563151 40 18343024397409208953
563151 97 18410003330385436341
6058803 2 18126545844401319655
6673363 416 17111588125892278620
6695519 79 18052012214248053441
6697151 62 17106765151830949725
9896288 288 18340777021981752323
9981440 41 18334869306807460329

> <PUBCHEM_SHAPE_MULTIPOLES>
701.93
14.9
8.54
1.7
26.9
11.08
1.02
-27.98
-1.83
-2.39
-4.22
-2.07
2.1
-3.67

> <PUBCHEM_SHAPE_SELFOVERLAP>
1550.538

> <PUBCHEM_SHAPE_VOLUME>
376.8

> <PUBCHEM_COORDINATE_TYPE>
2
5
10

$$$$
