45361383
  -OEChem-12032416353D

 80 83  0     1  0  0  0  0  0999 V2000
    1.2982    1.6072   -0.9037 O   0  0  0  0  0  0  0  0  0  0  0  0
    5.6662   -1.2933   -0.7472 O   0  0  0  0  0  0  0  0  0  0  0  0
   -4.6454    0.3172    2.2815 O   0  0  0  0  0  0  0  0  0  0  0  0
    8.3730   -0.6531   -0.4929 O   0  0  0  0  0  0  0  0  0  0  0  0
   -9.7903    0.6707   -1.3865 O   0  0  0  0  0  0  0  0  0  0  0  0
   -3.6940   -0.1676    0.2235 N   0  0  0  0  0  0  0  0  0  0  0  0
    5.7301    0.8260    0.1796 N   0  0  0  0  0  0  0  0  0  0  0  0
    0.2835   -1.7909    0.5101 C   0  0  1  0  0  0  0  0  0  0  0  0
    0.1605   -0.2719    0.1546 C   0  0  2  0  0  0  0  0  0  0  0  0
   -1.2870    0.0682   -0.3522 C   0  0  1  0  0  0  0  0  0  0  0  0
    1.3195    0.1846   -0.7777 C   0  0  2  0  0  0  0  0  0  0  0  0
    1.6817   -2.0687    1.1109 C   0  0  0  0  0  0  0  0  0  0  0  0
    2.7130   -0.1890   -0.2206 C   0  0  1  0  0  0  0  0  0  0  0  0
   -0.7695   -2.1438    1.5860 C   0  0  0  0  0  0  0  0  0  0  0  0
   -2.3425   -0.3597    0.7060 C   0  0  2  0  0  0  0  0  0  0  0  0
    2.8188   -1.6592    0.1842 C   0  0  0  0  0  0  0  0  0  0  0  0
   -2.1926   -1.8111    1.1611 C   0  0  0  0  0  0  0  0  0  0  0  0
    0.0803   -2.7079   -0.7226 C   0  0  0  0  0  0  0  0  0  0  0  0
    3.8322    0.1512   -1.2124 C   0  0  1  0  0  0  0  0  0  0  0  0
   -1.4868    1.5547   -0.6932 C   0  0  0  0  0  0  0  0  0  0  0  0
    5.1579   -0.1840   -0.5766 C   0  0  0  0  0  0  0  0  0  0  0  0
    3.6668   -0.6185   -2.5100 C   0  0  0  0  0  0  0  0  0  0  0  0
   -4.7418    0.1588    1.0673 C   0  0  0  0  0  0  0  0  0  0  0  0
    6.9655    0.6369    0.9431 C   0  0  2  0  0  0  0  0  0  0  0  0
    5.1646    2.1533    0.4085 C   0  0  0  0  0  0  0  0  0  0  0  0
    6.9668    1.8080    1.9290 C   0  0  0  0  0  0  0  0  0  0  0  0
    6.2433    2.9118    1.1666 C   0  0  0  0  0  0  0  0  0  0  0  0
    8.1917    0.6486    0.0324 C   0  0  0  0  0  0  0  0  0  0  0  0
   -6.0725    0.2953    0.4210 C   0  0  0  0  0  0  0  0  0  0  0  0
   -7.2332    0.0588    1.1576 C   0  0  0  0  0  0  0  0  0  0  0  0
   -6.1613    0.6581   -0.9230 C   0  0  0  0  0  0  0  0  0  0  0  0
   -8.4825    0.1846    0.5504 C   0  0  0  0  0  0  0  0  0  0  0  0
   -7.4106    0.7839   -1.5303 C   0  0  0  0  0  0  0  0  0  0  0  0
    9.5030   -0.7213   -1.3557 C   0  0  0  0  0  0  0  0  0  0  0  0
   -8.5711    0.5472   -0.7936 C   0  0  0  0  0  0  0  0  0  0  0  0
  -10.9355    0.4147   -0.5749 C   0  0  0  0  0  0  0  0  0  0  0  0
    0.2830    0.2964    1.0908 H   0  0  0  0  0  0  0  0  0  0  0  0
   -1.4770   -0.4859   -1.2802 H   0  0  0  0  0  0  0  0  0  0  0  0
    1.1418   -0.2320   -1.7712 H   0  0  0  0  0  0  0  0  0  0  0  0
    1.7849   -3.1334    1.3572 H   0  0  0  0  0  0  0  0  0  0  0  0
    1.7907   -1.5242    2.0588 H   0  0  0  0  0  0  0  0  0  0  0  0
    2.8678    0.4021    0.6914 H   0  0  0  0  0  0  0  0  0  0  0  0
   -0.7117   -3.2101    1.8391 H   0  0  0  0  0  0  0  0  0  0  0  0
   -0.5480   -1.5965    2.5122 H   0  0  0  0  0  0  0  0  0  0  0  0
   -2.2111    0.2804    1.5895 H   0  0  0  0  0  0  0  0  0  0  0  0
    3.7470   -1.8465    0.7355 H   0  0  0  0  0  0  0  0  0  0  0  0
    2.8250   -2.3379   -0.6710 H   0  0  0  0  0  0  0  0  0  0  0  0
   -2.5171   -2.4925    0.3652 H   0  0  0  0  0  0  0  0  0  0  0  0
   -2.8677   -2.0078    2.0041 H   0  0  0  0  0  0  0  0  0  0  0  0
   -0.9197   -2.6221   -1.1553 H   0  0  0  0  0  0  0  0  0  0  0  0
    0.2189   -3.7599   -0.4469 H   0  0  0  0  0  0  0  0  0  0  0  0
    0.7860   -2.4881   -1.5286 H   0  0  0  0  0  0  0  0  0  0  0  0
    3.7921    1.2093   -1.4805 H   0  0  0  0  0  0  0  0  0  0  0  0
   -1.1585    2.1988    0.1290 H   0  0  0  0  0  0  0  0  0  0  0  0
   -2.5360    1.7896   -0.8994 H   0  0  0  0  0  0  0  0  0  0  0  0
   -0.9436    1.8276   -1.6022 H   0  0  0  0  0  0  0  0  0  0  0  0
   -3.8695   -0.3950   -0.7496 H   0  0  0  0  0  0  0  0  0  0  0  0
    1.4138    1.9909   -0.0177 H   0  0  0  0  0  0  0  0  0  0  0  0
    3.6781   -1.7057   -2.4021 H   0  0  0  0  0  0  0  0  0  0  0  0
    4.5055   -0.3830   -3.1786 H   0  0  0  0  0  0  0  0  0  0  0  0
    2.7645   -0.3341   -3.0573 H   0  0  0  0  0  0  0  0  0  0  0  0
    6.9055   -0.3203    1.4753 H   0  0  0  0  0  0  0  0  0  0  0  0
    4.9192    2.6521   -0.5322 H   0  0  0  0  0  0  0  0  0  0  0  0
    4.2618    2.0521    1.0168 H   0  0  0  0  0  0  0  0  0  0  0  0
    7.9639    2.1063    2.2649 H   0  0  0  0  0  0  0  0  0  0  0  0
    6.3795    1.5411    2.8168 H   0  0  0  0  0  0  0  0  0  0  0  0
    6.9334    3.3919    0.4626 H   0  0  0  0  0  0  0  0  0  0  0  0
    5.8322    3.6848    1.8216 H   0  0  0  0  0  0  0  0  0  0  0  0
    8.0778    1.3717   -0.7842 H   0  0  0  0  0  0  0  0  0  0  0  0
    9.0854    0.9095    0.6114 H   0  0  0  0  0  0  0  0  0  0  0  0
   -7.1835   -0.2294    2.2045 H   0  0  0  0  0  0  0  0  0  0  0  0
   -5.2844    0.8811   -1.5237 H   0  0  0  0  0  0  0  0  0  0  0  0
   -9.3428   -0.0146    1.1801 H   0  0  0  0  0  0  0  0  0  0  0  0
   -7.4743    1.0733   -2.5758 H   0  0  0  0  0  0  0  0  0  0  0  0
    9.3731   -0.0495   -2.2097 H   0  0  0  0  0  0  0  0  0  0  0  0
   10.4174   -0.4678   -0.8107 H   0  0  0  0  0  0  0  0  0  0  0  0
    9.5898   -1.7458   -1.7271 H   0  0  0  0  0  0  0  0  0  0  0  0
  -10.9583   -0.6237   -0.2271 H   0  0  0  0  0  0  0  0  0  0  0  0
  -11.0122    1.1308    0.2504 H   0  0  0  0  0  0  0  0  0  0  0  0
  -11.8182    0.5594   -1.2065 H   0  0  0  0  0  0  0  0  0  0  0  0
  1 11  1  0  0  0  0
  1 58  1  0  0  0  0
  2 21  2  0  0  0  0
  3 23  2  0  0  0  0
  4 28  1  0  0  0  0
  4 34  1  0  0  0  0
  5 35  1  0  0  0  0
  5 36  1  0  0  0  0
  6 15  1  0  0  0  0
  6 23  1  0  0  0  0
  6 57  1  0  0  0  0
  7 21  1  0  0  0  0
  7 24  1  0  0  0  0
  7 25  1  0  0  0  0
  8  9  1  0  0  0  0
  8 12  1  0  0  0  0
  8 14  1  0  0  0  0
  8 18  1  0  0  0  0
  9 10  1  0  0  0  0
  9 11  1  0  0  0  0
  9 37  1  0  0  0  0
 10 15  1  0  0  0  0
 10 20  1  0  0  0  0
 10 38  1  0  0  0  0
 11 13  1  0  0  0  0
 11 39  1  0  0  0  0
 12 16  1  0  0  0  0
 12 40  1  0  0  0  0
 12 41  1  0  0  0  0
 13 16  1  0  0  0  0
 13 19  1  0  0  0  0
 13 42  1  0  0  0  0
 14 17  1  0  0  0  0
 14 43  1  0  0  0  0
 14 44  1  0  0  0  0
 15 17  1  0  0  0  0
 15 45  1  0  0  0  0
 16 46  1  0  0  0  0
 16 47  1  0  0  0  0
 17 48  1  0  0  0  0
 17 49  1  0  0  0  0
 18 50  1  0  0  0  0
 18 51  1  0  0  0  0
 18 52  1  0  0  0  0
 19 21  1  0  0  0  0
 19 22  1  0  0  0  0
 19 53  1  0  0  0  0
 20 54  1  0  0  0  0
 20 55  1  0  0  0  0
 20 56  1  0  0  0  0
 22 59  1  0  0  0  0
 22 60  1  0  0  0  0
 22 61  1  0  0  0  0
 23 29  1  0  0  0  0
 24 26  1  0  0  0  0
 24 28  1  0  0  0  0
 24 62  1  0  0  0  0
 25 27  1  0  0  0  0
 25 63  1  0  0  0  0
 25 64  1  0  0  0  0
 26 27  1  0  0  0  0
 26 65  1  0  0  0  0
 26 66  1  0  0  0  0
 27 67  1  0  0  0  0
 27 68  1  0  0  0  0
 28 69  1  0  0  0  0
 28 70  1  0  0  0  0
 29 30  2  0  0  0  0
 29 31  1  0  0  0  0
 30 32  1  0  0  0  0
 30 71  1  0  0  0  0
 31 33  2  0  0  0  0
 31 72  1  0  0  0  0
 32 35  2  0  0  0  0
 32 73  1  0  0  0  0
 33 35  1  0  0  0  0
 33 74  1  0  0  0  0
 34 75  1  0  0  0  0
 34 76  1  0  0  0  0
 34 77  1  0  0  0  0
 36 78  1  0  0  0  0
 36 79  1  0  0  0  0
 36 80  1  0  0  0  0
M  END
> <PUBCHEM_COMPOUND_CID>
45361383

> <PUBCHEM_CONFORMER_RMSD>
1.2

> <PUBCHEM_CONFORMER_DIVERSEORDER>
1
18
25
7
9
20
15
8
26
17
14
12
23
19
2
24
13
3
28
21
6
5
27
16
10
22
4
11

> <PUBCHEM_MMFF94_PARTIAL_CHARGES>
29
1 -0.68
11 0.28
15 0.3
19 0.06
2 -0.57
21 0.57
23 0.54
24 0.3
25 0.3
28 0.28
29 0.09
3 -0.57
30 -0.15
31 -0.15
32 -0.15
33 -0.15
34 0.28
35 0.08
36 0.28
4 -0.56
5 -0.36
57 0.37
58 0.4
6 -0.73
7 -0.66
71 0.15
72 0.15
73 0.15
74 0.15

> <PUBCHEM_EFFECTIVE_ROTOR_COUNT>
11.6

> <PUBCHEM_PHARMACOPHORE_FEATURES>
12
1 1 acceptor
1 1 donor
1 2 acceptor
1 22 hydrophobe
1 3 acceptor
1 4 acceptor
1 5 acceptor
1 6 donor
5 7 24 25 26 27 rings
6 29 30 31 32 33 35 rings
6 8 9 10 14 15 17 rings
6 8 9 11 12 13 16 rings

> <PUBCHEM_HEAVY_ATOM_COUNT>
36

> <PUBCHEM_ATOM_DEF_STEREO_COUNT>
7

> <PUBCHEM_ATOM_UDEF_STEREO_COUNT>
1

> <PUBCHEM_BOND_DEF_STEREO_COUNT>
0

> <PUBCHEM_BOND_UDEF_STEREO_COUNT>
0

> <PUBCHEM_ISOTOPIC_ATOM_COUNT>
0

> <PUBCHEM_COMPONENT_COUNT>
1

> <PUBCHEM_CACTVS_TAUTO_COUNT>
2

> <PUBCHEM_CONFORMER_ID>
02B428E700000001

> <PUBCHEM_MMFF94_ENERGY>
120.4403

> <PUBCHEM_FEATURE_SELFOVERLAP>
60.916

> <PUBCHEM_SHAPE_FINGERPRINT>
10 15 17530966912520039068
10162869 55 17203609281412209646
10533779 1 17558537261694113128
11135609 127 17060050498097603424
11136131 41 17386839514042540059
11409948 35 18115306667203355490
11719270 70 17603305938115734211
12522641 33 18131354089663054863
12664476 115 18411980261621083808
12838862 33 18187355541512497697
13008946 113 17461168922336874732
13150687 139 18202290195268806894
13673619 4 12247677163287208227
13811026 1 18040714723545783411
13947947 74 18113617856028938677
14040221 8 15626228992826424281
14117953 113 18113341907661970564
14251764 46 17095243614343840375
14344974 52 18341607153993562759
15131766 46 15287922599947298566
15289351 153 18337384946958023904
15840311 113 17989486351342668196
16120349 18 17989203759231050288
1754911 235 18273493468945382669
18335252 98 12463575062676516252
20554085 129 18334285483265462362
20721686 124 18059861645562114342
21150785 3 16559032692582677569
21362857 166 13110699246108539452
21403212 168 18187078468534387475
21792934 111 17822002082224461746
22224240 67 18408885148603617083
22899556 105 10086550813744284968
24771293 8 18336551534508946873
24893992 56 18187363268417113441
25269216 80 11455903485327158994
3092352 35 16702302347442255879
335352 9 18114187440646269806
4093350 32 17775289348167318884
4625314 4 17704070720092734364
58902169 19 17203603822166612724
6057620 51 16774081761297419475
6081469 158 18334859394977657748
6201320 215 13190600717908319567

> <PUBCHEM_SHAPE_MULTIPOLES>
701.55
32.06
2.13
1.69
34.68
0.22
-0.04
-12.97
-5.61
-3.27
0.65
-0.27
-0.01
2.9

> <PUBCHEM_SHAPE_SELFOVERLAP>
1469.385

> <PUBCHEM_SHAPE_VOLUME>
395.2

> <PUBCHEM_COORDINATE_TYPE>
2
5
10

$$$$
