40781555
  -OEChem-12032416253D

 56 58  0     1  0  0  0  0  0999 V2000
   -0.9767   -4.4744   -0.7056 Cl  0  0  0  0  0  0  0  0  0  0  0  0
    4.1693   -1.1201    0.5922 S   0  0  0  0  0  0  0  0  0  0  0  0
    1.0798    1.5932   -0.7951 O   0  0  0  0  0  0  0  0  0  0  0  0
   -0.1100    4.5758    0.8136 O   0  0  0  0  0  0  0  0  0  0  0  0
    1.8218    4.5234   -1.1444 O   0  0  0  0  0  0  0  0  0  0  0  0
   -1.6905    1.1292   -1.8733 O   0  0  0  0  0  0  0  0  0  0  0  0
    4.1888   -0.8655    2.0200 O   0  0  0  0  0  0  0  0  0  0  0  0
    5.2853   -1.7933   -0.0440 O   0  0  0  0  0  0  0  0  0  0  0  0
   -2.8938    0.0218   -0.2232 N   0  0  0  0  0  0  0  0  0  0  0  0
    3.8209    0.3568   -0.2244 N   0  0  0  0  0  0  0  0  0  0  0  0
    0.0105    2.4166   -0.2972 C   0  0  2  0  0  0  0  0  0  0  0  0
    0.6624    3.4051    0.6546 C   0  0  1  0  0  0  0  0  0  0  0  0
    1.9922    3.6514   -0.0275 C   0  0  1  0  0  0  0  0  0  0  0  0
    2.3384    2.2647   -0.5583 C   0  0  1  0  0  0  0  0  0  0  0  0
   -1.0401    1.5444    0.3666 C   0  0  0  0  0  0  0  0  0  0  0  0
   -5.5681   -0.7802    0.5637 C   0  0  0  0  0  0  0  0  0  0  0  0
   -4.6320   -0.0311    1.5241 C   0  0  0  0  0  0  0  0  0  0  0  0
   -5.2202   -0.4362   -0.8925 C   0  0  0  0  0  0  0  0  0  0  0  0
   -3.1649   -0.2899    1.1849 C   0  0  0  0  0  0  0  0  0  0  0  0
   -3.7423   -0.6883   -1.1817 C   0  0  0  0  0  0  0  0  0  0  0  0
    3.1332    1.4276    0.4346 C   0  0  0  0  0  0  0  0  0  0  0  0
   -1.8984    0.8835   -0.6823 C   0  0  0  0  0  0  0  0  0  0  0  0
   -7.0291   -0.4548    0.8648 C   0  0  0  0  0  0  0  0  0  0  0  0
    2.7205   -2.0649    0.2270 C   0  0  0  0  0  0  0  0  0  0  0  0
    2.6791   -2.8645   -0.9153 C   0  0  0  0  0  0  0  0  0  0  0  0
    1.6187   -2.0105    1.0806 C   0  0  0  0  0  0  0  0  0  0  0  0
    1.5357   -3.6096   -1.2039 C   0  0  0  0  0  0  0  0  0  0  0  0
    0.4755   -2.7554    0.7921 C   0  0  0  0  0  0  0  0  0  0  0  0
    0.4339   -3.5550   -0.3501 C   0  0  0  0  0  0  0  0  0  0  0  0
   -0.4149    2.9693   -1.1454 H   0  0  0  0  0  0  0  0  0  0  0  0
    0.8224    2.9465    1.6381 H   0  0  0  0  0  0  0  0  0  0  0  0
    2.7425    4.0968    0.6316 H   0  0  0  0  0  0  0  0  0  0  0  0
    2.8608    2.3264   -1.5203 H   0  0  0  0  0  0  0  0  0  0  0  0
   -1.6916    2.1602    0.9963 H   0  0  0  0  0  0  0  0  0  0  0  0
   -0.5585    0.7681    0.9713 H   0  0  0  0  0  0  0  0  0  0  0  0
   -5.4236   -1.8591    0.7094 H   0  0  0  0  0  0  0  0  0  0  0  0
   -4.8278   -0.3394    2.5577 H   0  0  0  0  0  0  0  0  0  0  0  0
   -4.8295    1.0471    1.4653 H   0  0  0  0  0  0  0  0  0  0  0  0
   -5.4502    0.6195   -1.0868 H   0  0  0  0  0  0  0  0  0  0  0  0
   -5.8340   -1.0319   -1.5781 H   0  0  0  0  0  0  0  0  0  0  0  0
   -2.5329    0.2851    1.8636 H   0  0  0  0  0  0  0  0  0  0  0  0
   -2.9199   -1.3482    1.3343 H   0  0  0  0  0  0  0  0  0  0  0  0
   -3.5107   -1.7566   -1.0950 H   0  0  0  0  0  0  0  0  0  0  0  0
   -3.5101   -0.3860   -2.2076 H   0  0  0  0  0  0  0  0  0  0  0  0
    2.4680    1.0354    1.2110 H   0  0  0  0  0  0  0  0  0  0  0  0
    3.8936    2.0505    0.9191 H   0  0  0  0  0  0  0  0  0  0  0  0
   -7.2348    0.6132    0.7360 H   0  0  0  0  0  0  0  0  0  0  0  0
   -7.2825   -0.7265    1.8950 H   0  0  0  0  0  0  0  0  0  0  0  0
   -7.6957   -1.0110    0.1974 H   0  0  0  0  0  0  0  0  0  0  0  0
    0.4172    5.2037    1.3364 H   0  0  0  0  0  0  0  0  0  0  0  0
    2.6911    4.6262   -1.5681 H   0  0  0  0  0  0  0  0  0  0  0  0
    4.4231    0.6098   -1.0176 H   0  0  0  0  0  0  0  0  0  0  0  0
    3.5229   -2.9159   -1.5974 H   0  0  0  0  0  0  0  0  0  0  0  0
    1.6269   -1.3893    1.9717 H   0  0  0  0  0  0  0  0  0  0  0  0
    1.5166   -4.2269   -2.0984 H   0  0  0  0  0  0  0  0  0  0  0  0
   -0.3768   -2.7007    1.4647 H   0  0  0  0  0  0  0  0  0  0  0  0
  1 29  1  0  0  0  0
  2  7  2  0  0  0  0
  2  8  2  0  0  0  0
  2 10  1  0  0  0  0
  2 24  1  0  0  0  0
  3 11  1  0  0  0  0
  3 14  1  0  0  0  0
  4 12  1  0  0  0  0
  4 50  1  0  0  0  0
  5 13  1  0  0  0  0
  5 51  1  0  0  0  0
  6 22  2  0  0  0  0
  9 19  1  0  0  0  0
  9 20  1  0  0  0  0
  9 22  1  0  0  0  0
 10 21  1  0  0  0  0
 10 52  1  0  0  0  0
 11 12  1  0  0  0  0
 11 15  1  0  0  0  0
 11 30  1  0  0  0  0
 12 13  1  0  0  0  0
 12 31  1  0  0  0  0
 13 14  1  0  0  0  0
 13 32  1  0  0  0  0
 14 21  1  0  0  0  0
 14 33  1  0  0  0  0
 15 22  1  0  0  0  0
 15 34  1  0  0  0  0
 15 35  1  0  0  0  0
 16 17  1  0  0  0  0
 16 18  1  0  0  0  0
 16 23  1  0  0  0  0
 16 36  1  0  0  0  0
 17 19  1  0  0  0  0
 17 37  1  0  0  0  0
 17 38  1  0  0  0  0
 18 20  1  0  0  0  0
 18 39  1  0  0  0  0
 18 40  1  0  0  0  0
 19 41  1  0  0  0  0
 19 42  1  0  0  0  0
 20 43  1  0  0  0  0
 20 44  1  0  0  0  0
 21 45  1  0  0  0  0
 21 46  1  0  0  0  0
 23 47  1  0  0  0  0
 23 48  1  0  0  0  0
 23 49  1  0  0  0  0
 24 25  2  0  0  0  0
 24 26  1  0  0  0  0
 25 27  1  0  0  0  0
 25 53  1  0  0  0  0
 26 28  2  0  0  0  0
 26 54  1  0  0  0  0
 27 29  2  0  0  0  0
 27 55  1  0  0  0  0
 28 29  1  0  0  0  0
 28 56  1  0  0  0  0
M  END
> <PUBCHEM_COMPOUND_CID>
40781555

> <PUBCHEM_CONFORMER_RMSD>
1.4

> <PUBCHEM_CONFORMER_DIVERSEORDER>
2
32
42
17
47
3
15
77
63
37
69
67
8
30
58
50
25
61
12
52
33
40
41
75
65
1
24
9
54
68
72
18
71
38
22
46
70
57
59
55
4
35
51
56
48
39
60
76
73
66
10
36
49
13
34
21
43
7
28
64
14
6
11
16
31
53
20
44
19
45
62
26
5
23
27
74
29

> <PUBCHEM_MMFF94_PARTIAL_CHARGES>
32
1 -0.18
10 -0.91
11 0.28
12 0.28
13 0.28
14 0.28
15 0.06
19 0.3
2 1.45
20 0.3
21 0.36
22 0.57
24 -0.01
25 -0.15
26 -0.15
27 -0.15
28 -0.15
29 0.18
3 -0.56
4 -0.68
5 -0.68
50 0.4
51 0.4
52 0.42
53 0.15
54 0.15
55 0.15
56 0.15
6 -0.57
7 -0.65
8 -0.65
9 -0.66

> <PUBCHEM_EFFECTIVE_ROTOR_COUNT>
9.2

> <PUBCHEM_PHARMACOPHORE_FEATURES>
12
1 10 donor
1 3 acceptor
1 4 acceptor
1 4 donor
1 5 acceptor
1 5 donor
1 6 acceptor
1 7 acceptor
1 8 acceptor
5 3 11 12 13 14 rings
6 24 25 26 27 28 29 rings
6 9 16 17 18 19 20 rings

> <PUBCHEM_HEAVY_ATOM_COUNT>
29

> <PUBCHEM_ATOM_DEF_STEREO_COUNT>
4

> <PUBCHEM_ATOM_UDEF_STEREO_COUNT>
0

> <PUBCHEM_BOND_DEF_STEREO_COUNT>
0

> <PUBCHEM_BOND_UDEF_STEREO_COUNT>
0

> <PUBCHEM_ISOTOPIC_ATOM_COUNT>
0

> <PUBCHEM_COMPONENT_COUNT>
1

> <PUBCHEM_CACTVS_TAUTO_COUNT>
1

> <PUBCHEM_CONFORMER_ID>
026E46F300000002

> <PUBCHEM_MMFF94_ENERGY>
52.6339

> <PUBCHEM_FEATURE_SELFOVERLAP>
60.929

> <PUBCHEM_SHAPE_FINGERPRINT>
10816530 23 17617097344787165433
1100329 8 18339357590766244342
12166972 35 17386291978457717742
12553582 1 18412260610403298332
13402501 40 18259987071640125027
13533116 47 18338519759170152649
1361 2 18412265051658549467
14117953 113 18341047419953074031
14251757 5 16180746468360706422
14725015 67 18187635865105742242
14955137 171 18411144623096955906
15328829 1 17560505271605790287
15927050 60 17979640361758781292
17138139 8 17267480122376473991
17492 54 18115606914906181598
1979834 28 18343579633617308146
19930381 70 18339361851421307127
20775438 99 17255927128000171437
21197605 99 17975424821573327851
21304303 94 18194989506848111428
21421861 104 18341909475866354537
21796203 349 18263950824433562520
22113638 7 18411129268952551374
3737641 26 17984988098532791518
394071 54 18270972245986551227
463206 1 18339076089982754783
5309563 4 18337954484853005105
563151 40 17468779823380673900
6287921 2 18058735693181616239
6443956 14 18337110077240295317

> <PUBCHEM_SHAPE_MULTIPOLES>
557.35
10.72
6.16
1.38
15.26
1.85
-0.08
-3.5
-2.86
-5.52
1.31
0.38
-0.16
-0.38

> <PUBCHEM_SHAPE_SELFOVERLAP>
1137.668

> <PUBCHEM_SHAPE_VOLUME>
323.6

> <PUBCHEM_COORDINATE_TYPE>
2
5
10

$$$$
