51136880
  -OEChem-12032416223D

 60 64  0     1  0  0  0  0  0999 V2000
   -3.9946   -1.0559    1.9718 O   0  0  0  0  0  0  0  0  0  0  0  0
   -4.3853    2.0558   -0.8072 O   0  0  0  0  0  0  0  0  0  0  0  0
   -1.4240    2.4670   -1.1060 O   0  0  0  0  0  0  0  0  0  0  0  0
    3.7388   -0.6273   -1.8670 O   0  0  0  0  0  0  0  0  0  0  0  0
    9.7145    0.4490   -0.1790 O   0  0  0  0  0  0  0  0  0  0  0  0
   -5.7948   -0.5125   -0.9969 N   0  0  1  0  0  0  0  0  0  0  0  0
   -2.8996   -1.1848    0.0221 N   0  0  0  0  0  0  0  0  0  0  0  0
   -2.6420   -0.8486    2.2703 N   0  0  0  0  0  0  0  0  0  0  0  0
    1.5328   -0.3916    1.8519 N   0  0  0  0  0  0  0  0  0  0  0  0
    3.4348   -0.3491    0.4469 N   0  0  0  0  0  0  0  0  0  0  0  0
   -5.4344   -1.4937    0.0459 C   0  0  1  0  0  0  0  0  0  0  0  0
   -5.5481   -2.8630   -0.6494 C   0  0  0  0  0  0  0  0  0  0  0  0
   -6.0361   -2.5546   -2.0578 C   0  0  0  0  0  0  0  0  0  0  0  0
   -6.7013   -1.2004   -1.9163 C   0  0  0  0  0  0  0  0  0  0  0  0
   -6.3818    0.7081   -0.4589 C   0  0  0  0  0  0  0  0  0  0  0  0
   -4.0585   -1.2460    0.6278 C   0  0  0  0  0  0  0  0  0  0  0  0
   -5.3328    1.6460    0.0765 C   0  0  0  0  0  0  0  0  0  0  0  0
   -5.1121    2.2032    1.3147 C   0  0  0  0  0  0  0  0  0  0  0  0
   -2.0611   -0.9393    1.0702 C   0  0  0  0  0  0  0  0  0  0  0  0
   -3.5505    2.8837   -0.1257 C   0  0  0  0  0  0  0  0  0  0  0  0
   -3.9546    3.0070    1.1833 C   0  0  0  0  0  0  0  0  0  0  0  0
   -0.6465   -0.7912    0.8845 C   0  0  0  0  0  0  0  0  0  0  0  0
   -2.4341    3.4558   -0.8916 C   0  0  0  0  0  0  0  0  0  0  0  0
   -0.0750   -0.8932   -0.3790 C   0  0  0  0  0  0  0  0  0  0  0  0
    0.1933   -0.5417    1.9578 C   0  0  0  0  0  0  0  0  0  0  0  0
    1.2995   -0.7447   -0.5283 C   0  0  0  0  0  0  0  0  0  0  0  0
    2.0524   -0.4973    0.6083 C   0  0  0  0  0  0  0  0  0  0  0  0
    4.1728   -0.4200   -0.7389 C   0  0  0  0  0  0  0  0  0  0  0  0
    5.6339   -0.1899   -0.5908 C   0  0  0  0  0  0  0  0  0  0  0  0
    6.3723    0.3153   -1.6609 C   0  0  0  0  0  0  0  0  0  0  0  0
    6.2667   -0.4802    0.6179 C   0  0  0  0  0  0  0  0  0  0  0  0
    7.7436    0.5300   -1.5226 C   0  0  0  0  0  0  0  0  0  0  0  0
    7.6380   -0.2656    0.7563 C   0  0  0  0  0  0  0  0  0  0  0  0
    8.3764    0.2394   -0.3138 C   0  0  0  0  0  0  0  0  0  0  0  0
   10.2972    0.1305    1.0839 C   0  0  0  0  0  0  0  0  0  0  0  0
   -6.1696   -1.4809    0.8630 H   0  0  0  0  0  0  0  0  0  0  0  0
   -4.6102   -3.4280   -0.6773 H   0  0  0  0  0  0  0  0  0  0  0  0
   -6.2939   -3.4781   -0.1309 H   0  0  0  0  0  0  0  0  0  0  0  0
   -5.1813   -2.4914   -2.7427 H   0  0  0  0  0  0  0  0  0  0  0  0
   -6.7194   -3.3206   -2.4360 H   0  0  0  0  0  0  0  0  0  0  0  0
   -6.7788   -0.6880   -2.8802 H   0  0  0  0  0  0  0  0  0  0  0  0
   -7.7061   -1.3128   -1.4893 H   0  0  0  0  0  0  0  0  0  0  0  0
   -7.1399    0.5015    0.3068 H   0  0  0  0  0  0  0  0  0  0  0  0
   -6.8949    1.2555   -1.2614 H   0  0  0  0  0  0  0  0  0  0  0  0
   -5.7085    2.0490    2.2025 H   0  0  0  0  0  0  0  0  0  0  0  0
   -3.4762    3.6002    1.9494 H   0  0  0  0  0  0  0  0  0  0  0  0
   -1.9813    4.2950   -0.3540 H   0  0  0  0  0  0  0  0  0  0  0  0
   -2.7776    3.8143   -1.8671 H   0  0  0  0  0  0  0  0  0  0  0  0
   -0.6774   -1.0865   -1.2631 H   0  0  0  0  0  0  0  0  0  0  0  0
   -0.1730   -0.4476    2.9758 H   0  0  0  0  0  0  0  0  0  0  0  0
    1.6665   -0.8364   -1.5370 H   0  0  0  0  0  0  0  0  0  0  0  0
   -0.7123    2.8941   -1.6126 H   0  0  0  0  0  0  0  0  0  0  0  0
    3.9107   -0.1268    1.3158 H   0  0  0  0  0  0  0  0  0  0  0  0
    5.8980    0.5529   -2.6094 H   0  0  0  0  0  0  0  0  0  0  0  0
    5.7400   -0.9101    1.4645 H   0  0  0  0  0  0  0  0  0  0  0  0
    8.3136    0.9247   -2.3592 H   0  0  0  0  0  0  0  0  0  0  0  0
    8.0677   -0.5203    1.7192 H   0  0  0  0  0  0  0  0  0  0  0  0
    9.8877    0.7550    1.8852 H   0  0  0  0  0  0  0  0  0  0  0  0
   10.2143   -0.9386    1.3071 H   0  0  0  0  0  0  0  0  0  0  0  0
   11.3655    0.3603    1.0141 H   0  0  0  0  0  0  0  0  0  0  0  0
  1  8  1  0  0  0  0
  1 16  1  0  0  0  0
  2 17  1  0  0  0  0
  2 20  1  0  0  0  0
  3 23  1  0  0  0  0
  3 52  1  0  0  0  0
  4 28  2  0  0  0  0
  5 34  1  0  0  0  0
  5 35  1  0  0  0  0
  6 11  1  0  0  0  0
  6 14  1  0  0  0  0
  6 15  1  0  0  0  0
  7 16  2  0  0  0  0
  7 19  1  0  0  0  0
  8 19  2  0  0  0  0
  9 25  1  0  0  0  0
  9 27  2  0  0  0  0
 10 27  1  0  0  0  0
 10 28  1  0  0  0  0
 10 53  1  0  0  0  0
 11 12  1  0  0  0  0
 11 16  1  0  0  0  0
 11 36  1  0  0  0  0
 12 13  1  0  0  0  0
 12 37  1  0  0  0  0
 12 38  1  0  0  0  0
 13 14  1  0  0  0  0
 13 39  1  0  0  0  0
 13 40  1  0  0  0  0
 14 41  1  0  0  0  0
 14 42  1  0  0  0  0
 15 17  1  0  0  0  0
 15 43  1  0  0  0  0
 15 44  1  0  0  0  0
 17 18  2  0  0  0  0
 18 21  1  0  0  0  0
 18 45  1  0  0  0  0
 19 22  1  0  0  0  0
 20 21  2  0  0  0  0
 20 23  1  0  0  0  0
 21 46  1  0  0  0  0
 22 24  1  0  0  0  0
 22 25  2  0  0  0  0
 23 47  1  0  0  0  0
 23 48  1  0  0  0  0
 24 26  2  0  0  0  0
 24 49  1  0  0  0  0
 25 50  1  0  0  0  0
 26 27  1  0  0  0  0
 26 51  1  0  0  0  0
 28 29  1  0  0  0  0
 29 30  2  0  0  0  0
 29 31  1  0  0  0  0
 30 32  1  0  0  0  0
 30 54  1  0  0  0  0
 31 33  2  0  0  0  0
 31 55  1  0  0  0  0
 32 34  2  0  0  0  0
 32 56  1  0  0  0  0
 33 34  1  0  0  0  0
 33 57  1  0  0  0  0
 35 58  1  0  0  0  0
 35 59  1  0  0  0  0
 35 60  1  0  0  0  0
M  END
> <PUBCHEM_COMPOUND_CID>
51136880

> <PUBCHEM_CONFORMER_RMSD>
1

> <PUBCHEM_CONFORMER_DIVERSEORDER>
1
59
49
68
15
44
42
8
51
53
21
3
60
58
67
84
36
33
79
78
54
2
47
35
6
74
9
10
31
28
81
27
11
37
39
75
70
56
17
25
19
48
66
69
5
65
23
73
87
16
32
29
14
77
34
83
85
30
38
24
41
22
40
12
7
13
46
57
72
71
50
4
61
43
55
18
62
86
80
45
63
26
52
64
20
82
76

> <PUBCHEM_MMFF94_PARTIAL_CHARGES>
44
1 -0.02
10 -0.55
11 0.45
14 0.27
15 0.45
16 0.3
17 -0.04
18 -0.15
19 0.46
2 -0.28
20 -0.04
21 -0.15
22 0.05
23 0.46
24 -0.15
25 0.16
26 -0.15
27 0.43
28 0.54
29 0.09
3 -0.68
30 -0.15
31 -0.15
32 -0.15
33 -0.15
34 0.08
35 0.28
4 -0.57
45 0.15
46 0.15
49 0.15
5 -0.36
50 0.15
51 0.15
52 0.4
53 0.37
54 0.15
55 0.15
56 0.15
57 0.15
6 -0.81
7 -0.57
8 -0.41
9 -0.62

> <PUBCHEM_EFFECTIVE_ROTOR_COUNT>
10

> <PUBCHEM_PHARMACOPHORE_FEATURES>
13
1 10 donor
1 2 acceptor
1 3 acceptor
1 3 donor
1 4 acceptor
1 5 acceptor
1 6 cation
3 7 8 19 cation
5 1 7 8 16 19 rings
5 2 17 18 20 21 rings
5 6 11 12 13 14 rings
6 29 30 31 32 33 34 rings
6 9 22 24 25 26 27 rings

> <PUBCHEM_HEAVY_ATOM_COUNT>
35

> <PUBCHEM_ATOM_DEF_STEREO_COUNT>
1

> <PUBCHEM_ATOM_UDEF_STEREO_COUNT>
0

> <PUBCHEM_BOND_DEF_STEREO_COUNT>
0

> <PUBCHEM_BOND_UDEF_STEREO_COUNT>
0

> <PUBCHEM_ISOTOPIC_ATOM_COUNT>
0

> <PUBCHEM_COMPONENT_COUNT>
1

> <PUBCHEM_CACTVS_TAUTO_COUNT>
14

> <PUBCHEM_CONFORMER_ID>
030C497000000001

> <PUBCHEM_MMFF94_ENERGY>
81.2103

> <PUBCHEM_FEATURE_SELFOVERLAP>
65.974

> <PUBCHEM_SHAPE_FINGERPRINT>
10076449 9 17989488533079838731
10087517 78 18259989245036112053
10454371 7 18412268315443310565
10670039 82 18334290968144478937
11135926 11 16877942715598122946
11315181 36 17821731662583481979
11477941 20 18341323453596617333
12082328 90 18201999911113153470
12104220 1 17749106681991078213
13782708 43 17846216678416991662
13947920 75 18334010584458531491
14118638 360 18411416185415774066
14856354 85 18411136983036056191
15183329 4 18040155115493454920
15419008 47 17917706907380678808
15461852 350 18272934934139227046
15604295 49 18341048632178791456
15876981 60 18334863844394932981
17686467 74 18339639069911042640
21033650 10 18341895165346217195
4169191 19 17385442111803736242
44280117 145 18059856207536573471
44555599 121 17676780842166924804
44880568 143 18060427897970566448
54039377 194 13614231603637774981
6201320 215 18264202526966632192
6691757 9 17676214575876193978
999808 66 14908184161603247551

> <PUBCHEM_SHAPE_MULTIPOLES>
666.03
27.58
2.83
1.87
66.72
2.13
0.19
-1.16
-5.72
-8.6
-0.75
-0.63
-0.34
-1.44

> <PUBCHEM_SHAPE_SELFOVERLAP>
1454.445

> <PUBCHEM_SHAPE_VOLUME>
362.9

> <PUBCHEM_COORDINATE_TYPE>
2
5
10

$$$$
