75536622
  -OEChem-12032416303D

 50 52  0     1  0  0  0  0  0999 V2000
    3.9778    0.7815    0.9273 O   0  0  0  0  0  0  0  0  0  0  0  0
    4.7787   -1.8776   -0.6715 O   0  0  0  0  0  0  0  0  0  0  0  0
    0.5218    0.8750   -2.1830 O   0  0  0  0  0  0  0  0  0  0  0  0
   -4.7803   -1.1037   -0.0058 O   0  0  0  0  0  0  0  0  0  0  0  0
    1.5211   -1.0533    0.7232 N   0  0  0  0  0  0  0  0  0  0  0  0
    1.9804    1.6818   -0.5691 N   0  0  0  0  0  0  0  0  0  0  0  0
    2.9523   -1.3459    0.7615 C   0  0  1  0  0  0  0  0  0  0  0  0
    3.6211   -1.0452   -0.5683 C   0  0  1  0  0  0  0  0  0  0  0  0
    4.0636    0.4137   -0.4620 C   0  0  1  0  0  0  0  0  0  0  0  0
    3.6727   -0.3880    1.6963 C   0  0  0  0  0  0  0  0  0  0  0  0
    3.1963    1.3718   -1.2643 C   0  0  0  0  0  0  0  0  0  0  0  0
    0.7648   -2.1964    0.2261 C   0  0  0  0  0  0  0  0  0  0  0  0
   -0.7116   -1.9078    0.1643 C   0  0  0  0  0  0  0  0  0  0  0  0
    0.7213    1.4040   -1.0926 C   0  0  0  0  0  0  0  0  0  0  0  0
   -1.4719   -1.9071    1.3339 C   0  0  0  0  0  0  0  0  0  0  0  0
   -1.3187   -1.6390   -1.0623 C   0  0  0  0  0  0  0  0  0  0  0  0
   -0.4399    1.8110   -0.2602 C   0  0  0  0  0  0  0  0  0  0  0  0
   -2.8393   -1.6374    1.2766 C   0  0  0  0  0  0  0  0  0  0  0  0
   -2.6859   -1.3693   -1.1196 C   0  0  0  0  0  0  0  0  0  0  0  0
   -3.4462   -1.3685    0.0498 C   0  0  0  0  0  0  0  0  0  0  0  0
   -1.6623    2.1056   -0.8639 C   0  0  0  0  0  0  0  0  0  0  0  0
   -0.3079    1.8967    1.1257 C   0  0  0  0  0  0  0  0  0  0  0  0
   -2.7528    2.4863   -0.0817 C   0  0  0  0  0  0  0  0  0  0  0  0
   -1.3982    2.2773    1.9080 C   0  0  0  0  0  0  0  0  0  0  0  0
   -2.6206    2.5721    1.3042 C   0  0  0  0  0  0  0  0  0  0  0  0
   -5.3360   -0.8373   -1.2927 C   0  0  0  0  0  0  0  0  0  0  0  0
    3.1248   -2.3698    1.1154 H   0  0  0  0  0  0  0  0  0  0  0  0
    3.0038   -1.2571   -1.4466 H   0  0  0  0  0  0  0  0  0  0  0  0
    5.1071    0.5277   -0.7783 H   0  0  0  0  0  0  0  0  0  0  0  0
    3.0978   -0.1053    2.5838 H   0  0  0  0  0  0  0  0  0  0  0  0
    4.6224   -0.8174    2.0365 H   0  0  0  0  0  0  0  0  0  0  0  0
    3.0061    0.9995   -2.2758 H   0  0  0  0  0  0  0  0  0  0  0  0
    3.7221    2.3290   -1.3598 H   0  0  0  0  0  0  0  0  0  0  0  0
    1.1975   -0.8368    1.6662 H   0  0  0  0  0  0  0  0  0  0  0  0
    0.9168   -3.0719    0.8713 H   0  0  0  0  0  0  0  0  0  0  0  0
    1.1158   -2.4866   -0.7717 H   0  0  0  0  0  0  0  0  0  0  0  0
    5.2183   -1.6602   -1.5113 H   0  0  0  0  0  0  0  0  0  0  0  0
    2.0722    2.1953    0.3009 H   0  0  0  0  0  0  0  0  0  0  0  0
   -1.0103   -2.1145    2.2957 H   0  0  0  0  0  0  0  0  0  0  0  0
   -0.7390   -1.6399   -1.9815 H   0  0  0  0  0  0  0  0  0  0  0  0
   -3.4262   -1.6367    2.1910 H   0  0  0  0  0  0  0  0  0  0  0  0
   -3.0927   -1.1681   -2.1047 H   0  0  0  0  0  0  0  0  0  0  0  0
   -1.7846    2.0470   -1.9421 H   0  0  0  0  0  0  0  0  0  0  0  0
    0.6173    1.6543    1.6394 H   0  0  0  0  0  0  0  0  0  0  0  0
   -3.7052    2.7138   -0.5515 H   0  0  0  0  0  0  0  0  0  0  0  0
   -1.2978    2.3379    2.9877 H   0  0  0  0  0  0  0  0  0  0  0  0
   -3.4704    2.8657    1.9135 H   0  0  0  0  0  0  0  0  0  0  0  0
   -6.4050   -0.6486   -1.1504 H   0  0  0  0  0  0  0  0  0  0  0  0
   -5.2498   -1.7049   -1.9557 H   0  0  0  0  0  0  0  0  0  0  0  0
   -4.9078    0.0682   -1.7360 H   0  0  0  0  0  0  0  0  0  0  0  0
  1  9  1  0  0  0  0
  1 10  1  0  0  0  0
  2  8  1  0  0  0  0
  2 37  1  0  0  0  0
  3 14  2  0  0  0  0
  4 20  1  0  0  0  0
  4 26  1  0  0  0  0
  5  7  1  0  0  0  0
  5 12  1  0  0  0  0
  5 34  1  0  0  0  0
  6 11  1  0  0  0  0
  6 14  1  0  0  0  0
  6 38  1  0  0  0  0
  7  8  1  0  0  0  0
  7 10  1  0  0  0  0
  7 27  1  0  0  0  0
  8  9  1  0  0  0  0
  8 28  1  0  0  0  0
  9 11  1  0  0  0  0
  9 29  1  0  0  0  0
 10 30  1  0  0  0  0
 10 31  1  0  0  0  0
 11 32  1  0  0  0  0
 11 33  1  0  0  0  0
 12 13  1  0  0  0  0
 12 35  1  0  0  0  0
 12 36  1  0  0  0  0
 13 15  2  0  0  0  0
 13 16  1  0  0  0  0
 14 17  1  0  0  0  0
 15 18  1  0  0  0  0
 15 39  1  0  0  0  0
 16 19  2  0  0  0  0
 16 40  1  0  0  0  0
 17 21  2  0  0  0  0
 17 22  1  0  0  0  0
 18 20  2  0  0  0  0
 18 41  1  0  0  0  0
 19 20  1  0  0  0  0
 19 42  1  0  0  0  0
 21 23  1  0  0  0  0
 21 43  1  0  0  0  0
 22 24  2  0  0  0  0
 22 44  1  0  0  0  0
 23 25  2  0  0  0  0
 23 45  1  0  0  0  0
 24 25  1  0  0  0  0
 24 46  1  0  0  0  0
 25 47  1  0  0  0  0
 26 48  1  0  0  0  0
 26 49  1  0  0  0  0
 26 50  1  0  0  0  0
M  END
> <PUBCHEM_COMPOUND_CID>
75536622

> <PUBCHEM_CONFORMER_RMSD>
1

> <PUBCHEM_CONFORMER_DIVERSEORDER>
5
11
30
103
44
122
134
18
67
61
127
33
83
74
90
95
102
88
54
124
4
114
7
110
99
115
104
39
60
105
26
63
98
45
15
78
113
116
86
38
50
91
66
130
94
55
97
59
2
41
13
128
111
100
125
51
12
108
42
121
21
84
101
89
25
92
65
132
23
81
10
82
79
19
123
29
27
40
131
1
126
47
17
120
93
96
109
85
8
22
68
35
87
119
76
36
58
52
118
129
69
28
77
31
80
72
20
107
57
43
106
117
14
32
48
16
62
70
46
64
9
133
75
24
71
34
49
3
37
112
73
53
56
6

> <PUBCHEM_MMFF94_PARTIAL_CHARGES>
38
1 -0.56
10 0.28
11 0.3
12 0.41
13 -0.14
14 0.54
15 -0.15
16 -0.15
17 0.09
18 -0.15
19 -0.15
2 -0.68
20 0.08
21 -0.15
22 -0.15
23 -0.15
24 -0.15
25 -0.15
26 0.28
3 -0.57
34 0.36
37 0.4
38 0.37
39 0.15
4 -0.36
40 0.15
41 0.15
42 0.15
43 0.15
44 0.15
45 0.15
46 0.15
47 0.15
5 -0.9
6 -0.73
7 0.27
8 0.28
9 0.28

> <PUBCHEM_EFFECTIVE_ROTOR_COUNT>
9

> <PUBCHEM_PHARMACOPHORE_FEATURES>
11
1 1 acceptor
1 2 acceptor
1 2 donor
1 3 acceptor
1 4 acceptor
1 5 cation
1 5 donor
1 6 donor
5 1 7 8 9 10 rings
6 13 15 16 18 19 20 rings
6 17 21 22 23 24 25 rings

> <PUBCHEM_HEAVY_ATOM_COUNT>
26

> <PUBCHEM_ATOM_DEF_STEREO_COUNT>
3

> <PUBCHEM_ATOM_UDEF_STEREO_COUNT>
0

> <PUBCHEM_BOND_DEF_STEREO_COUNT>
0

> <PUBCHEM_BOND_UDEF_STEREO_COUNT>
0

> <PUBCHEM_ISOTOPIC_ATOM_COUNT>
0

> <PUBCHEM_COMPONENT_COUNT>
1

> <PUBCHEM_CACTVS_TAUTO_COUNT>
2

> <PUBCHEM_CONFORMER_ID>
048098EE00000005

> <PUBCHEM_MMFF94_ENERGY>
71.7031

> <PUBCHEM_FEATURE_SELFOVERLAP>
55.823

> <PUBCHEM_SHAPE_FINGERPRINT>
104564 63 18410864273406327955
10708813 3 18263366897422088276
11513181 2 18271814462470465998
11578080 2 17846206774512103616
12035759 4 18113896065564083417
12422481 6 18195838213939401441
12633257 1 18121780522161259506
12788726 201 18341343282780133957
13140716 1 18265045830772558842
13224815 77 18333449833385882640
14251757 17 17458886211410314143
14464042 87 18413673517700542427
16752209 62 18411987965779121356
17357779 13 18340477937338239659
20261772 1 18190193294987447824
20775438 99 17047637200535596151
21236236 1 18410297978570383326
23419403 2 18051374570381703853
23557571 272 18059855043326298082
23559900 14 18193557998264142500
238 59 16752403016401753766
2818148 4 17972883553801093522
3027735 51 18339925918198139747
35225 105 17987232223076213200
4340502 62 18055926385897898033
469060 322 17603867767087653823
6034566 193 15941511954245974460
6287921 2 17122556342139710841
6438718 38 18272661116725214511
7064713 232 18267864973674310176

> <PUBCHEM_SHAPE_MULTIPOLES>
501.63
8.45
3.29
1.69
1.57
1.04
0.12
-2.97
-1.09
-1.83
0.56
-0.12
0.4
-0.87

> <PUBCHEM_SHAPE_SELFOVERLAP>
1065.245

> <PUBCHEM_SHAPE_VOLUME>
280.8

> <PUBCHEM_COORDINATE_TYPE>
2
5
10

$$$$
