40777502
  -OEChem-12032416173D

 65 69  0     1  0  0  0  0  0999 V2000
    1.9552    2.6493   -1.5514 O   0  0  0  0  0  0  0  0  0  0  0  0
   -5.4263   -0.1022   -1.6121 O   0  0  0  0  0  0  0  0  0  0  0  0
   -1.8136    2.8515    2.1934 N   0  0  0  0  0  0  0  0  0  0  0  0
    3.1723    0.9023   -0.6206 N   0  0  0  0  0  0  0  0  0  0  0  0
    5.6658   -0.4968   -0.1672 N   0  0  0  0  0  0  0  0  0  0  0  0
   -4.1195    0.3187   -1.8268 N   0  0  0  0  0  0  0  0  0  0  0  0
   -0.3577    2.2094   -0.2915 C   0  0  1  0  0  0  0  0  0  0  0  0
   -1.7481    1.6168    0.0400 C   0  0  2  0  0  0  0  0  0  0  0  0
   -0.1831    3.5351    0.4683 C   0  0  0  0  0  0  0  0  0  0  0  0
   -1.9880    1.5452    1.5575 C   0  0  0  0  0  0  0  0  0  0  0  0
    0.8103    1.2583   -0.0045 C   0  0  0  0  0  0  0  0  0  0  0  0
   -0.4771    3.3949    1.9612 C   0  0  0  0  0  0  0  0  0  0  0  0
   -1.9873    0.2518   -0.6067 C   0  0  0  0  0  0  0  0  0  0  0  0
    2.0243    1.6753   -0.7980 C   0  0  0  0  0  0  0  0  0  0  0  0
   -3.4536   -0.0468   -0.7276 C   0  0  0  0  0  0  0  0  0  0  0  0
    4.3877    1.2386   -1.3574 C   0  0  0  0  0  0  0  0  0  0  0  0
    3.2556   -0.2477    0.2826 C   0  0  0  0  0  0  0  0  0  0  0  0
    5.6482    0.9158   -0.5580 C   0  0  0  0  0  0  0  0  0  0  0  0
    4.3875   -1.2077   -0.0841 C   0  0  0  0  0  0  0  0  0  0  0  0
   -4.2801   -0.6958    0.2059 C   0  0  0  0  0  0  0  0  0  0  0  0
    6.8700   -1.1505    0.0823 C   0  0  0  0  0  0  0  0  0  0  0  0
   -5.5093   -0.7049   -0.3985 C   0  0  0  0  0  0  0  0  0  0  0  0
    7.9621   -0.4367    0.5755 C   0  0  0  0  0  0  0  0  0  0  0  0
    6.9838   -2.5192   -0.1612 C   0  0  0  0  0  0  0  0  0  0  0  0
   -6.8074   -1.1948   -0.0356 C   0  0  0  0  0  0  0  0  0  0  0  0
    9.1682   -1.0915    0.8252 C   0  0  0  0  0  0  0  0  0  0  0  0
    8.1897   -3.1741    0.0885 C   0  0  0  0  0  0  0  0  0  0  0  0
    9.2820   -2.4601    0.5817 C   0  0  0  0  0  0  0  0  0  0  0  0
   -6.9950   -1.8297    1.1920 C   0  0  0  0  0  0  0  0  0  0  0  0
   -7.8821   -1.0365   -0.9105 C   0  0  0  0  0  0  0  0  0  0  0  0
   -8.2575   -2.3064    1.5450 C   0  0  0  0  0  0  0  0  0  0  0  0
   -9.1446   -1.5132   -0.5576 C   0  0  0  0  0  0  0  0  0  0  0  0
   -9.3323   -2.1482    0.6701 C   0  0  0  0  0  0  0  0  0  0  0  0
   -0.3778    2.4394   -1.3659 H   0  0  0  0  0  0  0  0  0  0  0  0
   -2.4865    2.3240   -0.3698 H   0  0  0  0  0  0  0  0  0  0  0  0
   -0.8716    4.2772    0.0414 H   0  0  0  0  0  0  0  0  0  0  0  0
    0.8237    3.9455    0.3365 H   0  0  0  0  0  0  0  0  0  0  0  0
   -3.0113    1.2215    1.7682 H   0  0  0  0  0  0  0  0  0  0  0  0
   -1.3198    0.8110    2.0245 H   0  0  0  0  0  0  0  0  0  0  0  0
    0.5597    0.2481   -0.3389 H   0  0  0  0  0  0  0  0  0  0  0  0
    1.0573    1.2149    1.0597 H   0  0  0  0  0  0  0  0  0  0  0  0
    0.2773    2.7749    2.4578 H   0  0  0  0  0  0  0  0  0  0  0  0
   -0.4200    4.3857    2.4257 H   0  0  0  0  0  0  0  0  0  0  0  0
   -1.5078   -0.5508   -0.0329 H   0  0  0  0  0  0  0  0  0  0  0  0
   -1.5479    0.2284   -1.6125 H   0  0  0  0  0  0  0  0  0  0  0  0
   -1.9717    2.7621    3.1967 H   0  0  0  0  0  0  0  0  0  0  0  0
    4.3794    2.2984   -1.6338 H   0  0  0  0  0  0  0  0  0  0  0  0
    4.3650    0.6582   -2.2880 H   0  0  0  0  0  0  0  0  0  0  0  0
    2.3103   -0.7962    0.2938 H   0  0  0  0  0  0  0  0  0  0  0  0
    3.4143    0.1568    1.2898 H   0  0  0  0  0  0  0  0  0  0  0  0
    6.5156    1.1597   -1.1833 H   0  0  0  0  0  0  0  0  0  0  0  0
    5.6871    1.5414    0.3421 H   0  0  0  0  0  0  0  0  0  0  0  0
    4.4205   -1.9917    0.6823 H   0  0  0  0  0  0  0  0  0  0  0  0
    4.1750   -1.6838   -1.0492 H   0  0  0  0  0  0  0  0  0  0  0  0
   -4.0112   -1.0972    1.1721 H   0  0  0  0  0  0  0  0  0  0  0  0
    7.9030    0.6268    0.7900 H   0  0  0  0  0  0  0  0  0  0  0  0
    6.1585   -3.1021   -0.5606 H   0  0  0  0  0  0  0  0  0  0  0  0
   10.0179   -0.5366    1.2123 H   0  0  0  0  0  0  0  0  0  0  0  0
    8.2800   -4.2392   -0.1044 H   0  0  0  0  0  0  0  0  0  0  0  0
   10.2211   -2.9701    0.7760 H   0  0  0  0  0  0  0  0  0  0  0  0
   -6.1772   -1.9678    1.8945 H   0  0  0  0  0  0  0  0  0  0  0  0
   -7.7763   -0.5476   -1.8756 H   0  0  0  0  0  0  0  0  0  0  0  0
   -8.4041   -2.8009    2.5009 H   0  0  0  0  0  0  0  0  0  0  0  0
   -9.9819   -1.3902   -1.2384 H   0  0  0  0  0  0  0  0  0  0  0  0
  -10.3154   -2.5193    0.9449 H   0  0  0  0  0  0  0  0  0  0  0  0
  1 14  2  0  0  0  0
  2  6  1  0  0  0  0
  2 22  1  0  0  0  0
  3 10  1  0  0  0  0
  3 12  1  0  0  0  0
  3 46  1  0  0  0  0
  4 14  1  0  0  0  0
  4 16  1  0  0  0  0
  4 17  1  0  0  0  0
  5 18  1  0  0  0  0
  5 19  1  0  0  0  0
  5 21  1  0  0  0  0
  6 15  2  0  0  0  0
  7  8  1  0  0  0  0
  7  9  1  0  0  0  0
  7 11  1  0  0  0  0
  7 34  1  0  0  0  0
  8 10  1  0  0  0  0
  8 13  1  0  0  0  0
  8 35  1  0  0  0  0
  9 12  1  0  0  0  0
  9 36  1  0  0  0  0
  9 37  1  0  0  0  0
 10 38  1  0  0  0  0
 10 39  1  0  0  0  0
 11 14  1  0  0  0  0
 11 40  1  0  0  0  0
 11 41  1  0  0  0  0
 12 42  1  0  0  0  0
 12 43  1  0  0  0  0
 13 15  1  0  0  0  0
 13 44  1  0  0  0  0
 13 45  1  0  0  0  0
 15 20  1  0  0  0  0
 16 18  1  0  0  0  0
 16 47  1  0  0  0  0
 16 48  1  0  0  0  0
 17 19  1  0  0  0  0
 17 49  1  0  0  0  0
 17 50  1  0  0  0  0
 18 51  1  0  0  0  0
 18 52  1  0  0  0  0
 19 53  1  0  0  0  0
 19 54  1  0  0  0  0
 20 22  2  0  0  0  0
 20 55  1  0  0  0  0
 21 23  2  0  0  0  0
 21 24  1  0  0  0  0
 22 25  1  0  0  0  0
 23 26  1  0  0  0  0
 23 56  1  0  0  0  0
 24 27  2  0  0  0  0
 24 57  1  0  0  0  0
 25 29  2  0  0  0  0
 25 30  1  0  0  0  0
 26 28  2  0  0  0  0
 26 58  1  0  0  0  0
 27 28  1  0  0  0  0
 27 59  1  0  0  0  0
 28 60  1  0  0  0  0
 29 31  1  0  0  0  0
 29 61  1  0  0  0  0
 30 32  2  0  0  0  0
 30 62  1  0  0  0  0
 31 33  2  0  0  0  0
 31 63  1  0  0  0  0
 32 33  1  0  0  0  0
 32 64  1  0  0  0  0
 33 65  1  0  0  0  0
M  END
> <PUBCHEM_COMPOUND_CID>
40777502

> <PUBCHEM_CONFORMER_RMSD>
1

> <PUBCHEM_CONFORMER_DIVERSEORDER>
1
133
30
63
100
41
127
38
116
81
32
97
124
144
79
101
70
104
130
13
122
34
61
107
151
102
117
89
98
140
36
138
112
51
131
150
109
14
120
15
55
57
146
60
6
19
73
99
35
75
132
17
7
40
77
115
114
24
136
83
80
145
9
137
147
141
125
105
50
128
27
44
94
39
62
2
45
149
64
58
92
85
113
8
123
48
11
52
74
93
43
76
119
96
25
31
148
4
42
22
28
65
69
33
135
49
88
143
71
82
23
90
139
142
59
53
84
86
95
10
134
87
56
67
46
126
121
5
66
108
16
54
29
111
78
18
21
106
68
110
129
3
26
12
72
103
91
20
118
37
47

> <PUBCHEM_MMFF94_PARTIAL_CHARGES>
42
1 -0.57
10 0.27
11 0.06
12 0.27
13 0.18
14 0.57
15 0.11
16 0.3
17 0.3
18 0.37
19 0.37
2 -0.02
20 -0.15
21 0.1
22 0.09
23 -0.15
24 -0.15
25 0.05
26 -0.15
27 -0.15
28 -0.15
29 -0.15
3 -0.9
30 -0.15
31 -0.15
32 -0.15
33 -0.15
4 -0.66
46 0.36
5 -0.84
55 0.15
56 0.15
57 0.15
58 0.15
59 0.15
6 -0.41
60 0.15
61 0.15
62 0.15
63 0.15
64 0.15
65 0.15

> <PUBCHEM_EFFECTIVE_ROTOR_COUNT>
9.4

> <PUBCHEM_PHARMACOPHORE_FEATURES>
10
1 1 acceptor
1 3 cation
1 3 donor
1 5 cation
1 6 acceptor
5 2 6 15 20 22 rings
6 21 23 24 26 27 28 rings
6 25 29 30 31 32 33 rings
6 3 7 8 9 10 12 rings
6 4 5 16 17 18 19 rings

> <PUBCHEM_HEAVY_ATOM_COUNT>
33

> <PUBCHEM_ATOM_DEF_STEREO_COUNT>
2

> <PUBCHEM_ATOM_UDEF_STEREO_COUNT>
0

> <PUBCHEM_BOND_DEF_STEREO_COUNT>
0

> <PUBCHEM_BOND_UDEF_STEREO_COUNT>
0

> <PUBCHEM_ISOTOPIC_ATOM_COUNT>
0

> <PUBCHEM_COMPONENT_COUNT>
1

> <PUBCHEM_CACTVS_TAUTO_COUNT>
1

> <PUBCHEM_CONFORMER_ID>
026E371E00000001

> <PUBCHEM_MMFF94_ENERGY>
83.9075

> <PUBCHEM_FEATURE_SELFOVERLAP>
50.748

> <PUBCHEM_SHAPE_FINGERPRINT>
10 15 12535629375206286822
10100884 174 18410571782667782890
10258705 36 17823430468975349115
10625338 86 14189580706667246883
10930396 42 15195284223260442715
11135609 99 18408323311432074910
11146346 171 18114464553276533715
11273773 46 18186803591334831819
11297750 10 18343011212224711849
11386260 185 15647342974169227334
11456790 92 18201451311399783779
11578821 258 10519716574980847355
11607047 74 18115313418854866204
11672396 167 18340200912929537863
11973863 73 18343308037761379067
12013929 94 18411138005997394598
12047536 79 13469867857071717779
12539745 222 18408602527024048229
12838863 1 18260264127902863098
13150687 139 12252176342586031889
13165054 27 10879997930693862347
13668630 136 18113614569545104958
13673619 4 18334574681495684653
13782708 43 18265052621617052599
13947934 56 18408601432018442525
14359421 15 17676482826432842474
14664723 55 7997688735958211582
14705955 166 15626233381581536587
15064981 194 11891635506513006557
15131766 46 9871460976982853708
15145347 29 18267880380988603758
15198563 99 16298372553797700791
15320294 125 18059853987017376767
15347590 135 16774080644347790790
15350500 55 11600012037594282267
15419008 145 17988653982928848169
15773216 30 18044664324338617644
16993427 108 18273492368816726065
17134984 74 17531241773231290250
1754911 235 8070027770138306138
17852330 53 15984276101873054502
19246450 95 17703517597952926905
19301679 30 18059587840541379647
19302320 297 12607396694724332642
19841028 212 18333450967326041634
20105231 36 17894635894546759923
2026 5 18187923945943406258
20691028 202 10663517315557323858
20721686 146 10231765482991801515
20771845 65 18411981398733018948
208703 8 18409728447988423936
20982279 24 18261689094281728242
212700 22 18333725806584308082
21756936 100 10879696698735356588
21792961 116 18410285888184490069
22899556 105 17530676598326554427
23389318 12 18040724650354402150
23524908 199 11602811373567432056
23528940 14 18338230463528053122
23569917 315 18336550405260264826
23569943 247 18341893035401737783
23576562 1 10954042402171859479
24771293 8 12391509785168897105
2851757 41 18333739004644411818
3383291 50 18410857663479053314
406291 66 18409167688853809070
4149490 64 18115305708612582984
4169191 19 8790619104630005367
439807 62 18260551151459907111
4403749 210 10591754407720928141
4461854 278 17917991685688776998
44880568 143 17022896831420863460
4760202 70 18334870429081210860
5219985 9 18060421343713133969
54039377 194 18408040710403701822
5470011 282 17894634798517047308
5718773 13 18335421253566261156
58083652 198 17489011747965090953
58260988 647 18187370969267607929
6201320 82 8213326052047681871
9689198 14 10591759905141227876
9937071 3 18335138700015215323
9953998 17 14979951480292293397

> <PUBCHEM_SHAPE_MULTIPOLES>
647.46
33.08
3.73
1.47
1.7
1.69
0.29
-42.15
3.75
1.8
1.46
-1.66
0.82
-0.61

> <PUBCHEM_SHAPE_SELFOVERLAP>
1391.779

> <PUBCHEM_SHAPE_VOLUME>
354.2

> <PUBCHEM_COORDINATE_TYPE>
2
5
10

$$$$
