75536624
  -OEChem-12032416303D

 47 49  0     1  0  0  0  0  0999 V2000
    0.6005    0.8394    0.1089 O   0  0  0  0  0  0  0  0  0  0  0  0
   -0.5771   -2.4898   -0.5508 O   0  0  0  0  0  0  0  0  0  0  0  0
    4.0281   -2.0154   -0.2190 O   0  0  0  0  0  0  0  0  0  0  0  0
   -4.8242    2.1732   -0.5525 O   0  0  0  0  0  0  0  0  0  0  0  0
   -2.8317   -0.3446   -0.1133 N   0  0  0  0  0  0  0  0  0  0  0  0
    3.1144   -0.0262   -0.9879 N   0  0  0  0  0  0  0  0  0  0  0  0
   -1.4368   -0.3674    0.2958 C   0  0  1  0  0  0  0  0  0  0  0  0
   -0.5261   -1.0827   -0.6849 C   0  0  1  0  0  0  0  0  0  0  0  0
    0.8325   -0.5232   -0.2852 C   0  0  1  0  0  0  0  0  0  0  0  0
   -0.8090    1.0163    0.3349 C   0  0  0  0  0  0  0  0  0  0  0  0
    1.8535   -0.5660   -1.4082 C   0  0  0  0  0  0  0  0  0  0  0  0
   -3.6976    0.0422    0.9943 C   0  0  0  0  0  0  0  0  0  0  0  0
   -5.1456    0.0873    0.5845 C   0  0  0  0  0  0  0  0  0  0  0  0
    4.1158   -0.8067   -0.4183 C   0  0  0  0  0  0  0  0  0  0  0  0
   -5.6402    1.1512   -0.1698 C   0  0  0  0  0  0  0  0  0  0  0  0
   -5.9953   -0.9502    0.9678 C   0  0  0  0  0  0  0  0  0  0  0  0
    5.3535   -0.0922   -0.0123 C   0  0  0  0  0  0  0  0  0  0  0  0
   -6.9845    1.1777   -0.5408 C   0  0  0  0  0  0  0  0  0  0  0  0
   -7.3398   -0.9238    0.5970 C   0  0  0  0  0  0  0  0  0  0  0  0
   -7.8344    0.1401   -0.1573 C   0  0  0  0  0  0  0  0  0  0  0  0
    6.1436   -0.5967    1.0205 C   0  0  0  0  0  0  0  0  0  0  0  0
    5.7261    1.0825   -0.6655 C   0  0  0  0  0  0  0  0  0  0  0  0
    7.3064    0.0737    1.4005 C   0  0  0  0  0  0  0  0  0  0  0  0
    6.8889    1.7528   -0.2858 C   0  0  0  0  0  0  0  0  0  0  0  0
    7.6790    1.2485    0.7472 C   0  0  0  0  0  0  0  0  0  0  0  0
   -1.3358   -0.8594    1.2736 H   0  0  0  0  0  0  0  0  0  0  0  0
   -0.7744   -0.8169   -1.7201 H   0  0  0  0  0  0  0  0  0  0  0  0
    1.2283   -1.0536    0.5910 H   0  0  0  0  0  0  0  0  0  0  0  0
   -1.1847    1.6669   -0.4633 H   0  0  0  0  0  0  0  0  0  0  0  0
   -0.9614    1.5227    1.2928 H   0  0  0  0  0  0  0  0  0  0  0  0
    1.5229    0.0488   -2.2525 H   0  0  0  0  0  0  0  0  0  0  0  0
    1.9968   -1.5928   -1.7612 H   0  0  0  0  0  0  0  0  0  0  0  0
   -3.1004   -1.2758   -0.4326 H   0  0  0  0  0  0  0  0  0  0  0  0
   -3.4196    1.0291    1.3857 H   0  0  0  0  0  0  0  0  0  0  0  0
   -3.5786   -0.6589    1.8309 H   0  0  0  0  0  0  0  0  0  0  0  0
   -0.3574   -2.7175    0.3685 H   0  0  0  0  0  0  0  0  0  0  0  0
    3.2244    0.9795   -1.0593 H   0  0  0  0  0  0  0  0  0  0  0  0
   -5.6247   -1.7873    1.5535 H   0  0  0  0  0  0  0  0  0  0  0  0
   -7.3834    2.0002   -1.1283 H   0  0  0  0  0  0  0  0  0  0  0  0
   -8.0014   -1.7319    0.8950 H   0  0  0  0  0  0  0  0  0  0  0  0
   -8.8812    0.1605   -0.4462 H   0  0  0  0  0  0  0  0  0  0  0  0
    5.8680   -1.5081    1.5444 H   0  0  0  0  0  0  0  0  0  0  0  0
    5.1569    1.4922   -1.4945 H   0  0  0  0  0  0  0  0  0  0  0  0
   -5.3412    2.8168   -1.0666 H   0  0  0  0  0  0  0  0  0  0  0  0
    7.9214   -0.3185    2.2051 H   0  0  0  0  0  0  0  0  0  0  0  0
    7.1834    2.6638   -0.7987 H   0  0  0  0  0  0  0  0  0  0  0  0
    8.5852    1.7697    1.0419 H   0  0  0  0  0  0  0  0  0  0  0  0
  1  9  1  0  0  0  0
  1 10  1  0  0  0  0
  2  8  1  0  0  0  0
  2 36  1  0  0  0  0
  3 14  2  0  0  0  0
  4 15  1  0  0  0  0
  4 44  1  0  0  0  0
  5  7  1  0  0  0  0
  5 12  1  0  0  0  0
  5 33  1  0  0  0  0
  6 11  1  0  0  0  0
  6 14  1  0  0  0  0
  6 37  1  0  0  0  0
  7  8  1  0  0  0  0
  7 10  1  0  0  0  0
  7 26  1  0  0  0  0
  8  9  1  0  0  0  0
  8 27  1  0  0  0  0
  9 11  1  0  0  0  0
  9 28  1  0  0  0  0
 10 29  1  0  0  0  0
 10 30  1  0  0  0  0
 11 31  1  0  0  0  0
 11 32  1  0  0  0  0
 12 13  1  0  0  0  0
 12 34  1  0  0  0  0
 12 35  1  0  0  0  0
 13 15  1  0  0  0  0
 13 16  2  0  0  0  0
 14 17  1  0  0  0  0
 15 18  2  0  0  0  0
 16 19  1  0  0  0  0
 16 38  1  0  0  0  0
 17 21  2  0  0  0  0
 17 22  1  0  0  0  0
 18 20  1  0  0  0  0
 18 39  1  0  0  0  0
 19 20  2  0  0  0  0
 19 40  1  0  0  0  0
 20 41  1  0  0  0  0
 21 23  1  0  0  0  0
 21 42  1  0  0  0  0
 22 24  2  0  0  0  0
 22 43  1  0  0  0  0
 23 25  2  0  0  0  0
 23 45  1  0  0  0  0
 24 25  1  0  0  0  0
 24 46  1  0  0  0  0
 25 47  1  0  0  0  0
M  END
> <PUBCHEM_COMPOUND_CID>
75536624

> <PUBCHEM_CONFORMER_RMSD>
1

> <PUBCHEM_CONFORMER_DIVERSEORDER>
1
173
143
76
135
219
111
218
5
192
139
53
13
142
120
208
116
205
172
103
180
15
164
167
51
217
56
137
100
22
163
24
42
169
175
185
57
195
28
98
41
115
206
109
75
161
189
125
155
44
148
70
184
150
27
86
215
131
50
39
91
151
182
49
117
16
177
147
104
140
130
209
37
201
32
21
20
48
146
14
152
80
67
181
4
128
129
65
52
156
122
71
18
207
99
202
38
74
133
11
29
196
186
220
34
160
197
77
166
107
126
94
171
168
43
73
113
114
105
138
26
72
213
198
170
187
174
214
132
54
69
183
191
141
121
200
87
110
68
35
59
47
203
25
190
159
96
17
89
199
78
64
193
12
101
93
40
61
216
136
188
60
178
19
157
83
145
79
84
97
179
211
119
194
62
8
134
204
63
81
212
176
23
123
158
9
58
165
162
144
95
153
30
108
88
85
82
2
124
106
92
3
66
90
210
10
36
154
112
45
33
7
55
102
149
127
6
118
46
31

> <PUBCHEM_MMFF94_PARTIAL_CHARGES>
38
1 -0.56
10 0.28
11 0.3
12 0.41
13 -0.14
14 0.54
15 0.08
16 -0.15
17 0.09
18 -0.15
19 -0.15
2 -0.68
20 -0.15
21 -0.15
22 -0.15
23 -0.15
24 -0.15
25 -0.15
3 -0.57
33 0.36
36 0.4
37 0.37
38 0.15
39 0.15
4 -0.53
40 0.15
41 0.15
42 0.15
43 0.15
44 0.45
45 0.15
46 0.15
47 0.15
5 -0.9
6 -0.73
7 0.27
8 0.28
9 0.28

> <PUBCHEM_EFFECTIVE_ROTOR_COUNT>
8

> <PUBCHEM_PHARMACOPHORE_FEATURES>
11
1 1 acceptor
1 2 acceptor
1 2 donor
1 3 acceptor
1 4 donor
1 5 cation
1 5 donor
1 6 donor
5 1 7 8 9 10 rings
6 13 15 16 18 19 20 rings
6 17 21 22 23 24 25 rings

> <PUBCHEM_HEAVY_ATOM_COUNT>
25

> <PUBCHEM_ATOM_DEF_STEREO_COUNT>
3

> <PUBCHEM_ATOM_UDEF_STEREO_COUNT>
0

> <PUBCHEM_BOND_DEF_STEREO_COUNT>
0

> <PUBCHEM_BOND_UDEF_STEREO_COUNT>
0

> <PUBCHEM_ISOTOPIC_ATOM_COUNT>
0

> <PUBCHEM_COMPONENT_COUNT>
1

> <PUBCHEM_CACTVS_TAUTO_COUNT>
6

> <PUBCHEM_CONFORMER_ID>
048098F000000001

> <PUBCHEM_MMFF94_ENERGY>
60.1666

> <PUBCHEM_FEATURE_SELFOVERLAP>
55.822

> <PUBCHEM_SHAPE_FINGERPRINT>
10 15 18408886252130520162
10162869 55 18342167921233186151
11315181 36 18060140930378874409
11638347 137 18113617864001571946
11719270 70 18410014325460087406
125118 31 18408888408405069572
13533116 47 17131560431907169326
13914758 101 16443062781616862189
14123256 10 16917350333350367936
14251764 18 17894631469542891383
14347424 109 16298390193159936084
14461889 52 18408325497158952482
15131766 46 17462299237759682972
15183329 4 15430040941525346195
15419008 47 18271802415303712185
15849732 13 18409450297168616669
16090146 7 13973411317318956038
17093844 174 17821447959478606713
20157964 124 18201441350911895902
20554085 129 17917701401686291978
21095086 128 10881407543502626593
21130935 74 18339085878551267803
21150785 3 16917347043574230765
21365058 27 15339121243267908069
21521721 280 17418095416520183275
221357 26 12103851151217366442
22224240 67 17989487432940924614
23035841 295 9871749083526141637
23081809 10 16200158634095821111
246663 6 11530480021617396280
24771293 8 17917718997623835337
249057 25 17095818654504035333
28498 318 12685085990780421394
34797466 226 14476962294228167272
4325135 7 13973965402691882689
4340502 62 17821446855250447362
445580 37 12175632763125062939
5470011 282 10663819698518766888
5758199 1 16702307849522429071
636775 72 18339643323005845217
6394761 36 12324239464737044125

> <PUBCHEM_SHAPE_MULTIPOLES>
481.05
26.14
1.69
1.07
0.77
0.06
0.07
-7.34
5.67
-0.18
-0.28
-0.76
0.1
0.74

> <PUBCHEM_SHAPE_SELFOVERLAP>
1022.651

> <PUBCHEM_SHAPE_VOLUME>
267.6

> <PUBCHEM_COORDINATE_TYPE>
2
5
10

$$$$
