25338539
  -OEChem-12032416293D

 53 56  0     1  0  0  0  0  0999 V2000
    0.1583   -3.5920   -0.7353 O   0  0  0  0  0  0  0  0  0  0  0  0
   -4.7404    1.2770   -1.4302 O   0  0  0  0  0  0  0  0  0  0  0  0
   -2.5046   -2.4246    1.2554 N   0  0  1  0  0  0  0  0  0  0  0  0
   -3.5867    0.2183    0.2841 N   0  0  0  0  0  0  0  0  0  0  0  0
    0.2033   -1.4595   -0.0516 N   0  0  0  0  0  0  0  0  0  0  0  0
   -3.5744    2.5133    0.1495 N   0  0  0  0  0  0  0  0  0  0  0  0
    1.4975   -3.1883   -0.8070 N   0  0  0  0  0  0  0  0  0  0  0  0
   -3.9105   -1.1385   -0.0878 C   0  0  1  0  0  0  0  0  0  0  0  0
   -2.0291   -2.6970   -0.1144 C   0  0  1  0  0  0  0  0  0  0  0  0
   -2.8457   -1.7400   -1.0049 C   0  0  0  0  0  0  0  0  0  0  0  0
   -3.9183   -2.0581    1.1241 C   0  0  0  0  0  0  0  0  0  0  0  0
   -0.5357   -2.5153   -0.2821 C   0  0  0  0  0  0  0  0  0  0  0  0
   -2.3164   -3.5501    2.1628 C   0  0  0  0  0  0  0  0  0  0  0  0
   -4.0326    1.3305   -0.4254 C   0  0  0  0  0  0  0  0  0  0  0  0
    1.4428   -1.9204   -0.3880 C   0  0  0  0  0  0  0  0  0  0  0  0
   -3.8893    3.8167   -0.3859 C   0  0  0  0  0  0  0  0  0  0  0  0
    2.6069   -1.0875   -0.2954 C   0  0  0  0  0  0  0  0  0  0  0  0
   -2.7443    4.7869   -0.1255 C   0  0  0  0  0  0  0  0  0  0  0  0
   -5.1962    4.3348    0.2017 C   0  0  0  0  0  0  0  0  0  0  0  0
    2.4881    0.2299    0.1485 C   0  0  0  0  0  0  0  0  0  0  0  0
    3.8543   -1.5941   -0.6477 C   0  0  0  0  0  0  0  0  0  0  0  0
    3.6180    1.0582    0.2453 C   0  0  0  0  0  0  0  0  0  0  0  0
    4.8865    0.5430   -0.1130 C   0  0  0  0  0  0  0  0  0  0  0  0
    4.9876   -0.7853   -0.5577 C   0  0  0  0  0  0  0  0  0  0  0  0
    3.5169    2.3865    0.6898 C   0  0  0  0  0  0  0  0  0  0  0  0
    6.0165    1.3714   -0.0164 C   0  0  0  0  0  0  0  0  0  0  0  0
    4.6501    3.1953    0.7797 C   0  0  0  0  0  0  0  0  0  0  0  0
    5.8975    2.6888    0.4273 C   0  0  0  0  0  0  0  0  0  0  0  0
   -4.8881   -1.1344   -0.5827 H   0  0  0  0  0  0  0  0  0  0  0  0
   -2.2923   -3.7242   -0.4057 H   0  0  0  0  0  0  0  0  0  0  0  0
   -2.2354   -0.9691   -1.4898 H   0  0  0  0  0  0  0  0  0  0  0  0
   -3.3324   -2.3215   -1.7980 H   0  0  0  0  0  0  0  0  0  0  0  0
   -4.2969   -1.5665    2.0265 H   0  0  0  0  0  0  0  0  0  0  0  0
   -4.5369   -2.9410    0.9162 H   0  0  0  0  0  0  0  0  0  0  0  0
   -2.9453    0.3672    1.0574 H   0  0  0  0  0  0  0  0  0  0  0  0
   -1.2528   -3.7898    2.2671 H   0  0  0  0  0  0  0  0  0  0  0  0
   -2.8403   -4.4512    1.8244 H   0  0  0  0  0  0  0  0  0  0  0  0
   -2.6827   -3.2965    3.1636 H   0  0  0  0  0  0  0  0  0  0  0  0
   -3.0595    2.4576    1.0231 H   0  0  0  0  0  0  0  0  0  0  0  0
   -4.0168    3.7179   -1.4707 H   0  0  0  0  0  0  0  0  0  0  0  0
   -2.9571    5.7697   -0.5589 H   0  0  0  0  0  0  0  0  0  0  0  0
   -1.8132    4.4158   -0.5676 H   0  0  0  0  0  0  0  0  0  0  0  0
   -2.5696    4.9180    0.9483 H   0  0  0  0  0  0  0  0  0  0  0  0
   -5.4516    5.3146   -0.2147 H   0  0  0  0  0  0  0  0  0  0  0  0
   -6.0229    3.6498   -0.0163 H   0  0  0  0  0  0  0  0  0  0  0  0
   -5.1298    4.4331    1.2911 H   0  0  0  0  0  0  0  0  0  0  0  0
    1.5160    0.6349    0.4264 H   0  0  0  0  0  0  0  0  0  0  0  0
    3.9858   -2.6150   -0.9975 H   0  0  0  0  0  0  0  0  0  0  0  0
    5.9529   -1.2019   -0.8383 H   0  0  0  0  0  0  0  0  0  0  0  0
    2.5521    2.8041    0.9706 H   0  0  0  0  0  0  0  0  0  0  0  0
    7.0015    0.9965   -0.2866 H   0  0  0  0  0  0  0  0  0  0  0  0
    4.5582    4.2210    1.1250 H   0  0  0  0  0  0  0  0  0  0  0  0
    6.7793    3.3191    0.4975 H   0  0  0  0  0  0  0  0  0  0  0  0
  1  7  1  0  0  0  0
  1 12  1  0  0  0  0
  2 14  2  0  0  0  0
  3  9  1  0  0  0  0
  3 11  1  0  0  0  0
  3 13  1  0  0  0  0
  4  8  1  0  0  0  0
  4 14  1  0  0  0  0
  4 35  1  0  0  0  0
  5 12  2  0  0  0  0
  5 15  1  0  0  0  0
  6 14  1  0  0  0  0
  6 16  1  0  0  0  0
  6 39  1  0  0  0  0
  7 15  2  0  0  0  0
  8 10  1  0  0  0  0
  8 11  1  0  0  0  0
  8 29  1  0  0  0  0
  9 10  1  0  0  0  0
  9 12  1  0  0  0  0
  9 30  1  0  0  0  0
 10 31  1  0  0  0  0
 10 32  1  0  0  0  0
 11 33  1  0  0  0  0
 11 34  1  0  0  0  0
 13 36  1  0  0  0  0
 13 37  1  0  0  0  0
 13 38  1  0  0  0  0
 15 17  1  0  0  0  0
 16 18  1  0  0  0  0
 16 19  1  0  0  0  0
 16 40  1  0  0  0  0
 17 20  2  0  0  0  0
 17 21  1  0  0  0  0
 18 41  1  0  0  0  0
 18 42  1  0  0  0  0
 18 43  1  0  0  0  0
 19 44  1  0  0  0  0
 19 45  1  0  0  0  0
 19 46  1  0  0  0  0
 20 22  1  0  0  0  0
 20 47  1  0  0  0  0
 21 24  2  0  0  0  0
 21 48  1  0  0  0  0
 22 23  1  0  0  0  0
 22 25  2  0  0  0  0
 23 24  1  0  0  0  0
 23 26  2  0  0  0  0
 24 49  1  0  0  0  0
 25 27  1  0  0  0  0
 25 50  1  0  0  0  0
 26 28  1  0  0  0  0
 26 51  1  0  0  0  0
 27 28  2  0  0  0  0
 27 52  1  0  0  0  0
 28 53  1  0  0  0  0
M  END
> <PUBCHEM_COMPOUND_CID>
25338539

> <PUBCHEM_CONFORMER_RMSD>
0.8

> <PUBCHEM_CONFORMER_DIVERSEORDER>
1
174
147
52
170
106
49
146
135
213
124
156
64
109
184
139
13
162
10
201
123
48
35
209
21
78
14
218
148
61
117
55
73
107
94
17
15
70
142
129
153
195
206
203
56
19
140
26
99
71
103
178
46
125
22
164
60
183
12
217
65
11
84
122
182
190
93
187
101
39
27
76
5
102
53
119
30
193
180
189
205
120
219
81
31
141
121
210
7
199
90
34
163
63
105
127
89
104
75
50
151
3
172
38
114
77
88
144
44
136
160
145
211
171
175
62
192
18
126
16
181
58
191
59
42
108
97
54
221
134
177
91
176
167
204
143
96
131
223
215
138
47
74
159
9
57
95
36
112
82
43
68
25
41
132
216
100
98
166
202
197
214
51
111
128
6
28
113
80
161
198
115
69
207
185
66
152
130
173
4
29
196
155
45
92
85
87
37
8
165
116
67
194
149
137
179
188
186
110
222
20
220
24
208
169
157
83
40
86
118
212
72
200
23
79
150
158
168
154
33
2
32
133

> <PUBCHEM_MMFF94_PARTIAL_CHARGES>
32
1 -0.02
11 0.27
12 0.3
13 0.27
14 0.69
15 0.46
16 0.3
17 0.05
2 -0.57
20 -0.15
21 -0.15
24 -0.15
25 -0.15
26 -0.15
27 -0.15
28 -0.15
3 -0.81
35 0.37
39 0.37
4 -0.73
47 0.15
48 0.15
49 0.15
5 -0.57
50 0.15
51 0.15
52 0.15
53 0.15
6 -0.73
7 -0.41
8 0.3
9 0.45

> <PUBCHEM_EFFECTIVE_ROTOR_COUNT>
7

> <PUBCHEM_PHARMACOPHORE_FEATURES>
10
1 2 acceptor
1 3 cation
1 4 donor
1 6 donor
3 16 18 19 hydrophobe
3 5 7 15 cation
5 1 5 7 12 15 rings
5 3 8 9 10 11 rings
6 17 20 21 22 23 24 rings
6 22 23 25 26 27 28 rings

> <PUBCHEM_HEAVY_ATOM_COUNT>
28

> <PUBCHEM_ATOM_DEF_STEREO_COUNT>
2

> <PUBCHEM_ATOM_UDEF_STEREO_COUNT>
0

> <PUBCHEM_BOND_DEF_STEREO_COUNT>
0

> <PUBCHEM_BOND_UDEF_STEREO_COUNT>
0

> <PUBCHEM_ISOTOPIC_ATOM_COUNT>
0

> <PUBCHEM_COMPONENT_COUNT>
1

> <PUBCHEM_CACTVS_TAUTO_COUNT>
3

> <PUBCHEM_CONFORMER_ID>
0182A2AB00000001

> <PUBCHEM_MMFF94_ENERGY>
55.5025

> <PUBCHEM_FEATURE_SELFOVERLAP>
50.823

> <PUBCHEM_SHAPE_FINGERPRINT>
10675989 125 17835801898236636777
11135609 149 17129888044925187246
12107183 9 18117545242126661730
12925494 130 18337953385853606401
13402501 40 18341049730655580297
14223995 32 18269825450890006688
14251764 38 18411695456962848840
14251764 75 18055078657984889305
14347329 18 18341041986908881728
14739800 52 18260819389084012122
14790565 3 18411419544665054006
15142526 21 18046349631076591257
15320467 1 18412261726974593040
15419008 145 18336814386792247424
16067690 210 18115572893827133096
16992787 43 18411692159784382909
16993438 75 18409732893127114704
19611394 137 17610627792821307731
20398071 114 18339357453396012041
21033648 144 17700411661845039070
21033648 29 18270674406709383922
21049683 118 17242744065936543737
21315764 268 18410574028328230822
21859007 373 18271517698406777800
23398203 216 18126028004220642985
2838139 119 18340483357671551903
325973 47 18411699932325059452
376196 1 18266456504059568143
4144715 1 18334021609851415402
437795 96 17910096246823093616
497634 4 17059223716408241903
5047190 92 18339362947239945585
508706 21 18410291436464863968
5104073 3 18186793712857251834
5951187 136 17482557382771139349
6036956 94 18191868031854995341
7288768 16 18114464457842494323

> <PUBCHEM_SHAPE_MULTIPOLES>
539.58
14.05
6.55
1.1
9.05
5.16
0.34
13.28
0.37
-7.79
0.71
-0.8
-0.81
2.78

> <PUBCHEM_SHAPE_SELFOVERLAP>
1162.56

> <PUBCHEM_SHAPE_VOLUME>
300.5

> <PUBCHEM_COORDINATE_TYPE>
2
5
10

$$$$
