45783564
  -OEChem-12032416263D

 49 52  0     1  0  0  0  0  0999 V2000
   -3.7035   -2.7599   -0.6239 S   0  0  0  0  0  0  0  0  0  0  0  0
   -2.3949    0.1697   -1.9889 O   0  0  0  0  0  0  0  0  0  0  0  0
    5.0188    0.2958   -0.2887 O   0  0  0  0  0  0  0  0  0  0  0  0
    7.3164   -0.6237    1.0189 O   0  0  0  0  0  0  0  0  0  0  0  0
   -4.1361    0.6458    1.0262 N   0  0  1  0  0  0  0  0  0  0  0  0
   -1.2751    0.9840   -0.2282 N   0  0  0  0  0  0  0  0  0  0  0  0
   -1.0417   -0.1006   -2.2290 N   0  0  0  0  0  0  0  0  0  0  0  0
    2.8917    0.8936    0.4199 N   0  0  0  0  0  0  0  0  0  0  0  0
   -3.8174    1.2149   -0.2985 C   0  0  1  0  0  0  0  0  0  0  0  0
   -3.9575    2.7373   -0.1140 C   0  0  0  0  0  0  0  0  0  0  0  0
   -4.4162    2.9230    1.3253 C   0  0  0  0  0  0  0  0  0  0  0  0
   -5.0471    1.5899    1.6735 C   0  0  0  0  0  0  0  0  0  0  0  0
   -4.6980   -0.6969    0.9544 C   0  0  0  0  0  0  0  0  0  0  0  0
   -2.4440    0.8096   -0.7912 C   0  0  0  0  0  0  0  0  0  0  0  0
   -3.6323   -1.7406    0.7502 C   0  0  0  0  0  0  0  0  0  0  0  0
   -2.5430   -2.0205    1.5458 C   0  0  0  0  0  0  0  0  0  0  0  0
   -0.4459    0.4095   -1.1470 C   0  0  0  0  0  0  0  0  0  0  0  0
   -1.7564   -3.0858    1.0200 C   0  0  0  0  0  0  0  0  0  0  0  0
    0.9747    0.3627   -0.9543 C   0  0  0  0  0  0  0  0  0  0  0  0
   -2.2743   -3.5795   -0.1571 C   0  0  0  0  0  0  0  0  0  0  0  0
    1.8067   -0.2264   -1.9000 C   0  0  0  0  0  0  0  0  0  0  0  0
    1.5615    0.9036    0.1784 C   0  0  0  0  0  0  0  0  0  0  0  0
    3.1805   -0.2562   -1.6870 C   0  0  0  0  0  0  0  0  0  0  0  0
    3.6686    0.3124   -0.5216 C   0  0  0  0  0  0  0  0  0  0  0  0
    5.4666    0.8928    0.9225 C   0  0  0  0  0  0  0  0  0  0  0  0
    6.9743    0.7570    1.0134 C   0  0  0  0  0  0  0  0  0  0  0  0
    8.7234   -0.8112    1.0807 C   0  0  0  0  0  0  0  0  0  0  0  0
   -4.5641    0.9068   -1.0441 H   0  0  0  0  0  0  0  0  0  0  0  0
   -3.0346    3.2960   -0.3037 H   0  0  0  0  0  0  0  0  0  0  0  0
   -4.7269    3.1211   -0.7952 H   0  0  0  0  0  0  0  0  0  0  0  0
   -5.1141    3.7585    1.4327 H   0  0  0  0  0  0  0  0  0  0  0  0
   -3.5501    3.1166    1.9703 H   0  0  0  0  0  0  0  0  0  0  0  0
   -6.0607    1.5284    1.2573 H   0  0  0  0  0  0  0  0  0  0  0  0
   -5.0966    1.4394    2.7564 H   0  0  0  0  0  0  0  0  0  0  0  0
   -5.1751   -0.9412    1.9144 H   0  0  0  0  0  0  0  0  0  0  0  0
   -5.4940   -0.7645    0.2015 H   0  0  0  0  0  0  0  0  0  0  0  0
   -2.3166   -1.4898    2.4618 H   0  0  0  0  0  0  0  0  0  0  0  0
   -0.8558   -3.4698    1.4812 H   0  0  0  0  0  0  0  0  0  0  0  0
   -1.8813   -4.3817   -0.7657 H   0  0  0  0  0  0  0  0  0  0  0  0
    1.4183   -0.6711   -2.8126 H   0  0  0  0  0  0  0  0  0  0  0  0
    0.9785    1.3801    0.9611 H   0  0  0  0  0  0  0  0  0  0  0  0
    3.8432   -0.7119   -2.4146 H   0  0  0  0  0  0  0  0  0  0  0  0
    5.1975    1.9555    0.9440 H   0  0  0  0  0  0  0  0  0  0  0  0
    5.0097    0.3741    1.7746 H   0  0  0  0  0  0  0  0  0  0  0  0
    7.4419    1.2350    0.1447 H   0  0  0  0  0  0  0  0  0  0  0  0
    7.3386    1.2336    1.9301 H   0  0  0  0  0  0  0  0  0  0  0  0
    8.9276   -1.8852    1.0866 H   0  0  0  0  0  0  0  0  0  0  0  0
    9.1291   -0.3737    1.9980 H   0  0  0  0  0  0  0  0  0  0  0  0
    9.2085   -0.3689    0.2051 H   0  0  0  0  0  0  0  0  0  0  0  0
  1 15  1  0  0  0  0
  1 20  1  0  0  0  0
  2  7  1  0  0  0  0
  2 14  1  0  0  0  0
  3 24  1  0  0  0  0
  3 25  1  0  0  0  0
  4 26  1  0  0  0  0
  4 27  1  0  0  0  0
  5  9  1  0  0  0  0
  5 12  1  0  0  0  0
  5 13  1  0  0  0  0
  6 14  2  0  0  0  0
  6 17  1  0  0  0  0
  7 17  2  0  0  0  0
  8 22  1  0  0  0  0
  8 24  2  0  0  0  0
  9 10  1  0  0  0  0
  9 14  1  0  0  0  0
  9 28  1  0  0  0  0
 10 11  1  0  0  0  0
 10 29  1  0  0  0  0
 10 30  1  0  0  0  0
 11 12  1  0  0  0  0
 11 31  1  0  0  0  0
 11 32  1  0  0  0  0
 12 33  1  0  0  0  0
 12 34  1  0  0  0  0
 13 15  1  0  0  0  0
 13 35  1  0  0  0  0
 13 36  1  0  0  0  0
 15 16  2  0  0  0  0
 16 18  1  0  0  0  0
 16 37  1  0  0  0  0
 17 19  1  0  0  0  0
 18 20  2  0  0  0  0
 18 38  1  0  0  0  0
 19 21  1  0  0  0  0
 19 22  2  0  0  0  0
 20 39  1  0  0  0  0
 21 23  2  0  0  0  0
 21 40  1  0  0  0  0
 22 41  1  0  0  0  0
 23 24  1  0  0  0  0
 23 42  1  0  0  0  0
 25 26  1  0  0  0  0
 25 43  1  0  0  0  0
 25 44  1  0  0  0  0
 26 45  1  0  0  0  0
 26 46  1  0  0  0  0
 27 47  1  0  0  0  0
 27 48  1  0  0  0  0
 27 49  1  0  0  0  0
M  END
> <PUBCHEM_COMPOUND_CID>
45783564

> <PUBCHEM_CONFORMER_RMSD>
1

> <PUBCHEM_CONFORMER_DIVERSEORDER>
3
135
74
103
124
61
36
128
66
65
43
85
57
86
31
89
131
69
98
87
138
93
56
2
136
54
123
50
115
55
53
5
129
64
110
51
14
79
112
59
49
8
120
99
96
48
121
125
91
76
73
22
107
105
68
77
70
97
122
23
101
17
84
12
38
116
126
10
67
94
34
90
139
60
109
80
16
4
113
11
108
118
28
72
127
39
114
33
132
63
18
78
52
15
117
130
21
88
71
20
92
32
82
102
95
62
47
134
29
25
119
7
1
46
133
100
27
30
9
83
41
104
111
19
75
81
45
42
35
13
58
40
26
106
37
137
44
6
24

> <PUBCHEM_MMFF94_PARTIAL_CHARGES>
31
1 -0.08
12 0.27
13 0.45
14 0.3
15 -0.14
16 -0.15
17 0.46
18 -0.15
19 0.05
2 -0.02
20 -0.11
21 -0.15
22 0.16
23 -0.15
24 0.39
25 0.28
26 0.28
27 0.28
3 -0.36
37 0.15
38 0.15
39 0.15
4 -0.56
40 0.15
41 0.15
42 0.15
5 -0.81
6 -0.57
7 -0.41
8 -0.62
9 0.45

> <PUBCHEM_EFFECTIVE_ROTOR_COUNT>
9

> <PUBCHEM_PHARMACOPHORE_FEATURES>
7
1 4 acceptor
1 5 cation
3 6 7 17 cation
5 1 15 16 18 20 rings
5 2 6 7 14 17 rings
5 5 9 10 11 12 rings
6 8 19 21 22 23 24 rings

> <PUBCHEM_HEAVY_ATOM_COUNT>
27

> <PUBCHEM_ATOM_DEF_STEREO_COUNT>
1

> <PUBCHEM_ATOM_UDEF_STEREO_COUNT>
0

> <PUBCHEM_BOND_DEF_STEREO_COUNT>
0

> <PUBCHEM_BOND_UDEF_STEREO_COUNT>
0

> <PUBCHEM_ISOTOPIC_ATOM_COUNT>
0

> <PUBCHEM_COMPONENT_COUNT>
1

> <PUBCHEM_CACTVS_TAUTO_COUNT>
1

> <PUBCHEM_CONFORMER_ID>
02BA9A0C00000003

> <PUBCHEM_MMFF94_ENERGY>
49.9524

> <PUBCHEM_FEATURE_SELFOVERLAP>
35.523

> <PUBCHEM_SHAPE_FINGERPRINT>
10 15 17917427653487310128
10319926 262 18341341037118451806
11036077 4 18333731321063021747
12422481 6 17676768656643183194
12616971 3 16950288420838231260
12633257 1 18336000739159875565
13004483 165 17982179126029415607
13583140 156 17561088050405273667
13994607 96 13542197108139563455
14844126 61 18338238288361984275
14856354 85 18335143115684070964
15021287 119 17022626377351020580
15183329 4 16660638575533893618
15326921 28 18044924676107120261
15348495 7 18342453781719951288
15352257 5 18187361014045190458
17492 54 11670954633059253467
17780758 139 18335137617672413393
17913733 40 17275110544163230230
18927931 339 15574711382894120532
19438510 23 17488476165558604505
20554085 129 18267574720707716473
21033648 29 17703522012161591869
21267235 1 14057013693149151868
21756936 100 18271802393864960409
23522609 53 17751387091189110108
23559900 14 18125185782249316846
312425 54 18409167676174434362
397830 11 18265321984733358160
4073 2 18413387644972901542
4169191 19 14404606797570121450
484985 159 17822279241324224119
5104073 3 18060422374373182494
5364581 5 18127408071643936920
602551 16 18335150824686253727
68570916 9 18187929543171541924

> <PUBCHEM_SHAPE_MULTIPOLES>
521.96
16.92
3.16
1.82
43.88
1.86
0.5
-1.94
-10.11
-6.64
-1.02
-0.11
0.02
-0.55

> <PUBCHEM_SHAPE_SELFOVERLAP>
1102.966

> <PUBCHEM_SHAPE_VOLUME>
296.8

> <PUBCHEM_COORDINATE_TYPE>
2
5
10

$$$$
