44716314
  -OEChem-12032416153D

 59 63  0     1  0  0  0  0  0999 V2000
    1.5184   -5.1851   -1.7916 F   0  0  0  0  0  0  0  0  0  0  0  0
    2.3614    0.3948    2.1725 O   0  0  0  0  0  0  0  0  0  0  0  0
    2.2050    2.9838   -1.3311 N   0  0  2  0  0  0  0  0  0  0  0  0
   -1.2564    1.3545   -1.1402 N   0  0  0  0  0  0  0  0  0  0  0  0
    4.2264   -0.1496    0.8899 N   0  0  0  0  0  0  0  0  0  0  0  0
   -2.1326    2.3481   -1.3600 N   0  0  0  0  0  0  0  0  0  0  0  0
   -3.3165    1.9340   -0.9219 N   0  0  0  0  0  0  0  0  0  0  0  0
   -7.8757   -0.5535   -0.2045 N   0  0  0  0  0  0  0  0  0  0  0  0
    2.1947    2.9829    1.2711 C   0  0  2  0  0  0  0  0  0  0  0  0
    0.8326    2.7062   -0.8293 C   0  0  2  0  0  0  0  0  0  0  0  0
    3.2863    2.0472    0.7174 C   0  0  2  0  0  0  0  0  0  0  0  0
    0.8271    2.5486    0.7071 C   0  0  0  0  0  0  0  0  0  0  0  0
    2.4925    4.3885    0.7188 C   0  0  0  0  0  0  0  0  0  0  0  0
    3.1569    1.9696   -0.8142 C   0  0  0  0  0  0  0  0  0  0  0  0
    2.6190    4.3123   -0.8144 C   0  0  0  0  0  0  0  0  0  0  0  0
    0.1879    1.5065   -1.5269 C   0  0  0  0  0  0  0  0  0  0  0  0
    3.2190    0.6852    1.3426 C   0  0  0  0  0  0  0  0  0  0  0  0
   -1.8529    0.2792   -0.5571 C   0  0  0  0  0  0  0  0  0  0  0  0
    4.3962   -1.5075    1.3542 C   0  0  0  0  0  0  0  0  0  0  0  0
   -3.1622    0.6687   -0.4271 C   0  0  0  0  0  0  0  0  0  0  0  0
    3.6290   -2.4882    0.5153 C   0  0  0  0  0  0  0  0  0  0  0  0
   -4.2120   -0.1178    0.1367 C   0  0  0  0  0  0  0  0  0  0  0  0
    2.3152   -2.8152    0.8513 C   0  0  0  0  0  0  0  0  0  0  0  0
    4.2296   -3.0722   -0.6000 C   0  0  0  0  0  0  0  0  0  0  0  0
   -5.5238    0.0478   -0.3075 C   0  0  0  0  0  0  0  0  0  0  0  0
   -3.9251   -1.0520    1.1321 C   0  0  0  0  0  0  0  0  0  0  0  0
    1.6022   -3.7263    0.0724 C   0  0  0  0  0  0  0  0  0  0  0  0
    3.5166   -3.9835   -1.3790 C   0  0  0  0  0  0  0  0  0  0  0  0
    2.2030   -4.3105   -1.0428 C   0  0  0  0  0  0  0  0  0  0  0  0
   -6.5489   -0.7209    0.2437 C   0  0  0  0  0  0  0  0  0  0  0  0
   -4.9503   -1.8206    1.6833 C   0  0  0  0  0  0  0  0  0  0  0  0
   -6.2623   -1.6550    1.2392 C   0  0  0  0  0  0  0  0  0  0  0  0
    2.1760    2.9945    2.3663 H   0  0  0  0  0  0  0  0  0  0  0  0
    0.2177    3.5830   -1.0786 H   0  0  0  0  0  0  0  0  0  0  0  0
    4.2685    2.4674    0.9772 H   0  0  0  0  0  0  0  0  0  0  0  0
    0.5874    1.5244    1.0068 H   0  0  0  0  0  0  0  0  0  0  0  0
    0.0418    3.1871    1.1318 H   0  0  0  0  0  0  0  0  0  0  0  0
    3.4214    4.7797    1.1498 H   0  0  0  0  0  0  0  0  0  0  0  0
    1.6875    5.0793    0.9970 H   0  0  0  0  0  0  0  0  0  0  0  0
    2.8642    0.9725   -1.1627 H   0  0  0  0  0  0  0  0  0  0  0  0
    4.1402    2.1482   -1.2693 H   0  0  0  0  0  0  0  0  0  0  0  0
    2.0121    5.0998   -1.2782 H   0  0  0  0  0  0  0  0  0  0  0  0
    3.6522    4.5223   -1.1189 H   0  0  0  0  0  0  0  0  0  0  0  0
    0.1768    1.6233   -2.6166 H   0  0  0  0  0  0  0  0  0  0  0  0
    0.6658    0.5541   -1.2745 H   0  0  0  0  0  0  0  0  0  0  0  0
    4.8877    0.1949    0.2000 H   0  0  0  0  0  0  0  0  0  0  0  0
   -1.3108   -0.6223   -0.3063 H   0  0  0  0  0  0  0  0  0  0  0  0
    5.4682   -1.7337    1.3273 H   0  0  0  0  0  0  0  0  0  0  0  0
    4.0827   -1.5754    2.4027 H   0  0  0  0  0  0  0  0  0  0  0  0
    1.8350   -2.3695    1.7181 H   0  0  0  0  0  0  0  0  0  0  0  0
    5.2517   -2.8241   -0.8733 H   0  0  0  0  0  0  0  0  0  0  0  0
   -5.7573    0.7715   -1.0862 H   0  0  0  0  0  0  0  0  0  0  0  0
   -2.9157   -1.1982    1.5086 H   0  0  0  0  0  0  0  0  0  0  0  0
    0.5793   -3.9808    0.3335 H   0  0  0  0  0  0  0  0  0  0  0  0
    3.9836   -4.4381   -2.2477 H   0  0  0  0  0  0  0  0  0  0  0  0
   -4.7278   -2.5463    2.4602 H   0  0  0  0  0  0  0  0  0  0  0  0
   -7.0524   -2.2595    1.6772 H   0  0  0  0  0  0  0  0  0  0  0  0
   -8.0847    0.1226   -0.9270 H   0  0  0  0  0  0  0  0  0  0  0  0
   -8.6189   -1.1117    0.1943 H   0  0  0  0  0  0  0  0  0  0  0  0
  1 29  1  0  0  0  0
  2 17  2  0  0  0  0
  3 10  1  0  0  0  0
  3 14  1  0  0  0  0
  3 15  1  0  0  0  0
  4  6  1  0  0  0  0
  4 16  1  0  0  0  0
  4 18  1  0  0  0  0
  5 17  1  0  0  0  0
  5 19  1  0  0  0  0
  5 46  1  0  0  0  0
  6  7  2  0  0  0  0
  7 20  1  0  0  0  0
  8 30  1  0  0  0  0
  8 58  1  0  0  0  0
  8 59  1  0  0  0  0
  9 11  1  0  0  0  0
  9 12  1  0  0  0  0
  9 13  1  0  0  0  0
  9 33  1  0  0  0  0
 10 12  1  0  0  0  0
 10 16  1  0  0  0  0
 10 34  1  0  0  0  0
 11 14  1  0  0  0  0
 11 17  1  0  0  0  0
 11 35  1  0  0  0  0
 12 36  1  0  0  0  0
 12 37  1  0  0  0  0
 13 15  1  0  0  0  0
 13 38  1  0  0  0  0
 13 39  1  0  0  0  0
 14 40  1  0  0  0  0
 14 41  1  0  0  0  0
 15 42  1  0  0  0  0
 15 43  1  0  0  0  0
 16 44  1  0  0  0  0
 16 45  1  0  0  0  0
 18 20  2  0  0  0  0
 18 47  1  0  0  0  0
 19 21  1  0  0  0  0
 19 48  1  0  0  0  0
 19 49  1  0  0  0  0
 20 22  1  0  0  0  0
 21 23  2  0  0  0  0
 21 24  1  0  0  0  0
 22 25  2  0  0  0  0
 22 26  1  0  0  0  0
 23 27  1  0  0  0  0
 23 50  1  0  0  0  0
 24 28  2  0  0  0  0
 24 51  1  0  0  0  0
 25 30  1  0  0  0  0
 25 52  1  0  0  0  0
 26 31  2  0  0  0  0
 26 53  1  0  0  0  0
 27 29  2  0  0  0  0
 27 54  1  0  0  0  0
 28 29  1  0  0  0  0
 28 55  1  0  0  0  0
 30 32  2  0  0  0  0
 31 32  1  0  0  0  0
 31 56  1  0  0  0  0
 32 57  1  0  0  0  0
M  END
> <PUBCHEM_COMPOUND_CID>
44716314

> <PUBCHEM_CONFORMER_RMSD>
1.2

> <PUBCHEM_CONFORMER_DIVERSEORDER>
1
115
89
65
188
16
95
90
143
119
165
50
112
172
191
155
99
134
171
68
74
14
76
131
170
118
116
169
102
187
11
55
61
82
124
80
98
67
136
181
48
56
168
64
91
139
167
129
86
121
12
126
161
186
27
137
107
84
6
132
133
144
110
162
153
45
166
29
88
33
152
38
135
130
146
149
174
156
83
46
159
145
34
127
36
103
94
142
81
47
106
173
111
44
148
122
113
21
26
53
18
72
183
190
2
31
177
97
185
30
105
79
157
184
128
73
109
182
96
66
140
154
138
52
108
35
8
179
163
15
164
160
150
54
125
24
75
57
9
120
151
63
147
3
93
175
5
32
37
17
49
178
100
25
87
101
141
28
13
123
158
23
40
60
42
10
4
70
104
92
85
78
7
59
189
19
77
69
22
114
41
176
71
43
62
51
117
58
180
39
20

> <PUBCHEM_MMFF94_PARTIAL_CHARGES>
41
1 -0.19
10 0.27
11 0.06
14 0.27
15 0.27
16 0.26
17 0.57
18 -0.3
19 0.44
2 -0.57
20 0.17
21 -0.14
22 0.05
23 -0.15
24 -0.15
25 -0.15
26 -0.15
27 -0.15
28 -0.15
29 0.19
3 -0.81
30 0.1
31 -0.15
32 -0.15
4 0.31
46 0.37
47 0.15
5 -0.73
50 0.15
51 0.15
52 0.15
53 0.15
54 0.15
55 0.15
56 0.15
57 0.15
58 0.4
59 0.4
6 -0.42
7 -0.23
8 -0.9

> <PUBCHEM_EFFECTIVE_ROTOR_COUNT>
8.2

> <PUBCHEM_PHARMACOPHORE_FEATURES>
9
1 2 acceptor
1 3 cation
1 5 donor
1 8 cation
1 8 donor
5 4 6 7 18 20 rings
6 21 23 24 27 28 29 rings
6 22 25 26 30 31 32 rings
8 3 9 10 11 12 13 14 15 rings

> <PUBCHEM_HEAVY_ATOM_COUNT>
32

> <PUBCHEM_ATOM_DEF_STEREO_COUNT>
2

> <PUBCHEM_ATOM_UDEF_STEREO_COUNT>
1

> <PUBCHEM_BOND_DEF_STEREO_COUNT>
0

> <PUBCHEM_BOND_UDEF_STEREO_COUNT>
0

> <PUBCHEM_ISOTOPIC_ATOM_COUNT>
0

> <PUBCHEM_COMPONENT_COUNT>
1

> <PUBCHEM_CACTVS_TAUTO_COUNT>
2

> <PUBCHEM_CONFORMER_ID>
02AA511A00000001

> <PUBCHEM_MMFF94_ENERGY>
84.6943

> <PUBCHEM_FEATURE_SELFOVERLAP>
45.672

> <PUBCHEM_SHAPE_FINGERPRINT>
10049733 135 17344092687638769174
10816530 23 17688872355482972473
117089 54 18195813968359203438
11828532 37 17530973514011920403
12623949 98 18334299798755358645
13383661 66 17986410897197897198
13402501 40 18260827085733984754
13533116 47 18411138065425362345
1361 87 17692251833446496350
13785724 45 18198070179151124869
14681488 357 18335708208599877819
150020 26 18342166731105433520
151778 21 18267583683539006912
15264996 44 18341343235604118487
15927050 60 17979074117987456636
17909252 39 18335142011577542624
19301679 30 18187933911110649001
1979834 28 18411411847492991568
20775530 9 18196080058889082166
21133410 38 17987502883388901279
21344244 181 18270698562328299268
22889206 1 17985534792162118649
23428019 142 16250259784039201990
23466295 7 17333655973345099854
23559900 14 18113343016143171879
239999 70 17532082963640182648
3117164 225 18267594494600114185
3737641 26 17984979302850888118
373842 8 18120373422357216235
3886686 26 17624424078126245193
394071 54 18409453579241549491
404807 14 17837218069856608563
4144715 1 18335143047418885249
4435113 14 17968390047467857459
44426695 316 16831264306598474322
4461854 278 18341606062439542642
46194498 28 18259702311266601368
5309563 4 18267583511909379702
613672 6 18050548673977052910
6823239 73 18188484670928876722
86090 222 17967819340508262787
9980921 177 18056498170999409441

> <PUBCHEM_SHAPE_MULTIPOLES>
615.52
13.71
6.83
1.67
31.31
3.13
0.14
7
3.28
-11.47
-2.44
-0.67
0.24
2.44

> <PUBCHEM_SHAPE_SELFOVERLAP>
1342.353

> <PUBCHEM_SHAPE_VOLUME>
335.5

> <PUBCHEM_COORDINATE_TYPE>
2
5
10

$$$$
