51137955
  -OEChem-12032416403D

 51 54  0     1  0  0  0  0  0999 V2000
   -2.1320   -2.0597    1.3047 O   0  0  0  0  0  0  0  0  0  0  0  0
   -0.2642    0.2753    0.5806 N   0  0  0  0  0  0  0  0  0  0  0  0
   -2.7399   -1.0287   -0.6838 N   0  0  0  0  0  0  0  0  0  0  0  0
    4.1535   -2.1307    0.1350 N   0  0  0  0  0  0  0  0  0  0  0  0
   -4.1852   -1.3009   -0.5851 C   0  0  0  0  0  0  0  0  0  0  0  0
   -5.0462   -0.5419   -1.6160 C   0  0  0  0  0  0  0  0  0  0  0  0
   -4.9116   -0.4874    0.5064 C   0  0  0  0  0  0  0  0  0  0  0  0
   -6.0811   -0.3408   -0.4894 C   0  0  0  0  0  0  0  0  0  0  0  0
    0.6098    1.1842   -0.1732 C   0  0  2  0  0  0  0  0  0  0  0  0
   -0.4238   -1.0452   -0.0115 C   0  0  1  0  0  0  0  0  0  0  0  0
    0.5226   -2.0625    0.6229 C   0  0  0  0  0  0  0  0  0  0  0  0
    2.0779    0.7606   -0.2859 C   0  0  0  0  0  0  0  0  0  0  0  0
    0.4409    2.5490    0.5181 C   0  0  0  0  0  0  0  0  0  0  0  0
    2.5754   -0.5501   -0.0317 C   0  0  0  0  0  0  0  0  0  0  0  0
    1.9660   -1.7929    0.3579 C   0  0  0  0  0  0  0  0  0  0  0  0
   -1.8385   -1.4399    0.2843 C   0  0  0  0  0  0  0  0  0  0  0  0
   -0.8748    3.2446    0.1553 C   0  0  0  0  0  0  0  0  0  0  0  0
    3.9421   -0.8105   -0.1851 C   0  0  0  0  0  0  0  0  0  0  0  0
    2.9728   -2.7319    0.4569 C   0  0  0  0  0  0  0  0  0  0  0  0
    3.0238    1.7091   -0.7519 C   0  0  0  0  0  0  0  0  0  0  0  0
    4.8659    0.1501   -0.6003 C   0  0  0  0  0  0  0  0  0  0  0  0
   -2.1035    2.4218    0.5456 C   0  0  0  0  0  0  0  0  0  0  0  0
   -0.9288    4.6117    0.8412 C   0  0  0  0  0  0  0  0  0  0  0  0
    4.3788    1.4169   -0.8950 C   0  0  0  0  0  0  0  0  0  0  0  0
   -4.3986   -2.3767   -0.5514 H   0  0  0  0  0  0  0  0  0  0  0  0
   -4.6100    0.3958   -1.9807 H   0  0  0  0  0  0  0  0  0  0  0  0
   -5.3910   -1.1290   -2.4712 H   0  0  0  0  0  0  0  0  0  0  0  0
   -5.1446   -1.0300    1.4264 H   0  0  0  0  0  0  0  0  0  0  0  0
   -4.4384    0.4660    0.7673 H   0  0  0  0  0  0  0  0  0  0  0  0
   -6.5957    0.6230   -0.4814 H   0  0  0  0  0  0  0  0  0  0  0  0
   -6.8225   -1.1452   -0.4217 H   0  0  0  0  0  0  0  0  0  0  0  0
    0.2358    1.2668   -1.2030 H   0  0  0  0  0  0  0  0  0  0  0  0
   -0.2846   -1.0271   -1.1007 H   0  0  0  0  0  0  0  0  0  0  0  0
    0.3812   -2.1068    1.7120 H   0  0  0  0  0  0  0  0  0  0  0  0
    0.2745   -3.0644    0.2456 H   0  0  0  0  0  0  0  0  0  0  0  0
    0.0317    0.2095    1.5538 H   0  0  0  0  0  0  0  0  0  0  0  0
    0.5291    2.4408    1.6094 H   0  0  0  0  0  0  0  0  0  0  0  0
    1.2408    3.2454    0.2506 H   0  0  0  0  0  0  0  0  0  0  0  0
   -2.3810   -0.5177   -1.4869 H   0  0  0  0  0  0  0  0  0  0  0  0
   -0.9045    3.4160   -0.9283 H   0  0  0  0  0  0  0  0  0  0  0  0
    2.9453   -3.7789    0.7254 H   0  0  0  0  0  0  0  0  0  0  0  0
    2.7070    2.7060   -1.0495 H   0  0  0  0  0  0  0  0  0  0  0  0
    5.0526   -2.5920    0.1165 H   0  0  0  0  0  0  0  0  0  0  0  0
    5.9188   -0.0855   -0.7124 H   0  0  0  0  0  0  0  0  0  0  0  0
   -3.0079    3.0393    0.4873 H   0  0  0  0  0  0  0  0  0  0  0  0
   -2.2676    1.5994   -0.1522 H   0  0  0  0  0  0  0  0  0  0  0  0
   -2.0401    2.0425    1.5705 H   0  0  0  0  0  0  0  0  0  0  0  0
   -0.0740    5.2310    0.5488 H   0  0  0  0  0  0  0  0  0  0  0  0
   -1.8389    5.1527    0.5607 H   0  0  0  0  0  0  0  0  0  0  0  0
   -0.9182    4.5107    1.9320 H   0  0  0  0  0  0  0  0  0  0  0  0
    5.0600    2.1851   -1.2514 H   0  0  0  0  0  0  0  0  0  0  0  0
  1 16  2  0  0  0  0
  2  9  1  0  0  0  0
  2 10  1  0  0  0  0
  2 36  1  0  0  0  0
  3  5  1  0  0  0  0
  3 16  1  0  0  0  0
  3 39  1  0  0  0  0
  4 18  1  0  0  0  0
  4 19  1  0  0  0  0
  4 43  1  0  0  0  0
  5  6  1  0  0  0  0
  5  7  1  0  0  0  0
  5 25  1  0  0  0  0
  6  8  1  0  0  0  0
  6 26  1  0  0  0  0
  6 27  1  0  0  0  0
  7  8  1  0  0  0  0
  7 28  1  0  0  0  0
  7 29  1  0  0  0  0
  8 30  1  0  0  0  0
  8 31  1  0  0  0  0
  9 12  1  0  0  0  0
  9 13  1  0  0  0  0
  9 32  1  0  0  0  0
 10 11  1  0  0  0  0
 10 16  1  0  0  0  0
 10 33  1  0  0  0  0
 11 15  1  0  0  0  0
 11 34  1  0  0  0  0
 11 35  1  0  0  0  0
 12 14  2  0  0  0  0
 12 20  1  0  0  0  0
 13 17  1  0  0  0  0
 13 37  1  0  0  0  0
 13 38  1  0  0  0  0
 14 15  1  0  0  0  0
 14 18  1  0  0  0  0
 15 19  2  0  0  0  0
 17 22  1  0  0  0  0
 17 23  1  0  0  0  0
 17 40  1  0  0  0  0
 18 21  2  0  0  0  0
 19 41  1  0  0  0  0
 20 24  2  0  0  0  0
 20 42  1  0  0  0  0
 21 24  1  0  0  0  0
 21 44  1  0  0  0  0
 22 45  1  0  0  0  0
 22 46  1  0  0  0  0
 22 47  1  0  0  0  0
 23 48  1  0  0  0  0
 23 49  1  0  0  0  0
 23 50  1  0  0  0  0
 24 51  1  0  0  0  0
M  END
> <PUBCHEM_COMPOUND_CID>
51137955

> <PUBCHEM_CONFORMER_RMSD>
0.8

> <PUBCHEM_CONFORMER_DIVERSEORDER>
1
15
5
8
16
3
18
22
9
23
21
20
12
17
4
13
2
6
7
11
14
19
10

> <PUBCHEM_MMFF94_PARTIAL_CHARGES>
23
1 -0.57
10 0.33
11 0.18
12 -0.14
15 -0.18
16 0.57
18 -0.15
19 -0.3
2 -0.9
20 -0.15
21 -0.15
24 -0.15
3 -0.65
36 0.36
39 0.37
4 0.03
41 0.15
42 0.15
43 0.27
44 0.15
5 0.22
51 0.15
9 0.41

> <PUBCHEM_EFFECTIVE_ROTOR_COUNT>
6.6

> <PUBCHEM_PHARMACOPHORE_FEATURES>
11
1 1 acceptor
1 2 cation
1 2 donor
1 3 donor
1 4 cation
1 4 donor
3 17 22 23 hydrophobe
4 5 6 7 8 rings
5 4 14 15 18 19 rings
6 12 14 18 20 21 24 rings
7 2 9 10 11 12 14 15 rings

> <PUBCHEM_HEAVY_ATOM_COUNT>
24

> <PUBCHEM_ATOM_DEF_STEREO_COUNT>
2

> <PUBCHEM_ATOM_UDEF_STEREO_COUNT>
0

> <PUBCHEM_BOND_DEF_STEREO_COUNT>
0

> <PUBCHEM_BOND_UDEF_STEREO_COUNT>
0

> <PUBCHEM_ISOTOPIC_ATOM_COUNT>
0

> <PUBCHEM_COMPONENT_COUNT>
1

> <PUBCHEM_CACTVS_TAUTO_COUNT>
2

> <PUBCHEM_CONFORMER_ID>
030C4DA300000001

> <PUBCHEM_MMFF94_ENERGY>
57.8542

> <PUBCHEM_FEATURE_SELFOVERLAP>
55.952

> <PUBCHEM_SHAPE_FINGERPRINT>
11578080 2 12180719159765073598
116883 192 18341335470350452950
12236239 1 18060422417481260091
12293681 160 18121238720711966108
12553582 1 18411705421403059417
12788726 201 18409727318327564392
13004483 165 18340759373438490550
13134695 92 18341325695326530349
13140716 1 18048030767202296818
13540713 5 18118411636046081402
138480 1 14881444696136155177
14178342 30 18192981627017111922
14251757 17 17749656420767307525
14347329 18 17242142727523473157
14464042 87 18343024376393262913
14681490 219 18410849971803782901
14790565 3 18338241470874455081
14931854 50 18335421257333617471
15081414 286 18339652246860390873
15210252 30 18042123318168901012
15420108 30 16896791368502529832
1601671 61 18335699502479129039
16087824 20 18268432344209856009
17492 89 18195809570291534822
20612939 158 18334574642223806831
20642791 105 18048863114093386384
20775438 99 17192310906200600991
21029758 11 18411135861647995569
21033648 29 17604413181491283895
21279426 13 18263076639754001677
21285901 2 17917721153849996335
21478907 32 18339358539742688789
21641784 216 18188224112464464860
221357 26 18336815456112009741
22289505 5 18335412469930996647
23558518 356 18120940494845225666
23559900 14 18265332996486348044
23566358 2 18336542716228497020
23622692 118 18338796690002677710
25147074 1 18116158771080584666
2871803 45 18410016550537372844
3004659 81 18186516601335022894
3014063 31 18411697703305019921
335352 9 18333732442667145462
34934 24 18269833284677836446
350125 39 18337674122937553320
46194498 28 17459187550953803405
463206 1 18339637970289086903
532947 4 17910108341318811632
59755656 215 18408044018219291406
6443956 14 18337954622503351548
7164475 11 18268710519959761910
7471813 234 18340752776537886438

> <PUBCHEM_SHAPE_MULTIPOLES>
473.1
10.51
4.07
1
8.36
4.57
0.12
-4.32
3.62
-0.23
-1.39
0.57
-0.01
-1.16

> <PUBCHEM_SHAPE_SELFOVERLAP>
1014.044

> <PUBCHEM_SHAPE_VOLUME>
262.9

> <PUBCHEM_COORDINATE_TYPE>
2
5
10

$$$$
