56775651
  -OEChem-12032416323D

 45 48  0     0  0  0  0  0  0999 V2000
   -3.7987   -2.5986    1.8948 O   0  0  0  0  0  0  0  0  0  0  0  0
    1.4198   -2.5275   -0.4505 O   0  0  0  0  0  0  0  0  0  0  0  0
   -5.0840    2.1275   -0.5733 O   0  0  0  0  0  0  0  0  0  0  0  0
    3.2485   -0.2293    0.2167 O   0  0  0  0  0  0  0  0  0  0  0  0
   -2.6929   -0.1580    0.4897 N   0  0  0  0  0  0  0  0  0  0  0  0
    0.1041   -2.9720   -0.4009 N   0  0  0  0  0  0  0  0  0  0  0  0
   -2.7669   -1.6019    0.3143 C   0  0  0  0  0  0  0  0  0  0  0  0
   -4.1902   -2.0601    0.6114 C   0  0  0  0  0  0  0  0  0  0  0  0
   -2.4134   -2.2760    1.6352 C   0  0  0  0  0  0  0  0  0  0  0  0
   -2.0850   -2.0835   -0.9732 C   0  0  0  0  0  0  0  0  0  0  0  0
   -0.6217   -1.9572   -0.8787 C   0  0  0  0  0  0  0  0  0  0  0  0
   -3.2663    0.5113   -0.6754 C   0  0  0  0  0  0  0  0  0  0  0  0
    0.1736   -0.8567   -1.2421 C   0  0  0  0  0  0  0  0  0  0  0  0
   -3.7663    1.8912   -0.3395 C   0  0  0  0  0  0  0  0  0  0  0  0
    1.4483   -1.2667   -0.9532 C   0  0  0  0  0  0  0  0  0  0  0  0
   -3.1578    3.0130    0.1739 C   0  0  0  0  0  0  0  0  0  0  0  0
    2.7993   -0.6258   -1.0782 C   0  0  0  0  0  0  0  0  0  0  0  0
   -4.1665    4.0020    0.2615 C   0  0  0  0  0  0  0  0  0  0  0  0
   -5.3194    3.4142   -0.2050 C   0  0  0  0  0  0  0  0  0  0  0  0
    4.4539    0.3988    0.2885 C   0  0  0  0  0  0  0  0  0  0  0  0
    5.1911    0.6284   -0.8732 C   0  0  0  0  0  0  0  0  0  0  0  0
    4.9521    0.8127    1.5238 C   0  0  0  0  0  0  0  0  0  0  0  0
    6.4264    1.2720   -0.7996 C   0  0  0  0  0  0  0  0  0  0  0  0
    6.1874    1.4563    1.5974 C   0  0  0  0  0  0  0  0  0  0  0  0
    6.9245    1.6860    0.4357 C   0  0  0  0  0  0  0  0  0  0  0  0
   -4.5744   -2.8543   -0.0378 H   0  0  0  0  0  0  0  0  0  0  0  0
   -4.9690   -1.2992    0.7285 H   0  0  0  0  0  0  0  0  0  0  0  0
   -1.9927   -1.6476    2.4275 H   0  0  0  0  0  0  0  0  0  0  0  0
   -1.8245   -3.1962    1.5697 H   0  0  0  0  0  0  0  0  0  0  0  0
   -2.4647   -1.5858   -1.8719 H   0  0  0  0  0  0  0  0  0  0  0  0
   -2.3332   -3.1439   -1.1254 H   0  0  0  0  0  0  0  0  0  0  0  0
   -1.7597    0.2083    0.6737 H   0  0  0  0  0  0  0  0  0  0  0  0
   -4.1088   -0.0448   -1.1061 H   0  0  0  0  0  0  0  0  0  0  0  0
   -2.5159    0.6204   -1.4666 H   0  0  0  0  0  0  0  0  0  0  0  0
   -0.1268    0.0943   -1.6557 H   0  0  0  0  0  0  0  0  0  0  0  0
   -2.1176    3.1088    0.4508 H   0  0  0  0  0  0  0  0  0  0  0  0
    3.4833   -1.3621   -1.5185 H   0  0  0  0  0  0  0  0  0  0  0  0
    2.6943    0.2462   -1.7360 H   0  0  0  0  0  0  0  0  0  0  0  0
   -4.0658    5.0163    0.6194 H   0  0  0  0  0  0  0  0  0  0  0  0
   -6.3354    3.7582   -0.3320 H   0  0  0  0  0  0  0  0  0  0  0  0
    4.8679    0.3324   -1.8652 H   0  0  0  0  0  0  0  0  0  0  0  0
    4.3824    0.6365    2.4321 H   0  0  0  0  0  0  0  0  0  0  0  0
    7.0016    1.4508   -1.7035 H   0  0  0  0  0  0  0  0  0  0  0  0
    6.5753    1.7786    2.5593 H   0  0  0  0  0  0  0  0  0  0  0  0
    7.8864    2.1870    0.4931 H   0  0  0  0  0  0  0  0  0  0  0  0
  1  8  1  0  0  0  0
  1  9  1  0  0  0  0
  2  6  1  0  0  0  0
  2 15  1  0  0  0  0
  3 14  1  0  0  0  0
  3 19  1  0  0  0  0
  4 17  1  0  0  0  0
  4 20  1  0  0  0  0
  5  7  1  0  0  0  0
  5 12  1  0  0  0  0
  5 32  1  0  0  0  0
  6 11  2  0  0  0  0
  7  8  1  0  0  0  0
  7  9  1  0  0  0  0
  7 10  1  0  0  0  0
  8 26  1  0  0  0  0
  8 27  1  0  0  0  0
  9 28  1  0  0  0  0
  9 29  1  0  0  0  0
 10 11  1  0  0  0  0
 10 30  1  0  0  0  0
 10 31  1  0  0  0  0
 11 13  1  0  0  0  0
 12 14  1  0  0  0  0
 12 33  1  0  0  0  0
 12 34  1  0  0  0  0
 13 15  2  0  0  0  0
 13 35  1  0  0  0  0
 14 16  2  0  0  0  0
 15 17  1  0  0  0  0
 16 18  1  0  0  0  0
 16 36  1  0  0  0  0
 17 37  1  0  0  0  0
 17 38  1  0  0  0  0
 18 19  2  0  0  0  0
 18 39  1  0  0  0  0
 19 40  1  0  0  0  0
 20 21  2  0  0  0  0
 20 22  1  0  0  0  0
 21 23  1  0  0  0  0
 21 41  1  0  0  0  0
 22 24  2  0  0  0  0
 22 42  1  0  0  0  0
 23 25  2  0  0  0  0
 23 43  1  0  0  0  0
 24 25  1  0  0  0  0
 24 44  1  0  0  0  0
 25 45  1  0  0  0  0
M  END
> <PUBCHEM_COMPOUND_CID>
56775651

> <PUBCHEM_CONFORMER_RMSD>
1.2

> <PUBCHEM_CONFORMER_DIVERSEORDER>
1
22
53
78
60
96
69
77
99
44
52
65
30
97
72
55
41
8
13
85
95
93
14
64
67
63
71
98
18
100
88
36
37
51
17
82
91
32
74
57
26
54
73
90
29
81
27
21
5
76
86
61
50
23
40
9
94
101
92
89
87
12
15
102
11
75
62
58
38
20
33
59
10
31
79
70
7
56
28
3
46
48
84
19
80
66
25
49
4
83
68
34
16
43
35
45
47
2
42
39
24
6

> <PUBCHEM_MMFF94_PARTIAL_CHARGES>
35
1 -0.52
10 0.18
11 0.11
12 0.45
13 -0.15
14 -0.04
15 -0.04
16 -0.15
17 0.46
18 -0.15
19 -0.01
2 -0.02
20 0.08
21 -0.15
22 -0.15
23 -0.15
24 -0.15
25 -0.15
3 -0.28
32 0.36
35 0.15
36 0.15
39 0.15
4 -0.36
40 0.15
41 0.15
42 0.15
43 0.15
44 0.15
45 0.15
5 -0.84
6 -0.41
7 0.21
8 0.26
9 0.26

> <PUBCHEM_EFFECTIVE_ROTOR_COUNT>
8.8

> <PUBCHEM_PHARMACOPHORE_FEATURES>
10
1 1 acceptor
1 3 acceptor
1 4 acceptor
1 5 cation
1 5 donor
1 6 acceptor
4 1 7 8 9 rings
5 2 6 11 13 15 rings
5 3 14 16 18 19 rings
6 20 21 22 23 24 25 rings

> <PUBCHEM_HEAVY_ATOM_COUNT>
25

> <PUBCHEM_ATOM_DEF_STEREO_COUNT>
0

> <PUBCHEM_ATOM_UDEF_STEREO_COUNT>
0

> <PUBCHEM_BOND_DEF_STEREO_COUNT>
0

> <PUBCHEM_BOND_UDEF_STEREO_COUNT>
0

> <PUBCHEM_ISOTOPIC_ATOM_COUNT>
0

> <PUBCHEM_COMPONENT_COUNT>
1

> <PUBCHEM_CACTVS_TAUTO_COUNT>
1

> <PUBCHEM_CONFORMER_ID>
036253E300000001

> <PUBCHEM_MMFF94_ENERGY>
54.2397

> <PUBCHEM_FEATURE_SELFOVERLAP>
50.748

> <PUBCHEM_SHAPE_FINGERPRINT>
10290309 65 18271536320346223846
10291535 26 18410291428634389815
10675989 125 17548417003619437113
11135609 127 17322092444544058949
11578080 2 18270971141620702259
12107183 9 18117547432633751170
12390115 104 18341622507483534590
12403259 118 18261394494200698972
12403259 415 18271537437438147342
12549972 3 18046372758764343747
12596602 18 17313942069156003682
12633257 1 17095249107105949846
13103583 49 17240480334286828494
13540713 4 18268448861920691359
14028597 1 17458343061799654691
14251764 75 17985554351400635129
14347329 18 18343295947170368032
14429114 114 18053662465317549985
14739800 52 18337659833069787034
14950920 106 17241617306297587520
15183329 4 15769782360272140500
15338160 23 18334577979318541460
16067690 210 18261377971293460224
19438510 23 18337954480806133593
21033648 144 17632014268938405710
21033648 29 18201429312018228096
21279426 13 18131079195461717654
21302155 148 18409452492308887532
21401589 2 18337961078361326745
22956985 138 16746788888940953043
23559900 14 18053663568691355558
2748736 6 18339912715178918028
2838139 119 18129932391168394940
3246875 12 18338239250851311673
3418910 222 17188681482846731216
376196 1 17979355262140753319
44249763 50 17559939069744927268
508706 21 18129929212940074976
5104073 3 18114457886453250730
58902169 19 13398362295528693480
5969126 39 18269831077497455647
7288768 16 18261954038371570413
7808743 9 18412820274648943084
9849439 229 18120656825562960429
9981440 41 18409729534969052083

> <PUBCHEM_SHAPE_MULTIPOLES>
481.05
16.35
4.47
1.41
23.47
2.29
0.46
15.42
3.18
-8.71
0.43
0.61
-0.59
2.25

> <PUBCHEM_SHAPE_SELFOVERLAP>
1037.899

> <PUBCHEM_SHAPE_VOLUME>
266.9

> <PUBCHEM_COORDINATE_TYPE>
2
5
10

$$$$
