26743644
  -OEChem-12032416183D

 43 46  0     1  0  0  0  0  0999 V2000
    6.3553   -0.8596    0.7157 F   0  0  0  0  0  0  0  0  0  0  0  0
    5.9779    1.0173    1.7465 F   0  0  0  0  0  0  0  0  0  0  0  0
    6.5966    1.0206   -0.3380 F   0  0  0  0  0  0  0  0  0  0  0  0
   -5.0887    3.5713    0.6998 O   0  0  0  0  0  0  0  0  0  0  0  0
   -1.4930   -0.1830   -2.1107 O   0  0  0  0  0  0  0  0  0  0  0  0
   -3.6735    0.2912    0.6044 N   0  0  1  0  0  0  0  0  0  0  0  0
   -0.6833    0.7559   -0.2454 N   0  0  0  0  0  0  0  0  0  0  0  0
   -2.1193   -2.1366    1.5287 N   0  0  0  0  0  0  0  0  0  0  0  0
   -2.7443   -2.9497   -0.4411 N   0  0  0  0  0  0  0  0  0  0  0  0
   -0.1069   -0.3807   -2.1453 N   0  0  0  0  0  0  0  0  0  0  0  0
   -3.1976    0.8335   -0.6844 C   0  0  1  0  0  0  0  0  0  0  0  0
   -3.4459    2.3504   -0.5891 C   0  0  0  0  0  0  0  0  0  0  0  0
   -4.1048    2.5577    0.7689 C   0  0  2  0  0  0  0  0  0  0  0  0
   -4.7128    1.2029    1.0787 C   0  0  0  0  0  0  0  0  0  0  0  0
   -4.1508   -1.0821    0.5086 C   0  0  0  0  0  0  0  0  0  0  0  0
   -1.7481    0.4936   -0.9603 C   0  0  0  0  0  0  0  0  0  0  0  0
   -3.0153   -2.0709    0.4981 C   0  0  0  0  0  0  0  0  0  0  0  0
    0.2990    0.2003   -1.0124 C   0  0  0  0  0  0  0  0  0  0  0  0
    1.6777    0.2444   -0.6187 C   0  0  0  0  0  0  0  0  0  0  0  0
   -1.2198   -3.1202    1.2274 C   0  0  0  0  0  0  0  0  0  0  0  0
   -1.6261   -3.6071    0.0073 C   0  0  0  0  0  0  0  0  0  0  0  0
    2.0426    0.8666    0.5752 C   0  0  0  0  0  0  0  0  0  0  0  0
    2.6534   -0.3356   -1.4295 C   0  0  0  0  0  0  0  0  0  0  0  0
    3.3831    0.9091    0.9581 C   0  0  0  0  0  0  0  0  0  0  0  0
    3.9939   -0.2932   -1.0467 C   0  0  0  0  0  0  0  0  0  0  0  0
    4.3588    0.3292    0.1472 C   0  0  0  0  0  0  0  0  0  0  0  0
    5.7919    0.3746    0.5568 C   0  0  0  0  0  0  0  0  0  0  0  0
   -3.8117    0.4561   -1.5142 H   0  0  0  0  0  0  0  0  0  0  0  0
   -2.5308    2.9491   -0.6628 H   0  0  0  0  0  0  0  0  0  0  0  0
   -4.1108    2.6769   -1.3987 H   0  0  0  0  0  0  0  0  0  0  0  0
   -3.3583    2.8313    1.5246 H   0  0  0  0  0  0  0  0  0  0  0  0
   -4.9063    1.0902    2.1507 H   0  0  0  0  0  0  0  0  0  0  0  0
   -5.6640    1.0703    0.5462 H   0  0  0  0  0  0  0  0  0  0  0  0
   -4.7962   -1.2368   -0.3649 H   0  0  0  0  0  0  0  0  0  0  0  0
   -4.7618   -1.3252    1.3889 H   0  0  0  0  0  0  0  0  0  0  0  0
   -4.6443    4.3914    0.4250 H   0  0  0  0  0  0  0  0  0  0  0  0
   -2.1193   -1.5617    2.3608 H   0  0  0  0  0  0  0  0  0  0  0  0
   -0.4012   -3.3724    1.8856 H   0  0  0  0  0  0  0  0  0  0  0  0
   -1.1697   -4.3967   -0.5714 H   0  0  0  0  0  0  0  0  0  0  0  0
    1.3056    1.3271    1.2286 H   0  0  0  0  0  0  0  0  0  0  0  0
    2.4070   -0.8293   -2.3662 H   0  0  0  0  0  0  0  0  0  0  0  0
    3.6466    1.3984    1.8917 H   0  0  0  0  0  0  0  0  0  0  0  0
    4.7473   -0.7477   -1.6845 H   0  0  0  0  0  0  0  0  0  0  0  0
  1 27  1  0  0  0  0
  2 27  1  0  0  0  0
  3 27  1  0  0  0  0
  4 13  1  0  0  0  0
  4 36  1  0  0  0  0
  5 10  1  0  0  0  0
  5 16  1  0  0  0  0
  6 11  1  0  0  0  0
  6 14  1  0  0  0  0
  6 15  1  0  0  0  0
  7 16  2  0  0  0  0
  7 18  1  0  0  0  0
  8 17  1  0  0  0  0
  8 20  1  0  0  0  0
  8 37  1  0  0  0  0
  9 17  2  0  0  0  0
  9 21  1  0  0  0  0
 10 18  2  0  0  0  0
 11 12  1  0  0  0  0
 11 16  1  0  0  0  0
 11 28  1  0  0  0  0
 12 13  1  0  0  0  0
 12 29  1  0  0  0  0
 12 30  1  0  0  0  0
 13 14  1  0  0  0  0
 13 31  1  0  0  0  0
 14 32  1  0  0  0  0
 14 33  1  0  0  0  0
 15 17  1  0  0  0  0
 15 34  1  0  0  0  0
 15 35  1  0  0  0  0
 18 19  1  0  0  0  0
 19 22  2  0  0  0  0
 19 23  1  0  0  0  0
 20 21  2  0  0  0  0
 20 38  1  0  0  0  0
 21 39  1  0  0  0  0
 22 24  1  0  0  0  0
 22 40  1  0  0  0  0
 23 25  2  0  0  0  0
 23 41  1  0  0  0  0
 24 26  2  0  0  0  0
 24 42  1  0  0  0  0
 25 26  1  0  0  0  0
 25 43  1  0  0  0  0
 26 27  1  0  0  0  0
M  END
> <PUBCHEM_COMPOUND_CID>
26743644

> <PUBCHEM_CONFORMER_RMSD>
0.8

> <PUBCHEM_CONFORMER_DIVERSEORDER>
1
31
3
17
33
21
35
4
19
24
40
26
22
25
5
37
23
13
36
27
15
9
14
20
42
6
29
18
41
34
8
10
32
2
16
12
39
11
30
28
38
7

> <PUBCHEM_MMFF94_PARTIAL_CHARGES>
34
1 -0.34
10 -0.41
11 0.45
13 0.28
14 0.27
15 0.45
16 0.3
17 0.01
18 0.46
19 0.05
2 -0.34
20 -0.3
21 0.08
22 -0.15
23 -0.15
24 -0.15
25 -0.15
26 -0.14
27 1.16
3 -0.34
36 0.4
37 0.27
38 0.15
39 0.15
4 -0.68
40 0.15
41 0.15
42 0.15
43 0.15
5 -0.02
6 -0.81
7 -0.57
8 0.03
9 -0.57

> <PUBCHEM_EFFECTIVE_ROTOR_COUNT>
6

> <PUBCHEM_PHARMACOPHORE_FEATURES>
10
1 4 acceptor
1 4 donor
1 6 cation
1 8 donor
3 7 10 18 cation
3 8 9 17 cation
5 5 7 10 16 18 rings
5 6 11 12 13 14 rings
5 8 9 17 20 21 rings
6 19 22 23 24 25 26 rings

> <PUBCHEM_HEAVY_ATOM_COUNT>
27

> <PUBCHEM_ATOM_DEF_STEREO_COUNT>
2

> <PUBCHEM_ATOM_UDEF_STEREO_COUNT>
0

> <PUBCHEM_BOND_DEF_STEREO_COUNT>
0

> <PUBCHEM_BOND_UDEF_STEREO_COUNT>
0

> <PUBCHEM_ISOTOPIC_ATOM_COUNT>
0

> <PUBCHEM_COMPONENT_COUNT>
1

> <PUBCHEM_CACTVS_TAUTO_COUNT>
1

> <PUBCHEM_CONFORMER_ID>
0198135C00000001

> <PUBCHEM_MMFF94_ENERGY>
40.5054

> <PUBCHEM_FEATURE_SELFOVERLAP>
50.749

> <PUBCHEM_SHAPE_FINGERPRINT>
11370993 144 18411699868353490190
11405975 8 18336545014595429016
11552529 35 18192706963210172986
12293681 4 18343868809707971864
12422481 6 17531520958927388346
12616971 3 16660648466574342708
12633257 1 18261117395474032757
12788726 201 18046365268783724391
13004483 165 17979922936527168663
13583140 156 17846500382634397794
13994607 96 13829863464595747479
14840074 17 16732701662260161498
14844126 61 18263928907200185187
14856354 85 18261679259296334462
15021287 119 16805323297452616708
15348495 7 18342169008245189704
15537594 2 17022899022075287858
16988056 13 10579761917820884651
16994733 274 16844735197662056473
17844677 252 18340770463677545360
17980427 26 17910104716935516047
19377110 9 17531532104784162028
19438510 23 17630899192428452593
20554085 129 18267568127764040577
21033648 29 18267600021974993453
21401589 2 18059867108501310905
21756936 100 18342167852060268528
23522609 53 17750256793309524884
23728640 28 18188781655565749843
25147074 1 17677910095873286148
4073 2 18411136953271347770
5265222 85 18120127002602382958
5364581 5 18125150795942154184
5924683 9 18340483490594193167
59755656 520 18336262353621876737
602551 16 18261677064415220726
9862522 239 17749665178574921549
9981440 41 17846499205939836223

> <PUBCHEM_SHAPE_MULTIPOLES>
497.18
13.23
3.33
1.54
19.72
1.92
0.36
-6.6
-4.95
-6.4
-1.07
0.32
0.07
0.21

> <PUBCHEM_SHAPE_SELFOVERLAP>
1089.179

> <PUBCHEM_SHAPE_VOLUME>
273.3

> <PUBCHEM_COORDINATE_TYPE>
2
5
10

$$$$
