7672419
  -OEChem-12032416113D

 53 57  0     1  0  0  0  0  0999 V2000
    2.7979    1.1278    0.2360 S   0  0  0  0  0  0  0  0  0  0  0  0
    0.6353   -1.0782   -1.8464 O   0  0  0  0  0  0  0  0  0  0  0  0
   -3.7106    1.9794   -1.2566 O   0  0  0  0  0  0  0  0  0  0  0  0
   -2.0730    3.7313   -0.0788 O   0  0  0  0  0  0  0  0  0  0  0  0
   -3.9288    0.0031   -0.0542 N   0  0  0  0  0  0  0  0  0  0  0  0
   -1.1632   -1.5467   -0.4358 N   0  0  0  0  0  0  0  0  0  0  0  0
   -3.4994   -2.1059   -1.3213 C   0  0  1  0  0  0  0  0  0  0  0  0
   -3.0970   -2.0360    1.1032 C   0  0  2  0  0  0  0  0  0  0  0  0
   -3.6477   -2.8999   -0.0292 C   0  0  0  0  0  0  0  0  0  0  0  0
   -4.2835   -0.7848   -1.2362 C   0  0  0  0  0  0  0  0  0  0  0  0
   -2.0082   -1.8748   -1.5922 C   0  0  0  0  0  0  0  0  0  0  0  0
   -3.9250   -0.7408    1.2144 C   0  0  0  0  0  0  0  0  0  0  0  0
   -1.6372   -1.6938    0.8706 C   0  0  0  0  0  0  0  0  0  0  0  0
   -0.8124   -1.5040    1.9132 C   0  0  0  0  0  0  0  0  0  0  0  0
    0.1712   -1.1850   -0.7099 C   0  0  0  0  0  0  0  0  0  0  0  0
   -3.7031    1.3738   -0.1817 C   0  0  0  0  0  0  0  0  0  0  0  0
    1.0566   -0.9429    0.4810 C   0  0  0  0  0  0  0  0  0  0  0  0
    0.5558   -1.1188    1.7123 C   0  0  0  0  0  0  0  0  0  0  0  0
   -3.4276    2.1344    1.0905 C   0  0  0  0  0  0  0  0  0  0  0  0
    2.4150   -0.5357    0.3072 C   0  0  0  0  0  0  0  0  0  0  0  0
   -3.2077    3.5968    0.7680 C   0  0  0  0  0  0  0  0  0  0  0  0
    3.5421   -1.3209    0.1793 C   0  0  0  0  0  0  0  0  0  0  0  0
    4.7470   -0.5573    0.0196 C   0  0  0  0  0  0  0  0  0  0  0  0
    4.4815    0.8155    0.0327 C   0  0  0  0  0  0  0  0  0  0  0  0
    6.0895   -0.9779   -0.1400 C   0  0  0  0  0  0  0  0  0  0  0  0
    5.5114    1.7662   -0.1080 C   0  0  0  0  0  0  0  0  0  0  0  0
   -1.8173    5.0929   -0.3944 C   0  0  0  0  0  0  0  0  0  0  0  0
    7.1134   -0.0374   -0.2798 C   0  0  0  0  0  0  0  0  0  0  0  0
    6.8251    1.3198   -0.2637 C   0  0  0  0  0  0  0  0  0  0  0  0
   -3.9144   -2.6833   -2.1568 H   0  0  0  0  0  0  0  0  0  0  0  0
   -3.2014   -2.5956    2.0419 H   0  0  0  0  0  0  0  0  0  0  0  0
   -3.1034   -3.8504   -0.0945 H   0  0  0  0  0  0  0  0  0  0  0  0
   -4.7015   -3.1444    0.1518 H   0  0  0  0  0  0  0  0  0  0  0  0
   -4.1378   -0.1994   -2.1503 H   0  0  0  0  0  0  0  0  0  0  0  0
   -5.3575   -0.9959   -1.1607 H   0  0  0  0  0  0  0  0  0  0  0  0
   -1.5823   -2.7941   -2.0171 H   0  0  0  0  0  0  0  0  0  0  0  0
   -1.8721   -1.0989   -2.3562 H   0  0  0  0  0  0  0  0  0  0  0  0
   -4.9712   -0.9824    1.4404 H   0  0  0  0  0  0  0  0  0  0  0  0
   -3.5577   -0.1311    2.0428 H   0  0  0  0  0  0  0  0  0  0  0  0
   -1.1587   -1.6024    2.9368 H   0  0  0  0  0  0  0  0  0  0  0  0
    1.1564   -0.9603    2.6034 H   0  0  0  0  0  0  0  0  0  0  0  0
   -2.5201    1.7251    1.5477 H   0  0  0  0  0  0  0  0  0  0  0  0
   -4.2743    2.0259    1.7753 H   0  0  0  0  0  0  0  0  0  0  0  0
   -3.0302    4.1476    1.6992 H   0  0  0  0  0  0  0  0  0  0  0  0
   -4.0899    4.0262    0.2773 H   0  0  0  0  0  0  0  0  0  0  0  0
    3.5139   -2.4043    0.1980 H   0  0  0  0  0  0  0  0  0  0  0  0
    6.3310   -2.0380   -0.1546 H   0  0  0  0  0  0  0  0  0  0  0  0
    5.2950    2.8307   -0.0965 H   0  0  0  0  0  0  0  0  0  0  0  0
   -2.6672    5.5292   -0.9280 H   0  0  0  0  0  0  0  0  0  0  0  0
   -0.9387    5.1363   -1.0436 H   0  0  0  0  0  0  0  0  0  0  0  0
   -1.6081    5.6651    0.5146 H   0  0  0  0  0  0  0  0  0  0  0  0
    8.1396   -0.3728   -0.4015 H   0  0  0  0  0  0  0  0  0  0  0  0
    7.6280    2.0438   -0.3732 H   0  0  0  0  0  0  0  0  0  0  0  0
  1 20  1  0  0  0  0
  1 24  1  0  0  0  0
  2 15  2  0  0  0  0
  3 16  2  0  0  0  0
  4 21  1  0  0  0  0
  4 27  1  0  0  0  0
  5 10  1  0  0  0  0
  5 12  1  0  0  0  0
  5 16  1  0  0  0  0
  6 11  1  0  0  0  0
  6 13  1  0  0  0  0
  6 15  1  0  0  0  0
  7  9  1  0  0  0  0
  7 10  1  0  0  0  0
  7 11  1  0  0  0  0
  7 30  1  0  0  0  0
  8  9  1  0  0  0  0
  8 12  1  0  0  0  0
  8 13  1  0  0  0  0
  8 31  1  0  0  0  0
  9 32  1  0  0  0  0
  9 33  1  0  0  0  0
 10 34  1  0  0  0  0
 10 35  1  0  0  0  0
 11 36  1  0  0  0  0
 11 37  1  0  0  0  0
 12 38  1  0  0  0  0
 12 39  1  0  0  0  0
 13 14  2  0  0  0  0
 14 18  1  0  0  0  0
 14 40  1  0  0  0  0
 15 17  1  0  0  0  0
 16 19  1  0  0  0  0
 17 18  2  0  0  0  0
 17 20  1  0  0  0  0
 18 41  1  0  0  0  0
 19 21  1  0  0  0  0
 19 42  1  0  0  0  0
 19 43  1  0  0  0  0
 20 22  2  0  0  0  0
 21 44  1  0  0  0  0
 21 45  1  0  0  0  0
 22 23  1  0  0  0  0
 22 46  1  0  0  0  0
 23 24  1  0  0  0  0
 23 25  2  0  0  0  0
 24 26  2  0  0  0  0
 25 28  1  0  0  0  0
 25 47  1  0  0  0  0
 26 29  1  0  0  0  0
 26 48  1  0  0  0  0
 27 49  1  0  0  0  0
 27 50  1  0  0  0  0
 27 51  1  0  0  0  0
 28 29  2  0  0  0  0
 28 52  1  0  0  0  0
 29 53  1  0  0  0  0
M  END
> <PUBCHEM_COMPOUND_CID>
7672419

> <PUBCHEM_CONFORMER_RMSD>
0.8

> <PUBCHEM_CONFORMER_DIVERSEORDER>
1
17
11
16
13
27
6
22
28
19
18
8
25
26
24
10
9
15
5
3
20
21
23
12
7
14
4
2

> <PUBCHEM_MMFF94_PARTIAL_CHARGES>
33
1 -0.08
10 0.3
11 0.3
12 0.3
13 -0.03
14 -0.15
15 0.62
16 0.57
17 0.06
18 -0.15
19 0.06
2 -0.57
20 -0.01
21 0.28
22 -0.15
24 0.04
25 -0.15
26 -0.15
27 0.28
28 -0.15
29 -0.15
3 -0.57
4 -0.56
40 0.15
41 0.15
46 0.15
47 0.15
48 0.15
5 -0.66
52 0.15
53 0.15
6 -0.47
8 0.14

> <PUBCHEM_EFFECTIVE_ROTOR_COUNT>
6

> <PUBCHEM_PHARMACOPHORE_FEATURES>
8
1 2 acceptor
1 3 acceptor
1 4 acceptor
5 1 20 22 23 24 rings
6 23 24 25 26 28 29 rings
6 5 7 8 9 10 12 rings
6 6 13 14 15 17 18 rings
6 6 7 8 9 11 13 rings

> <PUBCHEM_HEAVY_ATOM_COUNT>
29

> <PUBCHEM_ATOM_DEF_STEREO_COUNT>
2

> <PUBCHEM_ATOM_UDEF_STEREO_COUNT>
0

> <PUBCHEM_BOND_DEF_STEREO_COUNT>
0

> <PUBCHEM_BOND_UDEF_STEREO_COUNT>
0

> <PUBCHEM_ISOTOPIC_ATOM_COUNT>
0

> <PUBCHEM_COMPONENT_COUNT>
1

> <PUBCHEM_CACTVS_TAUTO_COUNT>
1

> <PUBCHEM_CONFORMER_ID>
0075126300000001

> <PUBCHEM_MMFF94_ENERGY>
74.6367

> <PUBCHEM_FEATURE_SELFOVERLAP>
42.234

> <PUBCHEM_SHAPE_FINGERPRINT>
100830 39 18409449159804616724
10087517 78 18409447003435583128
10165383 225 17561091268158666195
10291535 26 18334861640427941291
10670039 82 18412820274886417440
11477941 20 18129084775025185013
11578080 2 17773616934856941455
12107183 9 17903913362591214994
12236239 1 17703236221555229290
12788726 201 18335129895690649672
14251764 75 17693383243971031025
14347329 18 18271801264394083160
14713325 29 18342741814726815031
14856354 85 18267872868130558342
15064981 113 17914596281663817398
15183329 4 18343582958670977222
15348495 7 11097857419557706694
15484559 13 14105201748936129952
15876981 60 18335985388751321815
17844677 252 18337677515924904446
19930381 70 17185028913418537649
21033650 10 18265077785455685718
21236236 1 18410576188860252568
21859007 373 18201424862901672976
22956985 138 16818005343640604403
23569943 247 16589406628803180682
25019877 29 17346052129846468199
2838139 119 18341332202302385784
3383291 50 9007052479389397229
3493558 16 18337963294411743156
3610482 184 18115609088070203228
50677037 204 18335138722102481684
5080951 261 11887393517728221290
5171179 24 17987787656884762088
5283173 99 18411983529700617920
531348 171 18272933799951966894
550186 7 18272654510896884348
57527306 92 18259982674590249685
6700243 42 17627548082127527790
7808743 9 18268708320905202297

> <PUBCHEM_SHAPE_MULTIPOLES>
573.09
14.15
4.24
1.42
26.48
6.87
0.04
2.3
-1.74
-6.41
-0.19
-1.4
-0.65
-0.46

> <PUBCHEM_SHAPE_SELFOVERLAP>
1245.307

> <PUBCHEM_SHAPE_VOLUME>
313.6

> <PUBCHEM_COORDINATE_TYPE>
2
5
10

$$$$
