11883006
  -OEChem-12032416123D

 78 81  0     1  0  0  0  0  0999 V2000
   -1.0252    3.7507   -0.2788 S   0  0  0  0  0  0  0  0  0  0  0  0
   -6.4676   -1.8925   -0.6789 O   0  0  0  0  0  0  0  0  0  0  0  0
   -7.1454    0.1119    0.4469 O   0  0  0  0  0  0  0  0  0  0  0  0
    1.5063   -0.8742   -0.7967 O   0  0  0  0  0  0  0  0  0  0  0  0
    3.4252    2.4756    0.0495 O   0  0  0  0  0  0  0  0  0  0  0  0
    0.5773    1.7411    0.0146 N   0  0  0  0  0  0  0  0  0  0  0  0
    2.3153   -1.8175    1.1618 N   0  0  0  0  0  0  0  0  0  0  0  0
    1.5900    3.9190   -0.1871 N   0  0  0  0  0  0  0  0  0  0  0  0
   -2.5241   -0.4888    0.5405 C   0  0  2  0  0  0  0  0  0  0  0  0
   -3.4296    0.4104   -0.4118 C   0  0  1  0  0  0  0  0  0  0  0  0
   -4.9582    0.0341   -0.5108 C   0  0  1  0  0  0  0  0  0  0  0  0
   -0.9948   -0.2265    0.1585 C   0  0  1  0  0  0  0  0  0  0  0  0
   -2.8405   -1.9862    0.2896 C   0  0  0  0  0  0  0  0  0  0  0  0
   -5.0955   -1.5013   -0.7146 C   0  0  1  0  0  0  0  0  0  0  0  0
   -3.1713    1.9272   -0.1760 C   0  0  0  0  0  0  0  0  0  0  0  0
   -4.3262   -2.3160    0.3193 C   0  0  0  0  0  0  0  0  0  0  0  0
   -2.7399   -0.1802    2.0426 C   0  0  0  0  0  0  0  0  0  0  0  0
   -0.7146    1.2485    0.0265 C   0  0  0  0  0  0  0  0  0  0  0  0
   -5.8137    0.5097    0.6842 C   0  0  0  0  0  0  0  0  0  0  0  0
   -5.5699    0.7233   -1.7633 C   0  0  0  0  0  0  0  0  0  0  0  0
   -1.7046    2.1952   -0.1409 C   0  0  0  0  0  0  0  0  0  0  0  0
    0.0203   -0.9105    1.0840 C   0  0  0  0  0  0  0  0  0  0  0  0
    1.3363   -1.1906    0.3838 C   0  0  0  0  0  0  0  0  0  0  0  0
    0.5348    3.0474   -0.1331 C   0  0  0  0  0  0  0  0  0  0  0  0
    3.6363   -2.1542    0.6362 C   0  0  0  0  0  0  0  0  0  0  0  0
    2.0913   -2.1820    2.5553 C   0  0  0  0  0  0  0  0  0  0  0  0
    2.9598    3.6042   -0.0956 C   0  0  0  0  0  0  0  0  0  0  0  0
    3.8928    4.8380   -0.1932 C   0  0  0  0  0  0  0  0  0  0  0  0
    3.6550   -3.5087   -0.0113 C   0  0  0  0  0  0  0  0  0  0  0  0
    3.5703    5.8165    0.9523 C   0  0  0  0  0  0  0  0  0  0  0  0
    3.6721    5.5661   -1.5285 C   0  0  0  0  0  0  0  0  0  0  0  0
    5.3614    4.4051   -0.0613 C   0  0  0  0  0  0  0  0  0  0  0  0
    3.9564   -4.6400    0.7471 C   0  0  0  0  0  0  0  0  0  0  0  0
    3.3704   -3.6359   -1.3709 C   0  0  0  0  0  0  0  0  0  0  0  0
    3.9736   -5.8985    0.1458 C   0  0  0  0  0  0  0  0  0  0  0  0
    3.3874   -4.8945   -1.9720 C   0  0  0  0  0  0  0  0  0  0  0  0
    3.6890   -6.0258   -1.2137 C   0  0  0  0  0  0  0  0  0  0  0  0
   -3.0379    0.2026   -1.4228 H   0  0  0  0  0  0  0  0  0  0  0  0
   -0.8723   -0.6322   -0.8569 H   0  0  0  0  0  0  0  0  0  0  0  0
   -2.3396   -2.6205    1.0296 H   0  0  0  0  0  0  0  0  0  0  0  0
   -2.4440   -2.2866   -0.6893 H   0  0  0  0  0  0  0  0  0  0  0  0
   -4.7197   -1.7629   -1.7128 H   0  0  0  0  0  0  0  0  0  0  0  0
   -3.6254    2.5161   -0.9800 H   0  0  0  0  0  0  0  0  0  0  0  0
   -3.6175    2.2583    0.7677 H   0  0  0  0  0  0  0  0  0  0  0  0
   -4.7471   -2.1696    1.3202 H   0  0  0  0  0  0  0  0  0  0  0  0
   -4.4607   -3.3851    0.1101 H   0  0  0  0  0  0  0  0  0  0  0  0
   -2.0836   -0.7923    2.6712 H   0  0  0  0  0  0  0  0  0  0  0  0
   -3.7485   -0.4054    2.3828 H   0  0  0  0  0  0  0  0  0  0  0  0
   -2.5303    0.8638    2.2914 H   0  0  0  0  0  0  0  0  0  0  0  0
   -5.5104    0.0657    1.6288 H   0  0  0  0  0  0  0  0  0  0  0  0
   -5.7953    1.5987    0.7902 H   0  0  0  0  0  0  0  0  0  0  0  0
   -6.5825    0.3672   -1.9834 H   0  0  0  0  0  0  0  0  0  0  0  0
   -5.6317    1.8098   -1.6413 H   0  0  0  0  0  0  0  0  0  0  0  0
   -4.9650    0.5236   -2.6554 H   0  0  0  0  0  0  0  0  0  0  0  0
    0.2073   -0.2774    1.9594 H   0  0  0  0  0  0  0  0  0  0  0  0
   -0.3642   -1.8797    1.4137 H   0  0  0  0  0  0  0  0  0  0  0  0
   -6.5065   -2.8477   -0.8566 H   0  0  0  0  0  0  0  0  0  0  0  0
   -7.6791    0.4231    1.1977 H   0  0  0  0  0  0  0  0  0  0  0  0
    1.3218    4.8911   -0.3068 H   0  0  0  0  0  0  0  0  0  0  0  0
    3.9181   -1.3957   -0.1051 H   0  0  0  0  0  0  0  0  0  0  0  0
    4.3833   -2.0874    1.4365 H   0  0  0  0  0  0  0  0  0  0  0  0
    2.8889   -1.7432    3.1634 H   0  0  0  0  0  0  0  0  0  0  0  0
    1.1416   -1.8522    2.9725 H   0  0  0  0  0  0  0  0  0  0  0  0
    2.1337   -3.2713    2.6438 H   0  0  0  0  0  0  0  0  0  0  0  0
    4.2739    6.6568    0.9642 H   0  0  0  0  0  0  0  0  0  0  0  0
    3.6315    5.3129    1.9240 H   0  0  0  0  0  0  0  0  0  0  0  0
    2.5629    6.2377    0.8688 H   0  0  0  0  0  0  0  0  0  0  0  0
    3.8135    4.8800   -2.3715 H   0  0  0  0  0  0  0  0  0  0  0  0
    2.6637    5.9839   -1.6155 H   0  0  0  0  0  0  0  0  0  0  0  0
    4.3800    6.3941   -1.6479 H   0  0  0  0  0  0  0  0  0  0  0  0
    6.0375    5.2656   -0.1168 H   0  0  0  0  0  0  0  0  0  0  0  0
    5.6405    3.7104   -0.8619 H   0  0  0  0  0  0  0  0  0  0  0  0
    5.5431    3.8973    0.8930 H   0  0  0  0  0  0  0  0  0  0  0  0
    4.1836   -4.5548    1.8063 H   0  0  0  0  0  0  0  0  0  0  0  0
    3.1385   -2.7644   -1.9766 H   0  0  0  0  0  0  0  0  0  0  0  0
    4.2094   -6.7792    0.7359 H   0  0  0  0  0  0  0  0  0  0  0  0
    3.1670   -4.9937   -3.0309 H   0  0  0  0  0  0  0  0  0  0  0  0
    3.7027   -7.0056   -1.6820 H   0  0  0  0  0  0  0  0  0  0  0  0
  1 21  1  0  0  0  0
  1 24  1  0  0  0  0
  2 14  1  0  0  0  0
  2 57  1  0  0  0  0
  3 19  1  0  0  0  0
  3 58  1  0  0  0  0
  4 23  2  0  0  0  0
  5 27  2  0  0  0  0
  6 18  1  0  0  0  0
  6 24  2  0  0  0  0
  7 23  1  0  0  0  0
  7 25  1  0  0  0  0
  7 26  1  0  0  0  0
  8 24  1  0  0  0  0
  8 27  1  0  0  0  0
  8 59  1  0  0  0  0
  9 10  1  0  0  0  0
  9 12  1  0  0  0  0
  9 13  1  0  0  0  0
  9 17  1  0  0  0  0
 10 11  1  0  0  0  0
 10 15  1  0  0  0  0
 10 38  1  0  0  0  0
 11 14  1  0  0  0  0
 11 19  1  0  0  0  0
 11 20  1  0  0  0  0
 12 18  1  0  0  0  0
 12 22  1  0  0  0  0
 12 39  1  0  0  0  0
 13 16  1  0  0  0  0
 13 40  1  0  0  0  0
 13 41  1  0  0  0  0
 14 16  1  0  0  0  0
 14 42  1  0  0  0  0
 15 21  1  0  0  0  0
 15 43  1  0  0  0  0
 15 44  1  0  0  0  0
 16 45  1  0  0  0  0
 16 46  1  0  0  0  0
 17 47  1  0  0  0  0
 17 48  1  0  0  0  0
 17 49  1  0  0  0  0
 18 21  2  0  0  0  0
 19 50  1  0  0  0  0
 19 51  1  0  0  0  0
 20 52  1  0  0  0  0
 20 53  1  0  0  0  0
 20 54  1  0  0  0  0
 22 23  1  0  0  0  0
 22 55  1  0  0  0  0
 22 56  1  0  0  0  0
 25 29  1  0  0  0  0
 25 60  1  0  0  0  0
 25 61  1  0  0  0  0
 26 62  1  0  0  0  0
 26 63  1  0  0  0  0
 26 64  1  0  0  0  0
 27 28  1  0  0  0  0
 28 30  1  0  0  0  0
 28 31  1  0  0  0  0
 28 32  1  0  0  0  0
 29 33  2  0  0  0  0
 29 34  1  0  0  0  0
 30 65  1  0  0  0  0
 30 66  1  0  0  0  0
 30 67  1  0  0  0  0
 31 68  1  0  0  0  0
 31 69  1  0  0  0  0
 31 70  1  0  0  0  0
 32 71  1  0  0  0  0
 32 72  1  0  0  0  0
 32 73  1  0  0  0  0
 33 35  1  0  0  0  0
 33 74  1  0  0  0  0
 34 36  2  0  0  0  0
 34 75  1  0  0  0  0
 35 37  2  0  0  0  0
 35 76  1  0  0  0  0
 36 37  1  0  0  0  0
 36 77  1  0  0  0  0
 37 78  1  0  0  0  0
M  END
> <PUBCHEM_COMPOUND_CID>
11883006

> <PUBCHEM_CONFORMER_RMSD>
1

> <PUBCHEM_CONFORMER_DIVERSEORDER>
1
55
30
32
29
73
24
70
36
26
39
61
51
75
71
6
50
54
76
9
27
16
49
72
60
53
25
2
13
69
63
23
34
5
64
3
45
77
33
31
15
52
20
19
37
48
59
11
38
56
12
46
67
44
66
62
22
28
58
43
14
7
65
74
17
35
40
68
21
18
42
10
47
4
57
8
41

> <PUBCHEM_MMFF94_PARTIAL_CHARGES>
35
1 -0.08
12 0.18
14 0.28
15 0.18
18 0.05
19 0.28
2 -0.68
21 -0.14
22 0.06
23 0.57
24 0.44
25 0.44
26 0.3
27 0.57
28 0.06
29 -0.14
3 -0.68
33 -0.15
34 -0.15
35 -0.15
36 -0.15
37 -0.15
4 -0.57
5 -0.57
57 0.4
58 0.4
59 0.37
6 -0.57
7 -0.66
74 0.15
75 0.15
76 0.15
77 0.15
78 0.15
8 -0.49

> <PUBCHEM_EFFECTIVE_ROTOR_COUNT>
10.2

> <PUBCHEM_PHARMACOPHORE_FEATURES>
12
1 2 acceptor
1 2 donor
1 3 acceptor
1 3 donor
1 4 acceptor
1 5 acceptor
1 8 donor
4 28 30 31 32 hydrophobe
5 1 6 18 21 24 rings
6 29 33 34 35 36 37 rings
6 9 10 11 13 14 16 rings
6 9 10 12 15 18 21 rings

> <PUBCHEM_HEAVY_ATOM_COUNT>
37

> <PUBCHEM_ATOM_DEF_STEREO_COUNT>
5

> <PUBCHEM_ATOM_UDEF_STEREO_COUNT>
0

> <PUBCHEM_BOND_DEF_STEREO_COUNT>
0

> <PUBCHEM_BOND_UDEF_STEREO_COUNT>
0

> <PUBCHEM_ISOTOPIC_ATOM_COUNT>
0

> <PUBCHEM_COMPONENT_COUNT>
1

> <PUBCHEM_CACTVS_TAUTO_COUNT>
3

> <PUBCHEM_CONFORMER_ID>
00B551FE00000001

> <PUBCHEM_MMFF94_ENERGY>
121.4573

> <PUBCHEM_FEATURE_SELFOVERLAP>
61.042

> <PUBCHEM_SHAPE_FINGERPRINT>
10050765 1 18408881816358367917
11135926 11 18266170811535716853
11297010 23 18264469836624165325
11578080 2 17097738414928280949
11763715 3 17976841786996903566
11991303 11 17543355312046804652
12788726 201 17179686957407303208
13757389 114 17259633538900912836
13761468 95 16310502073606429830
14347332 77 17905045854898758275
14790565 3 17974286835259404573
14937079 2 18049156671199300501
14955137 171 17976279953582005089
15200665 1 17257371276457185152
15400415 2 18050567644753601997
15664445 248 18409445878149033074
15684970 41 18192726539502154403
15927050 60 18194682802975014279
19311894 1 16322868933419024158
21033650 10 17182238924545081490
21133665 82 17973442389756347304
21796203 349 17617139865026556769
22311459 1 18410294714141978716
23559900 14 18337944594007793011
24771750 20 18116725195256542628
25019877 29 17973158723206723389
3383291 50 17762618799296780840
3610482 184 17035608087992348366
376196 1 18044093673449974122
38695281 34 18050848020396993538
4017518 198 18122067774249363172
4461854 278 17472435716506828355
5085150 59 17976527631403482920
5385378 56 18336551633182704609
6058803 2 18202008720581830601
6700243 42 17268093258954138582
70251023 43 18337958887432153051

> <PUBCHEM_SHAPE_MULTIPOLES>
726.87
13.24
10.42
1.47
15.98
5.51
-0.21
-7.78
2.33
-26.07
2.74
-0.52
-1.01
0.73

> <PUBCHEM_SHAPE_SELFOVERLAP>
1522.621

> <PUBCHEM_SHAPE_VOLUME>
415.7

> <PUBCHEM_COORDINATE_TYPE>
2
5
10

$$$$
