45361088
  -OEChem-12032416233D

 64 67  0     1  0  0  0  0  0999 V2000
    0.7333   -0.5334    1.3583 O   0  0  0  0  0  0  0  0  0  0  0  0
   -5.5812    1.0309    0.3479 O   0  0  0  0  0  0  0  0  0  0  0  0
   -5.3058   -3.8122   -0.6154 O   0  0  0  0  0  0  0  0  0  0  0  0
   -0.9728    2.1254   -0.8800 N   0  0  1  0  0  0  0  0  0  0  0  0
    2.4151    0.9581   -0.1382 N   0  0  1  0  0  0  0  0  0  0  0  0
   -0.6946    1.1900    1.8350 N   0  0  0  0  0  0  0  0  0  0  0  0
   -4.8313   -1.1626    0.2180 N   0  0  0  0  0  0  0  0  0  0  0  0
    0.4947    2.2919   -0.7898 C   0  0  1  0  0  0  0  0  0  0  0  0
    1.2402    1.6543    0.4192 C   0  0  1  0  0  0  0  0  0  0  0  0
    1.2650    1.7049   -1.9873 C   0  0  0  0  0  0  0  0  0  0  0  0
    2.6715    1.5358   -1.4528 C   0  0  0  0  0  0  0  0  0  0  0  0
   -1.7348    2.7635    0.2296 C   0  0  2  0  0  0  0  0  0  0  0  0
    0.4218    0.6493    1.2257 C   0  0  0  0  0  0  0  0  0  0  0  0
   -1.1326    2.5569    1.6332 C   0  0  0  0  0  0  0  0  0  0  0  0
   -3.1837    2.2336    0.2638 C   0  0  0  0  0  0  0  0  0  0  0  0
    3.5869    1.0202    0.7261 C   0  0  0  0  0  0  0  0  0  0  0  0
   -1.4746    2.5983   -2.1814 C   0  0  0  0  0  0  0  0  0  0  0  0
   -3.2354    0.7193    0.2042 C   0  0  0  0  0  0  0  0  0  0  0  0
    4.5688   -0.0790    0.4191 C   0  0  0  0  0  0  0  0  0  0  0  0
   -4.6565    0.2189    0.2651 C   0  0  0  0  0  0  0  0  0  0  0  0
    4.3143   -1.3814    0.8492 C   0  0  0  0  0  0  0  0  0  0  0  0
    5.7343    0.2052   -0.2925 C   0  0  0  0  0  0  0  0  0  0  0  0
   -6.1777   -1.7323    0.2670 C   0  0  0  0  0  0  0  0  0  0  0  0
   -3.7546   -2.1582    0.2475 C   0  0  0  0  0  0  0  0  0  0  0  0
    5.2253   -2.3994    0.5675 C   0  0  0  0  0  0  0  0  0  0  0  0
    6.6453   -0.8127   -0.5742 C   0  0  0  0  0  0  0  0  0  0  0  0
    6.3907   -2.1151   -0.1443 C   0  0  0  0  0  0  0  0  0  0  0  0
   -6.3289   -2.8267   -0.7800 C   0  0  0  0  0  0  0  0  0  0  0  0
   -4.0077   -3.2397   -0.7955 C   0  0  0  0  0  0  0  0  0  0  0  0
    7.3648   -3.2040   -0.4450 C   0  0  0  0  0  0  0  0  0  0  0  0
    0.7179    3.3701   -0.7742 H   0  0  0  0  0  0  0  0  0  0  0  0
    1.5664    2.4571    1.0939 H   0  0  0  0  0  0  0  0  0  0  0  0
    0.8542    0.7296   -2.2810 H   0  0  0  0  0  0  0  0  0  0  0  0
    1.2495    2.3657   -2.8602 H   0  0  0  0  0  0  0  0  0  0  0  0
    3.2602    0.8726   -2.0940 H   0  0  0  0  0  0  0  0  0  0  0  0
    3.1712    2.5109   -1.3916 H   0  0  0  0  0  0  0  0  0  0  0  0
   -1.7797    3.8497    0.0686 H   0  0  0  0  0  0  0  0  0  0  0  0
   -0.2875    3.2342    1.7928 H   0  0  0  0  0  0  0  0  0  0  0  0
   -1.8582    2.7849    2.4220 H   0  0  0  0  0  0  0  0  0  0  0  0
   -3.6921    2.5961    1.1674 H   0  0  0  0  0  0  0  0  0  0  0  0
   -3.7590    2.6592   -0.5676 H   0  0  0  0  0  0  0  0  0  0  0  0
    3.2908    0.8886    1.7765 H   0  0  0  0  0  0  0  0  0  0  0  0
    4.0722    2.0049    0.6906 H   0  0  0  0  0  0  0  0  0  0  0  0
   -1.2381    0.5925    2.4501 H   0  0  0  0  0  0  0  0  0  0  0  0
   -1.2630    3.6627   -2.3338 H   0  0  0  0  0  0  0  0  0  0  0  0
   -1.0366    2.0338   -3.0105 H   0  0  0  0  0  0  0  0  0  0  0  0
   -2.5518    2.4457   -2.2909 H   0  0  0  0  0  0  0  0  0  0  0  0
   -2.7951    0.3443   -0.7252 H   0  0  0  0  0  0  0  0  0  0  0  0
   -2.7310    0.2668    1.0555 H   0  0  0  0  0  0  0  0  0  0  0  0
    3.4115   -1.6163    1.4062 H   0  0  0  0  0  0  0  0  0  0  0  0
    5.9438    1.2153   -0.6345 H   0  0  0  0  0  0  0  0  0  0  0  0
   -6.9388   -0.9594    0.1243 H   0  0  0  0  0  0  0  0  0  0  0  0
   -6.3017   -2.1507    1.2727 H   0  0  0  0  0  0  0  0  0  0  0  0
   -3.7689   -2.5951    1.2531 H   0  0  0  0  0  0  0  0  0  0  0  0
   -2.7699   -1.7162    0.0890 H   0  0  0  0  0  0  0  0  0  0  0  0
    5.0152   -3.4102    0.9068 H   0  0  0  0  0  0  0  0  0  0  0  0
    7.5487   -0.5792   -1.1312 H   0  0  0  0  0  0  0  0  0  0  0  0
   -6.2773   -2.4183   -1.7963 H   0  0  0  0  0  0  0  0  0  0  0  0
   -7.2970   -3.3244   -0.6671 H   0  0  0  0  0  0  0  0  0  0  0  0
   -3.2697   -4.0412   -0.6921 H   0  0  0  0  0  0  0  0  0  0  0  0
   -3.9278   -2.8389   -1.8130 H   0  0  0  0  0  0  0  0  0  0  0  0
    7.1163   -3.6768   -1.4003 H   0  0  0  0  0  0  0  0  0  0  0  0
    8.3872   -2.8152   -0.5012 H   0  0  0  0  0  0  0  0  0  0  0  0
    7.3560   -3.9693    0.3386 H   0  0  0  0  0  0  0  0  0  0  0  0
  1 13  2  0  0  0  0
  2 20  2  0  0  0  0
  3 28  1  0  0  0  0
  3 29  1  0  0  0  0
  4  8  1  0  0  0  0
  4 12  1  0  0  0  0
  4 17  1  0  0  0  0
  5  9  1  0  0  0  0
  5 11  1  0  0  0  0
  5 16  1  0  0  0  0
  6 13  1  0  0  0  0
  6 14  1  0  0  0  0
  6 44  1  0  0  0  0
  7 20  1  0  0  0  0
  7 23  1  0  0  0  0
  7 24  1  0  0  0  0
  8  9  1  0  0  0  0
  8 10  1  0  0  0  0
  8 31  1  0  0  0  0
  9 13  1  0  0  0  0
  9 32  1  0  0  0  0
 10 11  1  0  0  0  0
 10 33  1  0  0  0  0
 10 34  1  0  0  0  0
 11 35  1  0  0  0  0
 11 36  1  0  0  0  0
 12 14  1  0  0  0  0
 12 15  1  0  0  0  0
 12 37  1  0  0  0  0
 14 38  1  0  0  0  0
 14 39  1  0  0  0  0
 15 18  1  0  0  0  0
 15 40  1  0  0  0  0
 15 41  1  0  0  0  0
 16 19  1  0  0  0  0
 16 42  1  0  0  0  0
 16 43  1  0  0  0  0
 17 45  1  0  0  0  0
 17 46  1  0  0  0  0
 17 47  1  0  0  0  0
 18 20  1  0  0  0  0
 18 48  1  0  0  0  0
 18 49  1  0  0  0  0
 19 21  2  0  0  0  0
 19 22  1  0  0  0  0
 21 25  1  0  0  0  0
 21 50  1  0  0  0  0
 22 26  2  0  0  0  0
 22 51  1  0  0  0  0
 23 28  1  0  0  0  0
 23 52  1  0  0  0  0
 23 53  1  0  0  0  0
 24 29  1  0  0  0  0
 24 54  1  0  0  0  0
 24 55  1  0  0  0  0
 25 27  2  0  0  0  0
 25 56  1  0  0  0  0
 26 27  1  0  0  0  0
 26 57  1  0  0  0  0
 27 30  1  0  0  0  0
 28 58  1  0  0  0  0
 28 59  1  0  0  0  0
 29 60  1  0  0  0  0
 29 61  1  0  0  0  0
 30 62  1  0  0  0  0
 30 63  1  0  0  0  0
 30 64  1  0  0  0  0
M  END
> <PUBCHEM_COMPOUND_CID>
45361088

> <PUBCHEM_CONFORMER_RMSD>
1

> <PUBCHEM_CONFORMER_DIVERSEORDER>
1
144
133
174
85
128
44
66
175
170
195
120
51
176
130
158
196
180
185
142
192
39
47
115
157
171
121
126
112
54
49
194
187
37
135
53
117
148
140
35
71
52
67
154
74
13
156
189
178
11
188
184
179
165
59
63
94
41
84
50
119
169
172
110
147
65
60
167
14
48
8
193
21
32
102
38
138
99
190
79
98
181
166
23
56
155
96
108
34
145
62
33
137
104
129
69
132
163
182
103
81
118
2
177
30
58
186
105
87
153
106
72
45
116
97
191
28
91
111
150
76
152
18
24
149
173
161
57
136
78
17
164
29
183
77
6
123
160
5
12
141
95
22
3
113
82
90
100
143
25
40
124
131
86
15
127
36
42
46
4
20
134
107
55
159
101
61
122
146
7
73
93
10
26
83
89
125
31
162
151
27
80
75
114
19
9
68
109
139
43
70
64
168
92
88
16

> <PUBCHEM_MMFF94_PARTIAL_CHARGES>
33
1 -0.57
11 0.27
12 0.27
13 0.57
14 0.3
16 0.41
17 0.27
18 0.06
19 -0.14
2 -0.57
20 0.57
21 -0.15
22 -0.15
23 0.3
24 0.3
25 -0.15
26 -0.15
27 -0.14
28 0.28
29 0.28
3 -0.56
30 0.14
4 -0.81
44 0.37
5 -0.81
50 0.15
51 0.15
56 0.15
57 0.15
6 -0.73
7 -0.66
8 0.27
9 0.33

> <PUBCHEM_EFFECTIVE_ROTOR_COUNT>
8.6

> <PUBCHEM_PHARMACOPHORE_FEATURES>
10
1 1 acceptor
1 2 acceptor
1 3 acceptor
1 4 cation
1 5 cation
1 6 donor
5 5 8 9 10 11 rings
6 19 21 22 25 26 27 rings
6 3 7 23 24 28 29 rings
7 4 6 8 9 12 13 14 rings

> <PUBCHEM_HEAVY_ATOM_COUNT>
30

> <PUBCHEM_ATOM_DEF_STEREO_COUNT>
3

> <PUBCHEM_ATOM_UDEF_STEREO_COUNT>
0

> <PUBCHEM_BOND_DEF_STEREO_COUNT>
0

> <PUBCHEM_BOND_UDEF_STEREO_COUNT>
0

> <PUBCHEM_ISOTOPIC_ATOM_COUNT>
0

> <PUBCHEM_COMPONENT_COUNT>
1

> <PUBCHEM_CACTVS_TAUTO_COUNT>
3

> <PUBCHEM_CONFORMER_ID>
02B427C000000001

> <PUBCHEM_MMFF94_ENERGY>
80.8059

> <PUBCHEM_FEATURE_SELFOVERLAP>
50.783

> <PUBCHEM_SHAPE_FINGERPRINT>
10042902 136 18408603677515496806
10622 236 18335135414433552167
11135609 201 8214150698646751399
11135609 99 18272368655749941366
11285246 1 17677614335777593267
11497681 19 18409171017848615492
11524674 6 17418086577703971831
117089 54 18044667635842870363
11796584 16 18343024350185823437
12422481 6 17989486325024174062
12522641 68 17104232997800977836
12633257 1 16127810910869566509
1361 4 18342176657482119414
13690498 29 17822009753168350301
13782708 43 18201995542783110314
13885169 86 9727641630649852399
13911987 19 15068345588052402417
13947920 24 12251901482143384263
14068700 675 18411136935516491928
14251751 18 18413672426103667855
14251764 30 18342171206646024035
14289585 56 17167850955331604055
14950920 106 17775569749291748113
15163728 17 11026061461894985617
15728490 51 18412262878842460228
16112460 7 11455586817399649986
20028762 73 18411136956907451694
20775438 99 17754734154211017530
20775530 9 18336250323988654243
21033648 29 15338575881458582185
21223535 225 15719658897346625237
21424621 283 10087634901779523620
21585480 29 17557121107005075742
21756936 100 8070025532433633721
21774942 28 8574709092852082422
23559900 14 18341606036015760864
25122255 55 18272379629006202158
2748736 6 9151179722662577067
32027 91 18200021984642857481
392239 28 13254794612265914832
397830 11 18130211749248812832
439807 62 18338238275656339043
474113 269 18059281172247087631
5081480 168 15502381165970571175
5326457 24 18335988584154254746
54039377 194 18261685830623067227
563151 248 18197801924416210977
7970288 3 18194679496108951607
8863177 126 18343298172084356544
96874 4 18410008853423916942

> <PUBCHEM_SHAPE_MULTIPOLES>
579.85
17.81
4.43
1.47
9.57
2.64
0.29
22.19
1.58
-3.77
1.13
-0.03
-1
-1.23

> <PUBCHEM_SHAPE_SELFOVERLAP>
1215.813

> <PUBCHEM_SHAPE_VOLUME>
326.2

> <PUBCHEM_COORDINATE_TYPE>
2
5
10

$$$$
