45784187
  -OEChem-12032416203D

 42 45  0     1  0  0  0  0  0999 V2000
   -6.3908    2.0556    0.6944 F   0  0  0  0  0  0  0  0  0  0  0  0
   -7.6604   -0.3512    0.4263 F   0  0  0  0  0  0  0  0  0  0  0  0
    3.1859   -1.4889    0.4356 O   0  0  0  0  0  0  0  0  0  0  0  0
   -1.3683   -0.4064   -0.1949 N   0  0  1  0  0  0  0  0  0  0  0  0
    2.7429    0.6930    0.0113 N   0  0  0  0  0  0  0  0  0  0  0  0
    0.8197   -0.9076    0.4839 C   0  0  1  0  0  0  0  0  0  0  0  0
    0.0834   -0.1759    1.6196 C   0  0  0  0  0  0  0  0  0  0  0  0
   -0.0416   -0.6584   -0.7615 C   0  0  0  0  0  0  0  0  0  0  0  0
   -1.1279    0.4655    0.9549 C   0  0  0  0  0  0  0  0  0  0  0  0
   -2.2805    0.1886   -1.1603 C   0  0  0  0  0  0  0  0  0  0  0  0
    2.2619   -0.4976    0.2946 C   0  0  0  0  0  0  0  0  0  0  0  0
   -3.7180    0.0441   -0.7364 C   0  0  0  0  0  0  0  0  0  0  0  0
    4.0995    0.4817   -0.0417 C   0  0  0  0  0  0  0  0  0  0  0  0
    4.3745   -0.8529    0.2176 C   0  0  0  0  0  0  0  0  0  0  0  0
   -4.4020    1.1383   -0.2067 C   0  0  0  0  0  0  0  0  0  0  0  0
   -4.3658   -1.1836   -0.8735 C   0  0  0  0  0  0  0  0  0  0  0  0
    5.1653    1.3553   -0.3007 C   0  0  0  0  0  0  0  0  0  0  0  0
    5.6476   -1.4085    0.2425 C   0  0  0  0  0  0  0  0  0  0  0  0
    6.4658    0.8310   -0.2844 C   0  0  0  0  0  0  0  0  0  0  0  0
    6.6996   -0.5236   -0.0180 C   0  0  0  0  0  0  0  0  0  0  0  0
   -5.7339    1.0048    0.1858 C   0  0  0  0  0  0  0  0  0  0  0  0
   -5.6976   -1.3170   -0.4808 C   0  0  0  0  0  0  0  0  0  0  0  0
   -6.3817   -0.2228    0.0488 C   0  0  0  0  0  0  0  0  0  0  0  0
    7.6223    1.7362   -0.5564 C   0  0  0  0  0  0  0  0  0  0  0  0
    0.7981   -1.9824    0.7141 H   0  0  0  0  0  0  0  0  0  0  0  0
   -0.2420   -0.9057    2.3715 H   0  0  0  0  0  0  0  0  0  0  0  0
    0.7017    0.5717    2.1277 H   0  0  0  0  0  0  0  0  0  0  0  0
    0.3215    0.2073   -1.3316 H   0  0  0  0  0  0  0  0  0  0  0  0
   -0.0422   -1.5301   -1.4249 H   0  0  0  0  0  0  0  0  0  0  0  0
   -1.9788    0.5016    1.6423 H   0  0  0  0  0  0  0  0  0  0  0  0
   -0.8798    1.4899    0.6485 H   0  0  0  0  0  0  0  0  0  0  0  0
   -2.0356    1.2391   -1.3680 H   0  0  0  0  0  0  0  0  0  0  0  0
   -2.1839   -0.3239   -2.1281 H   0  0  0  0  0  0  0  0  0  0  0  0
   -3.9089    2.1000   -0.0930 H   0  0  0  0  0  0  0  0  0  0  0  0
   -3.8438   -2.0436   -1.2848 H   0  0  0  0  0  0  0  0  0  0  0  0
    4.9817    2.4046   -0.5088 H   0  0  0  0  0  0  0  0  0  0  0  0
    5.8176   -2.4577    0.4491 H   0  0  0  0  0  0  0  0  0  0  0  0
    7.7170   -0.9095   -0.0123 H   0  0  0  0  0  0  0  0  0  0  0  0
   -6.2023   -2.2727   -0.5871 H   0  0  0  0  0  0  0  0  0  0  0  0
    7.8763    1.7107   -1.6208 H   0  0  0  0  0  0  0  0  0  0  0  0
    7.3924    2.7699   -0.2763 H   0  0  0  0  0  0  0  0  0  0  0  0
    8.5017    1.4359    0.0234 H   0  0  0  0  0  0  0  0  0  0  0  0
  1 21  1  0  0  0  0
  2 23  1  0  0  0  0
  3 11  1  0  0  0  0
  3 14  1  0  0  0  0
  4  8  1  0  0  0  0
  4  9  1  0  0  0  0
  4 10  1  0  0  0  0
  5 11  2  0  0  0  0
  5 13  1  0  0  0  0
  6  7  1  0  0  0  0
  6  8  1  0  0  0  0
  6 11  1  0  0  0  0
  6 25  1  0  0  0  0
  7  9  1  0  0  0  0
  7 26  1  0  0  0  0
  7 27  1  0  0  0  0
  8 28  1  0  0  0  0
  8 29  1  0  0  0  0
  9 30  1  0  0  0  0
  9 31  1  0  0  0  0
 10 12  1  0  0  0  0
 10 32  1  0  0  0  0
 10 33  1  0  0  0  0
 12 15  2  0  0  0  0
 12 16  1  0  0  0  0
 13 14  2  0  0  0  0
 13 17  1  0  0  0  0
 14 18  1  0  0  0  0
 15 21  1  0  0  0  0
 15 34  1  0  0  0  0
 16 22  2  0  0  0  0
 16 35  1  0  0  0  0
 17 19  2  0  0  0  0
 17 36  1  0  0  0  0
 18 20  2  0  0  0  0
 18 37  1  0  0  0  0
 19 20  1  0  0  0  0
 19 24  1  0  0  0  0
 20 38  1  0  0  0  0
 21 23  2  0  0  0  0
 22 23  1  0  0  0  0
 22 39  1  0  0  0  0
 24 40  1  0  0  0  0
 24 41  1  0  0  0  0
 24 42  1  0  0  0  0
M  END
> <PUBCHEM_COMPOUND_CID>
45784187

> <PUBCHEM_CONFORMER_RMSD>
0.8

> <PUBCHEM_CONFORMER_DIVERSEORDER>
1
58
26
47
36
34
46
63
66
73
20
57
60
14
16
49
74
30
50
71
35
42
61
80
19
64
11
62
75
17
52
24
48
4
77
18
72
51
29
65
37
10
69
67
41
2
70
53
81
21
82
38
45
39
3
23
28
83
33
55
22
68
25
43
32
40
6
54
5
12
15
7
27
59
8
56
76
44
9
31
78
13
79

> <PUBCHEM_MMFF94_PARTIAL_CHARGES>
29
1 -0.19
10 0.41
11 0.3
12 -0.14
13 0.23
14 0.14
15 -0.15
16 -0.15
17 -0.15
18 -0.15
19 -0.14
2 -0.19
20 -0.15
21 0.19
22 -0.15
23 0.19
24 0.14
3 -0.28
34 0.15
35 0.15
36 0.15
37 0.15
38 0.15
39 0.15
4 -0.81
5 -0.57
6 0.18
8 0.27
9 0.27

> <PUBCHEM_EFFECTIVE_ROTOR_COUNT>
4

> <PUBCHEM_PHARMACOPHORE_FEATURES>
5
1 4 cation
5 3 5 11 13 14 rings
5 4 6 7 8 9 rings
6 12 15 16 21 22 23 rings
6 13 14 17 18 19 20 rings

> <PUBCHEM_HEAVY_ATOM_COUNT>
24

> <PUBCHEM_ATOM_DEF_STEREO_COUNT>
1

> <PUBCHEM_ATOM_UDEF_STEREO_COUNT>
0

> <PUBCHEM_BOND_DEF_STEREO_COUNT>
0

> <PUBCHEM_BOND_UDEF_STEREO_COUNT>
0

> <PUBCHEM_ISOTOPIC_ATOM_COUNT>
0

> <PUBCHEM_COMPONENT_COUNT>
1

> <PUBCHEM_CACTVS_TAUTO_COUNT>
1

> <PUBCHEM_CONFORMER_ID>
02BA9C7B00000001

> <PUBCHEM_MMFF94_ENERGY>
46.781

> <PUBCHEM_FEATURE_SELFOVERLAP>
25.492

> <PUBCHEM_SHAPE_FINGERPRINT>
10 15 14490475313914241580
10299344 5 18342457049810287575
10595046 47 18409727339754966699
106641 1 13912327910594526524
11315181 36 18408040720100970293
11646440 116 16660366969785484484
11719270 70 17489306352572313078
11724838 91 17603304894728506478
12166972 35 18259985972640512124
12236239 1 18342737407989759310
12516196 113 17821446863317824332
12643181 29 13973963216685677796
12730499 353 17676487220817024474
12788726 201 17131837521073288026
12916748 109 16732698329623658404
13073987 5 16153978050248538716
13167372 99 18411136892530103208
13533116 47 17023174969534642434
14123256 10 16950279611765341699
14170010 4 17894912949595473212
14251752 14 17775002375347561105
14251764 18 18411135848520455261
14251764 46 17967532376731736283
14849402 71 18261117434134695628
14856354 85 17988644129809348191
14933364 13 18413108368064631941
15183329 4 17775004578666037361
15419008 47 15357690903253938055
15537594 2 16343698828939950462
15716309 27 18335419063080387471
1577012 14 18412823581910696836
16994733 274 18333729100359838456
18006028 8 12031791366007385698
18335252 98 18334581277732079315
19489759 90 8142086472915710271
20157964 124 18260547827846199370
20281389 69 18342453742332054777
21150785 3 18272654571501023496
21521721 280 18186803590970406314
21792961 116 17346604040763104367
220451 1 17846775213070063007
22224240 67 16515684454857186010
23035841 295 18201998828876469739
23081809 10 18271232872305751182
23198884 109 18407760335312768979
23516275 137 18128838381521657131
23536379 177 18412543197592039034
23569943 247 17170947055242445082
23576562 1 17059474370937071677
23622692 88 14056723452444448146
2747138 104 16877953723931773933
28498 318 11671790359714954096
29717793 49 17988928847634027718
3004659 81 17060055978095915120
314173 85 14692569926938071491
34797466 226 18413394233162616278
3545911 37 17967812752059662662
397830 11 15575577888272661932
4073 2 18114185271651394834
4098825 35 18338797819183262188
4325135 7 18335138704784286671
4340502 62 16153423935744498370
445580 37 17561091284563250681
5265222 85 17988077927853949558
5283156 175 17346602955033203262
542803 24 18342452642941538454
5758199 1 18113620092419431898
59682541 35 16805327725411015129
59755656 215 14908188534259906356
59755656 520 18040148534997669307
9996256 80 18334572434372791524

> <PUBCHEM_SHAPE_MULTIPOLES>
463.53
22.27
1.52
0.98
1.28
0.26
-0.11
5.03
1.51
-0.54
0
0.47
-0.01
-1.27

> <PUBCHEM_SHAPE_SELFOVERLAP>
1019.309

> <PUBCHEM_SHAPE_VOLUME>
254.4

> <PUBCHEM_COORDINATE_TYPE>
2
5
10

$$$$
