11882563
  -OEChem-12032416203D

 73 75  0     1  0  0  0  0  0999 V2000
    0.1547    3.3410   -1.1028 O   0  0  0  0  0  0  0  0  0  0  0  0
    4.0979    3.0649    1.1069 O   0  0  0  0  0  0  0  0  0  0  0  0
    2.2236    4.7869    2.3834 O   0  0  0  0  0  0  0  0  0  0  0  0
   -2.1760    2.8602    1.1690 O   0  0  0  0  0  0  0  0  0  0  0  0
    3.1275   -0.1117   -1.8766 O   0  0  0  0  0  0  0  0  0  0  0  0
   -3.5435    2.8673   -2.5717 O   0  0  0  0  0  0  0  0  0  0  0  0
    3.0371    0.4554    0.3730 N   0  0  0  0  0  0  0  0  0  0  0  0
   -1.9132    1.5904   -0.7644 N   0  0  0  0  0  0  0  0  0  0  0  0
    3.2257   -2.7288   -0.6289 N   0  0  0  0  0  0  0  0  0  0  0  0
   -5.3571    2.3053   -1.2791 N   0  0  0  0  0  0  0  0  0  0  0  0
   -1.9318   -2.9658    0.3693 N   0  0  0  0  0  0  0  0  0  0  0  0
   -0.0134    2.7171    0.1648 C   0  0  1  0  0  0  0  0  0  0  0  0
    2.3144    1.6991    0.2194 C   0  0  1  0  0  0  0  0  0  0  0  0
    0.8064    1.4274    0.2398 C   0  0  0  0  0  0  0  0  0  0  0  0
    2.7285    2.7019    1.3045 C   0  0  2  0  0  0  0  0  0  0  0  0
    0.3945    3.6978    1.2623 C   0  0  0  0  0  0  0  0  0  0  0  0
    1.8967    3.9856    1.2477 C   0  0  1  0  0  0  0  0  0  0  0  0
   -1.4808    2.4170    0.2586 C   0  0  0  0  0  0  0  0  0  0  0  0
    3.3861   -0.3528   -0.6989 C   0  0  0  0  0  0  0  0  0  0  0  0
    4.1120   -1.6208   -0.2632 C   0  0  2  0  0  0  0  0  0  0  0  0
   -3.2788    1.1345   -0.8886 C   0  0  2  0  0  0  0  0  0  0  0  0
    5.4736   -1.7827   -0.9581 C   0  0  0  0  0  0  0  0  0  0  0  0
   -3.3764   -0.2199   -1.6019 C   0  0  0  0  0  0  0  0  0  0  0  0
    6.2752   -3.0255   -0.5143 C   0  0  0  0  0  0  0  0  0  0  0  0
   -4.0374    2.2008   -1.6654 C   0  0  0  0  0  0  0  0  0  0  0  0
   -3.0554   -1.3821   -0.7060 C   0  0  0  0  0  0  0  0  0  0  0  0
    7.5941   -3.1742   -1.2739 C   0  0  0  0  0  0  0  0  0  0  0  0
    6.5524   -2.9499    0.9899 C   0  0  0  0  0  0  0  0  0  0  0  0
    2.1758   -2.8938    0.3627 C   0  0  0  0  0  0  0  0  0  0  0  0
   -3.9756   -2.1145    0.0950 C   0  0  0  0  0  0  0  0  0  0  0  0
   -1.8073   -1.9289   -0.5160 C   0  0  0  0  0  0  0  0  0  0  0  0
   -3.2450   -3.1022    0.7592 C   0  0  0  0  0  0  0  0  0  0  0  0
   -5.3643   -2.0319    0.3192 C   0  0  0  0  0  0  0  0  0  0  0  0
   -3.8361   -4.0149    1.6402 C   0  0  0  0  0  0  0  0  0  0  0  0
   -5.9691   -2.9383    1.1977 C   0  0  0  0  0  0  0  0  0  0  0  0
   -5.2149   -3.9137    1.8470 C   0  0  0  0  0  0  0  0  0  0  0  0
    2.5858    2.1082   -0.7630 H   0  0  0  0  0  0  0  0  0  0  0  0
    0.5420    0.8703    1.1496 H   0  0  0  0  0  0  0  0  0  0  0  0
    0.5740    0.7634   -0.6025 H   0  0  0  0  0  0  0  0  0  0  0  0
    2.6635    2.2519    2.3026 H   0  0  0  0  0  0  0  0  0  0  0  0
   -0.1426    4.6505    1.1586 H   0  0  0  0  0  0  0  0  0  0  0  0
    0.1181    3.3093    2.2524 H   0  0  0  0  0  0  0  0  0  0  0  0
    2.1646    4.5698    0.3589 H   0  0  0  0  0  0  0  0  0  0  0  0
    3.2316    0.1393    1.3183 H   0  0  0  0  0  0  0  0  0  0  0  0
   -0.2982    4.2014   -1.0846 H   0  0  0  0  0  0  0  0  0  0  0  0
    4.1824    3.4504    0.2182 H   0  0  0  0  0  0  0  0  0  0  0  0
    1.6984    5.6033    2.3266 H   0  0  0  0  0  0  0  0  0  0  0  0
   -1.2762    1.3765   -1.5262 H   0  0  0  0  0  0  0  0  0  0  0  0
    4.2755   -1.5910    0.8189 H   0  0  0  0  0  0  0  0  0  0  0  0
   -3.7070    1.0683    0.1200 H   0  0  0  0  0  0  0  0  0  0  0  0
    5.3287   -1.8245   -2.0466 H   0  0  0  0  0  0  0  0  0  0  0  0
    6.0717   -0.8790   -0.7779 H   0  0  0  0  0  0  0  0  0  0  0  0
   -2.7114   -0.2398   -2.4759 H   0  0  0  0  0  0  0  0  0  0  0  0
   -4.3897   -0.3612   -2.0004 H   0  0  0  0  0  0  0  0  0  0  0  0
    5.6831   -3.9277   -0.7108 H   0  0  0  0  0  0  0  0  0  0  0  0
    2.8315   -2.5919   -1.5584 H   0  0  0  0  0  0  0  0  0  0  0  0
    8.2500   -2.3144   -1.1002 H   0  0  0  0  0  0  0  0  0  0  0  0
    8.1271   -4.0782   -0.9613 H   0  0  0  0  0  0  0  0  0  0  0  0
    7.4116   -3.2482   -2.3511 H   0  0  0  0  0  0  0  0  0  0  0  0
    7.0192   -1.9980    1.2649 H   0  0  0  0  0  0  0  0  0  0  0  0
    7.2301   -3.7544    1.2975 H   0  0  0  0  0  0  0  0  0  0  0  0
    5.6387   -3.0724    1.5787 H   0  0  0  0  0  0  0  0  0  0  0  0
    1.5155   -2.0233    0.4213 H   0  0  0  0  0  0  0  0  0  0  0  0
    1.5571   -3.7546    0.0892 H   0  0  0  0  0  0  0  0  0  0  0  0
    2.5894   -3.0990    1.3557 H   0  0  0  0  0  0  0  0  0  0  0  0
   -0.8416   -1.6740   -0.9300 H   0  0  0  0  0  0  0  0  0  0  0  0
   -5.7579    1.7302   -0.5449 H   0  0  0  0  0  0  0  0  0  0  0  0
   -5.9795    2.9697   -1.7270 H   0  0  0  0  0  0  0  0  0  0  0  0
   -1.1700   -3.5469    0.6910 H   0  0  0  0  0  0  0  0  0  0  0  0
   -5.9667   -1.2765   -0.1772 H   0  0  0  0  0  0  0  0  0  0  0  0
   -3.2497   -4.7745    2.1461 H   0  0  0  0  0  0  0  0  0  0  0  0
   -7.0397   -2.8789    1.3749 H   0  0  0  0  0  0  0  0  0  0  0  0
   -5.7051   -4.6073    2.5253 H   0  0  0  0  0  0  0  0  0  0  0  0
  1 12  1  0  0  0  0
  1 45  1  0  0  0  0
  2 15  1  0  0  0  0
  2 46  1  0  0  0  0
  3 17  1  0  0  0  0
  3 47  1  0  0  0  0
  4 18  2  0  0  0  0
  5 19  2  0  0  0  0
  6 25  2  0  0  0  0
  7 13  1  0  0  0  0
  7 19  1  0  0  0  0
  7 44  1  0  0  0  0
  8 18  1  0  0  0  0
  8 21  1  0  0  0  0
  8 48  1  0  0  0  0
  9 20  1  0  0  0  0
  9 29  1  0  0  0  0
  9 56  1  0  0  0  0
 10 25  1  0  0  0  0
 10 67  1  0  0  0  0
 10 68  1  0  0  0  0
 11 31  1  0  0  0  0
 11 32  1  0  0  0  0
 11 69  1  0  0  0  0
 12 14  1  0  0  0  0
 12 16  1  0  0  0  0
 12 18  1  0  0  0  0
 13 14  1  0  0  0  0
 13 15  1  0  0  0  0
 13 37  1  0  0  0  0
 14 38  1  0  0  0  0
 14 39  1  0  0  0  0
 15 17  1  0  0  0  0
 15 40  1  0  0  0  0
 16 17  1  0  0  0  0
 16 41  1  0  0  0  0
 16 42  1  0  0  0  0
 17 43  1  0  0  0  0
 19 20  1  0  0  0  0
 20 22  1  0  0  0  0
 20 49  1  0  0  0  0
 21 23  1  0  0  0  0
 21 25  1  0  0  0  0
 21 50  1  0  0  0  0
 22 24  1  0  0  0  0
 22 51  1  0  0  0  0
 22 52  1  0  0  0  0
 23 26  1  0  0  0  0
 23 53  1  0  0  0  0
 23 54  1  0  0  0  0
 24 27  1  0  0  0  0
 24 28  1  0  0  0  0
 24 55  1  0  0  0  0
 26 30  1  0  0  0  0
 26 31  2  0  0  0  0
 27 57  1  0  0  0  0
 27 58  1  0  0  0  0
 27 59  1  0  0  0  0
 28 60  1  0  0  0  0
 28 61  1  0  0  0  0
 28 62  1  0  0  0  0
 29 63  1  0  0  0  0
 29 64  1  0  0  0  0
 29 65  1  0  0  0  0
 30 32  1  0  0  0  0
 30 33  2  0  0  0  0
 31 66  1  0  0  0  0
 32 34  2  0  0  0  0
 33 35  1  0  0  0  0
 33 70  1  0  0  0  0
 34 36  1  0  0  0  0
 34 71  1  0  0  0  0
 35 36  2  0  0  0  0
 35 72  1  0  0  0  0
 36 73  1  0  0  0  0
M  END
> <PUBCHEM_COMPOUND_CID>
11882563

> <PUBCHEM_CONFORMER_RMSD>
1.2

> <PUBCHEM_CONFORMER_DIVERSEORDER>
1
127
55
47
121
51
106
107
178
142
125
176
99
4
139
95
118
143
3
119
163
105
68
171
34
150
12
152
153
83
77
131
87
112
116
165
88
101
26
113
132
97
110
27
115
167
62
138
103
32
93
133
5
90
100
151
134
78
174
85
147
56
64
136
44
122
169
82
63
146
67
149
96
35
159
148
117
65
50
76
53
57
130
137
160
173
172
91
161
120
170
80
156
43
81
158
168
13
19
84
59
7
108
109
52
36
144
31
79
155
140
94
111
92
69
104
70
129
154
45
15
14
135
86
42
162
145
72
157
28
40
10
128
9
54
74
124
33
89
75
61
102
126
123
37
39
18
98
11
17
25
164
29
71
30
175
8
49
58
141
46
41
24
21
6
22
60
177
23
20
38
114
48
16
73
2
66
166
179

> <PUBCHEM_MMFF94_PARTIAL_CHARGES>
43
1 -0.68
10 -0.8
11 0.03
12 0.34
13 0.3
15 0.28
17 0.28
18 0.57
19 0.57
2 -0.68
20 0.33
21 0.36
23 0.18
25 0.57
26 -0.18
29 0.27
3 -0.68
31 -0.3
32 -0.15
33 -0.15
34 -0.15
35 -0.15
36 -0.15
4 -0.57
44 0.37
45 0.4
46 0.4
47 0.4
48 0.37
5 -0.57
56 0.36
6 -0.57
66 0.15
67 0.37
68 0.37
69 0.27
7 -0.73
70 0.15
71 0.15
72 0.15
73 0.15
8 -0.73
9 -0.9

> <PUBCHEM_EFFECTIVE_ROTOR_COUNT>
13.2

> <PUBCHEM_PHARMACOPHORE_FEATURES>
20
1 1 acceptor
1 1 donor
1 10 donor
1 11 cation
1 11 donor
1 2 acceptor
1 2 donor
1 3 acceptor
1 3 donor
1 4 acceptor
1 5 acceptor
1 6 acceptor
1 7 donor
1 8 donor
1 9 cation
1 9 donor
3 24 27 28 hydrophobe
5 11 26 30 31 32 rings
6 12 13 14 15 16 17 rings
6 30 32 33 34 35 36 rings

> <PUBCHEM_HEAVY_ATOM_COUNT>
36

> <PUBCHEM_ATOM_DEF_STEREO_COUNT>
6

> <PUBCHEM_ATOM_UDEF_STEREO_COUNT>
0

> <PUBCHEM_BOND_DEF_STEREO_COUNT>
0

> <PUBCHEM_BOND_UDEF_STEREO_COUNT>
0

> <PUBCHEM_ISOTOPIC_ATOM_COUNT>
0

> <PUBCHEM_COMPONENT_COUNT>
1

> <PUBCHEM_CACTVS_TAUTO_COUNT>
8

> <PUBCHEM_CONFORMER_ID>
00B5504300000001

> <PUBCHEM_MMFF94_ENERGY>
71.6068

> <PUBCHEM_FEATURE_SELFOVERLAP>
101.61

> <PUBCHEM_SHAPE_FINGERPRINT>
10169797 241 18201445826520889622
10290309 65 18052809531761227440
10764073 3 18269293343512748031
11135609 12 18336262465444494800
11409948 41 17695330862049395071
12202916 173 17913189989027613670
12342043 65 18336551624212617235
12788726 201 17909819943181418990
13540713 4 18337659914948764221
14114211 80 16751297994367827701
14394314 77 17911799068153935840
14725015 67 18333732446624827179
15351339 4 17832691380088856893
15392192 29 18128546963879194196
15968369 26 18266999804790817756
17627616 140 17614559246358079267
17909252 39 18266186213082283304
19315092 285 14905604746005935317
1979834 28 17760653968207514345
20775530 9 18408036329579173454
21133410 32 16879945000015156882
22440779 20 17971787516843908865
23466295 7 18408611340053722417
23559900 14 18271227370780023736
3383291 50 18058999585036828599
3737641 26 18268716193316160817
3886686 26 18264786505422917523
395649 100 18264777559132731222
4394409 98 17177120748707330757
4461854 278 16390165629291780642
463206 1 18267868281178630632
484985 159 18337117752752801403
49967989 163 18195823864675834990
613672 6 18058447608750942790
6371380 46 18267576902234831773
6376802 90 18189597398229967148
6695519 79 17338420620753023441

> <PUBCHEM_SHAPE_MULTIPOLES>
680.74
15.2
7.48
1.82
12.42
2.5
-0.11
-20.34
-1.5
0.46
3.5
-0.9
1.05
6.51

> <PUBCHEM_SHAPE_SELFOVERLAP>
1424.607

> <PUBCHEM_SHAPE_VOLUME>
384

> <PUBCHEM_COORDINATE_TYPE>
2
5
10

$$$$
