25044789
  -OEChem-12032416333D

 67 72  0     1  0  0  0  0  0999 V2000
    2.6679    0.4690    1.7008 S   0  0  0  0  0  0  0  0  0  0  0  0
   -0.0110    1.8884    2.4502 O   0  0  0  0  0  0  0  0  0  0  0  0
    3.0902    0.5332    3.0872 O   0  0  0  0  0  0  0  0  0  0  0  0
    1.5434   -0.3634    1.3171 O   0  0  0  0  0  0  0  0  0  0  0  0
    7.3358   -1.2894   -1.4868 O   0  0  0  0  0  0  0  0  0  0  0  0
   -3.3698    0.8590   -1.1342 N   0  0  2  0  0  0  0  0  0  0  0  0
   -1.2213    2.5141    0.5443 N   0  0  0  0  0  0  0  0  0  0  0  0
    2.4489    2.0353    1.0981 N   0  0  0  0  0  0  0  0  0  0  0  0
   -4.3372   -3.1518    0.6062 N   0  0  0  0  0  0  0  0  0  0  0  0
   -3.7748    2.7122    0.5049 C   0  0  1  0  0  0  0  0  0  0  0  0
   -2.4911    3.1639   -1.5319 C   0  0  2  0  0  0  0  0  0  0  0  0
   -3.5294    3.7523   -0.5803 C   0  0  0  0  0  0  0  0  0  0  0  0
   -4.2891    1.4009   -0.1260 C   0  0  0  0  0  0  0  0  0  0  0  0
   -3.0428    1.8628   -2.1580 C   0  0  0  0  0  0  0  0  0  0  0  0
   -2.4792    2.5136    1.3030 C   0  0  0  0  0  0  0  0  0  0  0  0
   -1.1866    2.8920   -0.8048 C   0  0  0  0  0  0  0  0  0  0  0  0
   -3.9148   -0.3517   -1.7436 C   0  0  0  0  0  0  0  0  0  0  0  0
   -0.0128    2.9934   -1.4547 C   0  0  0  0  0  0  0  0  0  0  0  0
   -0.0462    2.2113    1.2636 C   0  0  0  0  0  0  0  0  0  0  0  0
   -3.8078   -1.5394   -0.8245 C   0  0  0  0  0  0  0  0  0  0  0  0
    1.2147    2.3193    0.4872 C   0  0  0  0  0  0  0  0  0  0  0  0
    1.2284    2.6978   -0.7914 C   0  0  0  0  0  0  0  0  0  0  0  0
   -2.6311   -2.2886   -0.5433 C   0  0  0  0  0  0  0  0  0  0  0  0
   -4.8398   -2.0942   -0.1032 C   0  0  0  0  0  0  0  0  0  0  0  0
   -2.9907   -3.2940    0.3568 C   0  0  0  0  0  0  0  0  0  0  0  0
   -1.2905   -2.2075   -0.9693 C   0  0  0  0  0  0  0  0  0  0  0  0
   -2.0730   -4.2262    0.8540 C   0  0  0  0  0  0  0  0  0  0  0  0
   -5.1223   -3.9907    1.4860 C   0  0  0  0  0  0  0  0  0  0  0  0
   -0.3615   -3.1332   -0.4804 C   0  0  0  0  0  0  0  0  0  0  0  0
   -0.7489   -4.1262    0.4172 C   0  0  0  0  0  0  0  0  0  0  0  0
    4.0628   -0.0571    0.7490 C   0  0  0  0  0  0  0  0  0  0  0  0
    3.8700   -0.6954   -0.4762 C   0  0  0  0  0  0  0  0  0  0  0  0
    5.3555    0.1673    1.2228 C   0  0  0  0  0  0  0  0  0  0  0  0
    4.9698   -1.1091   -1.2277 C   0  0  0  0  0  0  0  0  0  0  0  0
    6.4552   -0.2465    0.4713 C   0  0  0  0  0  0  0  0  0  0  0  0
    6.2625   -0.8847   -0.7540 C   0  0  0  0  0  0  0  0  0  0  0  0
    7.0667   -1.9366   -2.7295 C   0  0  0  0  0  0  0  0  0  0  0  0
   -4.5501    3.0750    1.1913 H   0  0  0  0  0  0  0  0  0  0  0  0
   -2.3194    3.8886   -2.3387 H   0  0  0  0  0  0  0  0  0  0  0  0
   -3.1755    4.6951   -0.1449 H   0  0  0  0  0  0  0  0  0  0  0  0
   -4.4599    3.9744   -1.1168 H   0  0  0  0  0  0  0  0  0  0  0  0
   -4.4389    0.6779    0.6841 H   0  0  0  0  0  0  0  0  0  0  0  0
   -5.2754    1.5914   -0.5711 H   0  0  0  0  0  0  0  0  0  0  0  0
   -3.9324    2.1012   -2.7569 H   0  0  0  0  0  0  0  0  0  0  0  0
   -2.2929    1.4538   -2.8476 H   0  0  0  0  0  0  0  0  0  0  0  0
   -2.5279    1.5919    1.8964 H   0  0  0  0  0  0  0  0  0  0  0  0
   -2.3863    3.3337    2.0281 H   0  0  0  0  0  0  0  0  0  0  0  0
   -4.9535   -0.2088   -2.0704 H   0  0  0  0  0  0  0  0  0  0  0  0
   -3.3479   -0.6056   -2.6500 H   0  0  0  0  0  0  0  0  0  0  0  0
    0.0351    3.2771   -2.5008 H   0  0  0  0  0  0  0  0  0  0  0  0
    2.1419    2.7841   -1.3701 H   0  0  0  0  0  0  0  0  0  0  0  0
   -5.8849   -1.8213   -0.0386 H   0  0  0  0  0  0  0  0  0  0  0  0
    3.2510    2.4070    0.5696 H   0  0  0  0  0  0  0  0  0  0  0  0
   -0.9711   -1.4381   -1.6666 H   0  0  0  0  0  0  0  0  0  0  0  0
   -2.3680   -5.0014    1.5532 H   0  0  0  0  0  0  0  0  0  0  0  0
   -6.1601   -3.6477    1.4915 H   0  0  0  0  0  0  0  0  0  0  0  0
   -4.7043   -3.9202    2.4934 H   0  0  0  0  0  0  0  0  0  0  0  0
   -5.0742   -5.0182    1.1165 H   0  0  0  0  0  0  0  0  0  0  0  0
    0.6743   -3.0740   -0.8040 H   0  0  0  0  0  0  0  0  0  0  0  0
   -0.0106   -4.8342    0.7848 H   0  0  0  0  0  0  0  0  0  0  0  0
    2.8715   -0.8731   -0.8660 H   0  0  0  0  0  0  0  0  0  0  0  0
    5.5283    0.6688    2.1708 H   0  0  0  0  0  0  0  0  0  0  0  0
    4.7484   -1.5971   -2.1707 H   0  0  0  0  0  0  0  0  0  0  0  0
    7.4599   -0.0679    0.8447 H   0  0  0  0  0  0  0  0  0  0  0  0
    8.0329   -2.1906   -3.1775 H   0  0  0  0  0  0  0  0  0  0  0  0
    6.5558   -1.2669   -3.4296 H   0  0  0  0  0  0  0  0  0  0  0  0
    6.5246   -2.8772   -2.5843 H   0  0  0  0  0  0  0  0  0  0  0  0
  1  3  2  0  0  0  0
  1  4  2  0  0  0  0
  1  8  1  0  0  0  0
  1 31  1  0  0  0  0
  2 19  2  0  0  0  0
  5 36  1  0  0  0  0
  5 37  1  0  0  0  0
  6 13  1  0  0  0  0
  6 14  1  0  0  0  0
  6 17  1  0  0  0  0
  7 15  1  0  0  0  0
  7 16  1  0  0  0  0
  7 19  1  0  0  0  0
  8 21  1  0  0  0  0
  8 53  1  0  0  0  0
  9 24  1  0  0  0  0
  9 25  1  0  0  0  0
  9 28  1  0  0  0  0
 10 12  1  0  0  0  0
 10 13  1  0  0  0  0
 10 15  1  0  0  0  0
 10 38  1  0  0  0  0
 11 12  1  0  0  0  0
 11 14  1  0  0  0  0
 11 16  1  0  0  0  0
 11 39  1  0  0  0  0
 12 40  1  0  0  0  0
 12 41  1  0  0  0  0
 13 42  1  0  0  0  0
 13 43  1  0  0  0  0
 14 44  1  0  0  0  0
 14 45  1  0  0  0  0
 15 46  1  0  0  0  0
 15 47  1  0  0  0  0
 16 18  2  0  0  0  0
 17 20  1  0  0  0  0
 17 48  1  0  0  0  0
 17 49  1  0  0  0  0
 18 22  1  0  0  0  0
 18 50  1  0  0  0  0
 19 21  1  0  0  0  0
 20 23  1  0  0  0  0
 20 24  2  0  0  0  0
 21 22  2  0  0  0  0
 22 51  1  0  0  0  0
 23 25  1  0  0  0  0
 23 26  2  0  0  0  0
 24 52  1  0  0  0  0
 25 27  2  0  0  0  0
 26 29  1  0  0  0  0
 26 54  1  0  0  0  0
 27 30  1  0  0  0  0
 27 55  1  0  0  0  0
 28 56  1  0  0  0  0
 28 57  1  0  0  0  0
 28 58  1  0  0  0  0
 29 30  2  0  0  0  0
 29 59  1  0  0  0  0
 30 60  1  0  0  0  0
 31 32  2  0  0  0  0
 31 33  1  0  0  0  0
 32 34  1  0  0  0  0
 32 61  1  0  0  0  0
 33 35  2  0  0  0  0
 33 62  1  0  0  0  0
 34 36  2  0  0  0  0
 34 63  1  0  0  0  0
 35 36  1  0  0  0  0
 35 64  1  0  0  0  0
 37 65  1  0  0  0  0
 37 66  1  0  0  0  0
 37 67  1  0  0  0  0
M  END
> <PUBCHEM_COMPOUND_CID>
25044789

> <PUBCHEM_CONFORMER_RMSD>
1

> <PUBCHEM_CONFORMER_DIVERSEORDER>
1
106
93
37
74
122
94
117
77
99
31
51
45
69
111
67
17
124
32
78
57
86
9
59
64
100
104
66
36
50
97
52
46
28
54
85
6
116
33
126
112
91
103
24
38
41
121
68
102
13
82
109
76
49
11
71
27
75
107
95
80
4
10
26
5
96
101
42
98
35
125
53
23
87
89
127
2
58
25
63
55
110
65
119
30
34
123
19
48
90
8
108
81
105
22
83
120
113
130
29
70
43
62
44
40
7
72
21
15
3
47
14
118
114
88
115
84
56
18
79
12
73
92
129
60
39
61
128
20
16

> <PUBCHEM_MMFF94_PARTIAL_CHARGES>
46
1 1.45
11 0.14
13 0.27
14 0.27
15 0.3
16 -0.03
17 0.45
18 -0.15
19 0.62
2 -0.57
20 -0.18
21 0.21
22 -0.15
24 -0.3
25 -0.15
26 -0.15
27 -0.15
28 0.26
29 -0.15
3 -0.65
30 -0.15
31 -0.01
32 -0.15
33 -0.15
34 -0.15
35 -0.15
36 0.08
37 0.28
4 -0.65
5 -0.36
50 0.15
51 0.15
52 0.15
53 0.42
54 0.15
55 0.15
59 0.15
6 -0.81
60 0.15
61 0.15
62 0.15
63 0.15
64 0.15
7 -0.47
8 -0.75
9 0.05

> <PUBCHEM_EFFECTIVE_ROTOR_COUNT>
7

> <PUBCHEM_PHARMACOPHORE_FEATURES>
13
1 2 acceptor
1 3 acceptor
1 4 acceptor
1 5 acceptor
1 6 cation
1 8 donor
1 9 cation
5 9 20 23 24 25 rings
6 23 25 26 27 29 30 rings
6 31 32 33 34 35 36 rings
6 6 10 11 12 13 14 rings
6 7 10 11 12 15 16 rings
6 7 16 18 19 21 22 rings

> <PUBCHEM_HEAVY_ATOM_COUNT>
37

> <PUBCHEM_ATOM_DEF_STEREO_COUNT>
2

> <PUBCHEM_ATOM_UDEF_STEREO_COUNT>
0

> <PUBCHEM_BOND_DEF_STEREO_COUNT>
0

> <PUBCHEM_BOND_UDEF_STEREO_COUNT>
0

> <PUBCHEM_ISOTOPIC_ATOM_COUNT>
0

> <PUBCHEM_COMPONENT_COUNT>
1

> <PUBCHEM_CACTVS_TAUTO_COUNT>
1

> <PUBCHEM_CONFORMER_ID>
017E273500000001

> <PUBCHEM_MMFF94_ENERGY>
91.3442

> <PUBCHEM_FEATURE_SELFOVERLAP>
67.638

> <PUBCHEM_SHAPE_FINGERPRINT>
10305334 12 17273432577686700289
11135609 12 18340486784675652537
11387372 6 17987249840826215897
117089 54 18046635769987813843
12156800 1 17840631133825414773
12422481 6 18200046148081541923
12522641 33 18120086184051294293
12655364 131 13901635043518194860
13008946 113 17186448936992749689
13383661 66 18342466979769843250
13402501 40 18201997729159153022
14251757 5 18335138713168908526
14279260 333 17057809504252933662
15001296 14 18187081810277984924
150020 26 17693379249350180643
15351339 4 18265886973894658666
15361156 5 17988637489542560340
15927050 60 18126270962547353549
16067689 391 17486780671516406838
17627616 140 18121213177982222531
17909252 39 18049727618054156104
19315092 285 14975421681628200829
19958102 18 18339073771248956830
20764821 26 17905302058340016651
20775530 9 18118386583106101187
21133410 230 18263381243510013019
23466295 7 18409169947953567017
24771750 20 17185303250292634645
395649 100 18341337709146674870
4058900 60 17764307245572718761
437795 70 18412824698618563726
4435113 14 18059303080500419166
44880168 125 18059010708575188079
469060 322 18187657889724357303
50150288 127 16341462276223216995
508706 21 18412536604959703623
5265222 85 18337388245018913221
6201320 77 17273163248803636582
70634741 139 18412552037631857580

> <PUBCHEM_SHAPE_MULTIPOLES>
721.89
14.08
6.11
2.16
26.18
2.58
-0.18
8.72
4.64
-9.42
-0.23
1.9
-0.44
3.39

> <PUBCHEM_SHAPE_SELFOVERLAP>
1579.248

> <PUBCHEM_SHAPE_VOLUME>
393.6

> <PUBCHEM_COORDINATE_TYPE>
2
5
10

$$$$
