25388909
  -OEChem-12032416163D

 55 58  0     1  0  0  0  0  0999 V2000
   -5.4713    2.6372    0.6751 O   0  0  0  0  0  0  0  0  0  0  0  0
    2.3746    1.9109   -1.0405 O   0  0  0  0  0  0  0  0  0  0  0  0
   -3.1488   -1.3154    1.2159 N   0  0  2  0  0  0  0  0  0  0  0  0
    1.4213   -2.4519   -0.4859 N   0  0  0  0  0  0  0  0  0  0  0  0
   -3.2334    2.2828    0.1313 N   0  0  0  0  0  0  0  0  0  0  0  0
    2.6333   -1.8713   -0.4698 N   0  0  0  0  0  0  0  0  0  0  0  0
   -1.9594   -1.8158   -1.0464 C   0  0  2  0  0  0  0  0  0  0  0  0
   -1.0160   -2.1349    0.1463 C   0  0  2  0  0  0  0  0  0  0  0  0
   -3.2825   -0.1499    0.3027 C   0  0  2  0  0  0  0  0  0  0  0  0
   -2.4129   -0.3433   -0.9582 C   0  0  0  0  0  0  0  0  0  0  0  0
   -3.2188   -2.6899   -0.8641 C   0  0  0  0  0  0  0  0  0  0  0  0
   -1.7144   -1.6246    1.4391 C   0  0  0  0  0  0  0  0  0  0  0  0
   -3.7768   -2.4846    0.5551 C   0  0  0  0  0  0  0  0  0  0  0  0
    0.4343   -1.6822    0.0564 C   0  0  0  0  0  0  0  0  0  0  0  0
   -2.9835    1.1770    1.0036 C   0  0  0  0  0  0  0  0  0  0  0  0
    1.0431   -0.5175    0.4554 C   0  0  0  0  0  0  0  0  0  0  0  0
    2.3959   -0.6900    0.1063 C   0  0  0  0  0  0  0  0  0  0  0  0
    1.2803   -3.7756   -1.0471 C   0  0  0  0  0  0  0  0  0  0  0  0
   -4.4637    2.9282    0.0360 C   0  0  0  0  0  0  0  0  0  0  0  0
    3.4655    0.2511    0.3141 C   0  0  0  0  0  0  0  0  0  0  0  0
   -4.4454    4.0747   -0.9394 C   0  0  0  0  0  0  0  0  0  0  0  0
    3.4248    1.5202   -0.2629 C   0  0  0  0  0  0  0  0  0  0  0  0
    4.5526   -0.1210    1.1048 C   0  0  0  0  0  0  0  0  0  0  0  0
    4.4713    2.4174   -0.0494 C   0  0  0  0  0  0  0  0  0  0  0  0
    5.5992    0.7761    1.3184 C   0  0  0  0  0  0  0  0  0  0  0  0
    5.5586    2.0453    0.7414 C   0  0  0  0  0  0  0  0  0  0  0  0
    2.4720    1.6471   -2.4381 C   0  0  0  0  0  0  0  0  0  0  0  0
   -1.4767   -2.0173   -2.0083 H   0  0  0  0  0  0  0  0  0  0  0  0
   -0.9841   -3.2313    0.2371 H   0  0  0  0  0  0  0  0  0  0  0  0
   -4.3340   -0.0982   -0.0173 H   0  0  0  0  0  0  0  0  0  0  0  0
   -1.5324    0.3093   -0.9538 H   0  0  0  0  0  0  0  0  0  0  0  0
   -2.9990   -0.0846   -1.8489 H   0  0  0  0  0  0  0  0  0  0  0  0
   -2.9760   -3.7476   -1.0194 H   0  0  0  0  0  0  0  0  0  0  0  0
   -3.9736   -2.4166   -1.6114 H   0  0  0  0  0  0  0  0  0  0  0  0
   -1.6393   -2.4034    2.2105 H   0  0  0  0  0  0  0  0  0  0  0  0
   -1.2176   -0.7580    1.8850 H   0  0  0  0  0  0  0  0  0  0  0  0
   -4.8648   -2.3511    0.5118 H   0  0  0  0  0  0  0  0  0  0  0  0
   -3.6159   -3.3853    1.1612 H   0  0  0  0  0  0  0  0  0  0  0  0
   -1.9368    1.2512    1.3145 H   0  0  0  0  0  0  0  0  0  0  0  0
   -3.6075    1.2818    1.8987 H   0  0  0  0  0  0  0  0  0  0  0  0
    0.5782    0.3379    0.9247 H   0  0  0  0  0  0  0  0  0  0  0  0
   -2.4642    2.6123   -0.4448 H   0  0  0  0  0  0  0  0  0  0  0  0
    0.4546   -3.7708   -1.7624 H   0  0  0  0  0  0  0  0  0  0  0  0
    2.2044   -4.0523   -1.5619 H   0  0  0  0  0  0  0  0  0  0  0  0
    1.0865   -4.4755   -0.2307 H   0  0  0  0  0  0  0  0  0  0  0  0
   -3.9412    3.7803   -1.8643 H   0  0  0  0  0  0  0  0  0  0  0  0
   -5.4706    4.3696   -1.1795 H   0  0  0  0  0  0  0  0  0  0  0  0
   -3.9201    4.9229   -0.4923 H   0  0  0  0  0  0  0  0  0  0  0  0
    4.6022   -1.1043    1.5669 H   0  0  0  0  0  0  0  0  0  0  0  0
    4.4465    3.4083   -0.4949 H   0  0  0  0  0  0  0  0  0  0  0  0
    6.4454    0.4869    1.9348 H   0  0  0  0  0  0  0  0  0  0  0  0
    6.3732    2.7439    0.9081 H   0  0  0  0  0  0  0  0  0  0  0  0
    1.5428    1.9736   -2.9130 H   0  0  0  0  0  0  0  0  0  0  0  0
    2.6029    0.5773   -2.6281 H   0  0  0  0  0  0  0  0  0  0  0  0
    3.3035    2.2091   -2.8751 H   0  0  0  0  0  0  0  0  0  0  0  0
  1 19  2  0  0  0  0
  2 22  1  0  0  0  0
  2 27  1  0  0  0  0
  3  9  1  0  0  0  0
  3 12  1  0  0  0  0
  3 13  1  0  0  0  0
  4  6  1  0  0  0  0
  4 14  1  0  0  0  0
  4 18  1  0  0  0  0
  5 15  1  0  0  0  0
  5 19  1  0  0  0  0
  5 42  1  0  0  0  0
  6 17  2  0  0  0  0
  7  8  1  0  0  0  0
  7 10  1  0  0  0  0
  7 11  1  0  0  0  0
  7 28  1  0  0  0  0
  8 12  1  0  0  0  0
  8 14  1  0  0  0  0
  8 29  1  0  0  0  0
  9 10  1  0  0  0  0
  9 15  1  0  0  0  0
  9 30  1  0  0  0  0
 10 31  1  0  0  0  0
 10 32  1  0  0  0  0
 11 13  1  0  0  0  0
 11 33  1  0  0  0  0
 11 34  1  0  0  0  0
 12 35  1  0  0  0  0
 12 36  1  0  0  0  0
 13 37  1  0  0  0  0
 13 38  1  0  0  0  0
 14 16  2  0  0  0  0
 15 39  1  0  0  0  0
 15 40  1  0  0  0  0
 16 17  1  0  0  0  0
 16 41  1  0  0  0  0
 17 20  1  0  0  0  0
 18 43  1  0  0  0  0
 18 44  1  0  0  0  0
 18 45  1  0  0  0  0
 19 21  1  0  0  0  0
 20 22  1  0  0  0  0
 20 23  2  0  0  0  0
 21 46  1  0  0  0  0
 21 47  1  0  0  0  0
 21 48  1  0  0  0  0
 22 24  2  0  0  0  0
 23 25  1  0  0  0  0
 23 49  1  0  0  0  0
 24 26  1  0  0  0  0
 24 50  1  0  0  0  0
 25 26  2  0  0  0  0
 25 51  1  0  0  0  0
 26 52  1  0  0  0  0
 27 53  1  0  0  0  0
 27 54  1  0  0  0  0
 27 55  1  0  0  0  0
M  END
> <PUBCHEM_COMPOUND_CID>
25388909

> <PUBCHEM_CONFORMER_RMSD>
0.8

> <PUBCHEM_CONFORMER_DIVERSEORDER>
3
51
75
31
71
10
65
23
38
27
78
77
88
79
80
86
69
32
90
7
66
74
19
82
33
16
68
42
45
53
29
84
47
55
81
54
56
89
36
60
64
59
62
72
20
48
57
37
41
91
24
50
26
17
49
70
76
12
52
87
63
13
25
85
61
40
28
46
83
44
18
21
73
67
35
6
39
8
30
5
4
11
15
43
58
34
1
22
9
2
14

> <PUBCHEM_MMFF94_PARTIAL_CHARGES>
30
1 -0.57
12 0.27
13 0.27
14 -0.33
15 0.3
16 -0.15
17 0.23
18 0.26
19 0.57
2 -0.36
20 0.05
21 0.06
22 0.08
23 -0.15
24 -0.15
25 -0.15
26 -0.15
27 0.28
3 -0.81
4 0.31
41 0.15
42 0.37
49 0.15
5 -0.73
50 0.15
51 0.15
52 0.15
6 -0.71
8 0.18
9 0.27

> <PUBCHEM_EFFECTIVE_ROTOR_COUNT>
7.2

> <PUBCHEM_PHARMACOPHORE_FEATURES>
8
1 1 acceptor
1 2 acceptor
1 3 cation
1 5 donor
1 6 acceptor
5 4 6 14 16 17 rings
6 20 22 23 24 25 26 rings
8 3 7 8 9 10 11 12 13 rings

> <PUBCHEM_HEAVY_ATOM_COUNT>
27

> <PUBCHEM_ATOM_DEF_STEREO_COUNT>
3

> <PUBCHEM_ATOM_UDEF_STEREO_COUNT>
0

> <PUBCHEM_BOND_DEF_STEREO_COUNT>
0

> <PUBCHEM_BOND_UDEF_STEREO_COUNT>
0

> <PUBCHEM_ISOTOPIC_ATOM_COUNT>
0

> <PUBCHEM_COMPONENT_COUNT>
1

> <PUBCHEM_CACTVS_TAUTO_COUNT>
2

> <PUBCHEM_CONFORMER_ID>
0183676D00000003

> <PUBCHEM_MMFF94_ENERGY>
76.0262

> <PUBCHEM_FEATURE_SELFOVERLAP>
40.597

> <PUBCHEM_SHAPE_FINGERPRINT>
10670039 82 18266193897021622516
10673678 19 17982172215538235177
10675989 125 17692526711427832137
11552529 35 17244149537643617882
12107183 9 18118670046827114234
12403259 118 18337099159855039080
12422481 6 18260821558670009840
12633257 1 17095243648302827348
12788726 201 18049741898704279933
13140716 1 18336543807414310658
13965767 371 17896596193816423500
14142880 1 18261385655395231111
14251764 38 18335701684586610304
14251764 75 18129107710662580121
14294032 229 18129947892180405387
14950920 106 16878235258837664809
15003188 8 18262512589804409189
17980427 23 18040998483687818988
20715895 44 18194114119045301737
21033650 10 17842868726198592352
21475661 188 18044942272988083941
23227448 37 18409732833635433633
23558518 356 18260554432957735803
23559900 14 18127975209243063034
2838139 119 18194674878913087133
3388396 114 17548405359994629701
5104073 3 18188196672492819376
6036956 94 17901387011188419109
6328613 192 18116153458517665948
6608658 132 17978518863950694492
7064713 232 18408038524581963116
7288768 16 18113620062739594587
7808743 9 18411693279778686969
9981440 41 18411134761920655763

> <PUBCHEM_SHAPE_MULTIPOLES>
523.98
11.86
4.68
1.41
5.19
1.52
-0.42
10.74
3
-5.37
-1.32
0.44
0.15
0.24

> <PUBCHEM_SHAPE_SELFOVERLAP>
1122.87

> <PUBCHEM_SHAPE_VOLUME>
288

> <PUBCHEM_COORDINATE_TYPE>
2
5
10

$$$$
