51137543
  -OEChem-12032416223D

 53 56  0     1  0  0  0  0  0999 V2000
   -8.0804    1.0610    1.6669 F   0  0  0  0  0  0  0  0  0  0  0  0
   -8.7152    0.0437   -0.1470 F   0  0  0  0  0  0  0  0  0  0  0  0
   -8.3671    2.1900   -0.1625 F   0  0  0  0  0  0  0  0  0  0  0  0
    2.2693   -1.1863    0.1558 O   0  0  0  0  0  0  0  0  0  0  0  0
   -1.7558   -1.0017   -0.3148 N   0  0  1  0  0  0  0  0  0  0  0  0
    2.4016   -3.4181    0.0809 N   0  0  0  0  0  0  0  0  0  0  0  0
    3.6864   -2.9118    0.0197 N   0  0  0  0  0  0  0  0  0  0  0  0
    7.4693    2.4505   -0.0434 N   0  0  0  0  0  0  0  0  0  0  0  0
    0.1004   -2.3187    0.2508 C   0  0  1  0  0  0  0  0  0  0  0  0
   -0.4452   -1.6289    1.5133 C   0  0  0  0  0  0  0  0  0  0  0  0
   -0.5412   -1.5564   -0.9164 C   0  0  0  0  0  0  0  0  0  0  0  0
   -1.3349   -0.5061    0.9956 C   0  0  0  0  0  0  0  0  0  0  0  0
   -2.3556    0.0404   -1.1350 C   0  0  0  0  0  0  0  0  0  0  0  0
    1.6078   -2.3758    0.1596 C   0  0  0  0  0  0  0  0  0  0  0  0
   -3.7910    0.2940   -0.7579 C   0  0  0  0  0  0  0  0  0  0  0  0
   -4.7849   -0.5995   -1.1570 C   0  0  0  0  0  0  0  0  0  0  0  0
   -4.1269    1.4218   -0.0088 C   0  0  0  0  0  0  0  0  0  0  0  0
    3.5609   -1.6061    0.0662 C   0  0  0  0  0  0  0  0  0  0  0  0
   -6.1147   -0.3654   -0.8074 C   0  0  0  0  0  0  0  0  0  0  0  0
   -5.4567    1.6561    0.3408 C   0  0  0  0  0  0  0  0  0  0  0  0
    4.5558   -0.5735    0.0382 C   0  0  0  0  0  0  0  0  0  0  0  0
   -6.4505    0.7626   -0.0585 C   0  0  0  0  0  0  0  0  0  0  0  0
    5.9068   -0.9088   -0.0517 C   0  0  0  0  0  0  0  0  0  0  0  0
    4.1723    0.7662    0.1005 C   0  0  0  0  0  0  0  0  0  0  0  0
   -7.8720    1.0112    0.3179 C   0  0  0  0  0  0  0  0  0  0  0  0
    6.4908    1.4353   -0.0168 C   0  0  0  0  0  0  0  0  0  0  0  0
    6.8743    0.0955   -0.0793 C   0  0  0  0  0  0  0  0  0  0  0  0
    5.1398    1.7706    0.0730 C   0  0  0  0  0  0  0  0  0  0  0  0
    8.8757    2.1122   -0.1355 C   0  0  0  0  0  0  0  0  0  0  0  0
    7.0810    3.8459    0.0131 C   0  0  0  0  0  0  0  0  0  0  0  0
   -0.2686   -3.3537    0.2458 H   0  0  0  0  0  0  0  0  0  0  0  0
    0.3386   -1.2447    2.1746 H   0  0  0  0  0  0  0  0  0  0  0  0
   -1.0432   -2.3467    2.0887 H   0  0  0  0  0  0  0  0  0  0  0  0
    0.1174   -0.7621   -1.2919 H   0  0  0  0  0  0  0  0  0  0  0  0
   -0.7732   -2.2296   -1.7490 H   0  0  0  0  0  0  0  0  0  0  0  0
   -2.1780   -0.3308    1.6711 H   0  0  0  0  0  0  0  0  0  0  0  0
   -0.7499    0.4193    0.9159 H   0  0  0  0  0  0  0  0  0  0  0  0
   -1.7729    0.9713   -1.1124 H   0  0  0  0  0  0  0  0  0  0  0  0
   -2.3565   -0.2706   -2.1894 H   0  0  0  0  0  0  0  0  0  0  0  0
   -4.5356   -1.4819   -1.7406 H   0  0  0  0  0  0  0  0  0  0  0  0
   -3.3619    2.1248    0.3101 H   0  0  0  0  0  0  0  0  0  0  0  0
   -6.8735   -1.0738   -1.1278 H   0  0  0  0  0  0  0  0  0  0  0  0
   -5.7087    2.5369    0.9254 H   0  0  0  0  0  0  0  0  0  0  0  0
    6.2279   -1.9465   -0.1015 H   0  0  0  0  0  0  0  0  0  0  0  0
    3.1297    1.0661    0.1710 H   0  0  0  0  0  0  0  0  0  0  0  0
    7.9115   -0.2166   -0.1500 H   0  0  0  0  0  0  0  0  0  0  0  0
    4.7912    2.7973    0.1243 H   0  0  0  0  0  0  0  0  0  0  0  0
    9.1959    1.5126    0.7238 H   0  0  0  0  0  0  0  0  0  0  0  0
    9.0926    1.5706   -1.0630 H   0  0  0  0  0  0  0  0  0  0  0  0
    9.5078    3.0073   -0.1426 H   0  0  0  0  0  0  0  0  0  0  0  0
    6.4510    4.1165   -0.8415 H   0  0  0  0  0  0  0  0  0  0  0  0
    6.5523    4.0722    0.9458 H   0  0  0  0  0  0  0  0  0  0  0  0
    7.9519    4.5101   -0.0196 H   0  0  0  0  0  0  0  0  0  0  0  0
  1 25  1  0  0  0  0
  2 25  1  0  0  0  0
  3 25  1  0  0  0  0
  4 14  1  0  0  0  0
  4 18  1  0  0  0  0
  5 11  1  0  0  0  0
  5 12  1  0  0  0  0
  5 13  1  0  0  0  0
  6  7  1  0  0  0  0
  6 14  2  0  0  0  0
  7 18  2  0  0  0  0
  8 26  1  0  0  0  0
  8 29  1  0  0  0  0
  8 30  1  0  0  0  0
  9 10  1  0  0  0  0
  9 11  1  0  0  0  0
  9 14  1  0  0  0  0
  9 31  1  0  0  0  0
 10 12  1  0  0  0  0
 10 32  1  0  0  0  0
 10 33  1  0  0  0  0
 11 34  1  0  0  0  0
 11 35  1  0  0  0  0
 12 36  1  0  0  0  0
 12 37  1  0  0  0  0
 13 15  1  0  0  0  0
 13 38  1  0  0  0  0
 13 39  1  0  0  0  0
 15 16  2  0  0  0  0
 15 17  1  0  0  0  0
 16 19  1  0  0  0  0
 16 40  1  0  0  0  0
 17 20  2  0  0  0  0
 17 41  1  0  0  0  0
 18 21  1  0  0  0  0
 19 22  2  0  0  0  0
 19 42  1  0  0  0  0
 20 22  1  0  0  0  0
 20 43  1  0  0  0  0
 21 23  2  0  0  0  0
 21 24  1  0  0  0  0
 22 25  1  0  0  0  0
 23 27  1  0  0  0  0
 23 44  1  0  0  0  0
 24 28  2  0  0  0  0
 24 45  1  0  0  0  0
 26 27  2  0  0  0  0
 26 28  1  0  0  0  0
 27 46  1  0  0  0  0
 28 47  1  0  0  0  0
 29 48  1  0  0  0  0
 29 49  1  0  0  0  0
 29 50  1  0  0  0  0
 30 51  1  0  0  0  0
 30 52  1  0  0  0  0
 30 53  1  0  0  0  0
M  END
> <PUBCHEM_COMPOUND_CID>
51137543

> <PUBCHEM_CONFORMER_RMSD>
0.8

> <PUBCHEM_CONFORMER_DIVERSEORDER>
1
73
9
84
53
92
81
76
67
11
82
51
72
59
7
29
48
20
54
52
22
23
40
35
16
2
44
86
15
66
93
49
88
28
97
60
95
46
4
56
43
36
42
41
14
100
39
104
77
13
87
30
71
19
63
37
78
8
24
26
102
32
96
85
38
34
99
74
33
57
62
98
25
65
61
21
3
101
47
31
83
50
5
89
27
55
70
6
64
103
17
80
69
90
68
45
79
75
91
94
18
10
12
58

> <PUBCHEM_MMFF94_PARTIAL_CHARGES>
37
1 -0.34
11 0.27
12 0.27
13 0.41
14 0.3
15 -0.14
16 -0.15
17 -0.15
18 0.43
19 -0.15
2 -0.34
20 -0.15
21 0.05
22 -0.14
23 -0.15
24 -0.15
25 1.16
26 0.1
27 -0.15
28 -0.15
29 0.37
3 -0.34
30 0.37
4 -0.28
40 0.15
41 0.15
42 0.15
43 0.15
44 0.15
45 0.15
46 0.15
47 0.15
5 -0.81
6 -0.34
7 -0.34
8 -0.84
9 0.18

> <PUBCHEM_EFFECTIVE_ROTOR_COUNT>
7

> <PUBCHEM_PHARMACOPHORE_FEATURES>
6
1 5 cation
1 8 cation
5 4 6 7 14 18 rings
5 5 9 10 11 12 rings
6 15 16 17 19 20 22 rings
6 21 23 24 26 27 28 rings

> <PUBCHEM_HEAVY_ATOM_COUNT>
30

> <PUBCHEM_ATOM_DEF_STEREO_COUNT>
1

> <PUBCHEM_ATOM_UDEF_STEREO_COUNT>
0

> <PUBCHEM_BOND_DEF_STEREO_COUNT>
0

> <PUBCHEM_BOND_UDEF_STEREO_COUNT>
0

> <PUBCHEM_ISOTOPIC_ATOM_COUNT>
0

> <PUBCHEM_COMPONENT_COUNT>
1

> <PUBCHEM_CACTVS_TAUTO_COUNT>
1

> <PUBCHEM_CONFORMER_ID>
030C4C0700000001

> <PUBCHEM_MMFF94_ENERGY>
75.2024

> <PUBCHEM_FEATURE_SELFOVERLAP>
30.449

> <PUBCHEM_SHAPE_FINGERPRINT>
10 15 17821729433426604179
10319688 67 16370727049707020817
10411042 1 17833830470590423626
10595046 47 18342170038758005927
10673678 19 18342741805894228982
10838868 160 18341883121899800672
10930396 42 16443341009672137149
11273773 42 18343015627244077613
11374522 155 18187369882071703060
11409948 8 18114754836697763171
11828532 37 11599711939497478028
1200032 147 18261391174686754066
12013929 94 18341049710389324535
12035758 1 16805323301320394015
12522641 24 17604985910526771114
12539765 74 18131074813714751278
12592606 108 9079114462392583013
12821665 9 18340200895084660103
13248334 5 18266176124664209778
14142895 15 18411979183288679311
14359421 15 12679195890270363548
14394314 77 18412830157876035401
14400156 260 18041273384188723520
14428016 86 18409730664887744290
14565420 104 18113334185332403978
14617042 71 18411422800156091633
14849402 71 18412545431592783225
14919807 6 12607136054590965331
14931854 50 17917722331404426912
15064981 194 18197509634558555412
15183329 4 17060623299761580425
15188451 53 11891330945987009038
15419008 91 17677323902263766813
15475509 8 13973965390007830899
15510800 12 11527945699029314132
15538507 19 17903361756101226875
15685185 35 18267024032421792072
15728490 51 18408885170812124719
1577012 14 18343013406640594310
15840311 113 18410295778692352231
15890870 6 18410294735891323192
16087824 20 18409167728205204436
16126227 98 18411135878548439382
16989713 51 16844433012321597855
16992787 43 18412547617409331697
1768 4 18335706056984578561
17686467 74 18113339713920300701
17899979 129 18272094885965775974
18393751 57 17894346687579019386
18603816 31 12468648270095193721
19302320 297 18186518848162562316
19438510 23 18114739434654941122
20157964 124 18411137996379123626
2026 5 9367352526699940941
20505436 4 18272364287315144942
20691028 202 18193554691735326076
20721686 124 18131356276914784502
21033648 29 17822014250764071226
21298829 104 18410855499347792404
21304303 64 18334853939477901821
21304304 249 9079116674374847168
21307412 95 13038902269983857357
21521721 280 18336549326874723131
21585481 104 17203061694351558356
21585482 111 18335417907376229852
22224240 67 17749108877173196179
23522609 53 17703237205081115547
23524908 199 17846508007335160996
23576562 1 16055729093707011233
23729398 52 18192716636305627566
24771293 8 18187363259320803077
25269216 80 17060045013260524807
2747138 104 17603879858085230221
2838139 119 18334848399481727902
3004659 81 10952042351549536654
306946 40 17240750763193405669
34797466 226 18130228151491565159
3525247 18 17196272455138654984
3711267 37 18201729418479257609
397830 11 18187376436861228859
4073 2 18334296483173222163
4112364 45 17822559565586641522
4339292 15 12247692556877160484
4366758 26 18413114961020078744
437815 12 10952050060884178179
444735 82 18261115128011135645
445580 126 18411973655581230538
474113 269 8070033246595654915
5080951 261 16515964874338137283
5265222 85 18201999950158989855
5470011 282 14189294915770649008
5758199 1 18407759239837853415
5776283 40 18271242850053435192
5911458 16 18131637772495288425
59682541 35 17821733845043735089
6327066 14 18339361976581792934
6438161 24 9007056855274412260
6691757 9 15502650567657524011
9689198 14 18342461439118930823
9962374 69 8934992647466811616
9980921 177 18189314863577061168

> <PUBCHEM_SHAPE_MULTIPOLES>
569.77
28.21
3.39
0.96
13.53
0.07
-0.12
27.19
-0.59
-6.27
-0.26
1.27
-0.13
-0.8

> <PUBCHEM_SHAPE_SELFOVERLAP>
1234.614

> <PUBCHEM_SHAPE_VOLUME>
317.7

> <PUBCHEM_COORDINATE_TYPE>
2
5
10

$$$$
