28961418
  -OEChem-12032416253D

 60 63  0     1  0  0  0  0  0999 V2000
    8.1235   -0.8273   -0.6828 Cl  0  0  0  0  0  0  0  0  0  0  0  0
    1.7829    2.3720    0.8256 O   0  0  0  0  0  0  0  0  0  0  0  0
   -0.0321    2.8395   -1.5102 O   0  0  0  0  0  0  0  0  0  0  0  0
    3.1841    4.7598    0.3359 O   0  0  0  0  0  0  0  0  0  0  0  0
   -1.5923    1.0960    0.1475 N   0  0  0  0  0  0  0  0  0  0  0  0
   -4.1134   -0.2464    0.1044 N   0  0  0  0  0  0  0  0  0  0  0  0
    2.5346   -0.3236    0.2758 N   0  0  0  0  0  0  0  0  0  0  0  0
   -0.5570    1.9552    0.6946 C   0  0  1  0  0  0  0  0  0  0  0  0
    0.8135    1.3048    0.9226 C   0  0  1  0  0  0  0  0  0  0  0  0
   -0.2205    3.1796   -0.1426 C   0  0  1  0  0  0  0  0  0  0  0  0
    1.1028    3.5963    0.4881 C   0  0  2  0  0  0  0  0  0  0  0  0
   -1.8429   -0.0416    1.0411 C   0  0  0  0  0  0  0  0  0  0  0  0
   -2.8336    1.8521   -0.0583 C   0  0  0  0  0  0  0  0  0  0  0  0
    1.2306    0.2239   -0.0685 C   0  0  0  0  0  0  0  0  0  0  0  0
   -2.8917   -0.9851    0.4480 C   0  0  0  0  0  0  0  0  0  0  0  0
   -3.9165    0.9719   -0.6873 C   0  0  0  0  0  0  0  0  0  0  0  0
    2.0055    4.4454   -0.3882 C   0  0  0  0  0  0  0  0  0  0  0  0
   -5.3059   -0.9683   -0.0177 C   0  0  0  0  0  0  0  0  0  0  0  0
    2.9378   -1.3496   -0.6770 C   0  0  0  0  0  0  0  0  0  0  0  0
   -5.8001   -1.6880    1.0701 C   0  0  0  0  0  0  0  0  0  0  0  0
   -6.0019   -0.9656   -1.2264 C   0  0  0  0  0  0  0  0  0  0  0  0
    4.2907   -1.9215   -0.3460 C   0  0  0  0  0  0  0  0  0  0  0  0
   -6.9906   -2.4049    0.9493 C   0  0  0  0  0  0  0  0  0  0  0  0
   -7.1925   -1.6823   -1.3472 C   0  0  0  0  0  0  0  0  0  0  0  0
   -7.6867   -2.4021   -0.2593 C   0  0  0  0  0  0  0  0  0  0  0  0
    5.4453   -1.1939   -0.6340 C   0  0  0  0  0  0  0  0  0  0  0  0
    4.3890   -3.1797    0.2485 C   0  0  0  0  0  0  0  0  0  0  0  0
    6.6983   -1.7243   -0.3276 C   0  0  0  0  0  0  0  0  0  0  0  0
    5.6421   -3.7100    0.5549 C   0  0  0  0  0  0  0  0  0  0  0  0
    6.7969   -2.9824    0.2667 C   0  0  0  0  0  0  0  0  0  0  0  0
   -0.8864    2.3349    1.6758 H   0  0  0  0  0  0  0  0  0  0  0  0
    0.8634    0.9020    1.9424 H   0  0  0  0  0  0  0  0  0  0  0  0
   -0.9671    3.9775   -0.0779 H   0  0  0  0  0  0  0  0  0  0  0  0
    0.9231    4.1091    1.4419 H   0  0  0  0  0  0  0  0  0  0  0  0
   -2.2065    0.3206    2.0136 H   0  0  0  0  0  0  0  0  0  0  0  0
   -0.9532   -0.6359    1.2590 H   0  0  0  0  0  0  0  0  0  0  0  0
   -2.6823    2.6939   -0.7422 H   0  0  0  0  0  0  0  0  0  0  0  0
   -3.2018    2.2633    0.8916 H   0  0  0  0  0  0  0  0  0  0  0  0
    1.3030    0.6657   -1.0695 H   0  0  0  0  0  0  0  0  0  0  0  0
    0.5090   -0.5923   -0.1293 H   0  0  0  0  0  0  0  0  0  0  0  0
   -2.4962   -1.4700   -0.4539 H   0  0  0  0  0  0  0  0  0  0  0  0
   -3.0900   -1.7766    1.1798 H   0  0  0  0  0  0  0  0  0  0  0  0
   -4.8436    1.5567   -0.7362 H   0  0  0  0  0  0  0  0  0  0  0  0
   -3.6258    0.7084   -1.7124 H   0  0  0  0  0  0  0  0  0  0  0  0
    1.5092    5.3763   -0.6786 H   0  0  0  0  0  0  0  0  0  0  0  0
    2.3173    3.9012   -1.2853 H   0  0  0  0  0  0  0  0  0  0  0  0
    0.0729    3.6682   -2.0076 H   0  0  0  0  0  0  0  0  0  0  0  0
    2.4954   -0.7246    1.2129 H   0  0  0  0  0  0  0  0  0  0  0  0
    2.9805   -0.9349   -1.6927 H   0  0  0  0  0  0  0  0  0  0  0  0
    2.1960   -2.1583   -0.7049 H   0  0  0  0  0  0  0  0  0  0  0  0
    3.7406    5.3053   -0.2457 H   0  0  0  0  0  0  0  0  0  0  0  0
   -5.2803   -1.6908    2.0248 H   0  0  0  0  0  0  0  0  0  0  0  0
   -5.6399   -0.4280   -2.0981 H   0  0  0  0  0  0  0  0  0  0  0  0
   -7.3773   -2.9627    1.7971 H   0  0  0  0  0  0  0  0  0  0  0  0
   -7.7334   -1.6828   -2.2891 H   0  0  0  0  0  0  0  0  0  0  0  0
   -8.6136   -2.9602   -0.3535 H   0  0  0  0  0  0  0  0  0  0  0  0
    5.3660   -0.2132   -1.0981 H   0  0  0  0  0  0  0  0  0  0  0  0
    3.4978   -3.7567    0.4805 H   0  0  0  0  0  0  0  0  0  0  0  0
    5.7189   -4.6893    1.0181 H   0  0  0  0  0  0  0  0  0  0  0  0
    7.7667   -3.4084    0.5111 H   0  0  0  0  0  0  0  0  0  0  0  0
  1 28  1  0  0  0  0
  2  9  1  0  0  0  0
  2 11  1  0  0  0  0
  3 10  1  0  0  0  0
  3 47  1  0  0  0  0
  4 17  1  0  0  0  0
  4 51  1  0  0  0  0
  5  8  1  0  0  0  0
  5 12  1  0  0  0  0
  5 13  1  0  0  0  0
  6 15  1  0  0  0  0
  6 16  1  0  0  0  0
  6 18  1  0  0  0  0
  7 14  1  0  0  0  0
  7 19  1  0  0  0  0
  7 48  1  0  0  0  0
  8  9  1  0  0  0  0
  8 10  1  0  0  0  0
  8 31  1  0  0  0  0
  9 14  1  0  0  0  0
  9 32  1  0  0  0  0
 10 11  1  0  0  0  0
 10 33  1  0  0  0  0
 11 17  1  0  0  0  0
 11 34  1  0  0  0  0
 12 15  1  0  0  0  0
 12 35  1  0  0  0  0
 12 36  1  0  0  0  0
 13 16  1  0  0  0  0
 13 37  1  0  0  0  0
 13 38  1  0  0  0  0
 14 39  1  0  0  0  0
 14 40  1  0  0  0  0
 15 41  1  0  0  0  0
 15 42  1  0  0  0  0
 16 43  1  0  0  0  0
 16 44  1  0  0  0  0
 17 45  1  0  0  0  0
 17 46  1  0  0  0  0
 18 20  2  0  0  0  0
 18 21  1  0  0  0  0
 19 22  1  0  0  0  0
 19 49  1  0  0  0  0
 19 50  1  0  0  0  0
 20 23  1  0  0  0  0
 20 52  1  0  0  0  0
 21 24  2  0  0  0  0
 21 53  1  0  0  0  0
 22 26  2  0  0  0  0
 22 27  1  0  0  0  0
 23 25  2  0  0  0  0
 23 54  1  0  0  0  0
 24 25  1  0  0  0  0
 24 55  1  0  0  0  0
 25 56  1  0  0  0  0
 26 28  1  0  0  0  0
 26 57  1  0  0  0  0
 27 29  2  0  0  0  0
 27 58  1  0  0  0  0
 28 30  2  0  0  0  0
 29 30  1  0  0  0  0
 29 59  1  0  0  0  0
 30 60  1  0  0  0  0
M  END
> <PUBCHEM_COMPOUND_CID>
28961418

> <PUBCHEM_CONFORMER_RMSD>
1

> <PUBCHEM_CONFORMER_DIVERSEORDER>
1
10
40
41
43
55
30
50
54
16
52
48
42
25
34
17
32
24
44
5
53
31
12
51
9
49
23
29
26
18
33
19
13
36
38
8
27
20
7
21
28
14
45
39
4
37
22
15
46
47
35
3
6
2
11

> <PUBCHEM_MMFF94_PARTIAL_CHARGES>
42
1 -0.18
10 0.28
11 0.28
12 0.27
13 0.27
14 0.27
15 0.37
16 0.37
17 0.28
18 0.1
19 0.41
2 -0.56
20 -0.15
21 -0.15
22 -0.14
23 -0.15
24 -0.15
25 -0.15
26 -0.15
27 -0.15
28 0.18
29 -0.15
3 -0.68
30 -0.15
4 -0.68
47 0.4
48 0.36
5 -0.81
51 0.4
52 0.15
53 0.15
54 0.15
55 0.15
56 0.15
57 0.15
58 0.15
59 0.15
6 -0.84
60 0.15
7 -0.9
8 0.27
9 0.28

> <PUBCHEM_EFFECTIVE_ROTOR_COUNT>
9.2

> <PUBCHEM_PHARMACOPHORE_FEATURES>
13
1 2 acceptor
1 3 acceptor
1 3 donor
1 4 acceptor
1 4 donor
1 5 cation
1 6 cation
1 7 cation
1 7 donor
5 2 8 9 10 11 rings
6 18 20 21 23 24 25 rings
6 22 26 27 28 29 30 rings
6 5 6 12 13 15 16 rings

> <PUBCHEM_HEAVY_ATOM_COUNT>
30

> <PUBCHEM_ATOM_DEF_STEREO_COUNT>
4

> <PUBCHEM_ATOM_UDEF_STEREO_COUNT>
0

> <PUBCHEM_BOND_DEF_STEREO_COUNT>
0

> <PUBCHEM_BOND_UDEF_STEREO_COUNT>
0

> <PUBCHEM_ISOTOPIC_ATOM_COUNT>
0

> <PUBCHEM_COMPONENT_COUNT>
1

> <PUBCHEM_CACTVS_TAUTO_COUNT>
1

> <PUBCHEM_CONFORMER_ID>
01B9EA8A00000001

> <PUBCHEM_MMFF94_ENERGY>
90.0942

> <PUBCHEM_FEATURE_SELFOVERLAP>
65.979

> <PUBCHEM_SHAPE_FINGERPRINT>
10 15 11455886975668441087
10050765 1 18411700993836057473
10319688 140 18338236088911284948
10411042 1 18411419479876664536
11059845 2 17487356858753752081
11204353 107 18121790688402642058
11297750 10 18336537261663066788
11410812 94 16443619087635782854
11497681 19 18265619793439456342
11621639 208 17756430722302814251
11963148 33 17838330036762994615
12107183 9 18199764565984110057
12522641 126 18190465050706551004
12977781 61 17753343246348382323
13248334 5 18195809797993717640
13533116 47 18200314467636773713
13540713 4 18338497699954902113
13540713 5 18200331982234566337
13631057 29 18337674097263020066
13690498 29 18261668195560741733
13955234 65 18127408075796407961
14068700 675 18130788949528818339
14394314 77 18266465308256598450
15183329 4 16443344243434636971
15351339 4 17895470320007310178
15510800 12 18333732459493509195
15890870 6 18263933310565264332
15927050 60 17909550902040435822
16990366 60 18334005095195572026
16991971 28 18271537442007441054
17492 89 18411416241888457473
17686467 74 18342448207216326610
19841028 212 18058155302357984687
20165401 70 18198903803051852159
20771845 171 18042691796156766892
20775438 99 18047459317113568363
21033650 10 16660637415813758061
21049683 271 18410298034305023780
21130935 74 18194969772201723939
21223535 225 14996565019183488598
21344244 246 18336270145547906316
21682296 61 18411419532081332515
22311459 1 18052255382475799361
23559900 14 18261109733837627315
23569914 152 17906419210226328695
255183 313 17620773690347220865
255183 451 18411136956843791101
2748736 6 8646765578139965011
2838139 119 11314609634991838874
32027 91 18408603699729422435
3627633 1 18267022743741972024
4046055 25 18042970878709599620
437815 12 18408039602739813727
439807 62 18335143081446138687
4461854 278 17703514367104741662
5219985 9 18342459226989272722
5718773 13 18411979139790886515
6004065 56 18408885157394284634
6057620 51 18262246534915370950
6700243 42 17627820538575133188
9962374 69 18271516615669188143

> <PUBCHEM_SHAPE_MULTIPOLES>
586.7
21.66
5.61
1.07
3.16
5.98
0.11
-30.23
3.54
-6.03
-0.41
0.94
-0.08
0.05

> <PUBCHEM_SHAPE_SELFOVERLAP>
1233.001

> <PUBCHEM_SHAPE_VOLUME>
330.4

> <PUBCHEM_COORDINATE_TYPE>
2
5
10

$$$$
