26743532
  -OEChem-12032416333D

 50 54  0     1  0  0  0  0  0999 V2000
    6.7008    0.0636    0.8746 O   0  0  0  0  0  0  0  0  0  0  0  0
    1.9726   -1.1458   -2.0700 O   0  0  0  0  0  0  0  0  0  0  0  0
    3.3229    1.1540    0.4591 N   0  0  1  0  0  0  0  0  0  0  0  0
    1.3787   -1.0821    0.0887 N   0  0  0  0  0  0  0  0  0  0  0  0
    0.8203   -1.9344   -1.9597 N   0  0  0  0  0  0  0  0  0  0  0  0
   -1.3678   -3.2422   -0.9027 N   0  0  0  0  0  0  0  0  0  0  0  0
   -3.4921    0.4148    0.2905 N   0  0  0  0  0  0  0  0  0  0  0  0
   -1.9271   -3.0276    1.8372 N   0  0  0  0  0  0  0  0  0  0  0  0
    3.4475    0.2089   -0.6691 C   0  0  1  0  0  0  0  0  0  0  0  0
    4.7358   -0.5834   -0.3787 C   0  0  0  0  0  0  0  0  0  0  0  0
    5.2875    0.0185    0.9076 C   0  0  2  0  0  0  0  0  0  0  0  0
    4.6803    1.4083    0.9379 C   0  0  0  0  0  0  0  0  0  0  0  0
    2.6273    2.3840    0.1039 C   0  0  0  0  0  0  0  0  0  0  0  0
    2.2329   -0.6828   -0.8194 C   0  0  0  0  0  0  0  0  0  0  0  0
    1.1336    2.1966    0.0803 C   0  0  0  0  0  0  0  0  0  0  0  0
    0.4170    2.4522   -1.0888 C   0  0  0  0  0  0  0  0  0  0  0  0
    0.4664    1.7671    1.2276 C   0  0  0  0  0  0  0  0  0  0  0  0
    0.5308   -1.8473   -0.6579 C   0  0  0  0  0  0  0  0  0  0  0  0
   -0.9667    2.2784   -1.1107 C   0  0  0  0  0  0  0  0  0  0  0  0
   -0.9174    1.5934    1.2056 C   0  0  0  0  0  0  0  0  0  0  0  0
   -1.6340    1.8488    0.0365 C   0  0  0  0  0  0  0  0  0  0  0  0
   -0.5965   -2.5133   -0.0720 C   0  0  0  0  0  0  0  0  0  0  0  0
   -3.0697    1.6687    0.0138 C   0  0  0  0  0  0  0  0  0  0  0  0
   -0.8712   -2.4078    1.2738 C   0  0  0  0  0  0  0  0  0  0  0  0
   -3.9167    2.7267   -0.2745 C   0  0  0  0  0  0  0  0  0  0  0  0
   -5.2855    2.4818   -0.2788 C   0  0  0  0  0  0  0  0  0  0  0  0
   -2.4238   -3.8620   -0.3394 C   0  0  0  0  0  0  0  0  0  0  0  0
   -4.8290    0.2147    0.2769 C   0  0  0  0  0  0  0  0  0  0  0  0
   -5.7585    1.2046    0.0012 C   0  0  0  0  0  0  0  0  0  0  0  0
   -2.6985   -3.7565    1.0064 C   0  0  0  0  0  0  0  0  0  0  0  0
    3.5991    0.7503   -1.6136 H   0  0  0  0  0  0  0  0  0  0  0  0
    4.5649   -1.6586   -0.2518 H   0  0  0  0  0  0  0  0  0  0  0  0
    5.4490   -0.4635   -1.2038 H   0  0  0  0  0  0  0  0  0  0  0  0
    4.9662   -0.5658    1.7785 H   0  0  0  0  0  0  0  0  0  0  0  0
    4.6919    1.8247    1.9506 H   0  0  0  0  0  0  0  0  0  0  0  0
    5.2366    2.0923    0.2832 H   0  0  0  0  0  0  0  0  0  0  0  0
    2.9964    2.8013   -0.8422 H   0  0  0  0  0  0  0  0  0  0  0  0
    2.8238    3.1556    0.8618 H   0  0  0  0  0  0  0  0  0  0  0  0
    7.0200   -0.8500    0.7790 H   0  0  0  0  0  0  0  0  0  0  0  0
    0.9242    2.7839   -1.9908 H   0  0  0  0  0  0  0  0  0  0  0  0
    1.0102    1.5689    2.1474 H   0  0  0  0  0  0  0  0  0  0  0  0
   -1.5057    2.4769   -2.0342 H   0  0  0  0  0  0  0  0  0  0  0  0
   -1.4204    1.2610    2.1107 H   0  0  0  0  0  0  0  0  0  0  0  0
   -0.2660   -1.8270    1.9606 H   0  0  0  0  0  0  0  0  0  0  0  0
   -3.5444    3.7236   -0.4878 H   0  0  0  0  0  0  0  0  0  0  0  0
   -5.9824    3.2849   -0.4988 H   0  0  0  0  0  0  0  0  0  0  0  0
   -3.0443   -4.4476   -1.0064 H   0  0  0  0  0  0  0  0  0  0  0  0
   -5.1458   -0.7985    0.5014 H   0  0  0  0  0  0  0  0  0  0  0  0
   -6.8211    0.9907    0.0037 H   0  0  0  0  0  0  0  0  0  0  0  0
   -3.5476   -4.2542    1.4582 H   0  0  0  0  0  0  0  0  0  0  0  0
  1 11  1  0  0  0  0
  1 39  1  0  0  0  0
  2  5  1  0  0  0  0
  2 14  1  0  0  0  0
  3  9  1  0  0  0  0
  3 12  1  0  0  0  0
  3 13  1  0  0  0  0
  4 14  2  0  0  0  0
  4 18  1  0  0  0  0
  5 18  2  0  0  0  0
  6 22  2  0  0  0  0
  6 27  1  0  0  0  0
  7 23  1  0  0  0  0
  7 28  2  0  0  0  0
  8 24  2  0  0  0  0
  8 30  1  0  0  0  0
  9 10  1  0  0  0  0
  9 14  1  0  0  0  0
  9 31  1  0  0  0  0
 10 11  1  0  0  0  0
 10 32  1  0  0  0  0
 10 33  1  0  0  0  0
 11 12  1  0  0  0  0
 11 34  1  0  0  0  0
 12 35  1  0  0  0  0
 12 36  1  0  0  0  0
 13 15  1  0  0  0  0
 13 37  1  0  0  0  0
 13 38  1  0  0  0  0
 15 16  2  0  0  0  0
 15 17  1  0  0  0  0
 16 19  1  0  0  0  0
 16 40  1  0  0  0  0
 17 20  2  0  0  0  0
 17 41  1  0  0  0  0
 18 22  1  0  0  0  0
 19 21  2  0  0  0  0
 19 42  1  0  0  0  0
 20 21  1  0  0  0  0
 20 43  1  0  0  0  0
 21 23  1  0  0  0  0
 22 24  1  0  0  0  0
 23 25  2  0  0  0  0
 24 44  1  0  0  0  0
 25 26  1  0  0  0  0
 25 45  1  0  0  0  0
 26 29  2  0  0  0  0
 26 46  1  0  0  0  0
 27 30  2  0  0  0  0
 27 47  1  0  0  0  0
 28 29  1  0  0  0  0
 28 48  1  0  0  0  0
 29 49  1  0  0  0  0
 30 50  1  0  0  0  0
M  END
> <PUBCHEM_COMPOUND_CID>
26743532

> <PUBCHEM_CONFORMER_RMSD>
1

> <PUBCHEM_CONFORMER_DIVERSEORDER>
1
79
85
71
83
8
14
47
65
101
48
82
97
62
76
25
64
34
56
52
113
45
58
88
37
77
46
6
2
38
78
114
70
95
110
61
30
86
53
102
80
99
63
12
103
109
57
73
96
81
111
43
68
27
16
4
67
23
49
69
26
74
108
11
29
112
75
3
41
87
66
93
51
42
32
91
55
36
15
89
72
9
19
35
107
94
44
22
92
54
24
84
90
104
39
31
7
106
105
13
18
21
17
5
60
40
20
33
98
59
10
28
100
50

> <PUBCHEM_MMFF94_PARTIAL_CHARGES>
40
1 -0.68
11 0.28
12 0.27
13 0.41
14 0.3
15 -0.14
16 -0.15
17 -0.15
18 0.46
19 -0.15
2 -0.02
20 -0.15
22 0.36
23 0.31
24 0.16
25 -0.15
26 -0.15
27 0.16
28 0.16
29 -0.15
3 -0.81
30 0.16
39 0.4
4 -0.57
40 0.15
41 0.15
42 0.15
43 0.15
44 0.15
45 0.15
46 0.15
47 0.15
48 0.15
49 0.15
5 -0.41
50 0.15
6 -0.62
7 -0.62
8 -0.62
9 0.45

> <PUBCHEM_EFFECTIVE_ROTOR_COUNT>
6

> <PUBCHEM_PHARMACOPHORE_FEATURES>
12
1 1 acceptor
1 1 donor
1 3 cation
1 6 acceptor
1 7 acceptor
1 8 acceptor
3 4 5 18 cation
5 2 4 5 14 18 rings
5 3 9 10 11 12 rings
6 15 16 17 19 20 21 rings
6 6 8 22 24 27 30 rings
6 7 23 25 26 28 29 rings

> <PUBCHEM_HEAVY_ATOM_COUNT>
30

> <PUBCHEM_ATOM_DEF_STEREO_COUNT>
2

> <PUBCHEM_ATOM_UDEF_STEREO_COUNT>
0

> <PUBCHEM_BOND_DEF_STEREO_COUNT>
0

> <PUBCHEM_BOND_UDEF_STEREO_COUNT>
0

> <PUBCHEM_ISOTOPIC_ATOM_COUNT>
0

> <PUBCHEM_COMPONENT_COUNT>
1

> <PUBCHEM_CACTVS_TAUTO_COUNT>
1

> <PUBCHEM_CONFORMER_ID>
019812EC00000001

> <PUBCHEM_MMFF94_ENERGY>
74.3863

> <PUBCHEM_FEATURE_SELFOVERLAP>
60.902

> <PUBCHEM_SHAPE_FINGERPRINT>
10316853 100 18336557066537100201
104564 63 17907305698990269661
10675989 125 17472131783351945489
10688039 33 17903076969044048315
108634 29 18341343235540580423
10864689 126 18123475977507268437
1100329 8 18410291445065425912
11112241 14 17203027677857127417
11370993 70 18411981334682432285
11578080 2 17344607465718974752
12035758 1 18338529602844383107
12156800 1 18120403052829020821
12422481 6 18125185937279907835
12788726 201 17829894591537469720
13140716 1 18339076120364095288
13402501 40 18341613693936609081
13692114 37 18129364038631535319
13726171 33 17903957596138026124
14725015 67 18265049318534260987
14787075 74 18060129921349390669
14866123 147 18336255820993022347
15664445 248 17550388436931344413
15968369 153 18057325209442756631
16728300 4 17027664159277781122
20567600 347 18115873988414443657
20764821 26 18120669178115231039
20905425 154 17980778347476709151
21133410 90 17058936770006667739
21197605 99 18271526515499662047
21304304 249 18335137574780697836
22182313 1 17916607413428221550
23559900 14 17473817330465722077
24893992 56 17970338425587120051
27425 322 17240768457731190045
3052486 1 18187365488319242803
38695281 34 18336824178990621217
4340502 62 18272368637884601181
463206 1 18270961353959934021
508706 21 18338802316235833655
5171179 24 17628341981104625888
6669772 16 18339074866123096002
70251023 43 17187581442996156067

> <PUBCHEM_SHAPE_MULTIPOLES>
575.76
10.76
4.76
1.37
4.24
4.23
0.15
-5.1
-2
-5.04
-0.16
0.5
0.58
1.29

> <PUBCHEM_SHAPE_SELFOVERLAP>
1272.91

> <PUBCHEM_SHAPE_VOLUME>
308.3

> <PUBCHEM_COORDINATE_TYPE>
2
5
10

$$$$
