7673731
  -OEChem-12032416133D

 75 78  0     1  0  0  0  0  0999 V2000
   -4.6821   -0.8575   -1.2876 F   0  0  0  0  0  0  0  0  0  0  0  0
    3.3085    1.0267    1.1454 O   0  0  0  0  0  0  0  0  0  0  0  0
    0.1033   -0.2942   -1.6113 O   0  0  0  0  0  0  0  0  0  0  0  0
    1.5458    3.4324   -1.5076 O   0  0  0  0  0  0  0  0  0  0  0  0
   -0.5980   -4.4554   -1.3382 O   0  0  0  0  0  0  0  0  0  0  0  0
    2.3602   -0.8265    0.1052 N   0  0  0  0  0  0  0  0  0  0  0  0
    0.3442   -2.8373    0.0615 N   0  0  0  0  0  0  0  0  0  0  0  0
    0.0076    1.5327   -0.1718 N   0  0  0  0  0  0  0  0  0  0  0  0
    6.9444    0.7020    1.3927 N   0  0  0  0  0  0  0  0  0  0  0  0
   -0.0033    3.4158   -3.2030 N   0  0  0  0  0  0  0  0  0  0  0  0
   -2.5902    2.8162    0.5597 C   0  0  0  0  0  0  0  0  0  0  0  0
   -3.7762    2.3231   -0.2802 C   0  0  0  0  0  0  0  0  0  0  0  0
   -3.0583    3.7973    1.6430 C   0  0  0  0  0  0  0  0  0  0  0  0
   -1.5299    3.4614   -0.3307 C   0  0  0  0  0  0  0  0  0  0  0  0
   -4.8745    1.7216    0.5936 C   0  0  0  0  0  0  0  0  0  0  0  0
   -4.1576    3.1932    2.5137 C   0  0  0  0  0  0  0  0  0  0  0  0
   -5.3309    2.6963    1.6747 C   0  0  0  0  0  0  0  0  0  0  0  0
    1.0104   -0.5070    0.5889 C   0  0  2  0  0  0  0  0  0  0  0  0
   -0.6384    2.4602   -1.0722 C   0  0  1  0  0  0  0  0  0  0  0  0
    4.7220   -0.2158   -0.2866 C   0  0  0  0  0  0  0  0  0  0  0  0
    0.2135   -1.7374    1.0247 C   0  0  0  0  0  0  0  0  0  0  0  0
    2.4754   -1.9833   -0.7993 C   0  0  0  0  0  0  0  0  0  0  0  0
    3.4069    0.0581    0.3873 C   0  0  0  0  0  0  0  0  0  0  0  0
    5.5725   -1.1752    0.5485 C   0  0  0  0  0  0  0  0  0  0  0  0
    5.4761    1.0872   -0.5603 C   0  0  0  0  0  0  0  0  0  0  0  0
    1.7221   -3.1929   -0.2622 C   0  0  0  0  0  0  0  0  0  0  0  0
    0.3226    0.2313   -0.5231 C   0  0  0  0  0  0  0  0  0  0  0  0
    6.1873   -0.4909    1.7704 C   0  0  0  0  0  0  0  0  0  0  0  0
    6.0949    1.6762    0.7085 C   0  0  0  0  0  0  0  0  0  0  0  0
    0.4278    3.1372   -1.9233 C   0  0  0  0  0  0  0  0  0  0  0  0
   -0.7103   -3.5324   -0.5332 C   0  0  0  0  0  0  0  0  0  0  0  0
   -2.0805   -3.1451   -0.1768 C   0  0  0  0  0  0  0  0  0  0  0  0
   -2.7434   -2.1656   -0.9163 C   0  0  0  0  0  0  0  0  0  0  0  0
   -2.7198   -3.7565    0.9017 C   0  0  0  0  0  0  0  0  0  0  0  0
   -4.0455   -1.7978   -0.5775 C   0  0  0  0  0  0  0  0  0  0  0  0
   -4.0218   -3.3888    1.2407 C   0  0  0  0  0  0  0  0  0  0  0  0
   -4.6847   -2.4094    0.5010 C   0  0  0  0  0  0  0  0  0  0  0  0
   -2.1611    1.9517    1.0823 H   0  0  0  0  0  0  0  0  0  0  0  0
   -4.1962    3.1543   -0.8609 H   0  0  0  0  0  0  0  0  0  0  0  0
   -3.4452    1.5675   -1.0011 H   0  0  0  0  0  0  0  0  0  0  0  0
   -2.2137    4.0840    2.2811 H   0  0  0  0  0  0  0  0  0  0  0  0
   -3.4317    4.7177    1.1759 H   0  0  0  0  0  0  0  0  0  0  0  0
   -1.9960    4.1491   -1.0483 H   0  0  0  0  0  0  0  0  0  0  0  0
   -0.8754    4.0878    0.2918 H   0  0  0  0  0  0  0  0  0  0  0  0
   -4.5015    0.8067    1.0688 H   0  0  0  0  0  0  0  0  0  0  0  0
   -5.7286    1.4353   -0.0302 H   0  0  0  0  0  0  0  0  0  0  0  0
   -4.5099    3.9407    3.2333 H   0  0  0  0  0  0  0  0  0  0  0  0
   -3.7455    2.3593    3.0953 H   0  0  0  0  0  0  0  0  0  0  0  0
   -5.8327    3.5519    1.2062 H   0  0  0  0  0  0  0  0  0  0  0  0
   -6.0679    2.2093    2.3231 H   0  0  0  0  0  0  0  0  0  0  0  0
    1.0976    0.1464    1.4648 H   0  0  0  0  0  0  0  0  0  0  0  0
   -1.2668    1.8645   -1.7464 H   0  0  0  0  0  0  0  0  0  0  0  0
    4.5414   -0.6425   -1.2776 H   0  0  0  0  0  0  0  0  0  0  0  0
   -0.8313   -1.4706    1.1995 H   0  0  0  0  0  0  0  0  0  0  0  0
    0.6139   -2.1166    1.9732 H   0  0  0  0  0  0  0  0  0  0  0  0
    3.5115   -2.2932   -0.9377 H   0  0  0  0  0  0  0  0  0  0  0  0
    2.0972   -1.6861   -1.7824 H   0  0  0  0  0  0  0  0  0  0  0  0
    6.3802   -1.5714   -0.0808 H   0  0  0  0  0  0  0  0  0  0  0  0
    4.9837   -2.0364    0.8847 H   0  0  0  0  0  0  0  0  0  0  0  0
    4.8135    1.8302   -1.0211 H   0  0  0  0  0  0  0  0  0  0  0  0
    6.2775    0.8886   -1.2846 H   0  0  0  0  0  0  0  0  0  0  0  0
    1.7559   -4.0089   -0.9909 H   0  0  0  0  0  0  0  0  0  0  0  0
    2.1883   -3.5547    0.6623 H   0  0  0  0  0  0  0  0  0  0  0  0
    0.3065    1.8929    0.7297 H   0  0  0  0  0  0  0  0  0  0  0  0
    5.4117   -0.2327    2.5012 H   0  0  0  0  0  0  0  0  0  0  0  0
    6.8654   -1.1942    2.2665 H   0  0  0  0  0  0  0  0  0  0  0  0
    5.3494    2.0821    1.3977 H   0  0  0  0  0  0  0  0  0  0  0  0
    6.7221    2.5273    0.4180 H   0  0  0  0  0  0  0  0  0  0  0  0
    7.3406    1.1291    2.2294 H   0  0  0  0  0  0  0  0  0  0  0  0
    0.6088    3.8742   -3.8699 H   0  0  0  0  0  0  0  0  0  0  0  0
   -0.9364    3.1834   -3.5277 H   0  0  0  0  0  0  0  0  0  0  0  0
   -2.2594   -1.6860   -1.7623 H   0  0  0  0  0  0  0  0  0  0  0  0
   -2.2121   -4.5203    1.4850 H   0  0  0  0  0  0  0  0  0  0  0  0
   -4.5193   -3.8644    2.0808 H   0  0  0  0  0  0  0  0  0  0  0  0
   -5.6980   -2.1216    0.7651 H   0  0  0  0  0  0  0  0  0  0  0  0
  1 35  1  0  0  0  0
  2 23  2  0  0  0  0
  3 27  2  0  0  0  0
  4 30  2  0  0  0  0
  5 31  2  0  0  0  0
  6 18  1  0  0  0  0
  6 22  1  0  0  0  0
  6 23  1  0  0  0  0
  7 21  1  0  0  0  0
  7 26  1  0  0  0  0
  7 31  1  0  0  0  0
  8 19  1  0  0  0  0
  8 27  1  0  0  0  0
  8 64  1  0  0  0  0
  9 28  1  0  0  0  0
  9 29  1  0  0  0  0
  9 69  1  0  0  0  0
 10 30  1  0  0  0  0
 10 70  1  0  0  0  0
 10 71  1  0  0  0  0
 11 12  1  0  0  0  0
 11 13  1  0  0  0  0
 11 14  1  0  0  0  0
 11 38  1  0  0  0  0
 12 15  1  0  0  0  0
 12 39  1  0  0  0  0
 12 40  1  0  0  0  0
 13 16  1  0  0  0  0
 13 41  1  0  0  0  0
 13 42  1  0  0  0  0
 14 19  1  0  0  0  0
 14 43  1  0  0  0  0
 14 44  1  0  0  0  0
 15 17  1  0  0  0  0
 15 45  1  0  0  0  0
 15 46  1  0  0  0  0
 16 17  1  0  0  0  0
 16 47  1  0  0  0  0
 16 48  1  0  0  0  0
 17 49  1  0  0  0  0
 17 50  1  0  0  0  0
 18 21  1  0  0  0  0
 18 27  1  0  0  0  0
 18 51  1  0  0  0  0
 19 30  1  0  0  0  0
 19 52  1  0  0  0  0
 20 23  1  0  0  0  0
 20 24  1  0  0  0  0
 20 25  1  0  0  0  0
 20 53  1  0  0  0  0
 21 54  1  0  0  0  0
 21 55  1  0  0  0  0
 22 26  1  0  0  0  0
 22 56  1  0  0  0  0
 22 57  1  0  0  0  0
 24 28  1  0  0  0  0
 24 58  1  0  0  0  0
 24 59  1  0  0  0  0
 25 29  1  0  0  0  0
 25 60  1  0  0  0  0
 25 61  1  0  0  0  0
 26 62  1  0  0  0  0
 26 63  1  0  0  0  0
 28 65  1  0  0  0  0
 28 66  1  0  0  0  0
 29 67  1  0  0  0  0
 29 68  1  0  0  0  0
 31 32  1  0  0  0  0
 32 33  2  0  0  0  0
 32 34  1  0  0  0  0
 33 35  1  0  0  0  0
 33 72  1  0  0  0  0
 34 36  2  0  0  0  0
 34 73  1  0  0  0  0
 35 37  2  0  0  0  0
 36 37  1  0  0  0  0
 36 74  1  0  0  0  0
 37 75  1  0  0  0  0
M  END
> <PUBCHEM_COMPOUND_CID>
7673731

> <PUBCHEM_CONFORMER_RMSD>
1.2

> <PUBCHEM_CONFORMER_DIVERSEORDER>
1
9
162
38
21
91
32
147
89
145
58
78
122
22
113
150
108
44
48
103
96
141
51
124
164
29
94
163
26
42
115
31
85
83
127
67
95
88
53
107
37
157
71
30
158
146
153
19
77
139
118
152
134
135
64
126
151
161
112
76
84
61
8
66
116
155
28
72
56
160
54
93
69
68
121
138
129
73
154
98
74
15
114
16
131
159
81
59
104
101
140
55
123
43
18
132
60
41
40
128
133
156
75
12
65
90
14
86
143
120
50
34
2
99
119
3
92
35
25
100
10
17
62
110
105
23
39
125
36
7
11
130
57
33
6
63
82
24
109
144
97
149
102
13
117
27
137
79
49
142
80
106
136
70
5
52
4
111
87
47
45
20
148
46

> <PUBCHEM_MMFF94_PARTIAL_CHARGES>
36
1 -0.19
10 -0.8
18 0.36
19 0.36
2 -0.57
20 0.06
21 0.3
22 0.3
23 0.57
26 0.3
27 0.57
28 0.27
29 0.27
3 -0.57
30 0.57
31 0.54
32 0.09
33 -0.15
34 -0.15
35 0.19
36 -0.15
37 -0.15
4 -0.57
5 -0.57
6 -0.66
64 0.37
69 0.36
7 -0.66
70 0.37
71 0.37
72 0.15
73 0.15
74 0.15
75 0.15
8 -0.73
9 -0.9

> <PUBCHEM_EFFECTIVE_ROTOR_COUNT>
13.6

> <PUBCHEM_PHARMACOPHORE_FEATURES>
12
1 10 donor
1 2 acceptor
1 3 acceptor
1 4 acceptor
1 5 acceptor
1 8 donor
1 9 cation
1 9 donor
6 11 12 13 15 16 17 rings
6 32 33 34 35 36 37 rings
6 6 7 18 21 22 26 rings
6 9 20 24 25 28 29 rings

> <PUBCHEM_HEAVY_ATOM_COUNT>
37

> <PUBCHEM_ATOM_DEF_STEREO_COUNT>
2

> <PUBCHEM_ATOM_UDEF_STEREO_COUNT>
0

> <PUBCHEM_BOND_DEF_STEREO_COUNT>
0

> <PUBCHEM_BOND_UDEF_STEREO_COUNT>
0

> <PUBCHEM_ISOTOPIC_ATOM_COUNT>
0

> <PUBCHEM_COMPONENT_COUNT>
1

> <PUBCHEM_CACTVS_TAUTO_COUNT>
4

> <PUBCHEM_CONFORMER_ID>
0075178300000001

> <PUBCHEM_MMFF94_ENERGY>
79.6139

> <PUBCHEM_FEATURE_SELFOVERLAP>
60.898

> <PUBCHEM_SHAPE_FINGERPRINT>
10074138 170 18261938709528024058
10675989 125 17110180749932077845
11115154 58 17770749568521834271
11135609 187 18194953060193863413
11227688 84 16321457564584625015
11513181 2 17917431973881824695
12156800 1 18124066548200087999
12160290 23 18050809374297211814
12788726 201 18050869980501741260
13383665 225 18263099837558455676
13560911 43 17968933223507904875
1361 2 18120379757676064441
140371 6 18263935495242030351
14068700 675 18199172070554715023
14294032 229 18261114024721544132
14955137 171 18047194330115302346
15297060 5 18202570549036890209
15324884 4 17467374235345706141
16112460 7 18126849296371554435
16114785 44 17845352470988534430
17818456 19 18196096765931814941
21133410 38 18059013849134400991
21236236 1 18412539920669083962
244849 19 17417268549727211132
255183 313 18410292467541786936
3493558 16 18342742952824648528
469060 322 17095232623042527838
5047190 48 18339085886634150502
50677037 204 18339080393629669029
5171179 24 17558813208197593273
581034 39 18266467511659879612
59444896 2 17606992691182946748
6691757 9 17981289397984400826
7399639 24 17829612760020756404

> <PUBCHEM_SHAPE_MULTIPOLES>
705.79
12.91
6.49
1.88
15.04
1.21
0.38
-4.05
-7.36
-8.09
0.66
-0.5
-1.84
-1.66

> <PUBCHEM_SHAPE_SELFOVERLAP>
1480.058

> <PUBCHEM_SHAPE_VOLUME>
395.5

> <PUBCHEM_COORDINATE_TYPE>
2
5
10

$$$$
