26743248
  -OEChem-12032416193D

 59 62  0     1  0  0  0  0  0999 V2000
   -2.7328   -2.0021   -1.0758 O   0  0  0  0  0  0  0  0  0  0  0  0
    5.0124   -0.0467   -1.5312 O   0  0  0  0  0  0  0  0  0  0  0  0
    0.7185    2.7358    0.3074 N   0  0  0  0  0  0  0  0  0  0  0  0
    5.6364   -0.6423    0.6267 N   0  0  0  0  0  0  0  0  0  0  0  0
   -1.3682   -1.8462   -1.2866 N   0  0  0  0  0  0  0  0  0  0  0  0
    2.3787    0.5618   -0.7989 C   0  0  1  0  0  0  0  0  0  0  0  0
    0.8962    0.3631   -0.4029 C   0  0  2  0  0  0  0  0  0  0  0  0
    7.0150   -0.9691    0.3424 C   0  0  0  0  0  0  0  0  0  0  0  0
    2.6197    2.0481   -1.1120 C   0  0  0  0  0  0  0  0  0  0  0  0
    8.0627   -0.9142    1.4151 C   0  0  0  0  0  0  0  0  0  0  0  0
    8.0736    0.0938    0.3036 C   0  0  0  0  0  0  0  0  0  0  0  0
    0.4650    1.3482    0.6967 C   0  0  0  0  0  0  0  0  0  0  0  0
    3.3775    0.0562    0.2489 C   0  0  0  0  0  0  0  0  0  0  0  0
    0.5729   -1.0743    0.0068 C   0  0  0  0  0  0  0  0  0  0  0  0
    2.1298    2.9667    0.0066 C   0  0  0  0  0  0  0  0  0  0  0  0
   -5.3128   -0.5909    0.0142 C   0  0  0  0  0  0  0  0  0  0  0  0
   -6.7797   -0.7741    0.4261 C   0  0  0  0  0  0  0  0  0  0  0  0
   -4.7857    0.7782    0.4643 C   0  0  0  0  0  0  0  0  0  0  0  0
    4.7460   -0.2053   -0.3431 C   0  0  0  0  0  0  0  0  0  0  0  0
   -4.4486   -1.7150    0.5826 C   0  0  0  0  0  0  0  0  0  0  0  0
   -7.6556    0.3670   -0.0860 C   0  0  0  0  0  0  0  0  0  0  0  0
   -5.6651    1.9168   -0.0477 C   0  0  0  0  0  0  0  0  0  0  0  0
   -7.1238    1.7268    0.3560 C   0  0  0  0  0  0  0  0  0  0  0  0
   -0.8929   -1.3667   -0.1337 C   0  0  0  0  0  0  0  0  0  0  0  0
   -3.0381   -1.6147    0.1890 C   0  0  0  0  0  0  0  0  0  0  0  0
   -1.9012   -1.2011    0.8316 C   0  0  0  0  0  0  0  0  0  0  0  0
    2.5363   -0.0030   -1.7282 H   0  0  0  0  0  0  0  0  0  0  0  0
    0.3062    0.6041   -1.3013 H   0  0  0  0  0  0  0  0  0  0  0  0
    7.1035   -1.7802   -0.3738 H   0  0  0  0  0  0  0  0  0  0  0  0
    2.0868    2.3033   -2.0380 H   0  0  0  0  0  0  0  0  0  0  0  0
    3.6796    2.2452   -1.3066 H   0  0  0  0  0  0  0  0  0  0  0  0
    8.8303   -1.6782    1.4110 H   0  0  0  0  0  0  0  0  0  0  0  0
    7.7758   -0.5713    2.4016 H   0  0  0  0  0  0  0  0  0  0  0  0
    7.7926    1.1116    0.5448 H   0  0  0  0  0  0  0  0  0  0  0  0
    8.8473    0.0076   -0.4493 H   0  0  0  0  0  0  0  0  0  0  0  0
   -0.6085    1.2614    0.8882 H   0  0  0  0  0  0  0  0  0  0  0  0
    0.9755    1.1268    1.6420 H   0  0  0  0  0  0  0  0  0  0  0  0
    3.0525   -0.9024    0.6668 H   0  0  0  0  0  0  0  0  0  0  0  0
    3.4797    0.7510    1.0887 H   0  0  0  0  0  0  0  0  0  0  0  0
    0.8763   -1.2715    1.0423 H   0  0  0  0  0  0  0  0  0  0  0  0
    1.1267   -1.7806   -0.6257 H   0  0  0  0  0  0  0  0  0  0  0  0
    2.7360    2.8486    0.9115 H   0  0  0  0  0  0  0  0  0  0  0  0
    2.2505    4.0074   -0.3146 H   0  0  0  0  0  0  0  0  0  0  0  0
   -5.2609   -0.6290   -1.0833 H   0  0  0  0  0  0  0  0  0  0  0  0
    0.4287    3.3565    1.0627 H   0  0  0  0  0  0  0  0  0  0  0  0
    5.3211   -0.7507    1.5872 H   0  0  0  0  0  0  0  0  0  0  0  0
   -6.8576   -0.8245    1.5197 H   0  0  0  0  0  0  0  0  0  0  0  0
   -7.1620   -1.7251    0.0363 H   0  0  0  0  0  0  0  0  0  0  0  0
   -3.7690    0.9510    0.0945 H   0  0  0  0  0  0  0  0  0  0  0  0
   -4.7412    0.8221    1.5601 H   0  0  0  0  0  0  0  0  0  0  0  0
   -4.8433   -2.6833    0.2491 H   0  0  0  0  0  0  0  0  0  0  0  0
   -4.5192   -1.7215    1.6782 H   0  0  0  0  0  0  0  0  0  0  0  0
   -8.6808    0.2363    0.2781 H   0  0  0  0  0  0  0  0  0  0  0  0
   -7.6986    0.3303   -1.1815 H   0  0  0  0  0  0  0  0  0  0  0  0
   -5.5928    1.9704   -1.1410 H   0  0  0  0  0  0  0  0  0  0  0  0
   -5.2963    2.8717    0.3436 H   0  0  0  0  0  0  0  0  0  0  0  0
   -7.7351    2.5229   -0.0838 H   0  0  0  0  0  0  0  0  0  0  0  0
   -7.2156    1.8178    1.4454 H   0  0  0  0  0  0  0  0  0  0  0  0
   -1.8171   -0.8379    1.8452 H   0  0  0  0  0  0  0  0  0  0  0  0
  1  5  1  0  0  0  0
  1 25  1  0  0  0  0
  2 19  2  0  0  0  0
  3 12  1  0  0  0  0
  3 15  1  0  0  0  0
  3 45  1  0  0  0  0
  4  8  1  0  0  0  0
  4 19  1  0  0  0  0
  4 46  1  0  0  0  0
  5 24  2  0  0  0  0
  6  7  1  0  0  0  0
  6  9  1  0  0  0  0
  6 13  1  0  0  0  0
  6 27  1  0  0  0  0
  7 12  1  0  0  0  0
  7 14  1  0  0  0  0
  7 28  1  0  0  0  0
  8 10  1  0  0  0  0
  8 11  1  0  0  0  0
  8 29  1  0  0  0  0
  9 15  1  0  0  0  0
  9 30  1  0  0  0  0
  9 31  1  0  0  0  0
 10 11  1  0  0  0  0
 10 32  1  0  0  0  0
 10 33  1  0  0  0  0
 11 34  1  0  0  0  0
 11 35  1  0  0  0  0
 12 36  1  0  0  0  0
 12 37  1  0  0  0  0
 13 19  1  0  0  0  0
 13 38  1  0  0  0  0
 13 39  1  0  0  0  0
 14 24  1  0  0  0  0
 14 40  1  0  0  0  0
 14 41  1  0  0  0  0
 15 42  1  0  0  0  0
 15 43  1  0  0  0  0
 16 17  1  0  0  0  0
 16 18  1  0  0  0  0
 16 20  1  0  0  0  0
 16 44  1  0  0  0  0
 17 21  1  0  0  0  0
 17 47  1  0  0  0  0
 17 48  1  0  0  0  0
 18 22  1  0  0  0  0
 18 49  1  0  0  0  0
 18 50  1  0  0  0  0
 20 25  1  0  0  0  0
 20 51  1  0  0  0  0
 20 52  1  0  0  0  0
 21 23  1  0  0  0  0
 21 53  1  0  0  0  0
 21 54  1  0  0  0  0
 22 23  1  0  0  0  0
 22 55  1  0  0  0  0
 22 56  1  0  0  0  0
 23 57  1  0  0  0  0
 23 58  1  0  0  0  0
 24 26  1  0  0  0  0
 25 26  2  0  0  0  0
 26 59  1  0  0  0  0
M  END
> <PUBCHEM_COMPOUND_CID>
26743248

> <PUBCHEM_CONFORMER_RMSD>
1.2

> <PUBCHEM_CONFORMER_DIVERSEORDER>
1
81
79
8
69
61
9
80
33
63
98
37
17
5
89
44
100
59
16
31
97
34
49
92
12
58
38
60
50
68
72
18
35
87
70
71
52
15
53
41
67
45
6
36
66
54
86
55
95
84
56
25
94
51
14
83
101
24
7
39
57
11
2
64
32
22
90
65
91
96
40
21
20
93
82
47
73
23
48
10
76
26
19
46
43
77
4
74
13
30
75
88
28
27
3
85
62
99
78
42
29

> <PUBCHEM_MMFF94_PARTIAL_CHARGES>
25
1 -0.02
10 -0.2
11 -0.2
12 0.27
13 0.06
14 0.18
15 0.27
19 0.57
2 -0.57
20 0.18
24 0.11
25 -0.04
26 -0.15
29 0.1
3 -0.9
32 0.1
33 0.1
34 0.1
35 0.1
4 -0.58
45 0.36
46 0.37
5 -0.41
59 0.15
8 0.05

> <PUBCHEM_EFFECTIVE_ROTOR_COUNT>
11

> <PUBCHEM_PHARMACOPHORE_FEATURES>
8
1 2 acceptor
1 3 cation
1 3 donor
1 4 donor
1 5 acceptor
5 1 5 24 25 26 rings
6 16 17 18 21 22 23 rings
6 3 6 7 9 12 15 rings

> <PUBCHEM_HEAVY_ATOM_COUNT>
26

> <PUBCHEM_ATOM_DEF_STEREO_COUNT>
2

> <PUBCHEM_ATOM_UDEF_STEREO_COUNT>
0

> <PUBCHEM_BOND_DEF_STEREO_COUNT>
0

> <PUBCHEM_BOND_UDEF_STEREO_COUNT>
0

> <PUBCHEM_ISOTOPIC_ATOM_COUNT>
0

> <PUBCHEM_COMPONENT_COUNT>
1

> <PUBCHEM_CACTVS_TAUTO_COUNT>
2

> <PUBCHEM_CONFORMER_ID>
019811D000000001

> <PUBCHEM_MMFF94_ENERGY>
29.0963

> <PUBCHEM_FEATURE_SELFOVERLAP>
40.596

> <PUBCHEM_SHAPE_FINGERPRINT>
10050765 1 18123189266606603834
10299344 5 17385725802893894066
10670039 82 18335977598303508537
11089746 13 18410009962200193007
12107183 9 18409728469321004362
12144603 126 18187650228605046742
12592606 108 18334855047474339202
12596602 18 15068919598285101925
14123256 10 10159696901957933891
14251752 14 18334579044301138112
14251764 18 18260548935293712086
14675019 173 17530966882017919349
15142383 8 18334012787755642516
15183329 4 18410866459739984069
15238133 3 18334864925951205094
15301273 46 17775291556629809222
15461852 350 17131828811085080127
15537594 2 12035726561537001913
15849732 13 18130786754689850942
16087824 20 18338235939067997149
19611394 137 17970083334630581971
20105231 36 12901550126301192768
20832881 197 18261393386183370170
21095086 128 15430038772983658427
21150785 3 11671778273951582154
21304253 13 18343579664288876904
21365058 27 14273458067572367513
21792934 111 18411691098473520144
21859007 373 18272364252659578065
22224240 67 11887953250967500046
23522609 53 17459776819997102060
2838139 119 18412262848930715485
3009799 131 17346880039651238003
335352 9 18410575097711563437
4017518 198 17275393105814374286
4098825 35 17312822706358366388
4258327 124 12390933705911928418
4325135 7 11024108746043752891
4339292 15 17417520441766610215
5047190 69 18201994391722222793
5104073 3 18056208100653851187
5207 217 9655575214785664246
57724786 102 17896604070892310197
59755656 520 17530965813367497755
6081469 158 17632581518539101202
6328613 192 18187938325293089789
6371380 46 18335137622109981202

> <PUBCHEM_SHAPE_MULTIPOLES>
508.39
22.98
2.5
1.03
9.27
1.43
-0.13
-1.47
5.28
-1.33
-0.08
0.89
-0.15
-0.98

> <PUBCHEM_SHAPE_SELFOVERLAP>
1047.207

> <PUBCHEM_SHAPE_VOLUME>
288.4

> <PUBCHEM_COORDINATE_TYPE>
2
5
10

$$$$
