40780411
  -OEChem-12032416373D

 55 58  0     1  0  0  0  0  0999 V2000
   -9.6575   -0.6732    0.5579 F   0  0  0  0  0  0  0  0  0  0  0  0
    8.3383    1.3626    0.3147 O   0  0  0  0  0  0  0  0  0  0  0  0
   -3.4533    0.4749    0.1361 N   0  0  0  0  0  0  0  0  0  0  0  0
    3.2117   -0.7476    0.1615 N   0  0  0  0  0  0  0  0  0  0  0  0
    3.0181   -2.0507    0.4271 N   0  0  0  0  0  0  0  0  0  0  0  0
   -0.4250   -0.7630   -0.2779 C   0  0  2  0  0  0  0  0  0  0  0  0
   -1.0356    0.2806    0.6772 C   0  0  0  0  0  0  0  0  0  0  0  0
   -2.1236    1.0126   -0.1266 C   0  0  1  0  0  0  0  0  0  0  0  0
    1.0511   -0.9909   -0.0483 C   0  0  0  0  0  0  0  0  0  0  0  0
   -0.7708   -0.2004   -1.6256 C   0  0  0  0  0  0  0  0  0  0  0  0
   -1.6995    0.7579   -1.5394 C   0  0  0  0  0  0  0  0  0  0  0  0
    2.0653   -0.0681   -0.1292 C   0  0  0  0  0  0  0  0  0  0  0  0
    1.6963   -2.1933    0.2976 C   0  0  0  0  0  0  0  0  0  0  0  0
   -4.4878    1.3645   -0.3757 C   0  0  0  0  0  0  0  0  0  0  0  0
    2.0364    1.3733   -0.4510 C   0  0  0  0  0  0  0  0  0  0  0  0
    1.0855   -3.5162    0.5178 C   0  0  0  0  0  0  0  0  0  0  0  0
    4.5018   -0.2175    0.2009 C   0  0  0  0  0  0  0  0  0  0  0  0
   -5.8692    0.8202   -0.1261 C   0  0  0  0  0  0  0  0  0  0  0  0
    4.8044    0.8161    1.0873 C   0  0  0  0  0  0  0  0  0  0  0  0
    5.4886   -0.7202   -0.6472 C   0  0  0  0  0  0  0  0  0  0  0  0
   -6.4753   -0.0046   -1.0738 C   0  0  0  0  0  0  0  0  0  0  0  0
   -6.5430    1.1403    1.0527 C   0  0  0  0  0  0  0  0  0  0  0  0
    6.0936    1.3472    1.1256 C   0  0  0  0  0  0  0  0  0  0  0  0
    6.7777   -0.1893   -0.6091 C   0  0  0  0  0  0  0  0  0  0  0  0
    7.0803    0.8444    0.2773 C   0  0  0  0  0  0  0  0  0  0  0  0
   -7.7550   -0.5089   -0.8430 C   0  0  0  0  0  0  0  0  0  0  0  0
   -7.8228    0.6361    1.2834 C   0  0  0  0  0  0  0  0  0  0  0  0
   -8.4288   -0.1886    0.3356 C   0  0  0  0  0  0  0  0  0  0  0  0
    9.2981    0.8018   -0.5798 C   0  0  0  0  0  0  0  0  0  0  0  0
   -0.9604   -1.7148   -0.1663 H   0  0  0  0  0  0  0  0  0  0  0  0
   -0.2948    1.0116    1.0250 H   0  0  0  0  0  0  0  0  0  0  0  0
   -1.4220   -0.1973    1.5862 H   0  0  0  0  0  0  0  0  0  0  0  0
   -2.0730    2.0810    0.1163 H   0  0  0  0  0  0  0  0  0  0  0  0
   -0.3523   -0.5539   -2.5575 H   0  0  0  0  0  0  0  0  0  0  0  0
   -2.1072    1.2755   -2.3965 H   0  0  0  0  0  0  0  0  0  0  0  0
   -3.5790    0.3645    1.1426 H   0  0  0  0  0  0  0  0  0  0  0  0
   -4.3726    1.5265   -1.4548 H   0  0  0  0  0  0  0  0  0  0  0  0
   -4.4090    2.3557    0.0905 H   0  0  0  0  0  0  0  0  0  0  0  0
    2.0643    1.9734    0.4640 H   0  0  0  0  0  0  0  0  0  0  0  0
    2.8819    1.6645   -1.0831 H   0  0  0  0  0  0  0  0  0  0  0  0
    1.1360    1.6583   -0.9994 H   0  0  0  0  0  0  0  0  0  0  0  0
    0.5796   -3.8612   -0.3898 H   0  0  0  0  0  0  0  0  0  0  0  0
    1.8314   -4.2701    0.7911 H   0  0  0  0  0  0  0  0  0  0  0  0
    0.3481   -3.4692    1.3257 H   0  0  0  0  0  0  0  0  0  0  0  0
    4.0547    1.2124    1.7676 H   0  0  0  0  0  0  0  0  0  0  0  0
    5.2680   -1.5227   -1.3473 H   0  0  0  0  0  0  0  0  0  0  0  0
   -5.9602   -0.2630   -1.9952 H   0  0  0  0  0  0  0  0  0  0  0  0
   -6.0810    1.7803    1.7997 H   0  0  0  0  0  0  0  0  0  0  0  0
    6.3244    2.1501    1.8204 H   0  0  0  0  0  0  0  0  0  0  0  0
    7.4952   -0.6255   -1.2956 H   0  0  0  0  0  0  0  0  0  0  0  0
   -8.2271   -1.1515   -1.5804 H   0  0  0  0  0  0  0  0  0  0  0  0
   -8.3475    0.8847    2.2011 H   0  0  0  0  0  0  0  0  0  0  0  0
   10.2419    1.3320   -0.4150 H   0  0  0  0  0  0  0  0  0  0  0  0
    9.0177    0.9661   -1.6258 H   0  0  0  0  0  0  0  0  0  0  0  0
    9.4829   -0.2553   -0.3607 H   0  0  0  0  0  0  0  0  0  0  0  0
  1 28  1  0  0  0  0
  2 25  1  0  0  0  0
  2 29  1  0  0  0  0
  3  8  1  0  0  0  0
  3 14  1  0  0  0  0
  3 36  1  0  0  0  0
  4  5  1  0  0  0  0
  4 12  1  0  0  0  0
  4 17  1  0  0  0  0
  5 13  2  0  0  0  0
  6  7  1  0  0  0  0
  6  9  1  0  0  0  0
  6 10  1  0  0  0  0
  6 30  1  0  0  0  0
  7  8  1  0  0  0  0
  7 31  1  0  0  0  0
  7 32  1  0  0  0  0
  8 11  1  0  0  0  0
  8 33  1  0  0  0  0
  9 12  2  0  0  0  0
  9 13  1  0  0  0  0
 10 11  2  0  0  0  0
 10 34  1  0  0  0  0
 11 35  1  0  0  0  0
 12 15  1  0  0  0  0
 13 16  1  0  0  0  0
 14 18  1  0  0  0  0
 14 37  1  0  0  0  0
 14 38  1  0  0  0  0
 15 39  1  0  0  0  0
 15 40  1  0  0  0  0
 15 41  1  0  0  0  0
 16 42  1  0  0  0  0
 16 43  1  0  0  0  0
 16 44  1  0  0  0  0
 17 19  2  0  0  0  0
 17 20  1  0  0  0  0
 18 21  2  0  0  0  0
 18 22  1  0  0  0  0
 19 23  1  0  0  0  0
 19 45  1  0  0  0  0
 20 24  2  0  0  0  0
 20 46  1  0  0  0  0
 21 26  1  0  0  0  0
 21 47  1  0  0  0  0
 22 27  2  0  0  0  0
 22 48  1  0  0  0  0
 23 25  2  0  0  0  0
 23 49  1  0  0  0  0
 24 25  1  0  0  0  0
 24 50  1  0  0  0  0
 26 28  2  0  0  0  0
 26 51  1  0  0  0  0
 27 28  1  0  0  0  0
 27 52  1  0  0  0  0
 29 53  1  0  0  0  0
 29 54  1  0  0  0  0
 29 55  1  0  0  0  0
M  END
> <PUBCHEM_COMPOUND_CID>
40780411

> <PUBCHEM_CONFORMER_RMSD>
0.8

> <PUBCHEM_CONFORMER_DIVERSEORDER>
1
111
68
123
63
12
131
114
18
78
115
121
86
45
99
104
137
83
129
57
135
84
62
70
116
142
96
112
37
28
124
39
102
51
98
55
132
113
134
50
117
118
13
80
106
56
87
88
7
120
48
100
65
19
76
24
46
26
9
77
74
89
30
58
126
85
128
29
101
36
91
107
11
81
53
14
8
47
64
108
31
15
93
16
4
49
66
5
61
38
97
79
41
69
103
110
94
67
59
122
33
75
95
139
44
125
3
71
34
140
133
23
6
109
60
22
27
105
32
130
143
136
52
2
141
54
20
82
92
127
21
35
73
138
25
43
72
42
40
119
17
10
90

> <PUBCHEM_MMFF94_PARTIAL_CHARGES>
39
1 -0.19
10 -0.29
11 -0.29
12 -0.33
13 0.11
14 0.41
15 0.18
16 0.18
17 -0.02
18 -0.14
19 -0.15
2 -0.36
20 -0.15
21 -0.15
22 -0.15
23 -0.15
24 -0.15
25 0.08
26 -0.15
27 -0.15
28 0.19
29 0.28
3 -0.9
34 0.15
35 0.15
36 0.36
4 0.59
45 0.15
46 0.15
47 0.15
48 0.15
49 0.15
5 -0.71
50 0.15
51 0.15
52 0.15
6 0.32
8 0.41
9 -0.18

> <PUBCHEM_EFFECTIVE_ROTOR_COUNT>
6.6

> <PUBCHEM_PHARMACOPHORE_FEATURES>
8
1 2 acceptor
1 3 cation
1 3 donor
1 5 acceptor
5 4 5 9 12 13 rings
5 6 7 8 10 11 rings
6 17 19 20 23 24 25 rings
6 18 21 22 26 27 28 rings

> <PUBCHEM_HEAVY_ATOM_COUNT>
29

> <PUBCHEM_ATOM_DEF_STEREO_COUNT>
2

> <PUBCHEM_ATOM_UDEF_STEREO_COUNT>
0

> <PUBCHEM_BOND_DEF_STEREO_COUNT>
0

> <PUBCHEM_BOND_UDEF_STEREO_COUNT>
0

> <PUBCHEM_ISOTOPIC_ATOM_COUNT>
0

> <PUBCHEM_COMPONENT_COUNT>
1

> <PUBCHEM_CACTVS_TAUTO_COUNT>
1

> <PUBCHEM_CONFORMER_ID>
026E427B00000001

> <PUBCHEM_MMFF94_ENERGY>
86.2153

> <PUBCHEM_FEATURE_SELFOVERLAP>
40.597

> <PUBCHEM_SHAPE_FINGERPRINT>
10 15 17894629258209824800
10162869 55 18187361069641888231
10165383 225 18407759249234571554
10209105 3 9799150534395235040
10299344 5 17561362881526246973
106641 1 17458345256068908668
10670039 82 14189581810689976947
10674148 151 13110962015895475622
10883706 142 18131063828169062898
11408170 108 12396567499912927216
11724838 91 18260266351993711167
12236239 1 17846494811929796765
12730499 353 18336544919921668490
12758862 56 10879983653746815926
13914758 101 10881396513588539791
14216079 64 8790892882745525568
14294032 229 18260537922854952644
14849402 71 18343020033860372537
14856354 85 16415189101760631869
14933364 13 17561081397664449457
15183329 4 10879982537530513669
15188451 53 12324238352525105004
15347591 1 18120935002004079561
15728490 51 18411980291495957447
15840311 113 18272652385632494220
15849732 13 17989204854173547372
16120349 18 12035738630337211174
16992610 120 18338527417423512742
1754911 235 18131628976655473821
18335252 98 18412827971140640839
18365409 1 18339080513783902006
18603816 31 12973892554508096145
18608769 82 18409728482205704843
20105231 36 14477241578977246805
20505436 4 17989199339678373142
20771845 171 17313395487750819342
21150785 3 17489588961061004380
21365058 27 17561362877358524431
21792961 116 12391524061534596184
22149856 69 18042698208679686525
22224240 67 18259703402051079618
23516275 137 17560258937488214343
24771293 8 17894915092583960245
249057 25 12396586170235807935
28498 318 9655579612389044329
3092352 35 17275384308929508439
335352 9 18411141334470091372
3552219 110 17561090198390407433
3663271 9 18271808965829308635
4258327 124 18115601468787767932
4325135 7 18411417311366527597
4339292 15 8934734314513039792
4340502 62 18408885118333273371
439807 62 11959738162201637244
5381727 24 18334008381567973162
54076057 127 18201723912188707062
5758199 1 18412544305909944251
59682541 35 18259989292744625337
6081469 158 11530477835626703366
6394761 36 11455890265386042721
6691757 9 15140971629976800793
67123 10 18202283610814351093
9663363 56 17675924301714181973
9689198 14 17561366175449872737

> <PUBCHEM_SHAPE_MULTIPOLES>
568.72
28.88
1.93
1.15
18.18
1.75
-0.13
-8.84
3.12
-1.65
0.43
0.71
-0.16
-0.04

> <PUBCHEM_SHAPE_SELFOVERLAP>
1233.207

> <PUBCHEM_SHAPE_VOLUME>
315.4

> <PUBCHEM_COORDINATE_TYPE>
2
5
10

$$$$
