11941759
  -OEChem-12032416333D

 65 69  0     1  0  0  0  0  0999 V2000
   -3.0945   -1.4258    1.8583 O   0  0  0  0  0  0  0  0  0  0  0  0
   -0.0061   -2.1002    1.8368 O   0  0  0  0  0  0  0  0  0  0  0  0
   -4.1132    1.3917   -0.7440 N   0  0  2  0  0  0  0  0  0  0  0  0
   -0.9853    2.8799    0.7915 N   0  0  0  0  0  0  0  0  0  0  0  0
   -2.3254   -2.9156    0.2434 N   0  0  0  0  0  0  0  0  0  0  0  0
   -0.6445    4.1108    0.4258 N   0  0  0  0  0  0  0  0  0  0  0  0
    0.6817    4.2264    0.6023 N   0  0  0  0  0  0  0  0  0  0  0  0
    3.1974    1.6264    0.8781 N   0  0  1  0  0  0  0  0  0  0  0  0
   -2.6228   -0.6102   -1.4808 C   0  0  2  0  0  0  0  0  0  0  0  0
   -2.6765    1.7549   -0.6166 C   0  0  2  0  0  0  0  0  0  0  0  0
   -3.6614   -1.0455   -0.4292 C   0  0  2  0  0  0  0  0  0  0  0  0
   -1.7710    0.5365   -0.9010 C   0  0  0  0  0  0  0  0  0  0  0  0
   -3.4108   -0.0380   -2.6728 C   0  0  0  0  0  0  0  0  0  0  0  0
   -4.4165    0.1953    0.0797 C   0  0  0  0  0  0  0  0  0  0  0  0
   -4.3731    1.0524   -2.1655 C   0  0  0  0  0  0  0  0  0  0  0  0
   -2.3557    2.3988    0.7340 C   0  0  0  0  0  0  0  0  0  0  0  0
   -3.0137   -1.8013    0.6917 C   0  0  0  0  0  0  0  0  0  0  0  0
    0.1489    2.2331    1.1975 C   0  0  0  0  0  0  0  0  0  0  0  0
   -1.5953   -3.8002    1.1223 C   0  0  0  0  0  0  0  0  0  0  0  0
    1.2259    3.0760    1.0845 C   0  0  0  0  0  0  0  0  0  0  0  0
   -0.1736   -3.3459    1.3207 C   0  0  0  0  0  0  0  0  0  0  0  0
    2.6472    2.9023    1.3754 C   0  0  0  0  0  0  0  0  0  0  0  0
    1.0449   -3.9388    1.0845 C   0  0  0  0  0  0  0  0  0  0  0  0
    3.4260    1.7093   -0.5594 C   0  0  0  0  0  0  0  0  0  0  0  0
    4.4316    1.3072    1.5854 C   0  0  0  0  0  0  0  0  0  0  0  0
    2.0240   -2.9967    1.4809 C   0  0  0  0  0  0  0  0  0  0  0  0
    1.3340   -1.8954    1.9312 C   0  0  0  0  0  0  0  0  0  0  0  0
    3.4711    0.3474   -1.1996 C   0  0  0  0  0  0  0  0  0  0  0  0
    4.6844   -0.3320   -1.3089 C   0  0  0  0  0  0  0  0  0  0  0  0
    2.2995   -0.2353   -1.6831 C   0  0  0  0  0  0  0  0  0  0  0  0
    4.7263   -1.5939   -1.9018 C   0  0  0  0  0  0  0  0  0  0  0  0
    2.3415   -1.4973   -2.2760 C   0  0  0  0  0  0  0  0  0  0  0  0
    3.5549   -2.1765   -2.3854 C   0  0  0  0  0  0  0  0  0  0  0  0
   -1.9737   -1.4213   -1.8230 H   0  0  0  0  0  0  0  0  0  0  0  0
   -2.4613    2.5178   -1.3797 H   0  0  0  0  0  0  0  0  0  0  0  0
   -4.3823   -1.7304   -0.8981 H   0  0  0  0  0  0  0  0  0  0  0  0
   -0.9964    0.8203   -1.6232 H   0  0  0  0  0  0  0  0  0  0  0  0
   -1.2638    0.1706   -0.0036 H   0  0  0  0  0  0  0  0  0  0  0  0
   -2.7191    0.3845   -3.4115 H   0  0  0  0  0  0  0  0  0  0  0  0
   -3.9776   -0.8319   -3.1731 H   0  0  0  0  0  0  0  0  0  0  0  0
   -4.2463    0.4284    1.1348 H   0  0  0  0  0  0  0  0  0  0  0  0
   -5.4957   -0.0006    0.0199 H   0  0  0  0  0  0  0  0  0  0  0  0
   -4.2787    1.9514   -2.7873 H   0  0  0  0  0  0  0  0  0  0  0  0
   -5.4133    0.7232   -2.2839 H   0  0  0  0  0  0  0  0  0  0  0  0
   -3.0069    3.2598    0.9264 H   0  0  0  0  0  0  0  0  0  0  0  0
   -2.4731    1.6991    1.5687 H   0  0  0  0  0  0  0  0  0  0  0  0
   -2.3576   -3.1658   -0.7400 H   0  0  0  0  0  0  0  0  0  0  0  0
    0.0981    1.2135    1.5533 H   0  0  0  0  0  0  0  0  0  0  0  0
   -2.1009   -3.8481    2.0927 H   0  0  0  0  0  0  0  0  0  0  0  0
   -1.6134   -4.7983    0.6731 H   0  0  0  0  0  0  0  0  0  0  0  0
    3.2307    3.7521    0.9974 H   0  0  0  0  0  0  0  0  0  0  0  0
    2.7386    2.9373    2.4698 H   0  0  0  0  0  0  0  0  0  0  0  0
    1.2096   -4.9257    0.6765 H   0  0  0  0  0  0  0  0  0  0  0  0
    4.3385    2.2732   -0.7993 H   0  0  0  0  0  0  0  0  0  0  0  0
    2.6207    2.2641   -1.0607 H   0  0  0  0  0  0  0  0  0  0  0  0
    4.7986    0.3084    1.3330 H   0  0  0  0  0  0  0  0  0  0  0  0
    5.2278    2.0349    1.3901 H   0  0  0  0  0  0  0  0  0  0  0  0
    4.2587    1.2818    2.6680 H   0  0  0  0  0  0  0  0  0  0  0  0
    3.0982   -3.1053    1.4411 H   0  0  0  0  0  0  0  0  0  0  0  0
    1.6335   -0.9367    2.3284 H   0  0  0  0  0  0  0  0  0  0  0  0
    5.6078    0.1131   -0.9483 H   0  0  0  0  0  0  0  0  0  0  0  0
    1.3486    0.2822   -1.6011 H   0  0  0  0  0  0  0  0  0  0  0  0
    5.6714   -2.1220   -1.9889 H   0  0  0  0  0  0  0  0  0  0  0  0
    1.4287   -1.9516   -2.6501 H   0  0  0  0  0  0  0  0  0  0  0  0
    3.5873   -3.1594   -2.8463 H   0  0  0  0  0  0  0  0  0  0  0  0
  1 17  2  0  0  0  0
  2 21  1  0  0  0  0
  2 27  1  0  0  0  0
  3 10  1  0  0  0  0
  3 14  1  0  0  0  0
  3 15  1  0  0  0  0
  4  6  1  0  0  0  0
  4 16  1  0  0  0  0
  4 18  1  0  0  0  0
  5 17  1  0  0  0  0
  5 19  1  0  0  0  0
  5 47  1  0  0  0  0
  6  7  2  0  0  0  0
  7 20  1  0  0  0  0
  8 22  1  0  0  0  0
  8 24  1  0  0  0  0
  8 25  1  0  0  0  0
  9 11  1  0  0  0  0
  9 12  1  0  0  0  0
  9 13  1  0  0  0  0
  9 34  1  0  0  0  0
 10 12  1  0  0  0  0
 10 16  1  0  0  0  0
 10 35  1  0  0  0  0
 11 14  1  0  0  0  0
 11 17  1  0  0  0  0
 11 36  1  0  0  0  0
 12 37  1  0  0  0  0
 12 38  1  0  0  0  0
 13 15  1  0  0  0  0
 13 39  1  0  0  0  0
 13 40  1  0  0  0  0
 14 41  1  0  0  0  0
 14 42  1  0  0  0  0
 15 43  1  0  0  0  0
 15 44  1  0  0  0  0
 16 45  1  0  0  0  0
 16 46  1  0  0  0  0
 18 20  2  0  0  0  0
 18 48  1  0  0  0  0
 19 21  1  0  0  0  0
 19 49  1  0  0  0  0
 19 50  1  0  0  0  0
 20 22  1  0  0  0  0
 21 23  2  0  0  0  0
 22 51  1  0  0  0  0
 22 52  1  0  0  0  0
 23 26  1  0  0  0  0
 23 53  1  0  0  0  0
 24 28  1  0  0  0  0
 24 54  1  0  0  0  0
 24 55  1  0  0  0  0
 25 56  1  0  0  0  0
 25 57  1  0  0  0  0
 25 58  1  0  0  0  0
 26 27  2  0  0  0  0
 26 59  1  0  0  0  0
 27 60  1  0  0  0  0
 28 29  2  0  0  0  0
 28 30  1  0  0  0  0
 29 31  1  0  0  0  0
 29 61  1  0  0  0  0
 30 32  2  0  0  0  0
 30 62  1  0  0  0  0
 31 33  2  0  0  0  0
 31 63  1  0  0  0  0
 32 33  1  0  0  0  0
 32 64  1  0  0  0  0
 33 65  1  0  0  0  0
M  END
> <PUBCHEM_COMPOUND_CID>
11941759

> <PUBCHEM_CONFORMER_RMSD>
1.4

> <PUBCHEM_CONFORMER_DIVERSEORDER>
1
36
90
46
81
3
21
24
58
10
35
57
77
14
18
45
84
54
11
55
32
13
76
68
9
34
40
25
44
6
88
5
37
67
53
89
20
86
85
70
41
26
2
48
17
23
65
63
27
33
31
66
19
8
80
51
28
87
61
15
47
42
29
72
30
22
12
62
50
56
91
49
38
7
39
83
43
52
82
71
4
59
69
64
73
78
75
16
79
60
74

> <PUBCHEM_MMFF94_PARTIAL_CHARGES>
40
1 -0.57
10 0.27
11 0.06
14 0.27
15 0.27
16 0.26
17 0.57
18 -0.3
19 0.48
2 -0.28
20 0.05
21 -0.04
22 0.45
23 -0.15
24 0.41
25 0.27
26 -0.15
27 -0.01
28 -0.14
29 -0.15
3 -0.81
30 -0.15
31 -0.15
32 -0.15
33 -0.15
4 0.31
47 0.37
48 0.15
5 -0.73
53 0.15
59 0.15
6 -0.42
60 0.15
61 0.15
62 0.15
63 0.15
64 0.15
65 0.15
7 -0.23
8 -0.81

> <PUBCHEM_EFFECTIVE_ROTOR_COUNT>
11.2

> <PUBCHEM_PHARMACOPHORE_FEATURES>
9
1 1 acceptor
1 2 acceptor
1 3 cation
1 5 donor
1 8 cation
5 2 21 23 26 27 rings
5 4 6 7 18 20 rings
6 28 29 30 31 32 33 rings
8 3 9 10 11 12 13 14 15 rings

> <PUBCHEM_HEAVY_ATOM_COUNT>
33

> <PUBCHEM_ATOM_DEF_STEREO_COUNT>
3

> <PUBCHEM_ATOM_UDEF_STEREO_COUNT>
0

> <PUBCHEM_BOND_DEF_STEREO_COUNT>
0

> <PUBCHEM_BOND_UDEF_STEREO_COUNT>
0

> <PUBCHEM_ISOTOPIC_ATOM_COUNT>
0

> <PUBCHEM_COMPONENT_COUNT>
1

> <PUBCHEM_CACTVS_TAUTO_COUNT>
2

> <PUBCHEM_CONFORMER_ID>
00B6377F00000001

> <PUBCHEM_MMFF94_ENERGY>
67.8956

> <PUBCHEM_FEATURE_SELFOVERLAP>
45.672

> <PUBCHEM_SHAPE_FINGERPRINT>
10816530 90 17768233623925061725
108634 29 18338233898783438618
11285246 1 18124059857142369190
11828532 37 17610058245365661347
12100795 323 17044018758795384586
12788726 201 17981889635957733461
133893 2 16808993290977132378
13402501 40 18050291667265464698
1361 2 16543825656349522999
13615921 28 18121480376582307774
13617811 41 17749099037793174133
13642711 20 18338501028116200190
14114206 34 18267024942659272148
14251757 17 18341056318982555154
14279260 333 17980218396186824150
14400156 260 17624689060983245285
14659021 117 18125172545977566380
17909252 39 17703517589046442596
17921350 177 17977656838735219504
19319366 153 17687773556829796808
20764821 26 18336559277938894960
3298306 158 18189595259725519665
35225 105 17755840258740297158
354706 35 17616792771238628717
44344687 77 17837749482192542335
463206 1 18122064208972664560
469060 322 16808176568591561811
474144 1 17325500899469266320
508706 21 18116713104449083974
550186 7 17398102142331683936

> <PUBCHEM_SHAPE_MULTIPOLES>
637.5
8.91
5.54
2.57
0.87
0.41
-1.01
0.29
-4.83
0.87
3.72
0.96
-1.18
2.21

> <PUBCHEM_SHAPE_SELFOVERLAP>
1367.796

> <PUBCHEM_SHAPE_VOLUME>
350.1

> <PUBCHEM_COORDINATE_TYPE>
2
5
10

$$$$
