44716866
  -OEChem-12032416133D

 70 72  0     1  0  0  0  0  0999 V2000
    5.6327   -3.0874   -2.8608 F   0  0  0  0  0  0  0  0  0  0  0  0
   -4.3716   -0.5097   -0.1355 O   0  0  0  0  0  0  0  0  0  0  0  0
    1.2839    4.0111    0.0536 O   0  0  0  0  0  0  0  0  0  0  0  0
   -4.8440    1.8080   -1.5295 O   0  0  0  0  0  0  0  0  0  0  0  0
    4.0464    1.9772    1.5308 O   0  0  0  0  0  0  0  0  0  0  0  0
   -3.9038   -2.7233    0.2588 O   0  0  0  0  0  0  0  0  0  0  0  0
    3.1579   -0.0891    2.1157 N   0  0  0  0  0  0  0  0  0  0  0  0
   -6.0844   -1.9494    0.0878 N   0  0  0  0  0  0  0  0  0  0  0  0
   -0.6187    1.5604    0.5498 C   0  0  2  0  0  0  0  0  0  0  0  0
   -1.1289    1.3631   -0.9300 C   0  0  1  0  0  0  0  0  0  0  0  0
   -2.6457    0.9718   -1.1092 C   0  0  1  0  0  0  0  0  0  0  0  0
    0.9639    1.6235    0.4889 C   0  0  1  0  0  0  0  0  0  0  0  0
   -1.0482    0.3253    1.3865 C   0  0  0  0  0  0  0  0  0  0  0  0
   -0.6498    2.5179   -1.8370 C   0  0  0  0  0  0  0  0  0  0  0  0
   -2.9736   -0.2225   -0.1628 C   0  0  1  0  0  0  0  0  0  0  0  0
    1.4998    2.7068   -0.4758 C   0  0  1  0  0  0  0  0  0  0  0  0
   -2.5330   -0.0034    1.2804 C   0  0  0  0  0  0  0  0  0  0  0  0
    0.8767    2.6047   -1.8650 C   0  0  0  0  0  0  0  0  0  0  0  0
   -1.1869    2.8256    1.2377 C   0  0  0  0  0  0  0  0  0  0  0  0
   -3.6275    2.1426   -0.8985 C   0  0  0  0  0  0  0  0  0  0  0  0
   -2.8767    0.4854   -2.5695 C   0  0  0  0  0  0  0  0  0  0  0  0
    1.6592    1.7507    1.8540 C   0  0  0  0  0  0  0  0  0  0  0  0
    3.0876    1.2617    1.8076 C   0  0  0  0  0  0  0  0  0  0  0  0
   -4.7118   -1.8164    0.0872 C   0  0  0  0  0  0  0  0  0  0  0  0
    4.3994   -0.8277    2.1467 C   0  0  0  0  0  0  0  0  0  0  0  0
   -6.7685   -3.2047    0.2959 C   0  0  0  0  0  0  0  0  0  0  0  0
    4.7284   -1.4301    0.8114 C   0  0  0  0  0  0  0  0  0  0  0  0
   -6.8380   -3.5613    1.7664 C   0  0  0  0  0  0  0  0  0  0  0  0
    4.2775   -2.7116    0.4945 C   0  0  0  0  0  0  0  0  0  0  0  0
    5.4847   -0.7087   -0.1123 C   0  0  0  0  0  0  0  0  0  0  0  0
    4.5830   -3.2717   -0.7457 C   0  0  0  0  0  0  0  0  0  0  0  0
    5.7903   -1.2688   -1.3527 C   0  0  0  0  0  0  0  0  0  0  0  0
    5.3396   -2.5502   -1.6693 C   0  0  0  0  0  0  0  0  0  0  0  0
   -0.5861    0.4740   -1.2937 H   0  0  0  0  0  0  0  0  0  0  0  0
    1.2853    0.6618    0.0588 H   0  0  0  0  0  0  0  0  0  0  0  0
   -0.4753   -0.5546    1.0650 H   0  0  0  0  0  0  0  0  0  0  0  0
   -0.8200    0.4727    2.4478 H   0  0  0  0  0  0  0  0  0  0  0  0
   -0.9862    2.3669   -2.8675 H   0  0  0  0  0  0  0  0  0  0  0  0
   -1.0661    3.4776   -1.5166 H   0  0  0  0  0  0  0  0  0  0  0  0
   -2.4243   -1.0913   -0.5542 H   0  0  0  0  0  0  0  0  0  0  0  0
    2.5841    2.5933   -0.5874 H   0  0  0  0  0  0  0  0  0  0  0  0
   -3.1449    0.7710    1.7558 H   0  0  0  0  0  0  0  0  0  0  0  0
   -2.7308   -0.9072    1.8706 H   0  0  0  0  0  0  0  0  0  0  0  0
    1.1667    3.4691   -2.4741 H   0  0  0  0  0  0  0  0  0  0  0  0
    1.2696    1.7114   -2.3670 H   0  0  0  0  0  0  0  0  0  0  0  0
   -1.0624    3.7304    0.6404 H   0  0  0  0  0  0  0  0  0  0  0  0
   -0.7008    3.0025    2.2031 H   0  0  0  0  0  0  0  0  0  0  0  0
   -2.2516    2.7445    1.4572 H   0  0  0  0  0  0  0  0  0  0  0  0
   -3.8366    2.3350    0.1545 H   0  0  0  0  0  0  0  0  0  0  0  0
   -3.2650    3.0665   -1.3563 H   0  0  0  0  0  0  0  0  0  0  0  0
   -3.8289   -0.0442   -2.6908 H   0  0  0  0  0  0  0  0  0  0  0  0
   -2.0954   -0.2222   -2.8714 H   0  0  0  0  0  0  0  0  0  0  0  0
   -2.8650    1.3125   -3.2875 H   0  0  0  0  0  0  0  0  0  0  0  0
    1.6758    2.7879    2.2080 H   0  0  0  0  0  0  0  0  0  0  0  0
    1.1376    1.1876    2.6330 H   0  0  0  0  0  0  0  0  0  0  0  0
    1.6662    4.6510   -0.5707 H   0  0  0  0  0  0  0  0  0  0  0  0
   -5.4542    2.5531   -1.3957 H   0  0  0  0  0  0  0  0  0  0  0  0
    2.3027   -0.6059    2.2989 H   0  0  0  0  0  0  0  0  0  0  0  0
   -6.6448   -1.1157   -0.0607 H   0  0  0  0  0  0  0  0  0  0  0  0
    5.2092   -0.1660    2.4764 H   0  0  0  0  0  0  0  0  0  0  0  0
    4.2984   -1.6100    2.9075 H   0  0  0  0  0  0  0  0  0  0  0  0
   -6.2399   -3.9889   -0.2563 H   0  0  0  0  0  0  0  0  0  0  0  0
   -7.7752   -3.1046   -0.1212 H   0  0  0  0  0  0  0  0  0  0  0  0
   -7.3787   -4.5025    1.9056 H   0  0  0  0  0  0  0  0  0  0  0  0
   -5.8375   -3.6762    2.1961 H   0  0  0  0  0  0  0  0  0  0  0  0
   -7.3557   -2.7810    2.3342 H   0  0  0  0  0  0  0  0  0  0  0  0
    3.6857   -3.2828    1.2049 H   0  0  0  0  0  0  0  0  0  0  0  0
    5.8449    0.2893    0.1215 H   0  0  0  0  0  0  0  0  0  0  0  0
    4.2317   -4.2690   -0.9931 H   0  0  0  0  0  0  0  0  0  0  0  0
    6.3795   -0.7076   -2.0719 H   0  0  0  0  0  0  0  0  0  0  0  0
  1 33  1  0  0  0  0
  2 15  1  0  0  0  0
  2 24  1  0  0  0  0
  3 16  1  0  0  0  0
  3 56  1  0  0  0  0
  4 20  1  0  0  0  0
  4 57  1  0  0  0  0
  5 23  2  0  0  0  0
  6 24  2  0  0  0  0
  7 23  1  0  0  0  0
  7 25  1  0  0  0  0
  7 58  1  0  0  0  0
  8 24  1  0  0  0  0
  8 26  1  0  0  0  0
  8 59  1  0  0  0  0
  9 10  1  0  0  0  0
  9 12  1  0  0  0  0
  9 13  1  0  0  0  0
  9 19  1  0  0  0  0
 10 11  1  0  0  0  0
 10 14  1  0  0  0  0
 10 34  1  0  0  0  0
 11 15  1  0  0  0  0
 11 20  1  0  0  0  0
 11 21  1  0  0  0  0
 12 16  1  0  0  0  0
 12 22  1  0  0  0  0
 12 35  1  0  0  0  0
 13 17  1  0  0  0  0
 13 36  1  0  0  0  0
 13 37  1  0  0  0  0
 14 18  1  0  0  0  0
 14 38  1  0  0  0  0
 14 39  1  0  0  0  0
 15 17  1  0  0  0  0
 15 40  1  0  0  0  0
 16 18  1  0  0  0  0
 16 41  1  0  0  0  0
 17 42  1  0  0  0  0
 17 43  1  0  0  0  0
 18 44  1  0  0  0  0
 18 45  1  0  0  0  0
 19 46  1  0  0  0  0
 19 47  1  0  0  0  0
 19 48  1  0  0  0  0
 20 49  1  0  0  0  0
 20 50  1  0  0  0  0
 21 51  1  0  0  0  0
 21 52  1  0  0  0  0
 21 53  1  0  0  0  0
 22 23  1  0  0  0  0
 22 54  1  0  0  0  0
 22 55  1  0  0  0  0
 25 27  1  0  0  0  0
 25 60  1  0  0  0  0
 25 61  1  0  0  0  0
 26 28  1  0  0  0  0
 26 62  1  0  0  0  0
 26 63  1  0  0  0  0
 27 29  2  0  0  0  0
 27 30  1  0  0  0  0
 28 64  1  0  0  0  0
 28 65  1  0  0  0  0
 28 66  1  0  0  0  0
 29 31  1  0  0  0  0
 29 67  1  0  0  0  0
 30 32  2  0  0  0  0
 30 68  1  0  0  0  0
 31 33  2  0  0  0  0
 31 69  1  0  0  0  0
 32 33  1  0  0  0  0
 32 70  1  0  0  0  0
M  END
> <PUBCHEM_COMPOUND_CID>
44716866

> <PUBCHEM_CONFORMER_RMSD>
1

> <PUBCHEM_CONFORMER_DIVERSEORDER>
1
55
11
24
20
53
78
82
88
99
69
94
63
72
90
98
56
65
81
100
91
83
9
66
41
95
50
75
96
68
46
73
60
37
25
97
28
61
87
70
86
18
84
58
43
67
23
40
35
57
32
101
4
33
47
39
48
93
54
85
71
77
49
17
8
31
29
89
74
51
19
59
26
80
76
13
6
27
36
52
10
42
45
44
30
12
79
92
34
2
7
64
62
21
38
16
14
5
15
22
3

> <PUBCHEM_MMFF94_PARTIAL_CHARGES>
30
1 -0.19
15 0.28
16 0.28
2 -0.43
20 0.28
22 0.06
23 0.57
24 0.78
25 0.44
26 0.3
27 -0.14
29 -0.15
3 -0.68
30 -0.15
31 -0.15
32 -0.15
33 0.19
4 -0.68
5 -0.57
56 0.4
57 0.4
58 0.37
59 0.37
6 -0.57
67 0.15
68 0.15
69 0.15
7 -0.73
70 0.15
8 -0.73

> <PUBCHEM_EFFECTIVE_ROTOR_COUNT>
11.6

> <PUBCHEM_PHARMACOPHORE_FEATURES>
11
1 3 acceptor
1 3 donor
1 4 acceptor
1 4 donor
1 5 acceptor
1 6 acceptor
1 7 donor
1 8 donor
6 27 29 30 31 32 33 rings
6 9 10 11 13 15 17 rings
6 9 10 12 14 16 18 rings

> <PUBCHEM_HEAVY_ATOM_COUNT>
33

> <PUBCHEM_ATOM_DEF_STEREO_COUNT>
5

> <PUBCHEM_ATOM_UDEF_STEREO_COUNT>
1

> <PUBCHEM_BOND_DEF_STEREO_COUNT>
0

> <PUBCHEM_BOND_UDEF_STEREO_COUNT>
0

> <PUBCHEM_ISOTOPIC_ATOM_COUNT>
0

> <PUBCHEM_COMPONENT_COUNT>
1

> <PUBCHEM_CACTVS_TAUTO_COUNT>
4

> <PUBCHEM_CONFORMER_ID>
02AA534200000001

> <PUBCHEM_MMFF94_ENERGY>
93.99

> <PUBCHEM_FEATURE_SELFOVERLAP>
55.837

> <PUBCHEM_SHAPE_FINGERPRINT>
10928967 22 18189617138241986258
10981352 41 18270392927554477607
11607047 141 18197233623255109971
117089 54 17629777682057821006
12047536 79 17132122337877284209
12422481 6 14979962423784690768
12623949 98 18264203789084935185
12633257 1 15267336349097900072
131258 43 18201451281061316500
13383661 66 16673921993967084730
1361 87 18057609759500416326
13782708 43 18340200890974133455
14251740 57 18342458174907135370
14556957 393 15140945254424140295
15475509 35 18058736934484530930
15484559 13 15660304313432133306
15510800 12 18200866280529421890
15669420 48 18335147540006800710
16989378 47 17313388984721823455
20587220 46 17540829712521566507
20715895 44 11097849705685588354
20775530 9 18339914995690189062
21796203 349 16343130322422928394
23559900 14 18339914944330098496
23569914 2 8645647271730326039
24893989 43 17537156226545399035
25269216 80 17603589646775982183
3146122 67 17681560556373096907
3862424 121 18336847354138746254
4394409 98 16170861863427584042
4435113 14 18200604592145349454
46194498 28 18041834155063190104
613672 6 18198881683267748328
7918774 8 18341611482323655866
86090 222 18412258463194821570
9831232 110 18261951942533687611
9980921 177 17845114934461114603

> <PUBCHEM_SHAPE_MULTIPOLES>
632.54
15.65
4.92
2.38
4.99
1.36
-0.48
22.31
-1.24
1.64
-0.63
-2.03
-0.05
4.71

> <PUBCHEM_SHAPE_SELFOVERLAP>
1313.748

> <PUBCHEM_SHAPE_VOLUME>
358.5

> <PUBCHEM_COORDINATE_TYPE>
2
5
10

$$$$
